#------------------------------------------------------------------------------
#$Date: 2021-09-07 16:59:00 +0300 (Tue, 07 Sep 2021) $
#$Revision: 269027 $
#$URL: file:///home/coder/svn-repositories/cod/cif/3/00/03/3000309.cif $
#------------------------------------------------------------------------------
#
# This file is available in the Crystallography Open Database (COD),
# http://www.crystallography.net/
#
# All data on this site have been placed in the public domain by the
# contributors.
#
data_3000309
loop_
_publ_author_name
'M\"unchhalfen, Marie'
'Schreuer, J\"urgen'
'Reuther, Christoph'
'Mehner, Erik'
'St\"ocker, Hartmut'
_publ_section_title
;
 Elastic, piezoelectric, and dielectric properties of rare-earth calcium
 oxoborates RCa4O(BO3)3 (R&#x2009;=&#x2009;Er, Y, Dy, Gd, Sm, Nd, La)
;
_journal_issue                   9
_journal_name_full               'Journal of Applied Physics'
_journal_page_first              095102
_journal_paper_doi               10.1063/5.0061747
_journal_volume                  130
_journal_year                    2021
_chemical_formula_moiety         'Gd Ca4 O (B O3 )3'
_chemical_formula_sum            'B3 Ca4 Gd O10'
_chemical_formula_weight         510.00
_chemical_name_common            'gadolinium calcium oxoborate'
_space_group_crystal_system      monoclinic
_space_group_IT_number           8
_space_group_name_Hall           'C -2y'
_space_group_name_H-M_alt        'C 1 m 1'
_atom_sites_solution_hydrogens   .
_audit_creation_method           SHELXL-2014/7
_cell_angle_alpha                90
_cell_angle_beta                 101.254(3)
_cell_angle_gamma                90
_cell_formula_units_Z            2
_cell_length_a                   8.0942(4)
_cell_length_b                   16.0133(4)
_cell_length_c                   3.55682(9)
_cell_measurement_reflns_used    4012
_cell_measurement_temperature    293(2)
_cell_measurement_theta_max      42.3930
_cell_measurement_theta_min      3.5920
_cell_volume                     452.15(3)
_computing_cell_refinement       'CrysAlisPro 1.171.36.24 (Rigaku OD, 2012)'
_computing_data_collection       'CrysAlisCCD (Oxford Diffraction, 2002)'
_computing_data_reduction        'CrysAlisPro 1.171.36.24 (Rigaku OD, 2012)'
_computing_molecular_graphics    'VESTA 3 ( Momma & Izumi, 2011 )'
_computing_structure_refinement  'SHELXL-2014/7 (Sheldrick, 2014)'
_computing_structure_solution    'SHELXS-2013/1 (Sheldrick, 2013)'
_diffrn_ambient_temperature      293(2)
_diffrn_measured_fraction_theta_full 0.995
_diffrn_measured_fraction_theta_max 0.805
_diffrn_measurement_device_type  'Xcalibur with Sapphire2 CCD-area detector'
_diffrn_measurement_method       '\w and \f'
_diffrn_radiation_type           MoK\a
_diffrn_radiation_wavelength     0.71073
_diffrn_reflns_av_R_equivalents  0.0225
_diffrn_reflns_av_unetI/netI     0.0340
_diffrn_reflns_Laue_measured_fraction_full 0.995
_diffrn_reflns_Laue_measured_fraction_max 0.805
_diffrn_reflns_limit_h_max       12
_diffrn_reflns_limit_h_min       -14
_diffrn_reflns_limit_k_max       28
_diffrn_reflns_limit_k_min       -30
_diffrn_reflns_limit_l_max       6
_diffrn_reflns_limit_l_min       -6
_diffrn_reflns_number            4471
_diffrn_reflns_point_group_measured_fraction_full 0.952
_diffrn_reflns_point_group_measured_fraction_max 0.641
_diffrn_reflns_theta_full        25.242
_diffrn_reflns_theta_max         42.594
_diffrn_reflns_theta_min         4.602
_exptl_absorpt_coefficient_mu    9.645
_exptl_absorpt_correction_T_max  0.528
_exptl_absorpt_correction_T_min  0.310
_exptl_absorpt_correction_type   analytical
_exptl_absorpt_process_details
;
CrysAlisPro, Agilent Technologies,
Version 1.171.36.24 (release 03-12-2012 CrysAlis171 .NET)
(compiled Dec  3 2012,18:21:49)
Analytical numeric absorption correction using a multifaceted crystal
			model based on expressions derived by R.C. Clark & J.S. Reid.
(Clark, R. C. & Reid, J. S. (1995). Acta Cryst. A51, 887-897)
;
_exptl_crystal_colour            colorless
_exptl_crystal_density_diffrn    3.746
_exptl_crystal_density_meas      3.736(4)
_exptl_crystal_density_method    buoyancy
_exptl_crystal_F_000             478
_exptl_crystal_size_max          0.2129
_exptl_crystal_size_mid          0.1287
_exptl_crystal_size_min          0.0930
_refine_diff_density_max         1.499
_refine_diff_density_min         -1.564
_refine_diff_density_rms         0.218
_refine_ls_abs_structure_details
;
 Flack x determined using 781 quotients [(I+)-(I-)]/[(I+)+(I-)]
 (Parsons, Flack and Wagner, Acta Cryst. B69 (2013) 249-259).
;
_refine_ls_abs_structure_Flack   -0.032(6)
_refine_ls_extinction_coef       0.0418(11)
_refine_ls_extinction_expression Fc^*^=kFc[1+0.001xFc^2^\l^3^/sin(2\q)]^-1/4^
_refine_ls_extinction_method     'SHELXL-2014/7 (Sheldrick 2014'
_refine_ls_goodness_of_fit_ref   1.059
_refine_ls_hydrogen_treatment    undef
_refine_ls_matrix_type           full
_refine_ls_number_parameters     92
_refine_ls_number_reflns         2149
_refine_ls_number_restraints     3
_refine_ls_restrained_S_all      1.058
_refine_ls_R_factor_all          0.0195
_refine_ls_R_factor_gt           0.0194
_refine_ls_shift/su_max          0.001
_refine_ls_shift/su_mean         0.000
_refine_ls_structure_factor_coef Fsqd
_refine_ls_weighting_details
'w=1/[\s^2^(Fo^2^)+(0.0180P)^2^] where P=(Fo^2^+2Fc^2^)/3'
_refine_ls_weighting_scheme      calc
_refine_ls_wR_factor_gt          0.0412
_refine_ls_wR_factor_ref         0.0413
_reflns_Friedel_coverage         0.586
_reflns_Friedel_fraction_full    0.907
_reflns_Friedel_fraction_max     0.476
_reflns_number_gt                2143
_reflns_number_total             2149
_reflns_threshold_expression     'I > 2\s(I)'
_cod_data_source_file            GdCOB.cif
_cod_data_source_block           GdCOB
_cod_depositor_comments
'Releasing structure 3000309 into public domain as published material.'
_cod_original_sg_symbol_H-M      'C m'
_cod_database_code               3000309
_shelx_shelxl_version_number     2014/7
_shelx_space_group_comment
;
The symmetry employed for this shelxl refinement is uniquely defined
by the following loop, which should always be used as a source of
symmetry information in preference to the above space-group names.
They are only intended as comments.
;
_shelx_res_file
;

    GdCOB13-kT.res created by SHELXL-2014/7


TITL GdCOB in Cm
REM Cm (#8 in standard setting)
CELL 0.71073   8.094188  16.013347   3.556823  90.0000 101.2536  90.0000
ZERR    2.00   0.000358   0.000400   0.000090   0.0000   0.0030   0.0000
LATT -7
SYMM  x,-y, z
SFAC B O Ca Gd
UNIT 6.00 20.00 8.00 2.00

L.S. 10
BOND
FMAP 2
PLAN 20
acta

sump 1.00 0.001 1.0 2 1.0 3 1.0 4
exyz Gd-X Ca-X
exyz Ca-Z Gd-Z
exyz Ca-Y Gd-Y
eadp Gd-X Ca-X
eadp Ca-Z Gd-Z
eadp Ca-Y Gd-Y

WGHT    0.018000
EXTI    0.041765
FVAR       2.40755   0.96788   0.02843   0.00297
GD-X  4   -0.001969    0.000000   -0.001461    20.50000    0.00680    0.01112 =
         0.00577    0.00000    0.00161    0.00000
CA-Y  3   -0.360472   -0.112690    0.326893   -31.00000    0.00692    0.00791 =
         0.00698    0.00009    0.00155   -0.00042
CA-Z  3    0.259766    0.181503   -0.347425   -41.00000    0.00951    0.01350 =
         0.00766   -0.00084    0.00269   -0.00077
CA-X  3   -0.001969    0.000000   -0.001461   -20.50000    0.00680    0.01112 =
         0.00577    0.00000    0.00161    0.00000
GD-Y  4   -0.360472   -0.112690    0.326893    31.00000    0.00692    0.00791 =
         0.00698    0.00009    0.00155   -0.00042
GD-Z  4    0.259766    0.181503   -0.347425    41.00000    0.00951    0.01350 =
         0.00766   -0.00084    0.00269   -0.00077
O1    2   -0.175668    0.000000    0.417985    10.50000    0.00404    0.00899 =
         0.00449    0.00000    0.00051    0.00000
O2    2    0.200972    0.000000   -0.395553    10.50000    0.00669    0.02287 =
         0.01020    0.00000    0.00151    0.00000
O3    2    0.084573    0.142860    0.076535    11.00000    0.01063    0.01018 =
         0.00997    0.00100    0.00421    0.00295
O4    2   -0.533575   -0.231154    0.276615    11.00000    0.01471    0.01048 =
         0.01519   -0.00521    0.00769   -0.00423
O5    2   -0.209848   -0.172007   -0.115673    11.00000    0.01137    0.01873 =
         0.00906   -0.00007    0.00023    0.00514
O6    2    0.459609    0.074526   -0.251058    11.00000    0.01239    0.00898 =
         0.01058   -0.00045    0.00346   -0.00350
B1    1    0.373766    0.000000   -0.299804    10.50000    0.00714    0.00711 =
         0.00559    0.00000    0.00129    0.00000
B2    1   -0.552372   -0.305685    0.080585    11.00000    0.00483    0.00827 =
         0.00650    0.00101    0.00031   -0.00380
HKLF 4

REM  GdCOB in Cm
REM R1 =  0.0194 for    2143 Fo > 4sig(Fo)  and  0.0195 for all    2149 data
REM     92 parameters refined using      3 restraints

END

WGHT      0.0180      0.0000

REM Highest difference peak  1.499,  deepest hole -1.564,  1-sigma level  0.218
Q1    1  -0.0056 -0.0605 -0.0019  11.00000  0.05    1.50
Q2    1   0.0995  0.0000  0.1304  10.50000  0.05    1.31
Q3    1  -0.1011  0.0000 -0.1221  10.50000  0.05    1.22
Q4    1   0.0611  0.0389  0.0830  11.00000  0.05    1.17
Q5    1   0.5746  0.0000 -0.0418  10.50000  0.05    0.94
Q6    1  -0.0607 -0.0322 -0.0454  11.00000  0.05    0.94
Q7    1  -0.3001  0.0000  0.3364  10.50000  0.05    0.93
Q8    1   0.5565  0.0000 -0.2293  10.50000  0.05    0.81
Q9    1  -0.3443 -0.0539  0.3389  11.00000  0.05    0.79
Q10   1   0.0485  0.0980  0.0734  11.00000  0.05    0.77
Q11   1  -0.2961  0.0000  0.5764  10.50000  0.05    0.77
Q12   1   0.4131  0.0324 -0.2988  11.00000  0.05    0.76
Q13   1  -0.1485  0.0000  0.5673  10.50000  0.05    0.73
Q14   1   0.4755  0.0000 -0.3119  10.50000  0.05    0.67
Q15   1   0.2817  0.1227 -0.3802  11.00000  0.05    0.67
Q16   1  -0.0292 -0.0719 -0.2206  11.00000  0.05    0.66
Q17   1   0.0878  0.0791  0.0479  11.00000  0.05    0.64
Q18   1  -0.2455 -0.0196  0.4211  11.00000  0.05    0.63
Q19   1  -0.0600  0.1008 -0.0612  11.00000  0.05    0.62
Q20   1   0.0457  0.0801 -0.1162  11.00000  0.05    0.61
;
_shelx_res_checksum              48708
_shelx_hkl_file
;
 -14   6   2 3170.31 530.003   2
 -13   7   2 8188.16 823.741   2
 -13   9   2 4221.70 593.631   2
 -13   9   3 5097.17 673.362   2
 -13  11   2 8569.29 871.566   2
 -12   8   1 12557.0 946.411   2
 -12   8   2 16073.3 1115.41   2
 -12   8   3 14036.7 1066.12   2
 -12   8   4 6600.42 750.667   2
 -12  10   1 1860.51 374.120   2
 -12  10   2 14078.6 1053.75   2
 -12  10   3 3903.14 565.476   2
 -12  12   1 9558.97 873.420   2
 -12  12   2 6301.57 729.445   2
 -12  12   3 7160.80 784.253   2
 -12  14   1 23104.9 1394.92   2
 -12  14   2 2646.20 478.393   2
 -12  16   1 1999.89 446.522   2
 -11   1   0 28726.1 1117.27   5
 -11   1   1 9484.50 631.468   5
 -11   3   1 6128.66 494.470   5
 -11   7   1 11722.8 855.271   2
 -11   9   1 14486.1 970.758   2
 -11   9   2 6353.46 661.474   2
 -11   9   3 9404.17 836.805   2
 -11   9   4 9976.24 892.197   2
 -11  11   1 6299.14 669.662   2
 -11  11   2 2779.97 451.295   2
 -11  11   3 17523.7 1166.41   2
 -11  11   4 6701.78 738.489   2
 -11  13   1 8819.14 818.632   2
 -11  13   2 19173.4 1220.83   2
 -11  13   3 1069.99 306.816   2
 -11  15   1 3631.25 532.263   2
 -11  15   2 8888.75 858.834   2
 -11  15   3 4479.50 619.060   2
 -11  17   1 5507.23 701.996   2
 -11  17   2 140.109 20.5360   2
 -10   0  -1 10683.6 713.647   5
 -10   0   0 2704.06 325.616   5
 -10   0   1 50721.3 1400.72   5
 -10   0   2 10865.9 658.575   5
 -10  -2  -1 8477.76 657.806   5
 -10   2  -1 9124.64 644.592   5
 -10   2   0 18126.5 826.061   5
 -10  -2   0 19690.4 933.465   5
 -10   2   1 11796.1 654.370   5
 -10  -2   1 11406.5 688.429   5
 -10  -2   2 17712.1 859.331   5
 -10   2   2 16624.7 780.674   5
 -10  -4   0 26346.0 1113.78   5
 -10  -4   1 2206.11 317.100   5
 -10   4   1 2225.25 272.741   5
 -10  -4   2 14139.5 787.355   5
 -10   4   2 13409.9 678.689   5
 -10  -6   0 18612.3 958.237   5
 -10   6   0 19184.6 946.857   2
 -10  -6   1 21715.4 1006.43   5
 -10   8   0 15958.6 901.015   2
 -10   8   1 10094.2 747.565   2
 -10   8   5 11169.7 928.989   2
 -10  10   0 1265.35 271.693   2
 -10  10   1 22827.5 1163.51   2
 -10  10   2 6895.61 659.920   2
 -10  10   3 3770.06 507.617   2
 -10  10   4 16998.5 1126.56   2
 -10  12   0 15306.3 973.896   2
 -10  12   1 14529.4 967.127   2
 -10  12   2 12104.1 898.796   2
 -10  12   3 10683.0 875.128   2
 -10  12   4 5335.19 641.983   2
 -10  14   0 22427.3 1240.01   2
 -10  14   1 1746.84 349.799   2
 -10  14   2 9162.23 815.600   2
 -10  14   3 15703.0 1096.75   2
 -10  14   4 2547.65 454.367   2
 -10  16   0 2293.56 414.316   2
 -10  16   1 16255.6 1123.48   2
 -10  16   2 4557.63 598.545   2
 -10  16   3 2668.07 466.293   2
 -10  18   1 14108.7 1099.16   2
 -10  18   2 7244.23 795.170   2
 -10  18   3 2414.04 454.330   2
 -10  20   1 1463.34 352.997   2
 -10  20   2 3816.55 605.790   2
  -9   1  -2 5220.00 501.449   5
  -9  -1  -1 37237.9 1302.74   5
  -9   1  -1 37755.9 1267.05   5
  -9  -1   0 16904.8 797.096   5
  -9   1   0 16319.0 750.707   5
  -9  -1   1 4610.30 401.204   5
  -9   1   1 4779.28 394.526   5
  -9   1   2 22950.3 875.406   5
  -9  -1   2 24464.5 935.317   5
  -9   1   3 12934.9 708.945   5
  -9  -1   3 12796.9 723.119   5
  -9  -3  -1 1541.17 274.116   5
  -9   3  -1 1763.49 259.299   5
  -9   3   0 20759.8 807.254   5
  -9  -3   0 20731.5 910.326   5
  -9   3   1 37115.7 1058.81   5
  -9  -3   1 38101.4 1189.22   5
  -9   3   2 8796.13 521.807   5
  -9  -3   2 7816.93 541.383   5
  -9   3   3 31837.8 1089.48   5
  -9  -3   3 32189.8 1168.58   5
  -9  -5  -1 12763.8 791.185   5
  -9   5   0 13028.9 603.521   5
  -9  -5   0 13897.4 772.544   5
  -9  -5   1 36951.1 1208.98   5
  -9   5   1 36682.0 1000.08   5
  -9  -5   2 12271.2 699.672   5
  -9   5   2 11304.1 578.236   5
  -9   5   3 12997.7 688.548   5
  -9  -7  -1 17581.1 943.295   5
  -9  -7   0 17593.0 895.389   5
  -9   7   0 18026.2 870.441   2
  -9  -7   1 15083.3 798.644   5
  -9  -7   2 13569.1 755.210   5
  -9   7   3 11542.7 638.955   5
  -9   7   5 5816.37 642.032   2
  -9  -9   0 26048.3 1111.66   5
  -9   9   0 25119.9 1077.95   2
  -9   9   1 9456.30 684.486   2
  -9  -9   1 9772.44 662.927   5
  -9  -9   2 14764.0 815.722   5
  -9   9   2 14779.4 889.375   2
  -9   9   4 3855.24 509.164   2
  -9   9   5 9781.12 843.998   2
  -9  11   0 5868.57 554.568   2
  -9  11   1 7440.62 632.245   2
  -9 -11   1 7718.26 609.056   5
  -9  11   2 20456.9 1076.94   2
  -9  11   3 5850.28 599.547   2
  -9  11   4 7277.38 715.636   2
  -9  11   5 12777.5 990.240   2
  -9  13   0 15656.0 950.967   2
  -9  13   1 30129.4 1345.31   2
  -9  13   2 7733.30 696.645   2
  -9  13   3 10237.7 837.178   2
  -9  13   4 14765.6 1059.90   2
  -9  15   0 6499.32 655.316   2
  -9  15   1 8169.69 744.504   2
  -9  15   2 5272.25 607.418   2
  -9  15   3 11462.4 922.319   2
  -9  15   4 5997.09 691.215   2
  -9  17   0 4094.35 545.407   2
  -9  17   1 3676.43 527.862   2
  -9  17   2 18822.7 1200.19   2
  -9  17   3 3103.19 498.074   2
  -9  17   4 1701.75 363.118   2
  -9  19   0 11089.7 943.271   2
  -9  19   1 6207.26 720.529   2
  -9  19   2 5347.16 672.786   2
  -9  19   3 13941.6 1105.52   2
  -9  21   0 1715.56 403.311   2
  -9  21   1 10821.3 991.909   2
  -9  21   2 2910.81 493.403   2
  -8   0  -1 7468.71 533.124   5
  -8   0   0 40840.6 1124.69   5
  -8   0   1 8588.97 498.482   5
  -8   0   2 3884.39 339.658   5
  -8   0   3 35352.7 1130.75   5
  -8   2  -1 13820.3 700.357   5
  -8  -2  -1 14526.9 758.150   5
  -8  -2   0 14478.6 695.494   5
  -8   2   0 15119.5 655.127   5
  -8   2   1 58788.7 1238.66   5
  -8  -2   1 55407.8 1297.75   5
  -8  -2   2 16065.9 718.346   5
  -8   2   2 14234.0 627.500   5
  -8  -2   3 10380.1 627.286   5
  -8   2   3 10560.0 597.041   5
  -8  -4  -1 42658.1 1325.96   5
  -8   4  -1 41336.9 1178.88   5
  -8   4   0 13938.8 596.765   5
  -8  -4   0 14758.7 732.255   5
  -8  -4   1 24312.4 886.894   5
  -8   4   1 23515.9 748.375   5
  -8   4   2 41866.8 1049.77   5
  -8  -4   2 39644.1 1158.80   5
  -8  -4   3 16952.9 813.456   5
  -8   4   3 16173.4 734.079   5
  -8  -6  -1 31033.8 1157.24   5
  -8  -6   0 18924.6 852.871   5
  -8   6   0 18075.2 627.025   5
  -8   6   1 5685.31 350.910   5
  -8  -6   1 5510.45 436.391   5
  -8  -6   2 26380.0 967.646   5
  -8   6   2 25690.9 807.102   5
  -8  -6   3 14538.1 768.666   5
  -8   6   3 13812.1 672.789   5
  -8  -8  -1 12014.2 736.554   5
  -8  -8   0 16550.1 819.065   5
  -8   8   0 16568.6 788.091   2
  -8  -8   1 43620.2 1268.06   5
  -8  -8   2 5130.28 446.936   5
  -8   8   2 4676.23 333.401   5
  -8   8   3 16745.7 732.505   5
  -8  -8   3 16742.4 839.900   5
  -8   8   5 948.598 239.406   2
  -8 -10  -1 4812.29 474.407   5
  -8  10   0 25193.8 1041.96   2
  -8 -10   0 26655.4 1074.56   5
  -8  10   1 16863.7 877.129   2
  -8 -10   1 17570.2 837.046   5
  -8  10   2 5451.83 517.793   2
  -8 -10   2 6548.29 513.908   5
  -8  10   3 23527.5 1140.46   2
  -8  10   4 10952.1 826.836   2
  -8  10   5 2999.04 439.972   2
  -8  12   0 11092.2 728.692   2
  -8 -12   0 10503.1 691.218   5
  -8 -12   1 11686.4 706.287   5
  -8  12   1 10577.8 740.237   2
  -8 -12   2 22662.1 994.279   5
  -8  12   2 21014.2 1065.59   2
  -8  12   3 9678.40 760.736   2
  -8  12   4 4583.53 558.730   2
  -8  12   5 12014.7 936.921   2
  -8  14   0 12684.8 835.336   2
  -8 -14   1 21409.7 992.321   5
  -8  14   1 23700.3 1175.61   2
  -8  14   2 17203.5 1019.62   2
  -8  14   3 6015.09 628.491   2
  -8  14   4 10309.1 861.181   2
  -8  16   0 16240.2 1014.17   2
  -8  16   1 6136.92 631.037   2
  -8  16   2 6850.47 671.372   2
  -8  16   3 12361.1 946.568   2
  -8  16   4 3182.88 486.783   2
  -8  18   0 14180.4 1004.38   2
  -8  18   1 14201.6 1018.72   2
  -8  18   2 1431.51 329.637   2
  -8  18   3 15095.2 1090.94   2
  -8  18   4 12683.1 1024.22   2
  -8  20   0 3828.46 555.491   2
  -8  20   1 8300.12 825.758   2
  -8  20   2 3524.64 550.850   2
  -8  20   3 3089.03 531.581   2
  -8  22   0 4391.45 626.917   2
  -8  22   1 3418.13 556.369   2
  -8  22   2 11908.1 1045.09   2
  -7   1  -1 26271.6 895.223   5
  -7   1   0 8136.37 447.849   5
  -7  -1   0 8073.42 469.742   5
  -7  -1   1 30845.2 880.868   5
  -7   1   1 33403.4 888.781   5
  -7   1   2 27716.8 826.839   5
  -7  -1   2 27633.3 866.020   5
  -7  -1   3 8010.92 516.116   5
  -7   1   3 8299.65 506.998   5
  -7  -1   4 29016.4 1108.04   5
  -7   1   4 29486.1 1109.83   5
  -7   3  -1 49722.5 1197.14   5
  -7   3   0 39953.4 961.516   5
  -7  -3   0 38106.6 1066.38   5
  -7   3   1 25535.9 725.793   5
  -7  -3   1 26155.7 831.791   5
  -7  -3   2 52277.0 1233.16   5
  -7   3   2 53091.6 1121.37   5
  -7  -3   3 15691.7 739.783   5
  -7   3   3 14586.0 669.366   5
  -7   3   4 19745.3 900.020   5
  -7   5  -1 6002.87 399.599   5
  -7  -5   0 55082.4 1341.54   5
  -7   5   0 53830.0 1019.08   5
  -7   5   1 23391.4 664.298   5
  -7  -5   1 23665.5 808.617   5
  -7   5   2 5549.50 354.128   5
  -7  -5   2 5454.64 407.129   5
  -7   5   3 36388.7 1046.34   5
  -7  -5   3 35897.3 1143.36   5
  -7   5   4 12507.0 719.552   5
  -7  -7  -1 18417.6 841.777   5
  -7   7   0 12805.6 459.714   5
  -7  -7   0 11966.8 647.352   5
  -7   7   0 11594.2 598.781   2
  -7  -7   1 20288.0 781.435   5
  -7   7   1 20229.1 578.497   5
  -7  -7   2 25694.1 911.511   5
  -7   7   2 25038.3 727.199   5
  -7   7   3 6407.99 435.784   5
  -7  -7   3 6028.44 477.660   5
  -7   7   5 10354.4 777.811   2
  -7  -9  -1 39674.4 1262.06   5
  -7   9  -1 38873.7 1131.93   2
  -7   9   0 3189.24 337.754   2
  -7  -9   0 3473.17 358.860   5
  -7   9   1 36970.6 1194.41   2
  -7  -9   1 33585.7 1047.17   5
  -7   9   2 44039.5 957.982   5
  -7  -9   2 43552.0 1229.74   5
  -7   9   3 609.294 140.149   5
  -7   9   3 499.239 178.121   2
  -7  -9   3 717.934 182.268   5
  -7   9   4 14788.4 897.725   2
  -7 -11  -1 6808.91 537.092   5
  -7  11  -1 6832.25 519.686   2
  -7 -11   0 25701.6 914.196   3
  -7 -11   0 26507.0 1013.28   5
  -7  11   0 24406.0 997.221   2
  -7 -11   1 19366.2 832.333   5
  -7  11   1 19517.8 923.049   2
  -7  11   2 7271.67 585.437   2
  -7 -11   2 8161.86 553.074   5
  -7 -11   3 25347.3 1029.43   5
  -7  11   3 25853.0 1154.18   2
  -7  11   4 15606.3 954.117   2
  -7  13  -1 16126.3 859.848   2
  -7 -13  -1 16900.3 866.651   5
  -7  13   0 26102.8 1108.78   2
  -7 -13   0 24076.9 993.836   5
  -7 -13   0 23387.1 961.701   3
  -7 -13   1 13637.5 744.332   3
  -7  13   1 15172.4 867.228   2
  -7 -13   1 15425.0 772.445   5
  -7  13   2 16708.7 937.902   2
  -7  13   2 15003.5 774.528   1
  -7 -13   2 16394.6 810.162   5
  -7  13   3 15053.8 923.317   2
  -7  13   4 9192.00 761.734   2
  -7  15  -1 14191.2 880.228   2
  -7 -15   0 14816.7 806.392   5
  -7 -15   0 13701.2 793.203   3
  -7  15   0 13971.6 870.895   2
  -7 -15   1 5038.36 488.427   3
  -7 -15   1 4961.77 455.183   5
  -7  15   1 5401.97 547.768   2
  -7 -15   2 9741.73 641.377   5
  -7  15   2 9477.76 748.454   2
  -7  15   3 8918.33 751.173   2
  -7  15   4 4707.84 571.005   2
  -7 -15   4 4456.93 447.672   4
  -7  17  -1 4394.93 517.928   2
  -7  17   0 4462.99 528.957   2
  -7 -17   0 3747.10 436.126   3
  -7 -17   1 29872.7 1137.46   5
  -7 -17   1 28808.2 1227.25   3
  -7  17   1 29411.0 1380.98   2
  -7  17   2 14472.1 975.361   2
  -7  17   3 4888.25 579.846   2
  -7  17   4 19251.0 1199.22   2
  -7 -17   4 15513.3 893.579   4
  -7  19  -1 15779.6 1042.39   2
  -7 -19   0 1825.11 321.599   3
  -7  19   0 1237.08 291.036   2
  -7  19   1 10046.3 855.971   2
  -7 -19   1 9962.13 766.792   3
  -7  19   2 23818.4 1333.42   2
  -7  19   3 839.975 276.654   2
  -7 -19   4 6838.28 620.861   4
  -7  19   4 6946.48 749.210   2
  -7 -21   0 11543.9 847.827   3
  -7  21   0 12305.2 990.090   2
  -7  21   1 6113.52 708.242   2
  -7 -21   1 5230.30 584.997   3
  -7  21   2 2149.90 425.644   2
  -7  21   3 4646.55 627.286   2
  -7 -21   4 2833.31 410.355   4
  -7 -23   0 12222.0 900.623   3
  -7  23   0 12466.2 1049.72   2
  -7  23   1 4149.52 620.430   2
  -7 -23   1 3939.83 535.629   3
  -7  23   2 3038.83 529.069   2
  -7 -23   3 12253.2 876.878   4
  -7  25   0 1047.25 271.785   2
  -7  25   1 2875.75 532.719   2
  -6   0   0 58637.0 1137.83   5
  -6   0   1 22857.4 682.598   5
  -6   0   2 73990.8 1288.54   5
  -6   0   3 22579.4 797.966   5
  -6   0   4 12109.3 692.965   5
  -6   2   0 56567.6 1052.97   5
  -6  -2   0 53449.6 590.821   1
  -6  -2   0 56900.1 1187.51   5
  -6  -2   1 16325.8 592.020   5
  -6   2   1 16310.9 543.084   5
  -6   2   2 38574.6 908.161   5
  -6  -2   2 40183.4 988.100   5
  -6  -2   3 24028.0 857.426   5
  -6   2   3 23687.8 819.528   5
  -6  -2   4 6279.26 504.376   5
  -6   2   4 6345.19 498.402   5
  -6   4  -1 30399.2 740.665   2
  -6  -4   0 32952.9 612.949   1
  -6   4   0 35669.6 793.501   5
  -6  -4   0 36284.8 999.260   5
  -6  -4   1 36181.0 908.407   5
  -6   4   1 38367.2 789.705   5
  -6  -4   2 32396.6 919.716   5
  -6   4   2 31877.9 811.192   5
  -6  -4   3 14168.0 678.525   5
  -6   4   3 13239.8 603.552   5
  -6  -4   4 23059.6 979.740   5
  -6   4   4 24117.2 970.635   5
  -6   6  -1 19150.7 618.300   5
  -6   6  -1 18089.6 637.317   2
  -6   6   0 4597.97 252.069   5
  -6   6   0 4271.90 197.420   1
  -6  -6   0 4701.45 291.471   3
  -6   6   0 4765.64 348.801   2
  -6  -6   0 4715.75 373.176   5
  -6   6   1 50404.1 855.179   5
  -6  -6   1 49406.6 1098.93   5
  -6  -6   2 26355.4 853.146   5
  -6   6   2 25528.7 693.726   5
  -6  -6   3 5051.79 409.682   5
  -6   6   3 5315.27 384.970   5
  -6  -6   4 32332.4 1184.38   5
  -6   6   4 32568.2 1119.35   5
  -6  -8  -1 30671.4 881.800   3
  -6   8  -1 30902.2 923.585   2
  -6   8   0 59323.7 806.274   5
  -6  -8   0 60734.1 1389.75   5
  -6   8   0 57888.1 1299.62   2
  -6   8   0 56793.7 950.763   1
  -6  -8   0 58395.3 1192.58   3
  -6   8   1 2234.03 219.150   1
  -6   8   1 2110.50 167.127   5
  -6  -8   1 2540.19 260.112   5
  -6   8   1 2094.36 261.573   2
  -6  -8   2 33529.5 994.211   5
  -6   8   2 32335.9 786.333   5
  -6  -8   3 47407.3 1285.83   5
  -6  -8   3 46940.7 1080.54   4
  -6   8   3 48272.3 1167.32   5
  -6   8   4 387.127 144.452   2
  -6   8   4 272.964 102.403   5
  -6  10  -1 32229.7 1035.75   2
  -6 -10  -1 29947.7 952.267   3
  -6  10   0 27499.7 743.215   1
  -6 -10   0 28491.7 911.799   3
  -6  10   0 29880.4 1008.44   2
  -6 -10   0 30311.2 1007.53   5
  -6 -10   1 12270.3 599.183   5
  -6  10   1 12644.0 679.079   2
  -6  10   1 12604.9 579.382   1
  -6 -10   1 12121.7 610.844   3
  -6  10   2 28820.4 962.026   1
  -6  10   2 28368.8 1059.63   2
  -6 -10   2 26453.4 910.842   5
  -6  10   2 29153.4 741.331   5
  -6  10   3 16181.5 669.592   5
  -6 -10   3 17313.8 797.870   5
  -6  10   3 16921.8 865.175   2
  -6  10   4 5474.34 526.290   2
  -6  12  -1 8628.52 587.181   2
  -6 -12  -1 8626.80 550.641   3
  -6 -12  -1 9459.84 594.683   5
  -6 -12   0 10349.8 609.027   3
  -6 -12   0 11165.5 628.194   5
  -6  12   0 10534.1 646.909   2
  -6 -12   1 39804.5 1125.17   5
  -6 -12   1 39911.0 1199.44   3
  -6  12   1 41912.0 1161.62   1
  -6  12   1 42744.4 1338.53   2
  -6  12   2 20708.0 956.633   2
  -6 -12   2 19934.4 820.823   5
  -6  12   2 19146.3 865.428   1
  -6  12   3 4873.47 489.833   2
  -6 -12   3 4665.09 423.668   5
  -6  12   4 20897.1 1076.55   2
  -6 -12   4 20140.5 879.850   4
  -6 -14  -1 16800.5 831.541   3
  -6 -14  -1 16567.2 810.549   5
  -6  14  -1 16786.2 893.931   2
  -6 -14   0 19892.0 904.529   3
  -6  14   0 20538.2 977.590   2
  -6 -14   0 20647.3 879.331   5
  -6 -14   1 12074.4 647.862   5
  -6 -14   1 10713.7 668.160   3
  -6  14   1 12817.9 788.277   2
  -6  14   1 13025.5 693.974   1
  -6 -14   2 15403.0 748.521   5
  -6  14   2 13898.5 800.500   1
  -6  14   2 15566.9 885.017   2
  -6 -14   3 10897.6 658.187   5
  -6  14   3 11427.7 789.542   2
  -6 -14   4 8697.59 614.543   4
  -6  14   4 8917.29 738.229   2
  -6 -16  -1 13575.7 800.643   3
  -6 -16  -1 13976.3 771.870   5
  -6  16  -1 12985.4 844.885   2
  -6 -16   0 10191.4 636.653   5
  -6  16   0 8978.02 695.376   2
  -6 -16   0 9891.86 693.024   3
  -6  16   1 14496.0 896.429   2
  -6 -16   1 16396.2 786.168   5
  -6  16   1 13468.8 773.991   1
  -6 -16   1 15066.8 854.720   3
  -6 -16   2 13213.1 704.171   5
  -6  16   2 14411.5 908.880   2
  -6  16   3 5918.17 601.491   2
  -6  16   4 7330.10 701.501   2
  -6 -16   4 8798.39 650.017   4
  -6 -18  -1 17915.6 981.466   3
  -6  18  -1 17655.8 1053.63   2
  -6  18   0 26293.3 1286.68   2
  -6 -18   0 25488.8 1166.32   3
  -6 -18   1 1525.89 285.369   3
  -6  18   1 1091.54 260.736   2
  -6  18   2 19508.3 1130.27   2
  -6  18   3 22309.6 1240.79   2
  -6 -18   4 1271.31 258.735   4
  -6  18   4 1758.93 365.612   2
  -6 -20  -1 8356.07 699.371   3
  -6  20  -1 8702.71 778.695   2
  -6 -20   0 11178.8 816.428   3
  -6  20   0 10205.8 860.561   2
  -6  20   1 667.646 216.118   2
  -6 -20   1 494.077 175.292   3
  -6  20   2 8176.37 772.235   2
  -6  20   3 7233.06 747.246   2
  -6 -20   4 1702.54 311.732   4
  -6  20   4 1970.83 412.687   2
  -6 -22  -1 4193.33 515.269   3
  -6  22  -1 3029.31 485.511   2
  -6 -22   0 1150.40 283.048   3
  -6  22   0 667.357 233.248   2
  -6 -22   1 13422.2 943.176   3
  -6  22   1 16213.9 1153.28   2
  -6  22   2 3313.36 531.674   2
  -6 -22   3 936.110 242.640   4
  -6  22   3 1090.99 279.183   2
  -6 -22   4 12935.7 898.219   4
  -6  24  -1 3644.25 548.380   2
  -6 -24  -1 2766.10 437.202   3
  -6  24   0 7817.98 838.456   2
  -6 -24   0 7554.07 722.499   3
  -6 -24   1 5352.60 628.085   3
  -6  24   1 5679.90 715.614   2
  -6  24   2 7812.15 846.519   2
  -6 -24   3 4018.15 515.819   4
  -6  26   0 8275.98 877.316   2
  -6  26   1 337.786 189.241   2
  -5  -1   0 60507.2 544.737   1
  -5   1   0 56434.3 988.296   5
  -5  -1   0 59545.4 1077.38   5
  -5   1   1 41223.8 801.580   5
  -5  -1   1 40965.5 752.129   1
  -5  -1   1 41251.2 847.499   5
  -5  -1   2 21257.8 657.189   5
  -5   1   2 21325.9 640.872   5
  -5   1   3 35921.9 975.610   5
  -5  -1   3 35600.5 983.745   5
  -5   1   4 21229.9 891.873   5
  -5  -1   4 20801.0 887.247   5
  -5  -3  -1 17772.4 468.731   3
  -5  -3  -1 17307.7 379.629   1
  -5   3  -1 17322.7 481.583   2
  -5  -3   0 62519.8 741.064   1
  -5   3   0 64188.1 973.979   5
  -5  -3   0 64855.2 1178.52   5
  -5  -3   0 65696.9 772.292   3
  -5  -3   1 31799.2 769.090   5
  -5   3   1 39741.5 747.366   5
  -5   3   2 19828.7 604.692   5
  -5  -3   2 19477.7 649.363   5
  -5   3   3 64050.6 1284.64   5
  -5  -3   3 59308.1 1283.07   5
  -5   3   4 15461.4 760.955   5
  -5  -3   4 15631.8 780.247   5
  -5  -5  -2 6779.14 394.858   3
  -5  -5  -1 70530.8 1005.76   1
  -5   5  -1 75543.2 1141.05   2
  -5  -5  -1 74925.5 1153.47   3
  -5   5  -1 76135.2 669.266   1
  -5  -5   0 33202.0 707.009   1
  -5   5   0 34641.3 648.494   5
  -5   5   0 32750.0 538.867   1
  -5  -5   0 34875.5 908.584   5
  -5  -5   0 33229.2 711.782   3
  -5  -5   1 10852.2 464.889   5
  -5   5   1 10585.4 361.878   5
  -5  -5   2 78577.9 1357.05   5
  -5   5   2 79996.9 1186.30   5
  -5  -5   3 6038.51 425.022   5
  -5   5   3 6274.07 403.433   5
  -5  -5   3 6609.26 342.031   4
  -5   5   4 1175.13 205.343   5
  -5  -5   4 1469.16 236.121   5
  -5  -7  -2 16879.0 682.751   3
  -5  -7  -1 6435.53 383.564   3
  -5   7  -1 6251.22 371.971   2
  -5   7  -1 6696.00 287.528   1
  -5   7  -1 6589.42 307.754   5
  -5  -7   0 41557.6 920.397   3
  -5   7   0 42805.5 624.450   5
  -5   7   0 44431.8 757.980   1
  -5   7   0 39323.5 969.447   2
  -5  -7   0 41933.8 1044.70   5
  -5  -7   1 30233.1 811.376   5
  -5   7   1 31968.6 605.999   5
  -5  -7   2 16184.1 631.931   5
  -5   7   2 14530.5 503.293   5
  -5   7   3 26728.1 844.307   5
  -5  -7   3 26800.3 762.248   4
  -5  -7   3 26287.2 898.344   5
  -5  -7   4 19651.7 897.180   5
  -5   7   4 18907.7 837.533   5
  -5   7   4 17986.7 854.174   2
  -5  -9  -2 47192.7 1250.45   3
  -5   9  -1 1688.05 221.617   2
  -5  -9  -1 1868.23 227.335   3
  -5   9  -1 1735.30 181.073   1
  -5   9   0 40039.9 1065.84   2
  -5   9   0 39707.0 490.141   5
  -5   9   0 41974.7 888.949   1
  -5  -9   0 40808.0 1028.46   3
  -5  -9   0 41518.0 1089.03   5
  -5   9   1 57893.1 1152.60   1
  -5  -9   1 56195.8 1154.42   5
  -5   9   1 58783.3 1331.56   2
  -5   9   1 59742.6 788.966   5
  -5  -9   1 57636.4 1250.90   3
  -5   9   2 3685.56 332.481   1
  -5  -9   2 4132.86 332.214   5
  -5   9   2 4126.22 269.244   5
  -5   9   2 4067.87 370.565   2
  -5   9   3 23759.9 788.292   5
  -5   9   3 23384.7 944.449   2
  -5  -9   3 24956.0 806.360   4
  -5  -9   3 25123.3 907.056   5
  -5  -9   4 28934.8 1102.52   5
  -5  -9   4 27715.9 915.453   4
  -5   9   4 27027.3 1088.34   2
  -5 -11  -3 11207.0 722.070   3
  -5 -11  -2 11781.3 667.005   3
  -5 -11  -1 45312.6 1227.70   3
  -5  11  -1 47751.6 1281.68   2
  -5  11   0 32963.9 1047.51   2
  -5 -11   0 34350.1 1024.15   5
  -5 -11   0 32663.9 1021.81   3
  -5  11   0 32611.7 913.900   1
  -5  11   1 19824.7 833.895   2
  -5 -11   1 19402.4 710.843   5
  -5 -11   1 19148.1 784.351   3
  -5  11   1 18946.1 732.564   1
  -5 -11   2 34958.2 992.255   5
  -5  11   2 34677.3 781.895   5
  -5  11   2 35060.1 1148.96   2
  -5  11   2 35183.6 1127.16   1
  -5 -11   3 11743.9 597.370   4
  -5  11   3 11687.6 701.735   2
  -5 -11   3 12555.0 651.524   5
  -5  11   4 7880.99 617.805   2
  -5 -11   4 7823.86 531.384   4
  -5 -13  -3 12269.0 792.725   3
  -5 -13  -2 13065.7 763.146   3
  -5 -13  -1 16411.4 787.442   3
  -5  13  -1 15581.1 802.303   2
  -5  13   0 19358.0 873.981   2
  -5 -13   0 20094.2 795.074   5
  -5  13   0 19371.3 784.406   1
  -5 -13   0 19402.0 849.960   3
  -5  13   1 18194.7 788.807   1
  -5 -13   1 17993.8 724.903   5
  -5  13   1 18186.7 864.209   2
  -5 -13   1 17342.3 810.702   3
  -5 -13   2 26115.7 889.268   5
  -5  13   2 25122.7 1034.10   1
  -5  13   2 25509.9 1053.39   2
  -5  13   3 25219.2 1094.11   2
  -5 -13   3 26391.8 961.831   5
  -5 -13   4 10617.4 654.870   4
  -5  13   4 9628.28 711.719   2
  -5 -15  -3 8446.66 698.646   3
  -5 -15  -2 9435.00 683.406   3
  -5 -15  -1 13048.2 691.184   5
  -5 -15  -1 13069.0 751.517   3
  -5  15  -1 14004.6 824.698   2
  -5 -15   0 14536.8 790.761   3
  -5 -15   0 15544.6 720.139   5
  -5  15   0 14442.1 747.196   1
  -5  15   0 14391.1 818.562   2
  -5  15   1 3593.52 385.036   1
  -5 -15   1 4032.58 357.478   5
  -5  15   1 3983.18 430.702   2
  -5 -15   1 4291.65 438.445   3
  -5 -15   2 12183.9 619.655   5
  -5  15   2 12242.0 782.604   1
  -5  15   2 11452.6 754.240   2
  -5  15   3 17279.3 963.572   2
  -5  15   4 4896.83 536.868   2
  -5 -15   4 6019.86 522.240   4
  -5 -15   5 6739.15 576.407   4
  -5 -17  -3 12687.7 888.157   3
  -5 -17  -2 16540.9 942.394   3
  -5 -17  -1 8898.79 591.067   5
  -5 -17  -1 8628.97 648.748   3
  -5  17  -1 9209.29 717.733   2
  -5  17   0 22690.6 1017.79   1
  -5 -17   0 25824.6 956.329   5
  -5 -17   0 25267.2 1114.95   3
  -5  17   0 24061.5 1154.44   2
  -5  17   1 27729.6 1164.86   1
  -5  17   1 29689.4 1278.28   2
  -5 -17   1 28587.2 1211.76   3
  -5  17   2 11751.0 818.611   2
  -5  17   3 8131.53 708.784   2
  -5 -17   4 11384.7 755.758   4
  -5  17   4 10772.5 843.583   2
  -5 -17   5 3690.29 444.880   4
  -5 -19  -3 8710.45 754.510   3
  -5 -19  -2 15706.5 964.600   3
  -5  19  -1 57.8512 59.4704   2
  -5 -19  -1-14.3778 23.1365   3
  -5 -19   0 21583.3 1089.21   3
  -5  19   0 20143.8 1129.73   2
  -5 -19   1 20402.7 1081.93   3
  -5  19   1 21615.6 1173.33   2
  -5  19   2 81.5666 88.2042   2
  -5  19   3 12994.7 940.322   2
  -5 -19   3 13827.7 840.501   4
  -5 -19   4 9067.35 708.326   4
  -5  19   4 9773.74 837.485   2
  -5 -19   5 596.427 180.752   4
  -5 -21  -2 2294.42 374.645   3
  -5  21  -1 8433.03 781.470   2
  -5 -21  -1 8855.60 736.068   3
  -5 -21   0 5403.32 577.865   3
  -5  21   0 4894.53 593.396   2
  -5  21   1 2584.60 436.939   2
  -5 -21   1 2205.80 367.583   3
  -5  21   2 11989.0 941.215   2
  -5 -21   3 3697.78 465.079   4
  -5  21   3 3358.81 512.051   2
  -5  21   4 1728.47 373.631   2
  -5 -21   4 2045.73 350.344   4
  -5 -23  -2 1330.54 299.800   3
  -5 -23  -1 11155.4 862.182   3
  -5  23  -1 11699.1 972.996   2
  -5 -23   0 7078.31 697.303   3
  -5  23   0 6056.75 695.841   2
  -5 -23   1 1824.45 351.378   3
  -5  23   1 2993.14 517.652   2
  -5  23   2 15642.9 1138.69   2
  -5  23   3 4435.79 612.658   2
  -5 -23   3 4453.06 525.885   4
  -5 -23   4 743.716 238.986   4
  -5  25  -1 973.323 290.017   2
  -5 -25  -1 679.388 202.973   3
  -5  25   0 7525.78 806.518   2
  -5 -25   0 7642.60 744.655   3
  -5 -25   1 7577.94 747.045   3
  -5  25   1 6161.68 746.418   2
  -5  25   2 638.610 223.386   2
  -5 -25   3 6095.25 636.066   4
  -4   0  -3 21477.3 732.771   3
  -4   0  -2 44251.9 730.974   1
  -4   0  -2 43167.5 804.152   3
  -4   0  -1 70776.4 667.505   3
  -4   0   0 55587.4 903.808   5
  -4   0   1 70335.8 920.824   1
  -4   0   1 65987.1 938.935   5
  -4   0   2 41246.5 848.022   5
  -4   0   3 22853.0 750.516   5
  -4   0   4 6206.08 473.798   5
  -4   2  -3 4423.11 324.344   3
  -4  -2  -3 4179.61 332.633   3
  -4  -2  -2 48387.2 833.397   1
  -4   2  -2 45329.1 762.802   1
  -4  -2  -2 44785.4 878.419   3
  -4   2  -2 46618.9 822.045   3
  -4  -2  -1 25034.5 497.276   3
  -4   2  -1 23742.7 469.649   2
  -4  -2  -1 25970.0 448.533   1
  -4  -2   0 10070.8 249.849   1
  -4  -2   0 11549.6 432.801   5
  -4   2   0 11341.0 371.865   5
  -4  -2   1 91073.6 1171.12   5
  -4  -2   1 93400.5 1123.71   1
  -4   2   2 40733.4 821.655   5
  -4  -2   2 42015.2 877.260   5
  -4   2   3 13913.9 583.411   5
  -4  -2   3 14127.5 599.845   5
  -4  -2   3 13052.6 418.019   4
  -4   2   4 27144.8 980.390   5
  -4  -2   4 26826.4 992.648   5
  -4   4  -3 29469.9 850.954   3
  -4  -4  -3 30060.6 938.657   3
  -4   4  -2 37719.3 733.323   3
  -4  -4  -2 37439.1 877.707   3
  -4  -4  -2 39027.0 826.803   1
  -4  -4  -1 24416.6 557.890   1
  -4   4  -1 23250.5 394.317   3
  -4   4  -1 23732.5 555.056   2
  -4   4  -1 23043.1 437.046   1
  -4  -4  -1 23261.4 584.306   3
  -4  -4   0 78190.6 1194.92   5
  -4   4   0 83629.1 762.948   1
  -4   4   0 77447.5 879.787   5
  -4  -4   0 80967.5 977.073   1
  -4  -4   0 79451.5 966.761   3
  -4   4   1 71191.4 866.102   5
  -4   4   1 70706.7 973.648   1
  -4  -4   1 70730.5 1069.01   5
  -4   4   2 6711.12 328.858   5
  -4  -4   2 6552.57 357.398   5
  -4  -4   3 54926.4 1197.62   5
  -4   4   3 54659.4 1166.66   5
  -4  -4   3 53709.8 930.201   4
  -4   4   4 19798.7 831.605   5
  -4  -4   4 21897.8 904.240   5
  -4  -6  -3 34104.2 1061.24   3
  -4   6  -2 27251.8 660.220   3
  -4  -6  -2 28324.1 839.734   3
  -4   6  -2 26971.6 735.377   1
  -4  -6  -1 20534.1 607.141   1
  -4   6  -1 19671.6 596.149   2
  -4  -6  -1 20368.5 630.385   3
  -4   6  -1 21935.4 541.523   1
  -4  -6   0 74612.8 1114.37   1
  -4  -6   0 72510.6 1221.26   5
  -4   6   0 72560.3 1167.94   2
  -4   6   0 72755.0 713.714   5
  -4   6   0 69252.3 903.965   1
  -4  -6   0 72401.0 1121.65   3
  -4   6   1 15936.1 518.047   1
  -4  -6   1 15731.5 530.708   5
  -4  -6   1 15292.5 542.187   3
  -4   6   1 15922.9 392.691   5
  -4   6   2 19409.3 561.150   5
  -4  -6   2 19083.1 626.953   5
  -4   6   3 52075.7 1134.84   5
  -4  -6   3 52808.5 1023.89   4
  -4  -6   3 51196.0 1185.91   5
  -4  -6   4 3229.17 353.016   5
  -4  -6   4 2655.82 257.387   4
  -4   6   4 2772.84 313.254   2
  -4  -8  -4 21230.2 1020.74   3
  -4  -8  -3 4032.63 389.830   3
  -4   8  -2 34236.7 938.673   1
  -4  -8  -2 30736.5 952.364   3
  -4   8  -1 46128.0 949.708   1
  -4   8  -1 47673.0 1055.71   2
  -4  -8  -1 46868.7 1079.47   3
  -4  -8   0 2702.69 249.335   3
  -4   8   0 2772.84 111.505   5
  -4  -8   0 2531.08 238.301   5
  -4   8   0 2653.16 248.058   2
  -4   8   0 2768.97 217.831   1
  -4   8   1 51181.3 1133.79   2
  -4  -8   1 52837.1 1121.30   3
  -4  -8   1 50119.9 990.183   5
  -4   8   1 52875.6 690.660   5
  -4   8   2 56216.1 1256.74   2
  -4  -8   2 54595.8 1088.61   5
  -4   8   2 53771.1 1226.45   1
  -4   8   2 56896.4 975.823   5
  -4   8   3 11372.2 604.149   2
  -4   8   3 10618.7 518.545   5
  -4  -8   3 10651.7 503.892   4
  -4  -8   3 10336.3 543.670   5
  -4  -8   4 27487.9 1038.69   5
  -4   8   4 26879.8 1006.45   2
  -4  -8   4 28157.7 901.008   4
  -4 -10  -4 14617.5 888.957   3
  -4 -10  -3 8988.13 621.628   3
  -4 -10  -2 36475.0 1122.86   3
  -4  10  -1 45276.2 1082.31   1
  -4 -10  -1 48164.0 1214.99   3
  -4  10  -1 47783.6 1197.20   2
  -4 -10   0 21159.0 777.655   3
  -4  10   0 20219.2 752.174   2
  -4  10   0 20014.1 683.917   1
  -4 -10   0 22049.3 738.214   5
  -4  10   1 28425.0 499.243   5
  -4 -10   1 26877.9 877.180   3
  -4  10   1 28720.3 863.348   1
  -4 -10   1 28530.3 780.321   5
  -4  10   1 27986.0 905.003   2
  -4  10   2 40391.1 1133.33   2
  -4  10   2 41192.8 833.287   5
  -4  10   2 40686.9 1160.92   1
  -4 -10   2 39962.7 958.081   5
  -4  10   3 8847.19 564.493   2
  -4 -10   3 10254.0 537.596   4
  -4 -10   3 9859.59 535.409   5
  -4 -10   4 4596.52 429.035   5
  -4  10   4 5389.03 470.535   2
  -4 -10   4 5160.48 412.900   4
  -4 -10   5 13616.8 744.272   4
  -4 -12  -4 4192.61 495.800   3
  -4 -12  -3 24584.8 1094.17   3
  -4 -12  -2 14653.8 761.145   3
  -4  12  -1 8339.32 553.921   2
  -4 -12  -1 8841.58 557.906   3
  -4  12  -1 8623.58 524.799   1
  -4 -12   0 52580.2 1335.77   3
  -4  12   0 52167.7 1334.18   2
  -4 -12   0 52286.3 1180.87   5
  -4  12   0 48012.3 1194.26   1
  -4 -12   1 20260.6 694.336   5
  -4  12   1 19441.2 825.825   2
  -4  12   1 20088.6 804.827   1
  -4 -12   1 18779.2 804.290   3
  -4  12   2 4683.07 417.768   2
  -4  12   2 5391.38 457.733   1
  -4 -12   2 4379.90 324.784   5
  -4 -12   3 27623.3 913.224   5
  -4  12   3 27681.0 1068.12   2
  -4  12   3 27597.3 1126.36   1
  -4 -12   3 26862.7 928.790   4
  -4  12   4 8037.03 608.236   2
  -4 -12   4 7983.09 549.980   4
  -4 -12   5 5144.39 481.876   4
  -4 -14  -4 9027.55 762.463   3
  -4 -14  -3 6932.23 613.840   3
  -4 -14  -2 19937.7 950.604   3
  -4  14  -1 8919.47 583.779   1
  -4 -14  -1 8300.31 576.226   3
  -4  14  -1 8490.02 608.737   2
  -4 -14   0 15564.5 661.832   5
  -4  14   0 15169.0 731.806   1
  -4 -14   0 15358.5 783.180   3
  -4  14   0 14730.9 773.524   2
  -4  14   1 47036.7 1342.38   1
  -4  14   1 45209.1 1368.88   2
  -4 -14   1 46029.4 1089.38   5
  -4 -14   1 44947.6 1351.54   3
  -4 -14   2 16300.1 649.516   5
  -4  14   2 15897.6 826.847   2
  -4  14   2 16772.8 867.276   1
  -4  14   3 16756.4 889.929   2
  -4 -14   3 18528.4 820.594   4
  -4  14   4 28124.3 1210.31   2
  -4 -14   4 27279.4 1075.90   4
  -4 -14   5 6517.79 571.458   4
  -4 -16  -4 7001.67 689.362   3
  -4 -16  -3 12023.0 850.007   3
  -4  16  -2 11397.0 777.887   2
  -4 -16  -2 13190.9 825.911   3
  -4 -16  -1 19029.3 925.870   3
  -4 -16  -1 18908.6 791.891   5
  -4  16  -1 19651.0 930.977   1
  -4  16  -1 17865.0 951.837   2
  -4 -16   0 22065.3 1004.66   3
  -4  16   0 21589.6 1024.18   2
  -4  16   0 20730.6 935.467   1
  -4 -16   0 21674.9 806.821   5
  -4 -16   1 11448.4 733.569   3
  -4  16   1 11592.3 745.546   2
  -4  16   1 12161.6 751.686   1
  -4 -16   1 12367.3 578.309   5
  -4  16   2 17264.7 937.533   2
  -4  16   2 16995.6 940.564   1
  -4 -16   3 11758.7 697.672   4
  -4  16   3 12058.5 808.703   2
  -4  16   4 1894.60 341.306   2
  -4 -16   4 1903.24 311.819   4
  -4 -16   5 9433.61 710.776   4
  -4 -18  -4 12737.6 967.997   3
  -4 -18  -3 1841.58 342.099   3
  -4 -18  -2 15535.4 938.569   3
  -4  18  -2 15926.0 968.912   2
  -4 -18  -1 26694.0 1167.19   3
  -4  18  -1 27031.2 1256.74   2
  -4 -18   0 2254.84 338.316   3
  -4  18   0 3131.83 396.647   1
  -4  18   0 2425.37 371.690   2
  -4  18   1 13548.4 874.853   2
  -4 -18   1 14238.0 883.317   3
  -4  18   1 14142.7 868.932   1
  -4  18   2 20495.7 1089.54   2
  -4  18   3 3719.71 481.174   2
  -4 -18   3 4870.45 481.804   4
  -4 -18   4 5159.62 518.677   4
  -4  18   4 5080.20 571.031   2
  -4 -18   5 8178.76 684.796   4
  -4 -20  -3 1704.20 348.240   3
  -4 -20  -2 13170.4 904.230   3
  -4 -20  -1 7394.19 646.141   3
  -4  20  -1 7820.63 719.158   2
  -4 -20   0 1418.83 287.951   3
  -4  20   0 1662.35 334.383   2
  -4 -20   1 16285.8 995.865   3
  -4  20   1 16587.7 1040.47   2
  -4  20   2 9354.62 796.036   2
  -4  20   3 4551.03 565.663   2
  -4 -20   3 6121.03 568.392   4
  -4 -20   4 6420.87 610.679   4
  -4 -20   5 3019.97 432.119   4
  -4 -22  -3 11849.2 926.343   3
  -4 -22  -2 2251.26 390.201   3
  -4  22  -1 1391.16 326.989   2
  -4 -22  -1 1249.45 276.428   3
  -4  22   0 23440.2 1311.57   2
  -4 -22   0 25167.6 1270.57   3
  -4  22   1 2978.69 469.521   2
  -4 -22   1 3532.28 489.818   3
  -4  22   2 1280.39 323.963   2
  -4  22   3 26185.8 1421.79   2
  -4 -22   3 25645.3 1224.10   4
  -4 -22   4 2893.84 427.318   4
  -4 -24  -2 8898.95 796.323   3
  -4 -24  -1 4613.85 561.941   3
  -4  24  -1 4309.89 597.281   2
  -4 -24   0 2862.50 453.442   3
  -4  24   0 2818.66 470.685   2
  -4 -24   1 10312.5 859.432   3
  -4  24   1 9964.01 911.748   2
  -4  24   2 2553.76 459.067   2
  -4 -24   3 2144.25 382.116   4
  -4  24   3 2153.37 427.292   2
  -4 -24   4 4093.62 521.025   4
  -4 -26  -1 7805.01 754.298   3
  -4  26  -1 6994.20 765.911   2
  -4  26   0 3349.92 558.395   2
  -4 -26   0 3142.80 492.944   3
  -4 -26   1 5091.38 612.936   3
  -4  26   1 5296.07 688.910   2
  -4  26   2 5826.28 718.330   2
  -4 -26   3 1486.29 306.742   4
  -4 -28   2 4999.74 580.228   4
  -3  -1  -4 14399.7 738.780   3
  -3   1  -4 14433.1 725.865   3
  -3  -1  -3 34658.3 946.282   3
  -3   1  -3 35440.9 935.739   1
  -3   1  -3 34894.2 930.310   3
  -3  -1  -3 36269.6 973.069   1
  -3  -1  -2 26197.6 626.013   1
  -3   1  -2 24543.2 562.450   1
  -3  -1  -2 23347.3 570.375   1
  -3   1  -2 23961.7 602.136   3
  -3  -1  -2 24148.0 618.296   3
  -3   1  -2 23482.3 568.231   1
  -3  -1  -1 62321.6 601.999   1
  -3  -1  -1 60723.9 692.631   3
  -3   1  -1 61518.4 520.580   1
  -3   1  -1 59444.7 621.889   3
  -3   1  -1 63772.9 556.480   1
  -3  -1  -1 59120.6 593.122   1
  -3  -1   0 48824.9 749.020   5
  -3   1   0 47044.2 667.310   5
  -3  -1   0 47862.3 437.634   1
  -3   1   1 32141.7 564.807   5
  -3  -1   1 32380.8 599.810   1
  -3  -1   1 33659.2 613.035   5
  -3  -1   2 23498.3 604.259   5
  -3   1   2 23633.9 600.669   5
  -3   1   3 72472.6 943.669   4
  -3   1   3 72274.2 1309.75   5
  -3  -1   3 71057.1 1302.27   5
  -3  -1   3 68975.4 967.537   4
  -3   1   4 11267.4 621.881   5
  -3  -1   4 11637.4 633.250   5
  -3   3  -4 30755.9 1060.31   3
  -3  -3  -4 31200.6 1113.49   3
  -3   3  -3 11015.5 536.348   1
  -3  -3  -3 10247.8 532.602   3
  -3   3  -3 11086.8 528.446   3
  -3  -3  -3 11674.6 566.827   1
  -3  -3  -2 21146.2 623.733   3
  -3   3  -2 20475.0 549.450   3
  -3  -3  -2 19847.9 590.815   1
  -3   3  -2 21322.1 575.971   1
  -3   3  -1 106534. 928.094   1
  -3   3  -1 108991. 867.538   3
  -3   3  -1 109428. 1004.14   2
  -3  -3  -1 106355. 1107.65   3
  -3  -3  -1 107925. 1046.71   1
  -3  -3   0 22830.9 548.672   5
  -3   3   0 21152.6 342.036   1
  -3  -3   0 22260.8 445.365   3
  -3   3   0 21541.3 401.223   5
  -3  -3   0 23661.7 461.146   1
  -3   3   1 63123.9 864.561   1
  -3  -3   1 58169.3 855.203   5
  -3  -3   1 59800.2 884.242   1
  -3   3   1 60943.2 731.602   5
  -3  -3   2 72978.3 880.477   4
  -3  -3   2 72756.4 1090.88   5
  -3   3   2 71869.7 1044.28   5
  -3  -3   3 20346.8 563.426   4
  -3  -3   3 20601.2 707.697   5
  -3   3   3 20098.0 692.738   5
  -3  -3   4 14654.4 577.651   4
  -3  -3   4 14341.4 707.507   5
  -3   5  -4 10958.4 643.963   3
  -3  -5  -4 11840.2 708.488   3
  -3  -5  -3 11264.9 578.606   1
  -3   5  -3 11151.0 534.091   3
  -3   5  -3 11464.2 569.722   1
  -3  -5  -3 11012.8 579.997   3
  -3   5  -2 92526.7 1329.86   1
  -3   5  -2 96112.3 1244.69   3
  -3  -5  -2 92946.6 1427.86   3
  -3   5  -1 30775.5 663.350   2
  -3   5  -1 29808.4 624.866   1
  -3  -5  -1 29237.1 665.929   1
  -3  -5  -1 29522.9 692.102   3
  -3   5   0 14106.6 451.978   2
  -3   5   0 13514.8 259.593   5
  -3  -5   0 14326.0 445.353   3
  -3  -5   0 14752.6 473.104   5
  -3   5   0 14735.3 386.387   1
  -3  -5   0 14875.9 453.814   1
  -3  -5   1 127122. 1415.19   3
  -3   5   1 127538. 1376.08   1
  -3  -5   1 125069. 1314.47   5
  -3   5   1 130850. 1027.32   5
  -3   5   2 22859.9 590.488   5
  -3  -5   2 22238.6 621.125   5
  -3  -5   3 13436.3 491.803   4
  -3   5   3 12712.7 552.788   5
  -3  -5   3 14578.5 597.906   5
  -3  -5   4 41990.0 1237.62   5
  -3  -5   4 39738.9 1000.79   4
  -3  -7  -4 17494.2 899.968   3
  -3   7  -4 17613.4 821.260   3
  -3  -7  -3 16751.7 758.918   1
  -3  -7  -3 17244.5 773.044   3
  -3   7  -3 16124.5 668.054   3
  -3   7  -2 4955.85 334.712   1
  -3  -7  -2 5046.49 363.218   3
  -3   7  -1 31077.9 754.657   1
  -3   7  -1 30863.8 456.694   5
  -3   7  -1 32633.9 812.096   2
  -3  -7  -1 31113.7 817.534   3
  -3   7   0 46143.1 920.520   2
  -3  -7   0 47801.8 902.682   5
  -3  -7   0 47140.0 956.253   3
  -3   7   0 46360.1 854.106   1
  -3   7   0 46967.8 364.607   5
  -3  -7   1 37397.9 870.575   3
  -3   7   1 38268.5 566.427   5
  -3   7   1 36565.8 859.693   2
  -3  -7   1 36876.6 750.886   5
  -3   7   1 35716.0 809.451   1
  -3   7   2 25351.8 766.291   2
  -3   7   2 24434.0 622.845   5
  -3   7   2 22888.8 775.910   1
  -3  -7   2 24395.0 670.022   5
  -3   7   3 37223.3 1005.87   2
  -3  -7   3 36813.6 893.402   4
  -3  -7   3 38607.0 997.529   5
  -3  -7   4 22021.1 784.100   4
  -3  -7   4 23402.5 932.247   5
  -3  -7   5 10437.9 622.310   4
  -3  -9  -5 2201.22 379.640   3
  -3  -9  -4 18137.8 962.559   3
  -3   9  -4 19555.7 889.353   3
  -3   9  -3 26894.1 901.364   3
  -3  -9  -3 27677.8 1041.68   3
  -3   9  -2 9723.83 531.087   1
  -3  -9  -2 9267.81 536.008   3
  -3   9  -2 9515.97 514.208   2
  -3   9  -1 50514.4 1160.96   2
  -3   9  -1 49806.2 1104.37   1
  -3  -9  -1 47653.1 1117.79   3
  -3   9   0 55391.3 1090.43   1
  -3  -9   0 55270.4 1026.16   5
  -3  -9   0 55146.0 1165.94   3
  -3   9   0 52874.5 1125.85   2
  -3   9   1 20413.1 705.646   2
  -3  -9   1 21115.1 732.696   3
  -3   9   1 22393.3 722.493   1
  -3  -9   1 22158.1 610.470   5
  -3   9   2 40809.9 1049.35   2
  -3   9   2 43193.2 1148.80   1
  -3  -9   2 41993.1 900.028   5
  -3   9   3 32160.8 995.054   2
  -3  -9   3 31311.2 912.238   5
  -3  -9   3 31368.7 902.089   4
  -3  -9   4 5416.12 460.721   5
  -3  -9   4 5785.15 424.265   4
  -3  -9   5 12351.3 703.813   4
  -3 -11  -5 10738.1 857.649   3
  -3 -11  -4 9726.75 740.817   3
  -3  11  -3 22694.2 861.343   3
  -3 -11  -3 23882.8 1035.08   3
  -3  11  -2 39502.2 1178.79   2
  -3  11  -2 37934.2 1156.85   1
  -3 -11  -2 37934.4 1169.94   3
  -3  11  -1 18637.3 779.871   2
  -3  11  -1 20033.0 774.691   1
  -3 -11  -1 19111.2 779.713   3
  -3 -11   0 41433.5 1113.73   3
  -3  11   0 43031.6 1128.02   2
  -3 -11   0 42638.1 950.246   5
  -3  11   0 43260.4 1086.54   1
  -3 -11   1 31287.3 979.650   3
  -3  11   1 30999.1 955.506   2
  -3  11   1 30980.9 952.522   1
  -3 -11   1 31922.1 767.846   5
  -3  11   2 1350.97 214.529   1
  -3  11   2 1717.33 237.532   2
  -3 -11   2 1316.07 167.268   5
  -3  11   3 30204.8 1152.88   1
  -3  11   3 30599.6 1045.37   2
  -3 -11   3 32805.7 986.763   4
  -3 -11   3 31687.3 933.607   5
  -3 -11   4 15029.7 728.220   4
  -3 -11   4 13665.6 726.942   5
  -3 -11   5 569.686 156.872   4
  -3 -13  -4 14502.1 948.342   3
  -3 -13  -3 3665.49 426.105   3
  -3  13  -2 22976.7 977.589   2
  -3 -13  -2 23513.0 983.517   3
  -3  13  -2 23423.0 996.141   1
  -3  13  -1 37335.3 1206.26   2
  -3  13  -1 39560.5 1205.03   1
  -3 -13  -1 37966.9 1190.79   3
  -3 -13   0 14859.1 586.758   5
  -3 -13   0 14376.7 715.547   3
  -3  13   0 13967.8 710.303   2
  -3  13   0 15392.1 716.117   1
  -3  13   1 36683.2 1149.11   2
  -3 -13   1 38730.4 1195.73   3
  -3 -13   1 37342.2 865.612   5
  -3  13   1 37244.8 1154.90   1
  -3  13   2 49730.2 1367.77   2
  -3  13   2 47365.5 1398.17   1
  -3 -13   2 49213.8 1032.82   5
  -3  13   3 7182.08 544.332   2
  -3  13   3 8846.63 673.048   1
  -3 -13   3 7537.42 508.295   4
  -3 -13   3 7788.06 468.637   5
  -3 -13   4 17467.0 839.890   4
  -3 -13   5 17849.4 934.889   4
  -3 -15  -4 8463.07 757.990   3
  -3 -15  -3 3504.53 446.775   3
  -3  15  -2 13809.3 825.191   1
  -3  15  -2 12779.7 785.629   2
  -3 -15  -2 12931.4 783.587   3
  -3  15  -1 26322.0 1102.75   2
  -3  15  -1 27961.8 1098.92   1
  -3 -15  -1 27493.5 1075.64   3
  -3 -15   0 13136.0 743.800   3
  -3 -15   0 13754.6 581.476   5
  -3  15   0 12833.9 714.888   1
  -3  15   0 13126.1 756.518   2
  -3  15   1 25366.2 1040.58   2
  -3 -15   1 24605.3 1035.12   3
  -3  15   1 23840.9 1005.40   1
  -3 -15   1 23713.3 710.500   5
  -3  15   2 18997.1 951.813   1
  -3  15   2 20530.7 956.465   2
  -3 -15   3 13627.3 722.891   4
  -3  15   3 13694.3 810.070   2
  -3 -15   4 8839.01 627.071   4
  -3 -15   5 3887.40 451.320   4
  -3 -17  -4 6351.63 676.800   3
  -3 -17  -3 21437.7 1154.99   3
  -3 -17  -2 11914.6 808.652   3
  -3  17  -2 10378.3 752.106   2
  -3 -17  -1 8274.98 628.593   3
  -3 -17  -1 8555.23 516.778   5
  -3  17  -1 8258.37 661.214   2
  -3  17  -1 8697.04 670.887   1
  -3 -17   0 30246.6 1205.47   3
  -3  17   0 28937.3 1215.35   2
  -3  17   0 29218.5 1169.16   1
  -3  17   1 9838.98 707.946   2
  -3 -17   1 10136.0 714.162   3
  -3  17   1 10833.0 729.405   1
  -3  17   2 1897.03 311.828   2
  -3  17   3 25439.4 1184.38   2
  -3 -17   3 25652.0 1052.59   4
  -3 -17   4 4473.50 469.285   4
  -3 -17   5 2001.81 331.211   4
  -3 -19  -4 11494.1 933.907   3
  -3 -19  -3 11792.4 911.359   3
  -3  19  -2 1190.79 264.725   2
  -3 -19  -2 2293.19 376.221   3
  -3 -19  -1 18321.9 986.807   3
  -3  19  -1 17979.3 1042.16   2
  -3 -19   0 18446.1 1005.92   3
  -3  19   0 16961.5 995.978   2
  -3  19   0 18966.0 1005.81   1
  -3 -19   1 5268.26 547.080   3
  -3  19   1 6157.01 604.530   2
  -3  19   2 13626.0 905.325   2
  -3 -19   3 12294.5 775.562   4
  -3  19   3 11285.6 847.938   2
  -3 -19   4 6024.54 571.007   4
  -3 -19   5 6879.05 643.533   4
  -3 -21  -3 1818.26 378.146   3
  -3 -21  -2 11189.5 853.951   3
  -3  21  -2 11549.0 890.802   2
  -3 -21  -1 8034.65 692.548   3
  -3  21  -1 8491.86 764.547   2
  -3 -21   0 3777.28 484.281   3
  -3  21   0 4347.68 541.334   2
  -3 -21   1 27939.9 1335.49   3
  -3  21   1 25866.7 1315.86   2
  -3  21   2 8248.14 753.686   2
  -3 -21   3 2803.62 394.757   4
  -3  21   3 3780.76 519.714   2
  -3 -21   4 9536.31 750.149   4
  -3 -23  -3 1309.85 311.032   3
  -3 -23  -2 10076.0 840.186   3
  -3  23  -2 10568.4 890.600   2
  -3 -23  -1 5067.39 589.609   3
  -3  23  -1 5334.64 632.006   2
  -3  23   0 1069.51 269.570   2
  -3 -23   0 1506.94 328.289   3
  -3 -23   1 15545.6 1041.90   3
  -3  23   1 15200.7 1077.29   2
  -3  23   2 4724.91 603.567   2
  -3 -23   3 2694.65 404.324   4
  -3  23   3 2194.18 399.594   2
  -3 -23   4 9179.10 758.858   4
  -3 -25  -2 1916.81 381.090   3
  -3  25  -2 2482.59 443.818   2
  -3 -25  -1 12213.9 943.041   3
  -3  25  -1 13502.4 1040.22   2
  -3 -25   0 5620.91 651.897   3
  -3  25   0 4732.21 631.518   2
  -3 -25   1 3161.07 480.860   3
  -3  25   1 3555.94 541.117   2
  -3  25   2 6492.46 736.536   2
  -3 -25   3 3412.94 456.924   4
  -3  25   3 2782.60 462.116   2
  -3  27  -1 2943.70 502.438   2
  -3  27   0 8276.13 862.066   2
  -3 -27   0 7643.28 794.452   3
  -3  27   1 2457.76 474.765   2
  -3 -27   1 1698.10 368.470   3
  -3  27   2 2008.51 431.103   2
  -3 -27   2 2723.61 435.078   4
  -3 -27   3 11756.2 886.195   4
  -2   0  -5 24123.0 1122.89   3
  -2   0  -4 14166.7 724.172   3
  -2   0  -3 20410.6 723.446   3
  -2   0  -3 21655.7 762.673   1
  -2   0  -2 56524.9 949.703   3
  -2   0  -2 59215.0 957.072   1
  -2   0  -1 38413.5 479.634   1
  -2   0  -1 38361.9 529.957   3
  -2   0  -1 41134.8 493.533   1
  -2   0   0 21457.7 378.796   5
  -2   0   1 173542. 1177.23   5
  -2   0   1 178851. 1309.19   1
  -2   0   2 20155.7 537.967   5
  -2   0   3 7356.64 414.548   5
  -2   0   3 6819.93 317.363   4
  -2   0   4 96060.6 1474.18   4
  -2   2  -5 8209.85 651.729   3
  -2  -2  -5 8105.58 652.029   3
  -2  -2  -4 10187.6 628.811   3
  -2   2  -4 10522.7 622.425   3
  -2   2  -3 43749.6 1057.67   1
  -2   2  -3 43420.6 1044.80   3
  -2  -2  -3 40991.6 1046.85   3
  -2  -2  -3 42026.7 1083.55   1
  -2  -2  -2 24610.9 631.182   1
  -2   2  -2 26704.8 635.543   3
  -2  -2  -2 27103.6 680.580   3
  -2   2  -2 28080.5 645.322   1
  -2   2  -1 61114.1 659.661   1
  -2   2  -1 60699.4 655.115   3
  -2  -2  -1 62640.8 699.981   1
  -2  -2  -1 61511.9 762.968   3
  -2   2   0 58665.0 475.298   1
  -2  -2   0 59968.2 596.672   1
  -2   2   1 77818.0 773.160   5
  -2  -2   1 80981.3 946.079   1
  -2  -2   1 75558.8 826.266   5
  -2  -2   2 33515.2 565.377   4
  -2   2   2 33849.3 703.503   5
  -2  -2   2 34354.9 706.351   5
  -2  -2   3 23564.7 749.000   5
  -2   2   3 23667.1 741.548   5
  -2  -2   3 22605.0 601.315   4
  -2   2   3 23575.9 578.398   4
  -2   2   4 16185.0 603.106   4
  -2  -2   4 16126.4 617.887   4
  -2  -2   4 18202.1 793.377   5
  -2   4  -5 3085.74 388.252   3
  -2  -4  -5 3390.85 438.990   3
  -2   4  -4 29313.7 1057.86   3
  -2  -4  -4 27974.6 1064.76   3
  -2  -4  -3 49314.8 1203.72   1
  -2   4  -3 50026.9 1177.14   1
  -2   4  -3 48468.1 1116.96   3
  -2  -4  -3 49559.6 1194.21   3
  -2   4  -2 4558.47 272.054   3
  -2   4  -2 5320.49 305.001   1
  -2  -4  -2 5007.95 315.598   3
  -2   4  -1 105753. 899.022   5
  -2   4  -1 98835.6 1051.21   1
  -2   4  -1 101157. 1098.45   2
  -2  -4  -1 100532. 1146.52   3
  -2  -4  -1 101976. 1093.38   1
  -2  -4   0 78241.5 930.971   3
  -2   4   0 82699.4 486.085   5
  -2   4   0 79877.1 916.647   2
  -2  -4   0 82072.1 923.185   1
  -2   4   0 78058.3 820.215   1
  -2   4   1 2768.94 143.590   5
  -2  -4   1 2917.56 194.249   1
  -2   4   1 3025.11 197.805   1
  -2  -4   1 2919.37 173.253   5
  -2  -4   2 51820.7 800.303   4
  -2   4   2 53228.3 898.759   5
  -2  -4   2 50597.0 859.706   5
  -2  -4   3 30184.5 848.417   5
  -2   4   3 29654.9 840.756   5
  -2  -4   3 29033.8 718.271   4
  -2   4   3 30777.0 665.236   4
  -2  -4   4 4339.91 333.568   4
  -2  -4   4 4668.00 397.667   5
  -2  -4   5 12355.7 658.640   4
  -2  -6  -5 8631.66 710.660   3
  -2   6  -5 8202.66 658.051   3
  -2   6  -4 23595.3 961.848   3
  -2  -6  -4 22043.4 981.145   3
  -2  -6  -3 8584.17 525.689   3
  -2  -6  -3 8371.27 507.108   1
  -2   6  -3 7415.30 476.260   1
  -2   6  -3 7631.81 459.067   3
  -2   6  -2 31238.7 816.623   1
  -2  -6  -2 30631.0 850.393   3
  -2   6  -2 30417.9 713.147   2
  -2   6  -1 83450.2 1168.02   1
  -2   6  -1 83214.1 1219.33   2
  -2  -6  -1 85645.1 1233.16   3
  -2  -6  -1 81223.7 1170.83   1
  -2  -6   0 6157.61 274.141   5
  -2   6   0 5853.76 299.058   2
  -2  -6   0 6412.33 321.288   3
  -2  -6   0 6367.68 314.211   1
  -2   6   0 6011.59 292.847   1
  -2   6   1 67847.0 733.811   5
  -2   6   1 66256.5 1026.04   2
  -2  -6   1 67930.9 1091.87   3
  -2  -6   1 67334.4 871.133   5
  -2   6   1 66849.9 1039.31   1
  -2   6   2 89811.5 1299.93   2
  -2   6   2 88878.5 1457.47   1
  -2  -6   2 87971.8 1152.59   4
  -2   6   2 87898.1 1177.01   5
  -2  -6   2 84048.4 1147.23   5
  -2  -6   3 19499.9 683.709   5
  -2  -6   3 17987.2 602.692   4
  -2   6   3 18153.3 640.650   2
  -2  -6   4 24282.4 823.424   4
  -2  -6   4 24655.2 931.704   5
  -2  -6   5 13583.3 716.701   4
  -2  -8  -5 9912.42 785.250   3
  -2   8  -5 9499.97 724.798   3
  -2   8  -4 7172.22 541.972   3
  -2  -8  -4 7475.61 598.903   3
  -2   8  -3 32088.6 975.536   3
  -2   8  -3 31472.4 1045.46   1
  -2  -8  -3 31978.8 1075.13   3
  -2  -8  -3 29206.8 1029.53   1
  -2   8  -2 29172.4 865.235   1
  -2  -8  -2 29622.9 910.574   3
  -2   8  -2 28231.5 822.069   2
  -2  -8  -1 20632.8 689.278   3
  -2   8  -1 22014.3 696.135   1
  -2   8  -1 21666.0 717.166   2
  -2   8  -1 19877.3 281.919   5
  -2  -8   0 72849.3 1252.29   3
  -2  -8   0 70379.0 994.250   5
  -2   8   0 70540.6 1197.17   2
  -2   8   0 69716.4 1176.03   1
  -2   8   1 48290.1 1012.68   1
  -2  -8   1 47728.8 1024.57   3
  -2  -8   1 48828.6 776.571   5
  -2   8   1 49239.5 999.419   2
  -2   8   2 26010.8 855.675   1
  -2   8   2 24777.2 748.651   2
  -2  -8   2 24785.0 643.211   5
  -2  -8   3 45728.0 1062.90   5
  -2   8   3 44055.1 1070.57   2
  -2  -8   3 42882.5 1002.90   4
  -2  -8   4 19872.6 844.502   5
  -2  -8   4 19593.1 773.424   4
  -2  -8   5 12775.9 720.756   4
  -2 -10  -5 13757.8 953.152   3
  -2  10  -4 7175.76 559.191   3
  -2 -10  -4 7706.78 637.986   3
  -2 -10  -3 19145.2 886.598   3
  -2  10  -3 17738.3 763.264   3
  -2  10  -3 17771.6 829.464   1
  -2  10  -2 54783.3 1311.02   1
  -2 -10  -2 55204.2 1350.30   3
  -2  10  -2 54984.6 1301.83   2
  -2  10  -1 32129.8 955.990   1
  -2  10  -1 29486.0 942.954   2
  -2 -10  -1 30838.9 936.088   3
  -2 -10   0 10657.2 536.454   3
  -2  10   0 10505.6 522.863   2
  -2  10   0 10799.7 525.021   1
  -2 -10   0 10501.7 407.753   5
  -2 -10   1 66573.8 1341.52   3
  -2  10   1 66673.2 1311.85   2
  -2  10   1 68845.3 1359.70   1
  -2 -10   1 68981.4 971.220   5
  -2 -10   2 13212.8 478.382   5
  -2  10   2 13982.2 669.452   1
  -2  10   2 12449.6 583.913   2
  -2  10   3 3023.20 352.172   1
  -2 -10   3 3031.36 277.819   5
  -2  10   3 2990.35 299.954   2
  -2 -10   3 2601.39 266.041   4
  -2 -10   4 28318.6 1021.33   5
  -2 -10   4 28042.9 977.551   4
  -2 -10   5 2440.21 328.119   4
  -2 -12  -5 4297.94 554.052   3
  -2  12  -4 20233.4 976.612   3
  -2 -12  -4 22252.4 1138.93   3
  -2  12  -3 14753.8 816.957   1
  -2 -12  -3 14043.1 812.975   3
  -2  12  -2 5014.41 433.665   1
  -2 -12  -2 4965.57 435.656   3
  -2  12  -2 4191.43 398.027   2
  -2  12  -1 35129.2 1102.46   1
  -2  12  -1 35218.0 1127.18   2
  -2 -12  -1 35448.7 1100.96   3
  -2 -12   0 23857.6 883.901   3
  -2 -12   0 25820.6 680.036   5
  -2  12   0 24170.6 882.319   2
  -2  12   0 24647.5 872.518   1
  -2 -12   1 19483.2 799.263   3
  -2 -12   1 18406.9 521.654   5
  -2  12   1 18484.4 765.514   2
  -2  12   1 19448.0 795.909   1
  -2 -12   2 31906.6 758.184   5
  -2  12   2 31355.6 1088.92   1
  -2  12   2 32374.8 1028.34   2
  -2 -12   3 16440.4 655.589   5
  -2 -12   3 16625.7 727.413   4
  -2  12   3 16912.5 904.433   1
  -2  12   3 16826.2 776.643   2
  -2 -12   4 14257.7 741.214   4
  -2 -12   5 12873.3 781.901   4
  -2 -12   6 4196.96 485.160   4
  -2 -14  -5 588.384 163.075   3
  -2  14  -4 8187.74 646.217   3
  -2 -14  -4 8392.85 727.903   3
  -2 -14  -3 28791.0 1235.70   3
  -2  14  -2 5367.86 490.468   1
  -2  14  -2 5835.11 514.201   2
  -2 -14  -2 6867.14 551.048   3
  -2  14  -1 31756.9 1129.39   1
  -2 -14  -1 32074.0 1134.71   3
  -2  14  -1 30843.5 1150.01   2
  -2 -14   0 63691.5 1556.74   3
  -2 -14   0 62599.4 1097.26   5
  -2  14   0 59530.3 1532.21   2
  -2  14   0 57929.6 1447.66   1
  -2  14   1 14738.5 747.675   2
  -2 -14   1 15642.1 778.132   3
  -2  14   1 15812.2 779.117   1
  -2 -14   1 15095.0 492.311   5
  -2  14   2 25891.6 1076.75   1
  -2  14   2 25022.3 987.101   2
  -2 -14   3 29084.4 1022.51   4
  -2  14   3 28548.7 1101.04   2
  -2 -14   4 1847.39 283.050   4
  -2 -14   5 10248.1 732.616   4
  -2 -14   6 9348.89 745.910   4
  -2 -16  -4 6982.46 701.759   3
  -2  16  -4 7169.51 622.894   3
  -2 -16  -3 6227.19 612.734   3
  -2  16  -2 24637.2 1137.01   1
  -2  16  -2 25050.3 1135.63   2
  -2 -16  -2 25265.3 1130.91   3
  -2  16  -1 20438.3 994.388   1
  -2  16  -1 19033.1 965.251   2
  -2 -16  -1 22569.5 1011.29   3
  -2 -16   0 5152.45 481.439   3
  -2  16   0 5014.66 482.722   2
  -2  16   0 5381.92 477.050   1
  -2 -16   1 35626.7 1271.23   3
  -2  16   1 37841.8 1302.52   1
  -2  16   1 39184.6 1339.57   2
  -2 -16   2 11485.2 738.357   3
  -2  16   2 12008.3 781.490   1
  -2  16   2 11483.3 728.437   2
  -2  16   3 1739.97 294.591   2
  -2 -16   3 1798.60 277.549   4
  -2 -16   4 20553.6 987.645   4
  -2 -16   5 3583.59 453.710   4
  -2  18  -4 2712.91 397.521   3
  -2 -18  -4 4039.13 553.011   3
  -2 -18  -3 9878.31 813.915   3
  -2  18  -2 19192.5 1060.92   2
  -2 -18  -2 19245.6 1057.09   3
  -2 -18  -1 4293.26 466.042   3
  -2  18  -1 3955.33 469.855   2
  -2  18  -1 5393.43 549.072   1
  -2  18   0 7312.05 604.856   1
  -2  18   0 7464.71 636.457   2
  -2 -18   0 6480.27 577.549   3
  -2 -18   1 25187.8 1152.12   3
  -2  18   1 22530.7 1082.56   1
  -2  18   1 24064.0 1130.15   2
  -2  18   2 5790.89 559.519   2
  -2 -18   2 6389.87 578.208   3
  -2 -18   3 10401.0 688.833   4
  -2  18   3 10310.3 769.945   2
  -2 -18   4 18730.3 989.530   4
  -2 -18   5 2182.24 363.015   4
  -2 -20  -4 1158.90 308.619   3
  -2 -20  -3 10975.5 893.015   3
  -2 -20  -2 8787.22 748.922   3
  -2  20  -2 10468.4 822.905   2
  -2  20  -1 12711.6 901.160   2
  -2 -20  -1 11297.0 797.945   3
  -2 -20   0 14844.9 919.623   3
  -2  20   0 13453.7 914.382   2
  -2 -20   1 8267.64 698.390   3
  -2  20   1 9218.61 751.113   2
  -2 -20   2 13249.7 890.603   3
  -2  20   2 13446.8 913.015   2
  -2 -20   3 9182.63 677.282   4
  -2  20   3 8007.24 715.667   2
  -2 -20   4 2092.73 344.355   4
  -2 -20   5 3044.18 411.867   4
  -2 -22  -3 5249.95 642.381   3
  -2  22  -2 1576.32 343.262   2
  -2 -22  -2 1309.70 295.273   3
  -2 -22  -1 29083.4 1357.38   3
  -2  22  -1 27237.1 1386.63   2
  -2 -22   0 7545.73 689.675   3
  -2  22   0 7102.29 702.665   2
  -2 -22   1 4329.93 537.405   3
  -2  22   1 5219.55 599.695   2
  -2  22   2 20834.8 1206.80   2
  -2  22   3 6685.27 688.251   2
  -2 -22   3 7339.90 638.147   4
  -2 -22   4 4096.98 496.828   4
  -2  24  -2 1897.69 380.669   2
  -2 -24  -2 2533.41 443.717   3
  -2 -24  -1 5820.77 649.782   3
  -2  24  -1 5385.99 632.773   2
  -2 -24   0 6575.87 681.395   3
  -2  24   0 6960.61 742.606   2
  -2 -24   1 2662.78 433.620   3
  -2  24   1 2578.08 443.709   2
  -2 -24   2 5479.19 556.748   4
  -2  24   2 5701.46 658.844   2
  -2 -24   3 4406.43 521.583   4
  -2  24   3 5151.83 626.750   2
  -2 -24   4 1921.31 352.247   4
  -2  26  -2 5726.75 683.386   2
  -2 -26  -1 3196.12 480.687   3
  -2  26  -1 2960.19 485.548   2
  -2 -26   0 7141.52 744.310   3
  -2  26   0 7491.38 795.664   2
  -2 -26   1 10246.5 891.245   3
  -2  26   1 10767.5 959.737   2
  -2 -26   2 1221.16 274.565   4
  -2  26   2 847.360 276.989   2
  -2 -26   3 1337.99 281.918   4
  -2  28   0 866.739 244.123   2
  -2  28   1 10817.8 984.518   2
  -2 -28   2 2270.56 375.524   4
  -2 -30   1 553.617 181.021   4
  -1   1  -6 3352.53 468.954   3
  -1  -1  -6 3522.38 484.400   3
  -1   1  -5 8018.87 646.076   3
  -1  -1  -5 6738.20 598.308   3
  -1  -1  -4 24519.6 960.140   3
  -1   1  -4 23664.0 973.514   1
  -1   1  -4 24344.8 962.406   3
  -1  -1  -4 25129.5 1020.89   1
  -1   1  -3 13063.0 579.412   3
  -1   1  -3 12630.3 583.744   1
  -1  -1  -3 12210.3 567.455   3
  -1  -1  -3 13464.3 608.961   1
  -1   1  -2 20115.5 560.960   3
  -1  -1  -2 21598.8 603.330   3
  -1  -1  -2 21478.6 591.609   1
  -1   1  -2 20024.2 562.863   1
  -1   1  -1 131273. 1025.74   5
  -1  -1  -1 136221. 1009.18   1
  -1   1  -1 133652. 1001.54   3
  -1  -1  -1 133485. 1053.87   3
  -1   1  -1 135498. 969.595   1
  -1  -1  -1 136302. 1021.21   1
  -1  -1   1 25878.6 484.086   1
  -1   1   1 25318.1 421.444   5
  -1  -1   1 25204.1 414.203   5
  -1  -1   2 168137. 1565.67   5
  -1   1   2 164071. 1552.01   5
  -1   1   2 168189. 1262.23   4
  -1  -1   2 168249. 1304.23   4
  -1  -1   3 13372.5 476.935   4
  -1   1   3 13037.4 463.071   4
  -1  -1   3 13557.1 559.514   5
  -1  -1   4 5936.14 388.494   4
  -1   1   4 5861.20 381.387   4
  -1  -1   5 27198.3 977.541   4
  -1   3  -6 7531.24 708.269   3
  -1  -3  -6 7288.84 712.258   3
  -1   3  -5 28648.3 1224.12   3
  -1  -3  -5 27783.1 1231.18   3
  -1   3  -4 3590.98 380.806   1
  -1   3  -4 4129.89 399.430   3
  -1  -3  -4 4603.53 425.854   3
  -1  -3  -4 4440.33 440.558   1
  -1   3  -3 49735.3 1162.15   1
  -1   3  -3 50052.8 1132.48   3
  -1  -3  -3 51022.9 1182.89   3
  -1  -3  -3 50761.4 1192.11   1
  -1  -3  -2 77316.2 1186.88   1
  -1   3  -2 77759.0 1128.60   3
  -1  -3  -2 81452.6 1220.84   3
  -1   3  -2 78889.1 1144.44   1
  -1  -3  -1 13637.4 366.112   1
  -1  -3  -1 14420.9 395.725   3
  -1   3  -1 13992.3 304.795   5
  -1   3  -1 14128.2 364.533   1
  -1  -3   0 46964.1 608.130   1
  -1  -3   0 47470.3 621.685   3
  -1  -3   1 35905.8 507.979   5
  -1   3   1 36743.4 527.037   5
  -1   3   1 37972.4 654.442   1
  -1  -3   1 35583.2 615.208   1
  -1  -3   2 2683.83 173.547   4
  -1   3   2 2347.07 188.125   5
  -1   3   2 2701.84 162.151   4
  -1  -3   2 3022.55 204.666   5
  -1  -3   3 29497.9 826.679   5
  -1  -3   3 28901.4 723.283   4
  -1   3   3 29127.6 696.594   4
  -1   3   4 35050.0 948.459   4
  -1  -3   4 34548.0 953.912   4
  -1  -3   5 2379.11 292.644   4
  -1   5  -5 9687.36 726.340   3
  -1  -5  -5 10538.8 777.300   3
  -1  -5  -4 7193.10 567.379   1
  -1   5  -4 7490.84 538.623   3
  -1  -5  -4 7752.15 566.294   3
  -1   5  -4 8070.65 591.234   1
  -1   5  -3 62499.4 1358.84   1
  -1  -5  -3 62848.2 1374.87   1
  -1   5  -3 62530.3 1309.83   3
  -1  -5  -3 63344.4 1390.00   3
  -1   5  -2 35049.3 708.805   2
  -1  -5  -2 34454.2 855.727   3
  -1   5  -2 34030.6 811.523   1
  -1   5  -1 49669.6 508.704   5
  -1   5  -1 49947.6 829.462   1
  -1   5  -1 49283.6 879.164   2
  -1  -5  -1 50266.9 860.789   3
  -1  -5  -1 49937.5 830.162   1
  -1  -5   0 88608.0 1076.04   1
  -1   5   0 93209.9 1069.45   2
  -1   5   0 88630.7 1042.93   1
  -1  -5   0 91869.4 1103.16   3
  -1  -5   1 64036.4 947.701   1
  -1  -5   1 59075.8 905.771   3
  -1  -5   1 61744.3 693.828   5
  -1   5   1 60519.3 867.485   2
  -1   5   1 60754.8 939.252   1
  -1  -5   2 49619.0 837.956   4
  -1   5   2 51805.7 790.745   4
  -1   5   2 51420.5 1055.89   1
  -1   5   2 49440.7 854.845   2
  -1  -5   2 51858.1 861.712   5
  -1   5   3 31985.5 754.381   2
  -1  -5   3 32743.7 873.983   5
  -1   5   3 30948.1 744.855   4
  -1  -5   3 32085.1 795.971   4
  -1  -5   4 24653.9 834.032   4
  -1   5   4 25077.6 802.265   4
  -1  -5   5 7739.54 547.530   4
  -1   7  -5 8884.31 709.419   3
  -1  -7  -5 9579.74 757.467   3
  -1   7  -4 15221.3 787.716   3
  -1  -7  -4 16535.0 868.694   3
  -1   7  -4 14766.2 818.448   1
  -1  -7  -4 14525.2 815.936   1
  -1   7  -3 16679.2 695.451   3
  -1  -7  -3 16497.0 752.880   1
  -1  -7  -3 17216.7 760.945   3
  -1   7  -3 16815.5 738.228   1
  -1   7  -2 10924.2 486.766   2
  -1   7  -2 11335.6 517.460   1
  -1  -7  -2 11729.9 547.309   3
  -1   7  -1 50045.7 489.237   5
  -1   7  -1 47430.3 938.339   1
  -1   7  -1 47420.9 1017.08   2
  -1  -7  -1 48534.3 978.598   3
  -1  -7   0 78808.4 1195.55   3
  -1   7   0 78322.5 1182.01   2
  -1  -7   0 75157.2 1171.94   1
  -1  -7   0 75982.5 839.850   5
  -1   7   0 74359.1 1142.58   1
  -1  -7   1 41537.0 883.651   3
  -1   7   1 43479.9 857.992   2
  -1  -7   1 41839.2 607.282   5
  -1  -7   2 44735.6 806.416   5
  -1  -7   2 45523.7 876.460   4
  -1   7   2 44251.9 908.104   2
  -1   7   2 46284.2 1090.35   1
  -1   7   2 46234.6 930.986   4
  -1  -7   3 22412.4 727.664   5
  -1  -7   3 21316.9 688.807   4
  -1   7   3 22369.0 687.809   4
  -1   7   3 22667.7 697.709   2
  -1  -7   4 20669.1 796.805   4
  -1  -7   5 11253.9 671.786   4
  -1  -7   6 3366.36 405.310   4
  -1   9  -5 13104.8 859.196   3
  -1  -9  -5 14251.8 959.021   3
  -1   9  -4 18533.8 895.820   3
  -1   9  -4 19529.5 979.203   1
  -1  -9  -4 19128.4 977.456   3
  -1   9  -3 16852.1 743.309   3
  -1   9  -3 16672.8 787.570   1
  -1  -9  -3 17260.2 813.361   3
  -1   9  -2 45203.5 1129.08   1
  -1  -9  -2 44315.6 1153.79   3
  -1   9  -2 45026.8 1123.36   2
  -1   9  -1 52942.5 1143.71   1
  -1   9  -1 57938.9 523.728   5
  -1   9  -1 54183.9 1228.02   2
  -1  -9  -1 55856.9 1190.61   3
  -1  -9   0 29245.7 827.295   3
  -1  -9   0 27888.9 557.163   5
  -1   9   0 28768.8 824.061   2
  -1   9   0 28944.6 813.784   1
  -1  -9   1 46624.3 1049.53   3
  -1   9   1 50606.9 1063.41   2
  -1   9   1 50355.9 1103.33   1
  -1  -9   1 50065.3 690.793   5
  -1  -9   2 43358.0 930.325   4
  -1  -9   2 44103.2 813.347   5
  -1   9   2 45986.0 1165.76   1
  -1   9   2 43932.9 1018.01   2
  -1  -9   3 23299.5 752.083   5
  -1  -9   3 22581.3 750.199   4
  -1   9   3 23565.1 937.517   1
  -1   9   3 25474.4 864.457   4
  -1   9   3 23563.3 788.560   2
  -1  -9   4 16484.6 738.881   4
  -1  -9   5 16126.1 842.037   4
  -1  -9   6 8755.53 675.265   4
  -1 -11  -5 2874.95 446.010   3
  -1  11  -5 3135.01 426.378   3
  -1  11  -4 18561.9 930.776   3
  -1 -11  -4 20073.2 1051.69   3
  -1  11  -3 20114.3 911.795   1
  -1 -11  -3 20080.7 942.085   3
  -1  11  -2 8151.08 528.340   1
  -1 -11  -2 8237.51 541.975   3
  -1  11  -2 8723.80 553.846   2
  -1  11  -1 55652.5 1317.58   1
  -1  11  -1 58863.0 1409.58   2
  -1 -11  -1 56215.1 1309.86   3
  -1 -11   0 32398.3 969.990   3
  -1  11   0 32047.9 980.320   2
  -1 -11   0 32334.4 656.217   5
  -1  11   0 31807.2 950.991   1
  -1  11   1 19041.0 729.658   2
  -1 -11   1 19886.0 755.088   3
  -1  11   1 19945.0 765.099   1
  -1 -11   1 17638.2 426.813   5
  -1  11   2 59035.3 1429.41   1
  -1  11   2 55387.8 1264.38   2
  -1 -11   2 56935.9 1155.25   4
  -1 -11   2 57254.6 953.857   5
  -1  11   3 18315.4 908.265   1
  -1  11   3 17715.5 747.259   2
  -1 -11   3 16938.6 653.100   5
  -1 -11   3 16721.6 697.687   4
  -1 -11   4 6271.99 479.546   4
  -1 -11   5 15244.5 849.888   4
  -1 -11   6 2955.70 406.310   4
  -1  13  -5 15689.3 975.474   3
  -1 -13  -5 15932.4 1082.98   3
  -1  13  -4 308.431 132.315   3
  -1 -13  -4 733.717 227.131   3
  -1  13  -3 19864.4 985.749   1
  -1 -13  -3 20574.1 1012.56   3
  -1  13  -2 44789.2 1343.34   1
  -1 -13  -2 46397.1 1384.56   3
  -1  13  -2 42984.2 1336.33   2
  -1  13  -1 3429.20 355.339   1
  -1  13  -1 3261.40 359.715   2
  -1 -13  -1 3171.62 340.982   3
  -1 -13   0 31001.6 1030.84   3
  -1  13   0 29438.7 1037.06   2
  -1  13   0 29279.1 998.258   1
  -1 -13   0 30161.1 648.671   5
  -1  13   1 43168.2 1233.04   2
  -1  13   1 45691.9 1266.62   1
  -1 -13   1 43464.3 1217.39   3
  -1 -13   1 42332.0 678.077   5
  -1  13   2 8615.16 595.922   1
  -1  13   2 8841.21 557.458   2
  -1 -13   3 25602.4 930.257   4
  -1  13   3 25249.2 1146.46   1
  -1  13   3 24380.8 959.805   2
  -1 -13   4 18462.3 870.288   4
  -1 -13   5 1006.69 219.767   4
  -1 -13   6 10326.4 781.550   4
  -1  15  -5 5337.21 593.329   3
  -1 -15  -5 5462.76 645.945   3
  -1  15  -4 3094.53 416.443   3
  -1 -15  -4 3482.62 483.067   3
  -1 -15  -3 18935.5 1036.44   3
  -1  15  -2 19977.3 978.538   1
  -1 -15  -2 22118.8 1022.63   3
  -1  15  -2 20911.8 1005.73   2
  -1  15  -1 20611.1 932.530   1
  -1  15  -1 19612.0 958.186   2
  -1 -15  -1 20853.7 954.347   3
  -1 -15   0 32880.9 1152.35   3
  -1  15   0 31622.8 1169.57   2
  -1  15   0 29724.9 1091.42   1
  -1 -15   1 21319.3 931.012   3
  -1  15   1 22530.8 956.673   1
  -1  15   1 22665.3 970.458   2
  -1  15   2 11590.5 749.465   1
  -1  15   2 12308.2 720.091   2
  -1 -15   3 14244.5 741.907   4
  -1  15   3 14069.6 795.046   2
  -1 -15   4 11429.2 726.064   4
  -1 -15   5 3140.77 423.658   4
  -1  17  -4 18749.2 1044.99   3
  -1 -17  -4 19920.0 1218.54   3
  -1 -17  -3 3751.87 492.225   3
  -1  17  -2 2243.99 352.964   2
  -1 -17  -2 2012.32 323.371   3
  -1  17  -2 1611.33 298.337   1
  -1  17  -1 46107.8 1563.85   2
  -1  17  -1 48946.1 1567.12   1
  -1 -17  -1 46980.9 1508.97   3
  -1 -17   0 4004.26 431.456   3
  -1  17   0 3116.82 398.068   2
  -1  17   0 3211.87 379.192   1
  -1  17   1 1752.54 288.290   2
  -1  17   1 2133.65 318.306   1
  -1 -17   2 49437.6 1334.01   4
  -1 -17   2 50129.8 1552.27   3
  -1  17   2 52351.0 1598.84   2
  -1  17   3 1845.93 314.969   2
  -1 -17   3 1473.05 240.612   4
  -1 -17   4 1639.04 291.622   4
  -1 -17   5 18689.0 1048.07   4
  -1  19  -4 6879.68 651.845   3
  -1 -19  -4 6777.19 732.231   3
  -1 -19  -3 8267.32 761.169   3
  -1 -19  -2 10871.0 819.891   3
  -1  19  -2 10371.2 802.635   2
  -1 -19  -1 9909.90 729.213   3
  -1  19  -1 10186.7 782.817   2
  -1  19   0 17719.5 1005.13   2
  -1  19   0 18347.9 987.263   1
  -1 -19   0 19641.8 1034.15   3
  -1 -19   1 14839.6 904.491   3
  -1  19   1 15009.4 914.863   2
  -1 -19   2 7400.53 640.693   3
  -1 -19   2 7826.10 563.541   4
  -1  19   2 7837.88 664.231   2
  -1 -19   3 10797.0 718.978   4
  -1  19   3 9242.73 737.199   2
  -1 -19   4 10812.3 761.480   4
  -1 -19   5 3597.37 468.938   4
  -1  21  -4 2003.05 357.956   3
  -1 -21  -3 13566.8 1026.44   3
  -1  21  -2 7969.85 744.649   2
  -1 -21  -2 7591.30 713.914   3
  -1 -21  -1 7073.21 652.645   3
  -1  21  -1 7606.23 705.861   2
  -1 -21   0 20500.9 1104.38   3
  -1  21   0 20521.6 1166.68   2
  -1  21   1 10833.8 828.851   2
  -1 -21   1 13148.7 895.989   3
  -1 -21   2 6714.65 652.517   3
  -1  21   2 5836.85 610.236   2
  -1 -21   2 7219.89 576.140   4
  -1 -21   3 5284.60 521.380   4
  -1  21   3 5621.36 606.447   2
  -1 -21   4 8333.62 697.378   4
  -1 -23  -3 8716.43 853.028   3
  -1 -23  -2 8411.78 779.016   3
  -1  23  -2 8427.54 794.553   2
  -1  23  -1 1688.61 338.342   2
  -1 -23  -1 1474.84 313.615   3
  -1 -23   0 11971.9 890.314   3
  -1  23   0 12989.5 977.952   2
  -1 -23   1 8206.56 744.632   3
  -1  23   1 7683.84 743.103   2
  -1  23   2 3795.15 526.900   2
  -1 -23   2 4060.76 458.224   4
  -1 -23   3 9532.71 735.954   4
  -1 -23   4 5377.63 577.199   4
  -1 -25  -2 8062.87 797.160   3
  -1  25  -2 8161.82 809.247   2
  -1 -25  -1 4591.83 584.355   3
  -1  25  -1 4795.94 617.018   2
  -1 -25   0 4983.81 608.912   3
  -1  25   0 5716.75 680.639   2
  -1 -25   1 5771.07 656.426   3
  -1  25   1 5585.07 670.142   2
  -1 -25   2 3279.62 432.562   4
  -1  25   2 4262.60 580.321   2
  -1 -25   3 2854.51 429.591   4
  -1  27  -2 896.263 226.265   2
  -1 -27  -1 14858.3 1088.79   3
  -1  27  -1 15005.8 1119.64   2
  -1  27   0 1047.70 292.133   2
  -1 -27   0 2104.27 434.086   3
  -1 -27   1 474.389 170.682   4
  -1  27   1 791.059 252.490   2
  -1 -27   1 374.921 150.530   3
  -1  27   2 20389.0 1301.92   2
  -1 -27   2 16581.5 1011.86   4
  -1 -27   3 1222.84 299.343   4
  -1 -29   1 4143.14 504.271   4
  -1 -29   2 2810.30 414.521   4
   0   0  -6 14655.2 1001.92   3
   0   0  -5 1371.34 272.030   3
   0   0  -4 3003.49 352.563   1
   0   0  -4 3196.99 349.581   3
   0   0  -3 105728. 1673.91   3
   0   0  -3 103250. 1700.96   1
   0   0  -2 5399.26 299.462   1
   0   0  -2 4836.28 283.249   3
   0   0  -1 23905.8 409.350   5
   0   0  -1 23127.1 426.965   3
   0   0  -1 23283.1 422.291   1
   0   0   1 23629.3 409.188   5
   0   0   1 22974.3 417.048   1
   0   0   2 5952.62 261.966   4
   0   0   3 100882. 1370.42   4
   0   0   4 5716.94 394.644   4
   0   0   5 2228.13 295.483   4
   0   2  -6 3600.08 495.391   3
   0  -2  -6 3675.96 501.488   3
   0   2  -5 18629.1 993.867   3
   0  -2  -5 19599.8 1025.55   3
   0   2  -4 25206.6 1013.29   1
   0   2  -4 26751.8 1018.70   3
   0  -2  -4 24811.4 986.057   3
   0  -2  -4 25262.9 1041.40   1
   0   2  -3 17541.6 686.816   1
   0  -2  -3 17780.6 708.373   1
   0   2  -3 17387.8 675.965   3
   0  -2  -3 17572.1 693.150   3
   0  -2  -2 49451.6 928.089   1
   0   2  -2 49751.8 917.040   3
   0   2  -2 49137.8 909.850   1
   0  -2  -2 50072.2 941.768   3
   0  -2  -1 35051.7 541.870   5
   0   2  -1 34675.9 540.852   1
   0  -2  -1 34782.8 562.167   1
   0  -2  -1 34949.4 579.785   3
   0   2  -1 34123.8 458.137   5
   0   2   1 34713.6 576.334   1
   0  -2   1 32721.2 535.070   1
   0  -2   1 33437.1 471.316   5
   0  -2   2 48185.0 835.085   5
   0   2   2 46982.8 742.095   4
   0  -2   2 47499.2 761.727   4
   0   2   3 19903.3 609.155   4
   0  -2   3 19942.8 623.898   4
   0   2   4 23620.1 806.216   4
   0  -2   4 24621.2 825.922   4
   0  -2   5 17138.0 809.564   4
   0   2   5 17195.4 811.912   4
   0   4  -6 1343.38 298.720   3
   0  -4  -6 1435.29 326.051   3
   0   4  -5 21094.0 1079.68   3
   0  -4  -5 20405.1 1063.53   3
   0  -4  -4 31658.4 1179.51   1
   0   4  -4 30148.0 1124.07   1
   0   4  -4 30715.0 1092.73   3
   0  -4  -4 32493.9 1154.89   3
   0   4  -3 7949.96 473.540   1
   0  -4  -3 8919.74 509.039   1
   0   4  -3 8624.44 483.139   3
   0  -4  -3 8091.25 485.637   3
   0   4  -2 51456.4 967.505   1
   0  -4  -2 52193.2 1021.86   3
   0  -4  -1 43010.7 648.202   5
   0   4  -1 39858.6 482.107   5
   0  -4  -1 40744.9 698.526   1
   0  -4  -1 41728.1 722.093   3
   0   4  -1 42735.7 712.416   1
   0   4  -1 41311.4 763.749   2
   0  -4   0 14304.1 381.804   1
   0   4   0 13972.6 379.981   1
   0   4   0 14481.2 397.398   2
   0  -4   0 14726.3 385.445   3
   0  -4   1 39970.2 503.798   5
   0  -4   1 37224.6 641.681   1
   0   4   1 38487.6 602.639   2
   0   4   1 36363.9 671.556   1
   0  -4   2 55872.9 893.232   5
   0   4   2 54230.5 847.154   4
   0   4   2 57301.0 1034.89   1
   0  -4   2 52479.1 842.190   4
   0   4   2 53589.0 771.268   2
   0  -4   3 7426.38 387.420   4
   0   4   3 7543.44 387.244   4
   0  -4   4 27689.8 897.980   4
   0   4   4 28623.5 909.778   4
   0   4   5 21267.3 909.830   4
   0  -4   5 20119.5 889.472   4
   0  -4   6 1122.83 231.724   4
   0   6  -6 5668.47 613.744   3
   0  -6  -6 5930.57 671.512   3
   0   6  -5 14737.6 906.381   3
   0  -6  -5 13057.4 868.886   3
   0   6  -4 8548.55 588.667   3
   0  -6  -4 7447.92 578.301   1
   0  -6  -4 8383.57 603.900   3
   0   6  -4 9139.81 634.505   1
   0  -6  -3 27158.7 929.715   1
   0   6  -3 27419.0 891.819   3
   0  -6  -3 27932.6 943.082   3
   0   6  -3 28453.3 941.526   1
   0  -6  -2 71022.3 1300.00   3
   0   6  -2 68161.9 1225.56   1
   0   6  -1 65832.3 630.988   5
   0   6  -1 62205.0 1015.95   1
   0  -6  -1 64564.4 1044.01   3
   0  -6  -1 64042.2 1006.52   1
   0   6  -1 60930.1 1109.30   2
   0   6   0 77668.5 1083.41   1
   0  -6   0 79832.4 1107.71   1
   0   6   0 80624.6 1159.17   2
   0  -6   0 80481.3 1108.35   3
   0  -6   1 56387.7 919.159   3
   0   6   1 59252.5 924.049   2
   0   6   1 58859.4 993.812   1
   0  -6   1 57559.0 948.379   1
   0  -6   1 59887.4 622.548   5
   0  -6   2 75269.8 1090.74   4
   0   6   2 78111.5 1132.22   4
   0   6   2 77076.8 1351.12   1
   0   6   2 76549.5 1075.42   2
   0  -6   2 76353.1 1039.32   5
   0  -6   3 26738.9 769.361   4
   0   6   3 28003.8 773.610   4
   0  -6   4 5195.07 400.944   4
   0   6   4 5455.05 399.136   4
   0  -6   5 17260.2 842.846   4
   0  -6   6 5868.24 553.407   4
   0   8  -5 11191.2 807.349   3
   0  -8  -5 11866.7 861.409   3
   0   8  -4 21875.2 965.219   3
   0  -8  -4 21504.6 1009.19   3
   0   8  -4 20592.9 986.828   1
   0   8  -3 25493.0 893.138   3
   0   8  -3 26502.3 966.420   1
   0  -8  -3 26448.0 975.001   3
   0   8  -2 47001.9 1119.63   2
   0   8  -2 44647.9 1084.16   1
   0  -8  -2 46520.6 1143.92   3
   0   8  -1 60574.4 1132.03   1
   0  -8  -1 59723.4 1150.92   3
   0   8  -1 63209.9 1283.52   2
   0   8  -1 62851.4 654.740   5
   0  -8   0 43252.9 524.300   5
   0   8   0 44657.4 990.250   2
   0   8   0 43647.7 936.241   1
   0  -8   0 43578.8 934.978   3
   0  -8   1 70512.1 1180.13   3
   0  -8   1 73300.6 689.008   5
   0   8   1 71398.5 1184.94   2
   0   8   1 69438.1 1230.97   1
   0  -8   2 41267.5 773.093   5
   0   8   2 40408.9 994.405   4
   0   8   2 41511.1 1051.79   1
   0   8   2 39998.1 899.406   2
   0  -8   2 41698.3 879.264   4
   0  -8   3 26084.7 799.439   4
   0   8   3 29997.0 903.989   4
   0  -8   4 25220.5 911.048   4
   0   8   4 26238.3 945.555   4
   0  -8   5 9918.81 663.928   4
   0  -8   6 5401.80 540.819   4
   0  10  -5 6071.55 599.038   3
   0 -10  -5 5520.54 601.702   3
   0  10  -4 5519.70 503.063   3
   0 -10  -4 5840.42 553.258   3
   0  10  -3 43450.7 1316.65   1
   0 -10  -3 44801.9 1358.07   3
   0  10  -2 15981.0 725.844   2
   0  10  -2 15158.6 680.237   1
   0 -10  -2 15275.9 708.703   3
   0  10  -1 7667.00 455.809   1
   0  10  -1 7740.04 505.571   2
   0  10  -1 7616.54 239.977   5
   0 -10  -1 8087.77 474.060   3
   0 -10   0 75060.0 1379.90   3
   0  10   0 77117.5 1465.16   2
   0 -10   0 74702.4 768.566   5
   0  10   0 77452.6 1409.01   1
   0 -10   1 7787.71 436.401   3
   0  10   1 7801.15 449.258   2
   0  10   1 8316.97 471.432   1
   0 -10   1 7705.49 230.620   5
   0 -10   2 14894.6 468.452   5
   0  10   2 14917.6 688.249   1
   0  10   2 14707.1 612.971   2
   0 -10   2 15407.1 578.811   4
   0 -10   3 42122.2 1077.17   4
   0  10   3 42395.7 1312.35   1
   0  10   3 43212.2 1235.50   4
   0 -10   4 5139.72 432.326   4
   0 -10   5 6049.39 542.568   4
   0 -10   6 9911.60 741.409   4
   0  12  -5 9768.90 784.317   3
   0 -12  -5 10099.4 854.318   3
   0  12  -4 13999.4 834.358   3
   0 -12  -4 15343.8 940.866   3
   0  12  -3 12024.0 727.419   1
   0 -12  -3 12766.8 779.498   3
   0  12  -2 20700.0 903.355   2
   0  12  -2 21010.3 883.373   1
   0 -12  -2 20793.4 900.197   3
   0  12  -1 37457.7 1112.14   1
   0  12  -1 38338.3 1210.52   2
   0 -12  -1 37701.9 1117.13   3
   0 -12   0 43445.0 1158.53   3
   0 -12   0 45153.3 623.539   5
   0  12   0 43003.5 1209.06   2
   0  12   0 42377.5 1156.02   1
   0 -12   1 32102.0 981.842   3
   0  12   1 34504.9 1046.10   2
   0  12   1 32805.6 1031.10   1
   0 -12   1 31936.7 475.975   5
   0 -12   2 22488.0 755.367   4
   0  12   2 22220.0 918.509   1
   0  12   2 23291.6 861.661   2
   0  12   3 11822.5 749.782   1
   0 -12   3 11966.8 609.039   4
   0 -12   4 11856.5 687.102   4
   0 -12   5 11143.7 755.020   4
   0 -12   6 2384.39 368.952   4
   0  14  -5 12485.0 901.369   3
   0 -14  -5 11670.8 943.617   3
   0  14  -4 21797.8 1084.37   3
   0 -14  -4 24741.6 1258.69   3
   0 -14  -3 2344.01 350.461   3
   0  14  -3 2784.29 380.428   1
   0  14  -2 29815.5 1184.79   2
   0  14  -2 29075.8 1135.84   1
   0 -14  -2 32217.5 1197.92   3
   0  14  -1 39536.7 1252.07   1
   0  14  -1 40195.3 1335.69   2
   0 -14  -1 40524.5 1265.01   3
   0 -14   0 4161.33 386.779   3
   0  14   0 3189.20 357.189   2
   0  14   0 3336.79 354.434   1
   0 -14   1 40177.0 1197.46   3
   0  14   1 37432.6 1196.32   2
   0  14   1 39903.1 1230.08   1
   0 -14   2 32616.5 979.768   4
   0  14   2 33130.6 1196.80   1
   0  14   2 31934.8 1108.08   2
   0 -14   3 4151.36 382.514   4
   0 -14   4 24200.4 1033.18   4
   0 -14   5 11929.9 808.695   4
   0  16  -5 4058.59 522.559   3
   0 -16  -5 3780.19 543.290   3
   0  16  -4 2166.65 358.275   3
   0 -16  -4 2406.25 409.949   3
   0 -16  -3 27601.8 1296.46   3
   0  16  -2 9746.12 720.556   2
   0  16  -2 8479.61 660.441   1
   0 -16  -2 9476.58 694.744   3
   0  16  -1 8541.96 622.138   1
   0  16  -1 8421.85 654.168   2
   0 -16  -1 8336.57 621.732   3
   0 -16   0 50614.6 1471.16   3
   0  16   0 51811.4 1562.83   2
   0  16   0 54605.7 1538.68   1
   0 -16   1 7336.35 558.649   3
   0  16   1 7098.84 563.235   1
   0  16   1 6479.91 535.227   2
   0 -16   2 10367.2 593.568   4
   0  16   2 10874.5 729.540   1
   0  16   2 11489.6 717.275   2
   0 -16   3 26505.4 1037.16   4
   0 -16   4 1831.54 296.079   4
   0 -16   5 4867.96 534.623   4
   0  18  -4 3512.18 460.781   3
   0 -18  -4 5223.20 639.222   3
   0 -18  -3 23150.8 1252.40   3
   0  18  -2 12687.7 867.613   2
   0 -18  -2 12440.3 850.267   3
   0  18  -1 5943.85 578.445   2
   0  18  -1 5297.98 523.562   1
   0 -18  -1 5920.38 552.985   3
   0 -18   0 32085.7 1255.78   3
   0  18   0 32144.9 1324.80   2
   0  18   0 31080.9 1256.22   1
   0 -18   1 8993.75 665.861   3
   0  18   1 7622.71 617.807   1
   0  18   1 7070.49 607.156   2
   0 -18   2 9170.62 679.828   3
   0 -18   2 8593.90 569.724   4
   0  18   2 8447.69 663.891   2
   0 -18   3 19119.8 915.396   4
   0 -18   4 4078.76 462.995   4
   0 -18   5 2326.31 376.524   4
   0 -20  -4 4920.04 638.371   3
   0 -20  -3 3498.70 507.543   3
   0  20  -2 17176.2 1069.49   2
   0 -20  -2 19164.1 1111.60   3
   0 -20  -1 13627.1 881.232   3
   0  20  -1 13327.1 914.408   2
   0 -20   0 5277.76 546.187   3
   0  20   0 4523.09 532.604   2
   0 -20   1 16040.9 953.651   3
   0  20   1 14882.0 940.113   2
   0 -20   2 15821.4 819.468   4
   0  20   2 16169.5 977.040   2
   0 -20   3 5456.06 517.485   4
   0 -20   4 4930.78 528.056   4
   0 -20   5 4290.39 511.352   4
   0 -22  -3 5648.03 686.258   3
   0  22  -2 13943.8 1005.74   2
   0 -22  -2 15376.6 1042.78   3
   0 -22  -1 12407.0 886.047   3
   0  22  -1 12953.5 945.432   2
   0 -22   0 10123.2 804.376   3
   0  22   0 9873.47 819.357   2
   0 -22   1 11009.7 837.992   3
   0  22   1 10772.7 843.264   2
   0 -22   2 16075.9 876.664   4
   0  22   2 17023.2 1068.26   2
   0 -22   3 4662.20 497.254   4
   0 -22   4 4366.72 505.329   4
   0 -24  -3 2124.67 448.586   3
   0 -24  -2 7624.63 760.259   3
   0  24  -2 6870.17 738.324   2
   0 -24  -1 7864.96 752.660   3
   0  24  -1 8009.45 781.250   2
   0 -24   0 1462.44 314.129   3
   0  24   0 1366.71 322.883   2
   0 -24   1 5544.69 628.756   3
   0  24   1 6232.83 678.262   2
   0 -24   2 6668.36 593.912   4
   0  24   2 7123.96 729.046   2
   0 -24   3 1608.43 318.991   4
   0 -24   4 4095.31 515.329   4
   0 -26  -2 1359.05 315.842   3
   0  26  -2 2027.97 415.077   2
   0  26  -1 2772.32 483.496   2
   0 -26  -1 3388.47 505.508   3
   0 -26   0 15186.4 1088.22   3
   0  26   0 15154.7 1101.98   2
   0 -26   1 3893.15 457.347   4
   0 -26   1 4226.71 568.453   3
   0  26   1 3734.66 545.683   2
   0  26   2 1728.77 362.815   2
   0 -26   2 916.319 227.162   4
   0 -26   3 7728.16 689.129   4
   0  28  -1 1819.04 396.616   2
   0 -28   0 14526.5 1093.94   3
   0  28   0 12465.4 1048.51   2
   0  28   1 1370.04 319.044   2
   0 -28   1 1437.54 307.079   4
   0 -28   2 910.160 230.423   4
   0 -30   1 4660.01 530.912   4
   1  -1  -6 2525.57 416.345   3
   1   1  -6 3156.07 473.804   3
   1   1  -5 26190.7 1189.50   3
   1  -1  -5 23708.0 1134.50   3
   1   1  -4 6816.49 529.663   1
   1   1  -4 7889.13 560.196   3
   1  -1  -4 6587.67 512.362   3
   1  -1  -4 6692.66 528.153   1
   1  -1  -3 13947.0 636.559   1
   1   1  -3 13415.0 601.003   3
   1  -1  -3 14338.7 635.837   3
   1   1  -3 13522.5 615.222   1
   1   1  -2 168963. 1697.51   3
   1  -1  -2 166924. 1726.69   3
   1  -1  -2 163721. 1695.66   1
   1  -1  -1 24163.8 473.807   1
   1   1  -1 23820.0 457.244   3
   1  -1  -1 23554.1 458.838   3
   1  -1  -1 24050.4 466.223   1
   1   1  -1 24614.1 474.749   1
   1   1  -1 23202.4 396.003   5
   1  -1  -1 23749.4 405.490   5
   1  -1   1 136333. 942.199   1
   1  -1   2 23226.9 567.559   4
   1   1   2 22367.7 555.640   4
   1  -1   3 12731.6 517.313   4
   1   1   3 12734.3 517.781   4
   1  -1   4 24687.7 855.451   4
   1   1   4 23373.0 834.190   4
   1  -1   5 8632.27 595.545   4
   1   1   5 8956.20 607.122   4
   1  -1   6 3400.34 416.017   4
   1   3  -6 15059.8 1023.81   3
   1  -3  -6 14930.1 1034.03   3
   1  -3  -5 1984.13 334.292   3
   1   3  -5 2756.31 391.413   3
   1  -3  -4 35234.0 1234.93   1
   1   3  -4 36038.4 1228.36   1
   1   3  -4 34176.2 1164.19   3
   1  -3  -4 35055.0 1192.15   3
   1   3  -3 29500.9 894.539   1
   1   3  -3 28899.6 890.017   3
   1  -3  -3 29981.3 925.929   3
   1  -3  -3 29674.3 925.736   1
   1   3  -2 5835.39 320.258   1
   1   3  -2 6376.99 339.519   3
   1  -3  -2 5712.75 332.242   3
   1  -3  -2 5695.40 330.744   1
   1   3  -1 37789.9 642.558   1
   1  -3  -1 39145.6 667.023   1
   1  -3  -1 39512.5 663.769   3
   1   3  -1 37663.9 513.388   5
   1  -3  -1 37074.5 528.895   5
   1  -3   0 45408.7 573.381   1
   1   3   0 48145.9 613.664   1
   1  -3   1 19995.6 400.876   4
   1   3   1 19582.7 442.938   1
   1  -3   1 19852.7 402.944   1
   1   3   2 75212.6 1066.88   4
   1  -3   2 77385.7 1051.01   4
   1  -3   3 44462.3 983.346   4
   1   3   3 45810.8 1006.08   4
   1  -3   4 4661.38 377.042   4
   1   3   4 4599.48 375.571   4
   1  -3   5 27915.6 1075.02   4
   1   3   5 28550.2 1094.47   4
   1  -3   6 6079.98 566.713   4
   1   5  -6 9464.91 810.167   3
   1  -5  -6 11498.1 921.830   3
   1   5  -5 8417.75 686.415   3
   1  -5  -5 8800.99 710.502   3
   1   5  -4 20148.5 928.968   1
   1  -5  -4 19526.9 924.772   1
   1   5  -4 20221.1 903.618   3
   1  -5  -4 20722.5 939.430   3
   1   5  -3 36445.8 1033.62   3
   1  -5  -3 36783.8 1050.15   1
   1   5  -3 35267.4 1024.57   1
   1  -5  -3 36184.8 1059.11   3
   1   5  -2 48814.2 1008.47   1
   1  -5  -2 49944.2 1050.81   3
   1  -5  -1 54215.5 675.270   5
   1   5  -1 56271.3 1040.54   2
   1   5  -1 53969.5 650.626   5
   1   5  -1 52658.6 882.130   1
   1  -5  -1 54744.3 879.482   1
   1  -5  -1 53422.4 883.668   3
   1   5   0 95870.2 1118.94   1
   1  -5   0 92096.8 1068.58   1
   1   5   0 91631.8 1200.67   2
   1  -5   0 92635.1 1059.67   3
   1  -5   1 42395.4 701.532   1
   1  -5   1 46425.8 686.593   4
   1  -5   1 45784.7 742.446   3
   1   5   1 41597.1 797.211   4
   1   5   1 45669.8 804.314   1
   1   5   1 47678.7 786.741   2
   1  -5   2 26324.2 639.752   4
   1   5   2 27855.8 682.974   4
   1   5   2 27013.2 747.243   1
   1   5   2 27918.4 580.929   2
   1  -5   3 68005.0 1241.32   4
   1   5   3 68385.0 1264.55   4
   1  -5   4 7613.85 491.936   4
   1   5   4 7955.08 505.953   4
   1  -5   5 6976.32 549.148   4
   1   5   5 7229.41 558.036   4
   1  -5   6 15860.3 918.043   4
   1   7  -6 2722.24 438.190   3
   1  -7  -6 3681.80 531.278   3
   1   7  -5 10349.0 767.741   3
   1  -7  -5 10235.8 786.501   3
   1   7  -4 20896.3 942.425   3
   1  -7  -4 20646.6 973.496   3
   1   7  -4 20478.5 967.135   1
   1  -7  -4 20369.7 960.975   1
   1  -7  -3 21657.2 847.566   1
   1   7  -3 21135.9 811.917   3
   1  -7  -3 20920.3 850.247   3
   1   7  -3 20897.7 828.296   1
   1  -7  -2 46948.6 1097.99   3
   1   7  -2 45435.3 1061.41   1
   1   7  -1 43514.6 911.416   1
   1  -7  -1 44521.4 922.173   3
   1   7  -1 43237.6 1021.46   2
   1   7   0 76003.0 1177.43   1
   1  -7   0 73346.3 1133.42   1
   1   7   0 73066.7 1244.06   2
   1  -7   0 75766.7 1134.80   3
   1  -7   1 49847.7 792.080   4
   1  -7   1 48347.6 894.537   3
   1   7   1 50213.1 976.216   1
   1   7   1 51280.2 971.349   2
   1  -7   1 47063.4 873.102   1
   1  -7   2 12128.9 461.417   4
   1   7   2 13234.1 580.857   1
   1   7   2 13533.8 486.657   2
   1   7   3 16427.9 652.187   4
   1  -7   3 17288.7 651.870   4
   1  -7   4 14602.4 707.901   4
   1   7   4 16040.1 741.404   4
   1  -7   5 9449.84 649.231   4
   1   7   5 9580.60 670.855   4
   1  -7   6 2563.00 379.562   4
   1   9  -5 16449.2 983.331   3
   1  -9  -5 16907.5 1043.99   3
   1   9  -4 18051.4 904.732   3
   1  -9  -4 18343.1 965.947   3
   1   9  -3 17380.6 807.352   1
   1  -9  -3 18463.5 850.902   3
   1   9  -2 45729.2 1200.13   2
   1   9  -2 45755.7 1155.91   1
   1  -9  -2 45477.8 1178.35   3
   1   9  -1 56688.9 1177.67   1
   1  -9  -1 56499.7 1173.71   3
   1   9  -1 54356.6 1257.11   2
   1   9   0 23317.5 729.671   1
   1  -9   0 23132.7 226.897   5
   1   9   0 24242.3 810.153   2
   1  -9   0 22884.7 228.089   5
   1  -9   0 23593.4 723.274   3
   1  -9   1 57344.5 940.917   4
   1  -9   1 53710.9 1072.00   3
   1   9   1 58089.8 1182.69   1
   1   9   1 58712.3 1183.97   2
   1  -9   2 49609.5 1001.70   4
   1   9   2 50173.0 1228.29   4
   1   9   2 46916.9 1160.36   1
   1   9   2 47035.8 1045.57   2
   1   9   3 13463.7 712.299   1
   1   9   3 14233.3 697.100   4
   1  -9   3 14829.5 635.081   4
   1  -9   4 19240.4 836.408   4
   1   9   4 17635.7 861.193   4
   1  -9   5 14766.1 840.426   4
   1  -9   6 1388.11 282.235   4
   1  11  -5 13071.7 902.690   3
   1 -11  -5 14854.2 1012.52   3
   1  11  -4 5526.54 519.206   3
   1 -11  -4 6123.79 581.964   3
   1  11  -3 20589.7 949.505   1
   1 -11  -3 21777.9 985.893   3
   1  11  -2 55362.0 1460.29   2
   1  11  -2 56732.6 1381.48   1
   1 -11  -2 56603.0 1410.68   3
   1  11  -1 13708.6 643.268   1
   1 -11  -1 12996.3 626.198   3
   1  11  -1 12991.6 674.279   2
   1 -11   0 33313.2 297.456   5
   1 -11   0 32986.8 953.187   3
   1  11   0 33197.1 1039.89   2
   1 -11   0 33614.5 295.084   5
   1  11   0 34751.4 1001.59   1
   1 -11   1 55240.8 1199.73   3
   1  11   1 56248.4 1281.61   1
   1  11   1 56273.4 1293.36   2
   1 -11   2 5275.00 351.049   4
   1  11   2 4444.05 391.877   1
   1  11   2 4820.88 375.206   2
   1  11   3 22006.4 986.609   1
   1  11   3 20851.4 921.221   4
   1 -11   3 20078.1 780.927   4
   1 -11   4 19335.1 875.641   4
   1  11   4 18535.7 948.696   4
   1 -11   5 3269.74 413.252   4
   1 -11   6 7241.09 651.043   4
   1  13  -5 755.509 234.024   3
   1 -13  -5 817.660 273.746   3
   1  13  -4 17526.9 959.450   3
   1 -13  -4 17680.3 1047.57   3
   1  13  -3 25819.9 1097.48   1
   1 -13  -3 27011.5 1167.52   3
   1  13  -2 8125.76 599.012   2
   1  13  -2 8953.35 603.653   1
   1 -13  -2 9055.24 610.404   3
   1  13  -1 44874.4 1278.37   1
   1  13  -1 42952.9 1327.01   2
   1 -13  -1 43420.4 1244.75   3
   1 -13   0 32829.9 1040.71   3
   1  13   0 33484.2 1130.59   2
   1  13   0 30768.3 1040.52   1
   1 -13   1 5378.82 416.485   3
   1  13   1 6026.94 458.035   1
   1  13   1 5745.85 447.867   2
   1 -13   2 43666.2 1092.00   4
   1  13   2 45416.5 1346.18   1
   1  13   2 42878.0 1224.94   2
   1 -13   3 20210.4 827.925   4
   1  13   3 21395.7 1038.89   1
   1 -13   4 1707.32 271.204   4
   1 -13   5 16566.7 952.081   4
   1  15  -5 2223.93 392.786   3
   1 -15  -5 2203.85 417.031   3
   1  15  -4 9225.40 730.103   3
   1 -15  -4 11076.1 871.335   3
   1 -15  -3 14164.3 902.498   3
   1  15  -2 11833.4 774.629   2
   1  15  -2 11425.2 735.942   1
   1 -15  -2 11390.4 739.387   3
   1  15  -1 19745.4 921.995   1
   1  15  -1 19805.1 958.778   2
   1 -15  -1 19393.2 913.132   3
   1 -15   0 33724.3 1143.14   3
   1  15   0 32631.6 1206.09   2
   1  15   0 35048.0 1196.56   1
   1 -15   1 24436.9 969.288   3
   1  15   1 23771.8 983.024   1
   1  15   1 22066.8 961.330   2
   1 -15   2 21606.9 825.266   4
   1  15   2 20104.4 961.172   1
   1  15   2 21917.8 947.672   2
   1 -15   3 18113.1 826.516   4
   1 -15   4 3482.05 409.313   4
   1 -15   5 5295.99 557.684   4
   1 -17  -4 4007.82 547.401   3
   1 -17  -3 2388.94 390.403   3
   1  17  -2 51594.8 1725.70   2
   1  17  -2 48579.8 1632.16   1
   1 -17  -2 51411.7 1664.65   3
   1  17  -1 3570.88 410.820   1
   1  17  -1 3385.02 416.798   2
   1 -17  -1 3859.06 433.130   3
   1 -17   0 3465.15 399.361   3
   1  17   0 3228.15 394.361   1
   1  17   0 3601.36 439.225   2
   1 -17   1 43685.1 1399.02   3
   1  17   1 44042.6 1433.31   1
   1  17   1 43850.0 1459.70   2
   1 -17   2 1721.72 247.072   4
   1  17   2 1516.98 274.816   2
   1 -17   3 4213.54 423.477   4
   1 -17   4 17663.5 956.028   4
   1 -17   5 3991.68 498.548   4
   1 -19  -4 12262.4 1013.52   3
   1 -19  -3 8613.86 787.085   3
   1  19  -2 8388.80 733.198   2
   1 -19  -2 9019.97 747.384   3
   1 -19  -1 17367.7 965.631   3
   1  19  -1 17687.1 1019.57   2
   1 -19   0 16767.4 940.625   3
   1  19   0 16234.6 945.535   1
   1  19   0 16310.5 964.273   2
   1 -19   1 12177.2 798.419   3
   1  19   1 10948.4 776.882   2
   1 -19   2 11192.9 669.685   4
   1  19   2 11190.4 792.234   2
   1 -19   3 6849.91 570.242   4
   1 -19   4 6895.06 618.535   4
   1 -19   5 6871.84 658.381   4
   1 -21  -4 8155.42 842.441   3
   1 -21  -3 5746.62 672.604   3
   1  21  -2 6081.31 650.202   2
   1 -21  -2 6364.15 655.061   3
   1 -21  -1 11213.9 821.348   3
   1  21  -1 10989.3 862.613   2
   1 -21   0 23197.9 1172.34   3
   1  21   0 23582.7 1233.11   2
   1 -21   1 7316.79 537.613   4
   1 -21   1 9038.81 732.956   3
   1  21   1 8557.92 733.813   2
   1 -21   2 7674.56 587.594   4
   1  21   2 7263.71 671.196   2
   1 -21   3 15629.7 892.820   4
   1 -21   4 1624.18 308.954   4
   1 -23  -3 12373.0 1025.58   3
   1 -23  -2 4214.49 559.318   3
   1  23  -2 3265.23 504.541   2
   1  23  -1 6339.62 680.210   2
   1 -23  -1 6763.94 674.539   3
   1 -23   0 14023.3 963.772   3
   1  23   0 13870.0 990.159   2
   1 -23   1 1934.29 306.128   4
   1  23   1 2023.77 367.866   2
   1 -23   1 1964.19 364.448   3
   1 -23   2 5375.44 523.105   4
   1  23   2 5377.12 594.889   2
   1 -23   3 8772.05 697.254   4
   1 -23   4 1308.21 293.309   4
   1 -25  -2 4084.96 560.789   3
   1  25  -2 4247.12 592.998   2
   1  25  -1 6495.17 715.280   2
   1 -25  -1 6138.82 675.551   3
   1 -25   0 4870.59 599.563   3
   1  25   0 4823.78 618.253   2
   1 -25   1 4964.69 598.170   3
   1 -25   1 5406.39 522.862   4
   1  25   1 5089.50 615.385   2
   1 -25   2 9791.30 731.841   4
   1  25   2 9653.94 838.451   2
   1 -25   3 3123.12 426.198   4
   1  27  -2 18180.4 1246.34   2
   1  27  -1 862.203 243.463   2
   1 -27  -1 1014.95 296.101   3
   1  27   0 895.580 286.313   2
   1 -27   0 1314.97 332.629   3
   1 -27   1 16246.7 952.043   4
   1 -27   1 14580.8 1066.85   3
   1  27   1 14851.2 1087.90   2
   1  27   2 2446.17 452.239   2
   1 -27   2 1956.14 335.800   4
   1 -29   1 2095.84 341.744   4
   2   0  -6 1971.07 376.108   3
   2   0  -5 3397.32 429.582   3
   2   0  -4 95017.9 1988.18   3
   2   0  -4 90006.7 1962.95   1
   2   0  -3 7062.55 450.867   3
   2   0  -3 6421.96 436.237   1
   2   0  -2 22886.9 651.015   1
   2   0  -2 23074.3 642.808   3
   2   0  -1 172209. 1280.45   1
   2   0  -1 169536. 1244.00   3
   2   0  -1 166739. 1185.07   5
   2   0   1 43100.1 647.768   4
   2   0   2 54632.5 934.482   4
   2   0   3 26540.3 782.421   4
   2   0   4 15971.6 719.848   4
   2   0   5 22052.5 987.428   4
   2   0   6 5136.51 533.757   4
   2   2  -6 10741.4 880.670   3
   2  -2  -6 10786.3 880.562   3
   2   2  -5 10559.3 765.400   3
   2  -2  -5 11581.0 802.307   3
   2   2  -4 17066.5 834.981   1
   2   2  -4 17427.6 842.091   3
   2  -2  -4 18790.8 880.028   3
   2  -2  -4 18845.9 907.114   1
   2  -2  -3 25171.9 863.564   1
   2   2  -3 23399.3 812.464   1
   2   2  -3 23947.0 819.969   3
   2  -2  -3 24592.2 849.767   3
   2  -2  -2 32343.1 784.913   1
   2   2  -2 31187.2 760.215   3
   2  -2  -2 31710.7 784.407   3
   2   2  -2 31860.1 770.367   1
   2  -2  -1 86086.0 823.202   5
   2   2  -1 88266.4 949.194   1
   2  -2  -1 86209.2 967.562   1
   2  -2  -1 82612.6 919.518   3
   2  -2  -1 85969.5 939.816   1
   2   2   0 57978.9 579.964   1
   2  -2   0 57729.7 508.841   1
   2  -2   1 53094.2 720.511   4
   2   2   1 53023.3 778.670   4
   2   2   1 52973.6 679.264   1
   2  -2   1 55803.7 575.695   1
   2  -2   2 27769.0 667.938   4
   2   2   2 28446.0 690.918   4
   2  -2   2 25829.4 582.661   1
   2  -2   3 42974.7 998.227   4
   2   2   3 43451.4 1020.67   4
   2  -2   4 7616.70 498.566   4
   2   2   4 7419.75 497.607   4
   2  -2   5 7866.95 589.931   4
   2   2   5 8014.56 598.125   4
   2  -2   6 11831.2 810.325   4
   2   2   6 11464.0 786.253   4
   2   4  -6 9669.45 832.853   3
   2  -4  -6 10629.0 886.740   3
   2   4  -5 14575.4 912.227   3
   2  -4  -5 14678.1 920.889   3
   2   4  -4 4588.34 439.630   1
   2  -4  -4 4890.76 462.549   1
   2   4  -4 4505.48 430.957   3
   2  -4  -4 5274.94 472.097   3
   2  -4  -3 27282.5 906.707   1
   2   4  -3 27769.5 907.227   1
   2   4  -3 29164.0 927.367   3
   2  -4  -3 28869.7 938.176   3
   2   4  -2 55838.2 1062.74   1
   2  -4  -2 56186.5 1070.05   3
   2  -4  -2 59404.3 1101.24   1
   2  -4  -1 2259.35 173.672   1
   2  -4  -1 1928.48 154.969   3
   2   4  -1 2181.97 172.621   1
   2  -4  -1 2137.46 129.741   5
   2   4   0 72077.7 1032.64   2
   2   4   0 73860.8 888.570   1
   2  -4   0 71905.8 827.856   1
   2  -4   0 69514.9 784.042   3
   2  -4   1 110158. 1071.09   4
   2   4   1 109301. 1217.01   4
   2  -4   1 109151. 956.855   1
   2   4   1 105152. 1113.52   1
   2   4   1 105901. 1138.32   2
   2  -4   2 5311.78 296.009   4
   2   4   2 5227.09 312.839   4
   2  -4   3 45111.8 1049.92   4
   2   4   3 45462.3 1072.57   4
   2  -4   4 29886.1 1001.72   4
   2   4   4 30363.0 1021.16   4
   2  -4   5 4654.76 452.008   4
   2   4   5 4393.61 443.233   4
   2  -4   6 8312.50 675.699   4
   2   6  -6 4295.09 555.193   3
   2  -6  -6 4662.99 594.234   3
   2   6  -5 15370.1 941.022   3
   2  -6  -5 17300.5 1017.36   3
   2   6  -4 23403.4 996.313   3
   2  -6  -4 22924.6 1019.05   1
   2  -6  -4 23174.4 1021.09   3
   2   6  -4 23108.5 1021.06   1
   2   6  -3 16266.3 724.891   1
   2   6  -3 13938.0 660.305   3
   2  -6  -3 15450.3 715.107   3
   2  -6  -3 14890.0 685.881   1
   2  -6  -2 85162.0 1431.79   3
   2   6  -2 90380.7 1459.49   1
   2   6  -1 62016.8 1043.56   1
   2   6  -1 63156.8 1221.11   2
   2  -6  -1 59249.3 995.446   3
   2  -6  -1 63099.6 720.517   5
   2  -6   0 2198.80 181.647   1
   2   6   0 3752.49 243.709   1
   2  -6   0 3224.36 212.585   3
   2   6   0 2320.87 216.292   2
   2  -6   1 90362.9 1082.29   3
   2  -6   1 96764.7 1061.24   4
   2   6   1 91084.6 1384.14   4
   2   6   1 91603.4 1233.19   1
   2   6   1 95823.7 1305.12   2
   2  -6   1 87246.1 1061.42   1
   2  -6   2 28925.0 716.933   4
   2   6   2 30020.6 798.455   4
   2   6   2 30438.7 841.380   1
   2   6   2 30577.2 668.822   2
   2  -6   3 7228.40 430.671   4
   2   6   3 7828.38 464.887   4
   2   6   4 26397.3 975.549   4
   2  -6   4 27105.8 974.382   4
   2  -6   5 7157.70 573.393   4
   2   6   5 7584.52 602.019   4
   2  -6   6 4108.13 488.445   4
   2   8  -5 9809.78 758.936   3
   2  -8  -5 9010.66 758.385   3
   2   8  -4 20323.3 958.569   3
   2  -8  -4 20965.8 1009.49   3
   2  -8  -3 46380.9 1279.13   1
   2  -8  -3 50370.5 1363.21   3
   2   8  -3 48773.2 1322.25   1
   2   8  -2 23663.8 814.285   1
   2  -8  -2 23734.7 810.773   3
   2   8  -1 52252.3 1228.04   2
   2   8  -1 52984.5 1070.19   1
   2  -8  -1 49280.5 1039.13   3
   2  -8  -1 50138.9 660.479   5
   2   8   0 73805.9 1240.33   1
   2   8   0 75892.3 1381.37   2
   2  -8   0 73874.6 1187.14   3
   2  -8   1 18941.0 524.430   4
   2  -8   1 20074.1 598.918   3
   2   8   1 19651.7 647.827   1
   2   8   1 20009.6 684.186   2
   2  -8   2 29109.5 762.292   4
   2   8   2 28348.2 915.768   4
   2   8   2 29864.3 776.242   2
   2  -8   3 31418.7 931.253   4
   2   8   3 32633.9 1020.15   4
   2  -8   4 3305.52 354.020   4
   2   8   4 4010.37 408.586   4
   2  -8   5 10474.1 714.060   4
   2   8   5 9429.13 737.335   4
   2  -8   6 11609.4 826.299   4
   2  10  -5 2647.21 411.720   3
   2 -10  -5 3231.02 469.165   3
   2  10  -4 28049.6 1165.70   3
   2 -10  -4 27287.5 1215.77   3
   2  10  -3 4324.89 417.764   1
   2 -10  -3 4554.51 437.254   3
   2  10  -2 12663.9 641.381   1
   2 -10  -2 12269.6 631.301   3
   2  10  -1 64225.8 1470.83   2
   2  10  -1 66592.5 1357.11   1
   2 -10  -1 63740.9 1332.79   3
   2 -10   0 11647.8 525.607   3
   2  10   0 10808.2 575.215   2
   2  10   0 11404.2 544.565   1
   2 -10   1 29019.0 708.119   4
   2 -10   1 29516.0 820.712   3
   2  10   1 28148.2 867.848   1
   2  10   1 28796.6 908.220   2
   2  10   2 52671.6 1375.02   4
   2 -10   2 50895.9 1065.97   4
   2  10   2 53430.1 1287.49   1
   2  10   2 54059.2 1181.32   2
   2 -10   3 19544.0 766.102   4
   2  10   3 19703.6 881.095   1
   2  10   3 17630.2 843.597   4
   2 -10   4 7665.55 555.185   4
   2  10   4 7426.51 603.146   4
   2 -10   5 12701.9 809.421   4
   2 -10   6 6246.45 610.242   4
   2  12  -5 14795.8 988.252   3
   2 -12  -5 14621.6 1032.59   3
   2  12  -4 14781.0 879.154   3
   2 -12  -4 15944.4 966.207   3
   2  12  -3 13492.1 789.358   1
   2 -12  -3 13600.1 801.213   3
   2  12  -2 35140.3 1224.59   2
   2  12  -2 36519.8 1167.25   1
   2 -12  -2 36092.7 1174.76   3
   2  12  -1 18015.3 846.074   2
   2  12  -1 18626.3 795.072   1
   2 -12  -1 19712.5 806.524   3
   2 -12   0 19294.3 760.115   3
   2  12   0 20244.8 854.997   2
   2  12   0 20849.6 812.609   1
   2 -12   1 38487.6 887.320   4
   2 -12   1 37291.5 1027.04   3
   2  12   1 38334.7 1099.88   1
   2  12   1 38594.5 1155.77   2
   2 -12   2 5122.29 360.518   4
   2  12   2 4819.57 419.841   1
   2  12   2 4788.37 396.576   2
   2 -12   3 13630.1 675.108   4
   2  12   3 13835.8 808.021   1
   2 -12   4 21991.4 972.930   4
   2  12   4 22525.5 1111.15   4
   2 -12   5 3627.70 454.781   4
   2  14  -5 9370.17 804.777   3
   2 -14  -5 10610.6 913.934   3
   2  14  -4 1554.22 297.646   3
   2 -14  -4 2624.12 424.664   3
   2 -14  -3 27670.7 1224.82   3
   2  14  -2 27105.3 1155.12   2
   2  14  -2 25882.4 1074.67   1
   2 -14  -2 27448.4 1106.67   3
   2  14  -1 19377.1 938.861   2
   2  14  -1 20283.4 902.136   1
   2 -14  -1 20797.8 907.995   3
   2 -14   0 56442.6 1413.04   3
   2  14   0 59955.3 1582.22   2
   2  14   0 59073.3 1503.23   1
   2 -14   1 31285.7 869.233   4
   2 -14   1 32579.9 1055.94   3
   2  14   1 29087.1 1045.67   1
   2  14   1 31453.2 1117.52   2
   2 -14   2 9297.89 521.305   4
   2  14   2 9107.25 622.939   1
   2  14   2 9207.16 595.322   2
   2 -14   3 28300.0 1023.53   4
   2 -14   4 7388.68 585.498   4
   2 -14   5 2741.22 397.404   4
   2  16  -5 2974.13 456.508   3
   2 -16  -5 4771.44 630.685   3
   2 -16  -4 20970.2 1228.26   3
   2 -16  -3 1144.77 247.378   3
   2  16  -2 12374.1 802.796   1
   2  16  -2 12838.9 848.001   2
   2 -16  -2 12804.3 805.660   3
   2  16  -1 38625.9 1407.20   2
   2  16  -1 40814.6 1391.00   1
   2 -16  -1 40263.8 1360.91   3
   2 -16   0 4790.09 445.900   3
   2  16   0 4903.68 470.343   1
   2  16   0 4423.66 459.144   2
   2 -16   1 20168.2 750.831   4
   2 -16   1 21566.1 931.186   3
   2  16   1 19317.2 912.284   1
   2  16   1 20495.5 966.100   2
   2 -16   2 23971.1 891.320   4
   2  16   2 24870.2 1095.63   1
   2  16   2 24705.9 1052.09   2
   2 -16   3 7052.47 535.686   4
   2 -16   4 9239.80 684.437   4
   2 -16   5 7895.91 693.275   4
   2 -18  -4 17821.6 1193.27   3
   2 -18  -3 13935.2 978.978   3
   2  18  -2 4602.04 538.003   2
   2 -18  -2 4767.02 530.369   3
   2  18  -1 21063.7 1050.27   1
   2  18  -1 22696.3 1149.15   2
   2 -18  -1 22002.1 1058.17   3
   2 -18   0 8689.81 650.388   3
   2  18   0 8160.57 649.958   1
   2  18   0 8704.03 687.332   2
   2 -18   1 3184.43 321.091   4
   2 -18   1 3489.65 409.737   3
   2  18   1 3193.43 399.272   1
   2  18   1 4003.55 452.305   2
   2 -18   2 17938.0 824.827   4
   2  18   2 17610.8 943.107   2
   2 -18   3 9395.00 648.708   4
   2 -18   4 2237.78 349.055   4
   2 -18   5 12855.9 910.479   4
   2 -20  -4 2930.18 515.786   3
   2 -20  -3 9109.78 825.214   3
   2  20  -2 11936.8 905.637   2
   2 -20  -2 12227.0 900.004   3
   2 -20  -1 10187.5 763.121   3
   2  20  -1 9743.95 789.664   2
   2 -20   0 14926.7 910.392   3
   2  20   0 15428.9 962.716   2
   2 -20   1 11197.2 647.566   4
   2 -20   1 12392.1 830.975   3
   2  20   1 11070.8 795.107   2
   2 -20   2 9176.24 622.361   4
   2  20   2 8863.26 711.780   2
   2 -20   3 10284.1 722.458   4
   2 -20   4 1219.46 265.127   4
   2 -22  -3 5707.14 686.422   3
   2  22  -2 25076.7 1373.72   2
   2 -22  -2 22272.3 1262.15   3
   2  22  -1 3973.03 532.063   2
   2 -22  -1 4350.87 524.873   3
   2 -22   0 5205.02 575.112   3
   2  22   0 6106.50 641.257   2
   2 -22   1 29728.6 1120.12   4
   2 -22   1 30768.1 1378.71   3
   2  22   1 30566.0 1393.40   2
   2  22   2 1992.19 353.865   2
   2 -22   2 1526.67 269.114   4
   2 -22   3 3492.92 434.844   4
   2 -22   4 12471.4 874.656   4
   2 -24  -3 5062.83 667.188   3
   2 -24  -2 6092.03 686.958   3
   2  24  -2 5400.20 670.613   2
   2 -24  -1 3932.08 530.620   3
   2  24  -1 3203.98 488.343   2
   2  24   0 5445.27 629.261   2
   2 -24   0 5681.88 493.285   4
   2 -24   0 6019.11 643.023   3
   2 -24   1 4300.42 452.599   4
   2 -24   1 4390.60 547.338   3
   2  24   1 4412.38 562.782   2
   2 -24   2 2818.79 385.439   4
   2  24   2 3325.85 478.014   2
   2 -24   3 8238.02 689.928   4
   2 -26  -2 210.996 127.209   3
   2  26  -2 681.797 246.237   2
   2  26  -1 11549.9 975.282   2
   2 -26  -1 11489.0 948.419   3
   2  26   0 7262.98 759.168   2
   2 -26   0 8886.00 833.121   3
   2  26   1 2489.12 433.119   2
   2 -26   1 1846.28 358.762   3
   2 -26   1 2290.15 345.340   4
   2 -26   2 6263.66 592.668   4
   2 -26   3 5380.36 569.009   4
   2  28  -1 11626.7 996.536   2
   2  28   0 836.164 250.602   2
   2 -28   0 1975.39 403.721   3
   2  28   1 1069.49 277.864   2
   2 -28   2 4707.59 528.552   4
   3   1  -6 20950.3 1232.56   3
   3  -1  -6 21205.3 1249.50   3
   3   1  -5 5108.60 535.809   3
   3  -1  -5 5541.94 557.895   3
   3   1  -4 11288.2 696.898   1
   3   1  -4 11538.5 707.544   3
   3  -1  -4 11527.4 702.174   3
   3  -1  -4 11353.4 701.960   1
   3  -1  -3 73767.2 1504.93   1
   3   1  -3 72770.1 1461.00   3
   3  -1  -3 71869.9 1462.64   3
   3   1  -3 69485.5 1443.75   1
   3  -1  -2 25663.8 699.868   1
   3   1  -2 24774.3 682.008   3
   3  -1  -2 23975.4 670.038   3
   3   1  -2 27150.4 721.246   1
   3  -1  -1 32108.4 603.993   1
   3   1  -1 32156.7 567.816   3
   3  -1  -1 31323.2 557.460   3
   3   1  -1 32756.7 588.270   1
   3  -1  -1 32340.4 574.581   1
   3  -1   0 48316.5 363.044   1
   3  -1   0 50675.4 344.408   1
   3  -1   1 68070.1 898.764   4
   3   1   1 69817.1 955.607   4
   3  -1   2 23505.6 658.221   4
   3   1   2 22706.3 655.063   4
   3  -1   3 32645.5 916.913   4
   3   1   3 31335.6 907.967   4
   3  -1   4 16819.5 769.209   4
   3   1   4 19254.2 833.766   4
   3  -1   5 4686.66 469.688   4
   3   1   5 4640.75 470.011   4
   3  -1   6 10363.3 777.822   4
   3   1   6 9437.47 733.421   4
   3   3  -6 3231.34 480.188   3
   3  -3  -6 3189.10 486.596   3
   3   3  -5 17688.9 1021.01   3
   3  -3  -5 17289.0 1009.04   3
   3  -3  -4 15066.6 817.053   1
   3   3  -4 13711.6 769.880   1
   3   3  -4 14537.9 790.676   3
   3  -3  -4 14198.6 779.188   3
   3   3  -3 28271.1 924.734   3
   3  -3  -3 28719.0 939.868   1
   3  -3  -3 26746.2 895.175   3
   3  -3  -2 70659.5 1191.13   1
   3   3  -2 65916.4 1136.19   1
   3   3  -2 71462.4 1194.28   3
   3  -3  -2 69402.5 1179.69   3
   3   3  -1 56751.0 850.683   1
   3  -3  -1 55550.3 842.028   1
   3  -3  -1 54607.7 792.836   3
   3   3   0 25239.7 470.182   1
   3   3   0 23784.2 593.724   4
   3  -3   0 24091.0 400.954   1
   3  -3   1 107577. 1137.90   4
   3  -3   1 111091. 784.617   1
   3   3   1 108261. 1277.85   4
   3  -3   2 18290.4 577.043   4
   3   3   2 18004.6 608.865   4
   3  -3   3 13525.4 599.065   4
   3   3   3 13766.7 615.995   4
   3  -3   4 28516.5 1006.77   4
   3   3   4 29396.1 1046.13   4
   3  -3   5 4495.08 458.944   4
   3   3   5 4578.79 471.993   4
   3  -3   6 9514.30 745.037   4
   3   3   6 9389.94 735.802   4
   3   5  -6 5446.59 625.096   3
   3  -5  -6 5351.34 641.363   3
   3   5  -5 4644.80 521.230   3
   3  -5  -5 5651.95 579.310   3
   3   5  -4 42214.6 1363.83   1
   3  -5  -4 43854.4 1407.06   1
   3   5  -4 44272.0 1382.75   3
   3  -5  -4 44085.4 1404.72   3
   3  -5  -3 9939.34 560.051   1
   3   5  -3 9968.33 564.771   3
   3   5  -3 9829.02 555.455   1
   3  -5  -3 9833.38 562.478   3
   3   5  -2 15674.2 595.791   1
   3  -5  -2 15907.2 589.849   1
   3  -5  -2 15874.0 597.239   3
   3  -5  -1 128673. 1397.14   1
   3   5  -1 125913. 1432.74   1
   3  -5  -1 126850. 1368.31   3
   3  -5   0 12361.4 381.567   1
   3   5   0 11472.7 398.142   1
   3  -5   0 10952.7 336.817   3
   3   5   1 24597.4 610.470   2
   3  -5   1 25080.8 562.608   4
   3  -5   1 25026.8 475.302   1
   3   5   1 28016.8 736.540   4
   3   5   1 25533.3 594.776   1
   3  -5   2 98127.3 1375.95   4
   3   5   2 99166.0 1490.10   4
   3   5   2 96465.1 1352.87   1
   3   5   3 11444.0 578.184   4
   3  -5   3 11245.7 550.057   4
   3  -5   4 9928.12 604.403   4
   3   5   4 10895.4 645.025   4
   3  -5   5 22750.1 1045.38   4
   3   5   5 21203.4 1023.13   4
   3  -5   6 1397.50 278.631   4
   3   5   6 2293.49 388.740   4
   3   7  -6 9196.71 837.201   3
   3  -7  -6 9619.86 873.183   3
   3   7  -5 11103.3 813.603   3
   3  -7  -5 11721.8 861.666   3
   3   7  -4 21252.3 984.695   3
   3  -7  -4 20389.3 987.037   3
   3   7  -3 38595.0 1148.36   3
   3  -7  -3 36558.9 1137.67   3
   3   7  -3 36160.7 1124.23   1
   3  -7  -3 37298.1 1127.39   1
   3  -7  -2 28770.6 867.036   3
   3   7  -2 27886.2 864.145   1
   3   7  -1 41160.3 919.076   1
   3  -7  -1 39847.4 880.554   3
   3  -7   0 46484.8 842.485   3
   3   7   0 47699.7 950.828   1
   3   7   0 49538.9 1134.41   2
   3  -7   0 46451.6 640.579   4
   3  -7   0 45328.1 869.178   1
   3   7   1 36877.0 906.367   2
   3  -7   1 34597.9 698.378   4
   3  -7   1 34225.7 687.710   3
   3   7   1 34607.3 963.954   4
   3   7   1 33455.5 789.717   1
   3  -7   1 34308.9 693.334   1
   3  -7   2 6285.55 359.109   4
   3   7   2 6468.54 420.883   4
   3   7   2 6331.90 397.590   1
   3  -7   3 17214.4 708.240   4
   3   7   3 17791.8 759.857   4
   3  -7   4 16941.2 809.747   4
   3   7   4 16388.3 829.974   4
   3  -7   5 2791.16 370.998   4
   3   7   5 3320.06 431.573   4
   3  -7   6 5150.42 554.618   4
   3   9  -5 13745.2 925.154   3
   3  -9  -5 15781.9 1027.44   3
   3   9  -4 3594.03 422.197   3
   3  -9  -4 3553.59 427.541   3
   3  -9  -3 31092.5 1086.47   1
   3   9  -3 32700.0 1132.23   1
   3  -9  -3 33064.6 1134.72   3
   3   9  -2 44947.4 1186.63   1
   3  -9  -2 46135.9 1183.15   3
   3   9  -1 18771.7 800.644   2
   3   9  -1 20031.5 715.139   1
   3  -9  -1 19451.0 696.100   3
   3  -9  -1 19625.2 420.067   5
   3  -9   0 53299.0 1056.86   3
   3   9   0 53842.5 1140.67   1
   3   9   0 53529.9 1264.86   2
   3  -9   0 55921.7 806.969   4
   3  -9   1 46182.4 868.804   4
   3  -9   1 48052.5 955.685   3
   3   9   1 45003.0 1038.36   1
   3   9   1 48420.4 1133.10   2
   3  -9   2 6649.60 386.463   4
   3   9   2 5983.63 460.728   4
   3   9   2 6693.80 440.422   1
   3  -9   3 28763.8 945.289   4
   3   9   3 26923.3 1044.67   4
   3  -9   4 19378.5 891.280   4
   3   9   4 18612.6 975.421   4
   3  -9   5 450.834 130.835   4
   3   9   5 620.023 203.469   4
   3  11  -5 639.991 207.480   3
   3 -11  -5 762.912 251.113   3
   3  11  -4 15604.2 912.839   3
   3 -11  -4 15752.4 941.826   3
   3  11  -3 29757.3 1152.22   1
   3 -11  -3 29989.5 1157.56   3
   3 -11  -2 623.238 151.779   3
   3  11  -2 444.037 126.761   1
   3  11  -1 28981.7 1059.83   2
   3  11  -1 30675.8 971.680   1
   3 -11  -1 30920.6 979.928   3
   3  11   0 36527.8 1127.72   2
   3 -11   0 37661.7 987.833   3
   3 -11   0 37194.4 735.168   4
   3  11   0 37582.1 1043.07   1
   3 -11   1 20516.4 619.705   4
   3 -11   1 21681.4 727.002   3
   3  11   1 21930.9 799.943   1
   3  11   1 20782.1 802.329   2
   3 -11   2 41949.3 1026.81   4
   3  11   2 40333.3 1172.49   1
   3 -11   3 20803.8 834.326   4
   3  11   3 20579.1 927.206   1
   3  11   3 19940.0 973.671   4
   3 -11   4 11575.6 712.523   4
   3  11   4 10831.2 791.271   4
   3 -11   5 11193.0 785.162   4
   3  11   5 10400.0 846.868   4
   3  13  -5 13705.7 985.097   3
   3 -13  -5 14916.2 1078.31   3
   3  13  -4 16919.5 985.432   3
   3 -13  -4 20445.1 1126.78   3
   3  13  -3 10163.5 718.080   1
   3 -13  -3 10501.7 735.644   3
   3  13  -2 47809.6 1419.22   1
   3 -13  -2 46895.1 1395.00   3
   3  13  -1 39324.6 1315.03   2
   3  13  -1 41150.1 1234.38   1
   3 -13  -1 40177.7 1210.66   3
   3 -13   0 20944.6 818.904   3
   3 -13   0 20211.2 595.018   4
   3  13   0 21439.3 872.544   1
   3  13   0 21627.3 929.637   2
   3 -13   1 38135.8 922.386   4
   3 -13   1 36014.3 1040.93   3
   3  13   1 36304.9 1120.90   1
   3  13   1 37871.7 1171.61   2
   3 -13   2 22667.0 796.370   4
   3  13   2 23947.0 976.277   1
   3  13   2 22358.3 871.676   2
   3 -13   3 6614.62 497.075   4
   3  13   3 5286.18 513.854   1
   3 -13   4 12360.3 767.896   4
   3 -13   5 6068.20 593.475   4
   3  15  -5 2542.90 424.255   3
   3 -15  -5 3163.03 518.606   3
   3  15  -4 8246.80 710.442   3
   3 -15  -4 8793.28 775.767   3
   3 -15  -3 14406.8 913.891   3
   3  15  -2 17527.9 931.644   1
   3 -15  -2 17879.2 932.517   3
   3  15  -1 22808.5 1063.51   2
   3  15  -1 23626.6 1017.93   1
   3 -15  -1 23174.4 1010.02   3
   3 -15   0 14338.1 551.549   4
   3 -15   0 13578.9 711.706   3
   3  15   0 13803.4 765.295   1
   3  15   0 13782.0 797.776   2
   3 -15   1 27210.8 844.495   4
   3 -15   1 27104.4 991.268   3
   3  15   1 27583.6 1054.87   1
   3  15   1 25824.7 1043.75   2
   3 -15   2 12803.0 634.754   4
   3  15   2 13479.5 780.557   1
   3  15   2 12454.7 701.724   2
   3 -15   3 3630.94 384.932   4
   3 -15   4 8128.74 644.294   4
   3 -15   5 4942.79 543.832   4
   3 -17  -4 4842.76 608.281   3
   3 -17  -3 26025.4 1304.27   3
   3  17  -2 3387.27 452.930   2
   3 -17  -2 3463.54 430.295   3
   3  17  -1 11386.2 757.961   1
   3  17  -1 11481.3 796.179   2
   3 -17  -1 12178.7 768.709   3
   3 -17   0 26072.2 813.810   4
   3 -17   0 26511.8 1090.26   3
   3  17   0 25014.5 1106.37   1
   3  17   0 25927.8 1159.67   2
   3 -17   1 9958.98 552.173   4
   3 -17   1 10372.4 660.275   3
   3  17   1 10565.7 699.682   1
   3  17   1 10406.6 703.631   2
   3 -17   2 11802.5 648.803   4
   3  17   2 12723.1 758.864   2
   3 -17   3 21397.1 978.908   4
   3 -17   4 8487.75 684.430   4
   3 -17   5 3063.51 452.246   4
   3 -19  -4 4664.04 630.251   3
   3 -19  -3 13092.0 976.797   3
   3  19  -2 15802.5 1026.90   2
   3 -19  -2 17218.5 1037.84   3
   3 -19  -1 4485.64 496.764   3
   3  19  -1 3684.31 471.483   2
   3  19   0 19348.9 1061.04   2
   3 -19   0 18168.3 742.527   4
   3 -19   0 20314.5 1028.75   3
   3 -19   1 20279.0 846.359   4
   3 -19   1 18516.2 956.055   3
   3  19   1 19990.2 1035.71   2
   3  19   2 870.087 229.623   2
   3 -19   2 461.335 130.953   4
   3 -19   3 13277.6 804.756   4
   3 -19   4 13112.5 875.053   4
   3 -21  -4 10687.6 966.874   3
   3 -21  -3 3064.49 493.458   3
   3 -21  -2 6776.01 685.704   3
   3 -21  -1 27364.2 1291.27   3
   3  21  -1 29082.7 1402.74   2
   3  21   0 4747.77 552.607   2
   3 -21   0 4248.08 386.131   4
   3 -21   0 3891.30 476.940   3
   3 -21   1 6556.73 515.166   4
   3 -21   1 8403.84 684.926   3
   3  21   1 6636.63 631.335   2
   3 -21   2 14243.2 809.447   4
   3 -21   3 1743.07 298.781   4
   3 -21   4 2957.88 414.015   4
   3 -23  -3 2463.55 452.728   3
   3 -23  -2 2979.08 473.431   3
   3 -23  -1 15195.7 1013.87   3
   3  23  -1 15956.4 1090.92   2
   3  23   0 2460.66 410.675   2
   3 -23   0 1846.26 344.787   3
   3  23   1 4072.68 520.045   2
   3 -23   1 3827.45 414.257   4
   3 -23   1 4421.60 522.361   3
   3 -23   2 11494.9 757.786   4
   3 -23   3 1976.02 333.949   4
   3 -25  -2 6243.83 691.749   3
   3 -25  -1 2709.79 460.572   3
   3  25  -1 3094.21 507.540   2
   3  25   0 5461.92 646.138   2
   3 -25   0 5488.47 637.078   3
   3  25   1 12083.2 934.814   2
   3 -25   1 11416.0 743.872   4
   3 -25   1 11906.9 916.452   3
   3 -25   2 1801.42 296.950   4
   3 -25   3 4384.31 510.160   4
   3 -27  -1 1850.01 365.474   3
   3  27  -1 2250.73 436.080   2
   3  27   0 8312.58 821.918   2
   3 -27   0 9162.93 853.201   3
   3  27   1 5117.63 617.136   2
   3 -27   2 1114.75 248.621   4
   4   0  -6 6653.34 710.225   3
   4   0  -5 30628.4 1351.44   3
   4   0  -4 8005.64 595.548   1
   4   0  -4 7977.53 597.803   3
   4   0  -3 23016.2 837.913   3
   4   0  -3 24082.8 851.657   1
   4   0  -2 39901.1 880.223   3
   4   0  -2 40012.7 898.148   1
   4   0  -1 74558.8 870.441   3
   4   0  -1 80016.6 936.766   1
   4   0   0 39364.7 375.715   1
   4   0   0 54637.1 425.609   1
   4   0   1 65133.5 997.558   4
   4   0   2 50233.2 1028.82   4
   4   0   3 17794.2 719.586   4
   4   0   4 28059.1 1052.25   4
   4   0   5 11974.9 781.068   4
   4   0   6 2564.84 386.015   4
   4   2  -6 3023.95 465.956   3
   4  -2  -6 3187.82 488.006   3
   4   2  -5 19412.4 1079.44   3
   4  -2  -5 17167.3 1011.79   3
   4   2  -4 27230.7 1085.11   1
   4   2  -4 27575.3 1108.10   3
   4  -2  -4 26794.9 1084.42   3
   4  -2  -4 28366.9 1139.94   1
   4  -2  -3 12332.4 622.245   1
   4   2  -3 11480.5 583.675   1
   4   2  -3 12110.3 608.491   3
   4  -2  -3 12796.7 629.587   3
   4   2  -2 42257.2 918.191   1
   4   2  -2 42500.7 929.474   3
   4  -2  -2 45071.1 954.189   1
   4  -2  -2 42078.0 923.929   3
   4   2  -1 99044.6 1101.36   1
   4  -2  -1 98983.5 1141.48   1
   4  -2  -1 99703.8 1042.74   3
   4  -2  -1 103577. 1072.96   1
   4   2   0 8765.39 249.239   1
   4  -2   0 7912.01 160.316   1
   4   2   0 8028.96 346.645   4
   4  -2   0 9316.10 204.281   1
   4  -2   1 24586.8 590.842   4
   4   2   1 25030.1 652.876   4
   4  -2   2 42891.3 951.220   4
   4   2   2 44118.5 995.322   4
   4  -2   3 4635.67 364.537   4
   4   2   3 4182.19 357.531   4
   4  -2   4 18143.4 837.507   4
   4   2   4 19173.9 876.480   4
   4  -2   5 9698.12 701.475   4
   4   2   5 10493.7 731.233   4
   4  -2   6 2324.32 376.070   4
   4   2   6 2664.67 396.579   4
   4   4  -6 12222.9 958.269   3
   4  -4  -6 13553.3 1023.93   3
   4   4  -5 3816.09 487.351   3
   4  -4  -5 4846.25 548.069   3
   4  -4  -4 16640.8 874.944   1
   4   4  -4 14914.4 817.145   1
   4   4  -4 16629.5 864.249   3
   4  -4  -4 16587.0 861.168   3
   4   4  -3 57412.0 1346.84   1
   4   4  -3 56933.9 1358.59   3
   4  -4  -3 55517.9 1326.20   3
   4  -4  -3 53736.5 1320.63   1
   4   4  -2 9353.49 454.079   1
   4  -4  -2 10053.0 464.617   1
   4  -4  -2 8798.56 435.662   3
   4  -4  -1 66156.5 988.513   1
   4  -4  -1 64749.2 922.469   3
   4   4  -1 64205.1 996.861   1
   4  -4   0 76353.9 829.910   1
   4   4   0 75570.3 956.641   1
   4   4   0 75577.7 1233.66   4
   4  -4   1 25364.1 359.549   1
   4  -4   1 26803.9 620.896   4
   4   4   1 28286.5 742.526   4
   4   4   1 27288.6 538.039   1
   4  -4   2 35467.1 865.543   4
   4   4   2 34067.4 909.161   4
   4  -4   3 28822.5 923.678   4
   4   4   3 28847.1 954.968   4
   4  -4   4 14789.7 762.521   4
   4   4   4 14184.0 767.579   4
   4  -4   5 8518.37 658.020   4
   4   4   5 7249.22 616.347   4
   4  -4   6 8745.15 730.800   4
   4   4   6 8138.73 720.307   4
   4   6  -6 15963.8 1109.64   3
   4  -6  -6 17331.6 1175.23   3
   4   6  -5 8725.86 731.726   3
   4  -6  -5 10520.5 811.344   3
   4   6  -4 2885.43 368.927   3
   4  -6  -4 2589.04 348.400   3
   4  -6  -3 55398.9 1352.34   1
   4   6  -3 54482.6 1365.71   3
   4  -6  -3 53929.0 1356.30   3
   4   6  -3 54662.1 1383.00   1
   4  -6  -2 16671.2 630.205   1
   4  -6  -2 16963.2 649.011   3
   4   6  -2 16382.2 646.483   1
   4   6  -1 18949.2 605.638   1
   4  -6  -1 18238.0 564.385   3
   4  -6   0 74909.3 909.410   3
   4   6   0 77428.0 1150.00   1
   4  -6   0 78975.0 832.277   4
   4  -6   0 77342.9 1036.09   1
   4  -6   1 18437.1 527.910   4
   4  -6   1 17578.4 407.475   1
   4   6   1 17372.4 678.008   4
   4   6   1 18639.5 547.278   1
   4  -6   2 28221.9 788.091   4
   4   6   2 26950.6 746.807   1
   4   6   2 28810.3 896.114   4
   4  -6   3 31195.7 978.341   4
   4   6   3 32906.1 1056.58   4
   4  -6   4 2640.54 320.347   4
   4   6   4 2865.61 353.635   4
   4  -6   5 4725.53 498.781   4
   4   6   5 4760.61 520.847   4
   4   8  -5 18068.2 1069.33   3
   4  -8  -5 18975.3 1115.67   3
   4   8  -4 28292.6 1190.55   3
   4  -8  -4 28912.3 1209.46   3
   4  -8  -3 10523.4 631.096   3
   4   8  -3 10639.5 642.252   1
   4  -8  -3 9751.49 596.271   1
   4   8  -2 55508.1 1281.91   1
   4  -8  -2 56910.5 1278.38   3
   4   8  -1 48459.2 1062.80   1
   4  -8  -1 50003.4 1060.83   3
   4  -8   0 851.939 121.956   3
   4  -8   0 1076.07 105.591   4
   4   8   0 746.329 127.180   1
   4   8   1 51923.1 1147.49   2
   4  -8   1 53155.4 936.866   4
   4   8   1 51184.9 1282.25   4
   4   8   1 50557.7 1041.05   1
   4  -8   2 31964.4 868.473   4
   4   8   2 30224.8 1046.01   4
   4  -8   3 2033.72 260.563   4
   4   8   3 2430.66 319.754   4
   4  -8   4 22843.3 988.828   4
   4   8   4 27162.1 1180.17   4
   4  -8   5 12570.7 827.422   4
   4   8   5 11248.1 866.810   4
   4  10  -5 14185.2 970.669   3
   4 -10  -5 14121.0 993.901   3
   4  10  -4 7542.20 635.935   3
   4 -10  -4 7346.35 629.088   3
   4 -10  -3 8228.26 578.823   1
   4  10  -3 8752.98 614.279   1
   4 -10  -3 9243.15 628.199   3
   4  10  -2 36643.0 1128.22   1
   4 -10  -2 34383.9 1070.98   3
   4  10  -1 29333.7 921.194   1
   4 -10  -1 30177.9 919.191   3
   4 -10   0 19744.0 652.589   3
   4 -10   0 18273.8 479.189   4
   4  10   0 19002.3 820.297   2
   4  10   0 18681.6 710.518   1
   4  10   1 42198.4 1146.10   2
   4 -10   1 42572.1 891.446   4
   4 -10   1 42965.8 917.919   3
   4  10   1 43333.7 1070.00   1
   4 -10   2 36204.1 965.697   4
   4  10   2 34923.3 1216.49   4
   4  10   2 36430.7 1063.78   1
   4 -10   3 9534.85 573.162   4
   4  10   3 8067.76 627.254   4
   4 -10   4 14824.1 813.608   4
   4  10   4 14185.7 920.662   4
   4 -10   5 9506.99 728.515   4
   4  10   5 8731.42 781.538   4
   4  12  -5 5177.10 602.162   3
   4 -12  -5 4998.78 608.383   3
   4  12  -4 7241.13 649.854   3
   4 -12  -4 6428.93 615.258   3
   4  12  -3 29108.6 1198.55   1
   4 -12  -3 30628.0 1219.03   3
   4  12  -2 5893.05 478.120   1
   4 -12  -2 5877.42 478.378   3
   4  12  -1 19464.7 911.159   2
   4  12  -1 20273.9 837.391   1
   4 -12  -1 21824.8 859.042   3
   4 -12   0 52636.8 1202.23   3
   4  12   0 51811.7 1434.57   2
   4 -12   0 51699.3 903.815   4
   4  12   0 55879.1 1364.45   1
   4  12   1 8676.63 553.407   2
   4 -12   1 8280.48 419.217   4
   4 -12   1 8030.91 452.380   3
   4  12   1 8755.88 528.862   1
   4 -12   2 14641.2 645.908   4
   4  12   2 13679.9 701.795   1
   4 -12   3 25141.5 970.546   4
   4 -12   4 3351.02 403.793   4
   4  12   4 4331.05 521.311   4
   4 -12   5 1611.83 298.435   4
   4  14  -5 8116.46 769.661   3
   4 -14  -5 8403.95 820.559   3
   4  14  -4 24339.3 1234.51   3
   4 -14  -4 26181.4 1319.02   3
   4 -14  -3 18911.1 1021.39   3
   4  14  -2 21385.4 995.052   1
   4 -14  -2 20772.8 972.160   3
   4  14  -1 41339.3 1414.16   2
   4  14  -1 43794.7 1347.92   1
   4 -14  -1 42651.9 1317.80   3
   4 -14   0 15099.0 716.454   3
   4  14   0 14656.5 813.027   2
   4 -14   0 14474.1 522.093   4
   4  14   0 15307.0 781.394   1
   4  14   1 13177.1 727.183   2
   4 -14   1 12123.7 546.241   4
   4 -14   1 12933.8 630.406   3
   4  14   1 13319.6 714.612   1
   4 -14   2 17536.6 742.092   4
   4  14   2 17338.2 856.697   1
   4 -14   3 6345.73 507.229   4
   4 -14   4 10568.0 737.471   4
   4 -14   5 7795.22 690.600   4
   4  16  -5 7645.10 755.082   3
   4 -16  -5 9604.42 906.953   3
   4 -16  -4 2355.72 404.731   3
   4 -16  -3 12122.1 863.980   3
   4 -16  -2 15313.7 886.907   3
   4  16  -1 13847.6 816.307   1
   4  16  -1 13642.2 862.040   2
   4 -16  -1 13390.2 790.611   3
   4  16   0 21620.7 1041.18   2
   4 -16   0 19959.2 898.142   3
   4 -16   0 20797.8 686.272   4
   4  16   0 21024.4 985.753   1
   4  16   1 15713.2 839.673   2
   4 -16   1 14614.2 641.086   4
   4 -16   1 16670.3 785.919   3
   4  16   1 16318.7 841.730   1
   4 -16   2 14628.2 714.047   4
   4  16   2 13715.0 815.947   1
   4 -16   3 11765.1 719.415   4
   4 -16   4 5879.40 568.758   4
   4 -16   5 4351.00 516.441   4
   4 -18  -4 6210.33 703.462   3
   4 -18  -3 3819.50 519.308   3
   4 -18  -2 19538.4 1073.84   3
   4 -18  -1 16518.9 917.543   3
   4  18  -1 16231.2 991.030   2
   4 -18   0 2346.23 330.733   3
   4  18   0 2656.46 382.340   2
   4  18   0 2224.88 331.690   1
   4  18   1 28045.4 1200.32   2
   4 -18   1 26903.5 930.490   4
   4 -18   1 27277.0 1083.47   3
   4 -18   2 15560.7 789.580   4
   4 -18   3 611.140 178.987   4
   4 -18   4 11396.4 815.573   4
   4 -20  -4 7032.97 782.898   3
   4 -20  -3 5167.39 627.565   3
   4 -20  -2 9914.63 812.545   3
   4 -20  -1 14852.1 930.639   3
   4  20  -1 15035.0 996.747   2
   4  20   0 1924.12 350.664   2
   4 -20   0 1563.04 284.853   3
   4  20   1 7116.72 640.634   2
   4 -20   1 8742.94 565.422   4
   4 -20   1 9302.56 680.869   3
   4 -20   2 13095.5 759.478   4
   4 -20   3 1062.10 232.300   4
   4 -20   4 6560.35 636.395   4
   4 -22  -3 28614.8 1535.52   3
   4 -22  -2 1470.97 338.089   3
   4 -22  -1 1522.17 317.633   3
   4  22  -1 2774.67 456.183   2
   4  22   0 28081.9 1387.84   2
   4 -22   0 26112.7 1264.86   3
   4  22   1 1190.41 261.206   2
   4 -22   1 1558.45 260.775   4
   4 -22   2 1942.38 301.252   4
   4 -22   3 11610.6 817.400   4
   4 -24  -3 3408.76 541.188   3
   4 -24  -2 4203.62 566.601   3
   4 -24  -1 10175.7 858.054   3
   4  24  -1 12159.4 972.453   2
   4  24   0 3642.69 520.778   2
   4 -24   0 3969.46 525.251   3
   4  24   1 5023.13 591.517   2
   4 -24   2 8854.01 676.552   4
   4 -24   3 2545.42 385.783   4
   4 -26  -2 6031.62 689.926   3
   4 -26  -1 5827.62 667.900   3
   4  26   0 1973.87 397.258   2
   4  26   1 6700.59 711.706   2
   5   1  -6 5953.58 688.512   3
   5  -1  -6 7780.37 785.025   3
   5   1  -5 8448.23 719.403   3
   5  -1  -5 7803.55 689.397   3
   5   1  -4 22235.9 1007.04   3
   5  -1  -4 20606.1 963.174   3
   5   1  -3 40156.8 1119.39   1
   5   1  -3 40543.6 1129.14   3
   5  -1  -3 40247.8 1142.43   3
   5  -1  -3 40641.6 1139.77   1
   5   1  -2 20681.5 653.134   1
   5   1  -2 20496.3 649.880   3
   5  -1  -2 21070.2 659.866   3
   5  -1  -2 21048.3 670.065   1
   5   1  -1 40014.5 706.411   1
   5  -1  -1 38635.4 727.678   1
   5   1  -1 37948.0 656.945   3
   5  -1  -1 40075.0 661.459   3
   5  -1  -1 37861.2 681.798   1
   5   1   0 65807.4 584.959   1
   5  -1   0 62676.6 868.186   4
   5  -1   1 17024.9 545.928   4
   5   1   1 16494.2 560.668   4
   5  -1   2 36004.4 931.765   4
   5   1   2 38034.7 982.133   4
   5  -1   3 19388.2 795.878   4
   5   1   3 19026.6 798.092   4
   5  -1   4 4719.69 448.800   4
   5   1   4 4497.83 439.389   4
   5  -1   5 9259.39 710.738   4
   5   1   5 9394.06 718.717   4
   5   3  -6 9409.03 854.219   3
   5  -3  -6 10486.0 909.321   3
   5   3  -5 7957.56 710.567   3
   5  -3  -5 8383.33 720.438   3
   5   3  -4 17178.0 887.283   3
   5  -3  -4 16365.2 860.400   3
   5  -3  -3 55976.4 1354.47   1
   5   3  -3 55406.9 1344.50   1
   5   3  -3 55813.6 1346.79   3
   5  -3  -3 55776.6 1332.70   3
   5   3  -2 17074.8 613.045   1
   5   3  -2 18565.0 649.249   3
   5  -3  -2 18475.9 633.669   1
   5  -3  -2 17491.3 609.586   3
   5  -3  -1 37561.5 737.271   1
   5  -3  -1 36125.8 663.973   3
   5   3  -1 35642.8 729.898   1
   5  -3  -1 35150.2 673.890   1
   5   3   0 60849.3 780.205   1
   5  -3   0 60276.6 577.301   1
   5  -3   0 58548.9 480.867   1
   5  -3   0 59879.9 811.681   4
   5   3   0 59804.4 1117.77   4
   5  -3   1 19978.5 579.245   4
   5   3   1 20562.5 658.453   4
   5  -3   2 51968.4 1108.63   4
   5   3   2 50150.2 1150.23   4
   5  -3   3 18845.8 783.014   4
   5   3   3 20271.8 835.549   4
   5  -3   4 8465.55 604.952   4
   5   3   4 8325.26 611.378   4
   5  -3   5 12232.6 817.018   4
   5   3   5 12889.2 843.084   4
   5   5  -6 1503.27 341.529   3
   5  -5  -6 1388.27 317.104   3
   5   5  -5 37458.6 1540.80   3
   5  -5  -5 37511.3 1544.73   3
   5   5  -4 1392.83 260.412   3
   5  -5  -4 1399.91 256.416   3
   5   5  -3 4888.88 407.735   1
   5   5  -3 5038.29 415.604   3
   5  -5  -3 5063.73 416.008   3
   5  -5  -3 4637.72 401.685   1
   5  -5  -2 84311.4 1419.50   3
   5   5  -2 82732.4 1443.24   1
   5   5  -1 11176.1 452.654   1
   5  -5  -1 11550.9 422.506   3
   5  -5  -1 10468.9 392.498   1
   5   5   0 35298.7 730.519   1
   5  -5   0 32913.4 585.172   1
   5  -5   0 32050.7 578.380   4
   5  -5   1 70586.8 1100.29   4
   5   5   1 72615.2 953.236   1
   5  -5   2 7447.99 424.062   4
   5   5   2 7306.48 462.666   4
   5  -5   3 13427.8 664.796   4
   5   5   3 13385.8 700.417   4
   5  -5   4 31026.0 1158.58   4
   5   5   4 30045.1 1184.69   4
   5  -5   5 2514.59 369.334   4
   5   5   5 2610.70 393.934   4
   5   7  -5 9578.85 787.781   3
   5  -7  -5 8982.61 772.124   3
   5   7  -4 18935.0 971.131   3
   5  -7  -4 18048.0 942.446   3
   5  -7  -3 26256.2 968.422   1
   5   7  -3 27500.0 1015.46   3
   5  -7  -3 26512.3 986.669   3
   5   7  -3 27133.9 1013.85   1
   5   7  -2 20054.4 760.742   1
   5  -7  -2 19088.1 720.738   3
   5  -7  -2 19185.3 708.565   1
   5   7  -1 31867.1 836.222   1
   5  -7  -1 33908.0 832.441   3
   5   7   0 41195.8 905.995   1
   5  -7   0 42466.2 709.818   3
   5  -7   0 40558.5 672.940   4
   5  -7   0 38950.0 784.156   1
   5  -7   1 4933.59 298.121   4
   5   7   1 5127.62 409.071   4
   5   7   1 5195.82 308.100   1
   5  -7   2 18130.2 676.533   4
   5   7   2 15995.8 765.893   4
   5  -7   3 13083.2 671.877   4
   5   7   3 13604.5 759.480   4
   5  -7   4 5861.07 516.822   4
   5   7   4 5762.45 549.514   4
   5  -7   5 6562.10 610.551   4
   5   7   5 5069.98 594.903   4
   5   9  -5 1654.79 339.859   3
   5  -9  -5 2326.84 414.450   3
   5   9  -4 28729.9 1240.75   3
   5  -9  -4 28056.7 1222.23   3
   5   9  -3 22154.5 965.571   1
   5  -9  -3 24652.3 1009.33   3
   5  -9  -3 24190.9 967.976   1
   5   9  -2 1989.35 260.555   1
   5  -9  -2 1932.87 250.016   3
   5   9  -1 60275.3 1287.92   1
   5  -9  -1 57389.6 1208.35   3
   5  -9   0 43084.9 860.722   3
   5  -9   0 40300.9 710.938   4
   5   9   0 42233.8 1026.78   1
   5  -9   1 810.081 123.129   4
   5   9   1 1177.37 170.891   1
   5  -9   2 48865.4 1147.56   4
   5   9   2 45859.8 1423.62   4
   5  -9   3 25988.3 969.809   4
   5   9   3 27047.2 1170.32   4
   5  -9   4 376.011 122.891   4
   5   9   4 716.743 211.032   4
   5  -9   5 13432.7 882.731   4
   5   9   5 12879.8 979.474   4
   5  11  -5 9771.53 842.449   3
   5 -11  -5 10836.2 894.417   3
   5  11  -4 5987.76 594.082   3
   5 -11  -4 5357.15 554.769   3
   5 -11  -3 12518.8 738.538   1
   5  11  -3 13857.0 810.034   1
   5 -11  -3 14024.2 811.331   3
   5  11  -2 33898.5 1123.71   1
   5 -11  -2 35384.0 1136.84   3
   5  11  -1 15508.1 716.462   1
   5 -11  -1 15693.2 694.802   3
   5 -11   0 34758.9 894.864   3
   5 -11   0 33551.3 698.707   4
   5  11   0 35188.5 1046.53   1
   5 -11   1 45070.5 991.161   4
   5  11   1 45097.4 1149.37   1
   5 -11   2 10241.7 547.044   4
   5 -11   3 12771.5 701.758   4
   5  11   3 11962.1 821.777   4
   5 -11   4 13078.1 801.984   4
   5  11   4 12975.9 930.091   4
   5 -11   5 2370.84 379.513   4
   5  11   5 2604.68 431.057   4
   5  13  -5 10981.7 918.216   3
   5 -13  -5 11914.8 966.201   3
   5  13  -4 12497.0 892.262   3
   5 -13  -4 13054.3 921.306   3
   5 -13  -3 24050.6 1116.83   3
   5  13  -2 25878.5 1066.37   1
   5 -13  -2 25466.0 1045.67   3
   5  13  -1 22830.0 948.713   1
   5 -13  -1 22992.2 933.412   3
   5 -13   0 18108.8 725.694   3
   5  13   0 16943.9 797.746   1
   5 -13   1 16767.1 636.409   4
   5  13   1 18311.8 798.828   1
   5 -13   2 14601.9 679.439   4
   5 -13   3 10003.3 644.023   4
   5 -13   4 8566.84 666.471   4
   5 -13   5 5346.92 565.927   4
   5  15  -5 6590.74 714.885   3
   5 -15  -5 8091.24 818.502   3
   5  15  -4 6534.91 665.422   3
   5 -15  -4 5527.20 624.793   3
   5 -15  -3 17356.8 1014.06   3
   5  15  -2 11867.4 774.355   1
   5 -15  -2 12870.8 803.385   3
   5  15  -1 4854.21 471.785   1
   5 -15  -1 4002.63 412.340   3
   5 -15   0 13935.4 701.978   3
   5  15   0 14083.4 828.119   2
   5  15   0 14719.9 801.050   1
   5  15   1 14971.9 807.081   2
   5 -15   1 13846.1 616.090   4
   5  15   1 14540.3 773.676   1
   5 -15   2 10931.8 625.230   4
   5 -15   3 7682.83 588.266   4
   5 -15   4 8539.79 683.146   4
   5  17  -4 8053.34 759.997   3
   5 -17  -4 10009.7 878.184   3
   5 -17  -3 11162.5 866.591   3
   5 -17  -2 10895.4 782.574   3
   5 -17  -1 26062.5 1118.68   3
   5 -17   0 28118.6 1081.67   3
   5  17   0 28228.2 1236.89   2
   5  17   0 29164.7 1203.80   1
   5  17   1 7544.37 615.379   2
   5 -17   1 7141.89 470.353   4
   5  17   1 6407.81 549.575   1
   5 -17   2 15056.9 766.905   4
   5 -17   3 16366.9 891.560   4
   5 -17   4 2130.35 365.833   4
   5 -19  -4 10795.2 944.552   3
   5 -19  -3 12399.1 954.110   3
   5 -19  -2 288.048 117.189   3
   5 -19  -1 20499.8 1051.80   3
   5 -19   0 19775.1 979.067   3
   5  19   0 19204.6 1069.44   2
   5  19   1 372.493 162.000   2
   5 -19   1 241.794 92.6230   4
   5 -19   2 16481.8 847.038   4
   5 -19   3 8554.16 673.987   4
   5 -19   4 487.562 192.637   4
   5 -21  -3 3041.27 495.682   3
   5 -21  -2 13764.5 976.232   3
   5 -21  -1 2498.22 375.134   3
   5  21   0 4884.60 566.579   2
   5  21   1 9587.96 760.544   2
   5 -21   2 3280.77 395.766   4
   5 -21   3 4467.75 497.198   4
   5 -23  -3 4694.28 623.543   3
   5 -23  -2 16335.9 1089.21   3
   5 -23  -1 3245.27 476.012   3
   5  23   1 13654.3 951.566   2
   5 -23   2 1660.60 295.192   4
   5 -23   3 1518.81 282.413   4
   5 -25  -2-422.353 175.168   3
   6   0  -6 8727.40 829.185   3
   6   0  -5 26933.6 1302.89   3
   6   0  -4 11983.5 756.644   3
   6   0  -3 20216.8 809.588   1
   6   0  -3 21529.0 845.185   3
   6   0  -2 88032.6 1378.94   1
   6   0  -2 86560.1 1374.57   3
   6   0  -1 17460.4 471.323   1
   6   0  -1 16426.4 509.113   1
   6   0  -1 18307.3 456.964   3
   6   0   0 50749.6 926.568   4
   6   0   1 46529.9 997.839   4
   6   0   2 7517.14 461.212   4
   6   0   3 13904.1 714.273   4
   6   0   4 30511.9 1198.20   4
   6   0   5 4902.46 531.930   4
   6   2  -6 8368.72 806.775   3
   6  -2  -6 8463.82 818.578   3
   6   2  -5 18589.6 1087.37   3
   6  -2  -5 17722.9 1056.59   3
   6   2  -4 5526.17 514.002   3
   6  -2  -4 5910.01 521.192   3
   6   2  -3 22524.4 855.197   1
   6   2  -3 23442.3 889.189   3
   6  -2  -3 24181.4 894.249   3
   6  -2  -3 24180.4 906.540   1
   6   2  -2 36589.7 907.053   1
   6   2  -2 37958.4 923.880   3
   6  -2  -2 38540.1 914.705   3
   6  -2  -2 36390.5 904.903   1
   6   2  -1 18962.1 493.917   3
   6  -2  -1 17069.5 501.832   1
   6  -2  -1 17203.8 438.195   3
   6  -2  -1 18169.3 477.757   1
   6   2  -1 18939.9 526.040   1
   6  -2   0 59455.4 916.075   4
   6   2   0 56561.2 1131.22   4
   6   2   0 59994.8 631.569   1
   6  -2   1 19876.2 630.696   4
   6   2   1 19944.4 678.787   4
   6  -2   2 12332.6 578.367   4
   6   2   2 11567.7 579.909   4
   6  -2   3 30325.0 1047.62   4
   6   2   3 30527.9 1079.16   4
   6  -2   4 5099.74 486.152   4
   6   2   4 5697.28 518.492   4
   6  -2   5 3145.57 431.761   4
   6   2   5 2551.49 389.955   4
   6   4  -6 3882.05 549.161   3
   6  -4  -6 3007.88 488.864   3
   6   4  -5 8289.50 736.938   3
   6  -4  -5 8670.21 744.046   3
   6   4  -4 24295.8 1080.76   3
   6  -4  -4 23017.0 1046.49   3
   6   4  -3 15264.8 726.248   1
   6  -4  -3 14743.6 711.680   1
   6   4  -3 15914.7 746.120   3
   6  -4  -3 14445.5 700.866   3
   6   4  -2 30977.9 876.311   3
   6  -4  -2 30643.1 845.119   1
   6  -4  -2 29112.5 829.763   3
   6   4  -2 28940.9 847.859   1
   6   4  -1 37454.7 824.108   1
   6  -4  -1 33947.9 692.729   1
   6  -4  -1 35956.8 701.454   3
   6  -4   0 37676.0 703.689   4
   6   4   0 38861.4 689.627   1
   6  -4   1 29128.2 755.653   4
   6   4   1 30783.3 924.840   4
   6  -4   2 36186.8 981.761   4
   6   4   2 36774.4 1079.80   4
   6  -4   3 15115.7 735.692   4
   6   4   3 14436.9 755.821   4
   6  -4   4 5293.52 496.086   4
   6   4   4 6062.11 554.736   4
   6  -4   5 13547.3 893.019   4
   6   4   5 13544.7 923.531   4
   6   6  -5 6758.37 663.388   3
   6  -6  -5 6783.56 668.726   3
   6   6  -4 35519.4 1338.30   3
   6  -6  -4 34602.3 1310.48   3
   6   6  -3 6220.43 485.061   3
   6  -6  -3 5934.27 459.906   1
   6  -6  -3 5932.62 462.685   3
   6   6  -3 5252.94 444.251   1
   6  -6  -2 25863.3 801.862   1
   6   6  -2 24493.4 833.622   1
   6  -6  -2 25378.0 811.800   3
   6  -6  -1 44941.5 855.876   1
   6   6  -1 45093.9 985.151   1
   6  -6  -1 45997.2 899.327   3
   6  -6   0 6174.07 280.932   4
   6   6   0 5965.33 322.263   1
   6  -6   1 15937.8 560.382   4
   6   6   1 15989.1 745.282   4
   6  -6   2 37228.3 1017.06   4
   6   6   2 39418.3 1209.39   4
   6  -6   3 3822.14 376.680   4
   6   6   3 4298.90 438.302   4
   6  -6   4 8466.93 635.278   4
   6   6   4 8961.69 705.726   4
   6  -6   5 16170.9 982.572   4
   6   6   5 14002.4 991.038   4
   6   8  -5 12634.9 938.572   3
   6  -8  -5 12456.4 932.837   3
   6   8  -4 510.175 177.972   3
   6  -8  -4 634.607 186.489   3
   6  -8  -3 47472.8 1346.49   1
   6   8  -3 47078.7 1396.63   3
   6   8  -3 50449.5 1449.40   1
   6  -8  -3 47271.2 1380.97   3
   6  -8  -2 32819.3 969.440   1
   6   8  -2 33239.4 1038.95   1
   6  -8  -2 32712.4 990.551   3
   6   8  -1 3992.32 325.009   1
   6  -8  -1 4212.09 307.057   3
   6  -8   0 61409.8 913.290   4
   6   8   0 64955.8 1229.06   1
   6  -8   1 31195.3 806.882   4
   6   8   1 30520.2 1096.31   4
   6  -8   2 1149.51 183.366   4
   6   8   2 1245.98 238.373   4
   6  -8   3 27418.4 1020.71   4
   6   8   3 26799.4 1195.73   4
   6  -8   4 8007.87 625.231   4
   6   8   4 7086.64 680.305   4
   6  -8   5 1652.76 306.670   4
   6   8   5 1274.73 290.587   4
   6  10  -5 10116.6 857.344   3
   6 -10  -5 11062.0 894.534   3
   6  10  -4 5589.72 568.070   3
   6 -10  -4 4994.02 538.812   3
   6 -10  -3 14012.4 768.815   1
   6  10  -3 14733.5 820.971   1
   6 -10  -3 14795.7 818.956   3
   6  10  -2 27970.5 1004.44   1
   6 -10  -2 30602.1 1032.08   3
   6  10  -1 11141.3 595.755   1
   6 -10  -1 11212.6 552.435   3
   6  10   0 29698.6 926.567   1
   6 -10   1 32967.7 863.537   4
   6 -10   2 10027.8 556.040   4
   6  10   2 9835.07 710.168   4
   6 -10   3 13074.2 721.847   4
   6  10   3 11935.1 838.186   4
   6 -10   4 14708.1 861.885   4
   6  10   4 12588.3 933.234   4
   6 -10   5 2781.00 418.916   4
   6  10   5 1969.98 373.417   4
   6  12  -5 5975.12 692.843   3
   6 -12  -5 5286.53 634.744   3
   6  12  -4 22626.5 1206.94   3
   6 -12  -4 19801.3 1113.44   3
   6 -12  -3 4701.14 491.688   3
   6  12  -2 20837.7 940.454   1
   6 -12  -2 20140.0 908.000   3
   6  12  -1 40353.1 1230.02   1
   6 -12  -1 38779.9 1148.15   3
   6  12   0 11360.1 633.081   1
   6 -12   1 9193.37 474.350   4
   6 -12   2 18401.5 782.013   4
   6 -12   3 6045.98 508.608   4
   6 -12   4 3518.59 428.398   4
   6 -12   5 9096.02 746.744   4
   6  14  -5 10911.6 936.456   3
   6 -14  -5 14322.0 1077.54   3
   6  14  -4 7557.34 725.982   3
   6 -14  -4 9436.84 802.872   3
   6 -14  -3 14086.9 900.846   3
   6  14  -2 12982.6 797.733   1
   6 -14  -2 12985.3 780.578   3
   6  14  -1 15945.0 839.687   1
   6 -14  -1 14891.6 760.475   3
   6  14   0 24372.9 997.014   1
   6 -14   1 12267.4 575.485   4
   6 -14   2 14822.3 734.567   4
   6 -14   3 16090.6 855.440   4
   6 -14   4 7542.71 650.674   4
   6  16  -4 8063.35 762.357   3
   6 -16  -4 8896.69 819.650   3
   6 -16  -3 4493.73 537.038   3
   6 -16  -2 16274.8 933.044   3
   6  16  -1 13176.0 810.151   1
   6  16   0 8760.35 645.494   1
   6 -16   1 15481.9 681.064   4
   6 -16   2 10356.3 639.109   4
   6 -16   3 5931.95 539.102   4
   6 -16   4 8470.91 696.257   4
   6 -18  -4 1347.62 329.553   3
   6  18  -4 691.666 242.302   3
   6 -18  -3 22404.4 1245.88   3
   6 -18  -2 24017.7 1208.56   3
   6 -18   2 885.725 186.215   4
   6 -18   3 7223.11 620.590   4
   6 -18   4 5168.60 551.445   4
   6 -20  -4 3536.37 548.830   3
   6 -20  -3 6989.14 726.808   3
   6 -20  -2 6698.61 667.600   3
   6 -20   2 3629.69 404.615   4
   6 -20   3 8581.39 692.200   4
   6 -22  -3 1494.24 330.977   3
   6 -22   3 1599.74 316.720   4
   7   1  -5 8954.56 766.007   3
   7  -1  -5 9987.42 807.774   3
   7   1  -4 33673.4 1306.45   3
   7  -1  -4 32630.7 1259.65   3
   7   1  -3 7274.11 494.276   1
   7  -1  -3 7179.87 491.236   1
   7   1  -3 8233.49 539.942   3
   7  -1  -3 8098.03 528.340   3
   7   1  -2 23588.5 738.108   1
   7  -1  -2 21895.7 701.301   1
   7   1  -2 26129.5 772.572   3
   7  -1  -2 24396.4 745.432   3
   7  -1  -1 35130.4 670.870   1
   7   1  -1 36922.5 730.966   1
   7  -1   0 7084.14 367.689   4
   7   1   0 6159.42 389.681   4
   7  -1   1 23182.2 753.886   4
   7   1   1 24044.2 787.950   4
   7  -1   2 26502.1 915.532   4
   7   1   2 27274.4 941.747   4
   7  -1   3 5618.04 480.155   4
   7   1   3 5150.84 466.976   4
   7  -1   4 8076.89 650.129   4
   7   1   4 8560.25 659.313   4
   7  -1   5 13455.8 906.987   4
   7   1   5 15004.9 963.036   4
   7   3  -5 12573.2 917.905   3
   7  -3  -5 10812.6 846.844   3
   7   3  -4 17964.4 952.570   3
   7  -3  -4 17604.4 928.605   3
   7   3  -3 15882.7 746.040   1
   7   3  -3 15923.2 766.849   3
   7  -3  -3 16324.0 753.421   3
   7  -3  -3 14920.1 727.483   1
   7   3  -2 57803.2 1198.90   3
   7  -3  -2 57386.0 1163.40   3
   7  -3  -2 57355.2 1172.60   1
   7   3  -2 55723.2 1183.46   1
   7   3  -1 24542.4 652.481   1
   7  -3  -1 20806.4 528.391   1
   7  -3   0 40187.4 813.589   4
   7   3   0 40746.6 1083.19   4
   7  -3   1 57312.4 1153.00   4
   7   3   1 59118.3 1337.47   4
   7  -3   2 7962.69 493.891   4
   7   3   2 7898.12 519.763   4
   7  -3   3 14274.3 758.630   4
   7   3   3 14254.1 786.674   4
   7  -3   4 7391.00 617.771   4
   7   3   4 8437.40 675.914   4
   7  -3   5 1104.64 265.534   4
   7   3   5 866.876 247.841   4
   7   5  -5 3407.53 486.331   3
   7  -5  -5 3419.53 477.934   3
   7   5  -4 13153.4 827.530   3
   7  -5  -4 12264.3 785.377   3
   7  -5  -3 34640.6 1121.63   1
   7   5  -3 35358.3 1166.14   3
   7  -5  -3 34022.3 1127.39   3
   7   5  -3 36181.1 1167.79   1
   7  -5  -2 7732.74 442.972   1
   7   5  -2 7923.68 465.466   3
   7  -5  -2 7212.82 426.806   3
   7   5  -2 7454.00 456.072   1
   7  -5  -1 21453.8 563.268   1
   7   5  -1 22740.8 678.637   1
   7  -5   0 50431.0 892.494   4
   7  -5   1 9703.63 469.080   4
   7   5   1 8944.55 594.454   4
   7  -5   2 14325.2 658.003   4
   7   5   2 13662.0 739.309   4
   7  -5   3 37005.9 1222.74   4
   7   5   3 37367.5 1336.06   4
   7  -5   4 4893.80 499.971   4
   7   5   4 5004.15 544.673   4
   7  -5   5 5065.99 560.804   4
   7   5   5 5182.57 614.691   4
   7   7  -5 11469.3 903.135   3
   7  -7  -5 11747.0 906.290   3
   7   7  -4 15142.6 909.439   3
   7  -7  -4 15095.5 900.981   3
   7   7  -3 6573.37 522.517   3
   7  -7  -3 6290.52 494.744   1
   7   7  -3 5847.98 492.849   1
   7  -7  -3 5892.61 490.765   3
   7   7  -2 28037.4 943.193   1
   7  -7  -2 26969.7 875.659   3
   7  -7  -2 27090.0 847.119   1
   7  -7  -1 21240.5 606.140   1
   7   7  -1 21263.1 739.170   1
   7  -7   1 19684.3 670.969   4
   7   7   1 19054.6 893.709   4
   7  -7   2 12929.7 635.914   4
   7   7   2 12284.1 765.324   4
   7  -7   3 10002.9 640.968   4
   7   7   3 9225.36 717.510   4
   7  -7   4 8134.27 653.016   4
   7   7   4 7087.50 697.708   4
   7  -7   5 5750.94 592.991   4
   7   7   5 4664.27 593.596   4
   7   9  -5 20434.3 1224.02   3
   7  -9  -5 19507.0 1197.02   3
   7   9  -4 16957.9 1002.33   3
   7  -9  -4 16049.7 957.513   3
   7   9  -3 1977.84 309.332   3
   7  -9  -3 1826.78 284.844   3
   7  -9  -3 1528.53 245.274   1
   7   9  -3 2413.59 327.737   1
   7   9  -2 43736.3 1247.39   1
   7  -9  -2 43822.7 1149.92   1
   7  -9  -2 45647.5 1224.63   3
   7   9  -1 37734.7 1080.14   1
   7  -9   1 39221.1 974.342   4
   7  -9   2 16698.2 739.248   4
   7   9   2 16615.1 946.343   4
   7  -9   3 3875.22 410.721   4
   7   9   3 2888.12 422.691   4
   7  -9   4 11898.3 801.205   4
   7   9   4 11157.6 899.093   4
   7  11  -5 1458.65 346.850   3
   7 -11  -5 1779.41 362.168   3
   7  11  -4 15939.5 1018.88   3
   7 -11  -4 17865.8 1055.33   3
   7 -11  -3 23474.3 1074.18   3
   7  11  -2 6845.12 530.590   1
   7 -11  -2 7300.77 502.669   1
   7  11  -1 21760.2 898.011   1
   7 -11   1 8571.05 469.062   4
   7 -11   2 19447.8 824.051   4
   7 -11   3 10342.6 678.243   4
   7 -11   4 3070.47 411.767   4
   7  13  -5 6262.93 715.862   3
   7 -13  -5 7790.85 794.831   3
   7  13  -4 7826.74 742.150   3
   7 -13  -4 8763.15 775.824   3
   7 -13  -3 15966.6 935.628   3
   7  13  -2 16667.4 888.418   1
   7  13  -1 11561.7 698.096   1
   7 -13   1 18757.8 716.387   4
   7 -13   2 7377.85 528.376   4
   7 -13   3 15970.4 869.650   4
   7 -13   4 6654.44 621.615   4
   7  15  -4 5187.15 621.664   3
   7 -15  -4 4982.78 604.935   3
   7 -15  -3 9117.43 745.940   3
   7  15  -1 3608.32 413.257   1
   7 -15   2 6985.64 528.145   4
   7 -15   3 7817.32 625.627   4
   7 -15   4 4963.02 538.079   4
   7  17  -4 17601.4 1152.19   3
   7 -17  -4 18010.2 1199.52   3
   7 -17  -3 4014.45 524.098   3
   7 -17   2 21333.0 956.595   4
   7 -17   3 2253.25 347.302   4
   7 -17   4 1283.47 263.999   4
   7 -19  -4 7141.95 779.602   3
   7 -19   3 2824.83 391.435   4
   8   0  -5 4432.71 547.629   3
   8   0  -4 6853.39 592.719   3
   8   0  -3 37449.4 1150.42   1
   8   0  -3 40198.1 1225.69   3
   8   0  -2 1912.11 212.325   1
   8   0   0 38060.6 1027.50   4
   8   0   1 5672.44 407.641   4
   8   0   2 10513.4 613.563   4
   8   0   3 43525.1 1404.23   4
   8   0   4 4360.69 492.927   4
   8   2  -5 4778.68 564.650   3
   8  -2  -5 4492.56 553.521   3
   8   2  -4 26682.7 1198.25   3
   8  -2  -4 25387.4 1151.30   3
   8   2  -3 9442.20 583.421   1
   8  -2  -3 9809.25 586.191   1
   8   2  -3 9829.45 609.461   3
   8  -2  -3 9960.85 602.233   3
   8  -2  -2 15953.3 613.286   1
   8   2  -2 15840.1 636.713   1
   8  -2   0 14760.1 572.566   4
   8   2   0 13195.1 644.361   4
   8  -2   1 16007.0 664.551   4
   8   2   1 17756.9 770.292   4
   8  -2   2 18092.0 803.561   4
   8   2   2 18119.5 831.517   4
   8  -2   3 6346.32 535.951   4
   8   2   3 6073.17 538.241   4
   8  -2   4 6781.27 612.643   4
   8   2   4 7387.71 652.017   4
   8   4  -5 13633.0 988.791   3
   8  -4  -5 11846.5 895.917   3
   8   4  -4 13112.0 842.966   3
   8  -4  -4 14731.3 878.154   3
   8   4  -3 15616.2 791.241   3
   8  -4  -3 15230.0 755.831   3
   8  -4  -3 13644.8 707.666   1
   8   4  -3 16468.2 796.672   1
   8   4  -2 38950.4 1047.68   1
   8  -4   1 41546.6 1055.72   4
   8   4   1 38004.2 1226.29   4
   8  -4   2 11732.0 636.796   4
   8   4   2 13313.4 756.382   4
   8  -4   3 1809.63 277.890   4
   8   4   3 2321.25 347.712   4
   8  -4   4 13802.1 878.729   4
   8   4   4 15227.5 981.429   4
   8   6  -5 13724.6 1001.85   3
   8  -6  -5 13006.2 959.333   3
   8   6  -4 7735.54 656.255   3
   8  -6  -4 8677.65 692.816   3
   8  -6  -3 14560.0 751.895   1
   8   6  -3 14688.5 789.357   3
   8  -6  -3 16240.3 812.120   3
   8   6  -3 13445.6 742.753   1
   8   6  -2 21307.6 817.806   3
   8   6  -2 20035.2 797.467   1
   8  -6   1 29487.2 879.212   4
   8   6   1 26558.6 1087.93   4
   8  -6   2 6521.38 479.320   4
   8   6   2 6424.06 575.130   4
   8  -6   3 15682.0 842.172   4
   8   6   3 14227.8 922.189   4
   8  -6   4 11930.8 823.608   4
   8   6   4 11818.2 915.514   4
   8   8  -5 3012.57 465.845   3
   8  -8  -5 2733.66 452.589   3
   8   8  -4 24873.3 1222.27   3
   8  -8  -4 27521.1 1258.35   3
   8  -8  -3 15121.6 791.292   1
   8   8  -3 16179.2 868.999   3
   8   8  -2 6028.47 459.368   1
   8  -8   1 13670.6 599.608   4
   8  -8   2 22442.3 892.838   4
   8   8   2 21413.1 1093.38   4
   8  -8   3 5712.85 514.209   4
   8   8   3 4911.83 562.381   4
   8  -8   4 7296.09 653.304   4
   8   8   4 5461.07 634.388   4
   8  10  -5 3019.80 493.435   3
   8 -10  -5 2360.10 422.048   3
   8  10  -4 11764.2 872.850   3
   8 -10  -4 10480.8 813.010   3
   8  10  -3 24859.7 1145.29   3
   8  10  -2 4792.47 439.434   1
   8 -10   2 7676.52 533.921   4
   8 -10   3 15932.0 869.957   4
   8  10   3 14656.7 1015.10   4
   8 -10   4 1712.63 303.385   4
   8  10   4 845.243 247.916   4
   8  12  -5 11407.9 962.802   3
   8 -12  -5 10467.5 915.476   3
   8  12  -4 3966.49 536.099   3
   8 -12  -4 4883.07 578.042   3
   8  12  -3 8693.92 712.425   3
   8 -12   2 9088.30 590.056   4
   8 -12   3 7928.20 624.574   4
   8 -12   4 8208.90 696.063   4
   8  14  -4 11894.0 930.361   3
   8 -14   2 11483.5 678.079   4
   8 -14   3 1684.28 298.166   4
   8 -14   4 10177.1 791.062   4
   8  16  -4 3275.10 510.362   3
   8 -16   3 13036.2 832.580   4
   9   1  -5 17083.0 1094.02   3
   9  -1  -5 16909.8 1088.50   3
   9   1  -4 2215.79 342.730   3
   9   1   0 14321.3 701.036   4
   9  -1   1 37869.8 1127.35   4
   9   1   1 40850.3 1248.46   4
   9  -1   2 4805.83 445.427   4
   9   1   2 3679.53 395.095   4
   9  -1   3 7292.13 602.554   4
   9   1   3 6908.37 596.087   4
   9  -1   4 17978.8 1030.07   4
   9   1   4 17271.8 1042.41   4
   9   3  -5 2176.07 385.922   3
   9  -3  -5 2039.79 357.391   3
   9   3  -4 22280.1 1133.47   3
   9  -3   1 1118.53 188.380   4
   9   3   1 1576.33 263.914   4
   9  -3   2 23007.5 950.647   4
   9   3   2 24880.3 1091.91   4
   9  -3   3 6309.12 566.196   4
   9   3   3 7069.43 638.651   4
   9  -3   4 1064.74 247.283   4
   9   3   4 1337.50 313.527   4
   9   5  -5 9502.33 839.606   3
   9   5  -4 19407.8 1067.50   3
   9  -5   1 11300.2 586.879   4
   9   5   1 10165.5 694.435   4
   9  -5   2 21440.3 917.136   4
   9   5   2 19330.0 1030.49   4
   9  -5   3 8148.43 633.365   4
   9   5   3 7343.48 689.641   4
   9  -5   4 5890.46 598.120   4
   9   5   4 4613.17 582.266   4
   9   7  -5 6965.73 737.727   3
   9   7  -4 2759.26 439.421   3
   9  -7   2 13919.4 736.781   4
   9   7   2 13976.0 912.472   4
   9  -7   3 7372.18 607.130   4
   9   7   3 6723.83 678.303   4
   9  -7   4 7233.19 665.318   4
   9   7   4 5634.25 663.818   4
   9   9  -5 8955.00 844.446   3
   9   9  -4 5977.06 626.590   3
   9  -9   2 6775.37 517.179   4
   9  -9   3 11744.5 774.346   4
   9   9   3 9143.11 821.388   4
   9  -9   4 8746.09 731.568   4
   9   9   4 8754.34 839.624   4
   9  11  -4 6757.79 689.059   3
   9 -11   2 4175.72 415.343   4
   9 -11   3 2090.36 331.314   4
   9 -11   4 8908.75 728.162   4
   9  13  -4 14449.7 1033.19   3
   9 -13   3 5950.88 558.696   4
   9  15  -4 7090.73 730.261   3
  10   0   1 8976.54 629.802   4
  10   0   2 38837.3 1377.28   4
  10   0   3 204.434 116.621   4
  10   0   4 3604.92 491.428   4
  10  -2   1 8020.72 557.561   4
  10   2   1 8555.31 642.132   4
  10  -2   2 10239.8 674.713   4
  10   2   2 10543.0 763.573   4
  10  -2   3 11786.7 800.011   4
  10   2   3 9553.39 779.041   4
  10  -2   4 3865.77 497.735   4
  10   2   4 3225.61 503.206   4
  10   4   1 10731.5 749.536   4
  10  -4   2 1696.89 276.928   4
  10   4   2 1336.56 260.010   4
  10  -4   3 12389.6 812.484   4
  10   4   3 11375.7 889.858   4
  10  -4   4 5591.12 585.715   4
  10   4   4 4261.26 574.041   4
  10  -6   2 10108.1 663.928   4
  10   6   2 10159.6 813.384   4
  10  -6   3 4833.81 517.674   4
  10   6   3 4941.63 597.167   4
  10  -6   4 7269.84 670.950   4
  10   6   4 5774.29 672.691   4
  10  -8   2 15249.8 818.715   4
  10  -8   3 8492.15 690.384   4
  10 -10   3 1347.49 267.284   4
  11   1   1 2099.96 325.837   4
  11  -1   2 5397.54 555.635   4
  11   1   2 4271.32 522.529   4
  11  -1   3 14215.2 955.473   4
  11   1   3 11786.8 920.738   4
  11  -3   2 7350.77 619.513   4
  11   3   2 6186.96 633.314   4
  11  -3   3 2617.83 396.238   4
  11   3   3 2440.15 426.763   4
  11   5   2 13333.0 955.763   4
  11  -5   3 2971.09 409.105   4
  11   5   3 2589.81 440.412   4
  11  -7   3 6718.53 615.842   4
  12   0   2 4186.90 532.483   4
  12   0   3 5082.00 627.034   4
  12   2   2 8563.56 773.883   4
  12  -2   3 3581.42 525.195   4
  12   2   3 2232.49 403.557   4
  12   4   3 6185.47 701.103   4
   0   0   0    0.00    0.00   0
TITL GdCOB13-kT in Cm
REM Cm (#8 in standard setting)
CELL 0.71073   8.094188  16.013347   3.556823  90.0000 101.2536  90.0000
ZERR    2.00   0.000358   0.000400   0.000090   0.0000   0.0030   0.0000
LATT -7
SYMM  x,-y, z
SFAC B O Ca Gd
UNIT 6.00 20.00 8.00 2.00
TREF
HKLF 4
END
;
_shelx_hkl_checksum              64431
loop_
_space_group_symop_operation_xyz
'x, y, z'
'x, -y, z'
'x+1/2, y+1/2, z'
'x+1/2, -y+1/2, z'
loop_
_atom_site_label
_atom_site_type_symbol
_atom_site_fract_x
_atom_site_fract_y
_atom_site_fract_z
_atom_site_U_iso_or_equiv
_atom_site_adp_type
_atom_site_occupancy
_atom_site_site_symmetry_order
_atom_site_calc_flag
_atom_site_refinement_flags_posn
_atom_site_refinement_flags_adp
_atom_site_refinement_flags_occupancy
_atom_site_disorder_assembly
_atom_site_disorder_group
Gd-X Gd -0.00197(2) 0.0000 -0.00146(2) 0.00785(7) Uani 0.9679(18) 2 d S T P . .
Ca-Y Ca -0.36047(9) -0.11269(4) 0.32689(17) 0.00725(18) Uani 0.9716(12) 1 d . .
P . .
Ca-Z Ca 0.25977(10) 0.18150(5) -0.34743(18) 0.0101(2) Uani 0.9970(15) 1 d . . P
. .
Ca-X Ca -0.00197(2) 0.0000 -0.00146(2) 0.00785(7) Uani 0.0321(18) 2 d S T P . .
Gd-Y Gd -0.36047(9) -0.11269(4) 0.32689(17) 0.00725(18) Uani 0.0284(12) 1 d . .
P . .
Gd-Z Gd 0.25977(10) 0.18150(5) -0.34743(18) 0.0101(2) Uani 0.0030(15) 1 d . . P
. .
O1 O -0.1757(6) 0.0000 0.4180(12) 0.0059(7) Uani 1 2 d S T P . .
O2 O 0.2010(7) 0.0000 -0.3956(14) 0.0133(9) Uani 1 2 d S T P . .
O3 O 0.0846(4) 0.14286(17) 0.0765(7) 0.0100(5) Uani 1 1 d . . . . .
O4 O -0.5336(4) -0.23115(17) 0.2766(8) 0.0128(5) Uani 1 1 d . . . . .
O5 O -0.2098(4) -0.17201(18) -0.1157(7) 0.0133(5) Uani 1 1 d . . . . .
O6 O 0.4596(4) 0.07453(16) -0.2511(7) 0.0105(5) Uani 1 1 d . . . . .
B1 B 0.3738(8) 0.0000 -0.2998(14) 0.0066(9) Uani 1 2 d S T P . .
B2 B -0.5524(5) -0.3057(2) 0.0806(10) 0.0066(6) Uani 1 1 d . . . . .
loop_
_atom_site_aniso_label
_atom_site_aniso_U_11
_atom_site_aniso_U_22
_atom_site_aniso_U_33
_atom_site_aniso_U_23
_atom_site_aniso_U_13
_atom_site_aniso_U_12
Gd-X 0.00680(12) 0.01112(9) 0.00577(8) 0.000 0.00161(6) 0.000
Ca-Y 0.0069(4) 0.0079(2) 0.0070(2) 0.00009(17) 0.0015(2) -0.0004(2)
Ca-Z 0.0095(4) 0.0135(3) 0.0077(3) -0.0008(2) 0.0027(2) -0.0008(3)
Ca-X 0.00680(12) 0.01112(9) 0.00577(8) 0.000 0.00161(6) 0.000
Gd-Y 0.0069(4) 0.0079(2) 0.0070(2) 0.00009(17) 0.0015(2) -0.0004(2)
Gd-Z 0.0095(4) 0.0135(3) 0.0077(3) -0.0008(2) 0.0027(2) -0.0008(3)
O1 0.004(2) 0.0090(14) 0.0045(13) 0.000 0.0005(12) 0.000
O2 0.007(2) 0.023(2) 0.0102(17) 0.000 0.0015(15) 0.000
O3 0.0106(14) 0.0102(10) 0.0100(10) 0.0010(8) 0.0042(9) 0.0030(10)
O4 0.0147(15) 0.0105(10) 0.0152(11) -0.0052(9) 0.0077(10) -0.0042(10)
O5 0.0114(15) 0.0187(12) 0.0091(10) -0.0001(9) 0.0002(9) 0.0051(11)
O6 0.0124(14) 0.0090(10) 0.0106(10) -0.0005(8) 0.0035(9) -0.0035(10)
B1 0.007(3) 0.0071(17) 0.0056(17) 0.000 0.0013(16) 0.000
B2 0.0048(19) 0.0083(12) 0.0065(12) 0.0010(10) 0.0003(11) -0.0038(12)
loop_
_atom_type_symbol
_atom_type_description
_atom_type_scat_dispersion_real
_atom_type_scat_dispersion_imag
_atom_type_scat_source
B B 0.0013 0.0007 'International Tables Vol C Tables 4.2.6.8 and 6.1.1.4'
O O 0.0106 0.0060 'International Tables Vol C Tables 4.2.6.8 and 6.1.1.4'
Ca Ca 0.2262 0.3064 'International Tables Vol C Tables 4.2.6.8 and 6.1.1.4'
Gd Gd -0.1653 3.9035 'International Tables Vol C Tables 4.2.6.8 and 6.1.1.4'
loop_
_geom_angle_atom_site_label_1
_geom_angle_atom_site_label_2
_geom_angle_atom_site_label_3
_geom_angle
_geom_angle_site_symmetry_1
_geom_angle_site_symmetry_3
O1 Gd-X O1 104.4(2) . 1_554
O1 Gd-X O2 174.9(2) . .
O1 Gd-X O2 80.69(17) 1_554 .
O1 Gd-X O3 97.49(7) . .
O1 Gd-X O3 102.81(7) 1_554 .
O2 Gd-X O3 81.19(7) . .
O1 Gd-X O3 97.49(7) . 2
O1 Gd-X O3 102.81(7) 1_554 2
O2 Gd-X O3 81.19(7) . 2
O3 Gd-X O3 145.91(14) . 2
O1 Gd-X O2 79.27(17) . 1_556
O1 Gd-X O2 176.3(2) 1_554 1_556
O2 Gd-X O2 95.6(2) . 1_556
O3 Gd-X O2 76.49(7) . 1_556
O3 Gd-X O2 76.49(7) 2 1_556
O1 Gd-X Ca-X 37.98(12) . 1_556
O1 Gd-X Ca-X 142.40(12) 1_554 1_556
O2 Gd-X Ca-X 136.91(13) . 1_556
O3 Gd-X Ca-X 86.63(6) . 1_556
O3 Gd-X Ca-X 86.63(6) 2 1_556
O2 Gd-X Ca-X 41.29(13) 1_556 1_556
O1 Gd-X Gd-X 37.98(12) . 1_556
O1 Gd-X Gd-X 142.40(12) 1_554 1_556
O2 Gd-X Gd-X 136.91(13) . 1_556
O3 Gd-X Gd-X 86.63(6) . 1_556
O3 Gd-X Gd-X 86.63(6) 2 1_556
O2 Gd-X Gd-X 41.29(13) 1_556 1_556
Ca-X Gd-X Gd-X 0.0 1_556 1_556
O1 Gd-X Ca-X 142.02(12) . 1_554
O1 Gd-X Ca-X 37.60(12) 1_554 1_554
O2 Gd-X Ca-X 43.09(13) . 1_554
O3 Gd-X Ca-X 93.37(6) . 1_554
O3 Gd-X Ca-X 93.37(6) 2 1_554
O2 Gd-X Ca-X 138.71(13) 1_556 1_554
Ca-X Gd-X Ca-X 180.0 1_556 1_554
Gd-X Gd-X Ca-X 180.0 1_556 1_554
O1 Gd-X Gd-X 142.02(12) . 1_554
O1 Gd-X Gd-X 37.60(12) 1_554 1_554
O2 Gd-X Gd-X 43.09(13) . 1_554
O3 Gd-X Gd-X 93.37(6) . 1_554
O3 Gd-X Gd-X 93.37(6) 2 1_554
O2 Gd-X Gd-X 138.71(13) 1_556 1_554
Ca-X Gd-X Gd-X 180.0 1_556 1_554
Gd-X Gd-X Gd-X 180.0 1_556 1_554
Ca-X Gd-X Gd-X 0.0 1_554 1_554
O1 Gd-X Gd-Y 34.63(7) . 2
O1 Gd-X Gd-Y 84.51(11) 1_554 2
O2 Gd-X Gd-Y 147.90(6) . 2
O3 Gd-X Gd-Y 74.54(7) . 2
O3 Gd-X Gd-Y 130.09(7) 2 2
O2 Gd-X Gd-Y 98.73(11) 1_556 2
Ca-X Gd-X Gd-Y 62.769(9) 1_556 2
Gd-X Gd-X Gd-Y 62.769(9) 1_556 2
Ca-X Gd-X Gd-Y 117.231(9) 1_554 2
Gd-X Gd-X Gd-Y 117.231(9) 1_554 2
O1 Gd-X Ca-Y 34.63(7) . 2
O1 Gd-X Ca-Y 84.51(11) 1_554 2
O2 Gd-X Ca-Y 147.90(6) . 2
O3 Gd-X Ca-Y 74.54(7) . 2
O3 Gd-X Ca-Y 130.09(7) 2 2
O2 Gd-X Ca-Y 98.73(11) 1_556 2
Ca-X Gd-X Ca-Y 62.769(9) 1_556 2
Gd-X Gd-X Ca-Y 62.769(9) 1_556 2
Ca-X Gd-X Ca-Y 117.231(9) 1_554 2
Gd-X Gd-X Ca-Y 117.231(9) 1_554 2
Gd-Y Gd-X Ca-Y 0.0 2 2
O5 Ca-Y O1 88.98(12) 1_556 .
O5 Ca-Y O4 86.59(11) 1_556 .
O1 Ca-Y O4 175.55(13) . .
O5 Ca-Y O6 169.94(11) 1_556 2_455
O1 Ca-Y O6 101.04(12) . 2_455
O4 Ca-Y O6 83.39(10) . 2_455
O5 Ca-Y O6 81.34(10) 1_556 2_456
O1 Ca-Y O6 99.78(12) . 2_456
O4 Ca-Y O6 79.91(10) . 2_456
O6 Ca-Y O6 97.72(11) 2_455 2_456
O5 Ca-Y O5 98.68(11) 1_556 .
O1 Ca-Y O5 90.19(13) . .
O4 Ca-Y O5 90.13(10) . .
O6 Ca-Y O5 80.50(9) 2_455 .
O6 Ca-Y O5 170.03(11) 2_456 .
O5 Ca-Y B2 75.54(10) 1_556 4_545
O1 Ca-Y B2 80.50(12) . 4_545
O4 Ca-Y B2 98.02(11) . 4_545
O6 Ca-Y B2 104.95(10) 2_455 4_545
O6 Ca-Y B2 156.88(10) 2_456 4_545
O5 Ca-Y B2 25.01(10) . 4_545
O5 Ca-Y B1 98.98(11) 1_556 1_456
O1 Ca-Y B1 88.37(12) . 1_456
O4 Ca-Y B1 92.67(10) . 1_456
O6 Ca-Y B1 82.41(11) 2_455 1_456
O6 Ca-Y B1 21.24(9) 2_456 1_456
O5 Ca-Y B1 162.24(10) . 1_456
B2 Ca-Y B1 167.61(12) 4_545 1_456
O5 Ca-Y Ca-Y 41.19(7) 1_556 1_556
O1 Ca-Y Ca-Y 89.21(11) . 1_556
O4 Ca-Y Ca-Y 87.69(7) . 1_556
O6 Ca-Y Ca-Y 138.75(7) 2_455 1_556
O6 Ca-Y Ca-Y 41.03(7) 2_456 1_556
O5 Ca-Y Ca-Y 139.88(7) . 1_556
B2 Ca-Y Ca-Y 116.17(7) 4_545 1_556
B1 Ca-Y Ca-Y 57.81(8) 1_456 1_556
O5 Ca-Y Gd-Y 41.19(7) 1_556 1_556
O1 Ca-Y Gd-Y 89.21(11) . 1_556
O4 Ca-Y Gd-Y 87.69(7) . 1_556
O6 Ca-Y Gd-Y 138.75(7) 2_455 1_556
O6 Ca-Y Gd-Y 41.03(7) 2_456 1_556
O5 Ca-Y Gd-Y 139.88(7) . 1_556
B2 Ca-Y Gd-Y 116.17(7) 4_545 1_556
B1 Ca-Y Gd-Y 57.81(8) 1_456 1_556
Ca-Y Ca-Y Gd-Y 0.00(3) 1_556 1_556
O5 Ca-Y Ca-Y 138.81(7) 1_556 1_554
O1 Ca-Y Ca-Y 90.79(11) . 1_554
O4 Ca-Y Ca-Y 92.31(7) . 1_554
O6 Ca-Y Ca-Y 41.25(7) 2_455 1_554
O6 Ca-Y Ca-Y 138.97(7) 2_456 1_554
O5 Ca-Y Ca-Y 40.12(7) . 1_554
B2 Ca-Y Ca-Y 63.83(7) 4_545 1_554
B1 Ca-Y Ca-Y 122.19(8) 1_456 1_554
Ca-Y Ca-Y Ca-Y 180.0 1_556 1_554
Gd-Y Ca-Y Ca-Y 180.0 1_556 1_554
O5 Ca-Y Gd-Y 138.81(7) 1_556 1_554
O1 Ca-Y Gd-Y 90.79(11) . 1_554
O4 Ca-Y Gd-Y 92.31(7) . 1_554
O6 Ca-Y Gd-Y 41.25(7) 2_455 1_554
O6 Ca-Y Gd-Y 138.97(7) 2_456 1_554
O5 Ca-Y Gd-Y 40.12(7) . 1_554
B2 Ca-Y Gd-Y 63.83(7) 4_545 1_554
B1 Ca-Y Gd-Y 122.19(8) 1_456 1_554
Ca-Y Ca-Y Gd-Y 180.0 1_556 1_554
Gd-Y Ca-Y Gd-Y 180.0 1_556 1_554
Ca-Y Ca-Y Gd-Y 0.0 1_554 1_554
O6 Ca-Z O3 102.65(10) . 1_554
O6 Ca-Z O3 101.56(10) . .
O3 Ca-Z O3 98.88(12) 1_554 .
O6 Ca-Z O4 78.03(9) . 2_654
O3 Ca-Z O4 88.27(10) 1_554 2_654
O3 Ca-Z O4 172.73(11) . 2_654
O6 Ca-Z O5 128.58(11) . 3
O3 Ca-Z O5 123.05(10) 1_554 3
O3 Ca-Z O5 93.96(10) . 3
O4 Ca-Z O5 80.90(10) 2_654 3
O6 Ca-Z O4 77.85(9) . 2_655
O3 Ca-Z O4 176.51(10) 1_554 2_655
O3 Ca-Z O4 84.37(9) . 2_655
O4 Ca-Z O4 88.46(10) 2_654 2_655
O5 Ca-Z O4 55.13(9) 3 2_655
O6 Ca-Z B2 98.96(11) . 2_655
O3 Ca-Z B2 147.77(10) 1_554 2_655
O3 Ca-Z B2 99.90(11) . 2_655
O4 Ca-Z B2 73.10(11) 2_654 2_655
O5 Ca-Z B2 29.71(11) 3 2_655
O4 Ca-Z B2 29.37(9) 2_655 2_655
O6 Ca-Z O4 156.58(9) . 3_554
O3 Ca-Z O4 53.96(9) 1_554 3_554
O3 Ca-Z O4 83.02(9) . 3_554
O4 Ca-Z O4 100.26(7) 2_654 3_554
O5 Ca-Z O4 73.26(9) 3 3_554
O4 Ca-Z O4 125.57(6) 2_655 3_554
B2 Ca-Z O4 102.88(10) 2_655 3_554
O6 Ca-Z B2 129.28(11) . 3_554
O3 Ca-Z B2 27.70(11) 1_554 3_554
O3 Ca-Z B2 85.25(11) . 3_554
O4 Ca-Z B2 100.68(10) 2_654 3_554
O5 Ca-Z B2 100.42(10) 3 3_554
O4 Ca-Z B2 152.50(10) 2_655 3_554
B2 Ca-Z B2 129.68(7) 2_655 3_554
O4 Ca-Z B2 27.51(9) 3_554 3_554
O6 Ca-Z O2 51.97(12) . .
O3 Ca-Z O2 67.92(12) 1_554 .
O3 Ca-Z O2 70.48(12) . .
O4 Ca-Z O2 113.92(12) 2_654 .
O5 Ca-Z O2 163.00(12) 3 .
O4 Ca-Z O2 114.63(12) 2_655 .
B2 Ca-Z O2 143.64(13) 2_655 .
O4 Ca-Z O2 110.26(12) 3_554 .
B2 Ca-Z O2 85.47(13) 3_554 .
O6 Ca-Z B1 25.52(14) . .
O3 Ca-Z B1 85.49(12) 1_554 .
O3 Ca-Z B1 85.82(12) . .
O4 Ca-Z B1 96.18(12) 2_654 .
O5 Ca-Z B1 150.97(12) 3 .
O4 Ca-Z B1 96.07(12) 2_655 .
B2 Ca-Z B1 121.78(13) 2_655 .
O4 Ca-Z B1 135.20(12) 3_554 .
B2 Ca-Z B1 108.48(13) 3_554 .
O2 Ca-Z B1 26.45(15) . .
O6 Ca-Z B2 124.45(10) . 3
O3 Ca-Z B2 91.93(10) 1_554 3
O3 Ca-Z B2 22.90(9) . 3
O4 Ca-Z B2 156.70(10) 2_654 3
O5 Ca-Z B2 79.50(10) 3 3
O4 Ca-Z B2 90.59(9) 2_655 3
B2 Ca-Z B2 95.29(10) 2_655 3
O4 Ca-Z B2 61.94(9) 3_554 3
B2 Ca-Z B2 70.82(10) 3_554 3
O2 Ca-Z B2 87.55(13) . 3
B1 Ca-Z B2 107.07(13) . 3
Gd-X O1 Ca-X 104.4 . 1_556
Gd-X O1 Gd-X 104.4(2) . 1_556
Ca-X O1 Gd-X 0.0 1_556 1_556
Gd-X O1 Gd-Y 112.17(13) . 2
Ca-X O1 Gd-Y 113.32(12) 1_556 2
Gd-X O1 Gd-Y 113.32(12) 1_556 2
Gd-X O1 Ca-Y 112.17(13) . 2
Ca-X O1 Ca-Y 113.32(12) 1_556 2
Gd-X O1 Ca-Y 113.32(12) 1_556 2
Gd-Y O1 Ca-Y 0.0 2 2
Gd-X O1 Ca-Y 112.17(13) . .
Ca-X O1 Ca-Y 113.32(12) 1_556 .
Gd-X O1 Ca-Y 113.32(12) 1_556 .
Gd-Y O1 Ca-Y 101.8 2 .
Ca-Y O1 Ca-Y 101.76(19) 2 .
B1 O2 Gd-X 130.3(4) . .
B1 O2 Ca-X 134.1(4) . 1_554
Gd-X O2 Ca-X 95.6 . 1_554
B1 O2 Gd-X 134.1(4) . 1_554
Gd-X O2 Gd-X 95.6(2) . 1_554
Ca-X O2 Gd-X 0.0 1_554 1_554
B1 O2 Ca-Z 80.82(11) . .
Gd-X O2 Ca-Z 95.10(10) . .
Ca-X O2 Ca-Z 97.16(10) 1_554 .
Gd-X O2 Ca-Z 97.16(10) 1_554 .
B1 O2 Gd-Z 80.82(11) . 2
Gd-X O2 Gd-Z 95.10(10) . 2
Ca-X O2 Gd-Z 97.16(10) 1_554 2
Gd-X O2 Gd-Z 97.16(10) 1_554 2
Ca-Z O2 Gd-Z 161.5 . 2
B1 O2 Ca-Z 80.82(11) . 2
Gd-X O2 Ca-Z 95.10(10) . 2
Ca-X O2 Ca-Z 97.16(10) 1_554 2
Gd-X O2 Ca-Z 97.16(10) 1_554 2
Ca-Z O2 Ca-Z 161.5(2) . 2
Gd-Z O2 Ca-Z 0.0 2 2
B2 O3 Gd-Z 100.6(2) 3 1_556
B2 O3 Ca-Z 100.6(2) 3 1_556
Gd-Z O3 Ca-Z 0.0 1_556 1_556
B2 O3 Ca-Z 115.8(2) 3 .
Gd-Z O3 Ca-Z 98.9 1_556 .
Ca-Z O3 Ca-Z 98.88(12) 1_556 .
B2 O3 Gd-X 110.7(2) 3 .
Gd-Z O3 Gd-X 117.96(11) 1_556 .
Ca-Z O3 Gd-X 117.96(11) 1_556 .
Ca-Z O3 Gd-X 112.19(11) . .
B2 O4 Ca-Y 138.2(2) . .
B2 O4 Gd-Z 122.3(2) . 2_456
Ca-Y O4 Gd-Z 98.98(10) . 2_456
B2 O4 Ca-Z 122.3(2) . 2_456
Ca-Y O4 Ca-Z 98.98(10) . 2_456
Gd-Z O4 Ca-Z 0.0 2_456 2_456
B2 O4 Gd-Z 81.1(2) . 2_455
Ca-Y O4 Gd-Z 95.28(10) . 2_455
Gd-Z O4 Gd-Z 88.46(10) 2_456 2_455
Ca-Z O4 Gd-Z 88.46(10) 2_456 2_455
B2 O4 Ca-Z 81.1(2) . 2_455
Ca-Y O4 Ca-Z 95.28(10) . 2_455
Gd-Z O4 Ca-Z 88.5 2_456 2_455
Ca-Z O4 Ca-Z 88.46(10) 2_456 2_455
Gd-Z O4 Ca-Z 0.0 2_455 2_455
B2 O4 Ca-Z 79.2(2) . 3_446
Ca-Y O4 Ca-Z 86.02(10) . 3_446
Gd-Z O4 Ca-Z 119.6 2_456 3_446
Ca-Z O4 Ca-Z 119.60(11) 2_456 3_446
Gd-Z O4 Ca-Z 151.4 2_455 3_446
Ca-Z O4 Ca-Z 151.43(11) 2_455 3_446
B2 O4 Gd-Z 79.2(2) . 3_446
Ca-Y O4 Gd-Z 86.02(10) . 3_446
Gd-Z O4 Gd-Z 119.60(11) 2_456 3_446
Ca-Z O4 Gd-Z 119.60(11) 2_456 3_446
Gd-Z O4 Gd-Z 151.43(11) 2_455 3_446
Ca-Z O4 Gd-Z 151.43(11) 2_455 3_446
Ca-Z O4 Gd-Z 0.00(4) 3_446 3_446
B2 O5 Gd-Y 145.2(3) 4_545 1_554
B2 O5 Ca-Y 145.2(3) 4_545 1_554
Gd-Y O5 Ca-Y 0.0 1_554 1_554
B2 O5 Ca-Y 108.2(2) 4_545 .
Gd-Y O5 Ca-Y 98.7 1_554 .
Ca-Y O5 Ca-Y 98.68(11) 1_554 .
B2 O5 Ca-Z 86.9(2) 4_545 3_445
Gd-Y O5 Ca-Z 95.84(10) 1_554 3_445
Ca-Y O5 Ca-Z 95.84(10) 1_554 3_445
Ca-Y O5 Ca-Z 124.67(13) . 3_445
B2 O5 Gd-Z 86.9(2) 4_545 3_445
Gd-Y O5 Gd-Z 95.84(10) 1_554 3_445
Ca-Y O5 Gd-Z 95.84(10) 1_554 3_445
Ca-Y O5 Gd-Z 124.67(13) . 3_445
Ca-Z O5 Gd-Z 0.00(3) 3_445 3_445
B1 O6 Ca-Z 107.4(3) . .
B1 O6 Gd-Y 123.1(3) . 2_655
Ca-Z O6 Gd-Y 103.32(10) . 2_655
B1 O6 Ca-Y 123.1(3) . 2_655
Ca-Z O6 Ca-Y 103.32(10) . 2_655
Gd-Y O6 Ca-Y 0.0 2_655 2_655
B1 O6 Ca-Y 120.2(3) . 2_654
Ca-Z O6 Ca-Y 102.23(10) . 2_654
Gd-Y O6 Ca-Y 97.7 2_655 2_654
Ca-Y O6 Ca-Y 97.72(11) 2_655 2_654
B1 O6 Gd-Y 120.2(3) . 2_654
Ca-Z O6 Gd-Y 102.23(10) . 2_654
Gd-Y O6 Gd-Y 97.72(11) 2_655 2_654
Ca-Y O6 Gd-Y 97.72(11) 2_655 2_654
Ca-Y O6 Gd-Y 0.00(3) 2_654 2_654
O2 B1 O6 119.8(3) . 2
O2 B1 O6 119.8(3) . .
O6 B1 O6 120.5(5) 2 .
O2 B1 Ca-Z 72.74(11) . .
O6 B1 Ca-Z 167.4(4) 2 .
O6 B1 Ca-Z 47.04(18) . .
O2 B1 Gd-Z 72.74(11) . 2
O6 B1 Gd-Z 47.04(18) 2 2
O6 B1 Gd-Z 167.4(4) . 2
Ca-Z B1 Gd-Z 145.4 . 2
O2 B1 Ca-Z 72.74(11) . 2
O6 B1 Ca-Z 47.04(18) 2 2
O6 B1 Ca-Z 167.4(4) . 2
Ca-Z B1 Ca-Z 145.4(2) . 2
Gd-Z B1 Ca-Z 0.0 2 2
O2 B1 Ca-Y 128.0(3) . 2_654
O6 B1 Ca-Y 100.0(3) 2 2_654
O6 B1 Ca-Y 38.6(2) . 2_654
Ca-Z B1 Ca-Y 70.60(5) . 2_654
Gd-Z B1 Ca-Y 135.91(16) 2 2_654
Ca-Z B1 Ca-Y 135.91(16) 2 2_654
O2 B1 Ca-Y 128.0(3) . 1_654
O6 B1 Ca-Y 38.6(2) 2 1_654
O6 B1 Ca-Y 100.0(3) . 1_654
Ca-Z B1 Ca-Y 135.91(16) . 1_654
Gd-Z B1 Ca-Y 70.60(5) 2 1_654
Ca-Z B1 Ca-Y 70.60(5) 2 1_654
Ca-Y B1 Ca-Y 66.74(12) 2_654 1_654
O4 B2 O5 118.8(4) . 4_445
O4 B2 O3 120.8(3) . 3_445
O5 B2 O3 120.3(3) 4_445 3_445
O4 B2 Gd-Z 69.5(2) . 2_455
O5 B2 Gd-Z 63.44(19) 4_445 2_455
O3 B2 Gd-Z 140.9(2) 3_445 2_455
O4 B2 Ca-Z 69.5(2) . 2_455
O5 B2 Ca-Z 63.44(19) 4_445 2_455
O3 B2 Ca-Z 140.9(2) 3_445 2_455
Gd-Z B2 Ca-Z 0.0 2_455 2_455
O4 B2 Ca-Z 73.3(2) . 3_446
O5 B2 Ca-Z 157.5(2) 4_445 3_446
O3 B2 Ca-Z 51.72(17) 3_445 3_446
Gd-Z B2 Ca-Z 137.7 2_455 3_446
Ca-Z B2 Ca-Z 137.66(14) 2_455 3_446
O4 B2 Gd-Z 73.3(2) . 3_446
O5 B2 Gd-Z 157.5(2) 4_445 3_446
O3 B2 Gd-Z 51.72(17) 3_445 3_446
Gd-Z B2 Gd-Z 137.66(14) 2_455 3_446
Ca-Z B2 Gd-Z 137.66(14) 2_455 3_446
Ca-Z B2 Gd-Z 0.00(4) 3_446 3_446
O4 B2 Ca-Y 103.8(2) . 4_445
O5 B2 Ca-Y 46.75(17) 4_445 4_445
O3 B2 Ca-Y 116.3(2) 3_445 4_445
Gd-Z B2 Ca-Y 94.16(13) 2_455 4_445
Ca-Z B2 Ca-Y 94.16(13) 2_455 4_445
Ca-Z B2 Ca-Y 114.11(11) 3_446 4_445
Gd-Z B2 Ca-Y 114.11(11) 3_446 4_445
O4 B2 Gd-Y 103.8(2) . 4_445
O5 B2 Gd-Y 46.75(17) 4_445 4_445
O3 B2 Gd-Y 116.3(2) 3_445 4_445
Gd-Z B2 Gd-Y 94.16(13) 2_455 4_445
Ca-Z B2 Gd-Y 94.16(13) 2_455 4_445
Ca-Z B2 Gd-Y 114.11(11) 3_446 4_445
Gd-Z B2 Gd-Y 114.11(11) 3_446 4_445
Ca-Y B2 Gd-Y 0.00(3) 4_445 4_445
O4 B2 Ca-X 153.9(3) . 3_445
O5 B2 Ca-X 79.7(2) 4_445 3_445
O3 B2 Ca-X 45.11(17) 3_445 3_445
Gd-Z B2 Ca-X 136.29(13) 2_455 3_445
Ca-Z B2 Ca-X 136.29(13) 2_455 3_445
Ca-Z B2 Ca-X 83.43(10) 3_446 3_445
Gd-Z B2 Ca-X 83.43(10) 3_446 3_445
Ca-Y B2 Ca-X 74.66(8) 4_445 3_445
Gd-Y B2 Ca-X 74.66(8) 4_445 3_445
O4 B2 Ca-Z 106.1(2) . 3_445
O5 B2 Ca-Z 118.8(2) 4_445 3_445
O3 B2 Ca-Z 41.28(16) 3_445 3_445
Gd-Z B2 Ca-Z 100.6 2_455 3_445
Ca-Z B2 Ca-Z 100.61(11) 2_455 3_445
Ca-Z B2 Ca-Z 70.82(10) 3_446 3_445
Gd-Z B2 Ca-Z 70.8 3_446 3_445
Ca-Y B2 Ca-Z 149.70(13) 4_445 3_445
Gd-Y B2 Ca-Z 149.70(13) 4_445 3_445
Ca-X B2 Ca-Z 76.39(9) 3_445 3_445
loop_
_geom_bond_atom_site_label_1
_geom_bond_atom_site_label_2
_geom_bond_distance
_geom_bond_site_symmetry_2
Gd-X O1 2.241(5) .
Gd-X O1 2.260(4) 1_554
Gd-X O2 2.358(5) .
Gd-X O3 2.393(3) .
Gd-X O3 2.393(3) 2
Gd-X O2 2.442(5) 1_556
Gd-X Ca-X 3.55681(10) 1_556
Gd-X Gd-X 3.55681(10) 1_556
Gd-X Ca-X 3.55684(10) 1_554
Gd-X Gd-X 3.55684(10) 1_554
Gd-X Gd-Y 3.7899(7) 2
Gd-X Ca-Y 3.7899(7) 2
Ca-Y O5 2.319(3) 1_556
Ca-Y O1 2.326(3) .
Ca-Y O4 2.344(3) .
Ca-Y O6 2.356(3) 2_455
Ca-Y O6 2.367(3) 2_456
Ca-Y O5 2.370(3) .
Ca-Y B2 3.090(4) 4_545
Ca-Y B1 3.280(5) 1_456
Ca-Y Ca-Y 3.55681(9) 1_556
Ca-Y Gd-Y 3.55681(9) 1_556
Ca-Y Ca-Y 3.55683(9) 1_554
Ca-Y Gd-Y 3.55683(9) 1_554
Ca-Z O6 2.335(3) .
Ca-Z O3 2.336(3) 1_554
Ca-Z O3 2.346(3) .
Ca-Z O4 2.468(3) 2_654
Ca-Z O5 2.483(3) 3
Ca-Z O4 2.628(3) 2_655
Ca-Z B2 2.771(4) 2_655
Ca-Z O4 2.854(3) 3_554
Ca-Z B2 2.925(4) 3_554
Ca-Z O2 2.9447(11) .
Ca-Z B1 3.044(2) .
Ca-Z B2 3.201(4) 3
O1 Ca-X 2.260(4) 1_556
O1 Gd-X 2.260(4) 1_556
O1 Gd-Y 2.326(3) 2
O1 Ca-Y 2.326(3) 2
O2 B1 1.373(8) .
O2 Ca-X 2.442(5) 1_554
O2 Gd-X 2.442(5) 1_554
O2 Gd-Z 2.9448(11) 2
O2 Ca-Z 2.9448(11) 2
O3 B2 1.383(5) 3
O3 Gd-Z 2.336(3) 1_556
O3 Ca-Z 2.336(3) 1_556
O4 B2 1.376(5) .
O4 Gd-Z 2.468(3) 2_456
O4 Ca-Z 2.468(3) 2_456
O4 Gd-Z 2.628(3) 2_455
O4 Ca-Z 2.628(3) 2_455
O4 Ca-Z 2.854(3) 3_446
O4 Gd-Z 2.854(3) 3_446
O5 B2 1.376(5) 4_545
O5 Gd-Y 2.319(3) 1_554
O5 Ca-Y 2.319(3) 1_554
O5 Ca-Z 2.483(3) 3_445
O5 Gd-Z 2.483(3) 3_445
O6 B1 1.375(4) .
O6 Gd-Y 2.356(3) 2_655
O6 Ca-Y 2.356(3) 2_655
O6 Ca-Y 2.367(3) 2_654
O6 Gd-Y 2.367(3) 2_654
B1 O6 1.375(4) 2
B1 Gd-Z 3.044(2) 2
B1 Ca-Z 3.044(2) 2
B1 Ca-Y 3.280(5) 2_654
B1 Ca-Y 3.280(5) 1_654
B2 O5 1.376(5) 4_445
B2 O3 1.383(5) 3_445
B2 Gd-Z 2.771(4) 2_455
B2 Ca-Z 2.771(4) 2_455
B2 Ca-Z 2.925(4) 3_446
B2 Gd-Z 2.925(4) 3_446
B2 Ca-Y 3.090(4) 4_445
B2 Gd-Y 3.090(4) 4_445
B2 Ca-X 3.159(4) 3_445
B2 Ca-Z 3.201(4) 3_445
