#------------------------------------------------------------------------------
#$Date: 2016-03-21 01:21:50 +0200 (Mon, 21 Mar 2016) $
#$Revision: 178377 $
#$URL: svn://www.crystallography.net/cod/cif/4/00/07/4000789.cif $
#------------------------------------------------------------------------------
#
# This file is available in the Crystallography Open Database (COD),
# http://www.crystallography.net/
#
# All data on this site have been placed in the public domain by the
# contributors.
#
data_4000789
loop_
_publ_author_name
'Reeves-McLaren, Nik'
'Smith, Ronald I.'
'West, Anthony R.'
_publ_section_title
;
 Lithium-Ion Conduction Pathways in Complex Lithium Spinels Li2MGe3O8(M =
 Ni or Zn)
;
_journal_issue                   15
_journal_name_full               'Chemistry of Materials'
_journal_page_first              3556
_journal_paper_doi               10.1021/cm201429f
_journal_volume                  23
_journal_year                    2011
_chemical_formula_sum            'Ge3 Li2.03 Ni O8'
_chemical_formula_weight         418.56
_chemical_name_systematic        ' ?'
_space_group_IT_number           212
_symmetry_cell_setting           cubic
_symmetry_space_group_name_Hall  'P 4acd 2ab 3'
_symmetry_space_group_name_H-M   'P 43 3 2'
_audit_creation_date             2011-07-04T15:48
_audit_creation_method           'from EXP file using GSAS2CIF'
_audit_update_record
' 2011-07-04T15:48  Initial CIF as created by GSAS2CIF'
_cell_angle_alpha                90.0
_cell_angle_beta                 90.0
_cell_angle_gamma                90.0
_cell_formula_units_Z            4
_cell_length_a                   8.27528(15)
_cell_length_b                   8.27528
_cell_length_c                   8.27528
_cell_volume                     566.693(10)
_computing_structure_refinement  GSAS
_diffrn_radiation_probe          neutron
_exptl_absorpt_correction_T_max  1.00000
_exptl_absorpt_correction_T_min  1.00000
_exptl_absorpt_process_details
;   GSAS Absorption/surface roughness correction: function number 0
 No correction is applied.
;
_pd_block_id                     2011-07-04T15:48|FINALMODEL-AS_IN_PAP|nik|pol
_pd_calc_method                  'Rietveld Refinement'
_pd_instr_location               ' ?'
_pd_meas_2theta_fixed            90.00
_pd_meas_number_of_points        5525
_pd_phase_name                   'Li2NiGe3O8 @ 850C'
_pd_proc_info_datetime           2011-07-04T15:48:13
_pd_proc_info_excluded_regions   ' ?'
_pd_proc_ls_background_function
;   GSAS Background function number 1 with  6 terms.
 Shifted Chebyshev function of 1st kind
      1:    6.45721     2:  -0.749179     3:   0.898340     4:  -0.333844    
      5:   0.252033     6:  -3.538310E-02
;
_pd_proc_ls_peak_cutoff          0.00100
_pd_proc_ls_profile_function
;
 TOF Profile function number 3 with  21 terms
 Profile coefficients for exponential pseudovoigt
  convolution Von Dreele, 1990 (unpublished)
 Peak tails are ignored  where the intensity is below 0.0010 times the peak
   Aniso. broadening axis   0.0   0.0   1.0
;
_pd_proc_ls_prof_R_factor        0.0378
_pd_proc_ls_prof_wR_expected     0.0168
_pd_proc_ls_prof_wR_factor       0.0250
_pd_proc_number_of_points        5525
_pd_spec_mounting                ' ?'
_refine_ls_goodness_of_fit_all   1.49
_refine_ls_matrix_type           full
_refine_ls_number_parameters     14
_refine_ls_number_restraints     0
_refine_ls_R_Fsqd_factor         0.07198
_refine_ls_shift/su_max          0.05
_refine_ls_shift/su_mean         0.00
_reflns_d_resolution_high        0.500
_reflns_d_resolution_low         3.701
_reflns_limit_h_max              17
_reflns_limit_h_min              1
_reflns_limit_k_max              12
_reflns_limit_k_min              0
_reflns_limit_l_max              10
_reflns_limit_l_min              0
_reflns_number_total             526
_cod_data_source_file            cm201429f_si_002.cif
_cod_data_source_block           FINALMODEL-AS_IN_PAP_publ
_cod_depositor_comments
;
The following automatic conversions were performed:

'_geom_bond_publ_flag' value 'N' changed to 'n' according to
/home/saulius/struct/CIF-dictionaries/cif_core.dic dictionary named
'cif_core.dic' version 2.4.1 from 2010-06-29 (63
times).

'_geom_angle_publ_flag' value 'N' changed to 'n' according
to /home/saulius/struct/CIF-dictionaries/cif_core.dic dictionary
named 'cif_core.dic' version 2.4.1 from 2010-06-29 (188 times).

Automatic conversion script
Id: cif_fix_values 1715 2011-07-08 13:25:40Z adriana 
;
_cod_original_cell_volume        566.693(31)
_cod_database_code               4000789
#BEGIN Tags that were not found in dictionaries:
_gsas_exptl_extinct_corr_t_min   1.00000
_gsas_exptl_extinct_corr_t_max   1.00000
#END Tags that were not found in dictionaries
loop_
_symmetry_equiv_pos_site_id
_symmetry_equiv_pos_as_xyz
1 +x,+y,+z
2 +z,+x,+y
3 +y,+z,+x
4 -y+3/4,+x+1/4,+z+3/4
5 +z+3/4,-y+3/4,+x+1/4
6 +x+1/4,+z+3/4,-y+3/4
7 -x+1/2,-y,+z+1/2
8 -z,+x+1/2,-y+1/2
9 -y+1/2,-z,+x+1/2
10 +x+1/2,-y+1/2,-z
11 +z+1/2,-x+1/2,-y
12 -y,+z+1/2,-x+1/2
13 +y+3/4,-x+3/4,+z+1/4
14 +z+1/4,+y+3/4,-x+3/4
15 -x+3/4,+z+1/4,+y+3/4
16 -x+1/4,-z+1/4,-y+1/4
17 -y+1/4,-x+1/4,-z+1/4
18 -z+1/4,-y+1/4,-x+1/4
19 +y+1/2,-z+1/2,-x
20 +y+1/4,+x+3/4,-z+3/4
21 -z+3/4,+y+1/4,+x+3/4
22 +x+3/4,-z+3/4,+y+1/4
23 -x,+y+1/2,-z+1/2
24 -z+1/2,-x,+y+1/2
loop_
_atom_site_aniso_label
_atom_site_aniso_U_11
_atom_site_aniso_U_12
_atom_site_aniso_U_13
_atom_site_aniso_U_22
_atom_site_aniso_U_23
_atom_site_aniso_U_33
O1 0.01356 -0.00427 -0.00427 0.01356 -0.00427 0.01356
O2 0.01178 0.00356 -0.00563 0.02266 0.00162 0.00625
loop_
_atom_site_type_symbol
_atom_site_label
_atom_site_fract_x
_atom_site_fract_y
_atom_site_fract_z
_atom_site_occupancy
_atom_site_thermal_displace_type
_atom_site_U_iso_or_equiv
_atom_site_symmetry_multiplicity
Li Li1 0.01895 0.01895 0.01895 0.85992 Uiso 0.0050(9) 8
Ni Ni1 0.625 0.625 0.625 1.0 Uiso 0.01397 4
Ge Ge1 0.125 0.37826 0.87174 1.0 Uiso 0.00985 12
O- O1 0.38524 0.38524 0.38524 1.0 Uani 0.01356 8
O- O2 0.09795 0.12628 0.3935 1.0 Uani 0.01356 24
Li LiCP -0.23095 0.875 0.01905 0.10353 Uiso 0.005(5) 12
loop_
_atom_type_symbol
_atom_type_number_in_cell
_atom_type_scat_length_neutron
_atom_type_scat_source
Li+1 6.879 -0.1900 International_Tables_Vol_C
Ni+2 4.0 1.0300 International_Tables_Vol_C
Ge+4 12.0 0.8185 International_Tables_Vol_C
O-2 32.0 0.5805 International_Tables_Vol_C
Li 1.242 -0.1900 International_Tables_Vol_C
loop_
_geom_angle_atom_site_label_1
_geom_angle_atom_site_label_2
_geom_angle_atom_site_label_3
_geom_angle
_geom_angle_site_symmetry_1
_geom_angle_site_symmetry_3
_geom_angle_publ_flag
Li1 Li1 O1 180.0 16_555 16_555 n
Li1 Li1 O2 79.3089(6) 16_555 16_555 n
Li1 Li1 O2 79.3089(14) 16_555 17_555 n
Li1 Li1 O2 79.3089(8) 16_555 18_555 n
Li1 Li1 LiCP 142.0247(6) 16_555 1_545 n
Li1 Li1 LiCP 142.02470(30) 16_555 2_554 n
Li1 Li1 LiCP 142.02470(30) 16_555 3_455 n
O1 Li1 O2 100.6911(6) 16_555 16_555 n
O1 Li1 O2 100.6911(14) 16_555 17_555 n
O1 Li1 O2 100.6911(8) 16_555 18_555 n
O1 Li1 LiCP 37.9753(6) 16_555 1_545 n
O1 Li1 LiCP 37.97530(30) 16_555 2_554 n
O1 Li1 LiCP 37.97530(30) 16_555 3_455 n
O2 Li1 O2 116.6396(5) 16_555 17_555 n
O2 Li1 O2 116.6396(12) 16_555 18_555 n
O2 Li1 LiCP 98.3811 16_555 1_545 n
O2 Li1 LiCP 67.8422(10) 16_555 2_554 n
O2 Li1 LiCP 132.07550(30) 16_555 3_455 n
O2 Li1 O2 116.6396(7) 17_555 18_555 n
O2 Li1 LiCP 132.0755(6) 17_555 1_545 n
O2 Li1 LiCP 98.3811(12) 17_555 2_554 n
O2 Li1 LiCP 67.8422(12) 17_555 3_455 n
O2 Li1 LiCP 67.84220(20) 18_555 1_545 n
O2 Li1 LiCP 132.0755(4) 18_555 2_554 n
O2 Li1 LiCP 98.3811(12) 18_555 3_455 n
LiCP Li1 LiCP 64.40110(20) 1_545 2_554 n
LiCP Li1 LiCP 64.4011(5) 1_545 3_455 n
LiCP Li1 LiCP 64.4011(7) 2_554 3_455 n
O2 Ni1 O2 79.2777 8_655 9_565 n
O2 Ni1 O2 79.27770(10) 8_655 10_556 n
O2 Ni1 O2 98.9858 8_655 13_555 n
O2 Ni1 O2 102.5356 8_655 14_555 n
O2 Ni1 O2 177.26570(10) 8_655 15_555 n
O2 Ni1 O2 79.2777 9_565 10_556 n
O2 Ni1 O2 177.2652 9_565 13_555 n
O2 Ni1 O2 98.9858 9_565 14_555 n
O2 Ni1 O2 102.5356 9_565 15_555 n
O2 Ni1 O2 102.5356 10_556 13_555 n
O2 Ni1 O2 177.2657 10_556 14_555 n
O2 Ni1 O2 98.9858 10_556 15_555 n
O2 Ni1 O2 79.2777 13_555 14_555 n
O2 Ni1 O2 79.27770(10) 13_555 15_555 n
O2 Ni1 O2 79.2777 14_555 15_555 n
O1 Ge1 O1 96.6278 5_455 7_565 n
O1 Ge1 O2 177.14079(10) 5_455 3_556 n
O1 Ge1 O2 93.28310(10) 5_455 11_456 n
O1 Ge1 O2 82.8995 5_455 17_556 n
O1 Ge1 O2 81.63850(10) 5_455 21_555 n
O1 Ge1 LiCP 36.4277(7) 5_455 8_556 n
O1 Ge1 LiCP 112.4396(5) 5_455 10_566 n
O1 Ge1 LiCP 48.3139(8) 5_455 12_655 n
O1 Ge1 O2 82.8995 7_565 3_556 n
O1 Ge1 O2 81.6385 7_565 11_456 n
O1 Ge1 O2 177.1411 7_565 17_556 n
O1 Ge1 O2 93.2831 7_565 21_555 n
O1 Ge1 LiCP 112.43960(30) 7_565 8_556 n
O1 Ge1 LiCP 36.42770(20) 7_565 10_566 n
O1 Ge1 LiCP 48.3139(8) 7_565 12_655 n
O2 Ge1 O2 89.4401 3_556 11_456 n
O2 Ge1 O2 97.7117 3_556 17_556 n
O2 Ge1 O2 95.56530(20) 3_556 21_555 n
O2 Ge1 LiCP 146.2529(6) 3_556 8_556 n
O2 Ge1 LiCP 65.5995(4) 3_556 10_566 n
O2 Ge1 LiCP 131.1441(8) 3_556 12_655 n
O2 Ge1 O2 95.5654 11_456 17_556 n
O2 Ge1 O2 172.40010(10) 11_456 21_555 n
O2 Ge1 LiCP 64.8440(5) 11_456 8_556 n
O2 Ge1 LiCP 112.51610(10) 11_456 10_566 n
O2 Ge1 LiCP 86.20010(10) 11_456 12_655 n
O2 Ge1 O2 89.4401 17_556 21_555 n
O2 Ge1 LiCP 65.59950(30) 17_556 8_556 n
O2 Ge1 LiCP 146.25290(20) 17_556 10_566 n
O2 Ge1 LiCP 131.1441(8) 17_556 12_655 n
O2 Ge1 LiCP 112.5161(7) 21_555 8_556 n
O2 Ge1 LiCP 64.84400(20) 21_555 10_566 n
O2 Ge1 LiCP 86.20010(20) 21_555 12_655 n
LiCP Ge1 LiCP 142.92270(10) 8_556 10_566 n
LiCP Ge1 LiCP 71.4614(12) 8_556 12_655 n
LiCP Ge1 LiCP 71.4614(11) 10_566 12_655 n
Li1 O1 Ge1 121.2034(8) 16_555 4_554 n
Li1 O1 Ge1 121.2034(4) 16_555 5_455 n
Li1 O1 Ge1 121.2034(4) 16_555 6_545 n
Li1 O1 LiCP 77.3805 16_555 16_556 n
Li1 O1 LiCP 77.3805(11) 16_555 17_655 n
Li1 O1 LiCP 77.3805(11) 16_555 18_565 n
Ge1 O1 Ge1 95.589 4_554 5_455 n
Ge1 O1 Ge1 95.589 4_554 6_545 n
Ge1 O1 LiCP 92.83630(10) 4_554 16_556 n
Ge1 O1 LiCP 149.9715(6) 4_554 17_655 n
Ge1 O1 LiCP 54.8515(6) 4_554 18_565 n
Ge1 O1 Ge1 95.589 5_455 6_545 n
Ge1 O1 LiCP 54.8515 5_455 16_556 n
Ge1 O1 LiCP 92.83630(20) 5_455 17_655 n
Ge1 O1 LiCP 149.9715(6) 5_455 18_565 n
Ge1 O1 LiCP 149.9715 6_545 16_556 n
Ge1 O1 LiCP 54.8515(6) 6_545 17_655 n
Ge1 O1 LiCP 92.83630(10) 6_545 18_565 n
LiCP O1 LiCP 115.3662(7) 16_556 17_655 n
LiCP O1 LiCP 115.36620(10) 16_556 18_565 n
LiCP O1 LiCP 115.3662(8) 17_655 18_565 n
Li1 O2 Ni1 109.3645(4) 16_555 4_544 n
Li1 O2 Ge1 121.4521(6) 16_555 2_455 n
Li1 O2 Ge1 128.8108(9) 16_555 9_565 n
Li1 O2 LiCP 64.7584(11) 16_555 18_565 n
Ni1 O2 Ge1 95.5101 4_544 2_455 n
Ni1 O2 Ge1 94.02290(10) 4_544 9_565 n
Ni1 O2 LiCP 143.97360(10) 4_544 18_565 n
Ge1 O2 Ge1 99.72570(10) 2_455 9_565 n
Ge1 O2 LiCP 118.296 2_455 18_565 n
Ge1 O2 LiCP 69.64710(30) 9_565 18_565 n
Li1 LiCP Li1 104.46070(30) 1_565 5_455 n
Li1 LiCP Ge1 90.3179 1_565 10_466 n
Li1 LiCP Ge1 95.3428 1_565 19_465 n
Li1 LiCP Ge1 127.7696(6) 1_565 20_455 n
Li1 LiCP O1 135.0111(4) 1_565 8_555 n
Li1 LiCP O1 64.6442(5) 1_565 16_565 n
Li1 LiCP O2 47.39940(30) 1_565 18_565 n
Li1 LiCP O2 91.7326 1_565 23_555 n
Li1 LiCP LiCP 57.79950(20) 1_565 2_564 n
Li1 LiCP LiCP 57.7994(6) 1_565 3_465 n
Li1 LiCP LiCP 103.55070(20) 1_565 9_565 n
Li1 LiCP LiCP 159.8553(5) 1_565 11_456 n
Li1 LiCP Ge1 95.3428(10) 5_455 10_466 n
Li1 LiCP Ge1 90.3179(12) 5_455 19_465 n
Li1 LiCP Ge1 127.7696(9) 5_455 20_455 n
Li1 LiCP O1 64.6442(8) 5_455 8_555 n
Li1 LiCP O1 135.0111(9) 5_455 16_565 n
Li1 LiCP O2 91.7326(12) 5_455 18_565 n
Li1 LiCP O2 47.39940(10) 5_455 23_555 n
Li1 LiCP LiCP 103.5508(9) 5_455 2_564 n
Li1 LiCP LiCP 159.8552(4) 5_455 3_465 n
Li1 LiCP LiCP 57.7994(11) 5_455 9_565 n
Li1 LiCP LiCP 57.79940(20) 5_455 11_456 n
Ge1 LiCP Ge1 170.76060(10) 10_466 19_465 n
Ge1 LiCP Ge1 85.3803(8) 10_466 20_455 n
Ge1 LiCP O1 50.73600(20) 10_466 8_555 n
Ge1 LiCP O1 126.59860(20) 10_466 16_565 n
Ge1 LiCP O2 45.50890(20) 10_466 18_565 n
Ge1 LiCP O2 141.7977(9) 10_466 23_555 n
Ge1 LiCP LiCP 145.93851(10) 10_466 2_564 n
Ge1 LiCP LiCP 94.2830(8) 10_466 3_465 n
Ge1 LiCP LiCP 37.89160(10) 10_466 9_565 n
Ge1 LiCP LiCP 82.64220(30) 10_466 11_456 n
Ge1 LiCP Ge1 85.3803(9) 19_465 20_455 n
Ge1 LiCP O1 126.5986(4) 19_465 8_555 n
Ge1 LiCP O1 50.7360(4) 19_465 16_565 n
Ge1 LiCP O2 141.79770(20) 19_465 18_565 n
Ge1 LiCP O2 45.5089(10) 19_465 23_555 n
Ge1 LiCP LiCP 37.89160(20) 19_465 2_564 n
Ge1 LiCP LiCP 82.6422(10) 19_465 3_465 n
Ge1 LiCP LiCP 145.93851(10) 19_465 9_565 n
Ge1 LiCP LiCP 94.2830(4) 19_465 11_456 n
Ge1 LiCP O1 76.8345(14) 20_455 8_555 n
Ge1 LiCP O1 76.8345(14) 20_455 16_565 n
Ge1 LiCP O2 121.8628(5) 20_455 18_565 n
Ge1 LiCP O2 121.86270(20) 20_455 23_555 n
Ge1 LiCP LiCP 104.1075(13) 20_455 2_564 n
Ge1 LiCP LiCP 70.6470(12) 20_455 3_465 n
Ge1 LiCP LiCP 104.1075(13) 20_455 9_565 n
Ge1 LiCP LiCP 70.6470(11) 20_455 11_456 n
O1 LiCP O1 153.6691 8_555 16_565 n
O1 LiCP O2 88.0960(7) 8_555 18_565 n
O1 LiCP O2 105.8840(6) 8_555 23_555 n
O1 LiCP LiCP 162.96690(10) 8_555 2_564 n
O1 LiCP LiCP 133.9594(4) 8_555 3_465 n
O1 LiCP LiCP 32.31690(20) 8_555 9_565 n
O1 LiCP LiCP 32.31690(10) 8_555 11_456 n
O1 LiCP O2 105.8841(8) 16_565 18_565 n
O1 LiCP O2 88.0960(8) 16_565 23_555 n
O1 LiCP LiCP 32.3169 16_565 2_564 n
O1 LiCP LiCP 32.3169(6) 16_565 3_465 n
O1 LiCP LiCP 162.96690(30) 16_565 9_565 n
O1 LiCP LiCP 133.9594 16_565 11_456 n
O2 LiCP O2 116.2745(6) 18_565 23_555 n
O2 LiCP LiCP 105.1027(5) 18_565 2_564 n
O2 LiCP LiCP 82.5026(13) 18_565 3_465 n
O2 LiCP LiCP 58.8094(5) 18_565 9_565 n
O2 LiCP LiCP 118.7082(8) 18_565 11_456 n
O2 LiCP LiCP 58.8094(7) 23_555 2_564 n
O2 LiCP LiCP 118.70820(20) 23_555 3_465 n
O2 LiCP LiCP 105.1027(10) 23_555 9_565 n
O2 LiCP LiCP 82.50260(30) 23_555 11_456 n
LiCP LiCP LiCP 60.0000(5) 2_564 3_465 n
LiCP LiCP LiCP 151.785 2_564 9_565 n
LiCP LiCP LiCP 131.41780(20) 2_564 11_456 n
LiCP LiCP LiCP 131.4178(9) 3_465 9_565 n
LiCP LiCP LiCP 141.29410(10) 3_465 11_456 n
LiCP LiCP LiCP 60.00000(30) 9_565 11_456 n
loop_
_geom_bond_atom_site_label_1
_geom_bond_atom_site_label_2
_geom_bond_distance
_geom_bond_site_symmetry_2
_geom_bond_publ_flag
Li1 Li1 3.03996(4) 16_555 n
Li1 O1 2.210080(30) 16_555 n
Li1 O2 1.942200(30) 16_555 n
Li1 O2 1.942200(20) 17_555 n
Li1 O2 1.942200(30) 18_555 n
Li1 LiCP 2.38660(4) 1_545 n
Li1 LiCP 2.386600(30) 2_554 n
Li1 LiCP 2.386600(30) 3_455 n
Ni1 Ge1 2.94500(5) 4_554 n
Ni1 Ge1 2.94500(4) 5_455 n
Ni1 Ge1 2.94500(4) 6_545 n
Ni1 Ge1 2.94500(4) 19_566 n
Ni1 Ge1 2.94500(4) 20_556 n
Ni1 Ge1 2.94500(5) 22_565 n
Ni1 O2 2.09699(4) 8_655 n
Ni1 O2 2.09699(4) 9_565 n
Ni1 O2 2.09699(4) 10_556 n
Ni1 O2 2.09699(4) 13_555 n
Ni1 O2 2.09699(4) 14_555 n
Ni1 O2 2.09699(4) 15_555 n
Ge1 Ni1 2.94500(5) 5_455 n
Ge1 Ni1 2.94500(4) 6_446 n
Ge1 Ge1 2.90688(4) 4_554 n
Ge1 Ge1 2.90688(4) 8_656 n
Ge1 Ge1 2.90688(4) 9_565 n
Ge1 Ge1 2.90688(5) 19_466 n
Ge1 O1 1.96214(4) 5_455 n
Ge1 O1 1.96214(4) 7_565 n
Ge1 O2 1.876190(30) 3_556 n
Ge1 O2 1.925880(30) 11_456 n
Ge1 O2 1.876190(30) 17_556 n
Ge1 O2 1.925880(30) 21_555 n
Ge1 LiCP 2.531190(30) 8_556 n
Ge1 LiCP 2.53118(4) 10_566 n
Ge1 LiCP 1.647680(20) 12_655 n
O1 Li1 2.210080(30) 16_555 n
O1 Ge1 1.96214(4) 4_554 n
O1 Ge1 1.96214(4) 5_455 n
O1 Ge1 1.96214(4) 6_545 n
O1 LiCP 1.504880(30) 16_556 n
O1 LiCP 1.504880(20) 17_655 n
O1 LiCP 1.504880(20) 18_565 n
O2 Li1 1.942200(20) 16_555 n
O2 Ni1 2.09699(4) 4_544 n
O2 Ge1 1.876190(30) 2_455 n
O2 Ge1 1.925880(30) 9_565 n
O2 LiCP 2.450160(30) 8_556 n
O2 LiCP 2.44367(4) 18_565 n
LiCP Li1 2.38660(4) 1_565 n
LiCP Li1 2.386600(30) 5_455 n
LiCP Ge1 2.53118(4) 10_466 n
LiCP Ge1 2.53118(4) 19_465 n
LiCP Ge1 1.647680(20) 20_455 n
LiCP O1 1.504880(20) 8_555 n
LiCP O1 1.504880(20) 16_565 n
LiCP O2 2.45016(4) 15_454 n
LiCP O2 2.44367(4) 18_565 n
LiCP O2 2.45016(4) 19_465 n
LiCP O2 2.44367(4) 23_555 n
LiCP LiCP 2.54356(4) 2_564 n
LiCP LiCP 2.543560(30) 3_465 n
LiCP LiCP 2.543560(30) 9_565 n
LiCP LiCP 2.54356(4) 11_456 n
loop_
_pd_meas_time_of_flight
_pd_proc_d_spacing
_pd_meas_intensity_total
_pd_proc_ls_weight
_pd_proc_intensity_bkg_calc
_pd_calc_intensity_total
1000.00 . 9.64(12) . . .
1001.00 . 9.63(12) . . .
1002.00 . 9.62(12) . . .
1003.00 . 9.52(12) . . .
1004.00 . 9.58(12) . . .
1005.00 . 9.71(12) . . .
1006.00 . 9.81(12) . . .
1007.00 . 9.78(12) . . .
1008.00 . 9.82(12) . . .
1009.00 . 9.78(12) . . .
1010.00 . 9.69(12) . . .
1011.00 . 9.84(12) . . .
1012.00 . 9.82(12) . . .
1013.00 . 9.71(12) . . .
1014.00 . 9.71(12) . . .
1015.00 . 9.73(12) . . .
1016.00 . 9.66(12) . . .
1017.00 . 9.73(12) . . .
1018.00 . 9.74(12) . . .
1019.00 . 9.78(12) . . .
1020.00 . 9.74(12) . . .
1021.00 . 9.73(12) . . .
1022.00 . 9.71(12) . . .
1023.00 . 9.73(12) . . .
1024.00 . 9.72(12) . . .
1025.00 . 9.64(12) . . .
1026.00 . 9.58(12) . . .
1027.00 . 9.73(12) . . .
1028.00 . 9.83(12) . . .
1029.00 . 9.80(12) . . .
1030.00 . 9.82(12) . . .
1031.00 . 9.75(12) . . .
1032.00 . 9.61(12) . . .
1033.00 . 9.65(12) . . .
1034.00 . 9.67(12) . . .
1035.00 . 9.78(12) . . .
1036.00 . 9.88(12) . . .
1037.00 . 9.71(12) . . .
1038.00 . 9.83(12) . . .
1039.00 . 9.79(12) . . .
1040.00 . 9.79(12) . . .
1041.00 . 9.68(12) . . .
1042.00 . 9.70(12) . . .
1043.00 . 9.85(12) . . .
1044.00 . 9.81(12) . . .
1045.00 . 9.75(12) . . .
1046.00 . 9.82(12) . . .
1047.00 . 9.71(12) . . .
1048.00 . 9.61(12) . . .
1049.00 . 9.68(12) . . .
1050.00 . 9.69(12) . . .
1051.00 . 9.59(12) . . .
1052.00 . 9.63(12) . . .
1053.00 . 9.72(12) . . .
1054.00 . 9.70(12) . . .
1055.00 . 9.70(12) . . .
1056.00 . 9.73(12) . . .
1057.00 . 9.70(12) . . .
1058.00 . 9.63(12) . . .
1059.00 . 9.60(12) . . .
1060.00 . 9.66(12) . . .
1061.00 . 9.76(12) . . .
1062.00 . 9.89(12) . . .
1063.00 . 9.70(12) . . .
1064.00 . 9.65(12) . . .
1065.00 . 9.55(12) . . .
1066.00 . 9.56(12) . . .
1067.00 . 9.63(12) . . .
1068.00 . 9.57(12) . . .
1069.00 . 9.76(12) . . .
1070.00 . 9.68(12) . . .
1071.00 . 9.65(12) . . .
1072.00 . 9.70(12) . . .
1073.00 . 9.82(12) . . .
1074.00 . 9.72(12) . . .
1075.00 . 9.79(12) . . .
1076.00 . 9.63(12) . . .
1077.00 . 9.56(12) . . .
1078.00 . 9.76(12) . . .
1079.00 . 9.76(12) . . .
1080.00 . 9.72(12) . . .
1081.00 . 9.78(12) . . .
1082.00 . 9.79(12) . . .
1083.00 . 9.73(12) . . .
1084.00 . 9.74(12) . . .
1085.00 . 9.76(12) . . .
1086.00 . 9.73(12) . . .
1087.00 . 9.79(12) . . .
1088.00 . 9.84(12) . . .
1089.00 . 9.78(12) . . .
1090.00 . 9.78(12) . . .
1091.00 . 9.85(12) . . .
1092.00 . 9.86(12) . . .
1093.00 . 9.83(12) . . .
1094.00 . 9.73(12) . . .
1095.00 . 9.65(12) . . .
1096.00 . 9.62(12) . . .
1097.00 . 9.60(12) . . .
1098.00 . 9.53(12) . . .
1099.00 . 9.64(12) . . .
1100.00 . 9.66(12) . . .
1101.00 . 9.62(12) . . .
1102.00 . 9.71(12) . . .
1103.00 . 9.80(12) . . .
1104.00 . 9.63(12) . . .
1105.00 . 9.73(12) . . .
1106.00 . 9.59(12) . . .
1107.00 . 9.47(12) . . .
1108.00 . 9.65(12) . . .
1109.00 . 9.48(12) . . .
1110.00 . 9.57(12) . . .
1111.00 . 9.61(12) . . .
1112.00 . 9.60(12) . . .
1113.00 . 9.56(12) . . .
1114.00 . 9.56(12) . . .
1115.00 . 9.55(12) . . .
1116.00 . 9.47(12) . . .
1117.00 . 9.52(12) . . .
1118.00 . 9.56(12) . . .
1119.00 . 9.67(12) . . .
1120.00 . 9.67(12) . . .
1121.00 . 9.73(12) . . .
1122.00 . 9.73(12) . . .
1123.00 . 9.70(12) . . .
1124.00 . 9.73(12) . . .
1125.00 . 9.64(12) . . .
1126.00 . 9.65(12) . . .
1127.00 . 9.68(12) . . .
1128.00 . 9.56(12) . . .
1129.00 . 9.62(12) . . .
1130.00 . 9.77(12) . . .
1131.00 . 9.76(12) . . .
1132.00 . 9.58(12) . . .
1133.00 . 9.62(12) . . .
1134.00 . 9.64(12) . . .
1135.00 . 9.79(12) . . .
1136.00 . 9.85(12) . . .
1137.00 . 9.70(12) . . .
1138.00 . 9.68(12) . . .
1139.00 . 9.75(12) . . .
1140.00 . 9.87(12) . . .
1141.00 . 9.63(12) . . .
1142.00 . 9.68(12) . . .
1143.00 . 9.75(12) . . .
1144.00 . 9.81(12) . . .
1145.00 . 9.76(12) . . .
1146.00 . 9.89(13) . . .
1147.00 . 9.80(12) . . .
1148.00 . 9.76(12) . . .
1149.00 . 9.69(12) . . .
1150.00 . 9.70(12) . . .
1151.00 . 9.68(12) . . .
1152.00 . 9.78(12) . . .
1153.00 . 9.76(12) . . .
1154.00 . 9.73(12) . . .
1155.00 . 9.75(12) . . .
1156.00 . 9.73(12) . . .
1157.00 . 9.67(12) . . .
1158.00 . 9.79(12) . . .
1159.00 . 9.76(12) . . .
1160.00 . 9.62(12) . . .
1161.00 . 9.59(12) . . .
1162.00 . 9.79(12) . . .
1163.00 . 9.77(12) . . .
1164.00 . 9.70(12) . . .
1165.00 . 9.65(12) . . .
1166.00 . 9.72(12) . . .
1167.00 . 9.71(12) . . .
1168.00 . 9.74(12) . . .
1169.00 . 9.69(12) . . .
1170.00 . 9.65(12) . . .
1171.00 . 9.67(12) . . .
1172.00 . 9.76(12) . . .
1173.00 . 9.82(13) . . .
1174.00 . 9.69(12) . . .
1175.00 . 9.65(12) . . .
1176.00 . 9.67(12) . . .
1177.00 . 9.70(12) . . .
1178.00 . 9.68(12) . . .
1179.00 . 9.55(12) . . .
1180.00 . 9.67(12) . . .
1181.00 . 9.78(12) . . .
1182.00 . 9.73(12) . . .
1183.00 . 9.78(12) . . .
1184.00 . 9.75(12) . . .
1185.00 . 9.71(12) . . .
1186.00 . 9.52(12) . . .
1187.00 . 9.68(12) . . .
1188.00 . 9.53(12) . . .
1189.00 . 9.54(12) . . .
1190.00 . 9.59(12) . . .
1191.00 . 9.77(12) . . .
1192.00 . 9.66(12) . . .
1193.00 . 9.60(12) . . .
1194.00 . 9.61(12) . . .
1195.00 . 9.60(12) . . .
1196.00 . 9.54(12) . . .
1197.00 . 9.73(12) . . .
1198.00 . 9.86(13) . . .
1199.00 . 9.83(13) . . .
1200.00 . 9.70(12) . . .
1201.00 . 9.60(12) . . .
1202.00 . 9.60(12) . . .
1203.00 . 9.61(12) . . .
1204.00 . 9.67(12) . . .
1205.00 . 9.69(12) . . .
1206.00 . 9.71(12) . . .
1207.00 . 9.76(13) . . .
1208.00 . 9.81(13) . . .
1209.00 . 9.79(13) . . .
1210.00 . 9.70(12) . . .
1211.00 . 9.69(12) . . .
1212.00 . 9.58(12) . . .
1213.00 . 9.69(12) . . .
1214.00 . 9.69(12) . . .
1215.00 . 9.60(12) . . .
1216.00 . 9.65(12) . . .
1217.00 . 9.63(12) . . .
1218.00 . 9.61(12) . . .
1219.00 . 9.58(12) . . .
1220.00 . 9.80(13) . . .
1221.00 . 9.66(12) . . .
1222.00 . 9.66(12) . . .
1223.00 . 9.75(13) . . .
1224.00 . 9.66(12) . . .
1225.00 . 9.78(13) . . .
1226.00 . 9.80(13) . . .
1227.00 . 9.77(13) . . .
1228.00 . 9.63(12) . . .
1229.00 . 9.57(12) . . .
1230.00 . 9.50(12) . . .
1231.00 . 9.70(13) . . .
1232.00 . 9.74(13) . . .
1233.00 . 9.68(12) . . .
1234.00 . 9.67(12) . . .
1235.00 . 9.65(12) . . .
1236.00 . 9.66(12) . . .
1237.00 . 9.60(12) . . .
1238.00 . 9.55(12) . . .
1239.00 . 9.62(12) . . .
1240.00 . 9.63(12) . . .
1241.00 . 9.66(12) . . .
1242.00 . 9.65(12) . . .
1243.00 . 9.66(12) . . .
1244.00 . 9.73(13) . . .
1245.00 . 9.66(12) . . .
1246.00 . 9.63(12) . . .
1247.00 . 9.74(13) . . .
1248.00 . 9.62(12) . . .
1249.00 . 9.51(12) . . .
1250.00 . 9.73(13) . . .
1251.00 . 9.81(13) . . .
1252.00 . 9.76(13) . . .
1253.00 . 9.76(13) . . .
1254.00 . 9.74(13) . . .
1255.00 . 9.70(13) . . .
1256.00 . 9.78(13) . . .
1257.00 . 9.60(12) . . .
1258.00 . 9.56(12) . . .
1259.00 . 9.60(12) . . .
1260.00 . 9.53(12) . . .
1261.00 . 9.50(12) . . .
1262.00 . 9.82(13) . . .
1263.00 . 9.73(13) . . .
1264.00 . 9.61(12) . . .
1265.00 . 9.56(12) . . .
1266.00 . 9.58(12) . . .
1267.00 . 9.67(13) . . .
1268.00 . 9.63(12) . . .
1269.00 . 9.68(13) . . .
1270.00 . 9.69(13) . . .
1271.00 . 9.78(13) . . .
1272.00 . 9.77(13) . . .
1273.00 . 9.80(13) . . .
1274.00 . 9.77(13) . . .
1275.00 . 9.74(13) . . .
1276.00 . 9.66(13) . . .
1277.00 . 9.66(13) . . .
1278.00 . 9.66(13) . . .
1279.00 . 9.67(13) . . .
1280.00 . 9.71(13) . . .
1281.00 . 9.65(13) . . .
1282.00 . 9.55(12) . . .
1283.00 . 9.56(12) . . .
1284.00 . 9.66(13) . . .
1285.00 . 9.59(12) . . .
1286.00 . 9.53(12) . . .
1287.00 . 9.58(12) . . .
1288.00 . 9.60(12) . . .
1289.00 . 9.65(13) . . .
1290.00 . 9.56(12) . . .
1291.00 . 9.53(12) . . .
1292.00 . 9.59(12) . . .
1293.00 . 9.61(13) . . .
1294.00 . 9.69(13) . . .
1295.00 . 9.56(12) . . .
1296.00 . 9.77(13) . . .
1297.00 . 9.76(13) . . .
1298.00 . 9.74(13) . . .
1299.00 . 9.67(13) . . .
1300.00 . 9.65(13) . . .
1301.00 . 9.49(12) . . .
1302.00 . 9.55(12) . . .
1303.00 . 9.72(13) . . .
1304.00 . 9.62(13) . . .
1305.00 . 9.60(13) . . .
1306.00 . 9.67(13) . . .
1307.00 . 9.59(13) . . .
1308.00 . 9.65(13) . . .
1309.00 . 9.72(13) . . .
1310.00 . 9.57(12) . . .
1311.00 . 9.46(12) . . .
1312.00 . 9.67(13) . . .
1313.00 . 9.71(13) . . .
1314.00 . 9.55(12) . . .
1315.00 . 9.43(12) . . .
1316.00 . 9.47(12) . . .
1317.00 . 9.44(12) . . .
1318.00 . 9.52(12) . . .
1319.00 . 9.65(13) . . .
1320.00 . 9.71(13) . . .
1321.00 . 9.66(13) . . .
1322.00 . 9.77(13) . . .
1323.00 . 9.78(13) . . .
1324.00 . 9.59(13) . . .
1325.00 . 9.51(12) . . .
1326.00 . 9.63(13) . . .
1327.00 . 9.64(13) . . .
1328.00 . 9.62(13) . . .
1329.00 . 9.78(13) . . .
1330.00 . 9.68(13) . . .
1331.00 . 9.65(13) . . .
1332.00 . 9.78(13) . . .
1333.00 . 9.60(13) . . .
1334.00 . 9.70(13) . . .
1335.00 . 9.71(13) . . .
1336.00 . 9.62(13) . . .
1337.00 . 9.64(13) . . .
1338.00 . 9.65(13) . . .
1339.00 . 9.66(13) . . .
1340.00 . 9.62(13) . . .
1341.00 . 9.61(13) . . .
1342.00 . 9.53(12) . . .
1343.00 . 9.56(13) . . .
1344.00 . 9.58(13) . . .
1345.00 . 9.68(13) . . .
1346.00 . 9.78(13) . . .
1347.00 . 9.67(13) . . .
1348.00 . 9.57(13) . . .
1349.00 . 9.70(13) . . .
1350.00 . 9.66(13) . . .
1351.00 . 9.65(13) . . .
1352.00 . 9.50(12) . . .
1353.00 . 9.50(12) . . .
1354.00 . 9.51(12) . . .
1355.00 . 9.49(12) . . .
1356.00 . 9.57(13) . . .
1357.00 . 9.57(13) . . .
1358.00 . 9.60(13) . . .
1359.00 . 9.66(13) . . .
1360.00 . 9.57(13) . . .
1361.00 . 9.58(13) . . .
1362.00 . 9.76(13) . . .
1363.00 . 9.81(13) . . .
1364.00 . 9.73(13) . . .
1365.00 . 9.55(13) . . .
1366.00 . 9.61(13) . . .
1367.00 . 9.68(13) . . .
1368.00 . 9.66(13) . . .
1369.00 . 9.61(13) . . .
1370.00 . 9.53(13) . . .
1371.00 . 9.41(12) . . .
1372.00 . 9.59(13) . . .
1373.00 . 9.55(13) . . .
1374.00 . 9.66(13) . . .
1375.00 . 9.74(13) . . .
1376.00 . 9.63(13) . . .
1377.00 . 9.72(13) . . .
1378.00 . 9.58(13) . . .
1379.00 . 9.64(13) . . .
1380.00 . 9.54(13) . . .
1381.00 . 9.69(13) . . .
1382.00 . 9.53(13) . . .
1383.00 . 9.49(13) . . .
1384.00 . 9.47(13) . . .
1385.00 . 9.62(13) . . .
1386.00 . 9.69(13) . . .
1387.00 . 9.73(13) . . .
1388.00 . 9.65(13) . . .
1389.00 . 9.73(13) . . .
1390.00 . 9.57(13) . . .
1391.00 . 9.50(13) . . .
1392.00 . 9.63(13) . . .
1393.00 . 9.72(13) . . .
1394.00 . 9.70(13) . . .
1395.00 . 9.60(13) . . .
1396.00 . 9.52(13) . . .
1397.00 . 9.55(13) . . .
1398.00 . 9.57(13) . . .
1399.00 . 9.56(13) . . .
1400.00 . 9.58(13) . . .
1401.00 . 9.59(13) . . .
1402.00 . 9.54(13) . . .
1403.00 . 9.49(13) . . .
1404.00 . 9.51(13) . . .
1405.00 . 9.53(13) . . .
1406.00 . 9.73(13) . . .
1407.00 . 9.51(13) . . .
1408.00 . 9.43(13) . . .
1409.00 . 9.49(13) . . .
1410.00 . 9.53(13) . . .
1411.00 . 9.45(13) . . .
1412.00 . 9.53(13) . . .
1413.00 . 9.61(13) . . .
1414.00 . 9.66(13) . . .
1415.00 . 9.73(13) . . .
1416.00 . 9.60(13) . . .
1417.00 . 9.51(13) . . .
1418.00 . 9.54(13) . . .
1419.00 . 9.54(13) . . .
1420.00 . 9.65(13) . . .
1421.00 . 9.67(13) . . .
1422.00 . 9.75(13) . . .
1423.00 . 9.71(13) . . .
1424.00 . 9.66(13) . . .
1425.00 . 9.55(13) . . .
1426.00 . 9.48(13) . . .
1427.00 . 9.51(13) . . .
1428.00 . 9.56(13) . . .
1429.00 . 9.48(13) . . .
1430.00 . 9.43(13) . . .
1431.00 . 9.47(13) . . .
1432.00 . 9.45(13) . . .
1433.00 . 9.52(13) . . .
1434.00 . 9.54(13) . . .
1435.00 . 9.55(13) . . .
1436.00 . 9.52(13) . . .
1437.00 . 9.46(13) . . .
1438.00 . 9.54(13) . . .
1439.00 . 9.62(13) . . .
1440.00 . 9.63(13) . . .
1441.00 . 9.58(13) . . .
1442.00 . 9.60(13) . . .
1443.00 . 9.57(13) . . .
1444.00 . 9.66(13) . . .
1445.00 . 9.65(13) . . .
1446.00 . 9.63(13) . . .
1447.00 . 9.67(13) . . .
1448.00 . 9.71(13) . . .
1449.00 . 9.65(13) . . .
1450.00 . 9.68(13) . . .
1451.00 . 9.41(13) . . .
1452.00 . 9.51(13) . . .
1453.00 . 9.57(13) . . .
1454.00 . 9.66(13) . . .
1455.00 . 9.54(13) . . .
1456.00 . 9.66(13) . . .
1457.00 . 9.64(13) . . .
1458.00 . 9.55(13) . . .
1459.00 . 9.51(13) . . .
1460.00 . 9.49(13) . . .
1461.00 . 9.34(13) . . .
1462.00 . 9.41(13) . . .
1463.00 . 9.53(13) . . .
1464.00 . 9.55(13) . . .
1465.00 . 9.42(13) . . .
1466.00 . 9.46(13) . . .
1467.00 . 9.54(13) . . .
1468.00 . 9.53(13) . . .
1469.00 . 9.53(13) . . .
1470.00 . 9.53(13) . . .
1471.00 . 9.65(13) . . .
1472.00 . 9.62(13) . . .
1473.00 . 9.66(13) . . .
1474.00 . 9.77(13) . . .
1475.00 . 9.58(13) . . .
1476.00 . 9.44(13) . . .
1477.00 . 9.43(13) . . .
1478.00 . 9.53(13) . . .
1479.00 . 9.52(13) . . .
1480.00 . 9.55(13) . . .
1481.00 . 9.54(13) . . .
1482.00 . 9.45(13) . . .
1483.00 . 9.38(13) . . .
1484.00 . 9.49(13) . . .
1485.00 . 9.53(13) . . .
1486.00 . 9.41(13) . . .
1487.00 . 9.56(13) . . .
1488.00 . 9.53(13) . . .
1489.00 . 9.41(13) . . .
1490.00 . 9.48(13) . . .
1491.00 . 9.57(13) . . .
1492.00 . 9.41(13) . . .
1493.00 . 9.47(13) . . .
1494.00 . 9.53(13) . . .
1495.00 . 9.43(13) . . .
1496.00 . 9.48(13) . . .
1497.00 . 9.45(13) . . .
1498.00 . 9.38(13) . . .
1499.00 . 9.32(13) . . .
1500.00 . 9.33(13) . . .
1501.00 . 9.48(13) . . .
1502.00 . 9.53(13) . . .
1503.00 . 9.57(13) . . .
1504.00 . 9.57(13) . . .
1505.00 . 9.53(13) . . .
1506.00 . 9.41(13) . . .
1507.00 . 9.37(13) . . .
1508.00 . 9.49(13) . . .
1509.00 . 9.47(13) . . .
1510.00 . 9.47(13) . . .
1511.00 . 9.54(13) . . .
1512.00 . 9.36(13) . . .
1513.00 . 9.34(13) . . .
1514.00 . 9.39(13) . . .
1515.00 . 9.31(13) . . .
1516.00 . 9.41(13) . . .
1517.00 . 9.42(13) . . .
1518.00 . 9.47(13) . . .
1519.00 . 9.51(13) . . .
1520.00 . 9.67(13) . . .
1521.00 . 9.41(13) . . .
1522.00 . 9.42(13) . . .
1523.00 . 9.51(13) . . .
1524.00 . 9.59(13) . . .
1525.00 . 9.46(13) . . .
1526.00 . 9.44(13) . . .
1527.00 . 9.39(13) . . .
1528.00 . 9.36(13) . . .
1529.00 . 9.29(13) . . .
1530.00 . 9.51(13) . . .
1531.00 . 9.57(13) . . .
1532.00 . 9.57(13) . . .
1533.00 . 9.40(13) . . .
1534.00 . 9.30(13) . . .
1535.00 . 9.51(13) . . .
1536.00 . 9.39(13) . . .
1537.00 . 9.45(13) . . .
1538.00 . 9.51(13) . . .
1539.00 . 9.37(13) . . .
1540.00 . 9.43(13) . . .
1541.00 . 9.49(13) . . .
1542.00 . 9.47(13) . . .
1543.00 . 9.53(13) . . .
1544.00 . 9.56(13) . . .
1545.00 . 9.54(13) . . .
1546.00 . 9.54(13) . . .
1547.00 . 9.56(13) . . .
1548.00 . 9.55(13) . . .
1549.00 . 9.50(13) . . .
1550.00 . 9.53(13) . . .
1551.00 . 9.51(13) . . .
1552.00 . 9.45(13) . . .
1553.00 . 9.49(13) . . .
1554.00 . 9.51(13) . . .
1555.00 . 9.47(13) . . .
1556.00 . 9.55(13) . . .
1557.00 . 9.43(13) . . .
1558.00 . 9.47(13) . . .
1559.00 . 9.45(13) . . .
1560.00 . 9.47(13) . . .
1561.00 . 9.36(13) . . .
1562.00 . 9.54(13) . . .
1563.00 . 9.51(13) . . .
1564.00 . 9.36(13) . . .
1565.00 . 9.47(13) . . .
1566.00 . 9.37(13) . . .
1567.00 . 9.36(13) . . .
1568.00 . 9.51(13) . . .
1569.00 . 9.47(13) . . .
1570.00 . 9.60(13) . . .
1571.00 . 9.54(13) . . .
1572.00 . 9.36(13) . . .
1573.00 . 9.30(13) . . .
1574.00 . 9.41(13) . . .
1575.00 . 9.38(13) . . .
1576.00 . 9.44(13) . . .
1577.00 . 9.54(13) . . .
1578.00 . 9.46(13) . . .
1579.00 . 9.61(13) . . .
1580.00 . 9.61(13) . . .
1581.00 . 9.63(13) . . .
1582.00 . 9.62(13) . . .
1583.00 . 9.51(13) . . .
1584.00 . 9.53(13) . . .
1585.00 . 9.75(13) . . .
1586.00 . 9.73(13) . . .
1587.00 . 9.59(13) . . .
1588.00 . 9.53(13) . . .
1589.00 . 9.53(13) . . .
1590.00 . 9.50(13) . . .
1591.00 . 9.47(13) . . .
1592.00 . 9.56(13) . . .
1593.00 . 9.45(13) . . .
1594.00 . 9.60(13) . . .
1595.00 . 9.64(13) . . .
1596.00 . 9.67(13) . . .
1597.00 . 9.51(13) . . .
1598.00 . 9.53(13) . . .
1599.00 . 9.54(13) . . .
1600.00 . 9.46(13) . . .
1601.00 . 9.65(13) . . .
1602.00 . 9.73(13) . . .
1603.00 . 9.57(13) . . .
1604.00 . 9.61(13) . . .
1605.00 . 9.61(13) . . .
1606.00 . 9.76(13) . . .
1607.00 . 9.75(13) . . .
1608.00 . 9.65(13) . . .
1609.00 . 9.58(13) . . .
1610.00 . 9.69(13) . . .
1611.00 . 9.63(13) . . .
1612.00 . 9.56(13) . . .
1613.00 . 9.47(13) . . .
1614.00 . 9.40(13) . . .
1615.00 . 9.52(13) . . .
1616.00 . 9.51(13) . . .
1617.00 . 9.53(13) . . .
1618.00 . 9.58(13) . . .
1619.00 . 9.65(13) . . .
1620.00 . 9.55(13) . . .
1621.00 . 9.44(13) . . .
1622.00 . 9.45(13) . . .
1623.00 . 9.57(13) . . .
1624.00 . 9.66(13) . . .
1625.00 . 9.59(13) . . .
1626.00 . 9.48(13) . . .
1627.00 . 9.50(13) . . .
1628.00 . 9.63(13) . . .
1629.00 . 9.58(13) . . .
1630.00 . 9.53(13) . . .
1631.00 . 9.46(13) . . .
1632.00 . 9.42(13) . . .
1633.00 . 9.26(13) . . .
1634.00 . 9.44(13) . . .
1635.00 . 9.54(13) . . .
1636.00 . 9.61(13) . . .
1637.00 . 9.67(13) . . .
1638.00 . 9.69(13) . . .
1639.00 . 9.54(13) . . .
1640.00 . 9.55(13) . . .
1641.00 . 9.45(13) . . .
1642.00 . 9.65(13) . . .
1643.00 . 9.52(13) . . .
1644.00 . 9.60(13) . . .
1645.00 . 9.51(13) . . .
1646.00 . 9.69(13) . . .
1647.00 . 9.73(13) . . .
1648.00 . 9.74(13) . . .
1649.00 . 9.66(13) . . .
1650.00 . 9.49(13) . . .
1651.00 . 9.49(13) . . .
1652.00 . 9.65(13) . . .
1653.00 . 9.69(13) . . .
1654.00 . 9.59(13) . . .
1655.00 . 9.46(13) . . .
1656.00 . 9.59(13) . . .
1657.00 . 9.57(13) . . .
1658.00 . 9.48(13) . . .
1659.00 . 9.59(13) . . .
1660.00 . 9.65(13) . . .
1661.00 . 9.66(13) . . .
1662.00 . 9.63(13) . . .
1663.00 . 9.56(13) . . .
1664.00 . 9.56(13) . . .
1665.00 . 9.43(13) . . .
1666.00 . 9.50(13) . . .
1667.00 . 9.63(13) . . .
1668.00 . 9.35(13) . . .
1669.00 . 9.37(13) . . .
1670.00 . 9.57(13) . . .
1671.00 . 9.58(13) . . .
1672.00 . 9.52(13) . . .
1673.00 . 9.76(13) . . .
1674.00 . 9.56(13) . . .
1675.00 . 9.40(13) . . .
1676.00 . 9.54(13) . . .
1677.00 . 9.56(13) . . .
1678.00 . 9.37(13) . . .
1679.00 . 9.26(13) . . .
1680.00 . 9.45(13) . . .
1681.00 . 9.53(13) . . .
1682.00 . 9.38(13) . . .
1683.00 . 9.49(13) . . .
1684.00 . 9.39(13) . . .
1685.00 . 9.47(13) . . .
1686.00 . 9.56(13) . . .
1687.00 . 9.53(13) . . .
1688.00 . 9.45(13) . . .
1689.00 . 9.37(13) . . .
1690.00 . 9.33(13) . . .
1691.00 . 9.53(13) . . .
1692.00 . 9.51(13) . . .
1693.00 . 9.37(13) . . .
1694.00 . 9.36(13) . . .
1695.00 . 9.40(13) . . .
1696.00 . 9.42(13) . . .
1697.00 . 9.37(13) . . .
1698.00 . 9.49(13) . . .
1699.00 . 9.52(13) . . .
1700.00 . 9.48(13) . . .
1701.00 . 9.41(13) . . .
1702.00 . 9.50(13) . . .
1703.00 . 9.58(13) . . .
1704.00 . 9.48(13) . . .
1705.00 . 9.50(13) . . .
1706.00 . 9.47(13) . . .
1707.00 . 9.35(13) . . .
1708.00 . 9.34(13) . . .
1709.00 . 9.51(13) . . .
1710.00 . 9.49(13) . . .
1711.00 . 9.52(13) . . .
1712.00 . 9.49(13) . . .
1713.00 . 9.49(13) . . .
1714.00 . 9.50(13) . . .
1715.00 . 9.49(13) . . .
1716.00 . 9.39(13) . . .
1717.00 . 9.51(13) . . .
1718.00 . 9.60(13) . . .
1719.00 . 9.54(13) . . .
1720.00 . 9.33(13) . . .
1721.00 . 9.72(13) . . .
1722.00 . 9.43(13) . . .
1723.00 . 9.38(13) . . .
1724.00 . 9.47(13) . . .
1725.00 . 9.41(13) . . .
1726.00 . 9.45(13) . . .
1727.00 . 9.40(13) . . .
1728.00 . 9.41(13) . . .
1729.00 . 9.47(13) . . .
1730.00 . 9.55(13) . . .
1731.00 . 9.60(13) . . .
1732.00 . 9.56(13) . . .
1733.00 . 9.43(13) . . .
1734.00 . 9.40(13) . . .
1735.00 . 9.35(13) . . .
1736.00 . 9.33(13) . . .
1737.00 . 9.38(13) . . .
1738.00 . 9.41(13) . . .
1739.00 . 9.49(13) . . .
1740.00 . 9.46(13) . . .
1741.00 . 9.42(13) . . .
1742.00 . 9.48(13) . . .
1743.00 . 9.51(13) . . .
1744.00 . 9.52(13) . . .
1745.00 . 9.50(13) . . .
1746.00 . 9.46(13) . . .
1747.00 . 9.40(13) . . .
1748.00 . 9.32(13) . . .
1749.00 . 9.33(13) . . .
1750.00 . 9.41(13) . . .
1751.00 . 9.45(13) . . .
1752.00 . 9.53(13) . . .
1753.00 . 9.37(13) . . .
1754.00 . 9.39(13) . . .
1755.00 . 9.48(13) . . .
1756.00 . 9.51(13) . . .
1757.00 . 9.60(13) . . .
1758.00 . 9.50(13) . . .
1759.00 . 9.41(13) . . .
1760.00 . 9.50(13) . . .
1761.00 . 9.48(13) . . .
1762.00 . 9.43(13) . . .
1763.00 . 9.52(13) . . .
1764.00 . 9.50(13) . . .
1765.00 . 9.50(13) . . .
1766.00 . 9.43(13) . . .
1767.00 . 9.39(13) . . .
1768.00 . 9.36(13) . . .
1769.00 . 9.44(13) . . .
1770.00 . 9.45(13) . . .
1771.00 . 9.39(13) . . .
1772.00 . 9.36(13) . . .
1773.00 . 9.40(13) . . .
1774.00 . 9.48(13) . . .
1775.00 . 9.42(13) . . .
1776.00 . 9.38(13) . . .
1777.00 . 9.41(13) . . .
1778.00 . 9.40(13) . . .
1779.00 . 9.39(13) . . .
1780.00 . 9.41(13) . . .
1781.00 . 9.38(13) . . .
1782.00 . 9.29(13) . . .
1783.00 . 9.31(13) . . .
1784.00 . 9.40(13) . . .
1785.00 . 9.45(13) . . .
1786.00 . 9.50(13) . . .
1787.00 . 9.38(13) . . .
1788.00 . 9.41(13) . . .
1789.00 . 9.62(13) . . .
1790.00 . 9.32(13) . . .
1791.00 . 9.28(13) . . .
1792.00 . 9.17(13) . . .
1793.00 . 9.45(13) . . .
1794.00 . 9.31(13) . . .
1795.00 . 9.37(13) . . .
1796.00 . 9.35(13) . . .
1797.00 . 9.31(13) . . .
1798.00 . 9.22(13) . . .
1799.00 . 9.31(13) . . .
1800.00 . 9.34(13) . . .
1801.00 . 9.32(13) . . .
1802.00 . 9.47(13) . . .
1803.00 . 9.57(13) . . .
1804.00 . 9.36(13) . . .
1805.00 . 9.33(13) . . .
1806.00 . 9.37(13) . . .
1807.00 . 9.33(13) . . .
1808.00 . 9.32(13) . . .
1809.00 . 9.36(13) . . .
1810.00 . 9.33(13) . . .
1811.00 . 9.19(13) . . .
1812.00 . 9.30(13) . . .
1813.00 . 9.53(13) . . .
1814.00 . 9.56(13) . . .
1815.00 . 9.47(13) . . .
1816.00 . 9.41(13) . . .
1817.00 . 9.61(13) . . .
1818.00 . 9.50(13) . . .
1819.00 . 9.42(13) . . .
1820.00 . 9.54(13) . . .
1821.00 . 9.43(13) . . .
1822.00 . 9.31(13) . . .
1823.00 . 9.42(13) . . .
1824.00 . 9.51(13) . . .
1825.00 . 9.49(13) . . .
1826.00 . 9.39(13) . . .
1827.00 . 9.38(13) . . .
1828.00 . 9.44(13) . . .
1829.00 . 9.57(13) . . .
1830.00 . 9.60(13) . . .
1831.00 . 9.31(13) . . .
1832.00 . 9.29(13) . . .
1833.00 . 9.52(13) . . .
1834.00 . 9.37(13) . . .
1835.00 . 9.26(13) . . .
1836.00 . 9.31(13) . . .
1837.00 . 9.36(13) . . .
1838.00 . 9.32(13) . . .
1839.00 . 9.35(13) . . .
1840.00 . 9.42(13) . . .
1841.00 . 9.32(13) . . .
1842.00 . 9.37(13) . . .
1843.00 . 9.41(13) . . .
1844.00 . 9.50(13) . . .
1845.00 . 9.41(13) . . .
1846.00 . 9.39(13) . . .
1847.00 . 9.41(13) . . .
1848.00 . 9.42(13) . . .
1849.00 . 9.42(13) . . .
1850.00 . 9.50(13) . . .
1851.00 . 9.56(13) . . .
1852.00 . 9.48(13) . . .
1853.00 . 9.37(13) . . .
1854.00 . 9.46(13) . . .
1855.00 . 9.62(13) . . .
1856.00 . 9.44(13) . . .
1857.00 . 9.23(13) . . .
1858.00 . 9.30(13) . . .
1859.00 . 9.44(13) . . .
1860.00 . 9.36(13) . . .
1861.00 . 9.14(13) . . .
1862.00 . 9.29(13) . . .
1863.00 . 9.31(13) . . .
1864.00 . 9.24(13) . . .
1865.00 . 9.35(13) . . .
1866.00 . 9.41(13) . . .
1867.00 . 9.28(13) . . .
1868.00 . 9.36(13) . . .
1869.00 . 9.16(13) . . .
1870.00 . 9.35(13) . . .
1871.00 . 9.22(13) . . .
1872.00 . 9.34(13) . . .
1873.00 . 9.33(13) . . .
1874.00 . 9.30(13) . . .
1875.00 . 9.35(13) . . .
1876.00 . 9.44(13) . . .
1877.00 . 9.33(13) . . .
1878.00 . 9.30(13) . . .
1879.00 . 9.27(13) . . .
1880.00 . 9.23(13) . . .
1881.00 . 9.22(13) . . .
1882.00 . 9.22(13) . . .
1883.00 . 9.22(13) . . .
1884.00 . 9.18(13) . . .
1885.00 . 9.27(13) . . .
1886.00 . 9.32(13) . . .
1887.00 . 9.39(13) . . .
1888.00 . 9.36(13) . . .
1889.00 . 9.35(13) . . .
1890.00 . 9.39(13) . . .
1891.00 . 9.35(13) . . .
1892.00 . 9.33(13) . . .
1893.00 . 9.46(13) . . .
1894.00 . 9.35(13) . . .
1895.00 . 9.13(13) . . .
1896.00 . 9.22(13) . . .
1897.00 . 9.34(13) . . .
1898.00 . 9.25(13) . . .
1899.00 . 9.39(13) . . .
1900.00 . 9.53(13) . . .
1901.00 . 9.40(13) . . .
1902.00 . 9.45(13) . . .
1903.00 . 9.39(13) . . .
1904.00 . 9.41(13) . . .
1905.00 . 9.46(13) . . .
1906.00 . 9.27(13) . . .
1907.00 . 9.24(13) . . .
1908.00 . 9.29(13) . . .
1909.00 . 9.29(13) . . .
1910.00 . 9.29(13) . . .
1911.00 . 9.33(13) . . .
1912.00 . 9.35(13) . . .
1913.00 . 9.43(13) . . .
1914.00 . 9.48(13) . . .
1915.00 . 9.44(13) . . .
1916.00 . 9.45(13) . . .
1917.00 . 9.38(13) . . .
1918.00 . 9.33(13) . . .
1919.00 . 9.43(13) . . .
1920.00 . 9.32(13) . . .
1921.00 . 9.27(13) . . .
1922.00 . 9.24(13) . . .
1923.00 . 9.23(13) . . .
1924.00 . 9.28(13) . . .
1925.00 . 9.38(13) . . .
1926.00 . 9.28(13) . . .
1927.00 . 9.27(13) . . .
1928.00 . 9.43(13) . . .
1929.00 . 9.44(13) . . .
1930.00 . 9.31(13) . . .
1931.00 . 9.14(13) . . .
1932.00 . 9.30(13) . . .
1933.00 . 9.34(13) . . .
1934.00 . 9.27(13) . . .
1935.00 . 9.28(13) . . .
1936.00 . 9.26(13) . . .
1937.00 . 9.05(13) . . .
1938.00 . 9.08(13) . . .
1939.00 . 9.25(13) . . .
1940.00 . 9.17(13) . . .
1941.00 . 9.10(13) . . .
1942.00 . 9.21(13) . . .
1943.00 . 9.41(13) . . .
1944.00 . 9.35(13) . . .
1945.00 . 9.30(13) . . .
1946.00 . 9.36(13) . . .
1947.00 . 9.17(13) . . .
1948.00 . 9.10(13) . . .
1949.00 . 9.21(13) . . .
1950.00 . 9.27(13) . . .
1951.00 . 9.18(13) . . .
1952.00 . 9.34(13) . . .
1953.00 . 9.19(13) . . .
1954.00 . 9.21(13) . . .
1955.00 . 9.25(13) . . .
1956.00 . 9.22(13) . . .
1957.00 . 9.19(13) . . .
1958.00 . 9.33(13) . . .
1959.00 . 9.30(13) . . .
1960.00 . 9.22(13) . . .
1961.00 . 9.28(13) . . .
1962.00 . 9.37(13) . . .
1963.00 . 9.40(13) . . .
1964.00 . 9.32(13) . . .
1965.00 . 9.25(13) . . .
1966.00 . 9.28(13) . . .
1967.00 . 9.30(13) . . .
1968.00 . 9.32(13) . . .
1969.00 . 9.33(13) . . .
1970.00 . 9.28(13) . . .
1971.00 . 9.11(13) . . .
1972.00 . 9.13(13) . . .
1973.00 . 9.31(13) . . .
1974.00 . 9.27(13) . . .
1975.00 . 9.26(13) . . .
1976.00 . 9.29(13) . . .
1977.00 . 9.25(13) . . .
1978.00 . 9.33(13) . . .
1979.00 . 9.26(13) . . .
1980.00 . 9.15(13) . . .
1981.00 . 9.27(13) . . .
1982.00 . 9.43(13) . . .
1983.00 . 9.50(13) . . .
1984.00 . 9.40(13) . . .
1985.00 . 9.52(13) . . .
1986.00 . 9.39(13) . . .
1987.00 . 9.51(13) . . .
1988.00 . 9.43(13) . . .
1989.00 . 9.42(13) . . .
1990.00 . 9.34(13) . . .
1991.00 . 9.49(13) . . .
1992.00 . 9.47(13) . . .
1993.00 . 9.61(14) . . .
1994.00 . 9.43(13) . . .
1995.00 . 9.48(13) . . .
1996.00 . 9.48(13) . . .
1997.00 . 9.41(13) . . .
1998.00 . 9.45(13) . . .
1999.00 . 9.37(13) . . .
2000.00 . 9.29(13) . . .
2001.00 . 9.27(13) . . .
2002.00 . 9.22(13) . . .
2003.00 . 9.46(13) . . .
2004.00 . 9.51(14) . . .
2005.00 . 9.30(13) . . .
2006.00 . 9.38(13) . . .
2007.00 . 9.31(13) . . .
2008.00 . 9.18(13) . . .
2009.03 . 9.36(13) . . .
2010.03 . 9.34(13) . . .
2011.03 . 9.31(13) . . .
2012.03 . 9.27(13) . . .
2013.03 . 9.35(13) . . .
2014.03 . 9.45(13) . . .
2015.06 . 9.47(13) . . .
2016.06 . 9.44(13) . . .
2017.06 . 9.40(13) . . .
2018.06 . 9.53(13) . . .
2019.09 . 9.69(14) . . .
2020.09 . 9.47(13) . . .
2021.09 . 9.43(13) . . .
2022.13 . 9.30(13) . . .
2023.13 . 9.27(13) . . .
2024.13 . 9.42(13) . . .
2025.16 . 9.39(13) . . .
2026.16 . 9.40(13) . . .
2027.19 . 9.36(13) . . .
2028.19 . 9.51(13) . . .
2029.22 . 9.37(13) . . .
2030.22 . 9.43(13) . . .
2031.22 . 9.41(13) . . .
2032.25 . 9.27(13) . . .
2033.25 . 9.11(13) . . .
2034.28 . 9.24(13) . . .
2035.31 . 9.33(13) . . .
2036.31 . 9.47(13) . . .
2037.34 . 9.49(13) . . .
2038.34 . 9.55(13) . . .
2039.38 . 9.48(13) . . .
2040.41 . 9.44(13) . . .
2041.41 . 9.46(13) . . .
2042.44 . 9.41(13) . . .
2043.47 . 9.30(13) . . .
2044.47 . 9.50(13) . . .
2045.50 . 9.55(13) . . .
2046.53 . 9.47(13) . . .
2047.53 . 9.32(13) . . .
2048.56 . 9.37(13) . . .
2049.59 . 9.38(13) . . .
2050.63 . 9.34(13) . . .
2051.66 . 9.41(13) . . .
2052.66 . 9.42(13) . . .
2053.69 . 9.48(13) . . .
2054.72 . 9.44(13) . . .
2055.75 . 9.43(13) . . .
2056.78 . 9.63(13) . . .
2057.81 . 9.66(13) . . .
2058.84 . 9.59(13) . . .
2059.88 . 9.71(13) . . .
2060.91 . 9.63(13) . . .
2061.94 . 9.67(13) . . .
2062.97 . 9.49(13) . . .
2064.00 . 9.42(13) . . .
2065.03 . 9.52(13) . . .
2066.06 . 9.47(13) . . .
2067.09 . 9.56(13) . . .
2068.13 . 9.57(13) . . .
2069.16 . 9.67(13) . . .
2070.19 . 9.52(13) . . .
2071.22 . 9.60(13) . . .
2072.25 . 9.65(13) . . .
2073.28 . 9.59(13) . . .
2074.34 . 9.69(13) . . .
2075.38 . 9.65(13) . . .
2076.41 . 9.70(13) . . .
2077.44 . 9.81(14) . . .
2078.47 . 9.78(14) . . .
2079.53 . 9.72(13) . . .
2080.56 . 9.71(13) . . .
2081.59 . 9.72(13) . . .
2082.66 . 9.55(13) . . .
2083.69 . 9.67(13) . . .
2084.72 . 9.54(13) . . .
2085.78 . 9.52(13) . . .
2086.81 . 9.53(13) . . .
2087.84 . 9.43(13) . . .
2088.91 . 9.46(13) . . .
2089.94 . 9.51(13) . . .
2091.00 . 9.50(13) . . .
2092.03 . 9.49(13) . . .
2093.09 . 9.46(13) . . .
2094.13 . 9.24(13) . . .
2095.19 . 9.23(13) . . .
2096.22 . 9.22(13) . . .
2097.28 . 9.47(13) . . .
2098.31 . 9.44(13) . . .
2099.38 . 9.47(13) . . .
2100.41 . 9.34(13) . . .
2101.47 . 9.41(13) . . .
2102.53 . 9.48(13) . . .
2103.56 . 9.29(13) . . .
2104.63 . 9.30(13) . . .
2105.66 . 9.48(13) . . .
2106.72 . 9.44(13) . . .
2107.78 . 9.36(13) . . .
2108.84 . 9.38(13) . . .
2109.88 . 9.59(13) . . .
2110.94 . 9.35(13) . . .
2112.00 . 9.48(13) . . .
2113.06 . 9.58(13) . . .
2114.09 . 9.56(13) . . .
2115.16 . 9.40(13) . . .
2116.22 . 9.32(13) . . .
2117.28 . 9.39(13) . . .
2118.34 . 9.29(13) . . .
2119.41 . 9.27(13) . . .
2120.47 . 9.30(13) . . .
2121.53 . 9.31(13) . . .
2122.59 . 9.44(13) . . .
2123.66 . 9.41(13) . . .
2124.72 . 9.23(13) . . .
2125.75 . 9.18(13) . . .
2126.84 . 9.14(13) . . .
2127.91 . 9.43(13) . . .
2128.97 . 9.50(13) . . .
2130.03 . 9.53(13) . . .
2131.09 . 9.52(13) . . .
2132.16 . 9.38(13) . . .
2133.22 . 9.60(13) . . .
2134.28 . 9.58(13) . . .
2135.34 . 9.40(13) . . .
2136.41 . 9.42(13) . . .
2137.50 . 9.43(13) . . .
2138.56 . 9.37(13) . . .
2139.63 . 9.34(13) . . .
2140.69 . 9.47(13) . . .
2141.75 . 9.46(13) . . .
2142.84 . 9.35(13) . . .
2143.91 . 9.25(13) . . .
2144.97 . 9.24(13) . . .
2146.06 . 9.08(13) . . .
2147.13 . 9.27(13) . . .
2148.19 . 9.35(13) . . .
2149.28 . 9.25(13) . . .
2150.34 . 9.28(13) . . .
2151.44 . 9.21(13) . . .
2152.50 . 9.15(13) . . .
2153.56 . 9.13(13) . . .
2154.66 . 9.32(13) . . .
2155.72 . 9.31(13) . . .
2156.81 . 9.44(13) . . .
2157.88 . 9.53(13) . . .
2158.97 . 9.48(13) . . .
2160.03 . 9.58(13) . . .
2161.13 . 9.58(13) . . .
2162.22 . 9.38(13) . . .
2163.28 . 9.40(13) . . .
2164.38 . 9.37(13) . . .
2165.44 . 9.33(13) . . .
2166.53 . 9.50(13) . . .
2167.63 . 9.39(13) . . .
2168.69 . 9.35(13) . . .
2169.78 . 9.33(13) . . .
2170.88 . 9.43(13) . . .
2171.94 . 9.16(13) . . .
2173.03 . 9.24(13) . . .
2174.13 . 9.44(13) . . .
2175.22 . 9.31(13) . . .
2176.31 . 9.26(13) . . .
2177.38 . 9.29(13) . . .
2178.47 . 9.51(13) . . .
2179.56 . 9.58(13) . . .
2180.66 . 9.53(13) . . .
2181.75 . 9.39(13) . . .
2182.84 . 9.45(13) . . .
2183.94 . 9.66(13) . . .
2185.03 . 9.74(13) . . .
2186.13 . 9.60(13) . . .
2187.22 . 9.65(13) . . .
2188.31 . 9.83(13) . . .
2189.41 . 9.84(13) . . .
2190.50 . 9.75(13) . . .
2191.59 . 9.78(13) . . .
2192.69 . 9.84(13) . . .
2193.78 . 9.81(13) . . .
2194.88 . 9.57(13) . . .
2195.97 . 9.59(13) . . .
2197.06 . 9.74(13) . . .
2198.16 . 9.56(13) . . .
2199.25 . 9.56(13) . . .
2200.38 . 9.38(13) . . .
2201.47 . 9.08(13) . . .
2202.56 . 9.05(13) . . .
2203.66 . 9.37(13) . . .
2204.78 . 9.15(13) . . .
2205.88 . 8.99(13) . . .
2206.97 . 9.11(13) . . .
2208.06 . 9.28(13) . . .
2209.19 . 9.14(13) . . .
2210.28 . 9.26(13) . . .
2211.41 . 9.36(13) . . .
2212.50 . 9.41(13) . . .
2213.59 . 9.21(13) . . .
2214.72 . 9.38(13) . . .
2215.81 . 9.19(13) . . .
2216.94 . 9.20(13) . . .
2218.03 . 9.23(13) . . .
2219.16 . 9.28(13) . . .
2220.25 . 9.14(13) . . .
2221.38 . 9.43(13) . . .
2222.47 . 9.27(13) . . .
2223.59 . 9.29(13) . . .
2224.69 . 9.04(13) . . .
2225.81 . 9.25(13) . . .
2226.94 . 9.30(13) . . .
2228.03 . 9.37(13) . . .
2229.16 . 9.31(13) . . .
2230.25 . 9.22(13) . . .
2231.38 . 9.35(13) . . .
2232.50 . 9.35(13) . . .
2233.63 . 9.33(13) . . .
2234.72 . 9.15(13) . . .
2235.84 . 9.20(13) . . .
2236.97 . 9.24(13) . . .
2238.09 . 9.10(13) . . .
2239.19 . 9.10(13) . . .
2240.31 . 9.10(13) . . .
2241.44 . 8.87(12) . . .
2242.56 . 9.02(13) . . .
2243.69 . 8.97(13) . . .
2244.81 . 9.02(13) . . .
2245.94 . 8.95(13) . . .
2247.06 . 9.06(13) . . .
2248.19 . 8.94(12) . . .
2249.31 . 8.92(12) . . .
2250.44 . 9.07(13) . . .
2251.56 . 8.95(12) . . .
2252.69 . 9.06(13) . . .
2253.81 . 9.00(13) . . .
2254.94 . 8.88(12) . . .
2256.06 . 8.87(12) . . .
2257.19 . 8.88(12) . . .
2258.31 . 8.85(12) . . .
2259.44 . 8.88(12) . . .
2260.56 . 8.94(12) . . .
2261.69 . 8.83(12) . . .
2262.84 . 8.92(12) . . .
2263.97 . 8.95(12) . . .
2265.09 . 8.90(12) . . .
2266.22 . 8.86(12) . . .
2267.34 . 9.02(13) . . .
2268.50 . 8.98(12) . . .
2269.63 . 8.76(12) . . .
2270.75 . 9.02(12) . . .
2271.91 . 9.06(13) . . .
2273.03 . 9.10(13) . . .
2274.16 . 8.76(12) . . .
2275.31 . 8.90(12) . . .
2276.44 . 8.94(12) . . .
2277.59 . 8.89(12) . . .
2278.72 . 8.89(12) . . .
2279.88 . 9.03(12) . . .
2281.00 . 8.92(12) . . .
2282.16 . 9.09(13) . . .
2283.28 . 9.25(13) . . .
2284.44 . 9.05(12) . . .
2285.56 . 9.24(13) . . .
2286.72 0.49984 8.97(12) 0.0 8.728 .
2287.84 0.50008 9.16(13) 63.5 8.726 9.347
2289.00 0.50034 9.24(13) 63.0 8.724 9.370
2290.16 0.50059 9.18(13) 63.4 8.723 9.398
2291.28 0.50084 9.10(13) 63.9 8.721 9.429
2292.44 0.50109 9.06(12) 64.3 8.719 9.461
2293.56 0.50134 9.18(13) 63.5 8.718 9.490
2294.72 0.50159 9.34(13) 62.5 8.716 9.512
2295.88 0.50184 9.33(13) 62.5 8.714 9.522
2297.03 0.50209 9.39(13) 62.2 8.713 9.518
2298.16 0.50234 9.31(13) 62.7 8.711 9.500
2299.31 0.50259 9.25(13) 63.2 8.709 9.472
2300.47 0.50285 9.13(13) 63.9 8.708 9.437
2301.63 0.50310 9.26(13) 63.2 8.706 9.401
2302.78 0.50335 9.12(12) 64.1 8.704 9.367
2303.91 0.50360 9.14(12) 64.0 8.703 9.337
2305.06 0.50385 9.12(12) 64.2 8.701 9.311
2306.22 0.50410 9.07(12) 64.6 8.699 9.291
2307.38 0.50436 9.06(12) 64.7 8.698 9.276
2308.53 0.50461 9.15(12) 64.1 8.696 9.264
2309.69 0.50486 9.10(12) 64.5 8.694 9.255
2310.84 0.50512 9.04(12) 64.9 8.693 9.248
2312.00 0.50537 9.05(12) 64.8 8.691 9.241
2313.16 0.50562 9.19(13) 63.9 8.689 9.233
2314.31 0.50588 9.16(12) 64.1 8.688 9.223
2315.47 0.50613 9.10(12) 64.6 8.686 9.210
2316.63 0.50638 8.97(12) 65.6 8.684 9.195
2317.78 0.50663 8.96(12) 65.7 8.683 9.177
2318.94 0.50689 9.10(12) 64.7 8.681 9.157
2320.09 0.50714 8.98(12) 65.6 8.679 9.135
2321.25 0.50739 9.03(12) 65.3 8.678 9.110
2322.41 0.50765 8.88(12) 66.3 8.676 9.084
2323.59 0.50791 8.91(12) 66.2 8.674 9.056
2324.75 0.50816 9.06(12) 65.1 8.673 9.029
2325.91 0.50841 8.97(12) 65.8 8.671 9.003
2327.06 0.50867 8.86(12) 66.7 8.669 8.978
2328.22 0.50892 8.87(12) 66.6 8.668 8.956
2329.41 0.50918 8.82(12) 67.1 8.666 8.939
2330.56 0.50943 8.97(12) 65.9 8.664 8.926
2331.72 0.50968 8.91(12) 66.4 8.663 8.917
2332.91 0.50994 8.79(12) 67.3 8.661 8.914
2334.06 0.51020 8.80(12) 67.3 8.659 8.915
2335.22 0.51045 8.86(12) 66.9 8.658 8.922
2336.41 0.51071 8.76(12) 67.7 8.656 8.934
2337.56 0.51096 8.85(12) 67.0 8.654 8.950
2338.72 0.51122 8.95(12) 66.3 8.653 8.969
2339.91 0.51148 8.88(12) 66.9 8.651 8.992
2341.06 0.51173 8.75(12) 67.8 8.649 9.018
2342.25 0.51199 8.94(12) 66.4 8.648 9.047
2343.41 0.51224 9.09(12) 65.3 8.646 9.079
2344.59 0.51250 8.96(12) 66.4 8.644 9.115
2345.75 0.51275 8.84(12) 67.3 8.643 9.155
2346.94 0.51301 8.87(12) 67.2 8.641 9.198
2348.09 0.51327 9.06(12) 65.7 8.640 9.242
2349.28 0.51353 9.09(12) 65.5 8.638 9.287
2350.44 0.51378 9.19(12) 64.8 8.636 9.329
2351.63 0.51404 9.25(12) 64.5 8.634 9.366
2352.81 0.51430 9.02(12) 66.1 8.633 9.391
2353.97 0.51455 9.13(12) 65.3 8.631 9.405
2355.16 0.51481 9.27(12) 64.4 8.629 9.405
2356.34 0.51507 9.34(13) 63.9 8.628 9.393
2357.50 0.51533 9.20(12) 64.9 8.626 9.371
2358.69 0.51559 9.27(12) 64.5 8.625 9.341
2359.88 0.51585 9.07(12) 65.9 8.623 9.305
2361.06 0.51610 9.11(12) 65.7 8.621 9.266
2362.22 0.51636 9.10(12) 65.8 8.620 9.225
2363.41 0.51662 8.93(12) 67.1 8.618 9.181
2364.59 0.51688 8.94(12) 67.1 8.616 9.138
2365.78 0.51714 8.93(12) 67.2 8.614 9.095
2366.97 0.51740 8.97(12) 66.9 8.613 9.056
2368.13 0.51765 8.94(12) 67.1 8.611 9.019
2369.31 0.51791 8.87(12) 67.7 8.610 8.986
2370.50 0.51817 8.74(12) 68.8 8.608 8.958
2371.69 0.51843 8.86(12) 67.8 8.606 8.935
2372.88 0.51869 8.84(12) 68.0 8.605 8.918
2374.06 0.51895 8.86(12) 67.9 8.603 8.905
2375.25 0.51921 8.78(12) 68.6 8.601 8.898
2376.44 0.51947 8.86(12) 67.9 8.600 8.896
2377.63 0.51973 8.88(12) 67.9 8.598 8.900
2378.81 0.51999 8.83(12) 68.3 8.596 8.910
2380.00 0.52025 8.89(12) 67.8 8.595 8.928
2381.19 0.52051 8.87(12) 68.0 8.593 8.955
2382.38 0.52077 8.91(12) 67.8 8.591 8.991
2383.59 0.52103 9.00(12) 67.1 8.589 9.035
2384.78 0.52129 9.06(12) 66.7 8.588 9.085
2385.97 0.52155 9.10(12) 66.4 8.586 9.138
2387.16 0.52181 9.03(12) 67.0 8.584 9.191
2388.34 0.52207 9.02(12) 67.1 8.583 9.239
2389.53 0.52233 9.01(12) 67.2 8.581 9.278
2390.75 0.52260 9.07(12) 66.8 8.579 9.302
2391.94 0.52286 9.15(12) 66.2 8.578 9.310
2393.13 0.52312 9.22(12) 65.7 8.576 9.305
2394.31 0.52338 9.13(12) 66.5 8.574 9.288
2395.53 0.52365 9.04(12) 67.2 8.573 9.262
2396.72 0.52391 8.94(12) 67.9 8.571 9.232
2397.91 0.52417 8.99(12) 67.5 8.569 9.198
2399.13 0.52443 8.95(12) 67.9 8.568 9.162
2400.31 0.52469 9.14(12) 66.5 8.566 9.124
2401.53 0.52496 8.86(12) 68.7 8.564 9.086
2402.72 0.52522 8.87(12) 68.7 8.563 9.048
2403.91 0.52548 8.83(12) 68.9 8.561 9.010
2405.13 0.52575 8.74(12) 69.7 8.559 8.976
2406.31 0.52601 8.68(12) 70.3 8.558 8.945
2407.53 0.52627 8.96(12) 68.1 8.556 8.919
2408.72 0.52653 8.68(12) 70.3 8.554 8.898
2409.94 0.52680 8.88(12) 68.7 8.553 8.883
2411.16 0.52707 8.82(12) 69.2 8.551 8.875
2412.34 0.52733 8.84(12) 69.1 8.549 8.873
2413.56 0.52759 8.81(12) 69.3 8.548 8.877
2414.75 0.52785 8.92(12) 68.6 8.546 8.886
2415.97 0.52812 8.78(12) 69.8 8.544 8.903
2417.19 0.52839 8.94(12) 68.5 8.543 8.925
2418.38 0.52864 8.93(12) 68.6 8.541 8.954
2419.59 0.52891 8.96(12) 68.4 8.539 8.990
2420.81 0.52918 8.95(12) 68.5 8.538 9.033
2422.00 0.52944 9.05(12) 67.7 8.536 9.081
2423.22 0.52970 8.97(12) 68.5 8.534 9.134
2424.44 0.52997 9.04(12) 67.9 8.533 9.187
2425.66 0.53024 9.04(12) 68.0 8.531 9.238
2426.88 0.53050 9.19(12) 66.9 8.529 9.283
2428.06 0.53076 9.17(12) 67.1 8.528 9.318
2429.28 0.53103 9.10(12) 67.6 8.526 9.341
2430.50 0.53130 9.21(12) 66.8 8.524 9.349
2431.72 0.53156 9.16(12) 67.3 8.523 9.344
2432.94 0.53183 9.19(12) 67.1 8.521 9.327
2434.16 0.53210 9.17(12) 67.2 8.519 9.301
2435.38 0.53236 9.12(12) 67.6 8.518 9.269
2436.59 0.53263 9.09(12) 67.9 8.516 9.233
2437.81 0.53290 9.09(12) 68.0 8.514 9.194
2439.03 0.53316 9.06(12) 68.2 8.513 9.153
2440.25 0.53343 8.91(12) 69.3 8.511 9.110
2441.47 0.53370 8.84(12) 70.0 8.509 9.067
2442.69 0.53396 9.11(12) 67.9 8.508 9.025
2443.91 0.53423 8.98(12) 68.9 8.506 8.988
2445.13 0.53450 8.99(12) 68.9 8.504 8.959
2446.34 0.53476 8.81(12) 70.4 8.503 8.937
2447.56 0.53503 8.90(12) 69.7 8.501 8.926
2448.78 0.53530 8.96(12) 69.3 8.499 8.926
2450.03 0.53557 8.97(12) 69.2 8.498 8.938
2451.25 0.53584 9.11(12) 68.2 8.496 8.963
2452.47 0.53610 9.21(12) 67.4 8.494 9.000
2453.69 0.53637 9.07(12) 68.5 8.493 9.048
2454.94 0.53664 8.94(12) 69.5 8.491 9.107
2456.16 0.53691 9.15(12) 68.0 8.489 9.172
2457.38 0.53718 9.19(12) 67.7 8.488 9.243
2458.59 0.53745 9.18(12) 67.9 8.486 9.317
2459.84 0.53772 9.47(12) 65.8 8.484 9.389
2461.06 0.53799 9.34(12) 66.7 8.483 9.454
2462.31 0.53826 9.17(12) 68.0 8.481 9.508
2463.53 0.53853 9.32(12) 66.9 8.479 9.545
2464.75 0.53879 9.46(12) 66.0 8.478 9.562
2466.00 0.53907 9.50(12) 65.8 8.476 9.557
2467.22 0.53933 9.40(12) 66.5 8.474 9.533
2468.47 0.53961 9.45(12) 66.2 8.473 9.493
2469.69 0.53987 9.39(12) 66.6 8.471 9.445
2470.94 0.54015 9.31(12) 67.2 8.469 9.393
2472.16 0.54041 9.34(12) 67.1 8.468 9.342
2473.41 0.54069 9.35(12) 67.0 8.466 9.293
2474.63 0.54095 9.37(12) 66.9 8.464 9.248
2475.88 0.54123 9.26(12) 67.7 8.462 9.204
2477.13 0.54150 9.21(12) 68.1 8.461 9.162
2478.34 0.54177 8.99(12) 69.9 8.459 9.121
2479.59 0.54204 9.17(12) 68.5 8.457 9.079
2480.84 0.54231 9.07(12) 69.3 8.456 9.038
2482.06 0.54258 9.08(12) 69.3 8.454 8.998
2483.31 0.54285 8.99(12) 70.0 8.452 8.958
2484.56 0.54313 8.92(12) 70.6 8.451 8.923
2485.78 0.54339 9.10(12) 69.2 8.449 8.892
2487.03 0.54367 8.87(12) 71.0 8.447 8.866
2488.28 0.54394 8.89(12) 70.9 8.446 8.847
2489.53 0.54421 9.09(12) 69.4 8.444 8.836
2490.78 0.54449 9.12(12) 69.3 8.442 8.832
2492.03 0.54476 9.00(12) 70.2 8.441 8.835
2493.25 0.54503 8.95(12) 70.6 8.439 8.844
2494.50 0.54530 8.93(12) 70.8 8.437 8.858
2495.75 0.54558 8.81(12) 71.8 8.436 8.874
2497.00 0.54585 8.82(12) 71.7 8.434 8.891
2498.25 0.54612 8.88(12) 71.3 8.432 8.910
2499.50 0.54640 8.93(12) 70.9 8.431 8.930
2500.75 0.54667 8.98(12) 70.6 8.429 8.952
2502.00 0.54694 9.10(12) 69.7 8.427 8.979
2503.25 0.54722 9.17(12) 69.2 8.426 9.011
2504.50 0.54749 9.06(12) 70.1 8.424 9.051
2505.75 0.54776 9.23(12) 68.8 8.422 9.099
2507.00 0.54804 9.26(12) 68.6 8.421 9.153
2508.25 0.54831 9.26(12) 68.6 8.419 9.214
2509.53 0.54859 9.39(12) 67.7 8.417 9.279
2510.78 0.54886 9.47(12) 67.2 8.416 9.342
2512.03 0.54914 9.58(12) 66.5 8.414 9.403
2513.28 0.54941 9.42(12) 67.6 8.412 9.456
2514.53 0.54968 9.50(12) 67.1 8.411 9.502
2515.81 0.54996 9.55(12) 66.7 8.409 9.544
2517.06 0.55024 9.48(12) 67.3 8.407 9.587
2518.31 0.55051 9.66(12) 66.1 8.406 9.637
2519.56 0.55079 9.73(12) 65.6 8.404 9.700
2520.84 0.55107 9.65(12) 66.2 8.402 9.778
2522.09 0.55134 9.86(12) 64.8 8.401 9.869
2523.34 0.55161 10.02(13) 63.9 8.399 9.971
2524.63 0.55189 10.07(13) 63.6 8.397 10.075
2525.88 0.55217 9.86(12) 64.9 8.396 10.172
2527.16 0.55245 10.09(13) 63.5 8.394 10.252
2528.41 0.55272 10.00(12) 64.1 8.392 10.303
2529.66 0.55299 9.97(12) 64.3 8.391 10.316
2530.94 0.55327 9.95(12) 64.5 8.389 10.286
2532.19 0.55355 9.97(12) 64.4 8.387 10.214
2533.47 0.55383 10.01(12) 64.1 8.385 10.108
2534.72 0.55410 9.79(12) 65.7 8.384 9.980
2536.00 0.55438 9.69(12) 66.3 8.382 9.841
2537.28 0.55466 9.76(12) 65.9 8.380 9.705
2538.53 0.55494 9.70(12) 66.3 8.379 9.576
2539.81 0.55522 9.62(12) 67.0 8.377 9.462
2541.06 0.55549 9.45(12) 68.2 8.375 9.364
2542.34 0.55577 9.41(12) 68.5 8.374 9.283
2543.63 0.55605 9.48(12) 68.1 8.372 9.223
2544.88 0.55632 9.34(12) 69.1 8.370 9.180
2546.16 0.55660 9.37(12) 69.0 8.369 9.154
2547.44 0.55688 9.40(12) 68.8 8.367 9.145
2548.72 0.55716 9.28(12) 69.7 8.365 9.153
2549.97 0.55744 9.34(12) 69.3 8.364 9.178
2551.25 0.55772 9.48(12) 68.3 8.362 9.217
2552.53 0.55800 9.54(12) 67.9 8.360 9.268
2553.81 0.55828 9.49(12) 68.2 8.359 9.327
2555.09 0.55856 9.61(12) 67.5 8.357 9.386
2556.38 0.55884 9.57(12) 67.8 8.355 9.440
2557.66 0.55912 9.54(12) 68.1 8.354 9.478
2558.91 0.55939 9.52(12) 68.2 8.352 9.494
2560.19 0.55967 9.59(12) 67.8 8.350 9.484
2561.47 0.55995 9.56(12) 68.0 8.349 9.451
2562.75 0.56024 9.56(12) 68.1 8.347 9.398
2564.03 0.56052 9.50(12) 68.5 8.345 9.332
2565.31 0.56080 9.31(12) 69.9 8.344 9.261
2566.59 0.56108 9.26(12) 70.4 8.342 9.188
2567.88 0.56136 9.37(12) 69.6 8.340 9.117
2569.19 0.56164 9.23(12) 70.7 8.339 9.052
2570.47 0.56192 9.10(12) 71.7 8.337 8.992
2571.75 0.56220 9.11(12) 71.7 8.335 8.937
2573.03 0.56248 9.02(12) 72.5 8.334 8.887
2574.31 0.56277 8.83(12) 74.0 8.332 8.841
2575.59 0.56305 8.86(12) 73.9 8.330 8.798
2576.91 0.56333 8.97(12) 73.1 8.329 8.759
2578.19 0.56361 8.91(12) 73.5 8.327 8.722
2579.47 0.56389 8.73(12) 75.1 8.325 8.689
2580.75 0.56417 8.79(12) 74.6 8.324 8.659
2582.06 0.56446 8.84(12) 74.2 8.322 8.634
2583.34 0.56474 8.82(12) 74.5 8.320 8.614
2584.63 0.56502 8.68(11) 75.8 8.318 8.599
2585.94 0.56531 8.72(12) 75.5 8.317 8.589
2587.22 0.56559 8.80(12) 74.7 8.315 8.585
2588.50 0.56587 8.89(12) 74.0 8.313 8.585
2589.81 0.56616 8.87(12) 74.2 8.312 8.591
2591.09 0.56644 8.81(12) 74.9 8.310 8.603
2592.41 0.56672 8.78(12) 75.0 8.308 8.620
2593.69 0.56700 8.88(12) 74.3 8.307 8.644
2595.00 0.56729 8.88(12) 74.3 8.305 8.674
2596.28 0.56757 9.00(12) 73.4 8.303 8.711
2597.59 0.56786 9.09(12) 72.7 8.302 8.757
2598.88 0.56814 9.10(12) 72.6 8.300 8.807
2600.19 0.56843 9.09(12) 72.8 8.298 8.863
2601.47 0.56871 9.25(12) 71.5 8.297 8.923
2602.78 0.56899 9.24(12) 71.7 8.295 8.984
2604.09 0.56928 9.22(12) 71.8 8.293 9.044
2605.38 0.56956 9.45(12) 70.2 8.292 9.100
2606.69 0.56985 9.47(12) 70.1 8.290 9.150
2608.00 0.57014 9.47(12) 70.0 8.288 9.191
2609.28 0.57042 9.63(12) 68.9 8.287 9.224
2610.59 0.57070 9.51(12) 69.9 8.285 9.252
2611.91 0.57099 9.58(12) 69.4 8.283 9.276
2613.22 0.57128 9.54(12) 69.7 8.282 9.300
2614.53 0.57157 9.49(12) 70.1 8.280 9.325
2615.81 0.57185 9.58(12) 69.5 8.278 9.355
2617.13 0.57213 9.65(12) 69.0 8.277 9.390
2618.44 0.57242 9.61(12) 69.4 8.275 9.431
2619.75 0.57271 9.47(12) 70.5 8.273 9.473
2621.06 0.57299 9.67(12) 69.0 8.272 9.514
2622.38 0.57328 9.71(12) 68.7 8.270 9.549
2623.69 0.57357 9.66(12) 69.2 8.268 9.572
2625.00 0.57386 9.43(12) 71.0 8.267 9.576
2626.31 0.57414 9.51(12) 70.3 8.265 9.558
2627.63 0.57443 9.49(12) 70.5 8.263 9.519
2628.94 0.57472 9.56(12) 70.1 8.262 9.463
2630.25 0.57500 9.41(12) 71.2 8.260 9.398
2631.56 0.57529 9.48(12) 70.7 8.258 9.329
2632.88 0.57558 9.44(12) 71.1 8.257 9.264
2634.19 0.57587 9.36(12) 71.7 8.255 9.206
2635.50 0.57615 9.30(12) 72.2 8.253 9.159
2636.84 0.57645 9.24(12) 72.8 8.251 9.126
2638.16 0.57673 9.36(12) 71.9 8.250 9.107
2639.47 0.57702 9.43(12) 71.4 8.248 9.105
2640.78 0.57731 9.42(12) 71.5 8.246 9.121
2642.13 0.57760 9.32(12) 72.3 8.245 9.156
2643.44 0.57789 9.25(12) 72.9 8.243 9.213
2644.75 0.57818 9.43(12) 71.5 8.241 9.292
2646.06 0.57846 9.42(12) 71.7 8.240 9.392
2647.41 0.57876 9.48(12) 71.2 8.238 9.509
2648.72 0.57905 9.84(12) 68.7 8.236 9.637
2650.03 0.57933 9.82(12) 68.9 8.235 9.768
2651.38 0.57963 10.13(12) 66.8 8.233 9.893
2652.69 0.57991 9.99(12) 67.7 8.231 10.003
2654.03 0.58021 10.11(12) 67.0 8.230 10.088
2655.34 0.58050 10.13(12) 66.9 8.228 10.145
2656.69 0.58079 10.11(12) 67.0 8.226 10.164
2658.00 0.58108 9.99(12) 67.9 8.225 10.143
2659.34 0.58137 9.87(12) 68.7 8.223 10.082
2660.66 0.58166 9.86(12) 68.9 8.221 9.990
2662.00 0.58195 9.88(12) 68.7 8.220 9.876
2663.31 0.58224 9.60(12) 70.9 8.218 9.751
2664.66 0.58253 9.59(12) 71.0 8.216 9.621
2666.00 0.58283 9.59(12) 71.0 8.215 9.499
2667.31 0.58311 9.52(12) 71.5 8.213 9.385
2668.66 0.58341 9.48(12) 71.9 8.211 9.282
2670.00 0.58370 9.29(12) 73.4 8.210 9.190
2671.31 0.58399 9.34(12) 73.1 8.208 9.107
2672.66 0.58428 9.19(12) 74.3 8.206 9.032
2674.00 0.58458 9.00(11) 75.9 8.205 8.963
2675.34 0.58487 9.02(11) 75.8 8.203 8.900
2676.69 0.58517 8.92(11) 76.7 8.201 8.843
2678.00 0.58545 8.90(11) 76.9 8.200 8.789
2679.34 0.58575 8.89(11) 77.1 8.198 8.739
2680.69 0.58604 8.95(11) 76.5 8.196 8.694
2682.03 0.58634 8.94(11) 76.7 8.195 8.653
2683.38 0.58663 8.74(11) 78.6 8.193 8.619
2684.72 0.58692 8.68(11) 79.2 8.191 8.591
2686.06 0.58722 8.78(11) 78.3 8.190 8.570
2687.41 0.58751 8.85(11) 77.7 8.188 8.556
2688.75 0.58781 8.76(11) 78.5 8.186 8.548
2690.09 0.58810 8.84(11) 77.8 8.185 8.547
2691.44 0.58839 8.72(11) 79.0 8.183 8.551
2692.78 0.58869 8.68(11) 79.4 8.181 8.562
2694.13 0.58898 8.54(11) 80.7 8.180 8.578
2695.47 0.58928 8.53(11) 80.9 8.178 8.603
2696.81 0.58957 8.78(11) 78.6 8.176 8.636
2698.16 0.58986 8.98(11) 76.8 8.175 8.680
2699.50 0.59016 8.90(11) 77.6 8.173 8.737
2700.88 0.59046 8.91(11) 77.6 8.171 8.810
2702.22 0.59075 9.07(11) 76.2 8.170 8.898
2703.56 0.59105 9.11(11) 76.0 8.168 9.003
2704.91 0.59134 9.07(11) 76.3 8.166 9.123
2706.28 0.59164 9.30(12) 74.5 8.164 9.253
2707.63 0.59194 9.47(12) 73.3 8.163 9.383
2708.97 0.59223 9.56(12) 72.6 8.161 9.508
2710.34 0.59253 9.73(12) 71.3 8.159 9.615
2711.69 0.59282 9.86(12) 70.4 8.158 9.692
2713.03 0.59312 9.94(12) 69.9 8.156 9.736
2714.41 0.59342 9.66(12) 72.0 8.154 9.746
2715.75 0.59371 9.51(12) 73.1 8.153 9.728
2717.13 0.59401 9.71(12) 71.7 8.151 9.683
2718.47 0.59431 9.74(12) 71.5 8.149 9.621
2719.84 0.59461 9.59(12) 72.6 8.148 9.546
2721.19 0.59490 9.51(12) 73.3 8.146 9.467
2722.56 0.59520 9.39(12) 74.3 8.144 9.389
2723.91 0.59550 9.43(12) 74.0 8.143 9.317
2725.28 0.59580 9.32(12) 74.9 8.141 9.252
2726.63 0.59609 9.21(11) 75.9 8.139 9.197
2728.00 0.59639 9.15(11) 76.4 8.138 9.149
2729.38 0.59669 9.20(11) 76.0 8.136 9.107
2730.72 0.59699 9.17(11) 76.3 8.134 9.067
2732.09 0.59729 9.18(11) 76.3 8.133 9.024
2733.47 0.59759 9.05(11) 77.5 8.131 8.976
2734.84 0.59789 8.99(11) 78.1 8.129 8.922
2736.19 0.59819 9.02(11) 77.8 8.128 8.863
2737.56 0.59849 8.98(11) 78.2 8.126 8.801
2738.94 0.59879 8.93(11) 78.7 8.124 8.739
2740.31 0.59909 8.96(11) 78.5 8.123 8.681
2741.69 0.59939 8.80(11) 79.9 8.121 8.629
2743.03 0.59968 8.73(11) 80.7 8.119 8.584
2744.41 0.59998 8.67(11) 81.3 8.118 8.546
2745.78 0.60028 8.69(11) 81.1 8.116 8.517
2747.16 0.60059 8.64(11) 81.6 8.114 8.496
2748.53 0.60089 8.72(11) 80.9 8.113 8.484
2749.91 0.60119 8.79(11) 80.3 8.111 8.480
2751.28 0.60149 8.67(11) 81.5 8.109 8.484
2752.66 0.60179 8.66(11) 81.6 8.108 8.496
2754.03 0.60209 8.82(11) 80.2 8.106 8.518
2755.41 0.60239 8.73(11) 81.1 8.104 8.550
2756.78 0.60269 8.84(11) 80.1 8.103 8.596
2758.16 0.60299 8.90(11) 79.5 8.101 8.656
2759.56 0.60330 8.92(11) 79.4 8.099 8.732
2760.94 0.60360 8.89(11) 79.7 8.098 8.823
2762.31 0.60390 8.90(11) 79.7 8.096 8.929
2763.69 0.60420 9.10(11) 78.0 8.094 9.044
2765.06 0.60450 9.20(11) 77.2 8.093 9.165
2766.47 0.60481 9.19(11) 77.3 8.091 9.282
2767.84 0.60511 9.35(11) 76.0 8.089 9.384
2769.22 0.60541 9.39(11) 75.7 8.088 9.463
2770.59 0.60571 9.46(12) 75.2 8.086 9.517
2772.00 0.60602 9.33(11) 76.3 8.084 9.544
2773.38 0.60632 9.41(11) 75.7 8.083 9.546
2774.75 0.60662 9.28(11) 76.8 8.081 9.528
2776.16 0.60693 9.42(11) 75.7 8.079 9.492
2777.53 0.60723 9.23(11) 77.3 8.078 9.442
2778.94 0.60754 9.38(11) 76.1 8.076 9.381
2780.31 0.60784 9.27(11) 77.1 8.074 9.312
2781.72 0.60815 9.04(11) 79.1 8.073 9.237
2783.09 0.60845 8.99(11) 79.5 8.071 9.159
2784.50 0.60876 9.10(11) 78.6 8.069 9.077
2785.88 0.60906 8.89(11) 80.5 8.068 8.993
2787.28 0.60937 8.78(11) 81.5 8.066 8.909
2788.66 0.60967 8.86(11) 80.8 8.064 8.827
2790.06 0.60997 8.82(11) 81.4 8.063 8.749
2791.47 0.61028 8.96(11) 80.1 8.061 8.678
2792.84 0.61058 8.73(11) 82.3 8.059 8.614
2794.25 0.61089 8.75(11) 82.1 8.058 8.556
2795.66 0.61120 8.67(11) 82.9 8.056 8.507
2797.03 0.61150 8.64(11) 83.3 8.054 8.466
2798.44 0.61181 8.59(11) 83.8 8.053 8.434
2799.84 0.61211 8.61(11) 83.7 8.051 8.409
2801.25 0.61242 8.61(11) 83.7 8.049 8.391
2802.66 0.61273 8.57(11) 84.1 8.048 8.380
2804.03 0.61303 8.45(11) 85.4 8.046 8.375
2805.44 0.61334 8.52(11) 84.7 8.044 8.376
2806.84 0.61365 8.43(11) 85.7 8.043 8.381
2808.25 0.61395 8.46(11) 85.4 8.041 8.390
2809.66 0.61426 8.51(11) 85.0 8.039 8.404
2811.06 0.61457 8.66(11) 83.5 8.038 8.424
2812.47 0.61488 8.72(11) 83.1 8.036 8.450
2813.88 0.61518 8.63(11) 83.9 8.034 8.485
2815.28 0.61549 8.63(11) 83.9 8.033 8.531
2816.69 0.61580 8.56(11) 84.7 8.031 8.590
2818.09 0.61611 8.71(11) 83.3 8.029 8.667
2819.50 0.61642 8.70(11) 83.4 8.028 8.763
2820.91 0.61672 8.93(11) 81.3 8.026 8.880
2822.31 0.61703 9.22(11) 78.7 8.024 9.017
2823.75 0.61735 9.27(11) 78.3 8.023 9.167
2825.16 0.61765 9.36(11) 77.6 8.021 9.323
2826.56 0.61796 9.50(11) 76.6 8.019 9.476
2827.97 0.61827 9.66(12) 75.3 8.018 9.612
2829.38 0.61858 9.75(12) 74.6 8.016 9.721
2830.81 0.61889 9.69(12) 75.2 8.014 9.791
2832.22 0.61920 9.72(12) 74.9 8.013 9.819
2833.63 0.61951 9.65(12) 75.5 8.011 9.810
2835.06 0.61982 9.74(12) 74.9 8.009 9.772
2836.47 0.62013 9.57(11) 76.2 8.008 9.717
2837.88 0.62044 9.56(11) 76.4 8.006 9.653
2839.31 0.62075 9.50(11) 77.0 8.004 9.591
2840.72 0.62106 9.47(11) 77.2 8.003 9.540
2842.16 0.62137 9.36(11) 78.1 8.001 9.507
2843.56 0.62168 9.26(11) 79.0 7.999 9.497
2845.00 0.62199 9.48(11) 77.2 7.998 9.514
2846.41 0.62230 9.58(11) 76.5 7.996 9.554
2847.84 0.62262 9.52(11) 77.0 7.994 9.613
2849.25 0.62292 9.62(11) 76.3 7.993 9.682
2850.69 0.62324 9.82(12) 74.7 7.991 9.751
2852.09 0.62355 9.95(12) 73.7 7.989 9.807
2853.53 0.62386 9.77(12) 75.2 7.988 9.837
2854.97 0.62418 9.82(12) 74.8 7.986 9.831
2856.38 0.62448 9.75(12) 75.4 7.984 9.788
2857.81 0.62480 9.77(12) 75.4 7.983 9.713
2859.25 0.62511 9.83(12) 74.9 7.981 9.615
2860.69 0.62543 9.67(11) 76.2 7.979 9.508
2862.09 0.62574 9.53(11) 77.3 7.978 9.399
2863.53 0.62605 9.52(11) 77.5 7.976 9.295
2864.97 0.62636 9.49(11) 77.8 7.974 9.201
2866.41 0.62668 9.44(11) 78.2 7.973 9.120
2867.84 0.62699 9.30(11) 79.4 7.971 9.051
2869.28 0.62731 9.20(11) 80.3 7.969 8.995
2870.69 0.62762 9.23(11) 80.1 7.968 8.949
2872.13 0.62793 9.09(11) 81.4 7.966 8.910
2873.56 0.62824 9.18(11) 80.6 7.964 8.881
2875.00 0.62856 8.97(11) 82.6 7.963 8.862
2876.44 0.62887 9.02(11) 82.3 7.961 8.854
2877.88 0.62919 9.06(11) 81.9 7.959 8.860
2879.31 0.62950 9.13(11) 81.3 7.958 8.881
2880.75 0.62982 9.17(11) 80.9 7.956 8.920
2882.22 0.63014 9.18(11) 80.9 7.954 8.981
2883.66 0.63045 9.15(11) 81.2 7.953 9.065
2885.09 0.63077 9.51(11) 78.2 7.951 9.171
2886.53 0.63108 9.60(11) 77.5 7.949 9.298
2887.97 0.63140 9.63(11) 77.3 7.948 9.441
2889.41 0.63171 9.61(11) 77.5 7.946 9.596
2890.88 0.63203 9.71(11) 76.7 7.944 9.750
2892.31 0.63235 9.86(12) 75.5 7.943 9.892
2893.75 0.63266 10.04(12) 74.3 7.941 10.008
2895.19 0.63298 10.03(12) 74.4 7.939 10.087
2896.66 0.63330 10.15(12) 73.5 7.938 10.117
2898.09 0.63361 10.11(12) 73.8 7.936 10.100
2899.53 0.63393 9.99(12) 74.7 7.934 10.042
2901.00 0.63425 10.13(12) 73.7 7.933 9.951
2902.44 0.63456 9.97(12) 75.1 7.931 9.839
2903.91 0.63488 9.81(11) 76.3 7.930 9.713
2905.34 0.63520 9.74(11) 76.9 7.928 9.580
2906.81 0.63552 9.42(11) 79.5 7.926 9.445
2908.25 0.63584 9.43(11) 79.5 7.925 9.314
2909.72 0.63616 9.23(11) 81.3 7.923 9.189
2911.16 0.63647 9.21(11) 81.5 7.921 9.072
2912.63 0.63679 9.11(11) 82.5 7.920 8.962
2914.06 0.63711 8.97(11) 83.8 7.918 8.860
2915.53 0.63743 8.96(11) 84.0 7.916 8.764
2917.00 0.63775 8.70(11) 86.5 7.915 8.678
2918.44 0.63806 8.67(11) 86.9 7.913 8.600
2919.91 0.63839 8.77(11) 85.9 7.911 8.530
2921.38 0.63871 8.59(11) 87.9 7.910 8.468
2922.84 0.63903 8.53(11) 88.5 7.908 8.415
2924.28 0.63934 8.54(11) 88.4 7.906 8.371
2925.75 0.63966 8.45(11) 89.3 7.905 8.335
2927.22 0.63999 8.46(11) 89.3 7.903 8.308
2928.69 0.64031 8.35(11) 90.5 7.901 8.289
2930.16 0.64063 8.36(11) 90.5 7.900 8.279
2931.63 0.64095 8.43(11) 89.8 7.898 8.275
2933.06 0.64126 8.56(11) 88.5 7.896 8.277
2934.53 0.64159 8.38(11) 90.4 7.895 8.284
2936.00 0.64191 8.44(11) 89.8 7.893 8.293
2937.47 0.64223 8.48(11) 89.4 7.891 8.302
2938.94 0.64255 8.49(11) 89.3 7.890 8.310
2940.41 0.64287 8.31(10) 91.3 7.888 8.316
2941.88 0.64319 8.37(10) 90.7 7.886 8.320
2943.34 0.64351 8.40(11) 90.5 7.885 8.324
2944.84 0.64384 8.44(11) 90.1 7.883 8.330
2946.31 0.64416 8.47(11) 89.8 7.881 8.339
2947.78 0.64449 8.30(10) 91.7 7.880 8.354
2949.25 0.64481 8.40(11) 90.6 7.878 8.377
2950.72 0.64513 8.58(11) 88.9 7.877 8.409
2952.19 0.64545 8.49(11) 89.8 7.875 8.454
2953.69 0.64578 8.66(11) 88.1 7.873 8.513
2955.16 0.64610 8.60(11) 88.6 7.872 8.585
2956.63 0.64642 8.82(11) 86.5 7.870 8.670
2958.09 0.64674 8.93(11) 85.5 7.868 8.765
2959.59 0.64707 9.07(11) 84.2 7.867 8.867
2961.06 0.64739 9.03(11) 84.6 7.865 8.969
2962.53 0.64771 9.10(11) 84.0 7.863 9.067
2964.03 0.64804 9.18(11) 83.3 7.862 9.151
2965.50 0.64836 9.25(11) 82.7 7.860 9.214
2967.00 0.64869 9.20(11) 83.3 7.858 9.254
2968.47 0.64901 9.31(11) 82.2 7.857 9.272
2969.97 0.64934 9.23(11) 83.0 7.855 9.276
2971.44 0.64966 9.29(11) 82.5 7.853 9.273
2972.94 0.64999 9.26(11) 82.9 7.852 9.272
2974.41 0.65031 9.41(11) 81.6 7.850 9.280
2975.91 0.65064 9.26(11) 82.9 7.848 9.304
2977.41 0.65097 9.42(11) 81.6 7.847 9.348
2978.88 0.65129 9.34(11) 82.2 7.845 9.414
2980.38 0.65162 9.41(11) 81.8 7.843 9.504
2981.88 0.65195 9.46(11) 81.3 7.842 9.614
2983.34 0.65227 9.53(11) 80.8 7.840 9.738
2984.84 0.65260 9.64(11) 79.9 7.839 9.873
2986.34 0.65292 9.89(11) 77.9 7.837 10.008
2987.84 0.65325 10.01(11) 77.0 7.835 10.136
2989.31 0.65357 10.13(11) 76.1 7.834 10.246
2990.81 0.65390 10.30(12) 74.9 7.832 10.330
2992.31 0.65423 10.24(12) 75.4 7.830 10.370
2993.81 0.65456 10.22(12) 75.6 7.829 10.360
2995.31 0.65489 10.11(11) 76.4 7.827 10.296
2996.81 0.65521 10.12(11) 76.4 7.825 10.185
2998.31 0.65554 10.03(11) 77.1 7.824 10.039
2999.81 0.65587 9.69(11) 79.9 7.822 9.872
3001.31 0.65620 9.50(11) 81.5 7.820 9.698
3002.81 0.65653 9.41(11) 82.3 7.819 9.526
3004.31 0.65686 9.37(11) 82.7 7.817 9.364
3005.81 0.65718 9.24(11) 84.0 7.815 9.217
3007.31 0.65751 9.15(11) 84.8 7.814 9.086
3008.81 0.65784 9.12(11) 85.1 7.812 8.970
3010.31 0.65817 8.92(11) 87.1 7.811 8.870
3011.81 0.65850 8.90(11) 87.3 7.809 8.781
3013.31 0.65882 8.72(11) 89.2 7.807 8.702
3014.84 0.65916 8.66(11) 89.9 7.806 8.632
3016.34 0.65949 8.60(11) 90.6 7.804 8.574
3017.84 0.65982 8.70(11) 89.6 7.802 8.520
3019.34 0.66014 8.50(10) 91.7 7.801 8.474
3020.88 0.66048 8.49(10) 91.9 7.799 8.436
3022.38 0.66081 8.67(11) 90.0 7.797 8.408
3023.88 0.66114 8.47(10) 92.2 7.796 8.390
3025.41 0.66147 8.47(10) 92.3 7.794 8.386
3026.91 0.66180 8.50(10) 91.9 7.792 8.399
3028.44 0.66213 8.54(10) 91.5 7.791 8.431
3029.94 0.66246 8.64(11) 90.5 7.789 8.484
3031.47 0.66280 8.75(11) 89.4 7.787 8.558
3032.97 0.66313 8.67(11) 90.2 7.786 8.648
3034.50 0.66346 8.78(11) 89.1 7.784 8.754
3036.00 0.66379 8.91(11) 87.9 7.783 8.866
3037.53 0.66412 9.04(11) 86.7 7.781 8.976
3039.03 0.66445 9.24(11) 84.9 7.779 9.071
3040.56 0.66479 9.14(11) 85.8 7.778 9.142
3042.09 0.66512 9.07(11) 86.6 7.776 9.179
3043.59 0.66545 9.23(11) 85.1 7.774 9.182
3045.13 0.66579 9.21(11) 85.3 7.773 9.155
3046.66 0.66612 9.23(11) 85.2 7.771 9.106
3048.16 0.66645 9.17(11) 85.8 7.769 9.045
3049.69 0.66678 9.07(11) 86.8 7.768 8.977
3051.22 0.66712 9.00(11) 87.5 7.766 8.910
3052.75 0.66745 8.90(11) 88.6 7.764 8.848
3054.28 0.66779 8.82(11) 89.3 7.763 8.792
3055.81 0.66812 8.72(11) 90.5 7.761 8.744
3057.31 0.66845 8.70(11) 90.7 7.760 8.702
3058.84 0.66879 8.67(10) 91.0 7.758 8.663
3060.38 0.66912 8.60(10) 91.8 7.756 8.626
3061.91 0.66946 8.58(10) 92.1 7.755 8.587
3063.44 0.66979 8.44(10) 93.7 7.753 8.546
3064.97 0.67013 8.41(10) 94.2 7.751 8.503
3066.50 0.67046 8.45(10) 93.7 7.750 8.458
3068.03 0.67080 8.44(10) 93.8 7.748 8.412
3069.56 0.67113 8.38(10) 94.5 7.746 8.366
3071.13 0.67148 8.41(10) 94.2 7.745 8.320
3072.66 0.67181 8.23(10) 96.3 7.743 8.275
3074.19 0.67215 8.23(10) 96.5 7.742 8.231
3075.72 0.67248 8.34(10) 95.2 7.740 8.188
3077.25 0.67282 8.28(10) 95.8 7.738 8.149
3078.81 0.67316 8.20(10) 96.8 7.737 8.114
3080.34 0.67349 8.04(10) 98.9 7.735 8.084
3081.88 0.67383 8.04(10) 99.0 7.733 8.060
3083.41 0.67416 8.10(10) 98.3 7.732 8.041
3084.97 0.67450 8.09(10) 98.5 7.730 8.030
3086.50 0.67484 7.92(10) 100.6 7.728 8.024
3088.03 0.67518 7.99(10) 99.7 7.727 8.026
3089.59 0.67552 7.95(10) 100.3 7.725 8.034
3091.13 0.67585 7.92(10) 100.7 7.724 8.048
3092.69 0.67619 8.04(10) 99.3 7.722 8.067
3094.22 0.67653 8.03(10) 99.4 7.720 8.090
3095.78 0.67687 7.96(10) 100.4 7.719 8.115
3097.31 0.67721 7.92(10) 100.8 7.717 8.140
3098.88 0.67755 8.05(10) 99.3 7.715 8.162
3100.41 0.67788 8.10(10) 98.8 7.714 8.178
3101.97 0.67822 8.13(10) 98.4 7.712 8.186
3103.53 0.67857 8.22(10) 97.3 7.710 8.183
3105.06 0.67890 8.06(10) 99.3 7.709 8.173
3106.63 0.67924 8.06(10) 99.4 7.707 8.157
3108.19 0.67959 7.99(10) 100.3 7.706 8.138
3109.72 0.67992 8.02(10) 99.9 7.704 8.119
3111.28 0.68026 8.10(10) 99.0 7.702 8.101
3112.84 0.68060 8.03(10) 99.9 7.701 8.088
3114.41 0.68095 8.03(10) 99.9 7.699 8.080
3115.97 0.68129 8.09(10) 99.3 7.697 8.078
3117.50 0.68162 8.01(10) 100.3 7.696 8.082
3119.06 0.68197 8.12(10) 98.9 7.694 8.090
3120.63 0.68231 8.23(10) 97.7 7.692 8.102
3122.19 0.68265 8.14(10) 98.9 7.691 8.117
3123.75 0.68299 8.23(10) 97.9 7.689 8.134
3125.31 0.68333 8.30(10) 97.1 7.688 8.154
3126.88 0.68367 8.22(10) 98.0 7.686 8.177
3128.44 0.68402 8.28(10) 97.3 7.684 8.205
3130.00 0.68436 8.36(10) 96.4 7.683 8.240
3131.56 0.68470 8.37(10) 96.3 7.681 8.284
3133.13 0.68504 8.51(10) 94.9 7.679 8.341
3134.72 0.68539 8.43(10) 95.8 7.678 8.414
3136.28 0.68573 8.27(10) 97.7 7.676 8.509
3137.84 0.68608 8.40(10) 96.2 7.675 8.633
3139.41 0.68642 8.68(10) 93.1 7.673 8.793
3140.97 0.68676 9.01(11) 89.8 7.671 8.998
3142.56 0.68711 9.21(11) 87.9 7.670 9.250
3144.13 0.68745 9.35(11) 86.5 7.668 9.547
3145.69 0.68779 9.59(11) 84.4 7.666 9.887
3147.25 0.68813 9.95(11) 81.3 7.665 10.263
3148.84 0.68848 10.32(11) 78.5 7.663 10.655
3150.41 0.68882 10.57(11) 76.6 7.662 11.038
3152.00 0.68917 10.90(12) 74.3 7.660 11.380
3153.56 0.68951 11.15(12) 72.6 7.658 11.647
3155.16 0.68986 11.25(12) 72.0 7.657 11.807
3156.72 0.69021 11.45(12) 70.8 7.655 11.845
3158.31 0.69055 11.44(12) 70.9 7.653 11.764
3159.88 0.69090 11.21(12) 72.3 7.652 11.585
3161.47 0.69125 11.03(12) 73.6 7.650 11.336
3163.03 0.69159 10.67(11) 76.2 7.649 11.045
3164.63 0.69194 10.45(11) 77.8 7.647 10.737
3166.19 0.69228 10.24(11) 79.5 7.645 10.430
3167.78 0.69263 9.85(11) 82.7 7.644 10.136
3169.38 0.69298 9.52(11) 85.5 7.642 9.870
3170.94 0.69332 9.35(11) 87.2 7.640 9.628
3172.53 0.69367 9.31(11) 87.6 7.639 9.411
3174.13 0.69401 9.15(11) 89.1 7.637 9.221
3175.72 0.69436 8.97(10) 91.0 7.636 9.057
3177.31 0.69471 8.73(10) 93.6 7.634 8.918
3178.88 0.69505 8.72(10) 93.6 7.632 8.799
3180.47 0.69540 8.82(10) 92.6 7.631 8.701
3182.06 0.69575 8.72(10) 93.8 7.629 8.623
3183.66 0.69610 8.67(10) 94.3 7.627 8.566
3185.25 0.69645 8.59(10) 95.3 7.626 8.529
3186.84 0.69680 8.65(10) 94.7 7.624 8.512
3188.44 0.69715 8.56(10) 95.7 7.623 8.515
3190.03 0.69750 8.48(10) 96.7 7.621 8.536
3191.63 0.69784 8.72(10) 94.1 7.619 8.575
3193.22 0.69819 8.80(10) 93.2 7.618 8.627
3194.81 0.69854 8.68(10) 94.4 7.616 8.690
3196.41 0.69889 8.94(10) 91.7 7.614 8.759
3198.00 0.69924 8.98(10) 91.4 7.613 8.827
3199.63 0.69959 8.97(10) 91.5 7.611 8.888
3201.22 0.69994 8.83(10) 93.1 7.610 8.938
3202.81 0.70029 9.03(10) 91.0 7.608 8.974
3204.41 0.70064 9.04(10) 90.9 7.606 8.999
3206.03 0.70100 9.02(10) 91.1 7.605 9.012
3207.63 0.70135 8.98(10) 91.6 7.603 9.016
3209.22 0.70169 8.99(10) 91.5 7.602 9.006
3210.81 0.70204 8.94(10) 92.0 7.600 8.981
3212.44 0.70240 8.91(10) 92.4 7.598 8.940
3214.03 0.70275 8.85(10) 93.1 7.597 8.884
3215.66 0.70310 8.83(10) 93.3 7.595 8.815
3217.25 0.70345 8.69(10) 94.9 7.593 8.740
3218.88 0.70381 8.59(10) 96.1 7.592 8.661
3220.47 0.70416 8.61(10) 95.9 7.590 8.583
3222.09 0.70451 8.54(10) 96.7 7.589 8.508
3223.69 0.70486 8.40(10) 98.4 7.587 8.438
3225.31 0.70522 8.33(10) 99.2 7.585 8.374
3226.91 0.70556 8.18(10) 101.0 7.584 8.317
3228.53 0.70592 8.20(10) 100.9 7.582 8.266
3230.16 0.70628 8.13(10) 101.7 7.581 8.222
3231.75 0.70662 8.09(10) 102.4 7.579 8.185
3233.38 0.70698 8.13(10) 101.9 7.577 8.153
3235.00 0.70734 7.89(10) 105.1 7.576 8.125
3236.63 0.70769 7.84(10) 105.7 7.574 8.101
3238.22 0.70804 8.01(10) 103.5 7.572 8.081
3239.84 0.70840 7.90(10) 105.1 7.571 8.062
3241.47 0.70875 7.92(10) 104.8 7.569 8.046
3243.09 0.70911 7.88(10) 105.4 7.568 8.031
3244.72 0.70946 7.85(10) 105.8 7.566 8.016
3246.34 0.70982 7.89(10) 105.4 7.564 8.000
3247.97 0.71017 7.78(10) 106.9 7.563 7.984
3249.59 0.71053 7.76(10) 107.1 7.561 7.967
3251.22 0.71088 7.75(10) 107.3 7.560 7.951
3252.84 0.71124 7.81(10) 106.6 7.558 7.939
3254.47 0.71160 7.83(10) 106.2 7.556 7.932
3256.09 0.71195 7.78(10) 107.1 7.555 7.933
3257.72 0.71231 7.95(10) 104.8 7.553 7.944
3259.34 0.71266 7.75(10) 107.4 7.552 7.964
3260.97 0.71302 7.90(10) 105.5 7.550 7.994
3262.59 0.71337 8.00(10) 104.2 7.548 8.033
3264.22 0.71373 8.06(10) 103.5 7.547 8.078
3265.88 0.71409 8.06(10) 103.4 7.545 8.125
3267.50 0.71445 8.16(10) 102.3 7.543 8.169
3269.13 0.71480 8.11(10) 102.9 7.542 8.205
3270.78 0.71517 8.15(10) 102.4 7.540 8.228
3272.41 0.71552 8.09(10) 103.1 7.539 8.236
3274.03 0.71588 8.18(10) 102.1 7.537 8.230
3275.69 0.71624 8.34(10) 100.1 7.535 8.213
3277.31 0.71659 8.15(10) 102.6 7.534 8.190
3278.94 0.71695 8.14(10) 102.7 7.532 8.164
3280.59 0.71731 8.08(10) 103.5 7.531 8.142
3282.22 0.71767 8.17(10) 102.4 7.529 8.127
3283.88 0.71803 8.17(10) 102.5 7.527 8.122
3285.50 0.71839 8.08(10) 103.8 7.526 8.134
3287.16 0.71875 8.02(10) 104.4 7.524 8.165
3288.81 0.71911 8.09(10) 103.5 7.523 8.222
3290.44 0.71947 8.26(10) 101.5 7.521 8.310
3292.09 0.71983 8.57(10) 97.8 7.519 8.435
3293.75 0.72019 8.67(10) 96.8 7.518 8.601
3295.38 0.72055 8.82(10) 95.1 7.516 8.811
3297.03 0.72091 8.76(10) 95.7 7.515 9.067
3298.69 0.72127 9.15(10) 91.7 7.513 9.362
3300.34 0.72163 9.63(11) 87.1 7.511 9.682
3301.97 0.72199 9.97(11) 84.1 7.510 10.013
3303.63 0.72235 10.29(11) 81.6 7.508 10.334
3305.28 0.72272 10.27(11) 81.7 7.507 10.612
3306.94 0.72308 10.53(11) 79.7 7.505 10.818
3308.59 0.72344 10.64(11) 78.9 7.503 10.927
3310.25 0.72380 10.75(11) 78.1 7.502 10.934
3311.91 0.72417 10.79(11) 77.9 7.500 10.849
3313.56 0.72453 10.47(11) 80.3 7.499 10.691
3315.22 0.72489 10.27(11) 81.9 7.497 10.484
3316.88 0.72525 10.05(11) 83.6 7.495 10.251
3318.53 0.72561 9.79(11) 86.0 7.494 10.011
3320.19 0.72598 9.56(11) 88.1 7.492 9.776
3321.84 0.72634 9.43(11) 89.4 7.491 9.562
3323.50 0.72670 9.30(11) 90.6 7.489 9.373
3325.16 0.72706 9.14(10) 92.2 7.487 9.212
3326.84 0.72743 9.01(10) 93.6 7.486 9.085
3328.50 0.72780 8.79(10) 96.0 7.484 8.994
3330.16 0.72816 8.68(10) 97.3 7.483 8.942
3331.81 0.72852 8.75(10) 96.5 7.481 8.929
3333.50 0.72889 8.78(10) 96.2 7.479 8.956
3335.16 0.72925 8.89(10) 95.0 7.478 9.023
3336.81 0.72962 8.96(10) 94.3 7.476 9.126
3338.50 0.72998 9.04(10) 93.5 7.475 9.257
3340.16 0.73035 9.35(11) 90.4 7.473 9.405
3341.84 0.73072 9.53(11) 88.8 7.471 9.555
3343.50 0.73108 9.58(11) 88.3 7.470 9.688
3345.19 0.73145 9.63(11) 87.8 7.468 9.785
3346.84 0.73181 9.59(11) 88.2 7.467 9.829
3348.53 0.73218 9.54(11) 88.7 7.465 9.814
3350.19 0.73254 9.60(11) 88.2 7.464 9.746
3351.88 0.73291 9.57(11) 88.5 7.462 9.634
3353.53 0.73327 9.35(11) 90.6 7.460 9.493
3355.22 0.73364 9.23(10) 91.8 7.459 9.337
3356.91 0.73401 8.99(10) 94.3 7.457 9.181
3358.56 0.73437 8.91(10) 95.1 7.456 9.033
3360.25 0.73474 8.84(10) 96.0 7.454 8.898
3361.94 0.73511 8.67(10) 98.0 7.452 8.781
3363.63 0.73548 8.41(10) 100.9 7.451 8.683
3365.31 0.73585 8.43(10) 100.8 7.449 8.606
3366.97 0.73621 8.39(10) 101.3 7.448 8.543
3368.66 0.73658 8.34(10) 101.9 7.446 8.492
3370.34 0.73695 8.19(10) 103.8 7.444 8.448
3372.03 0.73732 8.18(10) 104.0 7.443 8.410
3373.72 0.73769 8.18(10) 104.1 7.441 8.372
3375.41 0.73806 8.15(10) 104.3 7.440 8.333
3377.09 0.73843 8.26(10) 103.0 7.438 8.294
3378.78 0.73880 8.09(10) 105.2 7.437 8.254
3380.47 0.73917 7.97(10) 106.8 7.435 8.216
3382.16 0.73954 7.95(10) 107.2 7.433 8.177
3383.84 0.73991 8.05(10) 105.9 7.432 8.139
3385.56 0.74028 7.88(10) 108.2 7.430 8.099
3387.25 0.74065 7.87(10) 108.4 7.429 8.058
3388.94 0.74102 7.93(10) 107.6 7.427 8.015
3390.63 0.74139 7.74(10) 110.3 7.425 7.970
3392.31 0.74176 7.73(10) 110.5 7.424 7.925
3394.03 0.74214 7.81(10) 109.3 7.422 7.881
3395.72 0.74251 7.76(10) 110.0 7.421 7.841
3397.41 0.74288 7.65(9) 111.6 7.419 7.804
3399.13 0.74325 7.67(9) 111.4 7.418 7.771
3400.81 0.74362 7.68(9) 111.4 7.416 7.744
3402.50 0.74399 7.59(9) 112.6 7.414 7.722
3404.22 0.74437 7.53(9) 113.6 7.413 7.708
3405.91 0.74474 7.57(9) 113.1 7.411 7.700
3407.63 0.74511 7.57(9) 113.1 7.410 7.701
3409.31 0.74548 7.58(9) 112.8 7.408 7.711
3411.03 0.74586 7.69(9) 111.4 7.407 7.731
3412.72 0.74623 7.67(9) 111.7 7.405 7.763
3414.44 0.74660 7.55(9) 113.5 7.403 7.808
3416.16 0.74698 7.94(10) 108.0 7.402 7.865
3417.84 0.74735 7.97(10) 107.5 7.400 7.933
3419.56 0.74772 7.98(10) 107.3 7.399 8.012
3421.28 0.74810 7.90(10) 108.5 7.397 8.096
3423.00 0.74848 7.93(10) 108.1 7.395 8.179
3424.69 0.74885 7.97(10) 107.6 7.394 8.254
3426.41 0.74922 8.03(10) 106.8 7.392 8.315
3428.13 0.74960 8.08(10) 106.2 7.391 8.354
3429.84 0.74997 8.19(10) 104.8 7.389 8.370
3431.56 0.75035 8.14(10) 105.4 7.388 8.363
3433.28 0.75073 8.12(10) 105.7 7.386 8.339
3434.97 0.75110 8.09(10) 106.2 7.384 8.303
3436.69 0.75147 8.05(10) 106.7 7.383 8.258
3438.41 0.75185 8.02(10) 107.2 7.381 8.210
3440.13 0.75222 8.00(10) 107.5 7.380 8.159
3441.84 0.75260 7.92(10) 108.6 7.378 8.108
3443.59 0.75298 7.75(9) 110.9 7.377 8.057
3445.31 0.75336 7.77(10) 110.6 7.375 8.008
3447.03 0.75373 7.77(10) 110.6 7.373 7.960
3448.75 0.75411 7.80(10) 110.2 7.372 7.915
3450.47 0.75449 7.66(9) 112.3 7.370 7.874
3452.19 0.75486 7.50(9) 114.8 7.369 7.834
3453.94 0.75525 7.57(9) 113.8 7.367 7.798
3455.66 0.75562 7.53(9) 114.4 7.366 7.763
3457.38 0.75600 7.54(9) 114.2 7.364 7.731
3459.09 0.75637 7.60(9) 113.3 7.362 7.699
3460.84 0.75676 7.37(9) 117.0 7.361 7.669
3462.56 0.75713 7.34(9) 117.4 7.359 7.641
3464.31 0.75752 7.47(9) 115.4 7.358 7.615
3466.03 0.75789 7.50(9) 115.0 7.356 7.591
3467.75 0.75827 7.49(9) 115.1 7.355 7.570
3469.50 0.75865 7.36(9) 117.3 7.353 7.551
3471.22 0.75903 7.19(9) 119.9 7.352 7.535
3472.97 0.75941 7.27(9) 118.7 7.350 7.520
3474.72 0.75979 7.29(9) 118.5 7.348 7.510
3476.44 0.76017 7.31(9) 118.0 7.347 7.503
3478.19 0.76055 7.36(9) 117.3 7.345 7.499
3479.91 0.76093 7.39(9) 116.8 7.344 7.498
3481.66 0.76131 7.52(9) 114.8 7.342 7.501
3483.41 0.76169 7.41(9) 116.6 7.341 7.508
3485.13 0.76207 7.35(9) 117.7 7.339 7.520
3486.88 0.76245 7.38(9) 117.1 7.337 7.536
3488.63 0.76284 7.34(9) 117.9 7.336 7.558
3490.38 0.76322 7.55(9) 114.4 7.334 7.584
3492.13 0.76360 7.55(9) 114.6 7.333 7.614
3493.88 0.76399 7.41(9) 116.9 7.331 7.651
3495.59 0.76436 7.59(9) 114.0 7.330 7.686
3497.34 0.76474 7.66(9) 112.9 7.328 7.720
3499.09 0.76513 7.56(9) 114.6 7.327 7.753
3500.84 0.76551 7.59(9) 114.0 7.325 7.782
3502.59 0.76589 7.74(9) 111.8 7.323 7.810
3504.34 0.76628 7.69(9) 112.6 7.322 7.840
3506.09 0.76666 7.81(9) 110.8 7.320 7.876
3507.9 0.76705 7.74(9) 111.9 7.319 7.925
3509.6 0.76743 7.68(9) 112.6 7.317 7.994
3511.4 0.76782 7.85(10) 110.2 7.316 8.089
3513.1 0.76820 8.03(10) 107.9 7.314 8.221
3514.9 0.76858 8.20(10) 105.6 7.313 8.396
3516.6 0.76896 8.42(10) 102.9 7.311 8.623
3518.4 0.76935 8.74(10) 99.1 7.309 8.902
3520.2 0.76974 9.15(10) 94.5 7.308 9.229
3521.9 0.77012 9.45(10) 91.5 7.306 9.597
3523.7 0.77051 10.00(11) 86.5 7.305 9.987
3525.4 0.77089 10.33(11) 83.8 7.303 10.373
3527.2 0.77128 10.67(11) 81.0 7.302 10.720
3529.0 0.77167 10.94(11) 79.0 7.300 10.991
3530.7 0.77205 11.13(11) 77.7 7.299 11.162
3532.5 0.77244 11.14(11) 77.6 7.297 11.218
3534.3 0.77282 11.22(11) 77.1 7.295 11.165
3536.0 0.77321 11.05(11) 78.3 7.294 11.022
3537.8 0.77360 10.76(11) 80.5 7.292 10.817
3539.6 0.77398 10.48(11) 82.6 7.291 10.576
3541.3 0.77437 10.01(11) 86.6 7.289 10.319
3543.1 0.77476 9.86(11) 87.9 7.288 10.064
3544.9 0.77515 9.53(10) 90.9 7.286 9.819
3546.7 0.77554 9.33(10) 92.9 7.285 9.594
3548.4 0.77593 9.20(10) 94.3 7.283 9.392
3550.2 0.77631 9.08(10) 95.6 7.282 9.215
3552.0 0.77670 8.82(10) 98.4 7.280 9.058
3553.8 0.77709 8.61(10) 100.8 7.278 8.924
3555.5 0.77748 8.49(10) 102.3 7.277 8.807
3557.3 0.77787 8.43(10) 103.0 7.275 8.705
3559.1 0.77826 8.38(10) 103.6 7.274 8.612
3560.9 0.77865 8.36(10) 104.0 7.272 8.523
3562.7 0.77904 8.23(10) 105.5 7.271 8.436
3564.4 0.77943 8.28(10) 104.9 7.269 8.348
3566.2 0.77982 8.13(10) 106.9 7.268 8.259
3568.0 0.78021 7.98(10) 108.9 7.266 8.171
3569.8 0.78060 7.88(10) 110.3 7.265 8.086
3571.6 0.78099 7.96(10) 109.1 7.263 8.004
3573.3 0.78138 7.89(10) 110.2 7.262 7.929
3575.1 0.78177 7.77(9) 111.9 7.260 7.859
3576.9 0.78216 7.91(10) 109.9 7.258 7.795
3578.7 0.78255 7.85(10) 110.7 7.257 7.738
3580.5 0.78294 7.65(9) 113.6 7.255 7.687
3582.3 0.78333 7.55(9) 115.2 7.254 7.643
3584.1 0.78373 7.54(9) 115.4 7.252 7.603
3585.9 0.78412 7.53(9) 115.6 7.251 7.569
3587.7 0.78451 7.54(9) 115.4 7.249 7.540
3589.5 0.78491 7.62(9) 114.2 7.248 7.515
3591.3 0.78530 7.57(9) 114.9 7.246 7.496
3593.1 0.78569 7.50(9) 116.0 7.245 7.480
3594.8 0.78608 7.45(9) 117.0 7.243 7.470
3596.7 0.78648 7.41(9) 117.5 7.242 7.465
3598.4 0.78687 7.52(9) 115.8 7.240 7.463
3600.3 0.78726 7.57(9) 115.0 7.238 7.467
3602.0 0.78765 7.55(9) 115.4 7.237 7.473
3603.8 0.78805 7.48(9) 116.4 7.235 7.481
3605.7 0.78845 7.54(9) 115.6 7.234 7.491
3607.4 0.78884 7.48(9) 116.4 7.232 7.499
3609.3 0.78923 7.50(9) 116.1 7.231 7.507
3611.1 0.78963 7.50(9) 116.1 7.229 7.513
3612.8 0.79002 7.49(9) 116.3 7.228 7.517
3614.7 0.79042 7.49(9) 116.4 7.226 7.519
3616.5 0.79081 7.49(9) 116.4 7.225 7.522
3618.3 0.79121 7.47(9) 116.7 7.223 7.526
3620.1 0.79161 7.60(9) 114.6 7.222 7.533
3621.9 0.79200 7.55(9) 115.4 7.220 7.544
3623.7 0.79240 7.50(9) 116.3 7.219 7.560
3625.5 0.79280 7.50(9) 116.1 7.217 7.582
3627.3 0.79319 7.63(9) 114.2 7.215 7.612
3629.2 0.79359 7.67(9) 113.5 7.214 7.652
3631.0 0.79399 7.70(9) 113.3 7.212 7.704
3632.8 0.79438 7.74(9) 112.6 7.211 7.772
3634.6 0.79478 7.75(9) 112.5 7.209 7.859
3636.4 0.79518 7.93(10) 109.9 7.208 7.968
3638.2 0.79557 8.05(10) 108.3 7.206 8.108
3640.1 0.79598 8.18(10) 106.5 7.205 8.279
3641.9 0.79637 8.45(10) 103.1 7.203 8.488
3643.7 0.79677 8.71(10) 100.1 7.202 8.744
3645.5 0.79717 9.01(10) 96.7 7.200 9.059
3647.3 0.79757 9.40(10) 92.7 7.199 9.435
3649.2 0.79797 9.77(11) 89.1 7.197 9.869
3651.0 0.79836 10.19(11) 85.3 7.196 10.358
3652.8 0.79877 10.64(11) 81.7 7.194 10.878
3654.6 0.79916 11.18(11) 77.8 7.193 11.396
3656.5 0.79957 11.55(12) 75.3 7.191 11.870
3658.3 0.79996 12.03(12) 72.3 7.190 12.254
3660.1 0.80037 12.25(12) 70.9 7.188 12.508
3661.9 0.80076 12.38(12) 70.2 7.187 12.614
3663.8 0.80117 12.39(12) 70.2 7.185 12.580
3665.6 0.80157 12.25(12) 70.9 7.184 12.432
3667.4 0.80197 12.22(12) 71.1 7.182 12.205
3669.3 0.80237 11.94(12) 72.8 7.181 11.927
3671.1 0.80278 11.69(12) 74.4 7.179 11.631
3672.9 0.80317 11.41(11) 76.2 7.177 11.332
3674.8 0.80358 11.03(11) 78.9 7.176 11.039
3676.6 0.80398 10.65(11) 81.7 7.174 10.759
3678.5 0.80438 10.41(11) 83.6 7.173 10.494
3680.3 0.80479 10.19(11) 85.4 7.171 10.245
3682.2 0.80519 9.97(11) 87.4 7.170 10.016
3684.0 0.80559 9.86(11) 88.3 7.168 9.808
3685.8 0.80599 9.64(11) 90.3 7.167 9.620
3687.7 0.80639 9.51(10) 91.5 7.165 9.453
3689.5 0.80680 9.46(10) 92.1 7.164 9.304
3691.3 0.80720 9.29(10) 93.8 7.162 9.169
3693.2 0.80760 9.04(10) 96.5 7.161 9.041
3695.1 0.80801 9.00(10) 96.9 7.159 8.916
3696.9 0.80842 8.94(10) 97.5 7.158 8.797
3698.8 0.80882 9.00(10) 96.9 7.156 8.674
3700.6 0.80922 8.71(10) 100.1 7.155 8.552
3702.4 0.80963 8.63(10) 101.1 7.153 8.434
3704.3 0.81003 8.58(10) 101.7 7.152 8.321
3706.2 0.81044 8.40(10) 103.8 7.150 8.216
3708.0 0.81084 8.23(10) 106.1 7.149 8.119
3709.8 0.81125 8.18(10) 106.6 7.147 8.030
3711.7 0.81166 8.19(10) 106.6 7.146 7.948
3713.6 0.81206 8.08(10) 107.9 7.144 7.873
3715.4 0.81247 8.01(10) 109.0 7.143 7.804
3717.3 0.81288 7.98(10) 109.4 7.141 7.742
3719.1 0.81328 7.93(10) 110.1 7.140 7.684
3721.0 0.81369 7.85(9) 111.3 7.138 7.633
3722.8 0.81409 7.76(9) 112.5 7.137 7.588
3724.7 0.81450 7.74(9) 112.7 7.135 7.549
3726.6 0.81491 7.75(9) 112.7 7.134 7.516
3728.4 0.81532 7.73(9) 113.0 7.132 7.491
3730.3 0.81573 7.77(9) 112.3 7.131 7.475
3732.2 0.81614 7.81(9) 111.8 7.129 7.466
3734.0 0.81654 7.89(10) 110.6 7.128 7.467
3735.9 0.81695 7.80(9) 111.8 7.126 7.477
3737.8 0.81736 7.79(9) 112.0 7.125 7.496
3739.7 0.81777 7.85(9) 111.1 7.123 7.522
3741.5 0.81818 7.84(9) 111.3 7.122 7.553
3743.4 0.81859 7.90(10) 110.5 7.120 7.587
3745.3 0.81900 8.04(10) 108.5 7.119 7.622
3747.1 0.81941 8.00(10) 109.1 7.117 7.654
3749.0 0.81982 7.83(9) 111.3 7.116 7.680
3750.9 0.82023 7.93(10) 110.0 7.114 7.702
3752.8 0.82064 7.96(10) 109.6 7.113 7.719
3754.6 0.82105 7.94(10) 109.8 7.111 7.735
3756.5 0.82146 8.00(10) 109.1 7.110 7.752
3758.4 0.82187 7.95(10) 109.6 7.108 7.770
3760.3 0.82228 7.99(10) 109.1 7.107 7.789
3762.2 0.82270 7.97(10) 109.4 7.105 7.808
3764.0 0.82311 7.94(10) 109.8 7.104 7.822
3765.9 0.82352 7.83(9) 111.3 7.102 7.829
3767.8 0.82393 7.82(9) 111.5 7.101 7.827
3769.7 0.82434 7.78(9) 112.1 7.099 7.813
3771.6 0.82476 7.97(10) 109.2 7.098 7.790
3773.4 0.82517 7.96(10) 109.6 7.096 7.761
3775.3 0.82558 7.88(10) 110.6 7.095 7.730
3777.2 0.82599 7.71(9) 113.1 7.093 7.703
3779.1 0.82640 7.77(9) 112.2 7.092 7.684
3781.0 0.82682 7.73(9) 112.7 7.090 7.679
3782.9 0.82723 7.67(9) 113.5 7.089 7.694
3784.8 0.82765 7.84(9) 111.2 7.087 7.737
3786.7 0.82807 8.08(10) 107.8 7.086 7.812
3788.6 0.82848 8.07(10) 107.9 7.085 7.928
3790.5 0.82889 8.35(10) 104.3 7.083 8.088
3792.3 0.82930 8.55(10) 101.8 7.082 8.293
3794.3 0.82972 8.78(10) 99.1 7.080 8.543
3796.2 0.83014 9.17(10) 94.9 7.079 8.823
3798.0 0.83055 9.38(10) 92.7 7.077 9.119
3799.9 0.83096 9.70(11) 89.5 7.076 9.414
3801.8 0.83138 9.94(11) 87.4 7.074 9.682
3803.8 0.83180 10.08(11) 86.2 7.073 9.890
3805.7 0.83222 10.21(11) 85.0 7.071 10.021
3807.6 0.83263 10.30(11) 84.3 7.070 10.073
3809.5 0.83305 10.30(11) 84.3 7.068 10.053
3811.4 0.83347 10.36(11) 83.7 7.067 9.980
3813.3 0.83388 10.23(11) 84.9 7.065 9.871
3815.2 0.83430 10.06(11) 86.3 7.064 9.743
3817.1 0.83472 9.99(11) 86.9 7.062 9.611
3819.0 0.83514 9.93(11) 87.3 7.061 9.481
3820.9 0.83555 9.67(11) 89.7 7.059 9.356
3822.8 0.83597 9.48(10) 91.5 7.058 9.237
3824.7 0.83639 9.50(10) 91.3 7.056 9.120
3826.6 0.83681 9.29(10) 93.3 7.055 9.003
3828.5 0.83722 9.16(10) 94.7 7.054 8.895
3830.5 0.83765 8.95(10) 97.0 7.052 8.797
3832.4 0.83806 9.01(10) 96.3 7.051 8.716
3834.3 0.83848 8.96(10) 96.7 7.049 8.656
3836.2 0.83890 8.91(10) 97.3 7.048 8.627
3838.1 0.83932 8.88(10) 97.6 7.046 8.637
3840.0 0.83974 8.77(10) 98.9 7.045 8.699
3842.0 0.84016 8.87(10) 97.8 7.043 8.826
3843.9 0.84058 9.19(10) 94.3 7.042 9.038
3845.8 0.84100 9.45(10) 91.6 7.040 9.355
3847.7 0.84142 10.05(11) 86.2 7.039 9.797
3849.7 0.84185 10.49(11) 82.5 7.037 10.382
3851.6 0.84227 11.21(11) 77.1 7.036 11.103
3853.5 0.84269 12.03(12) 71.8 7.034 11.948
3855.4 0.84311 13.02(12) 66.3 7.033 12.891
3857.4 0.84353 13.76(13) 62.7 7.031 13.859
3859.3 0.84395 14.58(13) 59.1 7.030 14.781
3861.2 0.84438 15.28(13) 56.3 7.029 15.573
3863.2 0.84480 15.85(14) 54.3 7.027 16.139
3865.1 0.84522 16.28(14) 52.8 7.026 16.421
3867.0 0.84564 16.31(14) 52.7 7.024 16.416
3868.9 0.84607 16.04(14) 53.6 7.023 16.154
3870.9 0.84649 15.74(14) 54.6 7.021 15.692
3872.8 0.84691 15.22(13) 56.5 7.020 15.096
3874.8 0.84734 14.66(13) 58.6 7.018 14.428
3876.7 0.84776 13.91(13) 61.8 7.017 13.738
3878.6 0.84819 13.02(12) 66.1 7.015 13.062
3880.6 0.84861 12.37(12) 69.6 7.014 12.424
3882.5 0.84903 11.77(12) 73.2 7.013 11.840
3884.4 0.84946 11.41(12) 75.5 7.011 11.309
3886.4 0.84989 10.92(11) 78.9 7.010 10.838
3888.3 0.85031 10.53(11) 81.9 7.008 10.428
3890.3 0.85074 10.17(11) 84.7 7.007 10.072
3892.2 0.85116 9.82(11) 87.8 7.005 9.764
3894.2 0.85158 9.70(11) 88.8 7.004 9.497
3896.1 0.85202 9.44(10) 91.4 7.002 9.270
3898.1 0.85244 9.28(10) 92.9 7.001 9.076
3900.0 0.85286 8.94(10) 96.4 6.999 8.906
3902.0 0.85329 8.91(10) 96.7 6.998 8.757
3903.9 0.85372 8.69(10) 99.2 6.997 8.622
3905.9 0.85415 8.67(10) 99.3 6.995 8.497
3907.8 0.85457 8.62(10) 100.0 6.994 8.379
3909.8 0.85500 8.47(10) 101.7 6.992 8.269
3911.7 0.85543 8.47(10) 101.7 6.991 8.166
3913.7 0.85586 8.35(10) 103.2 6.989 8.072
3915.7 0.85629 8.24(10) 104.4 6.988 7.987
3917.6 0.85671 8.11(10) 106.2 6.986 7.912
3919.6 0.85714 8.04(10) 107.1 6.985 7.845
3921.5 0.85758 8.09(10) 106.4 6.983 7.786
3923.5 0.85800 8.04(10) 107.0 6.982 7.732
3925.4 0.85843 7.97(10) 108.0 6.981 7.682
3927.4 0.85886 7.90(10) 108.9 6.979 7.636
3929.4 0.85929 7.75(9) 111.1 6.978 7.591
3931.3 0.85972 7.81(10) 110.1 6.976 7.550
3933.3 0.86015 7.74(9) 111.1 6.975 7.514
3935.3 0.86058 7.76(9) 110.8 6.973 7.483
3937.2 0.86101 7.67(9) 112.2 6.972 7.461
3939.2 0.86144 7.78(10) 110.5 6.971 7.450
3941.2 0.86187 7.77(10) 110.6 6.969 7.455
3943.1 0.86230 7.78(10) 110.5 6.968 7.482
3945.1 0.86274 7.71(9) 111.4 6.966 7.539
3947.1 0.86317 7.90(10) 108.7 6.965 7.637
3949.1 0.86360 8.11(10) 105.8 6.963 7.785
3951.0 0.86403 8.23(10) 104.3 6.962 7.997
3953.0 0.86446 8.37(10) 102.5 6.960 8.282
3955.0 0.86490 8.75(10) 98.1 6.959 8.643
3957.0 0.86533 9.14(10) 93.8 6.958 9.072
3958.9 0.86576 9.74(11) 87.9 6.956 9.563
3960.9 0.86619 10.18(11) 84.1 6.955 10.085
3962.9 0.86663 10.59(11) 80.8 6.953 10.604
3964.9 0.86706 10.89(11) 78.5 6.952 11.075
3966.9 0.86750 11.35(12) 75.3 6.950 11.449
3968.8 0.86793 11.41(12) 74.8 6.949 11.687
3970.8 0.86837 11.59(12) 73.7 6.948 11.775
3972.8 0.86880 11.80(12) 72.4 6.946 11.720
3974.8 0.86924 11.67(12) 73.1 6.945 11.548
3976.8 0.86967 11.41(12) 74.8 6.943 11.294
3978.8 0.87010 11.12(11) 76.7 6.942 10.987
3980.8 0.87054 10.94(11) 78.1 6.940 10.661
3982.8 0.87097 10.59(11) 80.6 6.939 10.337
3984.8 0.87141 9.99(11) 85.4 6.938 10.025
3986.8 0.87185 9.70(11) 88.0 6.936 9.738
3988.8 0.87229 9.70(11) 88.1 6.935 9.482
3990.7 0.87272 9.36(10) 91.1 6.933 9.254
3992.7 0.87315 9.04(10) 94.4 6.932 9.056
3994.7 0.87359 8.80(10) 97.1 6.930 8.889
3996.7 0.87403 8.78(10) 97.3 6.929 8.754
3998.7 0.87447 8.68(10) 98.3 6.928 8.652
4000.7 0.87491 8.75(10) 97.4 6.926 8.578
4002.7 0.87534 8.76(10) 97.4 6.925 8.534
4004.7 0.87578 8.72(10) 97.8 6.923 8.512
4006.7 0.87622 8.73(10) 97.6 6.922 8.505
4008.7 0.87666 8.83(10) 96.6 6.921 8.503
4010.7 0.87709 8.91(10) 95.6 6.919 8.497
4012.8 0.87754 8.80(10) 96.9 6.918 8.476
4014.8 0.87798 8.68(10) 98.2 6.916 8.437
4016.8 0.87841 8.74(10) 97.4 6.915 8.381
4018.8 0.87885 8.60(10) 99.0 6.913 8.309
4020.8 0.87930 8.45(10) 100.8 6.912 8.229
4022.8 0.87973 8.39(10) 101.5 6.911 8.147
4024.8 0.88017 8.33(10) 102.2 6.909 8.068
4026.8 0.88062 8.32(10) 102.3 6.908 7.994
4028.8 0.88105 8.25(10) 103.0 6.906 7.927
4030.8 0.88150 8.21(10) 103.7 6.905 7.866
4032.8 0.88194 8.04(10) 105.8 6.904 7.809
4034.9 0.88238 7.80(10) 109.1 6.902 7.754
4036.9 0.88282 7.80(10) 109.1 6.901 7.710
4038.9 0.88326 7.82(10) 108.7 6.899 7.653
4040.9 0.88370 7.88(10) 107.8 6.898 7.595
4042.9 0.88415 7.70(10) 110.4 6.896 7.536
4045.0 0.88459 7.58(9) 112.1 6.895 7.480
4047.0 0.88503 7.56(9) 112.4 6.894 7.426
4049.0 0.88547 7.59(9) 111.9 6.892 7.375
4051.0 0.88592 7.43(9) 114.3 6.891 7.329
4053.1 0.88636 7.35(9) 115.5 6.889 7.287
4055.1 0.88681 7.43(9) 114.3 6.888 7.250
4057.1 0.88724 7.49(9) 113.3 6.887 7.218
4059.1 0.88769 7.34(9) 115.6 6.885 7.184
4061.2 0.88813 7.24(9) 117.1 6.884 7.162
4063.2 0.88858 7.27(9) 116.6 6.882 7.146
4065.2 0.88902 7.32(9) 115.9 6.881 7.134
4067.3 0.88947 7.28(9) 116.5 6.880 7.128
4069.3 0.88991 7.26(9) 116.7 6.878 7.127
4071.3 0.89036 7.34(9) 115.5 6.877 7.131
4073.4 0.89081 7.16(9) 118.2 6.875 7.138
4075.4 0.89125 7.23(9) 117.1 6.874 7.148
4077.4 0.89170 7.42(9) 114.2 6.873 7.159
4079.5 0.89214 7.30(9) 115.9 6.871 7.170
4081.5 0.89259 7.34(9) 115.4 6.870 7.178
4083.6 0.89304 7.38(9) 114.5 6.868 7.184
4085.6 0.89348 7.36(9) 114.9 6.867 7.188
4087.7 0.89393 7.33(9) 115.4 6.866 7.191
4089.7 0.89438 7.34(9) 115.1 6.864 7.194
4091.7 0.89482 7.40(9) 114.3 6.863 7.200
4093.8 0.89527 7.42(9) 113.9 6.861 7.210
4095.8 0.89572 7.22(9) 117.1 6.860 7.223
4097.9 0.89617 7.18(9) 117.7 6.859 7.239
4099.9 0.89661 7.23(9) 116.7 6.857 7.257
4102.0 0.89706 7.28(9) 116.0 6.856 7.275
4104.0 0.89752 7.34(9) 115.0 6.855 7.291
4106.1 0.89796 7.32(9) 115.3 6.853 7.303
4108.1 0.89841 7.42(9) 113.6 6.852 7.311
4110.2 0.89886 7.34(9) 114.8 6.850 7.315
4112.3 0.89931 7.39(9) 114.1 6.849 7.318
4114.3 0.89976 7.52(9) 112.0 6.848 7.322
4116.3 0.90021 7.41(9) 113.7 6.846 7.329
4118.4 0.90066 7.49(9) 112.4 6.845 7.343
4120.5 0.90111 7.49(9) 112.3 6.843 7.364
4122.5 0.90156 7.53(9) 111.6 6.842 7.395
4124.6 0.90202 7.52(9) 111.9 6.841 7.437
4126.7 0.90247 7.66(10) 109.8 6.839 7.493
4128.7 0.90292 7.59(10) 110.7 6.838 7.567
4130.8 0.90337 7.70(10) 109.2 6.837 7.667
4132.8 0.90382 7.93(10) 105.9 6.835 7.804
4134.9 0.90427 8.07(10) 103.9 6.834 7.992
4137.0 0.90472 8.42(10) 99.7 6.832 8.248
4139.0 0.90518 8.78(10) 95.5 6.831 8.586
4141.1 0.90563 9.09(10) 92.2 6.830 9.012
4143.2 0.90609 9.69(11) 86.4 6.828 9.520
4145.3 0.90654 10.27(11) 81.5 6.827 10.101
4147.3 0.90700 10.72(11) 78.0 6.826 10.722
4149.4 0.90745 11.20(12) 74.6 6.824 11.337
4151.5 0.90790 11.86(12) 70.4 6.823 11.899
4153.6 0.90836 12.26(12) 68.1 6.821 12.346
4155.6 0.90881 12.57(12) 66.3 6.820 12.634
4157.7 0.90927 12.54(12) 66.5 6.819 12.745
4159.8 0.90972 12.53(12) 66.5 6.817 12.690
4161.9 0.91018 12.43(12) 67.0 6.816 12.502
4163.9 0.91063 12.37(12) 67.3 6.815 12.220
4166.0 0.91109 11.92(12) 69.9 6.813 11.889
4168.1 0.91154 11.38(12) 73.2 6.812 11.544
4170.2 0.91199 11.10(12) 75.0 6.810 11.208
4172.3 0.91245 10.87(11) 76.6 6.809 10.894
4174.4 0.91291 10.51(11) 79.2 6.808 10.612
4176.5 0.91337 10.19(11) 81.6 6.806 10.357
4178.5 0.91382 10.11(11) 82.4 6.805 10.123
4180.6 0.91428 9.62(11) 86.5 6.804 9.901
4182.7 0.91474 9.40(11) 88.6 6.802 9.688
4184.8 0.91520 9.19(11) 90.5 6.801 9.484
4186.9 0.91565 9.04(10) 92.0 6.800 9.292
4189.0 0.91611 8.96(10) 92.8 6.798 9.115
4191.1 0.91657 8.92(10) 93.1 6.797 8.959
4193.2 0.91703 8.94(10) 92.9 6.795 8.827
4195.3 0.91749 8.78(10) 94.6 6.794 8.724
4197.4 0.91794 8.80(10) 94.4 6.793 8.652
4199.5 0.91841 8.77(10) 94.6 6.791 8.617
4201.6 0.91887 8.78(10) 94.5 6.790 8.624
4203.7 0.91933 8.72(10) 95.1 6.789 8.685
4205.8 0.91978 8.91(10) 93.1 6.787 8.815
4207.9 0.92024 9.18(11) 90.2 6.786 9.043
4210.0 0.92071 9.36(11) 88.5 6.785 9.405
4212.1 0.92117 10.05(11) 82.3 6.783 9.944
4214.2 0.92163 10.86(11) 76.0 6.782 10.700
4216.3 0.92209 11.92(12) 69.2 6.781 11.697
4218.4 0.92255 13.31(13) 61.9 6.779 12.964
4220.5 0.92301 14.91(13) 55.2 6.778 14.474
4222.6 0.92347 16.64(14) 49.3 6.777 16.174
4224.8 0.92394 18.26(15) 44.9 6.775 17.981
4226.9 0.92440 19.88(16) 41.2 6.774 19.735
4229.0 0.92486 21.15(16) 38.6 6.772 21.285
4231.1 0.92532 22.51(17) 36.2 6.771 22.473
4233.2 0.92579 23.11(17) 35.3 6.770 23.161
4235.3 0.92625 23.38(17) 34.84 6.768 23.321
4237.4 0.92671 23.00(17) 35.4 6.767 22.991
4239.6 0.92718 22.59(17) 36.1 6.766 22.266
4241.7 0.92764 21.71(16) 37.5 6.764 21.263
4243.8 0.92811 20.31(16) 40.1 6.763 20.098
4245.9 0.92857 19.12(15) 42.7 6.762 18.876
4248.0 0.92903 18.04(15) 45.3 6.760 17.661
4250.2 0.92950 16.68(14) 49.0 6.759 16.493
4252.3 0.92996 15.41(14) 53.0 6.758 15.411
4254.4 0.93043 14.28(13) 57.3 6.756 14.421
4256.6 0.93090 13.46(13) 60.8 6.755 13.533
4258.7 0.93136 12.62(12) 64.8 6.754 12.748
4260.8 0.93183 11.86(12) 69.0 6.752 12.053
4262.9 0.93229 11.52(12) 71.0 6.751 11.440
4265.1 0.93276 10.95(12) 74.7 6.750 10.900
4267.2 0.93322 10.43(11) 78.5 6.748 10.421
4269.3 0.93370 10.02(11) 81.6 6.747 10.000
4271.5 0.93416 9.74(11) 84.0 6.746 9.634
4273.6 0.93463 9.35(11) 87.5 6.744 9.311
4275.8 0.93510 9.27(11) 88.2 6.743 9.028
4277.9 0.93556 9.13(11) 89.5 6.742 8.781
4280.0 0.93603 8.81(10) 92.7 6.740 8.565
4282.2 0.93650 8.65(10) 94.4 6.739 8.376
4284.3 0.93697 8.56(10) 95.4 6.738 8.210
4286.4 0.93744 8.39(10) 97.3 6.736 8.065
4288.6 0.93791 8.32(10) 98.1 6.735 7.939
4290.7 0.93837 8.31(10) 98.2 6.734 7.831
4292.9 0.93885 8.01(10) 101.8 6.732 7.741
4295.0 0.93932 7.96(10) 102.4 6.731 7.669
4297.2 0.93978 7.95(10) 102.6 6.730 7.615
4299.3 0.94025 7.99(10) 102.0 6.728 7.579
4301.5 0.94073 7.98(10) 102.1 6.727 7.559
4303.6 0.94120 7.92(10) 102.8 6.726 7.553
4305.8 0.94167 7.86(10) 103.5 6.724 7.559
4307.9 0.94214 7.84(10) 103.7 6.723 7.570
4310.1 0.94261 7.86(10) 103.4 6.722 7.582
4312.2 0.94308 7.93(10) 102.5 6.720 7.588
4314.4 0.94355 7.86(10) 103.4 6.719 7.584
4316.5 0.94402 7.76(10) 104.5 6.718 7.567
4318.7 0.94450 7.73(10) 105.0 6.716 7.539
4320.9 0.94497 7.70(10) 105.3 6.715 7.502
4323.0 0.94545 7.64(10) 106.1 6.714 7.461
4325.2 0.94592 7.53(10) 107.6 6.713 7.420
4327.3 0.94639 7.54(10) 107.6 6.711 7.380
4329.5 0.94686 7.50(10) 108.0 6.710 7.346
4331.7 0.94734 7.55(10) 107.3 6.709 7.319
4333.8 0.94781 7.57(10) 107.0 6.707 7.299
4336.0 0.94828 7.42(10) 108.9 6.706 7.287
4338.2 0.94876 7.37(10) 109.7 6.705 7.282
4340.3 0.94923 7.54(10) 107.3 6.703 7.286
4342.5 0.94971 7.55(10) 107.0 6.702 7.301
4344.7 0.95019 7.53(10) 107.2 6.701 7.332
4346.8 0.95066 7.65(10) 105.6 6.699 7.387
4349.0 0.95114 7.56(10) 106.7 6.698 7.475
4351.2 0.95162 7.69(10) 104.9 6.697 7.600
4353.4 0.95209 7.90(10) 102.1 6.696 7.784
4355.6 0.95257 8.19(10) 98.3 6.694 8.028
4357.8 0.95304 8.52(10) 94.5 6.693 8.329
4359.9 0.95352 8.88(11) 90.6 6.692 8.681
4362.1 0.95400 9.36(11) 85.8 6.690 9.071
4364.3 0.95447 9.68(11) 83.0 6.689 9.469
4366.5 0.95495 10.03(11) 80.0 6.688 9.842
4368.7 0.95543 10.42(11) 77.0 6.686 10.149
4370.8 0.95590 10.55(11) 76.0 6.685 10.360
4373.0 0.95638 10.69(12) 74.9 6.684 10.457
4375.2 0.95686 10.61(12) 75.5 6.682 10.439
4377.4 0.95734 10.45(11) 76.6 6.681 10.322
4379.6 0.95782 10.23(11) 78.3 6.680 10.134
4381.8 0.95830 10.14(11) 78.9 6.679 9.899
4384.0 0.95878 9.90(11) 80.8 6.677 9.644
4386.2 0.95926 9.81(11) 81.5 6.676 9.389
4388.3 0.95974 9.57(11) 83.6 6.675 9.147
4390.5 0.96022 9.14(11) 87.5 6.673 8.925
4392.7 0.96070 8.89(11) 89.9 6.672 8.725
4394.9 0.96118 8.62(10) 92.7 6.671 8.547
4397.1 0.96166 8.44(10) 94.6 6.670 8.388
4399.3 0.96214 8.31(10) 96.1 6.668 8.243
4401.5 0.96263 8.06(10) 99.0 6.667 8.107
4403.7 0.96311 7.95(10) 100.4 6.666 7.980
4405.9 0.96359 7.81(10) 102.2 6.664 7.859
4408.1 0.96407 7.70(10) 103.7 6.663 7.746
4410.3 0.96456 7.46(10) 107.0 6.662 7.641
4412.5 0.96503 7.43(10) 107.3 6.661 7.545
4414.8 0.96552 7.40(10) 107.7 6.659 7.459
4416.9 0.96600 7.41(10) 107.6 6.658 7.383
4419.2 0.96648 7.18(9) 111.0 6.657 7.317
4421.4 0.96697 7.28(10) 109.4 6.655 7.260
4423.6 0.96745 7.20(10) 110.6 6.654 7.211
4425.8 0.96793 7.10(9) 112.1 6.653 7.168
4428.0 0.96842 7.11(9) 111.8 6.652 7.114
4430.2 0.96891 7.08(9) 112.3 6.650 7.079
4432.4 0.96939 7.05(9) 112.6 6.649 7.045
4434.7 0.96988 7.01(9) 113.3 6.648 7.012
4436.9 0.97036 6.90(9) 115.1 6.646 6.981
4439.1 0.97085 6.81(9) 116.6 6.645 6.952
4441.3 0.97133 6.78(9) 117.0 6.644 6.925
4443.5 0.97182 6.83(9) 116.1 6.643 6.902
4445.8 0.97230 6.88(9) 115.2 6.641 6.881
4448.0 0.97279 7.00(9) 113.1 6.640 6.864
4450.2 0.97328 7.01(9) 112.9 6.639 6.851
4452.4 0.97376 6.95(9) 113.9 6.638 6.840
4454.7 0.97425 6.90(9) 114.7 6.636 6.831
4456.9 0.97474 6.92(9) 114.2 6.635 6.823
4459.1 0.97523 6.79(9) 116.5 6.634 6.815
4461.3 0.97572 6.76(9) 116.9 6.632 6.807
4463.6 0.97620 6.68(9) 118.3 6.631 6.798
4465.8 0.97669 6.72(9) 117.5 6.630 6.787
4468.0 0.97718 6.73(9) 117.3 6.629 6.775
4470.3 0.97767 6.65(9) 118.7 6.627 6.762
4472.5 0.97816 6.66(9) 118.5 6.626 6.750
4474.7 0.97864 6.73(9) 117.1 6.625 6.737
4477.0 0.97914 6.80(9) 115.8 6.624 6.726
4479.2 0.97963 6.57(9) 119.9 6.622 6.715
4481.4 0.98012 6.66(9) 118.1 6.621 6.704
4483.7 0.98061 6.68(9) 117.9 6.620 6.695
4485.9 0.98110 6.68(9) 117.7 6.619 6.687
4488.2 0.98159 6.62(9) 118.8 6.617 6.679
4490.4 0.98208 6.52(9) 120.5 6.616 6.672
4492.7 0.98257 6.62(9) 118.6 6.615 6.666
4494.9 0.98306 6.55(9) 119.9 6.614 6.661
4497.2 0.98356 6.55(9) 119.8 6.612 6.657
4499.4 0.98405 6.58(9) 119.3 6.611 6.653
4501.7 0.98454 6.65(9) 117.9 6.610 6.650
4503.9 0.98503 6.61(9) 118.5 6.609 6.647
4506.2 0.98553 6.52(9) 120.1 6.607 6.646
4508.4 0.98602 6.59(9) 118.8 6.606 6.645
4510.7 0.98651 6.65(9) 117.6 6.605 6.645
4512.9 0.98700 6.58(9) 118.9 6.603 6.646
4515.2 0.98750 6.57(9) 119.0 6.602 6.647
4517.4 0.98799 6.55(9) 119.3 6.601 6.649
4519.7 0.98849 6.63(9) 117.7 6.600 6.651
4521.9 0.98898 6.52(9) 119.8 6.599 6.653
4524.2 0.98948 6.59(9) 118.5 6.597 6.656
4526.5 0.98997 6.54(9) 119.1 6.596 6.659
4528.8 0.99047 6.44(9) 121.1 6.595 6.662
4531.0 0.99096 6.56(9) 118.7 6.594 6.668
4533.3 0.99146 6.51(9) 119.5 6.592 6.678
4535.5 0.99195 6.62(9) 117.6 6.591 6.697
4537.8 0.99245 6.56(9) 118.6 6.590 6.717
4540.1 0.99295 6.54(9) 118.9 6.589 6.745
4542.3 0.99345 6.72(9) 115.7 6.587 6.781
4544.6 0.99395 6.73(9) 115.5 6.586 6.823
4546.9 0.99444 6.82(9) 113.8 6.585 6.870
4549.2 0.99494 6.84(9) 113.4 6.584 6.920
4551.4 0.99544 6.92(9) 112.1 6.582 6.969
4553.7 0.99594 6.84(9) 113.3 6.581 7.011
4556.0 0.99643 6.97(9) 111.0 6.580 7.042
4558.3 0.99693 7.12(10) 108.7 6.579 7.059
4560.5 0.99743 7.06(10) 109.6 6.577 7.061
4562.8 0.99793 7.06(10) 109.5 6.576 7.049
4565.1 0.99843 6.93(9) 111.4 6.575 7.027
4567.4 0.99892 7.00(10) 110.4 6.574 6.995
4569.7 0.99942 6.87(9) 112.4 6.573 6.962
4572.0 0.99993 6.90(9) 111.7 6.571 6.929
4574.3 1.00043 6.87(9) 112.3 6.570 6.897
4576.5 1.00093 6.70(9) 114.9 6.569 6.868
4578.8 1.00143 6.67(9) 115.5 6.568 6.843
4581.1 1.00193 6.56(9) 117.4 6.566 6.820
4583.4 1.00243 6.63(9) 116.0 6.565 6.801
4585.7 1.00293 6.78(9) 113.4 6.564 6.784
4588.0 1.00343 6.70(9) 114.8 6.563 6.769
4590.3 1.00394 6.72(9) 114.3 6.561 6.754
4592.6 1.00444 6.62(9) 116.0 6.560 6.740
4594.9 1.00494 6.53(9) 117.4 6.559 6.726
4597.2 1.00544 6.54(9) 117.3 6.558 6.711
4599.5 1.00595 6.45(9) 118.9 6.557 6.698
4601.8 1.00645 6.46(9) 118.6 6.555 6.685
4604.1 1.00695 6.48(9) 118.2 6.554 6.672
4606.4 1.00746 6.52(9) 117.3 6.553 6.661
4608.7 1.00796 6.51(9) 117.4 6.552 6.651
4611.0 1.00847 6.55(9) 116.7 6.551 6.643
4613.3 1.00897 6.49(9) 117.8 6.549 6.635
4615.6 1.00948 6.65(9) 114.7 6.548 6.628
4617.9 1.00998 6.49(9) 117.6 6.547 6.622
4620.2 1.01048 6.45(9) 118.2 6.546 6.618
4622.5 1.01099 6.41(9) 118.9 6.544 6.614
4624.8 1.01150 6.49(9) 117.4 6.543 6.612
4627.1 1.01200 6.61(9) 115.0 6.542 6.612
4629.4 1.01251 6.55(9) 116.1 6.541 6.614
4631.8 1.01301 6.61(9) 114.9 6.540 6.619
4634.1 1.01352 6.64(9) 114.3 6.538 6.630
4636.4 1.01403 6.52(9) 116.4 6.537 6.646
4638.7 1.01454 6.49(9) 116.8 6.536 6.669
4641.0 1.01505 6.51(9) 116.4 6.535 6.701
4643.3 1.01555 6.68(9) 113.5 6.534 6.742
4645.7 1.01606 6.65(9) 113.9 6.532 6.793
4648.0 1.01657 6.77(9) 111.8 6.531 6.850
4650.3 1.01708 6.88(10) 110.0 6.530 6.913
4652.7 1.01759 6.99(10) 108.1 6.529 6.976
4655.0 1.01810 6.94(10) 108.8 6.528 7.033
4657.3 1.01861 6.98(10) 108.1 6.526 7.080
4659.6 1.01912 7.05(10) 107.0 6.525 7.112
4662.0 1.01963 7.12(10) 105.8 6.524 7.126
4664.3 1.02013 7.10(10) 106.0 6.523 7.123
4666.6 1.02065 7.13(10) 105.6 6.522 7.108
4669.0 1.02116 7.10(10) 105.9 6.520 7.083
4671.3 1.02167 7.06(10) 106.5 6.519 7.054
4673.6 1.02218 7.07(10) 106.3 6.518 7.026
4676.0 1.02269 6.88(10) 109.1 6.517 7.001
4678.3 1.02321 6.85(10) 109.5 6.516 6.983
4680.6 1.02371 6.92(10) 108.4 6.514 6.972
4683.0 1.02422 6.90(10) 108.6 6.513 6.968
4685.3 1.02474 7.02(10) 106.7 6.512 6.972
4687.7 1.02525 7.01(10) 106.7 6.511 6.982
4690.0 1.02576 6.92(10) 108.0 6.510 6.995
4692.3 1.02628 6.98(10) 107.1 6.509 7.011
4694.7 1.02679 6.97(10) 107.2 6.507 7.029
4697.0 1.02730 6.95(10) 107.5 6.506 7.051
4699.4 1.02782 7.04(10) 105.9 6.505 7.082
4701.8 1.02834 7.06(10) 105.6 6.504 7.131
4704.1 1.02885 7.09(10) 105.1 6.503 7.211
4706.4 1.02936 7.36(10) 101.1 6.501 7.339
4708.8 1.02988 7.51(10) 99.0 6.500 7.531
4711.2 1.03039 7.83(10) 94.9 6.499 7.803
4713.5 1.03091 8.11(10) 91.5 6.498 8.172
4715.9 1.03143 8.62(11) 86.0 6.497 8.642
4718.2 1.03194 9.26(11) 80.0 6.496 9.208
4720.6 1.03246 9.92(12) 74.6 6.494 9.849
4722.9 1.03297 10.68(12) 69.2 6.493 10.531
4725.3 1.03349 11.22(12) 65.8 6.492 11.202
4727.7 1.03401 11.85(13) 62.2 6.491 11.799
4730.0 1.03453 12.45(13) 59.2 6.490 12.262
4732.4 1.03504 12.54(13) 58.7 6.488 12.542
4734.8 1.03556 12.51(13) 58.8 6.487 12.616
4737.1 1.03608 12.61(13) 58.3 6.486 12.501
4739.5 1.03660 12.32(13) 59.7 6.485 12.234
4741.9 1.03712 12.09(13) 60.8 6.484 11.858
4744.3 1.03764 11.64(13) 63.1 6.483 11.417
4746.6 1.03816 10.99(12) 66.8 6.481 10.950
4749.0 1.03868 10.49(12) 70.0 6.480 10.484
4751.4 1.03920 10.04(12) 73.1 6.479 10.040
4753.8 1.03972 9.62(11) 76.2 6.478 9.630
4756.1 1.04024 9.40(11) 78.0 6.477 9.258
4758.5 1.04076 8.81(11) 83.2 6.476 8.926
4760.9 1.04128 8.50(11) 86.2 6.475 8.633
4763.3 1.04180 8.15(11) 89.8 6.473 8.374
4765.6 1.04232 7.89(10) 92.8 6.472 8.148
4768.0 1.04284 7.83(10) 93.5 6.471 7.949
4770.4 1.04336 7.67(10) 95.4 6.470 7.777
4772.8 1.04388 7.53(10) 97.1 6.469 7.631
4775.2 1.04440 7.40(10) 98.7 6.468 7.506
4777.6 1.04493 7.41(10) 98.4 6.466 7.404
4779.9 1.04545 7.17(10) 101.7 6.465 7.324
4782.3 1.04597 7.07(10) 103.2 6.464 7.269
4784.7 1.04649 7.04(10) 103.6 6.463 7.241
4787.1 1.04702 7.10(10) 102.6 6.462 7.240
4789.5 1.04754 7.21(10) 100.9 6.461 7.269
4791.9 1.04807 7.36(10) 98.8 6.460 7.327
4794.3 1.04859 7.52(10) 96.6 6.458 7.410
4796.7 1.04911 7.56(10) 96.0 6.457 7.514
4799.1 1.04964 7.52(10) 96.5 6.456 7.629
4801.5 1.05017 7.71(10) 94.0 6.455 7.742
4803.9 1.05069 7.96(10) 91.0 6.454 7.839
4806.3 1.05122 8.09(11) 89.5 6.453 7.906
4808.7 1.05175 8.10(11) 89.3 6.451 7.935
4811.1 1.05227 8.02(11) 90.1 6.450 7.923
4813.5 1.05279 7.85(10) 92.1 6.449 7.875
4815.9 1.05333 7.77(10) 92.9 6.448 7.799
4818.3 1.05385 7.69(10) 93.8 6.447 7.705
4820.8 1.05438 7.51(10) 96.0 6.446 7.603
4823.2 1.05491 7.36(10) 98.0 6.445 7.501
4825.6 1.05543 7.25(10) 99.3 6.444 7.405
4828.0 1.05596 7.24(10) 99.4 6.442 7.319
4830.4 1.05649 7.11(10) 101.2 6.441 7.244
4832.8 1.05702 6.98(10) 103.0 6.440 7.182
4835.2 1.05755 6.89(10) 104.2 6.439 7.133
4837.6 1.05807 6.97(10) 103.0 6.438 7.093
4840.1 1.05861 6.71(10) 107.0 6.437 7.061
4842.5 1.05913 6.72(10) 106.8 6.436 7.033
4844.9 1.05967 6.87(10) 104.3 6.434 7.006
4847.3 1.06020 6.88(10) 104.1 6.433 6.978
4849.8 1.06073 6.80(10) 105.3 6.432 6.947
4852.2 1.06126 6.68(10) 107.0 6.431 6.914
4854.6 1.06179 6.70(10) 106.7 6.430 6.879
4857.0 1.06232 6.76(10) 105.7 6.429 6.843
4859.4 1.06285 6.60(10) 108.1 6.428 6.808
4861.9 1.06338 6.70(10) 106.4 6.427 6.774
4864.3 1.06392 6.62(10) 107.7 6.425 6.743
4866.8 1.06445 6.57(10) 108.3 6.424 6.715
4869.2 1.06498 6.44(10) 110.5 6.423 6.690
4871.6 1.06552 6.58(10) 108.1 6.422 6.669
4874.0 1.06604 6.69(10) 106.2 6.421 6.651
4876.5 1.06658 6.67(10) 106.5 6.420 6.636
4878.9 1.06712 6.49(10) 109.4 6.419 6.624
4881.4 1.06765 6.44(10) 110.1 6.418 6.616
4883.8 1.06818 6.41(10) 110.7 6.417 6.612
4886.3 1.06872 6.47(10) 109.4 6.415 6.612
4888.7 1.06925 6.41(10) 110.4 6.414 6.618
4891.1 1.06978 6.44(10) 109.8 6.413 6.633
4893.6 1.07032 6.46(10) 109.3 6.412 6.662
4896.0 1.07086 6.50(10) 108.6 6.411 6.712
4898.5 1.07139 6.57(10) 107.4 6.410 6.790
4900.9 1.07193 6.74(10) 104.5 6.409 6.911
4903.4 1.07247 6.90(10) 102.0 6.408 7.088
4905.8 1.07300 7.26(10) 97.0 6.407 7.338
4908.3 1.07354 7.60(10) 92.5 6.405 7.672
4910.7 1.07407 8.19(11) 85.7 6.404 8.100
4913.2 1.07461 8.64(11) 81.2 6.403 8.622
4915.7 1.07515 9.20(11) 76.2 6.402 9.219
4918.1 1.07569 9.99(12) 70.0 6.401 9.864
4920.6 1.07623 10.48(12) 66.7 6.400 10.518
4923.0 1.07677 11.00(13) 63.5 6.399 11.116
4925.5 1.07730 11.45(13) 60.9 6.398 11.602
4927.9 1.07784 11.76(13) 59.2 6.397 11.926
4930.4 1.07838 11.90(13) 58.5 6.395 12.060
4932.9 1.07892 11.99(13) 58.0 6.394 12.008
4935.3 1.07946 12.02(13) 57.8 6.393 11.801
4937.8 1.08000 11.63(13) 59.7 6.392 11.477
4940.3 1.08054 11.30(13) 61.5 6.391 11.079
4942.8 1.08108 10.70(12) 64.9 6.390 10.646
4945.2 1.08162 10.28(12) 67.5 6.389 10.207
4947.7 1.08217 9.62(12) 72.1 6.388 9.784
4950.2 1.08271 9.22(12) 75.2 6.387 9.391
4952.6 1.08325 8.89(11) 77.9 6.386 9.030
4955.1 1.08379 8.51(11) 81.4 6.385 8.709
4957.6 1.08433 8.36(11) 82.8 6.383 8.426
4960.1 1.08487 8.12(11) 85.2 6.382 8.171
4962.6 1.08542 7.79(11) 88.8 6.381 7.953
4965.0 1.08596 7.71(11) 89.6 6.380 7.763
4967.5 1.08650 7.58(10) 91.1 6.379 7.596
4970.0 1.08705 7.42(10) 92.9 6.378 7.451
4972.5 1.08759 7.21(10) 95.7 6.377 7.325
4975.0 1.08814 7.07(10) 97.4 6.376 7.214
4977.5 1.08868 6.88(10) 100.1 6.375 7.120
4979.9 1.08922 7.03(10) 97.9 6.374 7.040
4982.4 1.08977 7.00(10) 98.2 6.373 6.974
4984.9 1.09032 6.90(10) 99.6 6.372 6.923
4987.4 1.09086 6.91(10) 99.3 6.371 6.889
4989.9 1.09141 6.85(10) 100.2 6.369 6.871
4992.4 1.09195 6.87(10) 99.8 6.368 6.873
4994.9 1.09250 6.90(10) 99.3 6.367 6.895
4997.4 1.09305 6.89(10) 99.3 6.366 6.937
4999.9 1.09359 6.93(10) 98.7 6.365 6.997
5002.4 1.09414 7.01(10) 97.4 6.364 7.071
5004.9 1.09469 7.09(10) 96.3 6.363 7.153
5007.4 1.09524 7.17(10) 95.1 6.362 7.234
5009.9 1.09578 7.28(10) 93.6 6.361 7.303
5012.4 1.09633 7.18(10) 94.9 6.360 7.352
5014.9 1.09688 7.31(10) 93.1 6.359 7.374
5017.4 1.09743 7.35(10) 92.5 6.358 7.367
5019.9 1.09798 7.35(10) 92.5 6.357 7.333
5022.4 1.09853 7.32(10) 92.8 6.356 7.279
5025.0 1.09908 7.21(10) 94.1 6.354 7.210
5027.5 1.09963 7.10(10) 95.5 6.353 7.135
5030.0 1.10018 6.94(10) 97.5 6.352 7.057
5032.5 1.10073 7.01(10) 96.5 6.351 6.981
5035.0 1.10128 6.80(10) 99.5 6.350 6.908
5037.5 1.10183 6.69(10) 101.0 6.349 6.842
5040.1 1.10238 6.57(10) 102.8 6.348 6.783
5042.6 1.10293 6.54(10) 103.3 6.347 6.731
5045.1 1.10349 6.50(10) 103.7 6.346 6.685
5047.6 1.10404 6.48(10) 104.0 6.345 6.644
5050.1 1.10459 6.46(10) 104.2 6.344 6.609
5052.7 1.10514 6.60(10) 101.9 6.343 6.578
5055.2 1.10570 6.54(10) 102.8 6.342 6.550
5057.7 1.10625 6.42(10) 104.7 6.341 6.526
5060.3 1.10680 6.40(10) 104.8 6.340 6.505
5062.8 1.10736 6.40(10) 104.7 6.339 6.486
5065.3 1.10791 6.26(10) 107.0 6.338 6.469
5067.8 1.10847 6.31(10) 106.1 6.337 6.455
5070.4 1.10902 6.33(10) 105.6 6.336 6.452
5072.9 1.10957 6.25(10) 106.9 6.334 6.441
5075.4 1.11013 6.20(10) 107.7 6.333 6.431
5078.0 1.11068 6.24(10) 106.9 6.332 6.421
5080.5 1.11124 6.23(10) 106.9 6.331 6.413
5083.1 1.11180 6.20(10) 107.5 6.330 6.406
5085.6 1.11235 6.27(10) 106.2 6.329 6.400
5088.2 1.11291 6.27(10) 106.0 6.328 6.395
5090.7 1.11347 6.22(10) 106.9 6.327 6.390
5093.3 1.11403 6.25(10) 106.2 6.326 6.386
5095.8 1.11458 6.30(10) 105.4 6.325 6.382
5098.3 1.11514 6.33(10) 104.7 6.324 6.379
5100.9 1.11570 6.36(10) 104.2 6.323 6.377
5103.4 1.11626 6.29(10) 105.3 6.322 6.375
5106.0 1.11681 6.26(10) 105.7 6.321 6.373
5108.5 1.11737 6.18(10) 106.9 6.320 6.373
5111.1 1.11793 6.30(10) 104.7 6.319 6.373
5113.7 1.11849 6.31(10) 104.4 6.318 6.374
5116.2 1.11905 6.24(10) 105.7 6.317 6.378
5118.8 1.11961 6.41(10) 102.7 6.316 6.384
5121.3 1.12017 6.20(10) 106.1 6.315 6.395
5123.9 1.12073 6.16(10) 106.7 6.314 6.412
5126.4 1.12129 6.27(10) 104.8 6.313 6.436
5129.0 1.12185 6.37(10) 103.1 6.312 6.469
5131.6 1.12241 6.38(10) 102.7 6.311 6.513
5134.1 1.12297 6.54(10) 100.2 6.310 6.568
5136.7 1.12353 6.55(10) 100.0 6.309 6.634
5139.3 1.12410 6.58(10) 99.4 6.308 6.708
5141.8 1.12466 6.70(10) 97.5 6.307 6.785
5144.4 1.12522 6.84(10) 95.4 6.306 6.860
5147.0 1.12578 6.91(10) 94.4 6.305 6.925
5149.6 1.12635 6.93(10) 94.1 6.304 6.974
5152.1 1.12691 6.98(10) 93.2 6.303 7.002
5154.7 1.12748 6.89(10) 94.4 6.302 7.007
5157.3 1.12804 6.90(10) 94.2 6.301 6.987
5159.9 1.12861 6.96(10) 93.2 6.300 6.957
5162.4 1.12917 6.93(10) 93.6 6.299 6.916
5165.0 1.12974 6.99(10) 92.7 6.298 6.870
5167.6 1.13030 6.94(10) 93.4 6.297 6.824
5170.2 1.13087 6.76(10) 95.7 6.296 6.781
5172.8 1.13143 6.59(10) 98.0 6.294 6.746
5175.4 1.13200 6.71(10) 96.2 6.293 6.720
5177.9 1.13256 6.53(10) 98.9 6.292 6.705
5180.5 1.13313 6.61(10) 97.6 6.291 6.702
5183.1 1.13370 6.60(10) 97.6 6.290 6.711
5185.7 1.13427 6.46(10) 99.7 6.289 6.730
5188.3 1.13483 6.44(10) 99.8 6.288 6.757
5190.9 1.13540 6.50(10) 98.8 6.287 6.788
5193.5 1.13597 6.50(10) 98.8 6.286 6.819
5196.1 1.13654 6.70(10) 95.8 6.285 6.845
5198.7 1.13711 6.86(10) 93.4 6.284 6.861
5201.3 1.13768 6.76(10) 94.7 6.283 6.864
5203.9 1.13825 6.72(10) 95.2 6.282 6.854
5206.5 1.13882 6.75(10) 94.7 6.282 6.832
5209.1 1.13938 6.76(10) 94.5 6.281 6.803
5211.7 1.13996 6.65(10) 95.9 6.280 6.768
5214.3 1.14053 6.55(10) 97.2 6.279 6.731
5216.9 1.14110 6.45(10) 98.8 6.278 6.694
5219.5 1.14167 6.46(10) 98.5 6.277 6.660
5222.1 1.14224 6.52(10) 97.6 6.276 6.629
5224.8 1.14281 6.45(10) 98.6 6.275 6.601
5227.4 1.14338 6.49(10) 97.9 6.274 6.578
5230.0 1.14395 6.50(10) 97.5 6.273 6.559
5232.6 1.14453 6.32(10) 100.2 6.272 6.560
5235.2 1.14510 6.35(10) 99.7 6.271 6.548
5237.8 1.14567 6.37(10) 99.3 6.270 6.541
5240.4 1.14624 6.38(10) 99.0 6.269 6.537
5243.1 1.14682 6.49(10) 97.2 6.268 6.535
5245.7 1.14739 6.45(10) 97.8 6.267 6.538
5248.3 1.14797 6.50(10) 96.9 6.266 6.544
5250.9 1.14854 6.39(10) 98.5 6.265 6.555
5253.6 1.14912 6.47(10) 97.2 6.264 6.573
5256.2 1.14969 6.47(10) 97.1 6.263 6.599
5258.8 1.15027 6.49(10) 96.7 6.262 6.640
5261.4 1.15084 6.51(10) 96.4 6.261 6.704
5264.1 1.15141 6.68(10) 93.8 6.260 6.803
5266.7 1.15200 6.82(10) 91.7 6.259 6.958
5269.3 1.15257 6.84(10) 91.5 6.258 7.193
5272.0 1.15315 7.23(11) 86.4 6.257 7.544
5274.6 1.15373 7.81(11) 79.9 6.256 8.048
5277.3 1.15430 8.35(12) 74.6 6.255 8.741
5279.9 1.15488 9.33(12) 66.7 6.254 9.659
5282.5 1.15546 10.80(13) 57.5 6.253 10.814
5285.2 1.15603 12.35(14) 50.2 6.252 12.191
5287.8 1.15661 13.83(15) 44.7 6.251 13.752
5290.5 1.15720 15.42(16) 40.0 6.250 15.392
5293.1 1.15777 17.11(17) 36.0 6.249 16.998
5295.8 1.15835 18.34(17) 33.55 6.248 18.428
5298.4 1.15893 19.36(18) 31.74 6.247 19.513
5301.0 1.15951 19.76(18) 31.06 6.246 20.155
5303.7 1.16009 20.19(18) 30.36 6.245 20.317
5306.3 1.16067 20.14(18) 30.41 6.244 20.031
5309.0 1.16125 19.61(18) 31.22 6.244 19.386
5311.7 1.16183 19.02(18) 32.16 6.243 18.486
5314.3 1.16241 17.93(17) 34.11 6.242 17.438
5317.0 1.16300 16.92(17) 36.1 6.241 16.335
5319.6 1.16358 15.42(16) 39.7 6.240 15.247
5322.3 1.16416 14.13(15) 43.3 6.239 14.225
5324.9 1.16474 13.26(15) 46.1 6.238 13.299
5327.6 1.16532 12.27(14) 49.8 6.237 12.481
5330.3 1.16591 11.58(14) 52.7 6.236 11.783
5332.9 1.16649 10.86(13) 56.2 6.235 11.204
5335.6 1.16707 10.34(13) 59.0 6.234 10.733
5338.3 1.16766 9.93(13) 61.4 6.233 10.359
5340.9 1.16824 9.65(13) 63.1 6.232 10.070
5343.6 1.16883 9.43(12) 64.6 6.231 9.848
5346.3 1.16941 9.21(12) 66.0 6.230 9.670
5349.0 1.17000 8.98(12) 67.6 6.229 9.516
5351.6 1.17058 8.85(12) 68.5 6.228 9.364
5354.3 1.17117 8.66(12) 70.0 6.227 9.201
5357.0 1.17175 8.56(12) 70.8 6.226 9.020
5359.7 1.17234 8.55(12) 70.8 6.226 8.820
5362.3 1.17293 8.28(12) 73.0 6.225 8.609
5365.0 1.17352 8.08(12) 74.8 6.224 8.394
5367.7 1.17410 8.01(12) 75.4 6.223 8.186
5370.4 1.17469 7.79(11) 77.5 6.222 7.991
5373.1 1.17527 7.55(11) 79.9 6.221 7.812
5375.8 1.17586 7.46(11) 80.8 6.220 7.655
5378.4 1.17645 7.35(11) 81.8 6.219 7.523
5381.1 1.17704 7.25(11) 83.0 6.218 7.418
5383.8 1.17763 7.17(11) 83.8 6.217 7.342
5386.5 1.17822 7.21(11) 83.2 6.216 7.296
5389.2 1.17881 7.18(11) 83.4 6.215 7.277
5391.9 1.17940 7.16(11) 83.7 6.214 7.284
5394.6 1.17999 7.20(11) 83.1 6.213 7.313
5397.3 1.18058 7.34(11) 81.4 6.213 7.357
5400.0 1.18117 7.34(11) 81.4 6.212 7.408
5402.7 1.18176 7.32(11) 81.5 6.211 7.457
5405.4 1.18235 7.35(11) 81.1 6.210 7.495
5408.1 1.18294 7.47(11) 79.7 6.209 7.514
5410.8 1.18354 7.50(11) 79.3 6.208 7.515
5413.5 1.18413 7.49(11) 79.4 6.207 7.499
5416.2 1.18472 7.40(11) 80.3 6.206 7.474
5418.9 1.18532 7.29(11) 81.4 6.205 7.451
5421.6 1.18590 7.28(11) 81.4 6.204 7.443
5424.3 1.18650 7.30(11) 81.1 6.203 7.471
5427.1 1.18709 7.26(11) 81.5 6.202 7.557
5429.8 1.18769 7.52(11) 78.6 6.202 7.735
5432.5 1.18828 7.74(11) 76.2 6.201 8.047
5435.2 1.18888 8.30(12) 71.1 6.200 8.542
5437.9 1.18947 9.16(12) 64.3 6.199 9.274
5440.7 1.19007 10.19(13) 57.7 6.198 10.291
5443.4 1.19067 11.80(14) 49.7 6.197 11.629
5446.1 1.19126 13.76(15) 42.5 6.196 13.291
5448.8 1.19186 15.61(16) 37.4 6.195 15.240
5451.5 1.19245 17.65(17) 33.02 6.194 17.390
5454.3 1.19305 20.02(19) 29.05 6.193 19.602
5457.0 1.19364 21.93(19) 26.46 6.193 21.703
5459.7 1.19424 23.78(20) 24.36 6.192 23.465
5462.4 1.19484 25.11(21) 23.03 6.191 24.697
5465.2 1.19544 25.97(21) 22.22 6.190 25.284
5467.9 1.19604 26.10(21) 22.09 6.189 25.223
5470.6 1.19663 25.41(21) 22.69 6.188 24.595
5473.4 1.19723 24.32(21) 23.69 6.187 23.525
5476.1 1.19783 23.16(20) 24.88 6.186 22.173
5478.8 1.19843 21.65(19) 26.61 6.185 20.670
5481.6 1.19903 19.68(18) 29.27 6.184 19.121
5484.3 1.19963 18.04(18) 31.94 6.184 17.626
5487.1 1.20023 16.53(17) 34.84 6.183 16.230
5489.8 1.20083 15.18(16) 38.0 6.182 14.955
5492.6 1.20143 14.02(16) 41.1 6.181 13.817
5495.3 1.20203 12.67(15) 45.5 6.180 12.815
5498.1 1.20264 11.49(14) 50.1 6.179 11.940
5500.8 1.20324 10.61(14) 54.2 6.178 11.179
5503.6 1.20384 10.13(13) 56.7 6.177 10.520
5506.3 1.20444 9.75(13) 58.9 6.176 9.948
5509.1 1.20504 9.19(13) 62.5 6.176 9.454
5511.8 1.20565 8.81(12) 65.1 6.175 9.026
5514.6 1.20625 8.57(12) 66.8 6.174 8.656
5517.3 1.20685 8.48(12) 67.5 6.173 8.335
5520.1 1.20746 8.16(12) 70.1 6.172 8.056
5522.8 1.20806 7.95(12) 71.9 6.171 7.817
5525.6 1.20866 7.76(12) 73.6 6.170 7.608
5528.4 1.20927 7.60(12) 75.1 6.169 7.413
5531.1 1.20987 7.50(11) 76.1 6.169 7.257
5533.9 1.21048 7.41(11) 76.9 6.168 7.122
5536.7 1.21108 7.28(11) 78.1 6.167 7.005
5539.4 1.21169 6.94(11) 81.9 6.166 6.903
5542.2 1.21230 6.77(11) 83.9 6.165 6.817
5545.0 1.21290 6.83(11) 83.1 6.164 6.741
5547.8 1.21351 6.97(11) 81.3 6.163 6.674
5550.5 1.21412 6.89(11) 82.1 6.163 6.616
5553.3 1.21473 6.73(11) 84.0 6.162 6.565
5556.1 1.21533 6.64(11) 85.2 6.161 6.522
5558.8 1.21594 6.66(11) 84.8 6.160 6.484
5561.6 1.21655 6.74(11) 83.7 6.159 6.451
5564.4 1.21716 6.57(11) 85.8 6.158 6.422
5567.2 1.21777 6.57(11) 85.7 6.157 6.397
5570.0 1.21838 6.64(11) 84.6 6.157 6.375
5572.8 1.21899 6.64(11) 84.6 6.156 6.356
5575.6 1.21960 6.60(11) 85.0 6.155 6.340
5578.3 1.22021 6.56(11) 85.5 6.154 6.325
5581.1 1.22082 6.47(11) 86.6 6.153 6.311
5583.9 1.22143 6.41(11) 87.2 6.152 6.299
5586.7 1.22204 6.47(11) 86.5 6.151 6.288
5589.5 1.22265 6.52(11) 85.7 6.151 6.278
5592.3 1.22327 6.55(11) 85.2 6.150 6.270
5595.1 1.22388 6.32(11) 88.2 6.149 6.262
5597.9 1.22449 6.31(11) 88.3 6.148 6.256
5600.7 1.22510 6.31(11) 88.2 6.147 6.251
5603.5 1.22572 6.21(11) 89.5 6.146 6.248
5606.3 1.22633 6.42(11) 86.5 6.145 6.247
5609.1 1.22694 6.41(11) 86.5 6.145 6.251
5611.9 1.22756 6.45(11) 85.9 6.144 6.259
5614.7 1.22817 6.40(11) 86.4 6.143 6.272
5617.5 1.22878 6.33(11) 87.3 6.142 6.293
5620.3 1.22940 6.36(11) 86.8 6.141 6.322
5623.1 1.23001 6.45(11) 85.6 6.140 6.360
5625.9 1.23063 6.45(11) 85.5 6.140 6.408
5628.8 1.23124 6.49(11) 84.9 6.139 6.462
5631.6 1.23186 6.45(11) 85.3 6.138 6.520
5634.4 1.23247 6.43(11) 85.5 6.137 6.578
5637.2 1.23310 6.47(11) 84.8 6.136 6.630
5640.0 1.23371 6.44(11) 85.2 6.135 6.670
5642.8 1.23433 6.36(11) 86.2 6.135 6.693
5645.7 1.23494 6.52(11) 83.9 6.134 6.699
5648.5 1.23557 6.51(11) 84.0 6.133 6.687
5651.3 1.23618 6.54(11) 83.5 6.132 6.662
5654.1 1.23680 6.62(11) 82.4 6.131 6.627
5657.0 1.23742 6.46(11) 84.4 6.130 6.586
5659.8 1.23804 6.24(11) 87.3 6.130 6.542
5662.6 1.23866 6.21(11) 87.7 6.129 6.499
5665.5 1.23928 6.35(11) 85.5 6.128 6.458
5668.3 1.23990 6.45(11) 84.1 6.127 6.420
5671.1 1.24052 6.29(11) 86.2 6.126 6.385
5674.0 1.24114 6.26(11) 86.5 6.126 6.356
5676.8 1.24176 6.26(11) 86.5 6.125 6.330
5679.6 1.24238 6.24(11) 86.6 6.124 6.307
5682.5 1.24300 6.10(11) 88.6 6.123 6.287
5685.3 1.24363 6.15(11) 87.8 6.122 6.271
5688.2 1.24425 6.11(11) 88.3 6.121 6.256
5691.0 1.24487 6.09(11) 88.4 6.121 6.244
5693.8 1.24549 6.00(11) 89.7 6.120 6.234
5696.7 1.24612 5.98(11) 89.8 6.119 6.226
5699.5 1.24674 5.95(11) 90.3 6.118 6.218
5702.4 1.24736 5.93(11) 90.4 6.117 6.212
5705.3 1.24799 6.13(11) 87.4 6.117 6.208
5708.1 1.24861 6.28(11) 85.2 6.116 6.204
5710.9 1.24923 6.15(11) 87.0 6.115 6.201
5713.8 1.24986 6.27(11) 85.1 6.114 6.199
5716.7 1.25049 6.13(11) 87.0 6.113 6.198
5719.5 1.25112 6.08(11) 87.7 6.113 6.199
5722.4 1.25174 6.08(11) 87.6 6.112 6.201
5725.3 1.25237 5.98(11) 89.0 6.111 6.190
5728.1 1.25299 6.10(11) 87.1 6.110 6.199
5731.0 1.25362 6.11(11) 86.9 6.109 6.213
5733.8 1.25425 6.16(11) 86.0 6.109 6.237
5736.7 1.25487 6.14(11) 86.3 6.108 6.274
5739.6 1.25550 6.25(11) 84.6 6.107 6.331
5742.4 1.25613 6.39(11) 82.7 6.106 6.416
5745.3 1.25676 6.61(11) 79.9 6.105 6.537
5748.2 1.25739 6.86(11) 76.9 6.105 6.702
5751.1 1.25802 6.94(11) 75.9 6.104 6.916
5753.9 1.25865 7.09(12) 74.2 6.103 7.180
5756.8 1.25928 7.38(12) 71.3 6.102 7.488
5759.7 1.25991 7.69(12) 68.3 6.101 7.825
5762.6 1.26054 8.06(12) 65.0 6.101 8.171
5765.4 1.26116 8.25(13) 63.5 6.100 8.497
5768.3 1.26180 8.46(13) 61.8 6.099 8.768
5771.2 1.26243 8.71(13) 60.0 6.098 8.954
5774.1 1.26306 8.76(13) 59.6 6.098 9.039
5777.0 1.26370 8.92(13) 58.4 6.097 9.024
5779.9 1.26433 8.88(13) 58.7 6.096 8.921
5782.8 1.26495 8.76(13) 59.4 6.095 8.751
5785.7 1.26559 8.47(13) 61.3 6.094 8.536
5788.6 1.26623 8.22(13) 63.1 6.094 8.301
5791.4 1.26686 7.97(12) 65.1 6.093 8.061
5794.3 1.26749 7.81(12) 66.3 6.092 7.829
5797.3 1.26813 7.62(12) 68.0 6.091 7.617
5800.1 1.26876 7.43(12) 69.6 6.091 7.428
5803.0 1.26939 7.48(12) 69.1 6.090 7.263
5805.9 1.27003 7.21(12) 71.5 6.089 7.126
5808.8 1.27067 7.06(12) 73.0 6.088 7.018
5811.8 1.27130 6.90(12) 74.6 6.087 6.939
5814.7 1.27194 6.86(12) 75.0 6.087 6.890
5817.6 1.27258 6.75(11) 76.2 6.086 6.871
5820.5 1.27321 6.90(12) 74.5 6.085 6.882
5823.4 1.27385 6.98(12) 73.5 6.084 6.920
5826.3 1.27448 6.96(12) 73.6 6.084 6.980
5829.2 1.27512 6.92(12) 74.0 6.083 7.056
5832.1 1.27576 7.13(12) 71.7 6.082 7.136
5835.0 1.27640 7.16(12) 71.3 6.081 7.208
5837.9 1.27704 7.26(12) 70.2 6.081 7.261
5840.9 1.27768 7.21(12) 70.7 6.080 7.284
5843.8 1.27831 7.14(12) 71.3 6.079 7.275
5846.7 1.27896 7.07(12) 71.9 6.078 7.235
5849.6 1.27959 7.14(12) 71.1 6.078 7.169
5852.6 1.28024 7.13(12) 71.2 6.077 7.086
5855.5 1.28087 7.03(12) 72.1 6.076 6.994
5858.4 1.28152 6.91(12) 73.3 6.075 6.899
5861.3 1.28216 6.83(12) 74.0 6.075 6.806
5864.3 1.28280 6.72(12) 75.2 6.074 6.720
5867.2 1.28345 6.62(11) 76.3 6.073 6.644
5870.1 1.28408 6.58(11) 76.7 6.072 6.578
5873.1 1.28472 6.65(11) 75.8 6.072 6.525
5876.0 1.28537 6.36(11) 79.1 6.071 6.485
5878.9 1.28601 6.48(11) 77.6 6.070 6.460
5881.9 1.28665 6.37(11) 78.8 6.069 6.452
5884.8 1.28730 6.43(11) 78.0 6.069 6.463
5887.8 1.28795 6.45(11) 77.6 6.068 6.495
5890.7 1.28859 6.49(11) 77.1 6.067 6.548
5893.7 1.28923 6.54(11) 76.4 6.066 6.622
5896.6 1.28988 6.69(12) 74.7 6.066 6.712
5899.6 1.29053 6.76(12) 73.8 6.065 6.813
5902.5 1.29117 6.83(12) 72.9 6.064 6.915
5905.5 1.29182 7.02(12) 70.8 6.063 7.006
5908.4 1.29246 7.19(12) 69.1 6.063 7.077
5911.4 1.29311 7.21(12) 68.9 6.062 7.117
5914.3 1.29375 7.12(12) 69.6 6.061 7.124
5917.3 1.29440 7.15(12) 69.3 6.061 7.098
5920.2 1.29505 7.03(12) 70.3 6.060 7.046
5923.2 1.29570 6.92(12) 71.4 6.059 6.975
5926.2 1.29635 6.90(12) 71.6 6.058 6.892
5929.1 1.29700 6.75(12) 73.0 6.058 6.805
5932.1 1.29765 6.66(12) 74.0 6.057 6.719
5935.1 1.29830 6.59(12) 74.7 6.056 6.638
5938.0 1.29895 6.48(11) 75.9 6.055 6.565
5941.0 1.29960 6.43(11) 76.3 6.055 6.500
5944.0 1.30025 6.38(11) 76.9 6.054 6.444
5946.9 1.30090 6.52(12) 75.1 6.053 6.397
5949.9 1.30155 6.18(11) 79.2 6.053 6.360
5952.9 1.30220 6.18(11) 79.1 6.052 6.332
5955.8 1.30285 6.31(11) 77.4 6.051 6.314
5958.8 1.30350 6.25(11) 78.0 6.050 6.306
5961.8 1.30415 6.33(11) 77.0 6.050 6.310
5964.8 1.30480 6.23(11) 78.2 6.049 6.324
5967.8 1.30546 6.28(11) 77.4 6.048 6.347
5970.8 1.30611 6.22(11) 78.1 6.048 6.378
5973.8 1.30677 6.33(11) 76.6 6.047 6.413
5976.7 1.30742 6.36(11) 76.1 6.046 6.448
5979.7 1.30807 6.42(12) 75.4 6.045 6.479
5982.7 1.30873 6.40(12) 75.5 6.045 6.499
5985.7 1.30938 6.40(12) 75.5 6.044 6.507
5988.7 1.31004 6.50(12) 74.1 6.043 6.502
5991.7 1.31069 6.56(12) 73.4 6.043 6.484
5994.7 1.31135 6.40(12) 75.2 6.042 6.457
5997.7 1.31201 6.46(12) 74.4 6.041 6.423
6000.7 1.31266 6.39(12) 75.1 6.041 6.385
6003.7 1.31332 6.50(12) 73.8 6.040 6.347
6006.7 1.31398 6.52(12) 73.5 6.039 6.310
6009.7 1.31463 6.27(11) 76.3 6.038 6.276
6012.7 1.31529 6.27(11) 76.2 6.038 6.244
6015.7 1.31595 6.32(12) 75.6 6.037 6.216
6018.7 1.31661 6.18(11) 77.2 6.036 6.192
6021.7 1.31727 6.15(11) 77.5 6.036 6.170
6024.7 1.31792 6.18(11) 77.0 6.035 6.152
6027.8 1.31859 5.97(11) 79.7 6.034 6.136
6030.8 1.31924 5.92(11) 80.1 6.034 6.122
6033.8 1.31990 5.94(11) 79.9 6.033 6.107
6036.8 1.32056 5.99(11) 79.1 6.032 6.097
6039.8 1.32123 6.14(11) 77.1 6.032 6.088
6042.8 1.32188 6.15(11) 76.8 6.031 6.080
6045.8 1.32255 6.19(11) 76.3 6.030 6.073
6048.9 1.32321 6.13(11) 76.9 6.029 6.068
6051.9 1.32387 6.06(11) 77.7 6.029 6.062
6054.9 1.32453 6.04(11) 77.8 6.028 6.058
6057.9 1.32520 5.93(11) 79.3 6.027 6.054
6061.0 1.32586 6.09(11) 77.1 6.027 6.050
6064.0 1.32652 6.19(11) 75.7 6.026 6.047
6067.0 1.32719 6.14(11) 76.2 6.025 6.044
6070.1 1.32785 6.13(11) 76.3 6.025 6.042
6073.1 1.32851 6.11(11) 76.4 6.024 6.040
6076.1 1.32918 6.13(11) 76.1 6.023 6.038
6079.2 1.32985 6.14(11) 75.8 6.023 6.036
6082.2 1.33051 6.03(11) 77.2 6.022 6.034
6085.3 1.33118 6.01(11) 77.4 6.021 6.033
6088.3 1.33185 6.01(11) 77.3 6.021 6.031
6091.3 1.33251 5.97(11) 77.7 6.020 6.030
6094.4 1.33317 6.03(11) 76.9 6.019 6.029
6097.4 1.33384 6.03(11) 76.7 6.019 6.028
6100.5 1.33451 6.01(11) 76.9 6.018 6.028
6103.5 1.33518 5.99(11) 77.0 6.017 6.027
6106.6 1.33585 5.98(11) 77.2 6.017 6.028
6109.7 1.33652 6.03(11) 76.3 6.016 6.029
6112.7 1.33718 6.05(11) 76.0 6.015 6.031
6115.8 1.33785 6.01(11) 76.4 6.015 6.034
6118.8 1.33852 5.90(11) 77.8 6.014 6.039
6121.9 1.33919 5.88(11) 77.9 6.013 6.045
6124.9 1.33986 6.02(11) 76.1 6.013 6.051
6128.0 1.34053 6.06(12) 75.5 6.012 6.058
6131.1 1.34120 6.11(12) 74.8 6.011 6.086
6134.1 1.34187 6.07(12) 75.1 6.011 6.093
6137.2 1.34255 6.08(12) 74.9 6.010 6.098
6140.3 1.34322 6.15(12) 74.0 6.009 6.101
6143.3 1.34389 5.87(11) 77.4 6.009 6.102
6146.4 1.34456 5.97(11) 76.0 6.008 6.100
6149.5 1.34523 6.02(12) 75.3 6.008 6.097
6152.6 1.34591 5.97(11) 75.9 6.007 6.092
6155.6 1.34658 6.03(12) 75.0 6.006 6.087
6158.7 1.34725 6.08(12) 74.3 6.006 6.081
6161.8 1.34793 6.02(12) 75.0 6.005 6.076
6164.9 1.34861 5.92(11) 76.1 6.004 6.071
6167.9 1.34928 6.00(12) 75.0 6.004 6.066
6171.0 1.34995 6.11(12) 73.5 6.003 6.062
6174.1 1.35063 6.17(12) 72.7 6.002 6.058
6177.2 1.35130 6.13(12) 73.2 6.002 6.055
6180.3 1.35198 6.01(12) 74.6 6.001 6.053
6183.4 1.35266 5.86(11) 76.4 6.000 6.051
6186.5 1.35333 5.89(11) 75.9 6.000 6.051
6189.6 1.35401 5.92(12) 75.4 5.999 6.051
6192.7 1.35469 6.02(12) 74.0 5.999 6.052
6195.8 1.35537 5.93(12) 75.1 5.998 6.054
6198.8 1.35604 5.92(12) 75.2 5.997 6.058
6202.0 1.35673 6.00(12) 74.1 5.997 6.062
6205.1 1.35740 6.04(12) 73.4 5.996 6.068
6208.2 1.35808 5.95(12) 74.5 5.995 6.075
6211.3 1.35876 5.88(12) 75.3 5.995 6.082
6214.4 1.35944 6.02(12) 73.4 5.994 6.089
6217.5 1.36012 6.23(12) 70.8 5.994 6.095
6220.6 1.36080 5.99(12) 73.6 5.993 6.099
6223.7 1.36148 6.03(12) 73.1 5.992 6.102
6226.8 1.36217 6.12(12) 71.9 5.992 6.103
6229.9 1.36284 6.11(12) 71.8 5.991 6.103
6233.0 1.36353 6.02(12) 72.9 5.990 6.101
6236.2 1.36421 5.93(12) 73.9 5.990 6.098
6239.3 1.36490 5.85(12) 74.8 5.989 6.095
6242.4 1.36557 5.89(12) 74.2 5.989 6.091
6245.5 1.36626 6.13(12) 71.2 5.988 6.088
6248.6 1.36694 6.05(12) 72.1 5.987 6.086
6251.8 1.36762 5.93(12) 73.4 5.987 6.084
6254.9 1.36831 5.86(12) 74.2 5.986 6.084
6258.0 1.36899 5.84(12) 74.4 5.986 6.084
6261.1 1.36968 5.86(12) 74.0 5.985 6.085
6264.3 1.37037 5.88(12) 73.7 5.984 6.088
6267.4 1.37105 6.00(12) 72.2 5.984 6.092
6270.5 1.37174 5.78(12) 74.9 5.983 6.098
6273.7 1.37242 5.96(12) 72.5 5.983 6.108
6276.8 1.37311 5.99(12) 72.0 5.982 6.121
6279.9 1.37380 5.95(12) 72.4 5.981 6.139
6283.1 1.37449 6.11(12) 70.3 5.981 6.163
6286.2 1.37517 6.21(12) 69.2 5.980 6.192
6289.4 1.37586 6.31(12) 68.0 5.980 6.227
6292.5 1.37655 6.11(12) 70.2 5.979 6.268
6295.7 1.37724 6.20(12) 69.0 5.978 6.311
6298.8 1.37793 6.11(12) 69.9 5.978 6.355
6302.0 1.37862 6.19(12) 69.0 5.977 6.395
6305.1 1.37930 6.22(12) 68.5 5.977 6.429
6308.3 1.37999 6.30(12) 67.6 5.976 6.454
6311.4 1.38068 6.54(12) 65.0 5.975 6.469
6314.6 1.38138 6.39(12) 66.4 5.975 6.474
6317.7 1.38207 6.31(12) 67.3 5.974 6.473
6320.9 1.38276 6.29(12) 67.4 5.974 6.467
6324.1 1.38346 6.18(12) 68.4 5.973 6.458
6327.2 1.38415 6.08(12) 69.5 5.972 6.451
6330.4 1.38484 6.11(12) 69.1 5.972 6.446
6333.5 1.38553 6.25(12) 67.5 5.971 6.447
6336.7 1.38623 6.13(12) 68.6 5.971 6.456
6339.9 1.38692 6.17(12) 68.1 5.970 6.474
6343.0 1.38761 6.36(12) 66.0 5.969 6.507
6346.2 1.38831 6.45(12) 65.1 5.969 6.562
6349.4 1.38900 6.36(12) 65.8 5.968 6.651
6352.6 1.38970 6.53(12) 64.0 5.968 6.795
6355.8 1.39039 6.89(13) 60.6 5.967 7.024
6358.9 1.39108 7.21(13) 57.9 5.967 7.382
6362.1 1.39178 7.54(13) 55.3 5.966 7.930
6365.3 1.39248 8.56(14) 48.6 5.965 8.736
6368.5 1.39318 9.81(15) 42.3 5.965 9.875
6371.7 1.39388 11.33(17) 36.6 5.964 11.413
6374.8 1.39457 13.61(18) 30.38 5.964 13.387
6378.0 1.39527 16.25(20) 25.37 5.963 15.790
6381.2 1.39597 19.18(22) 21.45 5.963 18.554
6384.4 1.39667 22.35(23) 18.36 5.962 21.536
6387.6 1.39736 25.09(25) 16.32 5.961 24.525
6390.8 1.39806 27.82(26) 14.68 5.961 27.248
6394.0 1.39876 29.73(27) 13.71 5.960 29.424
6397.2 1.39946 31.56(28) 12.89 5.960 30.802
6400.4 1.40016 32.19(28) 12.62 5.959 31.271
6403.6 1.40086 31.49(28) 12.88 5.959 30.868
6406.8 1.40156 30.50(27) 13.29 5.958 29.731
6410.0 1.40226 29.18(27) 13.88 5.958 28.054
6413.2 1.40297 26.81(26) 15.10 5.957 26.034
6416.4 1.40367 24.87(25) 16.28 5.956 23.877
6419.6 1.40437 22.42(24) 18.05 5.956 21.722
6422.8 1.40507 19.89(22) 20.35 5.955 19.720
6426.0 1.40578 17.84(21) 22.67 5.955 17.848
6429.2 1.40648 16.05(20) 25.18 5.954 16.177
6432.4 1.40718 14.55(19) 27.75 5.954 14.708
6435.7 1.40789 13.15(18) 30.68 5.953 13.438
6438.9 1.40859 11.93(17) 33.79 5.953 12.350
6442.1 1.40930 11.02(17) 36.6 5.952 11.422
6445.3 1.41000 10.50(16) 38.3 5.951 10.633
6448.5 1.41070 9.92(16) 40.5 5.951 9.962
6451.8 1.41142 9.14(15) 44.0 5.950 9.394
6455.0 1.41212 8.88(15) 45.1 5.950 8.918
6458.2 1.41283 8.65(15) 46.3 5.949 8.517
6461.4 1.41353 8.35(14) 47.9 5.949 8.180
6464.7 1.41424 8.27(14) 48.3 5.948 7.900
6467.9 1.41495 8.07(14) 49.4 5.948 7.670
6471.2 1.41566 7.80(14) 51.1 5.947 7.482
6474.4 1.41636 7.58(14) 52.5 5.947 7.330
6477.6 1.41707 7.72(14) 51.5 5.946 7.208
6480.9 1.41779 7.60(14) 52.2 5.946 7.108
6484.1 1.41849 7.43(14) 53.4 5.945 7.026
6487.3 1.41920 7.37(14) 53.7 5.944 6.954
6490.6 1.41991 7.43(14) 53.3 5.944 6.888
6493.8 1.42062 7.17(13) 55.1 5.943 6.824
6497.1 1.42134 7.14(13) 55.3 5.943 6.761
6500.3 1.42204 7.04(13) 56.0 5.942 6.700
6503.6 1.42275 6.90(13) 57.0 5.942 6.640
6506.8 1.42347 6.79(13) 57.9 5.941 6.583
6510.1 1.42418 6.84(13) 57.4 5.941 6.531
6513.3 1.42489 6.82(13) 57.4 5.940 6.483
6516.6 1.42561 6.67(13) 58.7 5.940 6.441
6519.8 1.42632 6.49(13) 60.2 5.939 6.404
6523.1 1.42704 6.51(13) 60.0 5.939 6.372
6526.4 1.42775 6.56(13) 59.5 5.938 6.345
6529.6 1.42846 6.46(13) 60.3 5.938 6.323
6532.9 1.42918 6.34(13) 61.3 5.937 6.305
6536.2 1.42989 6.39(13) 60.8 5.937 6.291
6539.4 1.43061 6.38(13) 60.7 5.936 6.281
6542.7 1.43133 6.31(13) 61.4 5.936 6.275
6546.0 1.43204 6.38(13) 60.7 5.935 6.273
6549.3 1.43275 6.42(13) 60.2 5.935 6.276
6552.5 1.43347 6.32(13) 61.1 5.934 6.284
6555.8 1.43419 6.23(13) 61.8 5.934 6.300
6559.1 1.43491 6.36(13) 60.5 5.933 6.325
6562.3 1.43562 6.30(13) 61.0 5.932 6.359
6565.6 1.43634 6.42(13) 59.8 5.932 6.403
6568.9 1.43707 6.59(13) 58.2 5.931 6.457
6572.2 1.43778 6.56(13) 58.3 5.931 6.519
6575.5 1.43850 6.80(13) 56.2 5.930 6.586
6578.8 1.43922 6.80(13) 56.1 5.930 6.654
6582.1 1.43994 6.65(13) 57.3 5.929 6.717
6585.4 1.44066 6.75(13) 56.4 5.929 6.771
6588.7 1.44138 6.86(13) 55.4 5.928 6.810
6591.9 1.44210 6.94(14) 54.7 5.928 6.833
6595.3 1.44283 6.98(14) 54.3 5.927 6.842
6598.5 1.44354 6.87(13) 55.1 5.927 6.841
6601.8 1.44427 6.83(13) 55.3 5.926 6.832
6605.2 1.44499 6.65(13) 56.8 5.926 6.821
6608.4 1.44571 6.66(13) 56.6 5.925 6.811
6611.8 1.44644 6.67(13) 56.5 5.925 6.806
6615.1 1.44716 6.65(13) 56.5 5.924 6.809
6618.4 1.44789 6.58(13) 57.0 5.924 6.821
6621.7 1.44861 6.60(13) 56.8 5.924 6.846
6625.0 1.44933 6.72(13) 55.7 5.923 6.884
6628.3 1.45006 6.70(13) 55.8 5.923 6.941
6631.6 1.45079 6.62(13) 56.4 5.922 7.024
6634.9 1.45151 6.73(13) 55.4 5.922 7.145
6638.3 1.45224 6.89(14) 54.1 5.921 7.326
6641.6 1.45297 7.05(14) 52.7 5.921 7.605
6644.9 1.45369 7.46(14) 49.7 5.920 8.041
6648.2 1.45442 8.08(15) 45.9 5.920 8.723
6651.5 1.45515 8.88(15) 41.7 5.919 9.765
6654.8 1.45587 10.70(17) 34.52 5.919 11.333
6658.2 1.45660 12.91(19) 28.55 5.918 13.571
6661.5 1.45733 16.35(21) 22.48 5.918 16.709
6664.8 1.45806 21.43(24) 17.10 5.917 20.875
6668.2 1.45879 26.57(27) 13.75 5.917 26.082
6671.5 1.45952 33.09(30) 11.00 5.916 32.268
6674.8 1.46025 40.04(33) 9.05 5.916 39.228
6678.2 1.46098 46.4(4) 7.78 5.92 46.51
6681.5 1.46172 53.6(4) 6.72 5.91 53.53
6684.9 1.46245 58.9(4) 6.09 5.91 59.57
6688.2 1.46318 62.9(4) 5.68 5.91 63.99
6691.6 1.46391 65.3(4) 5.46 5.91 66.31
6694.9 1.46464 66.0(4) 5.40 5.91 66.43
6698.3 1.46538 64.8(4) 5.50 5.91 64.56
6701.6 1.46611 61.7(4) 5.77 5.91 61.11
6704.9 1.46684 57.2(4) 6.23 5.91 56.59
6708.3 1.46757 51.8(4) 6.88 5.91 51.44
6711.7 1.46831 46.6(4) 7.65 5.91 46.13
6715.0 1.46904 40.94(34) 8.71 5.910 40.951
6718.4 1.46978 36.06(32) 9.89 5.910 36.135
6721.7 1.47051 31.65(30) 11.27 5.909 31.796
6725.1 1.47125 27.55(28) 12.95 5.909 27.977
6728.4 1.47198 23.60(26) 15.12 5.908 24.668
6731.8 1.47272 20.70(24) 17.23 5.908 21.822
6735.2 1.47346 18.48(23) 19.29 5.907 19.413
6738.5 1.47419 16.91(22) 21.07 5.907 17.371
6741.9 1.47493 15.38(21) 23.14 5.907 15.639
6745.3 1.47567 13.98(20) 25.44 5.906 14.177
6748.7 1.47641 12.95(19) 27.43 5.906 12.943
6752.0 1.47715 11.92(18) 29.78 5.905 11.903
6755.4 1.47789 11.09(18) 31.96 5.905 11.025
6758.8 1.47863 10.57(17) 33.50 5.904 10.283
6762.2 1.47937 10.01(17) 35.3 5.904 9.657
6765.5 1.48011 9.93(17) 35.6 5.903 9.125
6768.9 1.48085 9.47(16) 37.2 5.903 8.675
6772.3 1.48159 9.41(16) 37.4 5.903 8.296
6775.7 1.48233 9.11(16) 38.6 5.902 7.973
6779.1 1.48308 8.57(16) 41.0 5.902 7.699
6782.5 1.48381 8.42(15) 41.7 5.901 7.466
6785.9 1.48456 8.24(15) 42.5 5.901 7.268
6789.3 1.48530 7.86(15) 44.5 5.900 7.099
6792.7 1.48604 7.82(15) 44.7 5.900 6.955
6796.1 1.48679 7.67(15) 45.5 5.900 6.832
6799.4 1.48753 7.68(15) 45.4 5.899 6.726
6802.8 1.48828 7.33(15) 47.5 5.899 6.635
6806.3 1.48902 7.20(14) 48.3 5.898 6.557
6809.7 1.48977 7.42(15) 46.8 5.898 6.490
6813.1 1.49051 7.18(14) 48.2 5.897 6.431
6816.5 1.49126 7.01(14) 49.4 5.897 6.381
6819.9 1.49200 7.03(14) 49.2 5.896 6.337
6823.3 1.49275 6.76(14) 51.0 5.896 6.298
6826.7 1.49350 6.67(14) 51.7 5.896 6.265
6830.1 1.49424 6.70(14) 51.4 5.895 6.235
6833.5 1.49499 6.77(14) 50.8 5.895 6.209
6836.9 1.49574 6.64(14) 51.7 5.894 6.186
6840.3 1.49649 6.48(14) 52.9 5.894 6.165
6843.8 1.49724 6.50(14) 52.6 5.894 6.147
6847.2 1.49798 6.53(14) 52.3 5.893 6.131
6850.6 1.49874 6.56(14) 52.0 5.893 6.116
6854.1 1.49949 6.51(14) 52.3 5.892 6.103
6857.5 1.50023 6.43(14) 52.9 5.892 6.091
6860.9 1.50099 6.43(14) 52.9 5.891 6.080
6864.3 1.50174 6.54(14) 51.9 5.891 6.071
6867.8 1.50249 6.32(14) 53.6 5.891 6.062
6871.2 1.50324 6.36(14) 53.2 5.890 6.054
6874.6 1.50399 6.17(14) 54.7 5.890 6.047
6878.1 1.50474 6.18(14) 54.6 5.889 6.041
6881.5 1.50550 6.29(14) 53.5 5.889 6.036
6884.9 1.50625 6.24(14) 53.9 5.889 6.032
6888.4 1.50701 6.44(14) 52.2 5.888 6.028
6891.8 1.50776 6.39(14) 52.5 5.888 6.025
6895.3 1.50851 6.19(14) 54.2 5.887 6.023
6898.7 1.50927 6.01(13) 55.6 5.887 6.021
6902.2 1.51003 6.18(14) 54.1 5.887 6.020
6905.6 1.51078 6.28(14) 53.1 5.886 6.018
6909.1 1.51154 6.32(14) 52.7 5.886 6.015
6912.5 1.51229 6.18(14) 53.8 5.885 6.012
6916.0 1.51305 6.28(14) 52.9 5.885 6.009
6919.5 1.51381 6.28(14) 52.8 5.885 6.005
6922.9 1.51456 6.24(14) 53.1 5.884 6.001
6926.4 1.51532 6.01(13) 55.0 5.884 5.996
6929.8 1.51608 6.07(14) 54.4 5.883 5.992
6933.3 1.51684 6.17(14) 53.5 5.883 5.988
6936.8 1.51760 6.25(14) 52.7 5.883 5.984
6940.3 1.51836 5.96(13) 55.2 5.882 5.981
6943.7 1.51912 5.99(14) 54.8 5.882 5.978
6947.2 1.51988 6.08(14) 54.0 5.881 5.975
6950.7 1.52064 5.76(13) 56.9 5.881 5.973
6954.1 1.52140 5.97(14) 54.7 5.881 5.971
6957.6 1.52216 6.26(14) 52.1 5.880 5.970
6961.1 1.52292 6.12(14) 53.3 5.880 5.969
6964.6 1.52368 6.00(14) 54.3 5.879 5.969
6968.1 1.52445 6.37(14) 51.1 5.879 5.970
6971.5 1.52521 6.28(14) 51.7 5.879 5.973
6975.0 1.52597 6.14(14) 52.8 5.878 5.978
6978.5 1.52673 6.15(14) 52.6 5.878 6.007
6982.0 1.52750 6.15(14) 52.6 5.878 6.023
6985.5 1.52827 6.17(14) 52.4 5.877 6.047
6989.0 1.52903 6.13(14) 52.6 5.877 6.034
6992.5 1.52979 6.20(14) 51.9 5.876 6.091
6996.0 1.53056 6.30(14) 51.0 5.876 6.171
6999.5 1.53132 6.49(14) 49.4 5.876 6.279
7003.0 1.53209 6.65(14) 48.2 5.875 6.417
7006.5 1.53286 6.75(15) 47.4 5.875 6.585
7010.0 1.53362 6.81(15) 46.9 5.875 6.778
7013.5 1.53439 7.18(15) 44.5 5.874 6.985
7017.0 1.53516 7.20(15) 44.2 5.874 7.192
7020.5 1.53593 7.33(15) 43.4 5.873 7.379
7024.0 1.53670 7.38(15) 43.0 5.873 7.525
7027.5 1.53746 7.62(15) 41.6 5.873 7.615
7031.0 1.53823 7.23(15) 43.8 5.872 7.642
7034.5 1.53900 7.28(15) 43.4 5.872 7.607
7038.1 1.53977 7.45(15) 42.4 5.872 7.521
7041.6 1.54055 7.25(15) 43.5 5.871 7.399
7045.1 1.54131 7.09(15) 44.4 5.871 7.255
7048.6 1.54209 7.02(15) 44.8 5.870 7.100
7052.2 1.54286 6.78(15) 46.3 5.870 6.948
7055.7 1.54363 6.73(15) 46.6 5.870 6.804
7059.2 1.54440 6.89(15) 45.4 5.869 6.674
7062.7 1.54517 6.65(15) 47.0 5.869 6.559
7066.3 1.54595 6.61(15) 47.2 5.869 6.459
7069.8 1.54672 6.40(14) 48.7 5.868 6.374
7073.3 1.54750 6.38(14) 48.8 5.868 6.302
7076.9 1.54827 6.38(14) 48.8 5.868 6.242
7080.4 1.54904 6.19(14) 50.2 5.867 6.191
7083.9 1.54982 6.14(14) 50.5 5.867 6.149
7087.5 1.55060 6.25(14) 49.5 5.867 6.114
7091.0 1.55137 6.36(14) 48.6 5.866 6.085
7094.6 1.55214 6.36(14) 48.5 5.866 6.061
7098.1 1.55292 6.12(14) 50.4 5.866 6.042
7101.7 1.55370 6.25(14) 49.2 5.865 6.025
7105.2 1.55448 6.18(14) 49.7 5.865 6.012
7108.8 1.55526 6.11(14) 50.2 5.864 6.001
7112.3 1.55604 5.92(14) 51.7 5.864 5.993
7115.9 1.55681 6.02(14) 50.8 5.864 5.988
7119.4 1.55759 5.98(14) 51.1 5.863 5.983
7123.0 1.55837 6.17(14) 49.4 5.863 5.979
7126.6 1.55915 6.13(14) 49.7 5.863 5.976
7130.1 1.55993 6.13(14) 49.6 5.862 5.975
7133.7 1.56071 6.09(14) 49.9 5.862 5.974
7137.3 1.56149 6.20(14) 48.9 5.862 5.974
7140.8 1.56228 6.11(14) 49.6 5.861 5.975
7144.4 1.56306 6.16(14) 49.1 5.861 5.977
7148.0 1.56384 6.10(14) 49.5 5.861 5.979
7151.6 1.56462 6.26(14) 48.2 5.860 5.982
7155.1 1.56540 6.12(14) 49.2 5.860 5.986
7158.7 1.56618 5.96(14) 50.4 5.860 5.991
7162.3 1.56697 6.08(14) 49.3 5.859 5.996
7165.9 1.56776 6.09(14) 49.2 5.859 6.001
7169.4 1.56854 6.08(14) 49.2 5.859 6.008
7173.0 1.56932 5.97(14) 50.1 5.858 6.015
7176.6 1.57011 6.05(14) 49.3 5.858 6.024
7180.2 1.57090 6.09(14) 48.9 5.858 6.033
7183.8 1.57168 6.11(14) 48.7 5.857 6.043
7187.4 1.57247 6.12(14) 48.5 5.857 6.055
7191.0 1.57325 5.88(14) 50.5 5.857 6.068
7194.6 1.57404 6.04(14) 49.0 5.857 6.083
7198.2 1.57483 6.08(14) 48.6 5.856 6.099
7201.8 1.57562 6.12(14) 48.2 5.856 6.118
7205.4 1.57641 6.23(15) 47.3 5.856 6.140
7209.0 1.57719 6.22(15) 47.3 5.855 6.165
7212.6 1.57799 6.15(14) 47.8 5.855 6.194
7216.2 1.57877 6.29(15) 46.7 5.855 6.230
7219.8 1.57956 6.47(15) 45.3 5.854 6.277
7223.4 1.58035 6.45(15) 45.3 5.854 6.340
7227.0 1.58114 6.31(15) 46.3 5.854 6.429
7230.6 1.58194 6.36(15) 45.8 5.853 6.565
7234.3 1.58273 6.46(15) 45.1 5.853 6.773
7237.9 1.58352 6.83(15) 42.6 5.853 7.095
7241.5 1.58431 7.40(16) 39.2 5.852 7.584
7245.1 1.58510 8.18(17) 35.4 5.852 8.314
7248.7 1.58590 9.23(18) 31.34 5.852 9.361
7252.3 1.58669 10.67(19) 27.06 5.852 10.797
7256.0 1.58748 12.80(21) 22.51 5.851 12.677
7259.6 1.58828 15.56(23) 18.48 5.851 15.010
7263.2 1.58907 18.08(25) 15.87 5.851 17.764
7266.9 1.58987 20.66(27) 13.85 5.850 20.806
7270.5 1.59067 23.53(29) 12.14 5.850 23.923
7274.1 1.59146 26.28(30) 10.84 5.850 26.874
7277.8 1.59226 28.83(32) 9.86 5.849 29.340
7281.4 1.59305 30.08(33) 9.44 5.849 31.041
7285.1 1.59385 30.88(33) 9.17 5.849 31.810
7288.7 1.59465 30.70(33) 9.21 5.849 31.628
7292.3 1.59545 30.45(33) 9.28 5.848 30.610
7296.0 1.59624 28.91(32) 9.76 5.848 28.947
7299.6 1.59704 26.79(31) 10.52 5.848 26.850
7303.3 1.59784 24.53(30) 11.48 5.847 24.538
7306.9 1.59864 22.10(28) 12.73 5.847 22.190
7310.6 1.59944 19.63(26) 14.33 5.847 19.941
7314.3 1.60024 17.82(25) 15.76 5.846 17.875
7317.9 1.60105 15.76(24) 17.81 5.846 16.036
7321.6 1.60185 14.04(22) 19.96 5.846 14.438
7325.2 1.60265 12.74(21) 21.99 5.846 13.068
7328.9 1.60345 11.56(20) 24.20 5.845 11.911
7332.5 1.60425 10.63(20) 26.29 5.845 10.936
7336.2 1.60505 10.04(19) 27.79 5.845 10.121
7339.9 1.60586 9.56(19) 29.13 5.844 9.441
7343.6 1.60666 8.93(18) 31.16 5.844 8.875
7347.2 1.60746 8.52(18) 32.60 5.844 8.404
7350.9 1.60827 8.46(17) 32.79 5.844 8.012
7354.6 1.60907 8.12(17) 34.13 5.843 7.686
7358.3 1.60988 8.06(17) 34.34 5.843 7.414
7361.9 1.61069 7.71(17) 35.9 5.843 7.190
7365.6 1.61149 7.64(17) 36.1 5.843 7.005
7369.3 1.61229 7.53(17) 36.6 5.842 6.854
7373.0 1.61310 7.12(16) 38.6 5.842 6.736
7376.7 1.61391 6.91(16) 39.7 5.842 6.647
7380.3 1.61472 6.96(16) 39.4 5.841 6.590
7384.0 1.61552 6.90(16) 39.7 5.841 6.566
7387.7 1.61633 7.02(16) 38.9 5.841 6.577
7391.4 1.61715 7.25(16) 37.7 5.841 6.628
7395.1 1.61795 7.44(17) 36.7 5.840 6.718
7398.8 1.61876 7.39(16) 36.9 5.840 6.847
7402.5 1.61957 7.44(17) 36.5 5.840 7.008
7406.2 1.62038 7.49(17) 36.2 5.840 7.190
7409.9 1.62119 8.04(17) 33.69 5.839 7.379
7413.6 1.62200 8.37(18) 32.31 5.839 7.553
7417.3 1.62282 8.42(18) 32.06 5.839 7.691
7421.0 1.62363 8.33(18) 32.38 5.838 7.774
7424.8 1.62444 8.06(17) 33.43 5.838 7.793
7428.5 1.62525 7.96(17) 33.75 5.838 7.749
7432.2 1.62607 8.22(18) 32.65 5.838 7.652
7435.9 1.62688 7.98(17) 33.60 5.837 7.515
7439.6 1.62770 7.90(17) 33.89 5.837 7.355
7443.3 1.62851 7.81(17) 34.22 5.837 7.184
7447.1 1.62932 7.45(17) 35.8 5.837 7.015
7450.8 1.63014 7.14(16) 37.3 5.836 6.856
7454.5 1.63095 7.05(16) 37.7 5.836 6.711
7458.2 1.63177 7.04(16) 37.7 5.836 6.583
7462.0 1.63259 6.89(16) 38.5 5.836 6.472
7465.7 1.63340 6.77(16) 39.2 5.835 6.378
7469.4 1.63422 6.58(16) 40.2 5.835 6.298
7473.2 1.63504 6.26(15) 42.2 5.835 6.231
7476.9 1.63586 6.28(15) 42.0 5.835 6.174
7480.6 1.63667 6.15(15) 42.8 5.834 6.127
7484.4 1.63749 6.28(15) 41.8 5.834 6.087
7488.1 1.63832 6.19(15) 42.4 5.834 6.054
7491.9 1.63914 6.04(15) 43.4 5.834 6.026
7495.6 1.63995 6.20(15) 42.3 5.833 6.003
7499.3 1.64077 6.19(15) 42.2 5.833 5.983
7503.1 1.64159 6.21(15) 42.0 5.833 5.967
7506.8 1.64241 6.08(15) 42.9 5.833 5.953
7510.6 1.64324 6.10(15) 42.7 5.832 5.941
7514.4 1.64406 6.26(16) 41.5 5.832 5.930
7518.1 1.64488 6.05(15) 42.9 5.832 5.922
7521.9 1.64571 6.01(15) 43.1 5.832 5.915
7525.7 1.64653 6.06(15) 42.7 5.832 5.909
7529.4 1.64735 5.90(15) 43.8 5.831 5.905
7533.2 1.64818 6.04(15) 42.7 5.831 5.902
7536.9 1.64900 6.23(16) 41.3 5.831 5.900
7540.7 1.64983 5.92(15) 43.5 5.831 5.899
7544.5 1.65065 6.14(15) 41.8 5.830 5.900
7548.3 1.65148 6.31(16) 40.6 5.830 5.901
7552.0 1.65231 6.23(16) 41.1 5.830 5.904
7555.8 1.65313 6.09(15) 42.0 5.830 5.906
7559.6 1.65396 6.13(16) 41.6 5.829 5.909
7563.3 1.65479 6.11(15) 41.7 5.829 5.911
7567.1 1.65561 6.26(16) 40.7 5.829 5.912
7570.9 1.65644 6.04(15) 42.1 5.829 5.911
7574.7 1.65728 6.06(15) 41.9 5.829 5.909
7578.5 1.65810 6.22(16) 40.7 5.828 5.906
7582.3 1.65893 6.06(15) 41.7 5.828 5.877
7586.1 1.65976 5.87(15) 43.0 5.828 5.872
7589.9 1.66059 6.00(15) 42.1 5.828 5.868
7593.7 1.66142 6.10(16) 41.3 5.827 5.863
7597.5 1.66226 6.09(16) 41.3 5.827 5.859
7601.3 1.66309 6.06(16) 41.4 5.827 5.855
7605.1 1.66392 6.00(15) 41.8 5.827 5.852
7608.8 1.66475 6.00(15) 41.7 5.827 5.849
7612.7 1.66558 5.94(15) 42.1 5.826 5.847
7616.5 1.66642 6.09(16) 41.0 5.826 5.845
7620.3 1.66725 6.09(16) 41.0 5.826 5.843
7624.1 1.66809 6.04(16) 41.2 5.826 5.841
7627.9 1.66892 6.04(16) 41.1 5.825 5.840
7631.7 1.66976 5.93(15) 41.9 5.825 5.839
7635.5 1.67059 6.01(16) 41.3 5.825 5.839
7639.3 1.67143 6.03(16) 41.0 5.825 5.838
7643.2 1.67226 5.88(15) 42.0 5.825 5.838
7647.0 1.67310 5.88(15) 42.0 5.824 5.838
7650.8 1.67394 5.80(15) 42.5 5.824 5.838
7654.6 1.67477 5.81(15) 42.3 5.824 5.838
7658.5 1.67561 5.76(15) 42.7 5.824 5.839
7662.3 1.67645 5.85(15) 41.9 5.824 5.841
7666.1 1.67729 5.79(15) 42.3 5.823 5.843
7670.0 1.67813 6.01(16) 40.7 5.823 5.846
7673.8 1.67897 5.90(16) 41.4 5.823 5.852
7677.6 1.67981 5.85(15) 41.7 5.823 5.861
7681.5 1.68065 5.81(15) 41.9 5.823 5.875
7685.3 1.68149 5.88(16) 41.3 5.822 5.896
7689.2 1.68233 5.84(16) 41.6 5.822 5.925
7693.0 1.68318 6.14(16) 39.5 5.822 5.965
7696.8 1.68402 6.00(16) 40.4 5.822 6.017
7700.7 1.68486 6.22(16) 38.8 5.822 6.080
7704.5 1.68570 6.25(16) 38.6 5.821 6.154
7708.4 1.68655 6.20(16) 38.9 5.821 6.233
7712.3 1.68739 6.24(16) 38.6 5.821 6.312
7716.1 1.68823 6.35(16) 37.9 5.821 6.385
7720.0 1.68908 6.43(16) 37.4 5.821 6.441
7723.8 1.68992 6.44(16) 37.2 5.820 6.479
7727.7 1.69077 6.51(16) 36.8 5.820 6.490
7731.6 1.69162 6.56(17) 36.5 5.820 6.478
7735.4 1.69246 6.57(17) 36.4 5.820 6.445
7739.3 1.69331 6.54(17) 36.4 5.820 6.396
7743.2 1.69416 6.46(16) 36.9 5.819 6.339
7747.0 1.69501 6.27(16) 37.9 5.819 6.277
7750.9 1.69585 6.34(16) 37.4 5.819 6.216
7754.8 1.69670 6.03(16) 39.3 5.819 6.158
7758.7 1.69755 6.32(16) 37.5 5.819 6.106
7762.5 1.69840 6.37(16) 37.1 5.819 6.060
7766.4 1.69925 6.36(16) 37.1 5.818 6.020
7770.3 1.70010 6.18(16) 38.1 5.818 5.987
7774.2 1.70095 6.12(16) 38.4 5.818 5.958
7778.1 1.70180 6.05(16) 38.9 5.818 5.935
7782.0 1.70266 6.03(16) 38.9 5.818 5.916
7785.8 1.70350 6.05(16) 38.8 5.817 5.900
7789.8 1.70436 6.07(16) 38.5 5.817 5.886
7793.6 1.70521 5.90(16) 39.6 5.817 5.875
7797.5 1.70606 5.93(16) 39.4 5.817 5.866
7801.4 1.70692 5.94(16) 39.3 5.817 5.859
7805.3 1.70777 6.07(16) 38.3 5.817 5.852
7809.2 1.70862 6.15(16) 37.8 5.816 5.847
7813.1 1.70948 5.97(16) 38.9 5.816 5.843
7817.0 1.71033 5.91(16) 39.2 5.816 5.839
7820.9 1.71119 5.81(16) 39.8 5.816 5.836
7824.9 1.71205 5.92(16) 39.1 5.816 5.834
7828.8 1.71291 5.96(16) 38.7 5.816 5.832
7832.7 1.71376 5.85(16) 39.4 5.815 5.830
7836.6 1.71462 6.07(16) 37.9 5.815 5.828
7840.5 1.71548 6.08(16) 37.8 5.815 5.827
7844.4 1.71634 5.81(16) 39.5 5.815 5.826
7848.4 1.71720 5.61(16) 40.9 5.815 5.825
7852.3 1.71805 6.00(16) 38.2 5.815 5.824
7856.2 1.71891 5.94(16) 38.5 5.814 5.823
7860.2 1.71978 5.87(16) 38.9 5.814 5.823
7864.1 1.72063 5.94(16) 38.4 5.814 5.822
7868.0 1.72149 5.82(16) 39.1 5.814 5.822
7871.9 1.72236 5.93(16) 38.3 5.814 5.821
7875.9 1.72322 5.85(16) 38.8 5.814 5.821
7879.8 1.72408 5.85(16) 38.7 5.813 5.821
7883.8 1.72494 5.97(16) 37.9 5.813 5.821
7887.7 1.72581 5.79(16) 39.0 5.813 5.820
7891.7 1.72667 5.72(16) 39.5 5.813 5.820
7895.6 1.72754 5.78(16) 39.0 5.813 5.820
7899.5 1.72840 5.90(16) 38.2 5.813 5.820
7903.5 1.72926 5.80(16) 38.8 5.812 5.820
7907.4 1.73013 5.71(16) 39.3 5.812 5.820
7911.4 1.73099 5.80(16) 38.7 5.812 5.820
7915.3 1.73186 5.95(16) 37.7 5.812 5.820
7919.3 1.73273 5.85(16) 38.2 5.812 5.820
7923.3 1.73359 5.78(16) 38.6 5.812 5.820
7927.2 1.73446 5.71(16) 39.1 5.812 5.820
7931.2 1.73533 5.81(16) 38.3 5.811 5.821
7935.2 1.73620 5.80(16) 38.4 5.811 5.821
7939.1 1.73707 5.93(16) 37.4 5.811 5.821
7943.1 1.73794 5.75(16) 38.5 5.811 5.821
7947.1 1.73881 5.49(16) 40.3 5.811 5.822
7951.0 1.73968 5.72(16) 38.7 5.811 5.822
7955.0 1.74054 5.78(16) 38.2 5.811 5.823
7959.0 1.74142 5.95(16) 37.0 5.810 5.823
7963.0 1.74229 5.81(16) 37.9 5.810 5.824
7966.9 1.74316 5.56(16) 39.5 5.810 5.825
7970.9 1.74403 5.61(16) 39.2 5.810 5.826
7974.9 1.74490 5.49(16) 40.0 5.810 5.827
7978.9 1.74578 5.72(16) 38.3 5.810 5.828
7982.9 1.74666 5.80(16) 37.7 5.810 5.829
7986.9 1.74752 5.82(16) 37.5 5.809 5.831
7990.9 1.74840 5.99(17) 36.4 5.809 5.832
7994.9 1.74928 5.84(16) 37.3 5.809 5.835
7998.9 1.75015 5.70(16) 38.1 5.809 5.838
8002.9 1.75103 5.90(16) 36.8 5.809 5.843
8006.9 1.75190 5.94(17) 36.5 5.809 5.849
8010.9 1.75278 5.67(16) 38.2 5.809 5.859
8014.9 1.75366 5.93(17) 36.5 5.808 5.875
8018.9 1.75453 5.83(16) 37.1 5.808 5.899
8022.9 1.75541 5.76(16) 37.5 5.808 5.936
8026.9 1.75629 5.95(17) 36.2 5.808 5.991
8030.9 1.75717 5.96(17) 36.1 5.808 6.068
8034.9 1.75805 6.21(17) 34.59 5.808 6.172
8039.0 1.75893 6.21(17) 34.52 5.808 6.305
8043.0 1.75981 6.45(17) 33.19 5.808 6.467
8047.0 1.76069 6.58(18) 32.50 5.807 6.655
8051.0 1.76157 6.85(18) 31.19 5.807 6.857
8055.1 1.76246 6.82(18) 31.25 5.807 7.058
8059.1 1.76333 6.89(18) 30.90 5.807 7.240
8063.1 1.76421 7.30(19) 29.15 5.807 7.383
8067.1 1.76510 7.44(19) 28.55 5.807 7.472
8071.2 1.76598 7.35(19) 28.85 5.807 7.497
8075.2 1.76687 7.34(19) 28.86 5.807 7.461
8079.3 1.76775 7.24(19) 29.20 5.806 7.373
8083.3 1.76864 7.18(18) 29.43 5.806 7.247
8087.3 1.76952 6.99(18) 30.18 5.806 7.098
8091.4 1.77041 6.90(18) 30.54 5.806 6.940
8095.4 1.77129 6.54(18) 32.15 5.806 6.783
8099.5 1.77218 6.47(18) 32.46 5.806 6.637
8103.5 1.77306 6.59(18) 31.85 5.806 6.504
8107.6 1.77395 6.66(18) 31.47 5.806 6.388
8111.6 1.77484 6.34(17) 32.98 5.806 6.289
8115.7 1.77573 6.17(17) 33.88 5.805 6.206
8119.7 1.77661 6.10(17) 34.22 5.805 6.137
8123.8 1.77750 5.98(17) 34.83 5.805 6.079
8127.8 1.77839 5.85(17) 35.6 5.805 6.032
8131.9 1.77928 5.76(17) 36.1 5.805 5.993
8136.0 1.78017 5.94(17) 34.93 5.805 5.962
8140.1 1.78107 6.04(17) 34.31 5.805 5.935
8144.1 1.78196 6.05(17) 34.21 5.805 5.914
8148.2 1.78285 6.10(17) 33.86 5.805 5.896
8152.3 1.78374 6.16(17) 33.46 5.804 5.882
8156.3 1.78463 5.86(17) 35.2 5.804 5.870
8160.4 1.78552 5.82(17) 35.3 5.804 5.860
8164.5 1.78642 5.92(17) 34.67 5.804 5.852
8168.6 1.78732 5.92(17) 34.66 5.804 5.845
8172.7 1.78821 5.94(17) 34.48 5.804 5.840
8176.8 1.78910 5.55(16) 36.9 5.804 5.835
8180.8 1.79000 5.64(17) 36.2 5.804 5.831
8184.9 1.79090 5.81(17) 35.1 5.804 5.828
8189.0 1.79179 5.98(17) 34.05 5.803 5.825
8193.1 1.79269 5.87(17) 34.67 5.803 5.823
8197.2 1.79358 5.91(17) 34.35 5.803 5.821
8201.3 1.79448 5.98(17) 33.92 5.803 5.820
8205.4 1.79538 6.18(17) 32.77 5.803 5.819
8209.5 1.79628 6.07(17) 33.27 5.803 5.819
8213.6 1.79718 5.77(17) 34.96 5.803 5.820
8217.7 1.79807 5.93(17) 33.96 5.803 5.821
8221.8 1.79898 5.88(17) 34.20 5.803 5.823
8225.9 1.79987 5.83(17) 34.48 5.803 5.827
8230.1 1.80078 5.86(17) 34.24 5.802 5.832
8234.2 1.80168 5.84(17) 34.32 5.802 5.838
8238.3 1.80258 5.81(17) 34.42 5.802 5.845
8242.4 1.80348 5.74(17) 34.82 5.802 5.852
8246.5 1.80438 5.67(17) 35.2 5.802 5.858
8250.7 1.80529 5.60(17) 35.5 5.802 5.864
8254.8 1.80619 5.87(17) 33.87 5.802 5.868
8258.9 1.80709 5.91(17) 33.61 5.802 5.870
8263.0 1.80800 5.80(17) 34.16 5.802 5.869
8267.2 1.80891 5.99(17) 33.03 5.802 5.866
8271.3 1.80981 6.21(18) 31.83 5.802 5.862
8275.4 1.81071 5.91(17) 33.38 5.802 5.856
8279.6 1.81162 5.81(17) 33.92 5.801 5.850
8283.7 1.81253 5.69(17) 34.60 5.801 5.844
8287.9 1.81344 5.68(17) 34.59 5.801 5.838
8292.0 1.81434 5.72(17) 34.30 5.801 5.833
8296.2 1.81525 5.77(17) 33.92 5.801 5.828
8300.3 1.81616 5.67(17) 34.46 5.801 5.824
8304.4 1.81706 5.61(17) 34.78 5.801 5.820
8308.6 1.81797 5.60(17) 34.79 5.801 5.817
8312.8 1.81888 5.67(17) 34.30 5.801 5.815
8316.9 1.81979 5.62(17) 34.59 5.801 5.812
8321.1 1.82070 5.57(17) 34.80 5.801 5.811
8325.2 1.82161 5.57(17) 34.78 5.801 5.809
8329.4 1.82253 5.83(17) 33.17 5.800 5.808
8333.6 1.82344 5.85(17) 32.98 5.800 5.813
8337.7 1.82435 5.75(17) 33.54 5.800 5.812
8341.9 1.82527 5.81(17) 33.10 5.800 5.812
8346.1 1.82618 5.74(17) 33.47 5.800 5.811
8350.3 1.82710 5.70(17) 33.64 5.800 5.811
8354.4 1.82801 5.71(17) 33.57 5.800 5.810
8358.6 1.82892 5.70(17) 33.54 5.800 5.810
8362.8 1.82984 5.63(17) 33.91 5.800 5.810
8366.9 1.83075 5.71(17) 33.37 5.800 5.810
8371.1 1.83167 5.86(18) 32.46 5.800 5.810
8375.3 1.83258 5.73(17) 33.17 5.800 5.810
8379.5 1.83350 6.07(18) 31.23 5.800 5.810
8383.7 1.83442 5.87(18) 32.27 5.799 5.810
8387.9 1.83534 5.94(18) 31.83 5.799 5.810
8392.1 1.83626 5.68(17) 33.27 5.799 5.810
8396.3 1.83718 5.59(17) 33.69 5.799 5.810
8400.5 1.83809 5.49(17) 34.28 5.799 5.810
8404.7 1.83902 5.60(17) 33.57 5.799 5.809
8408.9 1.83993 5.57(17) 33.67 5.799 5.809
8413.1 1.84086 5.58(17) 33.54 5.799 5.809
8417.3 1.84177 5.84(18) 31.99 5.799 5.809
8421.5 1.84270 5.79(18) 32.23 5.799 5.810
8425.7 1.84362 5.61(17) 33.20 5.799 5.810
8429.9 1.84455 5.79(18) 32.14 5.799 5.811
8434.1 1.84546 5.90(18) 31.47 5.799 5.812
8438.3 1.84639 5.82(18) 31.87 5.799 5.812
8442.6 1.84731 5.87(18) 31.56 5.799 5.813
8446.8 1.84824 5.78(18) 32.00 5.799 5.814
8451.0 1.84917 5.77(18) 31.96 5.798 5.815
8455.3 1.85009 5.82(18) 31.62 5.798 5.816
8459.5 1.85101 5.69(18) 32.34 5.798 5.816
8463.7 1.85194 5.90(18) 31.11 5.798 5.817
8467.9 1.85287 5.89(18) 31.12 5.798 5.817
8472.2 1.85379 5.82(18) 31.46 5.798 5.818
8476.4 1.85472 5.80(18) 31.47 5.798 5.818
8480.7 1.85565 5.70(18) 32.01 5.798 5.818
8484.9 1.85658 5.72(18) 31.85 5.798 5.818
8489.1 1.85751 5.83(18) 31.18 5.798 5.819
8493.4 1.85844 5.88(18) 30.86 5.798 5.819
8497.6 1.85937 5.76(18) 31.45 5.798 5.819
8501.9 1.86030 5.48(17) 33.00 5.798 5.820
8506.1 1.86123 5.66(18) 31.91 5.798 5.821
8510.4 1.86216 5.72(18) 31.49 5.798 5.821
8514.6 1.86309 5.82(18) 30.91 5.798 5.822
8518.9 1.86402 5.59(18) 32.15 5.798 5.823
8523.1 1.86495 5.46(17) 32.85 5.798 5.824
8527.4 1.86589 5.81(18) 30.78 5.797 5.826
8531.7 1.86682 5.89(18) 30.34 5.797 5.827
8535.9 1.86776 5.82(18) 30.64 5.797 5.829
8540.2 1.86869 5.80(18) 30.71 5.797 5.830
8544.5 1.86963 5.73(18) 31.02 5.797 5.832
8548.8 1.87057 5.72(18) 31.01 5.797 5.834
8553.0 1.87150 5.85(18) 30.27 5.797 5.836
8557.3 1.87243 5.80(18) 30.52 5.797 5.839
8561.6 1.87337 5.77(18) 30.60 5.797 5.842
8565.8 1.87431 5.98(18) 29.48 5.797 5.845
8570.1 1.87525 5.90(18) 29.80 5.797 5.849
8574.4 1.87618 5.76(18) 30.48 5.797 5.852
8578.7 1.87713 5.48(18) 31.99 5.797 5.857
8583.0 1.87807 5.70(18) 30.71 5.797 5.862
8587.3 1.87900 5.90(18) 29.63 5.797 5.867
8591.6 1.87995 5.75(18) 30.32 5.797 5.873
8595.9 1.88088 5.57(18) 31.26 5.797 5.881
8600.2 1.88183 5.67(18) 30.64 5.797 5.890
8604.5 1.88277 5.87(18) 29.57 5.797 5.901
8608.8 1.88371 5.73(18) 30.24 5.797 5.917
8613.1 1.88466 5.72(18) 30.23 5.797 5.939
8617.4 1.88559 5.63(18) 30.65 5.797 5.973
8621.7 1.88654 5.64(18) 30.58 5.797 6.024
8626.0 1.88748 5.80(18) 29.68 5.797 6.103
8630.3 1.88843 5.92(19) 28.99 5.797 6.225
8634.6 1.88937 5.94(19) 28.84 5.796 6.407
8639.0 1.89032 6.41(19) 26.67 5.796 6.669
8643.3 1.89127 6.95(20) 24.58 5.796 7.029
8647.6 1.89221 7.59(21) 22.46 5.796 7.501
8651.9 1.89316 8.20(22) 20.77 5.796 8.093
8656.3 1.89411 9.19(23) 18.49 5.796 8.792
8660.6 1.89505 9.73(24) 17.43 5.796 9.569
8664.9 1.89600 10.29(25) 16.45 5.796 10.378
8669.3 1.89695 10.83(25) 15.60 5.796 11.144
8673.6 1.89790 11.71(26) 14.40 5.796 11.794
8677.9 1.89885 12.17(27) 13.84 5.796 12.252
8682.3 1.89980 12.52(27) 13.42 5.796 12.469
8686.6 1.90075 12.12(27) 13.84 5.796 12.432
8690.9 1.90170 11.77(27) 14.22 5.796 12.167
8695.3 1.90265 11.30(26) 14.79 5.796 11.722
8699.6 1.90361 10.82(25) 15.43 5.796 11.155
8704.0 1.90456 10.43(25) 15.97 5.796 10.526
8708.3 1.90551 9.95(24) 16.72 5.796 9.883
8712.7 1.90647 9.03(23) 18.39 5.796 9.267
8717.0 1.90742 8.56(23) 19.38 5.796 8.705
8721.4 1.90838 8.03(22) 20.62 5.796 8.209
8725.8 1.90933 7.83(22) 21.11 5.796 7.784
8730.1 1.91028 7.33(21) 22.49 5.796 7.426
8734.5 1.91124 6.80(20) 24.21 5.796 7.131
8738.8 1.91219 6.61(20) 24.87 5.796 6.888
8743.2 1.91315 6.52(20) 25.16 5.796 6.690
8747.6 1.91411 6.41(20) 25.55 5.796 6.530
8752.0 1.91507 6.26(20) 26.11 5.796 6.400
8756.3 1.91603 6.06(19) 26.95 5.796 6.296
8760.7 1.91698 6.11(19) 26.66 5.796 6.211
8765.1 1.91794 6.01(19) 27.05 5.796 6.142
8769.5 1.91890 5.87(19) 27.65 5.796 6.086
8773.9 1.91987 5.82(19) 27.82 5.796 6.040
8778.3 1.92082 6.19(20) 26.13 5.796 6.003
8782.7 1.92179 5.85(19) 27.60 5.796 5.973
8787.0 1.92275 5.85(19) 27.56 5.796 5.948
8791.4 1.92371 5.97(19) 26.94 5.796 5.928
8795.8 1.92467 6.02(19) 26.70 5.796 5.911
8800.2 1.92564 5.96(19) 26.90 5.796 5.897
8804.6 1.92660 5.93(19) 27.00 5.796 5.886
8809.0 1.92757 5.86(19) 27.29 5.796 5.877
8813.4 1.92853 5.89(19) 27.08 5.796 5.869
8817.8 1.92949 5.59(19) 28.50 5.796 5.862
8822.3 1.93046 5.60(19) 28.40 5.795 5.857
8826.7 1.93142 5.56(19) 28.56 5.795 5.853
8831.1 1.93239 5.70(19) 27.81 5.795 5.852
8835.5 1.93335 5.72(19) 27.67 5.795 5.849
8839.9 1.93433 5.71(19) 27.67 5.795 5.847
8844.3 1.93529 5.80(19) 27.18 5.795 5.846
8848.8 1.93626 5.66(19) 27.81 5.795 5.846
8853.2 1.93723 5.57(19) 28.20 5.795 5.847
8857.6 1.93820 5.53(19) 28.36 5.795 5.850
8862.0 1.93917 5.71(19) 27.43 5.795 5.857
8866.5 1.94014 5.99(20) 26.10 5.795 5.868
8870.9 1.94111 6.05(20) 25.77 5.795 5.885
8875.3 1.94208 5.85(19) 26.63 5.795 5.911
8879.8 1.94305 5.95(20) 26.15 5.795 5.947
8884.2 1.94402 6.02(20) 25.79 5.795 5.995
8888.7 1.94500 6.08(20) 25.49 5.795 6.056
8893.1 1.94597 5.85(19) 26.43 5.795 6.127
8897.5 1.94695 6.18(20) 24.99 5.795 6.207
8902.0 1.94792 6.19(20) 24.91 5.795 6.290
8906.4 1.94890 6.37(20) 24.16 5.795 6.369
8910.9 1.94987 6.25(20) 24.57 5.795 6.436
8915.3 1.95085 6.22(20) 24.65 5.795 6.484
8919.8 1.95183 6.36(20) 24.09 5.795 6.506
8924.3 1.95280 6.38(20) 23.98 5.795 6.502
8928.7 1.95378 6.34(20) 24.06 5.795 6.474
8933.2 1.95476 6.31(20) 24.17 5.795 6.428
8937.7 1.95573 6.25(20) 24.34 5.795 6.368
8942.1 1.95671 6.11(20) 24.86 5.795 6.302
8946.6 1.95769 6.20(20) 24.45 5.795 6.235
8951.1 1.95867 6.03(20) 25.12 5.795 6.170
8955.5 1.95965 5.93(20) 25.50 5.795 6.111
8960.0 1.96063 5.87(20) 25.71 5.795 6.059
8964.5 1.96161 5.88(20) 25.62 5.795 6.015
8969.0 1.96259 6.04(20) 24.91 5.795 5.978
8973.5 1.96358 5.93(20) 25.31 5.795 5.947
8977.9 1.96456 5.83(20) 25.71 5.795 5.922
8982.4 1.96554 5.70(20) 26.25 5.795 5.902
8986.9 1.96653 5.84(20) 25.58 5.795 5.885
8991.4 1.96751 5.95(20) 25.07 5.795 5.872
8995.9 1.96850 5.65(19) 26.35 5.795 5.862
9000.4 1.96948 5.54(19) 26.83 5.795 5.853
9004.9 1.97046 5.77(20) 25.71 5.795 5.847
9009.4 1.97145 5.89(20) 25.16 5.795 5.841
9013.9 1.97244 5.87(20) 25.18 5.795 5.837
9018.4 1.97343 5.95(20) 24.81 5.795 5.827
9022.9 1.97441 5.76(20) 25.59 5.795 5.825
9027.5 1.97540 5.60(20) 26.28 5.795 5.823
9032.0 1.97639 5.81(20) 25.28 5.795 5.822
9036.5 1.97738 5.65(20) 25.96 5.795 5.821
9041.0 1.97837 5.72(20) 25.62 5.795 5.821
9045.5 1.97936 5.28(19) 27.70 5.795 5.821
9050.0 1.98034 5.60(20) 26.09 5.795 5.821
9054.6 1.98134 5.89(20) 24.72 5.795 5.821
9059.1 1.98233 5.76(20) 25.27 5.795 5.822
9063.6 1.98332 5.83(20) 24.93 5.796 5.823
9068.2 1.98431 5.73(20) 25.31 5.796 5.930
9072.7 1.98531 5.77(20) 25.11 5.796 5.934
9077.2 1.98630 5.86(20) 24.67 5.796 5.939
9081.8 1.98730 5.93(20) 24.34 5.796 5.943
9086.3 1.98829 5.81(20) 24.82 5.796 5.949
9090.8 1.98928 5.69(20) 25.30 5.796 5.955
9095.4 1.99028 5.61(20) 25.58 5.796 5.962
9099.9 1.99127 5.53(20) 25.93 5.796 5.971
9104.5 1.99227 5.88(20) 24.37 5.796 5.983
9109.1 1.99327 5.80(20) 24.66 5.796 5.999
9113.6 1.99427 5.79(20) 24.64 5.796 6.023
9118.2 1.99526 5.72(20) 24.91 5.796 6.057
9122.7 1.99626 6.03(21) 23.59 5.796 6.108
9127.3 1.99726 6.31(21) 22.52 5.796 6.183
9131.8 1.99826 6.05(21) 23.45 5.796 6.289
9136.4 1.99926 6.35(21) 22.27 5.796 6.435
9141.0 2.00026 6.45(21) 21.91 5.796 6.627
9145.6 2.00127 6.51(21) 21.68 5.796 6.867
9150.1 2.00227 6.78(22) 20.79 5.796 7.151
9154.7 2.00326 7.11(22) 19.77 5.796 7.469
9159.3 2.00427 7.51(23) 18.69 5.796 7.801
9163.8 2.00527 7.90(24) 17.74 5.796 8.122
9168.4 2.00628 8.10(24) 17.27 5.796 8.399
9173.0 2.00728 8.31(24) 16.81 5.796 8.601
9177.6 2.00828 8.37(24) 16.66 5.796 8.707
9182.2 2.00929 8.45(25) 16.48 5.796 8.710
9186.8 2.01029 8.13(24) 17.09 5.796 8.617
9191.4 2.01130 8.15(24) 17.03 5.796 8.447
9196.0 2.01231 8.13(24) 17.04 5.796 8.225
9200.6 2.01331 7.72(24) 17.92 5.796 7.974
9205.2 2.01432 7.39(23) 18.71 5.796 7.716
9209.8 2.01533 7.12(23) 19.36 5.796 7.469
9214.4 2.01634 6.95(22) 19.82 5.796 7.243
9219.0 2.01735 6.78(22) 20.28 5.796 7.046
9223.6 2.01836 6.50(22) 21.13 5.796 6.879
9228.2 2.01937 6.15(21) 22.30 5.796 6.741
9232.8 2.02038 6.20(21) 22.07 5.796 6.631
9237.4 2.02139 6.44(22) 21.21 5.796 6.544
9242.1 2.02240 6.13(21) 22.24 5.796 6.477
9246.7 2.02341 6.25(21) 21.79 5.796 6.426
9251.3 2.02443 6.53(22) 20.83 5.796 6.389
9255.9 2.02544 6.29(22) 21.59 5.796 6.364
9260.6 2.02645 6.04(21) 22.43 5.796 6.348
9265.2 2.02747 6.40(22) 21.15 5.796 6.339
9269.8 2.02848 6.00(21) 22.50 5.796 6.337
9274.5 2.02950 6.09(21) 22.14 5.796 6.341
9279.1 2.03051 5.91(21) 22.80 5.796 6.350
9283.7 2.03152 5.98(21) 22.49 5.796 6.363
9288.4 2.03254 5.96(21) 22.50 5.797 6.380
9293.0 2.03356 6.28(22) 21.34 5.797 6.400
9297.7 2.03458 6.29(22) 21.26 5.797 6.424
9302.3 2.03560 6.04(21) 22.10 5.797 6.453
9307.0 2.03662 5.99(21) 22.28 5.797 6.485
9311.6 2.03764 5.93(21) 22.45 5.797 6.521
9316.3 2.03866 5.91(21) 22.51 5.797 6.562
9320.9 2.03968 6.10(21) 21.75 5.797 6.607
9325.6 2.04070 6.48(22) 20.43 5.797 6.657
9330.3 2.04172 6.10(21) 21.68 5.797 6.713
9334.9 2.04273 6.24(22) 21.15 5.797 6.776
9339.6 2.04376 6.35(22) 20.78 5.797 6.846
9344.3 2.04478 6.04(21) 21.80 5.797 6.924
9348.9 2.04581 6.19(22) 21.22 5.797 7.012
9353.6 2.04683 6.01(21) 21.83 5.797 7.112
9358.3 2.04785 6.10(22) 21.48 5.797 7.227
9363.0 2.04888 6.49(22) 20.15 5.797 7.359
9367.6 2.04990 6.43(22) 20.32 5.797 7.517
9372.3 2.05093 6.88(23) 18.95 5.797 7.713
9377.0 2.05195 6.98(23) 18.64 5.797 7.967
9381.7 2.05298 7.09(23) 18.34 5.797 8.317
9386.4 2.05401 7.41(24) 17.50 5.797 8.829
9391.1 2.05504 8.34(25) 15.53 5.797 9.606
9395.8 2.05607 9.25(27) 13.97 5.797 10.803
9400.5 2.05709 10.74(29) 12.02 5.797 12.655
9405.2 2.05813 13.79(33) 9.35 5.797 15.464
9409.9 2.05915 18.3(4) 7.03 5.80 19.59
9414.6 2.06019 24.9(4) 5.16 5.80 25.44
9419.3 2.06121 33.9(5) 3.77 5.80 33.36
9424.0 2.06225 45.6(6) 2.796 5.80 43.61
9428.7 2.06328 58.6(7) 2.167 5.80 56.18
9433.4 2.06431 73.5(8) 1.724 5.80 70.72
9438.2 2.06535 88.9(8) 1.420 5.80 86.53
9442.9 2.06638 104.5(9) 1.203 5.80 102.50
9447.6 2.06742 117.9(10) 1.063 5.80 117.20
9452.3 2.06845 128.3(10) 0.974 5.80 129.06
9457.0 2.06948 132.7(10) 0.940 5.80 136.71
9461.8 2.07052 134.0(10) 0.929 5.80 139.37
9466.5 2.07156 132.7(10) 0.937 5.80 137.00
9471.2 2.07259 125.7(10) 0.988 5.80 130.26
9476.0 2.07363 119.2(10) 1.041 5.80 120.21
9480.7 2.07466 106.4(9) 1.166 5.80 108.06
9485.4 2.07570 92.9(9) 1.336 5.80 94.94
9490.2 2.07674 81.2(8) 1.528 5.80 81.87
9494.9 2.07778 68.7(7) 1.806 5.80 69.59
9499.7 2.07882 57.2(7) 2.170 5.80 58.55
9504.4 2.07986 48.3(6) 2.569 5.80 48.97
9509.2 2.08091 39.9(6) 3.103 5.80 40.87
9513.9 2.08195 33.3(5) 3.71 5.80 34.17
9518.7 2.08299 28.3(5) 4.37 5.80 28.71
9523.4 2.08403 24.0(4) 5.15 5.80 24.30
9528.2 2.08507 21.4(4) 5.77 5.80 20.76
9533.0 2.08611 18.5(4) 6.65 5.80 17.94
9537.8 2.08716 16.5(4) 7.47 5.80 15.69
9542.5 2.08820 15.3(4) 8.04 5.80 13.90
9547.3 2.08925 14.17(34) 8.65 5.799 12.466
9552.1 2.09030 13.05(33) 9.39 5.799 11.321
9556.8 2.09134 12.33(32) 9.91 5.799 10.401
9561.6 2.09239 11.44(31) 10.67 5.799 9.664
9566.4 2.09344 10.95(30) 11.13 5.799 9.069
9571.2 2.09448 10.61(30) 11.47 5.799 8.588
9576.0 2.09553 10.06(29) 12.08 5.799 8.197
9580.8 2.09658 9.64(28) 12.58 5.799 7.877
9585.5 2.09763 9.15(27) 13.24 5.799 7.613
9590.3 2.09868 8.80(27) 13.73 5.799 7.396
9595.1 2.09973 8.79(27) 13.72 5.799 7.215
9599.9 2.10078 8.67(27) 13.90 5.799 7.064
9604.7 2.10183 8.29(26) 14.50 5.799 6.937
9609.5 2.10288 7.95(26) 15.11 5.799 6.829
9614.3 2.10394 7.98(26) 15.01 5.799 6.738
9619.1 2.10498 7.92(26) 15.11 5.799 6.659
9623.9 2.10604 7.48(25) 15.97 5.799 6.590
9628.8 2.10709 7.42(25) 16.07 5.799 6.531
9633.6 2.10815 7.53(25) 15.81 5.799 6.479
9638.4 2.10920 7.34(25) 16.19 5.799 6.433
9643.2 2.11026 7.09(24) 16.74 5.799 6.392
9648.0 2.11132 6.73(24) 17.60 5.799 6.355
9652.8 2.11237 7.02(24) 16.84 5.800 6.323
9657.7 2.11343 7.25(25) 16.29 5.800 6.293
9662.5 2.11448 7.09(25) 16.61 5.800 6.266
9667.3 2.11555 6.79(24) 17.32 5.800 6.242
9672.2 2.11661 6.78(24) 17.32 5.800 6.219
9677.0 2.11766 6.49(24) 18.05 5.800 6.199
9681.8 2.11872 6.40(23) 18.27 5.800 6.180
9686.7 2.11978 6.73(24) 17.36 5.800 6.162
9691.5 2.12084 6.49(24) 17.97 5.800 6.146
9696.4 2.12190 6.40(23) 18.19 5.800 6.131
9701.2 2.12296 6.53(24) 17.79 5.800 6.117
9706.1 2.12403 6.27(23) 18.50 5.800 6.104
9710.9 2.12509 6.08(23) 19.04 5.800 6.091
9715.8 2.12615 6.13(23) 18.85 5.800 6.080
9720.7 2.12722 6.50(24) 17.76 5.800 6.070
9725.5 2.12828 6.44(24) 17.88 5.800 6.060
9730.4 2.12935 6.36(24) 18.07 5.800 6.050
9735.2 2.13041 6.38(24) 17.98 5.800 6.041
9740.1 2.13148 6.36(24) 18.02 5.800 6.033
9745.0 2.13255 6.15(23) 18.60 5.800 6.025
9749.8 2.13361 6.51(24) 17.53 5.800 6.017
9754.7 2.13468 6.92(25) 16.47 5.801 6.010
9759.6 2.13575 6.67(24) 17.07 5.801 6.003
9764.5 2.13682 6.48(24) 17.53 5.801 5.996
9769.3 2.13789 6.24(23) 18.18 5.801 5.990
9774.3 2.13896 6.30(24) 17.97 5.801 5.984
9779.1 2.14003 6.36(24) 17.75 5.801 5.979
9784.0 2.14110 6.10(23) 18.49 5.801 5.973
9788.9 2.14217 6.00(23) 18.76 5.801 5.968
9793.8 2.14324 5.95(23) 18.91 5.801 5.963
9798.7 2.14431 5.87(23) 19.11 5.801 5.959
9803.6 2.14539 5.84(23) 19.19 5.801 5.954
9808.5 2.14646 5.65(22) 19.77 5.801 5.950
9813.4 2.14754 5.73(23) 19.47 5.801 5.946
9818.3 2.14861 6.08(23) 18.32 5.801 5.942
9823.2 2.14969 5.63(22) 19.76 5.801 5.938
9828.1 2.15076 5.79(23) 19.17 5.801 5.935
9833.1 2.15184 5.95(23) 18.63 5.801 5.931
9838.0 2.15292 5.41(22) 20.44 5.801 5.804
9842.9 2.15399 5.61(23) 19.68 5.801 5.804
9847.8 2.15507 6.05(23) 18.22 5.802 5.804
9852.7 2.15615 6.02(23) 18.28 5.802 5.804
9857.7 2.15723 5.63(23) 19.50 5.802 5.805
9862.6 2.15831 5.55(22) 19.75 5.802 5.805
9867.5 2.15939 5.54(23) 19.75 5.802 5.805
9872.4 2.16047 5.96(23) 18.34 5.802 5.805
9877.4 2.16155 6.23(24) 17.49 5.802 5.805
9882.3 2.16263 6.21(24) 17.54 5.802 5.805
9887.3 2.16372 6.08(24) 17.87 5.802 5.806
9892.2 2.16480 6.20(24) 17.50 5.802 5.806
9897.2 2.16588 6.11(24) 17.71 5.802 5.806
9902.1 2.16696 5.91(23) 18.28 5.802 5.806
9907.1 2.16805 6.01(24) 17.93 5.802 5.807
9912.0 2.16913 6.17(24) 17.46 5.802 5.807
9917.0 2.17022 5.78(23) 18.61 5.802 5.807
9921.9 2.17131 5.81(23) 18.46 5.802 5.807
9926.9 2.17239 5.86(23) 18.27 5.802 5.808
9931.8 2.17348 6.11(24) 17.49 5.802 5.808
9936.8 2.17457 6.07(24) 17.57 5.802 5.808
9941.8 2.17565 6.08(24) 17.52 5.803 5.809
9946.8 2.17674 5.98(24) 17.78 5.803 5.809
9951.7 2.17783 5.80(23) 18.28 5.803 5.810
9956.7 2.17892 5.88(24) 18.00 5.803 5.810
9961.7 2.18001 6.03(24) 17.52 5.803 5.811
9966.7 2.18110 5.75(23) 18.34 5.803 5.811
9971.7 2.18220 5.73(23) 18.38 5.803 5.812
9976.6 2.18329 5.51(23) 19.06 5.803 5.813
9981.6 2.18438 5.85(24) 17.95 5.803 5.813
9986.6 2.18548 6.07(24) 17.25 5.803 5.814
9991.6 2.18657 5.62(23) 18.60 5.803 5.815
9996.6 2.18766 5.52(23) 18.89 5.803 5.816
10001.6 2.18876 5.30(23) 19.64 5.803 5.817
10006.6 2.18985 5.38(23) 19.32 5.803 5.819
10011.6 2.19095 5.61(23) 18.48 5.803 5.820
10016.6 2.19204 5.87(24) 17.65 5.803 5.822
10021.6 2.19314 5.77(24) 17.92 5.803 5.825
10026.6 2.19424 5.91(24) 17.45 5.803 5.828
10031.6 2.19533 5.92(24) 17.38 5.804 5.832
10036.7 2.19644 5.80(24) 17.73 5.804 5.839
10041.7 2.19754 6.00(24) 17.10 5.804 5.850
10046.7 2.19863 5.77(24) 17.73 5.804 5.866
10051.7 2.19973 5.63(23) 18.14 5.804 5.892
10056.8 2.20084 5.95(24) 17.13 5.804 5.930
10061.8 2.20194 5.99(24) 16.98 5.804 5.984
10066.8 2.20304 6.20(25) 16.39 5.804 6.057
10071.8 2.20414 6.34(25) 16.01 5.804 6.153
10076.9 2.20524 6.35(25) 15.94 5.804 6.273
10081.9 2.20635 6.72(26) 15.02 5.804 6.415
10086.9 2.20745 6.33(25) 15.93 5.804 6.573
10092.0 2.20856 6.65(26) 15.14 5.804 6.737
10097.0 2.20966 7.24(27) 13.88 5.804 6.895
10102.1 2.21077 7.45(27) 13.46 5.804 7.030
10107.2 2.21188 7.63(28) 13.11 5.804 7.126
10112.2 2.21298 7.49(27) 13.34 5.804 7.174
10117.3 2.21409 7.38(27) 13.51 5.805 7.169
10122.3 2.21520 7.30(27) 13.62 5.805 7.115
10127.4 2.21631 7.54(28) 13.16 5.805 7.022
10132.4 2.21742 7.31(27) 13.57 5.805 6.903
10137.5 2.21852 7.16(27) 13.82 5.805 6.769
10142.6 2.21963 6.87(26) 14.37 5.805 6.631
10147.7 2.22075 6.68(26) 14.76 5.805 6.499
10152.7 2.22186 6.85(26) 14.35 5.805 6.379
10157.8 2.22297 6.98(27) 14.06 5.805 6.273
10162.9 2.22408 6.76(26) 14.49 5.805 6.184
10167.9 2.22519 6.36(26) 15.37 5.805 6.109
10173.0 2.22631 6.38(26) 15.29 5.805 6.049
10178.1 2.22742 6.52(26) 14.94 5.805 6.001
10183.2 2.22854 6.30(25) 15.41 5.805 5.962
10188.3 2.22965 6.07(25) 15.97 5.805 5.932
10193.4 2.23077 5.94(25) 16.30 5.805 5.908
10198.5 2.23189 6.01(25) 16.08 5.805 5.890
10203.6 2.23300 6.02(25) 16.00 5.805 5.875
10208.7 2.23412 5.82(25) 16.54 5.806 5.863
10213.8 2.23524 6.07(25) 15.83 5.806 5.854
10218.9 2.23636 6.24(26) 15.35 5.806 5.847
10224.0 2.23747 5.87(25) 16.30 5.806 5.842
10229.1 2.23859 5.86(25) 16.28 5.806 5.837
10234.3 2.23972 6.01(25) 15.84 5.806 5.833
10239.3 2.24083 6.14(25) 15.50 5.806 5.831
10244.5 2.24195 6.04(25) 15.72 5.806 5.828
10249.6 2.24308 6.07(25) 15.60 5.806 5.826
10254.7 2.24420 6.12(25) 15.44 5.806 5.825
10259.8 2.24532 5.85(25) 16.13 5.806 5.824
10265.0 2.24644 5.98(25) 15.75 5.806 5.823
10270.1 2.24757 5.71(25) 16.46 5.806 5.822
10275.3 2.24870 6.15(26) 15.25 5.806 5.822
10280.4 2.24982 5.98(25) 15.66 5.806 5.821
10285.5 2.25095 5.57(24) 16.76 5.806 5.821
10290.7 2.25207 5.82(25) 16.01 5.806 5.821
10295.8 2.25320 6.05(26) 15.38 5.806 5.821
10301.0 2.25433 5.92(25) 15.67 5.807 5.821
10306.1 2.25546 5.66(25) 16.37 5.807 5.821
10311.3 2.25659 5.73(25) 16.14 5.807 5.821
10316.4 2.25772 5.53(24) 16.68 5.807 5.821
10321.6 2.25885 5.68(25) 16.22 5.807 5.821
10326.8 2.25998 5.71(25) 16.08 5.807 5.822
10331.9 2.26111 5.73(25) 16.01 5.807 5.822
10337.1 2.26224 5.56(25) 16.47 5.807 5.823
10342.3 2.26337 5.96(26) 15.33 5.807 5.823
10347.4 2.26450 5.88(25) 15.51 5.807 5.824
10352.6 2.26564 5.90(25) 15.42 5.807 5.825
10357.8 2.26677 5.57(25) 16.28 5.807 5.826
10362.9 2.26790 5.69(25) 15.91 5.807 5.827
10368.1 2.26904 5.94(26) 15.22 5.807 5.828
10373.3 2.27018 5.80(25) 15.57 5.807 5.829
10378.5 2.27131 5.92(26) 15.22 5.807 5.831
10383.7 2.27245 5.58(25) 16.11 5.807 5.833
10388.9 2.27359 5.56(25) 16.14 5.807 5.835
10394.1 2.27472 5.51(25) 16.24 5.808 5.838
10399.3 2.27586 5.75(25) 15.54 5.808 5.841
10404.5 2.27700 5.81(26) 15.34 5.808 5.846
10409.7 2.27814 5.68(25) 15.67 5.808 5.852
10414.9 2.27928 5.63(25) 15.77 5.808 5.863
10420.1 2.28042 5.68(25) 15.59 5.808 5.878
10425.3 2.28156 5.97(26) 14.80 5.808 5.902
10430.5 2.28270 6.39(27) 13.80 5.808 5.939
10435.7 2.28385 6.32(27) 13.94 5.808 5.993
10440.9 2.28499 6.07(26) 14.48 5.808 6.071
10446.2 2.28613 6.13(26) 14.32 5.808 6.178
10451.4 2.28728 5.87(26) 14.91 5.808 6.319
10456.6 2.28842 6.41(27) 13.62 5.808 6.494
10461.8 2.28957 6.61(28) 13.19 5.808 6.702
10467.1 2.29071 6.28(27) 13.86 5.808 6.932
10472.3 2.29186 6.61(28) 13.13 5.808 7.172
10477.5 2.29301 6.84(28) 12.67 5.808 7.404
10482.8 2.29416 7.13(29) 12.12 5.808 7.604
10488.0 2.29530 7.26(29) 11.89 5.809 7.747
10493.3 2.29645 7.05(29) 12.21 5.809 7.818
10498.5 2.29760 6.97(28) 12.34 5.809 7.813
10503.8 2.29875 7.12(29) 12.06 5.809 7.735
10509.0 2.29990 7.06(29) 12.12 5.809 7.600
10514.3 2.30105 6.96(29) 12.27 5.809 7.423
10519.5 2.30221 7.02(29) 12.14 5.809 7.225
10524.8 2.30336 6.97(29) 12.21 5.809 7.022
10530.0 2.30451 6.85(28) 12.39 5.809 6.826
10535.3 2.30566 6.51(28) 13.01 5.809 6.646
10540.6 2.30681 6.16(27) 13.73 5.809 6.489
10545.8 2.30797 6.11(27) 13.82 5.809 6.356
10551.1 2.30913 6.29(27) 13.38 5.809 6.247
10556.4 2.31028 5.97(27) 14.08 5.809 6.158
10561.7 2.31143 6.10(27) 13.75 5.809 6.087
10566.9 2.31259 5.94(27) 14.10 5.809 6.031
10572.2 2.31375 5.62(26) 14.86 5.809 5.987
10577.5 2.31491 5.87(27) 14.21 5.809 5.953
10582.8 2.31607 6.06(27) 13.73 5.809 5.926
10588.1 2.31722 6.00(27) 13.83 5.810 5.906
10593.4 2.31839 6.08(27) 13.62 5.810 5.889
10598.7 2.31955 6.00(27) 13.77 5.810 5.877
10604.0 2.32071 6.46(28) 12.77 5.810 5.867
10609.3 2.32187 6.39(28) 12.90 5.810 5.859
10614.6 2.32303 5.88(27) 13.98 5.810 5.852
10619.9 2.32419 5.48(26) 14.95 5.810 5.847
10625.2 2.32536 5.77(27) 14.19 5.810 5.843
10630.5 2.32652 5.67(26) 14.39 5.810 5.840
10635.8 2.32768 5.85(27) 13.93 5.810 5.838
10641.2 2.32885 6.19(28) 13.15 5.810 5.836
10646.5 2.33001 5.98(27) 13.58 5.810 5.834
10651.8 2.33118 5.77(27) 14.05 5.810 5.833
10657.1 2.33235 5.86(27) 13.79 5.810 5.831
10662.5 2.33352 5.66(26) 14.25 5.810 5.831
10667.8 2.33468 5.62(26) 14.32 5.810 5.830
10673.1 2.33585 5.97(27) 13.46 5.810 5.829
10678.5 2.33702 6.14(28) 13.07 5.810 5.829
10683.8 2.33819 6.09(28) 13.15 5.810 5.829
10689.1 2.33936 5.98(27) 13.35 5.810 5.828
10694.5 2.34053 5.83(27) 13.66 5.811 5.828
10699.8 2.34170 5.60(27) 14.20 5.811 5.828
10705.2 2.34287 5.45(26) 14.57 5.811 5.828
10710.5 2.34404 5.70(27) 13.90 5.811 5.829
10715.9 2.34522 5.75(27) 13.74 5.811 5.829
10721.3 2.34639 5.74(27) 13.75 5.811 5.829
10726.6 2.34756 5.93(27) 13.28 5.811 5.829
10732.0 2.34874 6.10(28) 12.88 5.811 5.830
10737.3 2.34992 5.61(27) 13.99 5.811 5.830
10742.7 2.35110 5.52(27) 14.16 5.811 5.831
10748.1 2.35227 5.48(26) 14.24 5.811 5.832
10753.4 2.35344 5.41(26) 14.39 5.811 5.832
10758.8 2.35462 5.58(27) 13.93 5.811 5.833
10764.2 2.35581 5.77(27) 13.45 5.811 5.834
10769.6 2.35698 5.44(26) 14.25 5.811 5.835
10775.0 2.35816 5.71(27) 13.55 5.811 5.837
10780.4 2.35934 5.75(27) 13.43 5.811 5.838
10785.8 2.36052 5.91(28) 13.03 5.811 5.840
10791.2 2.36171 5.88(28) 13.07 5.811 5.842
10796.5 2.36288 5.69(27) 13.48 5.811 5.844
10801.9 2.36407 5.57(27) 13.73 5.811 5.846
10807.3 2.36525 5.55(27) 13.77 5.812 5.849
10812.8 2.36644 5.75(27) 13.25 5.812 5.852
10818.2 2.36762 5.50(27) 13.82 5.812 5.856
10823.6 2.36881 5.78(28) 13.13 5.812 5.862
10829.0 2.36999 5.94(28) 12.75 5.812 5.869
10834.4 2.37117 6.16(29) 12.27 5.812 5.880
10839.8 2.37236 6.21(29) 12.15 5.812 5.896
10845.2 2.37355 5.98(28) 12.59 5.812 5.920
10850.7 2.37474 5.34(27) 14.06 5.812 5.958
10856.1 2.37592 5.68(28) 13.21 5.812 6.015
10861.5 2.37712 6.06(28) 12.35 5.812 6.100
10866.9 2.37831 6.38(29) 11.70 5.812 6.221
10872.4 2.37950 6.33(29) 11.77 5.812 6.386
10877.8 2.38069 6.38(29) 11.66 5.812 6.601
10883.3 2.38188 6.90(30) 10.76 5.812 6.869
10888.7 2.38307 7.93(33) 9.34 5.812 7.183
10894.1 2.38426 7.94(33) 9.31 5.812 7.531
10899.6 2.38545 8.34(34) 8.85 5.812 7.893
10905.0 2.38665 9.1(4) 8.06 5.81 8.24
10910.5 2.38784 8.89(35) 8.26 5.812 8.533
10915.9 2.38904 9.0(4) 8.11 5.81 8.74
10921.4 2.39023 8.96(35) 8.17 5.812 8.842
10926.8 2.39143 8.65(34) 8.44 5.812 8.828
10932.3 2.39263 8.59(34) 8.48 5.813 8.705
10937.8 2.39383 8.67(35) 8.39 5.813 8.495
10943.3 2.39502 8.13(33) 8.93 5.813 8.225
10948.7 2.39622 7.46(32) 9.71 5.813 7.923
10954.2 2.39742 7.15(31) 10.11 5.813 7.614
10959.7 2.39862 7.15(31) 10.09 5.813 7.316
10965.2 2.39982 7.11(31) 10.13 5.813 7.045
10970.6 2.40102 6.72(31) 10.69 5.813 6.834
10976.1 2.40223 6.56(30) 10.93 5.813 6.635
10981.6 2.40342 6.22(29) 11.50 5.813 6.471
10987.1 2.40463 6.19(29) 11.53 5.813 6.339
10992.6 2.40583 6.23(30) 11.45 5.813 6.235
10998.1 2.40704 6.15(29) 11.57 5.813 6.153
11003.6 2.40824 6.18(29) 11.49 5.813 6.090
11009.1 2.40945 6.07(29) 11.67 5.813 6.041
11014.6 2.41065 5.94(29) 11.90 5.813 6.004
11020.1 2.41186 6.40(30) 11.02 5.813 5.975
11025.6 2.41306 6.61(31) 10.65 5.813 5.952
11031.1 2.41427 6.34(30) 11.09 5.813 5.935
11036.6 2.41548 5.80(29) 12.09 5.813 5.922
11042.2 2.41669 5.76(29) 12.14 5.813 5.911
11047.7 2.41790 5.80(29) 12.04 5.813 5.904
11053.2 2.41911 5.79(29) 12.05 5.813 5.898
11058.7 2.42032 6.08(30) 11.44 5.813 5.893
11064.3 2.42153 6.11(30) 11.37 5.813 5.890
11069.8 2.42274 5.83(29) 11.88 5.814 5.887
11075.3 2.42395 5.75(29) 12.03 5.814 5.885
11080.9 2.42517 5.79(29) 11.92 5.814 5.884
11086.4 2.42638 5.68(29) 12.13 5.814 5.883
11091.9 2.42760 5.86(29) 11.72 5.814 5.883
11097.5 2.42882 5.65(29) 12.14 5.814 5.883
11103.0 2.43003 5.76(29) 11.87 5.814 5.884
11108.6 2.43125 5.82(29) 11.73 5.814 5.884
11114.2 2.43246 5.72(29) 11.91 5.814 5.885
11119.7 2.43368 5.77(29) 11.78 5.814 5.886
11125.3 2.43489 5.94(30) 11.43 5.814 5.888
11130.8 2.43611 5.94(30) 11.41 5.814 5.889
11136.4 2.43733 5.63(29) 12.01 5.814 5.891
11142.0 2.43856 6.33(31) 10.65 5.814 5.893
11147.5 2.43978 6.03(30) 11.16 5.814 5.896
11153.1 2.44099 5.88(30) 11.43 5.814 5.898
11158.7 2.44222 5.83(29) 11.51 5.814 5.901
11164.3 2.44344 5.92(30) 11.30 5.814 5.904
11169.8 2.44466 6.27(31) 10.65 5.814 5.907
11175.4 2.44589 5.90(30) 11.30 5.814 5.911
11181.0 2.44711 5.87(30) 11.32 5.814 5.915
11186.6 2.44833 5.77(29) 11.51 5.814 5.919
11192.2 2.44956 5.98(30) 11.08 5.814 5.924
11197.8 2.45078 5.50(29) 12.02 5.814 5.929
11203.4 2.45202 5.99(30) 11.01 5.814 5.934
11209.0 2.45324 6.09(30) 10.80 5.814 5.940
11214.6 2.45447 5.88(30) 11.17 5.814 5.947
11220.2 2.45570 5.70(29) 11.49 5.814 5.954
11225.8 2.45692 6.48(31) 10.10 5.814 5.962
11231.4 2.45816 6.37(31) 10.25 5.814 5.970
11237.0 2.45938 6.06(30) 10.75 5.814 5.980
11242.7 2.46061 5.48(29) 11.87 5.815 5.990
11248.3 2.46185 5.24(28) 12.38 5.815 6.002
11253.9 2.46308 5.74(30) 11.29 5.815 6.015
11259.5 2.46431 5.73(30) 11.27 5.815 6.029
11265.2 2.46554 5.73(30) 11.25 5.815 6.045
11270.8 2.46678 5.67(30) 11.34 5.815 6.062
11276.4 2.46801 5.87(30) 10.93 5.815 6.083
11282.1 2.46925 5.97(31) 10.74 5.815 6.106
11287.7 2.47049 5.96(31) 10.74 5.815 6.132
11293.3 2.47172 5.92(30) 10.78 5.815 6.164
11299.0 2.47296 6.37(32) 10.01 5.815 6.203
11304.7 2.47420 6.00(31) 10.59 5.815 6.255
11310.3 2.47544 6.29(31) 10.08 5.815 6.326
11316.0 2.47668 5.98(31) 10.59 5.815 6.429
11321.6 2.47791 6.04(31) 10.46 5.815 6.584
11327.3 2.47915 6.01(31) 10.50 5.815 6.823
11332.9 2.48039 6.35(32) 9.91 5.815 7.189
11338.6 2.48163 7.09(34) 8.85 5.815 7.743
11344.3 2.48288 8.0(4) 7.84 5.82 8.55
11349.9 2.48412 9.1(4) 6.91 5.82 9.70
11355.6 2.48536 10.7(4) 5.85 5.82 11.26
11361.3 2.48661 12.2(4) 5.10 5.82 13.27
11367.0 2.48785 15.0(5) 4.14 5.82 15.75
11372.7 2.48909 18.1(5) 3.423 5.82 18.66
11378.3 2.49034 20.8(6) 2.973 5.82 21.85
11384.0 2.49159 23.5(6) 2.625 5.82 25.13
11389.7 2.49283 26.5(7) 2.326 5.82 28.24
11395.4 2.49409 28.3(7) 2.173 5.82 30.86
11401.1 2.49533 30.2(7) 2.033 5.82 32.68
11406.8 2.49658 31.6(7) 1.940 5.82 33.51
11412.5 2.49783 31.2(7) 1.961 5.82 33.27
11418.3 2.49908 29.6(7) 2.065 5.82 32.07
11423.9 2.50033 28.1(7) 2.166 5.82 30.10
11429.7 2.50158 26.3(7) 2.312 5.82 27.58
11435.4 2.50283 23.4(6) 2.597 5.82 24.78
11441.1 2.50409 21.5(6) 2.816 5.82 21.93
11446.8 2.50534 18.7(6) 3.232 5.82 19.21
11452.5 2.50659 16.4(5) 3.68 5.82 16.75
11458.3 2.50785 14.3(5) 4.20 5.82 14.60
11464.0 2.50911 12.4(5) 4.83 5.82 12.79
11469.7 2.51036 11.0(4) 5.44 5.82 11.31
11475.5 2.51162 10.1(4) 5.92 5.82 10.13
11481.2 2.51287 9.9(4) 6.04 5.82 9.20
11486.9 2.51413 8.6(4) 6.92 5.82 8.48
11492.7 2.51539 8.3(4) 7.18 5.82 7.92
11498.4 2.51665 7.6(4) 7.81 5.82 7.49
11504.2 2.51791 7.17(35) 8.25 5.816 7.155
11509.9 2.51917 7.3(4) 8.05 5.82 6.90
11515.7 2.52043 7.4(4) 7.99 5.82 6.70
11521.4 2.52169 7.21(35) 8.16 5.816 6.551
11527.2 2.52295 7.18(35) 8.17 5.816 6.432
11533.0 2.52422 6.82(34) 8.59 5.816 6.338
11538.7 2.52547 6.47(33) 9.04 5.816 6.264
11544.5 2.52674 6.28(33) 9.28 5.816 6.204
11550.3 2.52801 6.53(34) 8.91 5.816 6.157
11556.0 2.52927 6.41(33) 9.06 5.816 6.118
11561.8 2.53053 6.20(33) 9.34 5.816 6.086
11567.6 2.53180 6.00(32) 9.63 5.816 6.059
11573.4 2.53307 6.43(33) 8.98 5.816 6.036
11579.2 2.53434 5.95(32) 9.68 5.816 6.017
11585.0 2.53561 5.91(32) 9.73 5.816 6.001
11590.8 2.53687 6.02(32) 9.53 5.816 5.987
11596.6 2.53815 5.77(32) 9.92 5.816 5.975
11602.3 2.53941 6.01(32) 9.51 5.816 5.964
11608.2 2.54069 5.93(32) 9.62 5.816 5.954
11614.0 2.54196 5.97(32) 9.53 5.816 5.946
11619.8 2.54323 5.89(32) 9.64 5.816 5.938
11625.6 2.54450 6.21(33) 9.11 5.816 5.931
11631.4 2.54577 6.18(33) 9.15 5.816 5.925
11637.2 2.54705 5.88(32) 9.58 5.816 5.919
11643.0 2.54833 5.82(32) 9.67 5.816 5.914
11648.8 2.54960 5.87(32) 9.56 5.816 5.909
11654.7 2.55087 6.07(33) 9.23 5.816 5.905
11660.5 2.55216 6.01(33) 9.30 5.816 5.901
11666.3 2.55343 5.60(32) 9.96 5.816 5.897
11672.2 2.55471 5.82(32) 9.57 5.816 5.893
11678.0 2.55599 5.70(32) 9.75 5.816 5.890
11683.8 2.55727 6.39(34) 8.68 5.816 5.887
11689.7 2.55855 6.30(34) 8.78 5.816 5.884
11695.5 2.55983 5.80(32) 9.52 5.816 5.882
11701.4 2.56111 5.80(32) 9.49 5.816 5.879
11707.2 2.56239 5.84(33) 9.41 5.816 5.877
11713.1 2.56367 5.68(32) 9.65 5.816 5.875
11718.9 2.56496 5.78(32) 9.47 5.816 5.873
11724.8 2.56624 6.00(33) 9.11 5.816 5.871
11730.7 2.56753 5.95(33) 9.17 5.816 5.869
11736.5 2.56881 5.96(33) 9.14 5.816 5.867
11742.4 2.57009 6.05(33) 8.97 5.816 5.866
11748.3 2.57138 6.04(33) 8.97 5.816 5.864
11754.1 2.57267 6.02(33) 8.98 5.816 5.863
11760.0 2.57395 6.05(33) 8.92 5.816 5.862
11765.9 2.57524 5.80(33) 9.28 5.816 5.861
11771.8 2.57654 5.93(33) 9.06 5.816 5.859
11777.7 2.57782 5.98(33) 8.96 5.816 5.858
11783.5 2.57911 5.87(33) 9.10 5.816 5.858
11789.4 2.58040 5.43(32) 9.83 5.816 5.857
11795.3 2.58170 5.36(32) 9.93 5.816 5.856
11801.2 2.58298 6.01(34) 8.85 5.816 5.855
11807.1 2.58428 5.89(33) 9.00 5.816 5.855
11813.0 2.58557 5.73(33) 9.23 5.816 5.854
11818.9 2.58687 6.06(34) 8.71 5.816 5.854
11824.8 2.58816 5.99(34) 8.79 5.816 5.854
11830.8 2.58945 5.97(34) 8.80 5.816 5.853
11836.7 2.59076 5.83(33) 9.00 5.816 5.853
11842.6 2.59205 5.65(33) 9.27 5.816 5.854
11848.5 2.59334 5.79(33) 9.02 5.816 5.854
11854.4 2.59464 5.70(33) 9.15 5.816 5.855
11860.4 2.59595 5.57(33) 9.34 5.816 5.856
11866.3 2.59724 5.73(33) 9.05 5.816 5.858
11872.2 2.59854 5.43(32) 9.54 5.816 5.862
11878.2 2.59984 5.58(33) 9.26 5.816 5.845
11884.1 2.60114 5.81(34) 8.87 5.816 5.855
11890.0 2.60244 5.75(33) 8.96 5.816 5.871
11896.0 2.60375 6.10(34) 8.41 5.816 5.894
11901.9 2.60505 5.89(34) 8.70 5.816 5.926
11907.9 2.60635 5.41(33) 9.44 5.816 5.970
11913.8 2.60766 5.73(34) 8.90 5.816 6.028
11919.8 2.60897 5.76(34) 8.85 5.816 6.099
11925.8 2.61027 6.5(4) 7.78 5.82 6.18
11931.7 2.61158 6.6(4) 7.68 5.82 6.28
11937.7 2.61288 6.5(4) 7.77 5.82 6.37
11943.7 2.61419 6.19(35) 8.15 5.816 6.467
11949.6 2.61550 6.4(4) 7.87 5.82 6.55
11955.6 2.61681 6.6(4) 7.65 5.82 6.61
11961.6 2.61812 6.8(4) 7.38 5.82 6.64
11967.6 2.61943 6.3(4) 7.91 5.82 6.64
11973.6 2.62074 5.96(35) 8.38 5.816 6.605
11979.5 2.62205 6.5(4) 7.71 5.82 6.55
11985.5 2.62337 6.8(4) 7.28 5.82 6.48
11991.5 2.62468 6.2(4) 7.95 5.82 6.40
11997.5 2.62599 6.2(4) 8.04 5.82 6.31
12003.5 2.62730 6.02(35) 8.21 5.816 6.227
12009.5 2.62862 5.76(34) 8.55 5.816 6.151
12015.5 2.62994 5.71(34) 8.62 5.816 6.085
12021.5 2.63125 6.4(4) 7.70 5.82 6.03
12027.5 2.63257 6.3(4) 7.79 5.82 5.98
12033.6 2.63389 5.97(35) 8.18 5.816 5.947
12039.6 2.63520 5.80(34) 8.41 5.816 5.918
12045.6 2.63653 5.82(35) 8.35 5.816 5.895
12051.6 2.63785 5.83(35) 8.33 5.816 5.878
12057.6 2.63916 6.0(4) 8.05 5.82 5.87
12063.7 2.64048 6.0(4) 8.11 5.82 5.86
12069.7 2.64180 5.9(4) 8.12 5.82 5.85
12075.7 2.64313 5.87(35) 8.19 5.816 5.842
12081.8 2.64445 6.0(4) 8.06 5.82 5.84
12087.8 2.64578 5.79(35) 8.28 5.816 5.834
12093.8 2.64710 5.70(35) 8.39 5.816 5.831
12099.9 2.64843 5.28(33) 9.03 5.816 5.829
12105.9 2.64975 5.84(35) 8.14 5.816 5.827
12112.0 2.65108 5.61(34) 8.46 5.816 5.826
12118.1 2.65240 5.9(4) 8.00 5.82 5.83
12124.1 2.65373 5.9(4) 7.96 5.82 5.82
12130.2 2.65506 5.8(4) 8.06 5.82 5.82
12136.3 2.65639 5.8(4) 8.11 5.82 5.82
12142.3 2.65772 5.9(4) 7.96 5.82 5.82
12148.4 2.65904 5.71(35) 8.20 5.816 5.822
12154.5 2.66038 4.99(33) 9.35 5.816 5.821
12160.5 2.66171 5.42(34) 8.60 5.816 5.821
12166.6 2.66304 5.58(35) 8.34 5.816 5.821
12172.7 2.66437 5.71(35) 8.13 5.816 5.820
12178.8 2.66571 5.9(4) 7.89 5.82 5.82
12184.9 2.66704 5.9(4) 7.80 5.82 5.82
12191.0 2.66838 6.0(4) 7.64 5.82 5.82
12197.1 2.66971 5.9(4) 7.75 5.82 5.82
12203.2 2.67105 5.61(35) 8.18 5.816 5.819
12209.3 2.67238 5.9(4) 7.71 5.82 5.82
12215.4 2.67372 5.7(4) 8.02 5.82 5.82
12221.5 2.67506 5.6(4) 8.11 5.82 5.82
12227.6 2.67640 5.8(4) 7.83 5.82 5.82
12233.7 2.67774 5.9(4) 7.64 5.82 5.82
12239.8 2.67908 5.7(4) 7.92 5.82 5.82
12245.9 2.68042 5.45(35) 8.28 5.816 5.819
12252.1 2.68176 5.7(4) 7.95 5.82 5.82
12258.2 2.68310 5.9(4) 7.58 5.82 5.82
12264.3 2.68445 6.2(4) 7.27 5.82 5.82
12270.4 2.68579 6.3(4) 7.12 5.82 5.82
12276.6 2.68714 5.7(4) 7.80 5.82 5.82
12282.7 2.68848 5.7(4) 7.77 5.82 5.82
12288.9 2.68983 5.7(4) 7.85 5.82 5.82
12295.0 2.69117 5.7(4) 7.79 5.82 5.82
12301.2 2.69252 5.6(4) 7.92 5.82 5.82
12307.3 2.69387 5.5(4) 7.99 5.82 5.82
12313.5 2.69522 5.4(4) 8.09 5.82 5.82
12319.6 2.69657 5.6(4) 7.83 5.82 5.82
12325.8 2.69792 5.9(4) 7.45 5.82 5.82
12331.9 2.69926 5.4(4) 8.07 5.82 5.82
12338.1 2.70061 5.6(4) 7.82 5.82 5.82
12344.3 2.70197 6.1(4) 7.18 5.82 5.82
12350.4 2.70332 5.8(4) 7.48 5.82 5.82
12356.6 2.70467 5.5(4) 7.82 5.82 5.82
12362.8 2.70603 5.7(4) 7.57 5.82 5.82
12369.0 2.70738 5.8(4) 7.41 5.82 5.82
12375.2 2.70873 6.3(4) 6.87 5.82 5.82
12381.3 2.71009 5.6(4) 7.64 5.82 5.82
12387.5 2.71144 5.3(4) 8.08 5.82 5.82
12393.8 2.71281 6.4(4) 6.72 5.82 5.82
12399.9 2.71416 6.0(4) 7.11 5.82 5.82
12406.1 2.71552 5.7(4) 7.48 5.82 5.82
12412.3 2.71688 6.0(4) 7.12 5.82 5.82
12418.5 2.71824 5.8(4) 7.24 5.82 5.82
12424.8 2.71960 6.1(4) 6.96 5.82 5.82
12431.0 2.72096 5.7(4) 7.44 5.82 5.82
12437.2 2.72232 5.5(4) 7.65 5.82 5.82
12443.4 2.72369 5.8(4) 7.17 5.82 5.82
12449.6 2.72505 5.4(4) 7.81 5.82 5.82
12455.8 2.72641 5.2(4) 8.09 5.82 5.82
12462.1 2.72778 4.98(35) 8.34 5.815 5.819
12468.3 2.72914 5.5(4) 7.49 5.82 5.82
12474.5 2.73051 5.8(4) 7.12 5.82 5.82
12480.8 2.73188 5.8(4) 7.13 5.82 5.82
12487.0 2.73325 5.7(4) 7.23 5.82 5.82
12493.3 2.73461 5.6(4) 7.30 5.81 5.82
12499.5 2.73598 5.5(4) 7.45 5.81 5.82
12505.8 2.73735 5.6(4) 7.31 5.81 5.82
12512.0 2.73872 5.8(4) 6.99 5.81 5.83
12518.3 2.74009 5.7(4) 7.12 5.81 5.83
12524.5 2.74146 5.5(4) 7.42 5.81 5.83
12530.8 2.74283 5.6(4) 7.30 5.81 5.84
12537.1 2.74421 6.0(4) 6.72 5.81 5.85
12543.3 2.74558 6.4(4) 6.27 5.81 5.87
12549.6 2.74695 5.9(4) 6.84 5.81 5.89
12555.9 2.74833 5.4(4) 7.47 5.81 5.92
12562.2 2.74971 5.6(4) 7.12 5.81 5.96
12568.4 2.75108 5.6(4) 7.14 5.81 6.00
12574.7 2.75246 5.7(4) 7.05 5.81 6.05
12581.0 2.75384 5.7(4) 6.97 5.81 6.10
12587.3 2.75521 6.1(4) 6.49 5.81 6.15
12593.6 2.75660 6.3(4) 6.30 5.81 6.19
12599.9 2.75797 6.2(4) 6.39 5.81 6.23
12606.2 2.75935 6.6(4) 6.01 5.81 6.25
12612.5 2.76073 6.3(4) 6.25 5.81 6.25
12618.8 2.76211 6.3(4) 6.28 5.81 6.24
12625.1 2.76350 5.9(4) 6.69 5.81 6.21
12631.4 2.76488 5.9(4) 6.64 5.81 6.17
12637.7 2.76626 5.9(4) 6.60 5.81 6.13
12644.0 2.76765 6.3(4) 6.14 5.81 6.08
12650.4 2.76904 6.3(4) 6.20 5.81 6.04
12656.7 2.77042 6.0(4) 6.46 5.81 6.00
12663.0 2.77181 6.3(4) 6.11 5.81 5.96
12669.3 2.77319 6.3(4) 6.11 5.81 5.93
12675.7 2.77458 5.9(4) 6.50 5.81 5.91
12682.0 2.77597 6.3(4) 6.11 5.81 5.89
12688.4 2.77736 6.5(4) 5.91 5.81 5.87
12694.7 2.77875 5.8(4) 6.60 5.81 5.86
12701.1 2.78014 5.5(4) 6.97 5.81 5.85
12707.4 2.78153 5.6(4) 6.84 5.81 5.84
12713.8 2.78292 5.6(4) 6.77 5.81 5.83
12720.1 2.78432 5.7(4) 6.64 5.81 5.83
12726.5 2.78571 5.9(4) 6.47 5.81 5.83
12732.8 2.78711 5.6(4) 6.73 5.81 5.82
12739.2 2.78850 5.5(4) 6.89 5.81 5.82
12745.6 2.78989 5.7(4) 6.59 5.81 5.82
12751.9 2.79129 5.8(4) 6.46 5.81 5.82
12758.3 2.79269 5.9(4) 6.37 5.81 5.82
12764.7 2.79409 5.6(4) 6.73 5.81 5.82
12771.1 2.79549 5.7(4) 6.58 5.81 5.82
12777.5 2.79689 5.7(4) 6.54 5.81 5.82
12783.9 2.79829 5.5(4) 6.70 5.81 5.82
12790.3 2.79969 5.9(4) 6.26 5.81 5.82
12796.7 2.80109 5.8(4) 6.36 5.81 5.82
12803.0 2.80249 5.7(4) 6.53 5.81 5.82
12809.4 2.80389 6.0(4) 6.10 5.81 5.82
12815.8 2.80529 6.5(4) 5.71 5.81 5.82
12822.3 2.80670 6.0(4) 6.08 5.81 5.82
12828.7 2.80810 5.8(4) 6.33 5.81 5.82
12835.1 2.80951 5.8(4) 6.35 5.81 5.82
12841.5 2.81092 6.1(4) 6.00 5.81 5.82
12847.9 2.81233 5.6(4) 6.53 5.81 5.82
12854.3 2.81373 5.5(4) 6.58 5.81 5.82
12860.8 2.81514 5.1(4) 7.10 5.81 5.82
12867.2 2.81655 5.5(4) 6.53 5.81 5.82
12873.6 2.81796 6.6(4) 5.47 5.81 5.82
12880.1 2.81937 5.9(4) 6.15 5.81 5.82
12886.5 2.82078 5.7(4) 6.30 5.81 5.82
12893.0 2.82219 6.1(4) 5.90 5.81 5.82
12899.4 2.82360 6.2(4) 5.83 5.81 5.82
12905.8 2.82501 6.2(4) 5.79 5.81 5.81
12912.3 2.82643 5.9(4) 6.09 5.81 5.81
12918.8 2.82784 6.0(4) 5.97 5.81 5.81
12925.2 2.82926 5.5(4) 6.46 5.81 5.81
12931.7 2.83068 5.4(4) 6.56 5.81 5.81
12938.2 2.83210 5.8(4) 6.09 5.81 5.81
12944.6 2.83351 6.0(4) 5.94 5.81 5.81
12951.1 2.83493 5.8(4) 6.06 5.81 5.81
12957.6 2.83635 6.4(4) 5.55 5.81 5.81
12964.1 2.83777 6.6(4) 5.36 5.81 5.81
12970.5 2.83919 6.2(4) 5.69 5.81 5.81
12977.0 2.84061 6.2(4) 5.66 5.81 5.81
12983.5 2.84203 5.7(4) 6.19 5.81 5.81
12990.0 2.84346 5.6(4) 6.23 5.81 5.81
12996.5 2.84488 5.7(4) 6.13 5.81 5.81
13003.0 2.84630 5.7(4) 6.12 5.81 5.81
13009.5 2.84773 5.9(4) 5.89 5.81 5.81
13016.0 2.84915 6.2(4) 5.63 5.81 5.81
13022.5 2.85058 5.2(4) 6.64 5.81 5.81
13029.0 2.85200 5.3(4) 6.55 5.81 5.81
13035.5 2.85343 6.0(4) 5.80 5.81 5.81
13042.0 2.85486 6.0(4) 5.73 5.81 5.81
13048.6 2.85629 6.1(4) 5.63 5.81 5.81
13055.1 2.85772 5.7(4) 6.02 5.81 5.81
13061.6 2.85915 5.9(4) 5.83 5.81 5.81
13068.2 2.86058 5.8(4) 5.91 5.81 5.81
13074.7 2.86201 6.1(4) 5.63 5.81 5.81
13081.2 2.86344 6.4(4) 5.38 5.81 5.81
13087.8 2.86488 6.0(4) 5.69 5.81 5.81
13094.3 2.86631 5.9(4) 5.78 5.81 5.81
13100.8 2.86774 5.9(4) 5.78 5.81 5.81
13107.4 2.86918 6.4(4) 5.31 5.81 5.81
13114.0 2.87062 6.1(4) 5.62 5.81 5.81
13120.5 2.87205 5.8(4) 5.90 5.81 5.81
13127.1 2.87349 6.0(4) 5.70 5.81 5.81
13133.6 2.87493 5.8(4) 5.84 5.81 5.81
13140.2 2.87637 5.6(4) 5.99 5.81 5.81
13146.8 2.87781 5.6(4) 6.00 5.81 5.81
13153.3 2.87925 5.7(4) 5.91 5.81 5.81
13159.9 2.88069 5.7(4) 5.89 5.81 5.81
13166.5 2.88213 5.8(4) 5.85 5.81 5.81
13173.1 2.88358 5.3(4) 6.32 5.81 5.81
13179.7 2.88502 5.3(4) 6.36 5.81 5.81
13186.3 2.88646 5.7(4) 5.83 5.81 5.82
13192.8 2.88790 6.0(4) 5.61 5.81 5.82
13199.5 2.88936 5.6(4) 5.94 5.81 5.82
13206.1 2.89080 5.6(4) 5.92 5.81 5.82
13212.7 2.89225 5.9(4) 5.63 5.81 5.82
13219.3 2.89369 5.9(4) 5.68 5.81 5.82
13225.9 2.89514 6.0(4) 5.55 5.81 5.82
13232.5 2.89659 6.3(4) 5.29 5.81 5.82
13239.1 2.89804 5.9(4) 5.60 5.81 5.82
13245.7 2.89949 6.2(4) 5.35 5.81 5.82
13252.3 2.90094 5.9(4) 5.59 5.81 5.82
13259.0 2.90239 5.7(4) 5.76 5.81 5.82
13265.6 2.90385 6.0(4) 5.53 5.81 5.82
13272.2 2.90530 5.8(4) 5.71 5.81 5.82
13278.9 2.90676 5.8(4) 5.63 5.81 5.83
13285.5 2.90821 5.6(4) 5.82 5.81 5.84
13292.2 2.90967 5.7(4) 5.73 5.81 5.85
13298.8 2.91113 5.9(4) 5.51 5.81 5.86
13305.4 2.91258 5.5(4) 5.89 5.81 5.88
13312.1 2.91404 6.5(4) 5.03 5.81 5.90
13318.8 2.91549 6.3(4) 5.19 5.81 5.94
13325.4 2.91695 6.4(4) 5.10 5.81 5.98
13332.1 2.91841 6.1(4) 5.29 5.81 6.02
13338.8 2.91988 6.2(4) 5.19 5.81 6.07
13345.4 2.92134 6.7(5) 4.81 5.81 6.12
13352.1 2.92280 6.6(5) 4.90 5.81 6.17
13358.8 2.92426 6.9(5) 4.71 5.81 6.21
13365.4 2.92573 7.2(5) 4.46 5.81 6.24
13372.1 2.92719 6.8(5) 4.70 5.81 6.26
13378.8 2.92866 7.1(5) 4.52 5.81 6.25
13385.5 2.93012 7.0(5) 4.61 5.81 6.24
13392.2 2.93159 7.1(5) 4.49 5.81 6.20
13398.9 2.93305 7.4(5) 4.31 5.81 6.16
13405.6 2.93453 6.9(5) 4.62 5.81 6.12
13412.3 2.93599 7.4(5) 4.30 5.81 6.07
13419.0 2.93746 6.9(5) 4.58 5.81 6.03
13425.7 2.93894 6.7(5) 4.75 5.81 5.99
13432.4 2.94040 6.5(5) 4.87 5.81 5.95
13439.1 2.94187 6.1(4) 5.22 5.81 5.92
13445.8 2.94335 6.1(4) 5.18 5.81 5.90
13452.6 2.94482 5.8(4) 5.43 5.81 5.88
13459.3 2.94630 5.8(4) 5.43 5.81 5.86
13466.0 2.94777 5.7(4) 5.52 5.81 5.85
13472.8 2.94925 5.7(4) 5.47 5.81 5.84
13479.5 2.95072 5.8(4) 5.41 5.81 5.83
13486.3 2.95220 5.5(4) 5.64 5.81 5.83
13493.0 2.95368 5.5(4) 5.69 5.81 5.83
13499.7 2.95515 5.7(4) 5.45 5.81 5.82
13506.5 2.95663 5.9(4) 5.27 5.81 5.82
13513.3 2.95812 6.1(4) 5.10 5.81 5.82
13520.0 2.95960 5.7(4) 5.45 5.81 5.82
13526.8 2.96108 5.6(4) 5.57 5.81 5.82
13533.5 2.96256 5.1(4) 6.03 5.81 5.82
13540.3 2.96404 5.5(4) 5.59 5.81 5.82
13547.1 2.96553 6.1(4) 5.10 5.81 5.82
13553.8 2.96701 6.0(4) 5.15 5.81 5.81
13560.6 2.96849 5.6(4) 5.48 5.81 5.81
13567.4 2.96998 5.7(4) 5.41 5.81 5.81
13574.2 2.97146 5.9(4) 5.20 5.81 5.81
13581.0 2.97296 6.5(5) 4.69 5.81 5.81
13587.8 2.97444 6.2(4) 4.94 5.81 5.81
13594.5 2.97593 6.0(4) 5.06 5.81 5.81
13601.3 2.97742 6.1(4) 5.04 5.81 5.81
13608.1 2.97891 5.8(4) 5.22 5.81 5.81
13614.9 2.98040 5.8(4) 5.25 5.81 5.81
13621.8 2.98189 5.8(4) 5.19 5.81 5.81
13628.6 2.98339 5.8(4) 5.20 5.81 5.81
13635.4 2.98488 6.0(4) 5.06 5.81 5.81
13642.2 2.98637 6.3(5) 4.82 5.81 5.81
13649.0 2.98787 6.4(5) 4.72 5.81 5.81
13655.8 2.98937 6.2(5) 4.82 5.81 5.81
13662.7 2.99086 5.9(4) 5.10 5.81 5.81
13669.5 2.99236 5.5(4) 5.45 5.81 5.81
13676.3 2.99386 6.3(5) 4.78 5.81 5.81
13683.2 2.99535 6.1(5) 4.92 5.81 5.81
13690.0 2.99685 6.0(4) 4.95 5.81 5.81
13696.8 2.99835 6.1(5) 4.85 5.81 5.81
13703.7 2.99986 6.1(5) 4.88 5.81 5.81
13710.6 3.00136 5.9(4) 5.06 5.81 5.81
13717.4 3.00286 6.3(5) 4.69 5.81 5.81
13724.3 3.00436 5.8(4) 5.06 5.81 5.81
13731.1 3.00586 5.5(4) 5.40 5.81 5.81
13738.0 3.00737 5.4(4) 5.41 5.81 5.81
13744.9 3.00888 5.5(4) 5.38 5.81 5.81
13751.8 3.01038 5.5(4) 5.34 5.81 5.81
13758.6 3.01189 5.7(4) 5.12 5.81 5.81
13765.5 3.01340 6.3(5) 4.63 5.81 5.81
13772.4 3.01490 5.6(4) 5.19 5.81 5.81
13779.3 3.01641 5.5(4) 5.29 5.81 5.81
13786.2 3.01792 6.0(5) 4.89 5.81 5.81
13793.0 3.01943 6.5(5) 4.46 5.81 5.81
13799.9 3.02094 6.5(5) 4.49 5.81 5.81
13806.8 3.02246 6.0(5) 4.81 5.81 5.81
13813.8 3.02397 6.0(5) 4.84 5.81 5.81
13820.7 3.02548 5.7(4) 5.03 5.81 5.81
13827.6 3.02700 5.7(4) 5.04 5.81 5.81
13834.5 3.02851 5.4(4) 5.28 5.81 5.81
13841.4 3.03003 5.7(4) 5.04 5.81 5.81
13848.3 3.03155 6.0(5) 4.81 5.81 5.81
13855.3 3.03307 5.8(5) 4.90 5.81 5.81
13862.2 3.03458 6.3(5) 4.56 5.81 5.81
13869.1 3.03610 6.1(5) 4.71 5.81 5.81
13876.0 3.03762 5.7(4) 4.98 5.81 5.81
13883.0 3.03914 5.8(5) 4.90 5.81 5.81
13889.9 3.04066 5.7(4) 5.01 5.81 5.81
13896.8 3.04218 6.2(5) 4.60 5.81 5.81
13903.8 3.04371 5.9(5) 4.81 5.81 5.81
13910.8 3.04523 6.1(5) 4.62 5.81 5.81
13917.7 3.04676 6.3(5) 4.46 5.81 5.81
13924.7 3.04828 6.5(5) 4.33 5.81 5.81
13931.6 3.04980 5.7(5) 4.92 5.81 5.81
13938.6 3.05133 5.8(5) 4.84 5.81 5.81
13945.6 3.05286 6.1(5) 4.61 5.81 5.81
13952.5 3.05438 5.9(5) 4.75 5.81 5.81
13959.5 3.05592 5.8(5) 4.81 5.81 5.81
13966.5 3.05745 5.8(5) 4.83 5.81 5.81
13973.5 3.05897 5.9(5) 4.67 5.81 5.81
13980.5 3.06051 5.8(5) 4.80 5.81 5.81
13987.5 3.06204 5.4(4) 5.10 5.81 5.81
13994.4 3.06357 5.5(4) 5.02 5.81 5.81
14001.4 3.06510 5.9(5) 4.70 5.81 5.81
14008.4 3.06664 6.0(5) 4.59 5.81 5.81
14015.4 3.06817 6.3(5) 4.35 5.81 5.81
14022.5 3.06971 6.3(5) 4.33 5.81 5.81
14029.5 3.07125 6.4(5) 4.28 5.81 5.81
14036.5 3.07279 6.1(5) 4.50 5.81 5.81
14043.5 3.07432 6.1(5) 4.49 5.81 5.81
14050.5 3.07586 5.5(5) 4.94 5.81 5.81
14057.6 3.07740 5.6(5) 4.83 5.81 5.81
14064.6 3.07894 5.9(5) 4.60 5.81 5.81
14071.6 3.08049 5.4(4) 4.99 5.81 5.81
14078.7 3.08203 5.2(4) 5.21 5.81 5.81
14085.7 3.08357 5.9(5) 4.56 5.81 5.81
14092.7 3.08511 6.3(5) 4.25 5.81 5.81
14099.8 3.08666 6.0(5) 4.50 5.81 5.81
14106.8 3.08820 5.6(5) 4.77 5.81 5.81
14113.9 3.08974 5.6(5) 4.76 5.81 5.81
14120.9 3.09129 5.5(5) 4.81 5.81 5.81
14128.0 3.09284 5.6(5) 4.74 5.81 5.81
14135.1 3.09439 6.3(5) 4.25 5.81 5.81
14142.1 3.09594 5.7(5) 4.61 5.81 5.81
14149.2 3.09748 5.4(5) 4.91 5.81 5.81
14156.3 3.09904 5.5(5) 4.82 5.81 5.81
14163.3 3.10059 5.3(4) 4.96 5.81 5.81
14170.4 3.10214 5.7(5) 4.65 5.81 5.81
14177.5 3.10370 5.9(5) 4.47 5.81 5.81
14184.6 3.10524 6.2(5) 4.21 5.81 5.81
14191.7 3.10680 6.1(5) 4.28 5.81 5.81
14198.8 3.10836 5.7(5) 4.60 5.81 5.81
14205.9 3.10991 5.3(5) 4.92 5.81 5.81
14213.0 3.11147 5.7(5) 4.53 5.81 5.81
14220.1 3.11302 6.3(5) 4.14 5.81 5.81
14227.2 3.11459 6.0(5) 4.34 5.81 5.81
14234.3 3.11615 5.6(5) 4.63 5.81 5.81
14241.4 3.11770 5.5(5) 4.72 5.81 5.81
14248.6 3.11926 5.9(5) 4.38 5.81 5.81
14255.7 3.12082 6.4(5) 4.00 5.81 5.81
14262.8 3.12239 5.9(5) 4.32 5.81 5.81
14269.9 3.12395 5.5(5) 4.65 5.81 5.81
14277.1 3.12552 5.4(5) 4.73 5.81 5.81
14284.2 3.12708 5.9(5) 4.34 5.81 5.81
14291.4 3.12865 5.8(5) 4.37 5.81 5.81
14298.5 3.13021 5.7(5) 4.45 5.81 5.81
14305.7 3.13178 5.6(5) 4.51 5.81 5.81
14312.8 3.13334 5.9(5) 4.28 5.81 5.81
14320.0 3.13491 6.0(5) 4.18 5.81 5.81
14327.1 3.13648 6.2(5) 4.09 5.81 5.81
14334.3 3.13805 6.2(5) 4.06 5.81 5.81
14341.5 3.13962 6.3(5) 4.01 5.81 5.81
14348.6 3.14119 6.1(5) 4.10 5.81 5.81
14355.8 3.14277 5.4(5) 4.65 5.81 5.81
14363.0 3.14434 5.0(4) 4.96 5.81 5.81
14370.2 3.14591 6.1(5) 4.06 5.81 5.81
14377.3 3.14749 5.8(5) 4.27 5.81 5.81
14384.5 3.14906 5.6(5) 4.40 5.81 5.81
14391.7 3.15064 5.6(5) 4.43 5.81 5.81
14398.9 3.15222 5.2(5) 4.71 5.81 5.81
14406.1 3.15380 5.5(5) 4.46 5.81 5.81
14413.3 3.15538 5.7(5) 4.32 5.81 5.81
14420.5 3.15695 5.5(5) 4.46 5.81 5.81
14427.8 3.15853 5.9(5) 4.16 5.81 5.81
14435.0 3.16012 5.9(5) 4.13 5.81 5.81
14442.2 3.16170 5.8(5) 4.18 5.81 5.81
14449.4 3.16328 5.7(5) 4.27 5.81 5.81
14456.6 3.16486 6.1(5) 3.99 5.81 5.81
14463.8 3.16645 5.7(5) 4.25 5.81 5.81
14471.1 3.16803 5.5(5) 4.37 5.81 5.81
14478.3 3.16962 6.1(5) 3.93 5.81 5.81
14485.6 3.17121 6.1(5) 3.95 5.81 5.81
14492.8 3.17279 5.8(5) 4.17 5.81 5.81
14500.1 3.17438 5.2(5) 4.61 5.81 5.81
14507.3 3.17597 5.7(5) 4.18 5.82 5.82
14514.6 3.17756 5.8(5) 4.13 5.82 5.82
14521.8 3.17915 6.3(5) 3.77 5.82 5.82
14529.1 3.18074 6.3(5) 3.79 5.82 5.82
14536.3 3.18234 6.3(5) 3.78 5.82 5.82
14543.6 3.18392 6.8(5) 3.465 5.82 5.82
14550.9 3.18552 6.3(5) 3.73 5.82 5.82
14558.2 3.18712 6.1(5) 3.88 5.82 5.82
14565.4 3.18871 6.3(5) 3.72 5.82 5.82
14572.7 3.19031 6.1(5) 3.88 5.82 5.82
14580.0 3.19190 6.4(5) 3.70 5.82 5.82
14587.3 3.19350 6.4(5) 3.64 5.82 5.82
14594.6 3.19510 6.1(5) 3.84 5.82 5.82
14601.9 3.19670 6.5(5) 3.61 5.82 5.82
14609.2 3.19830 6.5(5) 3.61 5.82 5.82
14616.5 3.19990 6.5(5) 3.60 5.82 5.82
14623.8 3.20150 6.0(5) 3.87 5.82 5.82
14631.1 3.20310 6.0(5) 3.89 5.82 5.82
14638.4 3.20470 5.9(5) 3.90 5.82 5.82
14645.8 3.20631 5.3(5) 4.36 5.82 5.82
14653.1 3.20792 5.3(5) 4.31 5.82 5.82
14660.4 3.20952 5.5(5) 4.20 5.82 5.82
14667.7 3.21113 5.7(5) 4.01 5.82 5.82
14675.1 3.21274 5.6(5) 4.10 5.82 5.82
14682.4 3.21435 5.7(5) 3.97 5.82 5.82
14689.7 3.21595 5.4(5) 4.24 5.82 5.82
14697.1 3.21756 5.3(5) 4.25 5.82 5.82
14704.4 3.21918 5.6(5) 4.02 5.82 5.82
14711.8 3.22079 5.6(5) 4.04 5.82 5.82
14719.1 3.22240 5.6(5) 4.07 5.82 5.82
14726.5 3.22401 5.8(5) 3.86 5.82 5.82
14733.8 3.22562 5.7(5) 3.97 5.82 5.82
14741.2 3.22724 6.0(5) 3.73 5.82 5.82
14748.6 3.22886 5.7(5) 3.92 5.82 5.82
14756.0 3.23047 6.2(5) 3.64 5.82 5.82
14763.3 3.23209 6.1(5) 3.69 5.82 5.82
14770.7 3.23371 5.8(5) 3.87 5.82 5.82
14778.1 3.23533 6.6(5) 3.399 5.82 5.82
14785.5 3.23694 5.8(5) 3.80 5.82 5.82
14792.9 3.23857 5.8(5) 3.81 5.82 5.82
14800.3 3.24018 5.7(5) 3.85 5.82 5.82
14807.7 3.24181 6.0(5) 3.68 5.82 5.82
14815.1 3.24343 6.2(5) 3.57 5.82 5.82
14822.5 3.24505 5.8(5) 3.81 5.82 5.82
14829.9 3.24668 5.7(5) 3.82 5.82 5.82
14837.3 3.24831 5.5(5) 4.01 5.82 5.82
14844.8 3.24993 5.1(5) 4.28 5.82 5.82
14852.2 3.25155 4.8(5) 4.53 5.82 5.82
14859.6 3.25318 5.2(5) 4.17 5.82 5.82
14867.0 3.25481 5.8(5) 3.78 5.82 5.82
14874.5 3.25645 5.6(5) 3.85 5.82 5.82
14881.9 3.25808 5.1(5) 4.28 5.82 5.82
14889.3 3.25971 5.3(5) 4.06 5.82 5.82
14896.8 3.26134 6.0(5) 3.59 5.82 5.82
14904.2 3.26297 6.3(5) 3.420 5.82 5.82
14911.7 3.26460 6.2(5) 3.498 5.82 5.82
14919.1 3.26623 5.6(5) 3.84 5.82 5.82
14926.6 3.26787 6.1(5) 3.51 5.82 5.82
14934.1 3.26951 6.3(5) 3.403 5.82 5.82
14941.5 3.27114 6.4(5) 3.360 5.82 5.82
14949.0 3.27278 5.9(5) 3.60 5.82 5.82
14956.5 3.27442 5.5(5) 3.85 5.82 5.82
14963.9 3.27606 5.8(5) 3.70 5.82 5.82
14971.4 3.27770 6.5(6) 3.273 5.82 5.82
14978.9 3.27934 6.2(5) 3.418 5.82 5.82
14986.4 3.28098 5.9(5) 3.60 5.82 5.82
14993.9 3.28262 5.8(5) 3.62 5.82 5.82
15001.4 3.28427 5.9(5) 3.59 5.82 5.82
15008.9 3.28591 6.0(5) 3.52 5.82 5.82
15016.4 3.28756 5.7(5) 3.68 5.83 5.83
15023.9 3.28920 5.7(5) 3.66 5.83 5.83
15031.4 3.29085 6.2(5) 3.357 5.83 5.83
15038.9 3.29249 6.3(6) 3.301 5.83 5.83
15046.5 3.29415 6.0(5) 3.480 5.83 5.83
15054.0 3.29579 5.7(5) 3.67 5.83 5.83
15061.5 3.29744 5.6(5) 3.69 5.83 5.83
15069.0 3.29909 5.8(5) 3.59 5.83 5.83
15076.6 3.30074 6.0(5) 3.461 5.83 5.83
15084.1 3.30240 6.0(5) 3.447 5.83 5.83
15091.7 3.30405 6.8(6) 3.027 5.83 5.83
15099.2 3.30570 6.4(6) 3.229 5.83 5.83
15106.8 3.30736 6.2(5) 3.338 5.83 5.83
15114.3 3.30902 5.5(5) 3.74 5.83 5.83
15121.9 3.31067 5.7(5) 3.57 5.83 5.83
15129.4 3.31233 5.8(5) 3.56 5.83 5.83
15137.0 3.31399 6.0(5) 3.400 5.83 5.83
15144.6 3.31565 6.0(5) 3.424 5.83 5.83
15152.1 3.31730 5.9(5) 3.477 5.83 5.83
15159.7 3.31897 6.3(6) 3.208 5.83 5.83
15167.3 3.32063 6.5(6) 3.129 5.83 5.83
15174.9 3.32229 5.7(5) 3.58 5.83 5.83
15182.5 3.32395 5.9(5) 3.459 5.83 5.83
15190.0 3.32561 6.0(5) 3.348 5.83 5.83
15197.7 3.32728 5.9(5) 3.414 5.83 5.83
15205.3 3.32895 5.6(5) 3.60 5.83 5.83
15212.8 3.33061 5.9(5) 3.397 5.83 5.83
15220.4 3.33228 6.1(6) 3.302 5.83 5.83
15228.1 3.33395 6.2(6) 3.262 5.83 5.83
15235.7 3.33562 6.3(6) 3.181 5.83 5.83
15243.3 3.33728 5.7(5) 3.487 5.83 5.83
15250.9 3.33896 5.6(5) 3.54 5.83 5.83
15258.5 3.34063 6.0(6) 3.304 5.83 5.83
15266.2 3.34230 6.1(6) 3.245 5.83 5.83
15273.8 3.34398 6.0(5) 3.331 5.83 5.83
15281.4 3.34565 5.4(5) 3.70 5.83 5.83
15289.1 3.34733 5.2(5) 3.81 5.83 5.83
15296.7 3.34900 5.7(5) 3.477 5.83 5.83
15304.4 3.35068 6.4(6) 3.097 5.83 5.83
15312.0 3.35235 5.6(5) 3.54 5.83 5.84
15319.7 3.35403 5.1(5) 3.85 5.84 5.84
15327.3 3.35571 5.6(5) 3.54 5.84 5.84
15335.0 3.35739 5.5(5) 3.54 5.84 5.84
15342.7 3.35907 5.3(5) 3.68 5.84 5.84
15350.3 3.36075 5.3(5) 3.72 5.84 5.84
15358.0 3.36244 5.5(5) 3.56 5.84 5.84
15365.7 3.36412 6.4(6) 3.042 5.84 5.84
15373.4 3.36580 6.3(6) 3.071 5.84 5.84
15381.1 3.36749 6.1(6) 3.182 5.84 5.84
15388.8 3.36917 6.0(6) 3.235 5.84 5.84
15396.4 3.37086 6.1(6) 3.165 5.84 5.85
15404.2 3.37255 5.9(6) 3.259 5.84 5.85
15411.8 3.37423 5.6(5) 3.434 5.84 5.85
15419.6 3.37592 5.7(5) 3.411 5.84 5.85
15427.3 3.37762 6.4(6) 3.027 5.84 5.85
15435.0 3.37930 5.8(5) 3.308 5.84 5.86
15442.7 3.38099 6.4(6) 3.004 5.84 5.86
15450.4 3.38269 6.1(6) 3.126 5.84 5.86
15458.2 3.38438 5.8(6) 3.294 5.84 5.85
15465.9 3.38608 5.4(5) 3.53 5.84 5.85
15473.6 3.38777 5.5(5) 3.442 5.84 5.85
15481.3 3.38947 5.7(5) 3.348 5.84 5.85
15489.1 3.39117 5.8(6) 3.274 5.84 5.85
15496.8 3.39286 5.5(5) 3.462 5.84 5.85
15504.6 3.39456 5.5(5) 3.421 5.84 5.85
15512.3 3.39626 6.1(6) 3.080 5.84 5.85
15520.1 3.39796 5.9(6) 3.207 5.84 5.85
15527.8 3.39966 5.3(5) 3.54 5.84 5.85
15535.6 3.40136 6.1(6) 3.084 5.84 5.85
15543.4 3.40306 6.5(6) 2.913 5.84 5.85
15551.2 3.40477 6.4(6) 2.927 5.85 5.85
15558.9 3.40648 6.5(6) 2.878 5.85 5.85
15566.7 3.40818 5.7(6) 3.270 5.85 5.85
15574.5 3.40989 5.8(6) 3.224 5.85 5.85
15582.3 3.41159 6.0(6) 3.129 5.85 5.85
15590.1 3.41330 5.2(5) 3.61 5.85 5.85
15597.9 3.41501 5.3(5) 3.496 5.85 5.85
15605.7 3.41672 5.4(5) 3.410 5.85 5.85
15613.5 3.41843 6.0(6) 3.092 5.85 5.85
15621.3 3.42014 5.8(6) 3.184 5.85 5.85
15629.1 3.42185 5.7(6) 3.204 5.85 5.85
15636.9 3.42357 6.1(6) 2.995 5.85 5.85
15644.7 3.42528 6.4(6) 2.856 5.85 5.85
15652.5 3.42699 6.6(6) 2.781 5.85 5.85
15660.4 3.42871 6.2(6) 2.930 5.85 5.85
15668.2 3.43042 5.6(6) 3.242 5.85 5.85
15676.0 3.43214 6.1(6) 3.006 5.85 5.85
15683.9 3.43386 6.1(6) 2.973 5.85 5.85
15691.7 3.43558 6.4(6) 2.856 5.85 5.85
15699.6 3.43730 6.3(6) 2.868 5.85 5.85
15707.4 3.43902 6.4(6) 2.840 5.85 5.85
15715.3 3.44074 6.3(6) 2.860 5.85 5.85
15723.1 3.44247 6.2(6) 2.922 5.85 5.85
15731.0 3.44419 5.9(6) 3.035 5.85 5.85
15738.8 3.44591 6.4(6) 2.805 5.85 5.86
15746.7 3.44764 6.2(6) 2.898 5.86 5.86
15754.6 3.44937 5.5(6) 3.228 5.86 5.86
15762.5 3.45109 5.3(5) 3.352 5.86 5.86
15770.3 3.45282 5.7(6) 3.100 5.86 5.86
15778.2 3.45454 5.8(6) 3.070 5.86 5.86
15786.1 3.45628 5.8(6) 3.044 5.86 5.86
15794.0 3.45800 5.8(6) 3.046 5.86 5.86
15801.9 3.45974 6.1(6) 2.916 5.86 5.86
15809.8 3.46147 5.7(6) 3.097 5.86 5.86
15817.7 3.46320 5.6(6) 3.130 5.86 5.86
15825.6 3.46494 5.4(6) 3.263 5.86 5.86
15833.5 3.46667 6.1(6) 2.871 5.86 5.86
15841.4 3.46840 6.3(6) 2.765 5.86 5.86
15849.4 3.47014 5.2(5) 3.343 5.86 5.86
15857.3 3.47188 5.6(6) 3.123 5.86 5.86
15865.2 3.47362 5.9(6) 2.945 5.86 5.86
15873.2 3.47536 5.8(6) 2.982 5.86 5.86
15881.1 3.47710 6.0(6) 2.868 5.86 5.86
15889.0 3.47884 6.2(6) 2.782 5.86 5.86
15897.0 3.48058 5.9(6) 2.919 5.86 5.86
15904.9 3.48232 6.4(6) 2.703 5.87 5.87
15912.9 3.48406 6.1(6) 2.804 5.87 5.87
15920.8 3.48581 6.4(6) 2.677 5.87 5.87
15928.8 3.48755 6.6(6) 2.578 5.87 5.87
15936.8 3.48930 5.8(6) 2.928 5.87 5.87
15944.7 3.49104 5.1(5) 3.335 5.87 5.87
15952.7 3.49279 5.6(6) 3.014 5.87 5.87
15960.7 3.49454 5.6(6) 3.035 5.87 5.87
15968.7 3.49629 5.6(6) 3.010 5.87 5.87
15976.7 3.49804 5.2(6) 3.209 5.87 5.87
15984.6 3.49979 5.7(6) 2.928 5.87 5.87
15992.6 3.50154 6.8(6) 2.485 5.87 5.87
16000.6 3.50330 6.6(6) 2.547 5.87 5.87
16008.6 3.50505 6.5(6) 2.585 5.87 5.87
16016.6 3.50681 6.1(6) 2.734 5.87 5.87
16024.6 3.5086 5.7(6) 2.893 5.87 5.87
16032.7 3.5103 6.3(6) 2.640 5.87 5.87
16040.7 3.5121 6.8(6) 2.441 5.87 5.87
16048.7 3.5138 6.3(6) 2.623 5.88 5.88
16056.7 3.5156 6.2(6) 2.669 5.88 5.88
16064.7 3.5173 5.5(6) 2.965 5.88 5.88
16072.8 3.5191 5.2(6) 3.152 5.88 5.88
16080.8 3.5209 5.3(6) 3.098 5.88 5.88
16088.8 3.5226 5.4(6) 3.029 5.88 5.88
16096.9 3.5244 5.9(6) 2.763 5.88 5.88
16104.9 3.5262 6.2(6) 2.605 5.88 5.88
16113.0 3.5279 6.3(6) 2.572 5.88 5.88
16121.0 3.5297 6.1(6) 2.670 5.88 5.88
16129.1 3.5315 5.3(6) 3.038 5.88 5.88
16137.2 3.5332 5.8(6) 2.787 5.88 5.88
16145.3 3.5350 6.1(6) 2.629 5.88 5.88
16153.3 3.5368 5.9(6) 2.705 5.88 5.88
16161.4 3.5385 6.2(6) 2.585 5.88 5.88
16169.5 3.5403 5.6(6) 2.827 5.88 5.88
16177.6 3.5421 5.9(6) 2.677 5.88 5.88
16185.7 3.5439 5.4(6) 2.961 5.89 5.89
16193.7 3.5456 5.8(6) 2.746 5.89 5.89
16201.8 3.5474 6.4(6) 2.474 5.89 5.89
16209.9 3.5492 6.1(6) 2.590 5.89 5.89
16218.0 3.5510 5.7(6) 2.764 5.89 5.89
16226.2 3.5527 5.8(6) 2.707 5.89 5.89
16234.3 3.5545 6.5(6) 2.412 5.89 5.89
16242.4 3.5563 6.3(6) 2.483 5.89 5.89
16250.5 3.5581 5.6(6) 2.759 5.89 5.89
16258.6 3.5599 5.5(6) 2.815 5.89 5.89
16266.8 3.5616 5.6(6) 2.791 5.89 5.89
16274.9 3.5634 5.5(6) 2.834 5.89 5.89
16283.0 3.5652 5.9(6) 2.594 5.89 5.89
16291.2 3.5670 6.1(6) 2.530 5.89 5.89
16299.3 3.5688 5.6(6) 2.747 5.90 5.90
16307.5 3.5706 5.4(6) 2.845 5.90 5.90
16315.6 3.5724 5.3(6) 2.878 5.90 5.90
16323.8 3.5741 5.6(6) 2.741 5.90 5.90
16331.9 3.5759 5.6(6) 2.724 5.90 5.90
16340.1 3.5777 5.2(6) 2.917 5.90 5.90
16348.3 3.5795 5.5(6) 2.729 5.90 5.90
16356.4 3.5813 5.8(6) 2.624 5.90 5.90
16364.6 3.5831 5.9(6) 2.545 5.90 5.90
16372.8 3.5849 6.2(6) 2.435 5.90 5.90
16381.0 3.5867 6.2(6) 2.438 5.90 5.90
16389.2 3.5885 6.0(6) 2.496 5.90 5.90
16397.4 3.5903 6.0(6) 2.477 5.90 5.90
16405.6 3.5921 6.2(6) 2.402 5.90 5.91
16413.8 3.5939 6.3(7) 2.365 5.91 5.91
16422.0 3.5957 6.3(7) 2.349 5.91 5.91
16430.2 3.5975 6.4(7) 2.325 5.91 5.91
16438.4 3.5993 6.3(7) 2.335 5.91 5.91
16446.6 3.6011 6.5(7) 2.272 5.91 5.91
16454.8 3.6029 6.4(7) 2.283 5.91 5.91
16463.1 3.6047 6.5(7) 2.249 5.91 5.91
16471.3 3.6065 6.1(6) 2.420 5.91 5.91
16479.6 3.6083 6.1(6) 2.398 5.91 5.91
16487.8 3.6101 6.5(7) 2.242 5.91 5.91
16496.0 3.6119 6.8(7) 2.131 5.91 5.91
16504.3 3.6137 6.5(7) 2.221 5.91 5.92
16512.5 3.6155 7.1(7) 2.054 5.92 5.92
16520.8 3.6173 6.9(7) 2.089 5.92 5.92
16529.1 3.6191 6.8(7) 2.125 5.92 5.92
16537.3 3.6210 6.2(7) 2.326 5.92 5.92
16545.6 3.6228 6.7(7) 2.142 5.92 5.92
16553.8 3.6246 6.9(7) 2.066 5.92 5.92
16562.1 3.6264 6.1(7) 2.353 5.92 5.92
16570.4 3.6282 5.0(6) 2.832 5.92 5.92
16578.7 3.6300 5.4(6) 2.634 5.92 5.92
16587.0 3.6318 4.8(6) 2.932 5.92 5.92
16595.3 3.6337 5.1(6) 2.770 5.92 5.93
16603.6 3.6355 6.3(7) 2.231 5.92 5.93
16611.9 3.6373 6.4(7) 2.215 5.93 5.93
16620.2 3.6391 6.5(7) 2.148 5.93 5.93
16628.5 3.6409 5.8(6) 2.417 5.93 5.93
16636.8 3.6428 5.7(6) 2.463 5.93 5.93
16645.1 3.6446 6.2(7) 2.266 5.93 5.93
16653.4 3.6464 6.6(7) 2.123 5.93 5.93
16661.8 3.6482 6.3(7) 2.221 5.93 5.93
16670.1 3.6501 6.4(7) 2.158 5.93 5.93
16678.4 3.6519 6.0(7) 2.315 5.93 5.94
16686.8 3.6537 6.0(7) 2.315 5.93 5.94
16695.1 3.6556 6.4(7) 2.164 5.93 5.94
16703.5 3.6574 6.1(7) 2.249 5.94 5.94
16711.8 3.6592 6.0(7) 2.292 5.94 5.94
16720.2 3.6610 5.9(7) 2.315 5.94 5.94
16728.5 3.6629 6.0(7) 2.263 5.94 5.94
16736.9 3.6647 5.7(6) 2.367 5.94 5.94
16745.3 3.6665 6.8(7) 2.006 5.94 5.94
16753.7 3.6684 6.9(7) 1.967 5.94 5.95
16762.0 3.6702 5.5(6) 2.471 5.94 5.95
16770.4 3.6721 6.1(7) 2.224 5.94 5.95
16778.8 3.6739 6.7(7) 2.010 5.94 5.95
16787.2 3.6757 6.6(7) 2.040 5.95 5.96
16795.6 3.6776 6.4(7) 2.111 5.95 5.96
16804.0 3.6794 6.4(7) 2.081 5.95 5.97
16812.4 3.6813 6.2(7) 2.158 5.95 5.98
16820.8 3.6831 5.2(6) 2.536 5.95 6.00
16829.2 3.6849 5.0(6) 2.649 5.95 6.01
16837.6 3.6868 5.4(6) 2.432 5.95 6.03
16846.0 3.6886 5.8(7) 2.278 5.95 6.06
16854.4 3.6905 6.7(7) 1.962 5.95 6.09
16862.9 3.6923 6.4(7) 2.059 5.95 6.12
16871.3 3.6942 6.8(7) 1.935 5.96 6.15
16879.8 3.6960 6.6(7) 1.996 5.96 6.18
16888.2 3.6979 5.5(6) 2.381 5.96 6.21
16896.6 3.6997 5.2(6) 2.523 5.96 6.23
16905.1 3.7016 6.0(7) 2.175 5.96 6.24
16913.5 3.7034 6.0(7) 2.149 5.96 6.25
16922.0 3.7053 5.8(7) 2.240 5.96 6.24
16930.4 3.7071 5.3(6) 2.417 5.96 6.22
16938.9 3.7090 6.2(7) 2.072 5.96 6.20
16947.4 3.7109 7.4(8) 1.754 5.97 6.18
16955.8 3.7127 6.6(7) 1.962 5.97 6.15
16964.3 3.7146 6.3(7) 2.021 5.97 6.12
16972.8 3.7164 6.3(7) 2.025 5.97 6.09
16981.3 3.7183 6.2(7) 2.042 5.97 6.07
16989.8 3.7202 6.5(7) 1.958 5.97 6.05
16998.3 3.7220 6.8(7) 1.877 5.97 6.03
17006.8 3.7239 6.9(7) 1.847 5.97 6.02
17015.3 3.7257 5.7(7) 2.231 5.97 6.01
17023.8 3.7276 5.8(7) 2.162 5.98 6.00
17032.3 3.7295 6.2(7) 2.042 5.98 6.00
17040.8 3.7313 5.9(7) 2.114 5.98 5.99
17049.3 3.7332 6.4(7) 1.965 5.98 5.99
17057.9 3.7351 7.1(8) 1.771 5.98 5.99
17066.4 3.7370 6.4(7) 1.953 5.98 5.99
17074.9 3.7388 6.1(7) 2.044 5.98 5.99
17083.5 3.7407 6.0(7) 2.080 5.98 5.99
17092.0 3.7426 5.9(7) 2.115 5.99 5.99
17100.6 3.7444 5.9(7) 2.108 5.99 5.99
17109.1 3.7463 4.9(6) 2.510 5.99 5.99
17117.7 3.7482 4.9(6) 2.482 5.99 5.99
17126.2 3.7501 5.4(7) 2.280 5.99 5.99
17134.8 3.7519 6.2(7) 1.983 5.99 5.99
17143.3 3.7538 5.6(7) 2.176 5.99 6.00
17151.9 3.7557 6.0(7) 2.021 5.99 6.00
17160.5 3.7576 5.7(7) 2.138 6.00 6.00
17169.1 3.7595 5.8(7) 2.106 6.00 6.00
17177.7 3.7613 5.5(7) 2.195 6.00 6.00
17186.3 3.7632 5.1(7) 2.363 6.00 6.00
17194.8 3.7651 5.5(7) 2.190 6.00 6.00
17203.4 3.7670 5.7(7) 2.120 6.00 6.00
17212.0 3.7689 5.5(7) 2.196 6.00 6.00
17220.7 3.7708 6.1(7) 1.976 6.00 6.01
17229.3 3.7727 6.2(7) 1.941 6.01 6.01
17237.9 3.7745 6.2(7) 1.928 6.01 6.01
17246.5 3.7764 6.3(7) 1.899 6.01 6.01
17255.1 3.7783 7.0(8) 1.696 6.01 6.01
17263.8 3.7802 7.2(8) 1.647 6.01 6.01
17272.4 3.7821 6.8(8) 1.735 6.01 6.01
17281.0 3.7840 6.5(7) 1.814 6.01 6.01
17289.7 3.7859 5.9(7) 1.983 6.02 6.02
17298.3 3.7878 6.2(7) 1.892 6.02 6.02
17306.9 3.7897 6.3(7) 1.852 6.02 6.02
17315.6 3.7916 6.6(7) 1.782 6.02 6.02
17324.3 3.7935 6.6(8) 1.766 6.02 6.02
17332.9 3.7954 5.9(7) 1.960 6.02 6.02
17341.6 3.7973 6.3(7) 1.843 6.02 6.02
17350.3 3.7992 5.8(7) 1.993 6.03 6.03
17358.9 3.8011 6.2(7) 1.866 6.03 6.03
17367.6 3.8030 7.0(8) 1.646 6.03 6.03
17376.3 3.8049 7.1(8) 1.623 6.03 6.03
17385.0 3.8068 6.1(7) 1.868 6.03 6.03
17393.7 3.8087 4.9(7) 2.337 6.03 6.03
17402.4 3.8106 5.4(7) 2.126 6.03 6.03
17411.1 3.8125 5.5(7) 2.067 6.04 6.04
17419.8 3.8144 5.5(7) 2.050 6.04 6.04
17428.5 3.8163 6.3(7) 1.798 6.04 6.04
17437.2 3.8182 6.7(8) 1.684 6.04 6.04
17445.9 3.8202 7.3(8) 1.541 6.04 6.04
17454.7 3.8221 6.2(7) 1.806 6.04 6.04
17463.4 3.8240 5.8(7) 1.934 6.04 6.04
17472.1 3.8259 6.6(8) 1.692 6.05 6.05
17480.8 3.8278 6.5(8) 1.716 6.05 6.05
17489.6 3.8297 6.3(8) 1.770 6.05 6.05
17498.3 3.8317 6.3(8) 1.765 6.05 6.05
17507.1 3.8336 6.1(7) 1.830 6.05 6.05
17515.8 3.8355 6.6(8) 1.670 6.05 6.05
17524.6 3.8374 6.8(8) 1.633 6.06 6.06
17533.3 3.8393 6.3(8) 1.753 6.06 6.06
17542.1 3.8413 5.9(7) 1.857 6.06 6.06
17550.9 3.8432 5.7(7) 1.910 6.06 6.06
17559.7 3.8451 5.9(7) 1.842 6.06 6.06
17568.4 3.8470 5.5(7) 1.963 6.06 6.06
17577.2 3.8490 5.9(7) 1.857 6.06 6.06
17586.0 3.8509 6.2(8) 1.753 6.07 6.07
17594.8 3.8528 6.6(8) 1.640 6.07 6.07
17603.6 3.8547 6.6(8) 1.630 6.07 6.07
17612.4 3.8567 6.8(8) 1.591 6.07 6.07
17621.2 3.8586 6.4(8) 1.682 6.07 6.07
17630.0 3.8605 5.2(7) 2.071 6.07 6.07
17638.8 3.8625 6.2(8) 1.731 6.08 6.08
17647.7 3.8644 6.2(8) 1.716 6.08 6.08
17656.5 3.8663 5.3(7) 1.997 6.08 6.08
17665.3 3.8683 5.5(7) 1.942 6.08 6.08
17674.1 3.8702 5.8(7) 1.813 6.08 6.08
17683.0 3.8721 6.9(8) 1.532 6.08 6.08
17691.8 3.8741 6.0(8) 1.752 6.09 6.09
17700.7 3.8760 6.1(8) 1.735 6.09 6.09
17709.5 3.8780 6.1(8) 1.733 6.09 6.09
17718.4 3.8799 5.8(7) 1.808 6.09 6.09
17727.2 3.8818 5.8(7) 1.811 6.09 6.09
17736.1 3.8838 6.0(8) 1.727 6.09 6.09
17745.0 3.8857 6.0(8) 1.743 6.10 6.10
17753.8 3.8877 5.8(7) 1.781 6.10 6.10
17762.7 3.8896 6.5(8) 1.590 6.10 6.10
17771.6 3.8916 6.3(8) 1.634 6.10 6.10
17780.5 3.8935 6.7(8) 1.533 6.10 6.10
17789.4 3.8955 6.1(8) 1.699 6.11 6.11
17798.3 3.8974 5.7(7) 1.804 6.11 6.11
17807.2 3.8994 6.4(8) 1.593 6.11 6.11
17816.1 3.9013 6.1(8) 1.682 6.11 6.11
17825.0 3.9033 6.1(8) 1.682 6.11 6.11
17833.9 3.9052 5.9(8) 1.717 6.11 6.11
17842.8 3.9072 6.1(8) 1.664 6.12 6.12
17851.7 3.9091 7.1(8) 1.426 6.12 6.12
17860.7 3.9111 7.0(8) 1.436 6.12 6.12
17869.6 3.9131 5.9(8) 1.709 6.12 6.12
17878.5 3.9150 5.3(7) 1.885 6.12 6.12
17887.5 3.9170 5.1(7) 1.968 6.13 6.13
17896.4 3.9189 6.3(8) 1.601 6.13 6.13
17905.3 3.9209 5.9(8) 1.685 6.13 6.13
17914.3 3.9229 6.7(8) 1.482 6.13 6.13
17923.3 3.9248 6.9(8) 1.451 6.13 6.13
17932.2 3.9268 6.5(8) 1.519 6.14 6.14
17941.2 3.9288 6.3(8) 1.565 6.14 6.14
17950.2 3.9307 6.3(8) 1.575 6.14 6.14
17959.1 3.9327 6.1(8) 1.629 6.14 6.14
17968.1 3.9347 5.8(8) 1.705 6.14 6.14
17977.1 3.9366 5.7(8) 1.707 6.15 6.15
17986.1 3.9386 6.3(8) 1.555 6.15 6.15
17995.1 3.9406 6.6(8) 1.483 6.15 6.15
18004.1 3.9425 7.1(9) 1.377 6.15 6.15
18013.1 3.9445 6.2(8) 1.568 6.15 6.15
18022.1 3.9465 5.7(8) 1.709 6.16 6.16
18031.1 3.9485 5.4(7) 1.782 6.16 6.16
18040.1 3.9504 6.3(8) 1.541 6.16 6.16
18049.1 3.9524 6.2(8) 1.568 6.16 6.16
18058.2 3.9544 5.9(8) 1.635 6.16 6.16
18067.2 3.9564 6.6(8) 1.450 6.17 6.17
18076.2 3.9584 6.9(8) 1.392 6.17 6.17
18085.3 3.9604 6.0(8) 1.586 6.17 6.17
18094.3 3.9623 6.2(8) 1.547 6.17 6.17
18103.3 3.9643 6.4(8) 1.484 6.17 6.17
18112.4 3.9663 6.3(8) 1.518 6.18 6.18
18121.4 3.9683 6.3(8) 1.520 6.18 6.18
18130.5 3.9703 6.8(8) 1.404 6.18 6.18
18139.6 3.9723 6.9(9) 1.381 6.18 6.18
18148.7 3.9743 6.0(8) 1.578 6.18 6.18
18157.7 3.9762 5.1(7) 1.846 6.19 6.19
18166.8 3.9782 5.2(7) 1.813 6.19 6.19
18175.9 3.9802 5.3(8) 1.760 6.19 6.19
18185.0 3.9822 5.8(8) 1.616 6.19 6.19
18194.1 3.9842 6.0(8) 1.565 6.20 6.20
18203.2 3.9862 6.4(8) 1.455 6.20 6.20
18212.3 3.9882 7.0(9) 1.338 6.20 6.20
18221.4 3.9902 6.3(8) 1.467 6.20 6.20
18230.5 3.9922 6.3(8) 1.477 6.20 6.20
18239.6 3.9942 6.3(8) 1.476 6.21 6.21
18248.7 3.9962 6.0(8) 1.552 6.21 6.21
18257.8 3.9982 6.2(8) 1.488 6.21 6.21
18267.0 4.0002 5.6(8) 1.642 6.21 6.21
18276.1 4.0022 6.0(8) 1.537 6.22 6.22
18285.3 4.0042 6.0(8) 1.534 6.22 6.22
18294.4 4.0062 5.2(8) 1.746 6.22 6.22
18303.5 4.0082 6.2(8) 1.466 6.22 6.22
18312.7 4.0102 6.6(9) 1.380 6.23 6.23
18321.8 4.0122 5.7(8) 1.605 6.23 6.23
18331.0 4.0142 6.4(8) 1.419 6.23 6.23
18340.2 4.0162 6.6(9) 1.378 6.23 6.23
18349.3 4.0183 6.2(8) 1.450 6.23 6.23
18358.5 4.0203 5.8(8) 1.559 6.24 6.24
18367.7 4.0223 5.4(8) 1.675 6.24 6.24
18376.9 4.0243 4.7(7) 1.895 6.24 6.24
18386.1 4.0263 5.1(8) 1.763 6.24 6.24
18395.3 4.0283 5.7(8) 1.578 6.25 6.25
18404.4 4.0303 6.5(9) 1.372 6.25 6.25
18413.7 4.0324 6.6(9) 1.348 6.25 6.25
18422.8 4.0344 5.7(8) 1.557 6.25 6.25
18432.1 4.0364 5.2(8) 1.708 6.26 6.26
18441.3 4.0384 5.1(8) 1.734 6.26 6.26
18450.5 4.0404 4.6(7) 1.911 6.26 6.26
18459.7 4.0425 5.9(8) 1.485 6.26 6.26
18469.0 4.0445 5.8(8) 1.524 6.27 6.27
18478.2 4.0465 6.0(8) 1.451 6.27 6.27
18487.4 4.0485 5.8(8) 1.502 6.27 6.27
18496.7 4.0506 5.6(8) 1.567 6.27 6.27
18505.9 4.0526 6.7(9) 1.307 6.28 6.28
18515.2 4.0546 6.6(9) 1.314 6.28 6.28
18524.4 4.0567 6.5(9) 1.339 6.28 6.28
18533.7 4.0587 6.4(9) 1.348 6.28 6.28
18543.0 4.0607 6.1(8) 1.414 6.29 6.29
18552.3 4.0628 6.1(8) 1.399 6.29 6.29
18561.5 4.0648 6.0(8) 1.419 6.29 6.29
18570.8 4.0668 5.7(8) 1.488 6.29 6.29
18580.1 4.0689 6.7(9) 1.281 6.30 6.30
18589.4 4.0709 6.3(9) 1.343 6.30 6.30
18598.7 4.0729 6.1(8) 1.398 6.30 6.30
18608.0 4.0750 6.9(9) 1.236 6.31 6.31
18617.3 4.0770 6.3(9) 1.346 6.31 6.31
18626.6 4.0791 6.9(9) 1.226 6.31 6.31
18635.9 4.0811 7.2(9) 1.174 6.31 6.31
18645.2 4.0831 5.5(8) 1.528 6.32 6.32
18654.5 4.0852 5.9(8) 1.426 6.32 6.32
18663.8 4.0872 7.0(9) 1.189 6.32 6.32
18673.2 4.0893 6.8(9) 1.230 6.32 6.32
18682.5 4.0913 6.3(9) 1.328 6.33 6.33
18691.9 4.0934 5.9(8) 1.392 6.33 6.33
18701.2 4.0954 7.5(9) 1.111 6.33 6.33
18710.6 4.0975 7.7(10) 1.067 6.34 6.34
18719.9 4.0995 7.2(9) 1.144 6.34 6.34
18729.3 4.1016 7.0(9) 1.173 6.34 6.34
18738.7 4.1036 6.2(9) 1.322 6.34 6.34
18748.0 4.1057 5.2(8) 1.559 6.35 6.35
18757.4 4.1077 5.2(8) 1.573 6.35 6.35
18766.8 4.1098 5.5(8) 1.461 6.35 6.35
18776.2 4.1119 7.0(9) 1.166 6.35 6.35
18785.5 4.1139 6.5(9) 1.252 6.36 6.36
18794.9 4.1160 6.6(9) 1.227 6.36 6.36
18804.3 4.1180 7.1(9) 1.134 6.36 6.36
18813.7 4.1201 6.4(9) 1.257 6.37 6.37
18823.1 4.1222 5.6(8) 1.412 6.37 6.37
18832.6 4.1242 5.7(8) 1.395 6.37 6.37
18842.0 4.1263 7.0(9) 1.141 6.38 6.38
18851.4 4.1284 7.0(9) 1.133 6.38 6.38
18860.8 4.1304 6.6(9) 1.202 6.38 6.38
18870.3 4.1325 7.1(9) 1.115 6.38 6.38
18879.7 4.1346 7.5(10) 1.054 6.39 6.39
18889.1 4.1366 6.9(9) 1.132 6.39 6.39
18898.6 4.1387 6.8(9) 1.150 6.39 6.39
18908.0 4.1408 7.1(10) 1.107 6.40 6.40
18917.5 4.1429 6.9(9) 1.125 6.40 6.40
18926.9 4.1449 6.8(9) 1.141 6.40 6.40
18936.4 4.1470 6.1(9) 1.281 6.41 6.41
18945.8 4.1491 7.1(10) 1.092 6.41 6.41
18955.3 4.1512 6.1(9) 1.266 6.41 6.41
18964.8 4.1532 6.3(9) 1.226 6.41 6.41
18974.3 4.1553 6.9(9) 1.109 6.42 6.42
18983.8 4.1574 7.4(10) 1.045 6.42 6.42
18993.3 4.1595 6.9(9) 1.111 6.42 6.42
19002.8 4.1616 6.6(9) 1.166 6.43 6.43
19012.3 4.1636 6.9(10) 1.103 6.43 6.43
19021.8 4.1657 7.6(10) 1.001 6.43 6.43
19031.3 4.1678 6.8(9) 1.124 6.44 6.44
19040.8 4.1699 6.8(10) 1.107 6.44 6.44
19050.3 4.1720 6.7(9) 1.130 6.44 6.44
19059.8 4.1741 5.8(9) 1.300 6.45 6.45
19069.4 4.1762 6.1(9) 1.237 6.45 6.45
19078.9 4.1783 5.7(9) 1.322 6.45 6.45
19088.4 4.1803 5.9(9) 1.265 6.46 6.46
19098.0 4.1824 5.2(8) 1.444 6.46 6.46
19107.5 4.1845 5.6(9) 1.332 6.46 6.46
19117.1 4.1866 6.3(9) 1.179 6.47 6.47
19126.7 4.1887 5.7(9) 1.305 6.47 6.47
19136.2 4.1908 6.7(10) 1.107 6.47 6.47
19145.8 4.1929 6.3(9) 1.185 6.48 6.48
19155.3 4.1950 6.5(9) 1.145 6.48 6.48
19164.9 4.1971 6.6(9) 1.111 6.48 6.48
19174.5 4.1992 7.7(10) 0.963 6.49 6.49
19184.1 4.2013 6.7(10) 1.103 6.49 6.49
19193.7 . -0.0019(4) . . .
loop_
_refln_index_h
_refln_index_k
_refln_index_l
_refln_observed_status
_refln_F_squared_meas
_refln_F_squared_calc
_refln_phase_calc
_refln_d_spacing
_gsas_i100_meas
2 1 0 o 0.430 0.086 0.00 3.70082 1.92
2 1 1 o 0.264 0.006 0.00 3.37837 0.82
2 2 0 o 2.076 0.529 180.00 2.92575 1.81
2 2 1 o 0.089 0.307 -135.00 2.75843 0.12
3 1 0 o 0.366 0.682 90.00 2.61687 0.41
3 1 1 o 24.700 26.526 45.00 2.49509 22.82
2 2 2 o 9.779 9.964 90.00 2.38887 2.53
3 2 0 o 1.795 2.491 90.00 2.29515 1.19
3 2 1 o 1.448 0.952 -150.06 2.21166 1.65
4 0 0 o 915.853 915.610 180.00 2.06882 100.00
4 1 0 o 3.523 4.455 -180.00 2.00705 1.36
3 2 2 o 0.535 0.676 135.00 2.00705 0.21
3 3 0 o 1.833 2.865 -90.00 1.95050 0.32
4 1 1 o 0.001 0.001 -90.00 1.95050 0.00
3 3 1 o 13.276 15.063 135.00 1.89848 4.11
4 2 0 o 0.000 0.011 0.00 1.85041 0.00
4 2 1 o 0.000 0.083 -89.37 1.80581 0.00
3 3 2 o 4.351 4.820 0.00 1.76430 1.01
4 2 2 o 3.165 2.195 -180.00 1.68918 0.61
4 3 0 o 0.756 0.153 -180.00 1.65506 0.14
4 3 1 o 2.076 1.451 -85.62 1.62292 0.69
5 1 0 o 5.458 3.814 90.00 1.62292 0.90
5 1 1 o 104.348 103.365 -45.00 1.59258 16.00
3 3 3 o 0.000 0.000 -135.00 1.59258 0.00
5 2 0 o 1.675 1.540 -90.00 1.53668 0.22
4 3 2 o 3.389 3.117 -96.06 1.53668 0.90
5 2 1 o 0.130 0.054 37.08 1.51085 0.03
4 4 0 o 649.398 637.772 0.00 1.46288 35.45
4 4 1 o 2.609 2.651 45.00 1.44054 0.27
5 2 2 o 0.056 0.057 -135.00 1.44054 0.01
5 3 0 o 0.598 0.442 -90.00 1.41920 0.06
4 3 3 o 1.488 1.100 90.00 1.41920 0.14
5 3 1 o 78.388 76.992 -134.30 1.39878 14.31
4 4 2 o 1.227 1.999 90.00 1.37921 0.11
6 1 0 o 0.023 0.384 0.00 1.36045 0.00
5 3 2 o 0.017 0.185 -116.24 1.34243 0.00
6 1 1 o 0.008 0.092 180.00 1.34243 0.00
6 2 0 o 3.021 3.123 180.00 1.30844 0.21
6 2 1 o 0.249 0.262 -44.47 1.29238 0.03
4 4 3 o 0.917 0.965 -45.00 1.29238 0.06
5 4 0 o 6.080 6.399 90.00 1.29238 0.40
5 4 1 o 4.107 4.255 -95.29 1.27690 0.52
5 3 3 o 23.721 25.047 -45.00 1.26197 1.43
6 2 2 o 0.002 0.026 90.00 1.24755 0.00
5 4 2 o 0.871 1.317 -161.27 1.23361 0.10
6 3 0 o 1.420 2.148 -180.00 1.23361 0.08
6 3 1 o 0.085 0.044 -139.50 1.22012 0.01
4 4 4 o 603.977 584.755 -180.00 1.19443 9.77
6 3 2 o 3.974 4.273 -65.90 1.18218 0.37
5 5 0 o 19.906 22.667 -90.00 1.17030 0.45
5 4 3 o 0.307 0.349 13.97 1.17030 0.03
7 1 0 o 2.857 3.253 -90.00 1.17030 0.13
5 5 1 o 143.418 147.688 135.00 1.15877 6.17
7 1 1 o 10.587 10.902 -135.00 1.15877 0.46
6 4 0 o 0.053 0.076 -180.00 1.14757 0.00
6 4 1 o 0.121 0.183 -50.30 1.13670 0.01
7 2 0 o 3.252 4.916 -90.00 1.13670 0.13
5 5 2 o 0.227 0.283 180.00 1.12612 0.01
7 2 1 o 3.081 3.844 -2.38 1.12612 0.24
6 3 3 o 0.209 0.261 180.00 1.12612 0.01
6 4 2 o 0.000 0.040 -67.52 1.10583 0.00
5 4 4 o 7.019 8.908 -135.00 1.09609 0.24
7 2 2 o 2.672 3.391 -45.00 1.09609 0.09
7 3 0 o 0.234 0.256 90.00 1.08660 0.01
5 5 3 o 77.368 80.478 45.00 1.07735 2.49
7 3 1 o 0.304 0.316 -43.43 1.07735 0.02
6 4 3 o 0.884 1.392 93.18 1.05954 0.05
6 5 0 o 0.397 0.625 -180.00 1.05954 0.01
6 5 1 o 0.068 0.075 -57.06 1.05096 0.00
7 3 2 o 9.143 10.039 -172.66 1.05096 0.53
8 0 0 o 391.270 396.807 0.00 1.03441 2.67
6 5 2 o 0.350 0.375 71.98 1.02642 0.02
8 1 0 o 3.106 3.320 0.00 1.02642 0.08
7 4 0 o 0.187 0.200 -90.00 1.02642 0.00
7 4 1 o 0.644 0.748 -75.80 1.01862 0.03
5 5 4 o 6.374 7.402 90.00 1.01862 0.16
8 1 1 o 0.487 0.566 90.00 1.01862 0.01
7 3 3 o 0.003 0.020 -135.00 1.01099 0.00
6 4 4 o 0.081 0.978 -90.00 1.00352 0.00
8 2 0 o 0.000 0.004 0.00 1.00352 0.00
8 2 1 o 0.154 0.253 -44.11 0.99623 0.01
7 4 2 o 2.434 4.005 2.11 0.99623 0.11
6 5 3 o 0.000 0.295 -46.74 0.98908 0.00
6 6 0 o 1.694 2.965 0.00 0.97525 0.02
8 2 2 o 0.027 0.048 180.00 0.97525 0.00
6 6 1 o 0.026 0.030 45.00 0.96855 0.00
8 3 0 o 1.906 2.152 0.00 0.96855 0.04
8 3 1 o 1.191 1.233 82.04 0.96198 0.05
7 5 0 o 0.323 0.334 90.00 0.96198 0.01
7 4 3 o 1.783 1.846 -83.22 0.96198 0.07
5 5 5 o 127.980 121.202 -45.00 0.95555 0.85
7 5 1 o 19.435 18.406 46.00 0.95555 0.77
6 6 2 o 4.498 3.775 -90.00 0.94924 0.09
8 3 2 o 3.174 2.488 104.05 0.94306 0.12
6 5 4 o 4.243 3.326 -7.40 0.94306 0.16
7 5 2 o 0.983 0.775 -57.13 0.93699 0.04
8 4 0 o 393.549 381.851 180.00 0.92520 6.88
6 6 3 o 0.253 0.244 135.00 0.91948 0.00
7 4 4 o 0.419 0.405 -45.00 0.91948 0.01
8 4 1 o 4.696 4.536 -105.00 0.91948 0.16
9 1 0 o 18.155 18.335 -90.00 0.91385 0.30
8 3 3 o 1.235 1.248 -90.00 0.91385 0.02
8 4 2 o 3.878 3.570 -84.14 0.90291 0.12
7 5 3 o 13.603 13.611 132.09 0.90833 0.44
9 1 1 o 113.394 113.467 135.00 0.90833 1.84
9 2 0 o 1.332 1.155 90.00 0.89758 0.02
7 6 0 o 6.398 5.548 90.00 0.89758 0.10
9 2 1 o 0.427 0.315 115.37 0.89235 0.01
7 6 1 o 1.849 1.363 -119.75 0.89235 0.06
6 5 5 o 1.686 1.243 0.00 0.89235 0.03
6 6 4 o 9.373 7.189 180.00 0.88215 0.14
8 4 3 o 0.238 0.196 14.53 0.87718 0.01
9 2 2 o 0.658 0.541 45.00 0.87718 0.01
8 5 0 o 17.139 14.079 -180.00 0.87718 0.24
7 6 2 o 6.519 5.355 173.31 0.87718 0.18
9 3 0 o 3.377 3.071 90.00 0.87229 0.05
8 5 1 o 0.358 0.326 172.88 0.87229 0.01
7 5 4 o 0.941 0.855 -95.04 0.87229 0.03
9 3 1 o 71.212 67.787 45.65 0.86748 1.92
8 5 2 o 2.815 2.123 -61.50 0.85811 0.07
9 3 2 o 0.491 0.410 -79.85 0.85353 0.01
7 6 3 o 5.547 4.622 -11.69 0.85353 0.14
8 4 4 o 292.385 284.705 0.00 0.84459 3.55
6 6 5 o 2.912 2.757 -135.00 0.84023 0.03
9 4 0 o 7.014 6.640 -90.00 0.84023 0.08
7 7 0 o 0.884 0.794 -90.00 0.83593 0.01
9 4 1 o 10.279 9.230 69.21 0.83593 0.24
8 5 3 o 0.255 0.229 94.50 0.83593 0.01
7 5 5 o 41.992 37.390 -135.00 0.83170 0.48
7 7 1 o 0.261 0.232 135.00 0.83170 0.00
9 3 3 o 58.552 52.134 135.00 0.83170 0.67
8 6 0 o 0.195 0.170 180.00 0.82753 0.00
10 1 0 o 0.057 0.048 -180.00 0.82342 0.00
8 6 1 o 0.205 0.174 -62.81 0.82342 0.00
7 6 4 o 5.494 4.674 -91.87 0.82342 0.12
9 4 2 o 3.164 2.692 -11.50 0.82342 0.07
7 7 2 o 17.406 12.509 0.00 0.81937 0.19
10 1 1 o 0.715 0.514 0.00 0.81937 0.01
8 6 2 o 1.640 1.171 -166.13 0.81146 0.03
10 2 0 o 0.609 0.435 0.00 0.81146 0.01
8 5 4 o 11.453 9.605 17.32 0.80758 0.23
10 2 1 o 0.048 0.040 44.05 0.80758 0.00
9 4 3 o 4.213 3.958 110.13 0.80377 0.08
9 5 0 o 18.803 17.664 90.00 0.80377 0.19
9 5 1 o 91.661 91.637 -43.64 0.80000 1.79
7 7 3 o 0.279 0.279 -135.00 0.80000 0.00
6 6 6 o 10.699 11.043 90.00 0.79629 0.03
10 2 2 o 15.676 16.181 -90.00 0.79629 0.15
8 6 3 o 1.551 1.622 -174.80 0.79263 0.03
10 3 0 o 0.236 0.247 0.00 0.79263 0.00
9 5 2 o 2.089 2.110 -10.64 0.78902 0.04
10 3 1 o 0.650 0.657 -173.12 0.78902 0.01
7 6 5 o 0.116 0.118 74.01 0.78902 0.00
8 7 0 o 0.464 0.510 0.00 0.77847 0.00
10 3 2 o 1.916 2.109 53.94 0.77847 0.03
9 4 4 o 9.324 10.263 45.00 0.77847 0.08
7 7 4 o 0.127 0.141 -90.00 0.77505 0.00
8 7 1 o 1.744 1.933 -66.39 0.77505 0.03
8 5 5 o 2.477 2.746 -90.00 0.77505 0.02
9 5 3 o 70.993 76.193 -136.25 0.77167 1.20
10 4 0 o 0.026 0.031 0.00 0.76834 0.00
8 6 4 o 3.186 3.694 86.11 0.76834 0.05
8 7 2 o 2.405 3.327 -86.42 0.76505 0.04
9 6 0 o 2.147 2.970 -90.00 0.76505 0.02
10 4 1 o 1.015 1.404 -100.69 0.76505 0.02
9 6 1 o 0.220 0.450 10.79 0.76180 0.00
10 3 3 o 0.092 0.187 180.00 0.76180 0.00
10 4 2 o 0.582 1.578 172.85 0.75543 0.01
11 1 0 o 0.254 0.371 90.00 0.74921 0.00
9 5 4 o 12.747 18.591 -83.47 0.74921 0.19
8 7 3 o 0.039 0.057 75.30 0.74921 0.00
9 6 2 o 0.518 0.921 -156.21 0.75230 0.01
7 6 6 o 3.150 5.602 -45.00 0.75230 0.02
11 1 1 o 0.683 0.956 45.00 0.74616 0.01
7 7 5 o 1.133 1.587 -45.00 0.74616 0.01
10 5 0 o 2.240 3.095 0.00 0.74016 0.02
8 6 5 o 1.013 1.399 -159.70 0.74016 0.01
11 2 0 o 1.329 1.836 90.00 0.74016 0.01
10 4 3 o 0.809 1.117 -106.70 0.74016 0.01
9 6 3 o 0.344 0.442 -39.84 0.73722 0.00
10 5 1 o 0.175 0.224 29.62 0.73722 0.00
11 2 1 o 5.949 7.631 -155.45 0.73722 0.08
8 8 0 o 171.462 192.086 0.00 0.73144 0.59
11 2 2 o 0.732 0.811 135.00 0.72860 0.00
8 8 1 o 0.029 0.032 45.00 0.72860 0.00
8 7 4 o 0.117 0.129 52.27 0.72860 0.00
10 5 2 o 1.577 1.747 -122.88 0.72860 0.02
9 7 0 o 0.067 0.073 -90.00 0.72579 0.00
11 3 0 o 0.840 0.918 -90.00 0.72579 0.01
9 5 5 o 84.065 90.635 135.00 0.72301 0.55
11 3 1 o 0.381 0.410 166.94 0.72301 0.00
9 7 1 o 32.149 34.661 -134.03 0.72301 0.42
10 4 4 o 1.007 1.072 90.00 0.72027 0.01
8 8 2 o 7.675 8.171 90.00 0.72027 0.05
9 6 4 o 0.855 0.905 81.29 0.71756 0.01
7 7 6 o 2.710 2.955 180.00 0.71488 0.02
11 3 2 o 10.684 11.649 1.93 0.71488 0.13
9 7 2 o 0.185 0.201 -154.39 0.71488 0.00
10 5 3 o 0.767 0.836 -156.97 0.71488 0.01
8 6 6 o 1.472 2.005 0.00 0.70960 0.01
10 6 0 o 5.017 6.837 180.00 0.70960 0.03
8 8 3 o 0.006 0.008 135.00 0.70700 0.00
11 4 0 o 0.216 0.283 -90.00 0.70700 0.00
10 6 1 o 2.251 2.948 -122.73 0.70700 0.03
8 7 5 o 0.955 1.107 55.23 0.70444 0.01
11 4 1 o 1.324 1.535 77.82 0.70444 0.02
9 7 3 o 17.554 18.682 -45.73 0.70190 0.20
11 3 3 o 0.071 0.075 -135.00 0.70190 0.00
10 6 2 o 21.561 21.598 90.01 0.69939 0.25
10 5 4 o 0.852 0.827 -154.94 0.69690 0.01
11 4 2 o 1.704 1.656 178.06 0.69690 0.02
9 6 5 o 1.219 1.224 161.92 0.69445 0.01
12 0 0 o 127.419 139.060 -180.00 0.68961 0.17
8 8 4 o 170.605 186.191 -180.00 0.68961 0.92
12 1 0 o 4.238 4.602 -180.00 0.68722 0.02
9 8 0 o 14.154 15.370 90.00 0.68722 0.08
10 6 3 o 0.174 0.189 10.43 0.68722 0.00
11 5 0 o 1.482 1.502 -90.00 0.68487 0.01
9 7 4 o 1.002 1.016 1.43 0.68487 0.01
12 1 1 o 1.161 1.177 -90.00 0.68487 0.01
9 8 1 o 3.310 3.354 -112.03 0.68487 0.03
11 4 3 o 0.013 0.013 60.08 0.68487 0.00
7 7 7 o 0.038 0.037 45.00 0.68253 0.00
11 5 1 o 5.077 4.919 -135.58 0.68253 0.05
12 2 0 o 0.005 0.006 0.00 0.68022 0.00
8 7 6 o 3.071 3.523 89.06 0.67794 0.03
9 8 2 o 3.715 4.262 -170.94 0.67794 0.04
12 2 1 o 0.574 0.658 -132.55 0.67794 0.01
10 7 0 o 3.444 3.952 -180.00 0.67794 0.02
10 7 1 o 0.182 0.213 38.79 0.67567 0.00
11 5 2 o 1.114 1.302 175.66 0.67567 0.01
10 5 5 o 0.110 0.129 -180.00 0.67567 0.00
10 6 4 o 3.734 3.734 -0.40 0.67121 0.04
12 2 2 o 0.184 0.184 -180.00 0.67121 0.00
12 3 0 o 0.044 0.044 0.00 0.66902 0.00
11 4 4 o 0.072 0.072 135.00 0.66902 0.00
10 7 2 o 6.132 6.129 -75.24 0.66902 0.06
8 8 5 o 4.286 4.284 -135.00 0.66902 0.02
9 6 6 o 3.058 3.057 45.00 0.66902 0.01
12 3 1 o 1.100 1.077 -63.71 0.66684 0.01
9 8 3 o 2.109 2.066 -16.72 0.66684 0.02
11 5 3 o 1.524 1.458 -64.62 0.66469 0.01
9 7 5 o 38.490 36.834 48.59 0.66469 0.36
11 6 0 o 2.823 2.540 -90.00 0.66044 0.01
12 3 2 o 2.146 1.931 -94.93 0.66044 0.02
11 6 1 o 4.489 4.148 27.41 0.65835 0.04
10 7 3 o 0.524 0.485 -35.29 0.65835 0.00
12 4 0 o 119.352 120.898 0.00 0.65422 0.52
12 4 1 o 0.914 0.941 117.49 0.65218 0.01
9 8 4 o 11.037 11.358 -110.83 0.65218 0.10
11 6 2 o 6.061 6.237 -19.89 0.65218 0.05
10 6 5 o 3.811 3.921 45.37 0.65218 0.03
12 3 3 o 0.171 0.173 90.00 0.65017 0.00
11 5 4 o 0.775 0.784 63.89 0.65017 0.01
8 7 7 o 0.019 0.019 -90.00 0.65017 0.00
9 9 0 o 20.490 20.723 -90.00 0.65017 0.04
9 9 1 o 71.230 69.392 135.00 0.64817 0.30
12 4 2 o 2.922 2.704 93.16 0.64619 0.02
8 8 6 o 3.972 3.675 -90.00 0.64619 0.02
10 8 0 o 0.492 0.455 -180.00 0.64619 0.00
10 7 4 o 3.311 2.919 7.63 0.64423 0.03
10 8 1 o 0.191 0.168 21.52 0.64423 0.00
11 6 3 o 6.223 5.142 139.04 0.64229 0.05
9 7 6 o 1.118 0.924 -57.84 0.64229 0.01
9 9 2 o 3.382 2.795 -180.00 0.64229 0.01
10 8 2 o 0.872 0.709 -46.80 0.63845 0.01
12 5 0 o 8.703 7.465 0.00 0.63656 0.03
12 4 3 o 0.902 0.773 -150.57 0.63656 0.01
12 5 1 o 0.754 0.682 103.90 0.63468 0.01
13 1 0 o 14.302 12.935 90.00 0.63468 0.06
9 8 5 o 4.047 3.660 67.25 0.63468 0.03
11 7 0 o 0.044 0.040 -90.00 0.63468 0.00
11 5 5 o 9.240 8.575 45.00 0.63283 0.04
9 9 3 o 59.483 55.204 45.00 0.63283 0.23
11 7 1 o 0.223 0.207 24.00 0.63283 0.00
13 1 1 o 61.336 56.924 -45.00 0.63283 0.23
10 6 6 o 19.650 17.755 -90.00 0.63098 0.07
13 2 0 o 0.087 0.075 -90.00 0.62916 0.00
12 5 2 o 0.942 0.814 56.81 0.62916 0.01
11 6 4 o 5.331 4.609 83.08 0.62916 0.04
10 8 3 o 0.645 0.557 87.63 0.62916 0.00
8 8 7 o 2.406 2.358 -45.00 0.62201 0.01
13 2 2 o 0.100 0.098 -135.00 0.62201 0.00
13 2 1 o 0.519 0.441 24.75 0.62735 0.00
11 7 2 o 8.527 7.248 -168.05 0.62735 0.06
10 7 5 o 1.139 0.968 -154.45 0.62735 0.01
13 3 0 o 10.239 10.322 -90.00 0.62026 0.04
12 5 3 o 1.092 1.101 -80.46 0.62026 0.01
9 9 4 o 11.360 11.452 90.00 0.62026 0.04
9 7 7 o 12.922 12.828 135.00 0.61852 0.05
11 7 3 o 0.070 0.070 -151.95 0.61852 0.00
13 3 1 o 49.622 49.262 -131.72 0.61852 0.35
12 4 4 o 115.183 106.850 180.00 0.62377 0.42
12 6 0 o 0.176 0.165 0.00 0.61680 0.00
10 8 4 o 1.375 1.290 -62.82 0.61680 0.01
12 6 1 o 0.117 0.100 14.68 0.61510 0.00
9 8 6 o 5.753 4.926 -10.72 0.61510 0.04
10 9 0 o 0.500 0.428 -180.00 0.61510 0.00
13 3 2 o 0.116 0.091 -114.99 0.61340 0.00
10 9 1 o 0.368 0.290 -110.76 0.61340 0.00
11 6 5 o 3.038 2.398 -100.33 0.61340 0.02
12 6 2 o 0.503 0.412 57.77 0.61006 0.00
13 4 0 o 4.392 4.019 90.00 0.60841 0.01
11 8 0 o 0.000 0.000 90.00 0.60841 0.00
10 7 6 o 1.643 1.503 74.07 0.60841 0.01
12 5 4 o 5.581 5.107 177.51 0.60841 0.04
10 9 2 o 2.844 2.603 57.56 0.60841 0.02
13 4 1 o 17.373 17.094 -104.23 0.60677 0.11
11 8 1 o 0.239 0.235 -57.81 0.60677 0.00
11 7 4 o 0.113 0.111 -121.22 0.60677 0.00
13 3 3 o 41.198 40.139 -45.00 0.60515 0.13
9 9 5 o 43.761 42.635 -45.00 0.60515 0.14
12 6 3 o 1.613 1.255 -36.85 0.60194 0.01
10 8 5 o 2.350 1.829 -94.33 0.60194 0.01
13 4 2 o 0.958 0.745 -170.83 0.60194 0.01
11 8 2 o 1.433 1.115 11.40 0.60194 0.01
10 9 3 o 0.013 0.009 152.26 0.60035 0.00
8 8 8 o 130.348 107.503 0.00 0.59722 0.13
11 6 6 o 3.214 2.838 135.00 0.59567 0.01
12 7 0 o 0.291 0.257 0.00 0.59567 0.00
13 4 3 o 6.236 5.739 -56.12 0.59413 0.04
9 8 7 o 0.441 0.406 -141.34 0.59413 0.00
11 8 3 o 0.254 0.234 -35.53 0.59413 0.00
12 7 1 o 0.344 0.317 90.88 0.59413 0.00
12 5 5 o 0.270 0.248 -90.00 0.59413 0.00
13 5 0 o 22.911 21.085 -90.00 0.59413 0.07
13 5 1 o 53.059 49.014 137.30 0.59260 0.31
11 7 5 o 1.872 1.729 146.35 0.59260 0.01
12 6 4 o 1.296 1.153 -97.44 0.59109 0.01
10 9 4 o 3.566 2.964 1.17 0.58959 0.02
12 7 2 o 1.823 1.515 91.45 0.58959 0.01
14 1 0 o 3.052 2.537 0.00 0.58959 0.01
10 7 7 o 0.039 0.030 0.00 0.58810 0.00
13 5 2 o 1.329 1.026 -163.80 0.58810 0.01
14 1 1 o 0.158 0.122 180.00 0.58810 0.00
9 9 6 o 4.302 3.319 0.00 0.58810 0.01
10 10 0 o 7.806 6.109 0.00 0.58515 0.01
10 8 6 o 4.532 3.547 167.43 0.58515 0.03
14 2 0 o 0.426 0.333 180.00 0.58515 0.00
13 4 4 o 4.280 3.593 -135.00 0.58369 0.01
10 10 1 o 5.384 4.520 45.00 0.58369 0.01
11 8 4 o 1.086 0.912 -48.85 0.58369 0.01
14 2 1 o 2.289 1.921 -138.94 0.58369 0.01
12 7 3 o 0.145 0.131 -160.18 0.58225 0.00
11 9 0 o 0.135 0.122 90.00 0.58225 0.00
13 5 3 o 49.514 46.760 40.53 0.58081 0.27
11 9 1 o 10.660 10.067 45.20 0.58081 0.06
14 2 2 o 45.230 42.461 90.00 0.57939 0.12
10 10 2 o 20.892 19.613 -90.00 0.57939 0.06
12 6 5 o 1.854 1.680 -32.56 0.57797 0.01
13 6 0 o 0.000 0.000 90.00 0.57797 0.00
14 3 0 o 0.146 0.132 0.00 0.57797 0.00
10 9 5 o 3.259 2.878 2.20 0.57657 0.02
11 9 2 o 0.619 0.547 -98.65 0.57657 0.00
11 7 6 o 4.210 3.718 14.63 0.57657 0.02
14 3 1 o 0.865 0.764 -15.71 0.57657 0.00
13 6 1 o 0.341 0.301 138.77 0.57657 0.00
12 8 0 o 91.093 82.125 180.00 0.57379 0.24
10 10 3 o 2.835 2.478 -45.00 0.57241 0.01
14 3 2 o 0.001 0.001 66.73 0.57241 0.00
9 8 8 o 7.544 6.595 45.00 0.57241 0.02
12 8 1 o 0.984 0.860 -38.25 0.57241 0.01
12 7 4 o 1.400 1.224 -43.37 0.57241 0.01
13 6 2 o 1.702 1.488 23.77 0.57241 0.01
13 5 4 o 14.990 12.299 108.55 0.57105 0.08
11 8 5 o 1.147 0.941 93.91 0.57105 0.01
11 9 3 o 9.820 7.478 128.36 0.56969 0.05
9 9 7 o 38.068 28.988 -135.00 0.56969 0.10
12 8 2 o 7.732 5.436 -92.70 0.56835 0.04
14 4 0 o 0.069 0.048 -180.00 0.56835 0.00
10 8 7 o 3.904 2.563 -91.96 0.56701 0.02
14 4 1 o 0.544 0.357 36.69 0.56701 0.00
13 6 3 o 0.240 0.154 -41.16 0.56569 0.00
14 3 3 o 5.327 3.421 0.00 0.56569 0.01
14 4 2 o 0.596 0.431 -2.99 0.56306 0.00
12 6 6 o 2.600 1.882 -180.00 0.56306 0.01
10 10 4 o 8.356 6.048 -180.00 0.56306 0.02
12 8 3 o 2.050 1.596 -37.56 0.56176 0.01
10 9 6 o 4.045 3.149 -127.80 0.56176 0.02
12 7 5 o 1.251 1.028 -61.06 0.56047 0.01
13 7 0 o 0.933 0.767 90.00 0.56047 0.00
11 9 4 o 0.585 0.481 -132.56 0.56047 0.00
13 5 5 o 43.913 37.045 -45.00 0.55919 0.10
13 7 1 o 31.829 26.851 47.64 0.55919 0.15
11 7 7 o 1.435 1.211 45.00 0.55919 0.00
11 10 0 o 7.940 6.738 90.00 0.55666 0.02
11 8 6 o 1.771 1.503 -179.17 0.55666 0.01
13 6 4 o 1.405 1.192 -73.49 0.55666 0.01
14 5 0 o 0.808 0.686 -180.00 0.55666 0.00
14 4 3 o 0.345 0.293 -39.60 0.55666 0.00
13 7 2 o 0.327 0.289 -44.45 0.55540 0.00
11 10 1 o 1.866 1.654 -88.44 0.55540 0.01
14 5 1 o 0.183 0.162 -120.51 0.55540 0.00
12 8 4 o 73.081 73.897 -0.01 0.55292 0.33
14 5 2 o 2.418 2.478 75.12 0.55169 0.01
10 10 5 o 6.449 6.608 -135.00 0.55169 0.01
12 9 0 o 11.492 11.776 -180.00 0.55169 0.03
11 10 2 o 5.195 5.324 -168.35 0.55169 0.02
12 9 1 o 0.764 0.767 -173.22 0.55046 0.00
9 9 8 o 4.878 4.901 -90.00 0.55046 0.01
15 1 0 o 1.157 1.163 -90.00 0.55046 0.00
11 9 5 o 9.443 9.155 -137.18 0.54925 0.04
15 1 1 o 0.118 0.115 -135.00 0.54925 0.00
13 7 3 o 26.066 25.271 135.98 0.54925 0.11
10 8 8 o 5.186 4.862 90.00 0.54804 0.01
14 4 4 o 0.218 0.204 -90.00 0.54804 0.00
12 9 2 o 4.694 4.311 -75.72 0.54685 0.02
12 7 6 o 1.771 1.626 -71.53 0.54685 0.01
15 2 0 o 0.025 0.023 -90.00 0.54685 0.00
15 2 1 o 6.302 5.621 10.75 0.54566 0.03
14 5 3 o 0.626 0.558 45.15 0.54566 0.00
10 9 7 o 0.839 0.748 170.09 0.54566 0.00
13 6 5 o 2.300 2.051 3.76 0.54566 0.01
11 10 3 o 1.527 1.362 -48.16 0.54566 0.01
14 6 0 o 3.125 2.689 0.00 0.54330 0.01
15 2 2 o 0.656 0.589 -45.00 0.54213 0.00
12 8 5 o 1.095 0.983 89.58 0.54213 0.00
14 6 1 o 4.167 3.741 47.26 0.54213 0.02
13 8 0 o 7.067 6.345 -90.00 0.54213 0.01
11 8 7 o 0.163 0.154 -55.24 0.54097 0.00
13 7 4 o 2.528 2.389 -124.31 0.54097 0.01
13 8 1 o 8.575 8.104 45.22 0.54097 0.04
12 9 3 o 0.169 0.160 117.42 0.54097 0.00
15 3 0 o 0.054 0.051 90.00 0.54097 0.00
15 3 1 o 0.407 0.406 -23.57 0.53982 0.00
14 6 2 o 29.366 30.556 -89.98 0.53867 0.12
10 10 6 o 22.036 22.929 90.00 0.53867 0.04
13 8 2 o 3.328 3.487 -15.27 0.53754 0.01
11 10 4 o 4.100 4.296 -95.82 0.53754 0.02
14 5 4 o 2.719 2.848 16.24 0.53754 0.01
11 9 6 o 0.638 0.655 61.18 0.53641 0.00
15 3 2 o 6.206 6.371 -158.45 0.53641 0.02
14 6 3 o 2.623 2.966 -74.25 0.53306 0.01
15 4 0 o 0.048 0.054 90.00 0.53306 0.00
12 9 4 o 8.177 9.245 5.01 0.53306 0.03
13 6 6 o 1.669 1.887 -135.00 0.53306 0.00
13 8 3 o 4.218 4.973 130.31 0.53196 0.02
15 4 1 o 0.054 0.064 -37.71 0.53196 0.00
11 11 0 o 0.036 0.043 90.00 0.53196 0.00
12 7 7 o 0.177 0.209 -90.00 0.53196 0.00
11 11 1 o 0.353 0.424 135.00 0.53086 0.00
9 9 9 o 25.210 30.307 135.00 0.53086 0.02
13 7 5 o 20.217 24.305 -128.95 0.53086 0.08
15 3 3 o 0.201 0.242 -135.00 0.53086 0.00
12 10 0 o 0.496 0.595 180.00 0.52977 0.00
12 8 6 o 5.221 6.256 92.12 0.52977 0.02
10 9 8 o 1.563 1.856 -168.88 0.52869 0.01
15 4 2 o 0.084 0.100 83.69 0.52869 0.00
14 7 0 o 0.895 1.063 0.00 0.52869 0.00
12 10 1 o 0.168 0.200 -30.46 0.52869 0.00
14 7 1 o 1.932 2.341 173.08 0.52761 0.01
11 11 2 o 1.399 1.694 0.00 0.52761 0.00
11 10 5 o 0.635 0.769 96.22 0.52761 0.00
14 5 5 o 1.350 1.635 0.00 0.52761 0.00
14 6 4 o 1.438 1.965 176.74 0.52548 0.01
12 10 2 o 0.754 1.030 -127.81 0.52548 0.00
13 8 4 o 6.417 8.937 69.74 0.52442 0.02
10 10 7 o 0.008 0.012 -45.00 0.52442 0.00
11 8 8 o 0.282 0.392 135.00 0.52442 0.00
14 7 2 o 1.100 1.531 60.26 0.52442 0.00
12 9 5 o 0.096 0.132 -19.57 0.52337 0.00
15 5 0 o 0.007 0.010 90.00 0.52337 0.00
15 4 3 o 0.534 0.733 -79.77 0.52337 0.00
13 9 0 o 4.600 6.318 90.00 0.52337 0.01
11 9 7 o 2.111 2.815 -59.02 0.52233 0.01
13 9 1 o 21.505 28.674 -41.48 0.52233 0.08
15 5 1 o 0.738 0.985 56.53 0.52233 0.00
11 11 3 o 0.461 0.614 45.00 0.52233 0.00
12 10 3 o 0.378 0.481 164.11 0.52026 0.00
13 9 2 o 1.688 2.192 -4.46 0.51924 0.01
14 7 3 o 0.838 1.089 -179.25 0.51924 0.00
15 5 2 o 1.199 1.556 -37.00 0.51924 0.00
13 7 6 o 0.223 0.289 147.71 0.51924 0.00
14 8 0 o 0.408 0.589 0.00 0.51321 0.00
12 10 4 o 1.437 2.072 62.34 0.51321 0.00
16 2 0 o 0.064 0.092 180.00 0.51321 0.00
16 0 0 o 21.004 28.771 0.00 0.51720 0.01
15 6 0 o 1.076 1.586 90.00 0.51223 0.00
14 7 4 o 0.797 1.174 -164.64 0.51223 0.00
14 8 1 o 0.573 0.845 -136.90 0.51223 0.00
16 2 1 o 0.518 0.763 -1.57 0.51223 0.00
12 9 6 o 2.185 3.221 87.16 0.51223 0.01
15 4 4 o 0.447 0.611 -45.00 0.51620 0.00
14 6 5 o 4.055 5.551 -131.08 0.51620 0.01
12 8 7 o 0.762 1.043 170.93 0.51620 0.00
16 1 0 o 0.001 0.002 180.00 0.51620 0.00
11 10 6 o 2.330 3.189 -26.41 0.51620 0.01
10 9 9 o 1.248 1.840 -180.00 0.51125 0.00
15 6 1 o 3.617 5.333 -131.43 0.51125 0.01
16 1 1 o 0.353 0.482 90.00 0.51520 0.00
13 8 5 o 5.818 7.948 -113.29 0.51520 0.02
11 11 4 o 0.194 0.266 -90.00 0.51520 0.00
15 5 3 o 0.829 1.156 106.26 0.51420 0.00
13 9 3 o 20.250 28.234 -142.26 0.51420 0.07
16 2 2 o 0.164 0.228 0.00 0.50931 0.00
14 8 2 o 0.163 0.227 155.52 0.50931 0.00
10 10 8 o 2.474 3.450 0.00 0.50931 0.00
15 6 2 o 0.685 0.937 163.79 0.50835 0.00
12 11 0 o 0.262 0.358 0.00 0.50835 0.00
16 3 0 o 0.042 0.058 0.00 0.50835 0.00
16 3 1 o 0.092 0.125 114.12 0.50739 0.00
13 9 4 o 4.895 6.699 -82.00 0.50739 0.02
15 5 4 o 0.493 0.674 -98.73 0.50739 0.00
12 11 1 o 0.424 0.580 -26.99 0.50739 0.00
11 9 8 o 0.852 1.166 25.84 0.50739 0.00
11 11 5 o 0.049 0.068 -45.00 0.50644 0.00
13 7 7 o 7.983 10.980 -45.00 0.50644 0.01
14 6 6 o 18.160 25.135 90.00 0.50549 0.03
13 8 6 o 1.501 2.106 -178.81 0.50455 0.00
12 10 5 o 0.593 0.831 -163.23 0.50455 0.00
13 10 0 o 0.158 0.221 -90.00 0.50455 0.00
12 11 2 o 0.347 0.487 -76.27 0.50455 0.00
16 3 2 o 1.046 1.468 114.68 0.50455 0.00
14 8 3 o 0.144 0.202 -165.62 0.50455 0.00
11 10 7 o 0.339 0.481 82.77 0.50362 0.00
14 7 5 o 0.440 0.625 -16.18 0.50362 0.00
13 10 1 o 0.538 0.764 -7.43 0.50362 0.00
15 6 3 o 4.030 5.723 -33.12 0.50362 0.01
16 4 0 o 17.706 25.520 180.00 0.50176 0.03
12 8 8 o 37.222 53.648 -180.00 0.50176 0.06
13 10 2 o 0.688 1.005 -175.25 0.50084 0.00
16 4 1 o 0.576 0.842 -32.87 0.50084 0.00
12 9 7 o 0.997 1.465 -39.77 0.49993 0.00
15 7 0 o 0.148 0.218 -90.00 0.49993 0.00
12 11 3 o 0.015 0.021 -82.08 0.49993 0.00
16 3 3 o 0.032 0.047 90.00 0.49993 0.00
