#------------------------------------------------------------------------------
#$Date: 2016-03-17 13:15:08 +0200 (Thu, 17 Mar 2016) $
#$Revision: 178232 $
#$URL: svn://www.crystallography.net/cod/cif/4/00/06/4000617.cif $
#------------------------------------------------------------------------------
#
# This file is available in the Crystallography Open Database (COD),
# http://www.crystallography.net/
#
# All data on this site have been placed in the public domain by the
# contributors.
#
data_4000617
loop_
_publ_author_name
'Thundathil, Mary A.'
'Jones, Camille Y.'
'Snyder, G. Jeffrey'
'Haile, Sossina M.'
_publ_section_title
;
 Nonstoichiometry, Structure, and Electrical Properties of "SrPrO~3~"
;
_journal_coden_ASTM              CMATEX
_journal_issue                   20
_journal_name_full               'Chemistry of Materials'
_journal_page_first              5146
_journal_page_last               5154
_journal_paper_doi               10.1021/cm050895k
_journal_volume                  17
_journal_year                    2005
_chemical_formula_sum            'O Pr0.33 Sr0.32'
_chemical_formula_weight         91.10
_symmetry_cell_setting           orthorhombic
_symmetry_space_group_name_H-M   'P b n m'
_audit_author_name               mary
_audit_creation_date             2004-06-07T16:29
_audit_creation_method           'from EXP file using GSAS2CIF'
_audit_update_record
' 2004-06-07T16:29  Initial CIF as created by GSAS2CIF'
_cell_angle_alpha                90.0
_cell_angle_beta                 90.0
_cell_angle_gamma                90.0
_cell_formula_units_Z            12
_cell_length_a                   5.97469(17)
_cell_length_b                   6.11883(17)
_cell_length_c                   8.53249(24)
_cell_volume                     311.93158
_computing_structure_refinement  GSAS
_diffrn_radiation_probe          neutron
_diffrn_radiation_wavelength     1.5398
_exptl_absorpt_correction_T_max  1.00000
_exptl_absorpt_correction_T_min  1.00000
_exptl_absorpt_process_details
;   GSAS Absorption/surface roughness correction: function number 0
 No correction is applied.
;
_pd_block_id                     2004-06-07T16:29|SRPRO3_80K_PBNM|mary|1
_pd_calc_method                  'Rietveld Refinement'
_pd_meas_2theta_range_inc        0.05
_pd_meas_2theta_range_max        167.95
_pd_meas_2theta_range_min        3.0
_pd_meas_number_of_points        3300
_pd_phase_name                   SrPrO3_300K
_pd_proc_2theta_range_inc        0.05
_pd_proc_2theta_range_max        167.9933
_pd_proc_2theta_range_min        3.0433
_pd_proc_info_datetime           2004-06-07T16:29:39
_pd_proc_ls_background_function
;   GSAS Background function number 1 with 14 terms.
 Shifted Chebyshev function of 1st kind
      1:    129.690     2:   -19.8403     3:    26.9325     4:    4.65874    
      5:    6.62281     6:   -1.85601     7:    4.64037     8:   -2.60379    
      9:    3.50988    10:   0.618197    11:   0.794745    12:  -0.423208    
     13:    1.69707    14:   -1.71819    
;
_pd_proc_ls_peak_cutoff          0.00500
_pd_proc_ls_profile_function
;
 CW Profile function number 1 with   6 terms
 Profile coefficients for Simpson's rule integration of Gaussian function
 C.J. Howard (1982). J. Appl. Cryst.,15,615-620.
 Cooper & Sayer, J. Appl. Cryst., 8, 615-618 (1975).
 Thomas, J. Appl. Cryst., 10, 12-13(1977).
 #1(U)    =  336.822 #2(V)    = -348.014 #3(W)    =  209.563
 #4(asym) =  -0.3932 #5(F1)   =    0.000 #6(F2)   =    0.000
 Peak tails are ignored  where the intensity is below 0.0050 times the peak
   Aniso. broadening axis   0.0   0.0   1.0
;
_pd_proc_ls_prof_R_factor        0.0314
_pd_proc_ls_prof_wR_expected     0.0342
_pd_proc_ls_prof_wR_factor       0.0397
_pd_proc_number_of_points        3300
_refine_ls_goodness_of_fit_all   1.17
_refine_ls_matrix_type           full
_refine_ls_number_parameters     52
_refine_ls_number_restraints     0
_refine_ls_R_Fsqd_factor         0.04961
_refine_ls_shift/su_max          0.00
_refine_ls_shift/su_mean         0.00
_reflns_d_resolution_high        0.782
_reflns_d_resolution_low         4.894
_reflns_limit_h_max              7
_reflns_limit_h_min              0
_reflns_limit_k_max              7
_reflns_limit_k_min              0
_reflns_limit_l_max              10
_reflns_limit_l_min              0
_reflns_number_observed          349
_cod_data_source_file            cm050895ksi20050629_010526.cif
_cod_data_source_block           SRPRO3_80K_PBNM_publ
_cod_depositor_comments
;
The following automatic conversions were performed:
'_geom_bond_publ_flag' value 'N' changed to 'n' according to
'/home/saulius/struct/CIF-dictionaries/cif_core.dic' dictionary named
'cif_core.dic' version 2.4.1 from 2010-06-29 (45 times).

Automatic conversion script
Id: cif_fix_enum 1527 2010-12-29 10:47:43Z saulius 
;
_cod_database_code               4000617
#BEGIN Tags that were not found in dictionaries:
_gsas_exptl_extinct_corr_t_min   1.00000
_gsas_exptl_extinct_corr_t_max   1.00000
#END Tags that were not found in dictionaries
loop_
_symmetry_equiv_pos_site_id
_symmetry_equiv_pos_as_xyz
1 +x,+y,+z
2 -x+1/2,+y+1/2,+z
3 +x+1/2,-y+1/2,+z+1/2
4 -x,-y,+z+1/2
-1 -x,-y,-z
-2 +x+1/2,-y+1/2,-z
-3 -x+1/2,+y+1/2,-z+1/2
-4 +x,+y,-z+1/2
loop_
_atom_site_aniso_label
_atom_site_aniso_U_11
_atom_site_aniso_U_12
_atom_site_aniso_U_13
_atom_site_aniso_U_22
_atom_site_aniso_U_23
_atom_site_aniso_U_33
SR1 0.0056(7) -0.0018(6) 0.0 0.0063(6) 0.0 0.0049(6)
PR2 0.0025(10) -0.0026(8) 0.0004(9) 0.0054(10) -0.0010(5) 0.0016(8)
O1 0.0113(7) -0.0009(6) 0.0 0.0082(6) 0.0 0.0008(7)
O2 0.0110(5) -0.0029(5) 0.0021(5) 0.0070(5) -0.0019(4) 0.0104(5)
loop_
_atom_site_type_symbol
_atom_site_label
_atom_site_fract_x
_atom_site_fract_y
_atom_site_fract_z
_atom_site_occupancy
_atom_site_thermal_displace_type
_atom_site_U_iso_or_equiv
_atom_site_symmetry_multiplicity
SR SR1 -0.01122(25) 0.04620(19) 0.25 0.963(6) Uani 0.0056 4
PR PR2 0.0 0.5 0.0 1.000(7) Uani 0.00318 4
O O1 0.10509(28) 0.45684(26) 0.25 1.0 Uani 0.00677 4
O O2 0.70067(18) 0.29863(20) 0.05634(14) 1.0 Uani 0.00946 8
loop_
_atom_type_symbol
_atom_type_number_in_cell
_atom_type_scat_length_neutron
_atom_type_scat_source
SR 3.854 0.7020 International_Tables_Vol_C
PR 4.0 0.4580 International_Tables_Vol_C
O 12.0 0.5803 International_Tables_Vol_C
loop_
_geom_angle_atom_site_label_1
_geom_angle_atom_site_label_2
_geom_angle_atom_site_label_3
_geom_angle
_geom_angle_site_symmetry_1
_geom_angle_site_symmetry_2
_geom_angle_site_symmetry_3
_geom_angle_publ_flag
SR1 SR1 SR1 93.99(6) 2_445 . 2_455 n
SR1 SR1 PR2 52.783(6) 2_445 . 1_545 n
SR1 SR1 PR2 126.36(4) 2_445 . 1_555 n
SR1 SR1 PR2 52.694(31) 2_445 . 2_445 n
SR1 SR1 PR2 120.148(22) 2_445 . 2_545 n
SR1 SR1 PR2 52.694(31) 2_445 . 3_455 n
SR1 SR1 PR2 120.148(22) 2_445 . 3_555 n
SR1 SR1 PR2 52.783(6) 2_445 . 4_555 n
SR1 SR1 PR2 126.36(4) 2_445 . 4_565 n
SR1 SR1 O1 152.46(7) 2_445 . 1_555 n
SR1 SR1 O1 120.30(5) 2_445 . 2_545 n
SR1 SR1 O2 89.10(5) 2_445 . 1_455 n
SR1 SR1 O2 41.535(34) 2_445 . 2_545 n
SR1 SR1 O2 41.535(34) 2_445 . -3_656 n
SR1 SR1 O2 89.10(5) 2_445 . -4_456 n
SR1 SR1 PR2 128.89(4) 2_455 . 1_545 n
SR1 SR1 PR2 55.474(7) 2_455 . 1_555 n
SR1 SR1 PR2 60.522(33) 2_455 . 2_445 n
SR1 SR1 PR2 127.799(22) 2_455 . 2_545 n
SR1 SR1 PR2 60.522(33) 2_455 . 3_455 n
SR1 SR1 PR2 127.799(22) 2_455 . 3_555 n
SR1 SR1 PR2 128.89(4) 2_455 . 4_555 n
SR1 SR1 PR2 55.474(7) 2_455 . 4_565 n
SR1 SR1 O1 58.46(4) 2_455 . 1_555 n
SR1 SR1 O1 145.70(6) 2_455 . 2_545 n
SR1 SR1 O2 35.860(28) 2_455 . 1_455 n
SR1 SR1 O2 97.68(6) 2_455 . 2_545 n
SR1 SR1 O2 97.68(6) 2_455 . -3_656 n
SR1 SR1 O2 35.860(28) 2_455 . -4_456 n
PR2 SR1 PR2 109.8932(35) 1_545 . 1_555 n
PR2 SR1 PR2 68.383(16) 1_545 . 2_445 n
PR2 SR1 PR2 67.374(16) 1_545 . 2_545 n
PR2 SR1 PR2 105.323(32) 1_545 . 3_455 n
PR2 SR1 PR2 103.270(30) 1_545 . 3_555 n
PR2 SR1 PR2 65.087(18) 1_545 . 4_555 n
PR2 SR1 PR2 174.606(25) 1_545 . 4_565 n
PR2 SR1 O1 143.883(28) 1_545 . 1_555 n
PR2 SR1 O1 78.36(4) 1_545 . 2_545 n
PR2 SR1 O2 98.946(32) 1_545 . 1_455 n
PR2 SR1 O2 31.268(29) 1_545 . 2_545 n
PR2 SR1 O2 81.56(4) 1_545 . -3_656 n
PR2 SR1 O2 141.35(5) 1_545 . -4_456 n
PR2 SR1 PR2 73.681(17) 1_555 . 2_445 n
PR2 SR1 PR2 72.338(18) 1_555 . 2_545 n
PR2 SR1 PR2 115.81(4) 1_555 . 3_455 n
PR2 SR1 PR2 113.08(4) 1_555 . 3_555 n
PR2 SR1 PR2 174.606(25) 1_555 . 4_555 n
PR2 SR1 PR2 75.048(23) 1_555 . 4_565 n
PR2 SR1 O1 39.710(17) 1_555 . 1_555 n
PR2 SR1 O1 98.95(4) 1_555 . 2_545 n
PR2 SR1 O2 39.345(24) 1_555 . 1_455 n
PR2 SR1 O2 94.940(33) 1_555 . 2_545 n
PR2 SR1 O2 152.58(6) 1_555 . -3_656 n
PR2 SR1 O2 86.26(4) 1_555 . -4_456 n
PR2 SR1 PR2 108.452(4) 2_445 . 2_545 n
PR2 SR1 PR2 72.038(28) 2_445 . 3_455 n
PR2 SR1 PR2 171.11(4) 2_445 . 3_555 n
PR2 SR1 PR2 105.323(32) 2_445 . 4_555 n
PR2 SR1 PR2 115.81(4) 2_445 . 4_565 n
PR2 SR1 O1 106.84(4) 2_445 . 1_555 n
PR2 SR1 O1 140.196(24) 2_445 . 2_545 n
PR2 SR1 O2 38.089(27) 2_445 . 1_455 n
PR2 SR1 O2 37.173(30) 2_445 . 2_545 n
PR2 SR1 O2 88.69(5) 2_445 . -3_656 n
PR2 SR1 O2 84.07(4) 2_445 . -4_456 n
PR2 SR1 PR2 171.11(4) 2_545 . 3_455 n
PR2 SR1 PR2 69.630(26) 2_545 . 3_555 n
PR2 SR1 PR2 103.270(30) 2_545 . 4_555 n
PR2 SR1 PR2 113.08(4) 2_545 . 4_565 n
PR2 SR1 O1 81.66(4) 2_545 . 1_555 n
PR2 SR1 O1 35.498(15) 2_545 . 2_545 n
PR2 SR1 O2 101.788(25) 2_545 . 1_455 n
PR2 SR1 O2 86.971(34) 2_545 . 2_545 n
PR2 SR1 O2 134.31(5) 2_545 . -3_656 n
PR2 SR1 O2 150.24(5) 2_545 . -4_456 n
PR2 SR1 PR2 108.452(4) 3_455 . 3_555 n
PR2 SR1 PR2 68.383(16) 3_455 . 4_555 n
PR2 SR1 PR2 73.681(17) 3_455 . 4_565 n
PR2 SR1 O1 106.84(4) 3_455 . 1_555 n
PR2 SR1 O1 140.196(24) 3_455 . 2_545 n
PR2 SR1 O2 84.07(4) 3_455 . 1_455 n
PR2 SR1 O2 88.69(5) 3_455 . 2_545 n
PR2 SR1 O2 37.173(30) 3_455 . -3_656 n
PR2 SR1 O2 38.089(27) 3_455 . -4_456 n
PR2 SR1 PR2 67.374(16) 3_555 . 4_555 n
PR2 SR1 PR2 72.338(18) 3_555 . 4_565 n
PR2 SR1 O1 81.66(4) 3_555 . 1_555 n
PR2 SR1 O1 35.498(15) 3_555 . 2_545 n
PR2 SR1 O2 150.24(5) 3_555 . 1_455 n
PR2 SR1 O2 134.31(5) 3_555 . 2_545 n
PR2 SR1 O2 86.971(34) 3_555 . -3_656 n
PR2 SR1 O2 101.788(25) 3_555 . -4_456 n
PR2 SR1 PR2 109.8932(35) 4_555 . 4_565 n
PR2 SR1 O1 143.883(28) 4_555 . 1_555 n
PR2 SR1 O1 78.36(4) 4_555 . 2_545 n
PR2 SR1 O2 141.35(5) 4_555 . 1_455 n
PR2 SR1 O2 81.56(4) 4_555 . 2_545 n
PR2 SR1 O2 31.268(29) 4_555 . -3_656 n
PR2 SR1 O2 98.946(32) 4_555 . -4_456 n
PR2 SR1 O1 39.710(17) 4_565 . 1_555 n
PR2 SR1 O1 98.95(4) 4_565 . 2_545 n
PR2 SR1 O2 86.26(4) 4_565 . 1_455 n
PR2 SR1 O2 152.58(6) 4_565 . 2_545 n
PR2 SR1 O2 94.940(33) 4_565 . -3_656 n
PR2 SR1 O2 39.345(24) 4_565 . -4_456 n
O1 SR1 O1 87.24(5) 1_555 . 2_545 n
O1 SR1 O2 68.76(5) 1_555 . 1_455 n
O1 SR1 O2 134.55(4) 1_555 . 2_545 n
O1 SR1 O2 134.55(4) 1_555 . -3_656 n
O1 SR1 O2 68.76(5) 1_555 . -4_456 n
O1 SR1 O2 135.26(4) 2_545 . 1_455 n
O1 SR1 O2 107.88(5) 2_545 . 2_545 n
O1 SR1 O2 107.88(5) 2_545 . -3_656 n
O1 SR1 O2 135.26(4) 2_545 . -4_456 n
O2 SR1 O2 70.87(4) 1_455 . 2_545 n
O2 SR1 O2 115.94(6) 1_455 . -3_656 n
O2 SR1 O2 71.09(5) 1_455 . -4_456 n
O2 SR1 O2 82.30(7) 2_545 . -3_656 n
O2 SR1 O2 115.94(6) 2_545 . -4_456 n
O2 SR1 O2 70.87(4) -3_656 . -4_456 n
SR1 PR2 SR1 109.8932(35) 1_555 . 1_565 n
SR1 PR2 SR1 71.832(28) 1_555 . 2_455 n
SR1 PR2 SR1 74.210(28) 1_555 . 2_555 n
SR1 PR2 SR1 105.790(28) 1_555 . 3_454 n
SR1 PR2 SR1 108.168(28) 1_555 . 3_554 n
SR1 PR2 SR1 70.1068(35) 1_555 . 4_554 n
SR1 PR2 SR1 179.972 1_555 . 4_564 n
SR1 PR2 O1 48.06(4) 1_555 . 1_555 n
SR1 PR2 O1 131.94(4) 1_555 . 4_564 n
SR1 PR2 O2 54.11(4) 1_555 . 1_455 n
SR1 PR2 O2 120.42(4) 1_555 . 2_555 n
SR1 PR2 O2 125.89(4) 1_555 . -1_665 n
SR1 PR2 O2 59.58(4) 1_555 . -2_565 n
SR1 PR2 SR1 66.695(29) 1_565 . 2_455 n
SR1 PR2 SR1 69.080(30) 1_565 . 2_555 n
SR1 PR2 SR1 110.920(30) 1_565 . 3_454 n
SR1 PR2 SR1 113.305(29) 1_565 . 3_554 n
SR1 PR2 SR1 180.0 1_565 . 4_554 n
SR1 PR2 SR1 70.1068(35) 1_565 . 4_564 n
SR1 PR2 O1 65.90(4) 1_565 . 1_555 n
SR1 PR2 O1 114.10(4) 1_565 . 4_564 n
SR1 PR2 O2 109.70(4) 1_565 . 1_455 n
SR1 PR2 O2 35.625(35) 1_565 . 2_555 n
SR1 PR2 O2 70.30(4) 1_565 . -1_665 n
SR1 PR2 O2 144.375(35) 1_565 . -2_565 n
SR1 PR2 SR1 108.452(4) 2_455 . 2_555 n
SR1 PR2 SR1 71.548(4) 2_455 . 3_454 n
SR1 PR2 SR1 180.0 2_455 . 3_554 n
SR1 PR2 SR1 113.305(29) 2_455 . 4_554 n
SR1 PR2 SR1 108.168(28) 2_455 . 4_564 n
SR1 PR2 O1 71.02(4) 2_455 . 1_555 n
SR1 PR2 O1 108.98(4) 2_455 . 4_564 n
SR1 PR2 O2 43.012(35) 2_455 . 1_455 n
SR1 PR2 O2 51.59(4) 2_455 . 2_555 n
SR1 PR2 O2 136.988(35) 2_455 . -1_665 n
SR1 PR2 O2 128.41(4) 2_455 . -2_565 n
SR1 PR2 SR1 179.9802 2_555 . 3_454 n
SR1 PR2 SR1 71.548(4) 2_555 . 3_554 n
SR1 PR2 SR1 110.920(30) 2_555 . 4_554 n
SR1 PR2 SR1 105.790(28) 2_555 . 4_564 n
SR1 PR2 O1 40.17(4) 2_555 . 1_555 n
SR1 PR2 O1 139.83(4) 2_555 . 4_564 n
SR1 PR2 O2 125.16(4) 2_555 . 1_455 n
SR1 PR2 O2 104.689(32) 2_555 . 2_555 n
SR1 PR2 O2 54.84(4) 2_555 . -1_665 n
SR1 PR2 O2 75.311(32) 2_555 . -2_565 n
SR1 PR2 SR1 108.452(4) 3_454 . 3_554 n
SR1 PR2 SR1 69.080(30) 3_454 . 4_554 n
SR1 PR2 SR1 74.210(28) 3_454 . 4_564 n
SR1 PR2 O1 139.83(4) 3_454 . 1_555 n
SR1 PR2 O1 40.17(4) 3_454 . 4_564 n
SR1 PR2 O2 54.84(4) 3_454 . 1_455 n
SR1 PR2 O2 75.311(32) 3_454 . 2_555 n
SR1 PR2 O2 125.16(4) 3_454 . -1_665 n
SR1 PR2 O2 104.689(32) 3_454 . -2_565 n
SR1 PR2 SR1 66.695(29) 3_554 . 4_554 n
SR1 PR2 SR1 71.832(28) 3_554 . 4_564 n
SR1 PR2 O1 108.98(4) 3_554 . 1_555 n
SR1 PR2 O1 71.02(4) 3_554 . 4_564 n
SR1 PR2 O2 136.988(35) 3_554 . 1_455 n
SR1 PR2 O2 128.41(4) 3_554 . 2_555 n
SR1 PR2 O2 43.012(35) 3_554 . -1_665 n
SR1 PR2 O2 51.59(4) 3_554 . -2_565 n
SR1 PR2 SR1 109.8932(35) 4_554 . 4_564 n
SR1 PR2 O1 114.10(4) 4_554 . 1_555 n
SR1 PR2 O1 65.90(4) 4_554 . 4_564 n
SR1 PR2 O2 70.30(4) 4_554 . 1_455 n
SR1 PR2 O2 144.374(35) 4_554 . 2_555 n
SR1 PR2 O2 109.70(4) 4_554 . -1_665 n
SR1 PR2 O2 35.625(35) 4_554 . -2_565 n
SR1 PR2 O1 131.94(4) 4_564 . 1_555 n
SR1 PR2 O1 48.06(4) 4_564 . 4_564 n
SR1 PR2 O2 125.89(4) 4_564 . 1_455 n
SR1 PR2 O2 59.58(4) 4_564 . 2_555 n
SR1 PR2 O2 54.11(4) 4_564 . -1_665 n
SR1 PR2 O2 120.42(4) 4_564 . -2_565 n
O1 PR2 O1 180.0 1_555 . 4_564 n
O1 PR2 O2 87.38(5) 1_555 . 1_455 n
O1 PR2 O2 92.40(5) 1_555 . 2_555 n
O1 PR2 O2 92.62(5) 1_555 . -1_665 n
O1 PR2 O2 87.60(5) 1_555 . -2_565 n
O1 PR2 O2 92.62(5) 4_564 . 1_455 n
O1 PR2 O2 87.60(5) 4_564 . 2_555 n
O1 PR2 O2 87.38(5) 4_564 . -1_665 n
O1 PR2 O2 92.40(5) 4_564 . -2_565 n
O2 PR2 O2 88.575(17) 1_455 . 2_555 n
O2 PR2 O2 180.0 1_455 . -1_665 n
O2 PR2 O2 91.425(17) 1_455 . -2_565 n
O2 PR2 O2 91.425(17) 2_555 . -1_665 n
O2 PR2 O2 180.0 2_555 . -2_565 n
O2 PR2 O2 88.575(17) -1_665 . -2_565 n
SR1 O1 SR1 118.16(7) 1_555 . 2_555 n
SR1 O1 PR2 92.23(4) 1_555 . 1_555 n
SR1 O1 PR2 92.23(4) 1_555 . 4_565 n
SR1 O1 PR2 104.34(4) 2_555 . 1_555 n
SR1 O1 PR2 104.34(4) 2_555 . 4_565 n
PR2 O1 PR2 144.58(8) 1_555 . 4_565 n
SR1 O2 SR1 102.61(5) 1_655 . 2_555 n
SR1 O2 PR2 86.54(5) 1_655 . 1_655 n
SR1 O2 PR2 90.32(5) 1_655 . 2_545 n
SR1 O2 PR2 99.81(5) 2_555 . 1_655 n
SR1 O2 PR2 113.11(5) 2_555 . 2_545 n
PR2 O2 PR2 146.79(5) 1_655 . 2_545 n
loop_
_geom_bond_atom_site_label_1
_geom_bond_atom_site_label_2
_geom_bond_distance
_geom_bond_site_symmetry_1
_geom_bond_site_symmetry_2
_geom_bond_publ_flag
SR1 SR1 4.1834(20) . 2_445 n
SR1 SR1 4.1834(20) . 2_455 n
SR1 SR1 4.3707(21) . 2_545 n
SR1 SR1 4.3707(21) . 2_555 n
SR1 SR1 4.30563(34) . 4_554 n
SR1 SR1 4.30563(34) . 4_555 n
SR1 PR2 3.9654(10) . 1_545 n
SR1 PR2 3.5021(9) . 1_555 n
SR1 PR2 3.6274(12) . 2_445 n
SR1 PR2 3.7362(12) . 2_545 n
SR1 PR2 3.6274(12) . 3_455 n
SR1 PR2 3.7362(12) . 3_555 n
SR1 PR2 3.9654(10) . 4_555 n
SR1 PR2 3.5021(9) . 4_565 n
SR1 O1 2.6070(18) . 1_555 n
SR1 O1 2.4873(22) . 2_545 n
SR1 O2 2.8424(17) . 1_455 n
SR1 O2 2.5112(16) . 2_545 n
SR1 O2 3.0555(15) . 3_455 n
SR1 O2 3.0555(15) . -2_565 n
SR1 O2 2.5112(16) . -3_656 n
SR1 O2 2.8424(17) . -4_456 n
PR2 SR1 3.5021(9) . 1_555 n
PR2 SR1 3.9654(10) . 1_565 n
PR2 SR1 3.6274(12) . 2_455 n
PR2 SR1 3.7362(12) . 2_555 n
PR2 SR1 3.7362(12) . 3_454 n
PR2 SR1 3.6274(12) . 3_554 n
PR2 SR1 3.9654(10) . 4_554 n
PR2 SR1 3.5021(9) . 4_564 n
PR2 O1 2.2392(5) . 1_555 n
PR2 O1 2.2392(5) . 4_564 n
PR2 O2 2.2243(10) . 1_455 n
PR2 O2 2.2377(11) . 2_555 n
PR2 O2 2.2243(10) . -1_665 n
PR2 O2 2.2377(11) . -2_565 n
O1 SR1 2.6070(18) . 1_555 n
O1 SR1 2.4873(22) . 2_555 n
O1 PR2 2.2392(5) . 1_555 n
O1 PR2 2.2392(5) . 4_565 n
O2 SR1 2.8424(17) . 1_655 n
O2 SR1 2.5112(16) . 2_555 n
O2 SR1 3.0555(15) . 3_554 n
O2 PR2 2.2243(10) . 1_655 n
O2 PR2 2.2377(11) . 2_545 n
loop_
_pd_meas_intensity_total
_pd_proc_ls_weight
_pd_proc_intensity_bkg_calc
_pd_calc_intensity_total
337(17) 0.0 249.3 .
347(17) 0.0 247.5 .
342(17) 0.0 245.7 .
319(17) 0.0 243.9 .
315(17) 0.0 242.1 .
288(16) 0.0 240.4 .
291(16) 0.0 238.7 .
253(15) 0.0 237.0 .
273(15) 0.0 235.4 .
244(15) 0.0 233.8 .
237(14) 0.0 232.2 .
245(15) 0.0 230.7 .
223(14) 0.0 229.1 .
224(14) 0.0 227.6 .
214(14) 0.0 226.2 .
234(14) 0.0 224.7 .
202(13) 0.0 223.3 .
240(14) 0.0 221.9 .
214(14) 0.0 220.5 .
238(14) 0.0 219.2 .
248(15) 0.0 217.9 .
208(13) 0.0 216.6 .
204(13) 0.0 215.3 .
230(14) 0.0 214.0 .
198(13) 0.0 212.8 .
215(14) 0.0 211.6 .
204(13) 0.0 210.4 .
208(13) 0.0 209.3 .
213(14) 0.0 208.1 .
223(14) 0.0 207.0 .
194(13) 0.0 205.9 .
218(14) 0.0 204.8 .
188(13) 0.0 203.8 .
191(13) 0.0 202.7 .
201(13) 0.0 201.7 .
181(12) 0.0 200.7 .
170(12) 0.0 199.7 .
181(12) 0.0 198.7 .
214(14) 0.0 197.8 .
173(12) 0.0 196.9 .
179(12) 0.0 195.9 .
176(12) 0.00694 195.1 195.1
174(12) 0.00694 194.2 194.2
202(13) 0.00592 193.3 193.3
164(12) 0.00694 192.5 192.5
188(13) 0.00592 191.6 191.6
205(13) 0.00592 190.8 190.8
200(13) 0.00592 190.0 190.0
194(13) 0.00592 189.3 189.3
187(13) 0.00592 188.5 188.5
201(13) 0.00592 187.7 187.7
197(13) 0.00592 187.0 187.0
161(12) 0.00694 186.3 186.3
182(12) 0.00694 185.6 185.6
194(13) 0.00592 184.9 184.9
200(13) 0.00592 184.2 184.2
187(13) 0.00592 183.5 183.5
169(12) 0.00694 182.9 182.9
157(12) 0.00694 182.2 182.2
173(12) 0.00694 181.6 181.6
184(13) 0.00592 181.0 181.0
177(12) 0.00694 180.4 180.4
176(12) 0.00694 179.8 179.8
173(12) 0.00694 179.2 179.2
191(13) 0.00592 178.7 178.7
167(12) 0.00694 178.1 178.1
177(12) 0.00694 177.6 177.6
173(12) 0.00694 177.0 177.0
175(12) 0.00694 176.5 176.5
182(12) 0.00694 176.0 176.0
173(12) 0.00694 175.5 175.5
180(12) 0.00694 175.0 175.0
187(13) 0.00592 174.5 174.5
182(12) 0.00694 174.0 174.0
178(12) 0.00694 173.6 173.6
167(12) 0.00694 173.1 173.1
181(12) 0.00694 172.7 172.7
182(13) 0.00592 172.3 172.3
177(12) 0.00694 171.8 171.8
200(13) 0.00592 171.4 171.4
174(12) 0.00694 171.0 171.0
175(12) 0.00694 170.6 170.6
167(12) 0.00694 170.2 170.2
160(12) 0.00694 169.8 169.8
187(13) 0.00592 169.5 169.5
167(12) 0.00694 169.1 169.1
184(13) 0.00592 168.8 168.8
182(12) 0.00694 168.4 168.4
168(12) 0.00694 168.1 168.1
178(12) 0.00694 167.7 167.7
158(12) 0.00694 167.4 167.4
161(12) 0.00694 167.1 167.1
163(12) 0.00694 166.8 166.8
164(12) 0.00694 166.5 166.5
174(12) 0.00694 166.2 166.2
150(11) 0.00826 165.9 165.9
164(12) 0.00694 165.6 165.6
169(12) 0.00694 165.3 165.3
167(12) 0.00694 165.0 165.0
165(12) 0.00694 164.8 164.8
176(8) 0.01563 164.5 164.5
190(9) 0.01235 164.2 164.2
176(8) 0.01563 164.0 164.0
153(8) 0.01563 163.7 163.7
148(8) 0.01563 163.5 163.5
160(8) 0.01563 163.3 163.3
160(8) 0.01563 163.0 163.0
168(8) 0.01563 162.8 162.8
175(8) 0.01563 162.6 162.6
182(9) 0.01235 162.4 162.4
158(8) 0.01563 162.2 162.2
154(8) 0.01563 162.0 162.0
150(8) 0.01563 161.8 161.8
163(8) 0.01563 161.6 161.6
175(8) 0.01563 161.4 161.4
173(8) 0.01563 161.2 161.2
161(8) 0.01563 161.0 161.0
169(8) 0.01563 160.8 160.8
171(8) 0.01563 160.7 160.7
167(8) 0.01563 160.5 160.5
172(8) 0.01563 160.3 160.3
158(8) 0.01563 160.1 160.1
157(8) 0.01563 160.0 160.0
157(8) 0.01563 159.8 159.8
164(8) 0.01563 159.7 159.7
160(8) 0.01563 159.5 159.5
166(8) 0.01563 159.4 159.4
161(8) 0.01563 159.2 159.2
161(8) 0.01563 159.1 159.1
153(8) 0.01563 159.0 159.0
154(8) 0.01563 158.8 158.8
160(8) 0.01563 158.7 158.7
158(8) 0.01563 158.6 158.6
154(8) 0.01563 158.4 158.4
162(8) 0.01563 158.3 158.3
150(8) 0.01563 158.2 158.2
155(8) 0.01563 158.1 158.1
165(8) 0.01563 157.9 157.9
160(8) 0.01563 157.8 157.8
170(8) 0.01563 157.7 157.7
157(8) 0.01563 157.6 157.6
147(8) 0.01563 157.5 157.5
156(8) 0.01563 157.4 157.4
164(8) 0.01563 157.3 157.3
150(8) 0.01563 157.2 157.2
158(8) 0.01563 157.1 157.1
152(8) 0.01563 157.0 157.0
157(8) 0.01563 156.9 156.9
156(8) 0.01563 156.8 156.8
148(8) 0.01563 156.7 156.7
140(7) 0.02041 156.6 156.6
153(8) 0.01563 156.5 156.5
155(8) 0.01563 156.4 156.4
154(8) 0.01563 156.4 156.4
162(8) 0.01563 156.3 156.3
149(8) 0.01563 156.2 156.2
139(7) 0.02041 156.1 156.1
156(8) 0.01563 156.0 156.0
157(8) 0.01563 155.9 155.9
155(8) 0.01563 155.9 155.9
166(8) 0.01563 155.8 155.8
151(8) 0.01563 155.7 155.7
152(8) 0.01563 155.6 155.6
150(8) 0.01563 155.6 155.6
155(8) 0.01563 155.5 155.5
159(8) 0.01563 155.4 155.4
158(8) 0.01563 155.4 155.4
156(8) 0.01563 155.3 155.3
146(8) 0.01563 155.2 155.2
159(8) 0.01563 155.2 155.2
144(8) 0.01563 155.1 155.1
158(8) 0.01563 155.0 155.0
164(8) 0.01563 155.0 155.0
152(8) 0.01563 154.9 154.9
154(8) 0.01563 154.8 154.8
165(8) 0.01563 154.8 154.8
141(7) 0.02041 154.7 154.7
148(8) 0.01563 154.6 154.6
169(8) 0.01563 154.6 154.6
160(8) 0.01563 154.5 154.5
159(8) 0.01563 154.5 154.5
158(8) 0.01563 154.4 154.4
155(8) 0.01563 154.3 154.3
161(8) 0.01563 154.3 154.3
145(8) 0.01563 154.2 154.2
151(8) 0.01563 154.2 154.2
165(8) 0.01563 154.1 154.1
147(8) 0.01563 154.1 154.1
150(8) 0.01563 154.0 154.0
153(8) 0.01563 153.9 153.9
160(8) 0.01563 153.9 153.9
157(8) 0.01563 153.8 153.8
147(8) 0.01563 153.8 153.8
149(8) 0.01563 153.7 153.7
157(8) 0.01563 153.7 153.7
154(8) 0.01563 153.6 153.6
173(8) 0.01563 153.6 153.6
142(7) 0.02041 153.5 153.5
141(7) 0.02041 153.5 153.5
145(8) 0.01563 153.4 153.4
144(8) 0.01563 153.4 153.4
139(7) 0.02041 153.3 153.3
139(7) 0.02041 153.2 153.2
143(8) 0.01563 153.2 153.2
152(8) 0.01563 153.1 153.1
160(8) 0.01563 153.1 153.1
158(8) 0.01563 153.0 153.0
148(8) 0.01563 153.0 153.0
154(8) 0.01563 152.9 152.9
157(8) 0.01563 152.9 152.9
154(8) 0.01563 152.8 152.8
140(7) 0.02041 152.8 152.8
150(8) 0.01563 152.7 152.7
158(8) 0.01563 152.7 152.7
151(8) 0.01563 152.6 152.6
146(8) 0.01563 152.6 152.6
153(8) 0.01563 152.5 152.5
152(8) 0.01563 152.4 152.4
169(8) 0.01563 152.4 152.4
162(8) 0.01563 152.3 152.3
149(8) 0.01563 152.3 152.3
154(8) 0.01563 152.2 152.2
152(8) 0.01563 152.2 152.2
157(8) 0.01563 152.1 152.1
161(8) 0.01563 152.1 152.1
149(8) 0.01563 152.0 152.0
144(8) 0.01563 152.0 152.0
155(8) 0.01563 151.9 151.9
144(8) 0.01563 151.9 151.9
145(8) 0.01563 151.8 151.8
149(8) 0.01563 151.8 151.8
141(7) 0.02041 151.7 151.7
147(8) 0.01563 151.6 151.6
151(8) 0.01563 151.6 151.6
149(8) 0.01563 151.5 151.5
135(7) 0.02041 151.5 151.5
152(8) 0.01563 151.4 151.4
166(8) 0.01563 151.4 151.4
157(8) 0.01563 151.3 151.3
153(8) 0.01563 151.3 151.3
153(8) 0.01563 151.2 151.2
156(8) 0.01563 151.1 151.1
155(8) 0.01563 151.1 151.1
153(8) 0.01563 151.0 151.0
159(8) 0.01563 151.0 151.0
150(8) 0.01563 150.9 150.9
156(8) 0.01563 150.9 150.9
166(8) 0.01563 150.8 150.8
157(8) 0.01563 150.7 150.7
154(8) 0.01563 150.7 150.7
148(8) 0.01563 150.6 150.6
147(8) 0.01563 150.6 150.6
148(8) 0.01563 150.5 150.5
138(7) 0.02041 150.5 150.5
148(8) 0.01563 150.4 150.4
151(8) 0.01563 150.3 150.3
143(8) 0.01563 150.3 150.3
143(8) 0.01563 150.2 150.2
147(8) 0.01563 150.2 150.2
149(8) 0.01563 150.1 150.1
147(8) 0.01563 150.1 150.1
156(8) 0.01563 150.0 150.0
148(8) 0.01563 149.9 149.9
147(8) 0.01563 149.9 149.9
141(7) 0.02041 149.8 149.8
149(8) 0.01563 149.8 149.8
149(8) 0.01563 149.7 149.7
144(8) 0.01563 149.6 149.6
149(8) 0.01563 149.6 149.6
152(8) 0.01563 149.5 149.5
148(8) 0.01563 149.5 149.5
152(8) 0.01563 149.4 149.4
149(8) 0.01563 149.3 149.3
151(8) 0.01563 149.3 149.3
166(8) 0.01563 149.2 149.2
168(8) 0.01563 149.2 149.2
150(8) 0.01563 149.1 149.1
155(8) 0.01563 149.0 149.0
157(8) 0.01563 149.0 149.0
155(8) 0.01563 148.9 148.9
141(7) 0.02041 148.9 148.9
149(8) 0.01563 148.8 148.8
154(8) 0.01563 148.7 148.7
155(8) 0.01563 148.7 148.7
147(8) 0.01563 148.6 148.6
146(8) 0.01563 148.5 148.5
161(8) 0.01563 148.5 148.5
148(8) 0.01563 148.4 148.4
138(7) 0.02041 148.4 148.4
137(7) 0.02041 148.3 148.3
152(8) 0.01563 148.2 148.2
147(8) 0.01563 148.2 148.2
136(7) 0.02041 148.1 148.1
153(8) 0.01563 148.1 148.1
143(8) 0.01563 148.0 148.1
144(8) 0.01563 147.9 148.3
149(8) 0.01563 147.9 148.7
155(8) 0.01563 147.8 149.5
163(8) 0.01563 147.8 150.8
156(8) 0.01563 147.7 152.3
159(12) 0.00694 147.6 153.6
146(8) 0.01563 147.6 154.3
166(8) 0.01563 147.5 154.0
167(8) 0.01563 147.4 152.8
158(8) 0.01563 147.4 151.2
159(8) 0.01563 147.3 149.6
146(8) 0.01563 147.3 148.5
139(8) 0.01563 147.2 147.7
147(8) 0.01563 147.1 147.3
151(8) 0.01563 147.1 147.2
154(8) 0.01563 147.0 147.0
157(8) 0.01563 147.0 147.0
153(8) 0.01563 146.9 146.9
152(8) 0.01563 146.8 146.8
146(8) 0.01563 146.8 146.8
149(8) 0.01563 146.7 146.7
145(8) 0.01563 146.7 146.7
150(8) 0.01563 146.6 146.6
144(8) 0.01563 146.5 146.5
144(8) 0.01563 146.5 146.5
145(8) 0.01563 146.4 146.4
144(8) 0.01563 146.4 146.4
135(7) 0.02041 146.3 146.3
141(8) 0.01563 146.2 146.2
152(8) 0.01563 146.2 146.2
154(8) 0.01563 146.1 146.1
136(7) 0.02041 146.1 146.1
143(8) 0.01563 146.0 146.0
147(8) 0.01563 146.0 146.0
160(8) 0.01563 145.9 145.9
144(8) 0.01563 145.8 145.8
153(8) 0.01563 145.8 145.8
139(8) 0.01563 145.7 145.7
145(8) 0.01563 145.7 145.7
136(7) 0.02041 145.6 145.6
147(8) 0.01563 145.5 145.5
139(8) 0.01563 145.5 145.5
148(8) 0.01563 145.4 145.4
145(8) 0.01563 145.4 145.4
156(8) 0.01563 145.3 145.3
153(8) 0.01563 145.3 145.3
150(8) 0.01563 145.2 145.2
150(8) 0.01563 145.2 145.2
138(8) 0.01563 145.1 145.1
148(8) 0.01563 145.0 145.1
147(8) 0.01563 145.0 145.0
145(8) 0.01563 144.9 145.0
145(8) 0.01563 144.9 145.2
155(8) 0.01563 144.8 145.8
160(8) 0.01563 144.8 147.1
153(8) 0.01563 144.7 149.8
144(8) 0.01563 144.7 153.9
158(8) 0.01563 144.6 159.0
161(8) 0.01563 144.6 163.8
160(8) 0.01563 144.5 166.5
159(8) 0.01563 144.5 165.8
172(8) 0.01563 144.4 162.2
164(8) 0.01563 144.4 157.0
161(8) 0.01563 144.3 152.0
147(8) 0.01563 144.3 148.3
148(8) 0.01563 144.2 146.0
149(8) 0.01563 144.2 144.8
164(8) 0.01563 144.1 144.3
152(8) 0.01563 144.1 144.1
147(8) 0.01563 144.0 144.0
138(8) 0.01563 144.0 144.0
159(8) 0.01563 143.9 143.9
145(8) 0.01563 143.9 143.9
143(8) 0.01563 143.8 143.8
136(7) 0.02041 143.8 143.8
136(7) 0.02041 143.7 143.7
136(7) 0.02041 143.7 143.7
142(8) 0.01563 143.6 143.6
135(7) 0.02041 143.6 143.6
141(8) 0.01563 143.5 143.5
147(8) 0.01563 143.5 143.5
147(8) 0.01563 143.4 143.4
139(8) 0.01563 143.4 143.4
138(8) 0.01563 143.4 143.4
137(7) 0.02041 143.3 143.3
142(8) 0.01563 143.3 143.3
147(8) 0.01563 143.2 143.2
152(8) 0.01563 143.2 143.2
149(8) 0.01563 143.1 143.1
149(8) 0.01563 143.1 143.1
127(7) 0.02041 143.1 143.1
141(8) 0.01563 143.0 143.0
155(8) 0.01563 143.0 143.0
144(8) 0.01563 142.9 142.9
136(7) 0.02041 142.9 142.9
145(8) 0.01563 142.8 142.8
139(8) 0.01563 142.8 142.8
134(7) 0.02041 142.8 142.8
144(8) 0.01563 142.7 142.7
152(8) 0.01563 142.7 142.7
163(8) 0.01563 142.7 142.7
150(8) 0.01563 142.6 142.9
133(7) 0.02041 142.6 143.6
143(8) 0.01563 142.5 145.7
145(8) 0.01563 142.5 150.3
160(8) 0.01563 142.5 158.8
171(8) 0.01563 142.4 171.6
184(8) 0.01563 142.4 186.7
210(9) 0.01235 142.4 199.5
216(9) 0.01235 142.3 204.8
202(9) 0.01235 142.3 200.2
178(8) 0.01563 142.3 187.9
164(8) 0.01563 142.2 172.7
160(8) 0.01563 142.2 159.5
148(7) 0.02041 142.2 150.5
145(7) 0.02041 142.1 145.5
147(7) 0.02041 142.1 143.3
142(7) 0.02041 142.1 142.4
146(7) 0.02041 142.0 142.1
129(7) 0.02041 142.0 142.0
134(7) 0.02041 142.0 142.0
133(7) 0.02041 141.9 141.9
158(8) 0.01563 141.9 141.9
138(7) 0.02041 141.9 141.9
147(7) 0.02041 141.9 141.9
154(8) 0.01563 141.8 141.8
147(7) 0.02041 141.8 141.8
134(7) 0.02041 141.8 141.8
144(7) 0.02041 141.7 141.7
147(7) 0.02041 141.7 141.7
140(7) 0.02041 141.7 141.7
138(7) 0.02041 141.7 141.7
147(7) 0.02041 141.6 141.6
141(7) 0.02041 141.6 141.6
151(7) 0.02041 141.6 141.6
144(7) 0.02041 141.6 141.6
154(8) 0.01563 141.5 141.5
146(7) 0.02041 141.5 141.5
133(7) 0.02041 141.5 141.5
142(7) 0.02041 141.5 141.5
147(7) 0.02041 141.5 141.5
152(7) 0.02041 141.4 141.4
133(7) 0.02041 141.4 141.4
145(7) 0.02041 141.4 141.4
152(7) 0.02041 141.4 141.4
146(7) 0.02041 141.4 141.4
142(7) 0.02041 141.3 141.3
143(7) 0.02041 141.3 141.3
136(7) 0.02041 141.3 141.3
145(7) 0.02041 141.3 141.3
139(7) 0.02041 141.3 141.3
144(7) 0.02041 141.2 141.2
152(7) 0.02041 141.2 141.2
135(7) 0.02041 141.2 141.2
148(7) 0.02041 141.2 141.2
137(7) 0.02041 141.2 141.2
144(7) 0.02041 141.2 141.2
153(8) 0.01563 141.1 141.1
149(7) 0.02041 141.1 141.1
146(7) 0.02041 141.1 141.1
135(7) 0.02041 141.1 141.1
136(7) 0.02041 141.1 141.1
137(7) 0.02041 141.1 141.1
139(7) 0.02041 141.1 141.1
151(7) 0.02041 141.0 141.0
144(7) 0.02041 141.0 141.0
142(7) 0.02041 141.0 141.0
143(7) 0.02041 141.0 141.0
141(7) 0.02041 141.0 141.0
141(7) 0.02041 141.0 141.0
136(7) 0.02041 141.0 141.0
131(7) 0.02041 141.0 141.0
138(7) 0.02041 140.9 140.9
141(7) 0.02041 140.9 140.9
143(7) 0.02041 140.9 140.9
152(7) 0.02041 140.9 140.9
149(7) 0.02041 140.9 140.9
143(7) 0.02041 140.9 140.9
136(7) 0.02041 140.9 140.9
152(7) 0.02041 140.9 140.9
136(7) 0.02041 140.9 140.9
145(7) 0.02041 140.9 140.9
139(7) 0.02041 140.9 140.9
136(7) 0.02041 140.9 140.9
146(7) 0.02041 140.8 140.8
130(7) 0.02041 140.8 140.8
142(7) 0.02041 140.8 140.8
139(7) 0.02041 140.8 140.8
144(7) 0.02041 140.8 140.8
149(7) 0.02041 140.8 140.8
132(7) 0.02041 140.8 140.8
137(7) 0.02041 140.8 140.8
136(7) 0.02041 140.8 140.8
152(8) 0.01563 140.8 140.8
138(7) 0.02041 140.8 140.8
140(7) 0.02041 140.8 140.8
143(7) 0.02041 140.8 140.8
137(7) 0.02041 140.8 140.8
141(7) 0.02041 140.8 140.8
142(7) 0.02041 140.8 140.8
143(7) 0.02041 140.8 140.8
139(7) 0.02041 140.8 140.8
136(7) 0.02041 140.8 140.8
139(7) 0.02041 140.8 140.8
143(7) 0.02041 140.8 140.8
129(7) 0.02041 140.8 140.8
148(7) 0.02041 140.8 140.8
152(7) 0.02041 140.8 140.8
144(7) 0.02041 140.8 140.8
139(7) 0.02041 140.8 140.8
126(7) 0.02041 140.8 140.8
140(7) 0.02041 140.8 140.8
146(7) 0.02041 140.8 140.8
145(7) 0.02041 140.8 140.8
141(7) 0.02041 140.8 140.8
138(7) 0.02041 140.8 140.8
148(7) 0.02041 140.8 140.8
145(7) 0.02041 140.8 140.8
145(7) 0.02041 140.8 140.8
146(7) 0.02041 140.8 141.0
137(7) 0.02041 140.8 141.7
134(7) 0.02041 140.8 143.7
150(7) 0.02041 140.8 148.6
167(8) 0.01563 140.8 158.7
167(8) 0.01563 140.8 175.0
195(8) 0.01563 140.8 195.8
218(9) 0.01235 140.8 215.0
216(9) 0.01235 140.8 225.4
229(9) 0.01235 140.8 224.1
221(9) 0.01235 140.8 217.2
216(9) 0.01235 140.8 219.0
229(9) 0.01235 140.8 245.5
277(10) 0.01000 140.8 303.6
355(12) 0.00694 140.8 382.5
415(12) 0.00694 140.8 453.2
445(13) 0.00592 140.8 482.8
455(13) 0.00592 140.8 456.2
364(12) 0.00694 140.9 386.8
297(10) 0.01000 140.9 305.9
218(9) 0.01235 140.9 240.9
194(8) 0.01563 140.9 201.9
183(8) 0.01563 140.9 183.0
168(8) 0.01563 140.9 173.5
173(8) 0.01563 140.9 165.9
161(8) 0.01563 140.9 158.0
157(8) 0.01563 140.9 151.0
150(7) 0.02041 140.9 145.9
148(7) 0.02041 140.9 143.0
148(7) 0.02041 140.9 141.6
148(7) 0.02041 140.9 141.1
143(7) 0.02041 140.9 141.0
141(7) 0.02041 140.9 140.9
152(7) 0.02041 140.9 140.9
134(7) 0.02041 140.9 140.9
130(7) 0.02041 140.9 140.9
137(7) 0.02041 141.0 141.0
147(7) 0.02041 141.0 141.0
150(7) 0.02041 141.0 141.0
147(7) 0.02041 141.0 141.3
130(7) 0.02041 141.0 141.8
139(7) 0.02041 141.0 142.9
146(7) 0.02041 141.0 144.9
139(7) 0.02041 141.0 147.7
151(7) 0.02041 141.0 150.4
147(7) 0.02041 141.0 152.1
158(8) 0.01563 141.0 151.9
151(7) 0.02041 141.0 150.0
146(7) 0.02041 141.0 147.2
146(7) 0.02041 141.0 144.6
140(7) 0.02041 141.0 142.7
144(7) 0.02041 141.1 141.7
137(7) 0.02041 141.1 141.3
140(7) 0.02041 141.1 141.1
138(7) 0.02041 141.1 141.1
136(7) 0.02041 141.1 141.1
136(7) 0.02041 141.1 141.1
134(7) 0.02041 141.1 141.1
140(7) 0.02041 141.1 141.1
140(7) 0.02041 141.1 141.1
141(7) 0.02041 141.1 141.1
138(7) 0.02041 141.1 141.1
139(7) 0.02041 141.1 141.1
146(7) 0.02041 141.1 141.1
143(7) 0.02041 141.1 141.1
141(7) 0.02041 141.1 141.1
137(7) 0.02041 141.2 141.2
132(7) 0.02041 141.2 141.2
135(7) 0.02041 141.2 141.2
142(7) 0.02041 141.2 141.2
138(7) 0.02041 141.2 141.2
137(7) 0.02041 141.2 141.2
135(7) 0.02041 141.2 141.2
135(7) 0.02041 141.2 141.2
140(7) 0.02041 141.2 141.4
138(7) 0.02041 141.2 141.9
144(7) 0.02041 141.2 143.6
146(7) 0.02041 141.2 147.9
154(7) 0.02041 141.2 156.8
179(8) 0.01563 141.2 171.3
174(8) 0.01563 141.2 189.6
198(9) 0.01235 141.2 205.9
217(9) 0.01235 141.2 213.3
209(9) 0.01235 141.2 208.2
193(8) 0.01563 141.2 193.6
171(8) 0.01563 141.3 177.5
180(8) 0.01563 141.3 169.2
183(8) 0.01563 141.3 176.4
211(9) 0.01235 141.3 204.7
270(10) 0.01000 141.3 253.8
308(10) 0.01000 141.3 312.7
341(11) 0.00826 141.3 359.7
335(11) 0.00826 141.3 373.0
321(11) 0.00826 141.3 345.8
260(10) 0.01000 141.3 291.4
212(9) 0.01235 141.3 232.9
179(8) 0.01563 141.3 187.8
146(7) 0.02041 141.3 160.9
136(7) 0.02041 141.3 148.2
143(7) 0.02041 141.3 143.3
144(7) 0.02041 141.3 141.8
143(7) 0.02041 141.3 141.4
138(7) 0.02041 141.3 141.3
136(7) 0.02041 141.3 141.3
138(7) 0.02041 141.3 141.3
150(7) 0.02041 141.3 141.3
139(7) 0.02041 141.3 141.3
137(7) 0.02041 141.3 141.5
146(7) 0.02041 141.3 142.3
158(7) 0.02041 141.3 145.1
157(7) 0.02041 141.3 153.3
181(8) 0.01563 141.3 173.2
216(9) 0.01235 141.3 211.5
243(9) 0.01235 141.3 269.5
315(11) 0.00826 141.3 335.8
367(11) 0.00826 141.3 386.9
402(12) 0.00694 141.3 402.3
391(12) 0.00694 141.3 383.3
382(12) 0.00694 141.3 361.1
395(12) 0.00694 141.3 382.1
470(13) 0.00592 141.3 480.3
628(15) 0.00444 141.3 651.9
795(17) 0.003460 141.3 846.7
952(18) 0.003086 141.3 988.1
1000(19) 0.002770 141.3 1015.0
932(18) 0.003086 141.3 915.9
733(16) 0.00391 141.3 732.2
513(13) 0.00592 141.3 528.7
342(11) 0.00826 141.3 359.1
249(9) 0.01235 141.3 245.7
193(8) 0.01563 141.3 183.8
161(7) 0.02041 141.2 154.4
141(7) 0.02041 141.2 145.2
150(7) 0.02041 141.2 141.2
157(7) 0.02041 141.2 141.2
153(7) 0.02041 141.2 141.2
149(7) 0.02041 141.2 141.2
152(7) 0.02041 141.2 141.2
142(7) 0.02041 141.2 141.2
149(7) 0.02041 141.2 143.3
143(7) 0.02041 141.2 149.5
178(8) 0.01563 141.2 168.4
227(9) 0.01235 141.2 214.6
304(10) 0.01000 141.2 304.9
419(12) 0.00694 141.2 443.6
572(14) 0.00510 141.1 603.2
717(16) 0.00391 141.1 725.3
765(17) 0.003460 141.1 752.3
696(16) 0.00391 141.1 670.3
532(14) 0.00510 141.1 520.2
363(11) 0.00826 141.1 365.8
247(9) 0.01235 141.1 252.7
205(8) 0.01563 141.1 191.2
191(8) 0.01563 141.1 173.7
221(9) 0.01235 141.1 192.4
252(9) 0.01235 141.0 245.8
332(11) 0.00826 141.0 333.3
435(12) 0.00694 141.0 432.7
517(14) 0.00510 141.0 506.7
512(14) 0.00510 141.0 520.0
458(13) 0.00592 141.0 465.7
362(11) 0.00826 141.0 370.9
276(10) 0.01000 140.9 275.6
203(8) 0.01563 140.9 206.1
161(7) 0.02041 140.9 167.0
141(7) 0.02041 140.9 149.5
145(7) 0.02041 140.9 143.2
144(7) 0.02041 140.9 140.9
136(7) 0.02041 140.9 140.9
138(7) 0.02041 140.8 140.8
136(7) 0.02041 140.8 140.8
136(7) 0.02041 140.8 140.8
126(7) 0.02041 140.8 140.8
129(7) 0.02041 140.8 140.8
136(7) 0.02041 140.8 140.8
136(7) 0.02041 140.7 140.7
143(7) 0.02041 140.7 141.1
151(7) 0.02041 140.7 142.5
144(7) 0.02041 140.7 147.1
155(7) 0.02041 140.7 159.7
192(8) 0.01563 140.6 186.9
229(9) 0.01235 140.6 233.5
284(10) 0.01000 140.6 294.4
328(11) 0.00826 140.6 350.6
366(11) 0.00826 140.5 377.0
348(11) 0.00826 140.5 360.1
294(8) 0.01563 140.5 308.7
239(9) 0.01235 140.5 246.8
186(8) 0.01563 140.5 195.9
164(7) 0.02041 140.4 164.3
158(7) 0.02041 140.4 148.9
152(7) 0.02041 140.4 142.9
140(7) 0.02041 140.4 140.4
159(7) 0.02041 140.3 140.3
165(7) 0.02041 140.3 140.3
162(7) 0.02041 140.3 140.3
154(7) 0.02041 140.3 140.3
151(7) 0.02041 140.2 140.2
146(7) 0.02041 140.2 140.2
143(7) 0.02041 140.2 140.2
143(7) 0.02041 140.2 140.2
136(7) 0.02041 140.1 140.6
131(6) 0.02778 140.1 142.4
141(7) 0.02041 140.1 148.2
163(7) 0.02041 140.0 164.1
197(8) 0.01563 140.0 198.5
240(9) 0.01235 140.0 257.0
326(10) 0.01000 140.0 332.6
403(11) 0.00826 139.9 401.1
441(12) 0.00694 139.9 431.4
412(11) 0.00826 139.9 407.8
343(10) 0.01000 139.8 343.5
274(9) 0.01235 139.8 270.2
214(8) 0.01563 139.8 216.0
192(8) 0.01563 139.7 192.3
173(7) 0.02041 139.7 194.2
209(8) 0.01563 139.7 208.2
222(8) 0.01563 139.6 218.7
219(8) 0.01563 139.6 217.6
205(8) 0.01563 139.6 203.0
198(8) 0.01563 139.5 181.9
175(7) 0.02041 139.5 162.8
155(7) 0.02041 139.5 150.0
147(7) 0.02041 139.4 143.3
142(7) 0.02041 139.4 140.6
133(6) 0.02778 139.4 139.4
137(7) 0.0 139.3 .
142(7) 0.0 139.3 .
150(7) 0.0 139.2 .
156(7) 0.0 139.2 .
170(7) 0.0 139.2 .
174(7) 0.0 139.1 .
192(8) 0.0 139.1 .
196(8) 0.0 139.1 .
184(8) 0.0 139.0 .
181(7) 0.0 139.0 .
180(7) 0.0 138.9 .
168(7) 0.0 138.9 .
156(7) 0.0 138.9 .
144(7) 0.0 138.8 .
141(7) 0.0 138.8 .
141(7) 0.0 138.7 .
132(6) 0.02778 138.7 138.7
135(6) 0.02778 138.6 138.6
129(6) 0.02778 138.6 138.6
124(6) 0.02778 138.6 138.6
131(6) 0.02778 138.5 138.5
137(7) 0.02041 138.5 138.5
132(6) 0.02778 138.4 138.4
129(6) 0.02778 138.4 138.4
132(6) 0.02778 138.3 138.3
138(7) 0.02041 138.3 138.3
138(7) 0.02041 138.2 138.2
131(6) 0.02778 138.2 138.2
133(6) 0.02778 138.2 138.2
132(6) 0.02778 138.1 138.1
138(7) 0.02041 138.1 138.1
136(6) 0.02778 138.0 138.0
142(7) 0.02041 138.0 138.0
138(7) 0.02041 137.9 137.9
142(7) 0.02041 137.9 137.9
148(7) 0.02041 137.8 137.8
161(7) 0.02041 137.8 140.6
176(7) 0.02041 137.7 149.8
205(8) 0.01563 137.7 179.7
292(9) 0.01235 137.6 257.8
451(12) 0.00694 137.6 421.3
709(15) 0.00444 137.5 692.0
1049(18) 0.003086 137.5 1037.4
1364(21) 0.002268 137.4 1355.2
1540(22) 0.002066 137.4 1517.3
1483(21) 0.002268 137.3 1451.7
1227(20) 0.002500 137.3 1193.2
874(16) 0.00391 137.2 853.9
545(13) 0.00592 137.2 548.2
332(10) 0.01000 137.1 335.9
217(8) 0.01563 137.1 217.9
169(7) 0.02041 137.0 164.5
164(7) 0.02041 136.9 143.8
155(7) 0.02041 136.9 136.9
149(7) 0.02041 136.8 136.8
143(7) 0.02041 136.8 136.8
139(7) 0.02041 136.7 136.7
142(7) 0.02041 136.7 136.7
148(7) 0.02041 136.6 136.6
141(7) 0.02041 136.6 136.8
157(7) 0.02041 136.5 137.5
159(7) 0.02041 136.4 140.1
163(7) 0.02041 136.4 146.9
173(7) 0.02041 136.3 161.5
201(8) 0.01563 136.3 185.5
224(8) 0.01563 136.2 216.0
253(8) 0.01563 136.2 244.6
278(9) 0.01235 136.1 263.9
290(9) 0.01235 136.0 272.9
305(9) 0.01235 136.0 276.7
298(9) 0.01235 135.9 277.4
287(9) 0.01235 135.9 270.2
268(9) 0.01235 135.8 249.6
229(8) 0.01563 135.7 218.2
190(7) 0.02041 135.7 185.6
165(7) 0.02041 135.6 160.4
157(7) 0.02041 135.6 145.7
139(6) 0.02778 135.5 138.9
133(6) 0.02778 135.4 136.4
147(6) 0.02778 135.4 135.4
140(6) 0.02778 135.3 135.3
135(6) 0.02778 135.3 135.3
129(6) 0.02778 135.2 135.2
131(6) 0.02778 135.1 135.1
126(6) 0.02778 135.1 135.1
140(6) 0.02778 135.0 135.0
137(6) 0.02778 134.9 134.9
128(6) 0.02778 134.9 134.9
149(7) 0.0 134.8 .
153(7) 0.0 134.8 .
161(7) 0.0 134.7 .
175(7) 0.0 134.6 .
197(7) 0.0 134.6 .
231(8) 0.0 134.5 .
263(9) 0.0 134.4 .
271(9) 0.0 134.4 .
292(9) 0.0 134.3 .
264(9) 0.0 134.2 .
222(8) 0.0 134.2 .
213(8) 0.0 134.1 .
171(7) 0.0 134.0 .
153(7) 0.0 134.0 .
141(6) 0.0 133.9 .
137(6) 0.02778 133.8 133.8
135(6) 0.02778 133.8 133.8
132(6) 0.02778 133.7 133.7
126(6) 0.02778 133.6 133.6
129(6) 0.02778 133.6 133.6
130(6) 0.02778 133.5 133.5
125(6) 0.02778 133.4 133.4
125(6) 0.02778 133.4 133.4
131(6) 0.02778 133.3 133.3
128(6) 0.02778 133.2 133.2
120(6) 0.02778 133.2 133.4
133(6) 0.02778 133.1 134.1
139(6) 0.02778 133.0 136.7
145(6) 0.02778 132.9 144.0
152(7) 0.02041 132.9 159.8
177(7) 0.02041 132.8 186.3
220(8) 0.01563 132.7 219.4
256(9) 0.01235 132.7 247.4
262(9) 0.01235 132.6 256.6
255(9) 0.01235 132.5 243.0
212(8) 0.01563 132.5 216.2
182(7) 0.02041 132.4 193.3
172(7) 0.02041 132.3 187.0
194(7) 0.02041 132.2 198.2
207(8) 0.01563 132.2 216.9
229(8) 0.01563 132.1 228.5
237(8) 0.01563 132.0 224.8
210(8) 0.01563 132.0 209.9
186(7) 0.02041 131.9 196.2
187(7) 0.02041 131.8 194.7
194(7) 0.02041 131.7 205.8
226(8) 0.01563 131.7 220.6
232(8) 0.01563 131.6 229.3
219(8) 0.01563 131.5 230.1
229(8) 0.01563 131.5 229.2
220(8) 0.01563 131.4 230.3
227(8) 0.01563 131.3 229.8
219(8) 0.01563 131.2 220.5
201(8) 0.01563 131.2 200.6
176(7) 0.02041 131.1 176.2
152(7) 0.02041 131.0 155.6
148(7) 0.02041 130.9 144.1
141(6) 0.02778 130.9 142.5
142(6) 0.02778 130.8 150.6
166(7) 0.02041 130.7 166.9
192(7) 0.02041 130.7 188.0
209(8) 0.01563 130.6 205.4
223(8) 0.01563 130.5 211.0
215(8) 0.01563 130.4 201.8
202(8) 0.01563 130.4 182.7
177(7) 0.02041 130.3 162.1
163(7) 0.02041 130.2 146.4
156(7) 0.02041 130.1 137.3
143(6) 0.02778 130.1 133.5
133(6) 0.02778 130.0 133.3
138(6) 0.02778 129.9 135.9
151(7) 0.02041 129.8 145.1
196(7) 0.02041 129.8 169.1
241(8) 0.01563 129.7 219.6
314(9) 0.01235 129.6 301.3
401(10) 0.01000 129.5 398.3
483(11) 0.00826 129.5 472.8
494(11) 0.00826 129.4 486.5
433(10) 0.01000 129.3 431.6
329(9) 0.01235 129.2 337.4
236(8) 0.01563 129.2 245.9
171(7) 0.02041 129.1 182.3
141(6) 0.02778 129.0 148.8
131(6) 0.02778 128.9 134.9
134(6) 0.02778 128.9 130.3
123(6) 0.02778 128.8 128.8
131(6) 0.02778 128.7 128.7
125(6) 0.02778 128.6 128.7
125(6) 0.02778 128.6 128.8
129(6) 0.02778 128.5 129.4
132(6) 0.02778 128.4 131.5
135(6) 0.02778 128.3 137.1
143(6) 0.02778 128.3 148.6
161(6) 0.02778 128.2 166.3
168(6) 0.02778 128.1 186.4
190(7) 0.02041 128.0 200.4
193(7) 0.02041 128.0 201.0
179(7) 0.02041 127.9 187.8
159(6) 0.02778 127.8 167.8
146(6) 0.02778 127.7 149.4
134(6) 0.02778 127.7 137.2
127(6) 0.02778 127.6 131.0
127(6) 0.02778 127.5 128.5
125(6) 0.02778 127.4 127.7
114(5) 0.0400 127.4 127.4
117(5) 0.0400 127.3 127.3
126(6) 0.02778 127.2 127.2
125(6) 0.02778 127.1 127.1
125(6) 0.02778 127.1 127.1
122(6) 0.02778 127.0 127.0
115(5) 0.0400 126.9 126.9
120(5) 0.0400 126.8 126.8
125(6) 0.02778 126.8 126.8
128(6) 0.02778 126.7 126.7
131(6) 0.02778 126.6 126.6
132(6) 0.02778 126.5 126.5
122(6) 0.02778 126.5 126.5
130(6) 0.02778 126.4 126.4
136(6) 0.02778 126.3 126.3
137(6) 0.02778 126.3 126.3
133(6) 0.02778 126.2 126.2
140(6) 0.02778 126.1 126.1
131(6) 0.02778 126.0 126.0
132(6) 0.02778 126.0 126.0
129(6) 0.02778 125.9 125.9
129(6) 0.02778 125.8 125.8
134(6) 0.02778 125.7 125.7
127(6) 0.02778 125.7 125.7
135(6) 0.02778 125.6 125.6
138(6) 0.02778 125.5 125.5
132(6) 0.02778 125.4 125.4
129(6) 0.02778 125.4 125.4
132(6) 0.02778 125.3 125.3
127(6) 0.02778 125.2 125.2
125(6) 0.02778 125.1 125.1
118(5) 0.0400 125.1 125.1
111(5) 0.0400 125.0 125.0
109(5) 0.0400 124.9 124.9
113(5) 0.0400 124.9 124.9
114(5) 0.0400 124.8 124.8
117(5) 0.0400 124.7 124.7
124(6) 0.02778 124.6 124.6
124(6) 0.02778 124.6 125.1
128(6) 0.02778 124.5 126.9
133(6) 0.02778 124.4 133.0
152(6) 0.02778 124.3 149.5
190(7) 0.02041 124.3 184.3
232(8) 0.01563 124.2 240.7
304(9) 0.01235 124.1 308.2
378(10) 0.01000 124.1 362.9
403(10) 0.01000 124.0 385.1
396(10) 0.01000 123.9 380.9
383(10) 0.01000 123.8 381.8
396(10) 0.01000 123.8 414.5
456(11) 0.00826 123.7 469.3
513(11) 0.00826 123.6 503.5
515(11) 0.00826 123.6 479.4
433(10) 0.01000 123.5 399.2
318(9) 0.01235 123.4 300.6
238(8) 0.01563 123.3 226.1
214(7) 0.02041 123.3 200.4
252(8) 0.01563 123.2 228.2
329(9) 0.01235 123.1 307.5
432(10) 0.01000 123.1 432.4
598(12) 0.00694 123.0 599.1
797(14) 0.00510 122.9 792.1
977(16) 0.00391 122.9 973.3
1090(16) 0.00391 122.8 1073.1
1058(16) 0.00391 122.7 1029.4
847(14) 0.00510 122.6 845.4
578(12) 0.00694 122.6 597.5
360(9) 0.01235 122.5 377.9
209(7) 0.02041 122.4 233.9
159(6) 0.02778 122.4 162.2
145(6) 0.02778 122.3 133.8
139(6) 0.02778 122.2 125.0
144(6) 0.02778 122.2 122.3
138(6) 0.02778 122.1 122.5
132(6) 0.02778 122.0 123.2
128(5) 0.0400 122.0 124.6
147(6) 0.02778 121.9 126.8
142(6) 0.02778 121.8 129.1
143(6) 0.02778 121.8 130.5
140(6) 0.02778 121.7 130.3
139(6) 0.02778 121.6 128.4
128(5) 0.0400 121.6 125.9
128(5) 0.0400 121.5 123.8
119(5) 0.0400 121.4 122.4
121(5) 0.0400 121.4 121.7
119(5) 0.0400 121.3 121.4
112(5) 0.0400 121.2 121.2
117(5) 0.0400 121.2 121.2
113(5) 0.0400 121.1 121.1
112(5) 0.0400 121.0 121.1
115(5) 0.0400 121.0 121.0
119(5) 0.0400 120.9 121.0
115(5) 0.0400 120.9 121.1
122(5) 0.0400 120.8 121.3
115(5) 0.0400 120.7 121.7
120(5) 0.0400 120.7 122.4
120(5) 0.0400 120.6 123.3
118(5) 0.0400 120.5 124.3
123(5) 0.0400 120.5 125.2
120(5) 0.0400 120.4 126.0
121(5) 0.0400 120.4 127.6
126(5) 0.0400 120.3 133.1
152(6) 0.02778 120.2 146.4
165(6) 0.02778 120.2 169.5
196(7) 0.02041 120.1 198.5
216(7) 0.02041 120.0 222.4
229(7) 0.02041 120.0 229.0
219(7) 0.02041 119.9 214.4
185(7) 0.02041 119.9 186.5
152(6) 0.02778 119.8 158.0
132(6) 0.02778 119.7 137.6
131(5) 0.0400 119.7 126.6
118(5) 0.0400 119.6 122.3
119(5) 0.0400 119.6 121.9
116(5) 0.0400 119.5 124.0
128(5) 0.0400 119.4 128.5
136(6) 0.02778 119.4 134.2
138(6) 0.02778 119.3 139.0
137(6) 0.02778 119.3 140.5
140(6) 0.02778 119.2 138.0
126(5) 0.0400 119.1 133.4
120(5) 0.0400 119.1 130.6
127(5) 0.0400 119.0 133.8
143(6) 0.02778 119.0 146.0
161(6) 0.02778 118.9 167.1
191(7) 0.02041 118.9 191.2
204(7) 0.02041 118.8 207.9
217(7) 0.02041 118.8 208.4
196(7) 0.02041 118.7 192.8
168(6) 0.02778 118.6 169.5
150(6) 0.02778 118.6 148.6
125(5) 0.0400 118.5 135.3
124(5) 0.0400 118.5 129.3
122(5) 0.0400 118.4 127.2
123(5) 0.0400 118.4 125.7
116(5) 0.0400 118.3 124.2
124(5) 0.0400 118.3 122.2
117(5) 0.0400 118.2 120.3
126(5) 0.0400 118.1 119.1
118(5) 0.0400 118.1 118.4
115(5) 0.0400 118.0 118.1
120(5) 0.0400 118.0 118.0
117(5) 0.0400 117.9 117.9
112(5) 0.0400 117.9 117.9
113(5) 0.0400 117.8 117.8
117(5) 0.0400 117.8 117.8
118(5) 0.0400 117.7 117.7
114(5) 0.0400 117.7 117.7
107(5) 0.0400 117.6 117.6
113(5) 0.0400 117.6 117.6
116(5) 0.0400 117.5 117.5
116(5) 0.0400 117.5 117.5
114(5) 0.0400 117.4 117.6
113(5) 0.0400 117.4 118.3
124(5) 0.0400 117.3 121.0
128(5) 0.0400 117.3 128.7
138(6) 0.02778 117.2 145.8
166(6) 0.02778 117.2 175.3
212(7) 0.02041 117.1 213.2
237(7) 0.02041 117.1 246.0
258(8) 0.01563 117.0 257.5
244(7) 0.02041 117.0 241.3
203(7) 0.02041 116.9 206.2
175(6) 0.02778 116.9 169.0
135(6) 0.02778 116.8 141.5
120(5) 0.0400 116.8 126.3
109(5) 0.0400 116.8 119.7
106(5) 0.0400 116.7 117.5
116(5) 0.0400 116.7 116.7
117(5) 0.0400 116.6 116.9
122(5) 0.0400 116.6 117.8
128(5) 0.0400 116.5 120.9
129(5) 0.0400 116.5 129.2
142(6) 0.02778 116.4 146.4
173(6) 0.02778 116.4 173.7
203(7) 0.02041 116.4 205.3
224(7) 0.02041 116.3 228.5
239(7) 0.02041 116.3 231.5
218(7) 0.02041 116.2 213.3
178(6) 0.02778 116.2 186.0
163(6) 0.02778 116.1 166.1
160(6) 0.02778 116.1 164.8
177(6) 0.02778 116.1 182.6
208(7) 0.02041 116.0 208.9
235(7) 0.02041 116.0 227.5
227(7) 0.02041 115.9 226.0
213(7) 0.02041 115.9 204.5
172(6) 0.02778 115.8 173.8
145(6) 0.02778 115.8 146.6
128(5) 0.0400 115.8 129.1
121(5) 0.0400 115.7 120.5
109(5) 0.0400 115.7 117.3
116(5) 0.0400 115.6 116.2
123(5) 0.0400 115.6 116.4
115(5) 0.0400 115.6 116.7
121(5) 0.0400 115.5 116.7
124(5) 0.0400 115.5 116.5
116(5) 0.0400 115.5 116.1
115(5) 0.0400 115.4 115.8
111(5) 0.0400 115.4 115.6
115(5) 0.0400 115.3 115.4
111(5) 0.0400 115.3 115.3
100(5) 0.0400 115.3 115.3
112(5) 0.0400 115.2 115.2
111(5) 0.0400 115.2 115.2
112(5) 0.0400 115.2 115.2
123(5) 0.0400 115.1 115.1
108(5) 0.0400 115.1 115.1
123(5) 0.0400 115.0 115.3
112(5) 0.0400 115.0 116.1
116(5) 0.0400 115.0 118.9
123(5) 0.0400 114.9 126.8
147(6) 0.02778 114.9 144.2
172(6) 0.02778 114.9 173.9
203(7) 0.02041 114.8 211.4
244(7) 0.02041 114.8 243.4
261(7) 0.02041 114.8 254.1
232(7) 0.02041 114.7 237.5
200(7) 0.02041 114.7 202.7
159(6) 0.02778 114.7 166.0
139(5) 0.0400 114.6 139.0
127(5) 0.0400 114.6 124.0
115(5) 0.0400 114.6 117.5
107(5) 0.0400 114.6 115.3
115(5) 0.0400 114.5 114.5
114(5) 0.0400 114.5 114.8
121(5) 0.0400 114.5 115.9
126(5) 0.0400 114.4 120.4
155(6) 0.02778 114.4 134.9
171(6) 0.02778 114.4 171.5
240(7) 0.02041 114.3 244.0
333(8) 0.01563 114.3 353.9
469(10) 0.01000 114.3 475.3
579(11) 0.00826 114.3 558.6
572(11) 0.00826 114.2 562.8
512(10) 0.01000 114.2 488.5
387(9) 0.01235 114.2 376.4
257(7) 0.02041 114.1 272.7
191(6) 0.02778 114.1 200.2
160(6) 0.02778 114.1 157.6
142(6) 0.02778 114.1 134.8
121(5) 0.0400 114.0 123.4
124(5) 0.0400 114.0 118.5
126(5) 0.0400 114.0 119.3
126(5) 0.0400 114.0 125.5
143(6) 0.02778 113.9 138.4
159(6) 0.02778 113.9 157.9
191(6) 0.02778 113.9 179.7
204(7) 0.02041 113.8 197.1
210(7) 0.02041 113.8 204.8
202(7) 0.02041 113.8 201.6
204(7) 0.02041 113.8 190.1
169(6) 0.02778 113.7 174.2
160(6) 0.02778 113.7 159.5
164(6) 0.02778 113.7 154.4
175(6) 0.02778 113.7 169.2
215(7) 0.02041 113.7 211.0
270(8) 0.01563 113.6 275.4
345(9) 0.01235 113.6 339.9
377(9) 0.01235 113.6 373.3
372(9) 0.01235 113.6 357.1
301(8) 0.01563 113.5 299.7
216(7) 0.02041 113.5 229.5
165(6) 0.02778 113.5 172.5
129(5) 0.0400 113.5 137.9
124(5) 0.0400 113.5 121.7
115(5) 0.0400 113.4 115.7
113(5) 0.0400 113.4 113.4
111(5) 0.0400 113.4 113.4
123(5) 0.0400 113.4 113.4
112(5) 0.0400 113.3 113.3
114(5) 0.0400 113.3 113.3
115(5) 0.0400 113.3 113.3
113(5) 0.0400 113.3 113.3
115(5) 0.0400 113.3 113.3
116(5) 0.0400 113.3 113.3
119(5) 0.0400 113.2 113.2
116(5) 0.0400 113.2 113.2
115(5) 0.0400 113.2 113.2
133(5) 0.0400 113.2 113.2
121(5) 0.0400 113.2 113.2
117(5) 0.0400 113.1 113.4
123(5) 0.0400 113.1 114.1
129(5) 0.0400 113.1 117.3
131(5) 0.0400 113.1 126.4
157(5) 0.0400 113.1 148.1
203(6) 0.02778 113.1 190.5
258(7) 0.02041 113.0 257.1
337(8) 0.01563 113.0 341.3
429(9) 0.01235 113.0 426.1
495(10) 0.01000 113.0 494.2
540(10) 0.01000 113.0 538.6
542(10) 0.01000 113.0 561.0
549(10) 0.01000 112.9 559.6
540(10) 0.01000 112.9 527.1
490(10) 0.01000 112.9 466.8
419(9) 0.01235 112.9 405.7
366(8) 0.01563 112.9 380.4
393(9) 0.01235 112.9 405.4
448(9) 0.01235 112.8 454.1
490(10) 0.01000 112.8 478.9
468(9) 0.01235 112.8 447.5
386(9) 0.01235 112.8 366.7
289(7) 0.02041 112.8 273.1
202(6) 0.02778 112.8 199.4
162(6) 0.02778 112.8 159.8
147(5) 0.0400 112.7 150.5
168(6) 0.0 112.7 .
194(6) 0.0 112.7 .
227(7) 0.0 112.7 .
298(8) 0.0 112.7 .
373(8) 0.0 112.7 .
481(10) 0.0 112.7 .
570(10) 0.0 112.7 .
612(11) 0.0 112.6 .
577(10) 0.0 112.6 .
492(10) 0.0 112.6 .
375(8) 0.0 112.6 .
329(8) 0.0 112.6 .
281(7) 0.0 112.6 .
253(7) 0.0 112.6 .
200(6) 0.0 112.6 .
169(6) 0.0 112.6 .
149(5) 0.0 112.5 .
158(5) 0.0400 112.5 144.4
159(6) 0.02778 112.5 141.3
151(5) 0.0400 112.5 136.7
139(5) 0.0400 112.5 133.7
136(5) 0.0400 112.5 134.8
136(5) 0.0400 112.5 140.9
149(5) 0.0400 112.5 148.9
165(6) 0.02778 112.5 153.6
157(5) 0.0400 112.5 151.7
144(5) 0.0400 112.4 144.3
134(5) 0.0400 112.4 135.2
135(5) 0.0400 112.4 127.9
126(5) 0.0400 112.4 123.8
123(5) 0.0400 112.4 123.4
128(5) 0.0400 112.4 127.0
132(5) 0.0400 112.4 134.9
142(5) 0.0400 112.4 145.4
158(5) 0.0400 112.4 154.0
161(6) 0.02778 112.4 156.1
139(5) 0.0400 112.4 150.2
130(5) 0.0400 112.4 139.3
121(5) 0.0400 112.3 128.1
123(5) 0.0400 112.3 119.9
117(5) 0.0400 112.3 115.3
115(5) 0.0400 112.3 113.3
115(5) 0.0400 112.3 112.6
107(5) 0.0400 112.3 112.3
106(5) 0.0400 112.3 112.3
109(5) 0.0400 112.3 112.3
104(4) 0.0625 112.3 112.3
107(5) 0.0400 112.3 112.3
110(5) 0.0400 112.3 112.3
116(5) 0.0400 112.3 112.3
118(5) 0.0400 112.3 112.3
111(5) 0.0400 112.2 112.2
119(5) 0.0400 112.2 112.2
112(5) 0.0400 112.2 112.2
110(5) 0.0400 112.2 112.2
120(5) 0.0400 112.2 112.2
118(5) 0.0400 112.2 112.7
126(5) 0.0400 112.2 114.3
123(5) 0.0400 112.2 118.9
134(5) 0.0400 112.2 130.0
155(5) 0.0400 112.2 151.5
196(8) 0.01563 112.2 183.5
226(6) 0.02778 112.2 218.6
243(7) 0.02041 112.2 243.0
247(7) 0.02041 112.2 244.5
219(6) 0.02778 112.2 222.2
189(6) 0.02778 112.2 187.5
151(5) 0.0400 112.2 154.6
131(5) 0.0400 112.2 131.8
124(5) 0.0400 112.1 119.7
114(4) 0.0625 112.1 114.6
111(4) 0.0625 112.1 113.2
112(4) 0.0625 112.1 113.5
121(5) 0.0400 112.1 115.7
120(5) 0.0400 112.1 119.8
124(5) 0.0400 112.1 125.9
131(5) 0.0400 112.1 132.2
135(5) 0.0400 112.1 136.4
143(5) 0.0400 112.1 136.3
131(5) 0.0400 112.1 131.9
124(5) 0.0400 112.1 125.5
121(5) 0.0400 112.1 119.6
119(5) 0.0400 112.1 115.9
113(4) 0.0625 112.1 114.8
117(5) 0.0400 112.1 117.0
121(5) 0.0400 112.1 123.8
138(5) 0.0400 112.1 137.7
159(5) 0.0400 112.1 160.5
192(6) 0.02778 112.1 191.7
227(6) 0.02778 112.1 227.7
258(7) 0.02041 112.1 262.2
285(7) 0.02041 112.0 287.4
301(7) 0.02041 112.0 296.8
294(7) 0.02041 112.0 288.1
261(7) 0.02041 112.0 263.8
235(6) 0.02778 112.0 230.6
195(6) 0.02778 112.0 196.4
170(5) 0.0400 112.0 167.7
148(5) 0.0400 112.0 148.0
133(5) 0.0400 112.0 136.1
127(5) 0.0400 112.0 129.0
120(5) 0.0400 112.0 124.4
118(5) 0.0400 112.0 120.1
117(5) 0.0400 112.0 117.5
119(5) 0.0400 112.0 116.7
124(5) 0.0400 112.0 119.9
129(5) 0.0400 112.0 130.6
146(5) 0.0400 112.0 151.8
177(6) 0.02778 112.0 183.6
214(6) 0.02778 112.0 219.0
238(6) 0.02778 112.0 244.2
244(7) 0.02041 112.0 247.1
230(6) 0.02778 112.0 226.4
199(6) 0.02778 112.0 192.5
168(5) 0.0400 112.0 160.3
137(5) 0.0400 112.0 140.1
133(5) 0.0400 112.0 134.7
147(5) 0.0400 111.9 141.7
161(5) 0.0400 111.9 155.8
179(6) 0.02778 111.9 169.2
196(6) 0.02778 111.9 175.7
187(6) 0.02778 111.9 172.2
171(5) 0.0400 111.9 161.8
151(5) 0.0400 111.9 150.2
144(5) 0.0400 111.9 141.1
140(5) 0.0400 111.9 134.5
127(5) 0.0400 111.9 129.1
120(5) 0.0400 111.9 124.1
117(5) 0.0400 111.9 120.5
119(5) 0.0400 111.9 120.8
120(5) 0.0400 111.9 127.0
134(5) 0.0400 111.9 140.8
150(5) 0.0400 111.9 161.0
178(6) 0.02778 111.9 182.1
193(6) 0.02778 111.9 195.4
195(6) 0.02778 111.9 194.5
182(6) 0.02778 111.9 179.7
152(5) 0.0400 111.9 158.1
132(5) 0.0400 111.9 138.1
123(5) 0.0400 111.9 124.2
114(4) 0.0625 111.9 116.7
111(4) 0.0625 111.9 113.4
113(4) 0.0625 111.9 112.3
106(4) 0.0625 111.9 111.9
109(4) 0.0625 111.8 111.9
110(4) 0.0625 111.8 111.8
109(4) 0.0625 111.8 111.8
114(4) 0.0625 111.8 111.8
113(4) 0.0625 111.8 111.8
107(4) 0.0625 111.8 111.9
110(4) 0.0625 111.8 112.1
111(4) 0.0625 111.8 113.0
117(5) 0.0400 111.8 115.6
131(5) 0.0400 111.8 122.1
136(5) 0.0400 111.8 135.6
160(5) 0.0400 111.8 157.9
183(6) 0.02778 111.8 187.3
216(6) 0.02778 111.8 216.8
246(7) 0.02041 111.8 238.5
250(7) 0.02041 111.8 248.8
238(6) 0.02778 111.8 250.4
249(7) 0.02041 111.8 247.5
241(6) 0.02778 111.8 239.9
229(6) 0.02778 111.8 224.1
188(6) 0.02778 111.8 199.6
170(5) 0.0400 111.8 171.2
143(5) 0.0400 111.7 146.3
123(5) 0.0400 111.7 129.0
113(4) 0.0625 111.7 119.3
110(4) 0.0625 111.7 114.9
113(4) 0.0625 111.7 113.3
118(5) 0.0400 111.7 113.0
110(4) 0.0625 111.7 113.3
113(4) 0.0625 111.7 114.1
123(5) 0.0400 111.7 115.9
122(5) 0.0400 111.7 120.8
134(5) 0.0400 111.7 133.1
146(5) 0.0400 111.7 158.6
189(6) 0.02778 111.7 200.9
240(6) 0.02778 111.7 255.7
309(7) 0.02041 111.7 307.3
345(8) 0.01563 111.7 335.7
336(8) 0.01563 111.7 330.6
303(7) 0.02041 111.7 300.4
283(7) 0.02041 111.6 267.0
252(7) 0.02041 111.6 248.2
264(7) 0.02041 111.6 245.2
264(7) 0.02041 111.6 245.4
251(7) 0.02041 111.6 235.2
221(6) 0.02778 111.6 212.1
185(6) 0.02778 111.6 185.4
165(5) 0.0400 111.6 169.0
173(5) 0.0400 111.6 173.1
192(6) 0.02778 111.6 199.3
231(6) 0.02778 111.6 238.5
276(7) 0.02041 111.6 273.2
287(7) 0.02041 111.6 285.8
263(7) 0.02041 111.6 269.0
223(6) 0.02778 111.5 230.7
190(6) 0.02778 111.5 187.1
147(5) 0.0400 111.5 151.6
126(5) 0.0400 111.5 129.4
122(5) 0.0400 111.5 118.5
116(4) 0.0625 111.5 114.3
114(4) 0.0625 111.5 113.3
121(5) 0.0400 111.5 113.8
117(5) 0.0400 111.5 115.5
114(4) 0.0625 111.5 119.0
123(5) 0.0400 111.5 124.8
124(5) 0.0400 111.5 132.8
135(5) 0.0400 111.5 140.8
141(5) 0.0400 111.4 145.8
146(5) 0.0400 111.4 145.3
135(5) 0.0400 111.4 139.4
124(5) 0.0400 111.4 130.9
120(5) 0.0400 111.4 122.7
113(4) 0.0625 111.4 116.9
118(5) 0.0400 111.4 113.7
112(4) 0.0625 111.4 112.2
104(4) 0.0625 111.4 111.6
112(4) 0.0625 111.4 111.4
108(4) 0.0625 111.3 111.4
112(4) 0.0625 111.3 111.5
106(4) 0.0625 111.3 111.8
111(4) 0.0625 111.3 113.1
114(4) 0.0625 111.3 116.5
120(5) 0.0400 111.3 124.4
134(5) 0.0400 111.3 139.1
152(5) 0.0400 111.3 160.9
175(5) 0.0400 111.3 185.8
199(6) 0.02778 111.3 205.3
204(6) 0.02778 111.2 211.1
200(6) 0.02778 111.2 200.4
180(6) 0.02778 111.2 178.2
151(5) 0.0400 111.2 153.6
133(5) 0.0400 111.2 133.7
129(5) 0.0400 111.2 121.3
129(5) 0.0400 111.2 115.0
122(5) 0.0400 111.2 112.4
122(5) 0.0400 111.2 111.5
131(5) 0.0400 111.1 111.2
130(5) 0.0400 111.1 111.1
129(5) 0.0400 111.1 111.1
123(5) 0.0400 111.1 111.2
121(5) 0.0400 111.1 111.4
120(5) 0.0400 111.1 112.3
131(5) 0.0400 111.1 115.3
135(5) 0.0400 111.1 123.9
148(5) 0.0400 111.0 143.6
184(6) 0.02778 111.0 181.1
235(6) 0.02778 111.0 238.0
308(7) 0.02041 111.0 305.5
366(8) 0.01563 111.0 362.6
396(8) 0.01563 111.0 385.9
372(8) 0.01563 111.0 365.6
308(7) 0.02041 111.0 312.4
248(7) 0.02041 110.9 250.5
195(6) 0.02778 110.9 201.4
166(5) 0.0400 110.9 173.0
161(5) 0.0400 110.9 160.6
149(5) 0.0400 110.9 154.4
145(4) 0.0625 110.9 147.6
137(5) 0.0400 110.9 138.6
131(5) 0.0400 110.8 129.4
126(5) 0.0400 110.8 123.3
127(5) 0.0400 110.8 122.2
133(5) 0.0400 110.8 127.0
144(5) 0.0400 110.8 137.0
158(5) 0.0400 110.8 150.0
173(5) 0.0400 110.8 163.4
177(5) 0.0400 110.7 175.3
179(5) 0.0400 110.7 186.6
192(6) 0.02778 110.7 199.3
200(6) 0.02778 110.7 212.6
222(6) 0.02778 110.7 221.5
219(6) 0.02778 110.7 219.3
200(6) 0.02778 110.7 203.8
182(5) 0.0400 110.6 179.3
151(5) 0.0400 110.6 153.8
133(5) 0.0400 110.6 133.7
124(4) 0.0625 110.6 121.1
116(4) 0.0625 110.6 115.0
113(4) 0.0625 110.6 113.1
117(4) 0.0625 110.5 114.2
116(4) 0.0625 110.5 118.1
122(4) 0.0625 110.5 124.9
136(5) 0.0400 110.5 133.9
145(5) 0.0400 110.5 142.8
151(5) 0.0400 110.5 148.6
151(5) 0.0400 110.4 149.0
139(5) 0.0400 110.4 144.4
133(5) 0.0400 110.4 137.8
128(5) 0.0400 110.4 132.3
127(5) 0.0400 110.4 129.7
127(5) 0.0400 110.3 129.3
130(5) 0.0400 110.3 129.3
121(4) 0.0625 110.3 128.1
124(4) 0.0625 110.3 125.6
120(4) 0.0625 110.3 122.6
120(4) 0.0625 110.3 120.6
120(4) 0.0625 110.2 121.8
124(4) 0.0625 110.2 128.7
136(5) 0.0400 110.2 143.7
159(5) 0.0400 110.2 167.3
185(5) 0.0400 110.2 196.3
218(6) 0.02778 110.1 223.2
240(6) 0.02778 110.1 238.9
241(6) 0.02778 110.1 237.6
224(6) 0.02778 110.1 219.9
198(6) 0.02778 110.1 192.8
171(5) 0.0400 110.0 166.1
151(5) 0.0400 110.0 148.6
148(5) 0.0400 110.0 146.4
163(5) 0.0400 110.0 162.8
204(6) 0.02778 110.0 197.2
245(6) 0.02778 109.9 243.1
293(7) 0.02041 109.9 287.0
317(7) 0.02041 109.9 313.7
300(7) 0.02041 109.9 314.9
275(7) 0.02041 109.9 294.7
248(6) 0.02778 109.8 265.6
230(6) 0.02778 109.8 239.0
221(6) 0.02778 109.8 218.3
197(6) 0.02778 109.8 200.3
190(6) 0.02778 109.8 181.3
170(5) 0.0400 109.7 161.0
143(5) 0.0400 109.7 142.0
131(5) 0.0400 109.7 127.4
121(4) 0.0625 109.7 118.0
112(4) 0.0625 109.7 113.1
115(4) 0.0625 109.6 110.8
108(4) 0.0625 109.6 110.0
112(4) 0.0625 109.6 109.8
116(4) 0.0625 109.6 110.0
112(4) 0.0625 109.5 110.8
117(4) 0.0625 109.5 113.3
125(4) 0.0625 109.5 119.2
133(5) 0.0400 109.5 130.8
150(5) 0.0400 109.5 149.7
174(5) 0.0400 109.4 175.0
203(6) 0.02778 109.4 201.2
223(6) 0.02778 109.4 220.2
229(6) 0.02778 109.4 224.5
210(6) 0.02778 109.3 212.9
200(6) 0.02778 109.3 190.9
165(5) 0.0400 109.3 168.7
149(5) 0.0400 109.3 156.1
148(5) 0.0400 109.2 159.9
174(5) 0.0400 109.2 181.4
212(6) 0.02778 109.2 215.5
257(6) 0.02778 109.2 250.8
289(7) 0.02041 109.2 273.3
291(7) 0.02041 109.1 272.8
255(6) 0.02778 109.1 249.5
206(6) 0.02778 109.1 212.9
169(5) 0.0400 109.1 176.1
149(5) 0.0400 109.0 148.5
135(5) 0.0400 109.0 133.3
132(5) 0.0400 109.0 128.4
137(5) 0.0400 109.0 129.9
132(5) 0.0400 108.9 134.6
144(7) 0.02041 108.9 139.9
146(5) 0.0400 108.9 144.3
148(5) 0.0400 108.9 146.5
137(5) 0.0400 108.8 145.3
137(5) 0.0400 108.8 140.4
128(4) 0.0625 108.8 133.1
124(4) 0.0625 108.8 125.1
116(4) 0.0625 108.7 118.6
116(4) 0.0625 108.7 114.4
109(4) 0.0625 108.7 112.5
111(4) 0.0625 108.7 112.3
111(4) 0.0625 108.6 112.9
111(4) 0.0625 108.6 113.5
119(4) 0.0625 108.6 113.6
118(4) 0.0625 108.6 113.1
108(4) 0.0625 108.5 112.1
108(4) 0.0625 108.5 111.3
110(4) 0.0625 108.5 111.5
112(4) 0.0625 108.4 113.8
116(4) 0.0625 108.4 119.9
128(4) 0.0625 108.4 131.3
143(5) 0.0400 108.4 148.6
168(5) 0.0400 108.3 169.7
183(5) 0.0400 108.3 189.6
201(6) 0.02778 108.3 202.3
206(6) 0.02778 108.3 204.1
194(6) 0.02778 108.2 196.1
186(5) 0.0400 108.2 182.9
169(5) 0.0400 108.2 169.3
162(5) 0.0400 108.2 157.5
155(5) 0.0400 108.1 147.2
134(5) 0.0400 108.1 137.7
134(5) 0.0400 108.1 129.1
124(4) 0.0625 108.0 123.0
117(4) 0.0625 108.0 121.2
119(4) 0.0625 108.0 126.0
138(5) 0.0400 108.0 139.6
155(5) 0.0400 107.9 163.3
195(6) 0.02778 107.9 197.4
239(6) 0.02778 107.9 240.3
276(7) 0.02041 107.9 288.7
324(7) 0.02041 107.8 337.0
359(8) 0.01563 107.8 377.1
394(8) 0.01563 107.8 399.0
389(8) 0.01563 107.7 394.6
364(8) 0.01563 107.7 362.9
324(7) 0.02041 107.7 312.0
274(7) 0.02041 107.7 256.1
216(6) 0.02778 107.6 210.0
202(6) 0.02778 107.6 184.1
202(6) 0.02778 107.6 183.4
211(6) 0.02778 107.6 208.1
243(6) 0.02778 107.5 253.8
295(7) 0.02041 107.5 309.8
363(8) 0.01563 107.5 360.0
387(8) 0.01563 107.4 386.5
378(8) 0.01563 107.4 378.5
332(7) 0.02041 107.4 337.8
271(7) 0.02041 107.4 278.3
214(6) 0.02778 107.3 217.8
168(5) 0.0400 107.3 169.4
133(5) 0.0400 107.3 137.7
124(4) 0.0625 107.2 120.2
108(4) 0.0625 107.2 112.1
108(4) 0.0625 107.2 109.2
106(4) 0.0625 107.2 108.7
108(4) 0.0625 107.1 109.7
110(4) 0.0625 107.1 111.9
106(4) 0.0625 107.1 115.0
118(4) 0.0625 107.0 118.5
121(4) 0.0625 107.0 121.5
125(4) 0.0625 107.0 123.0
128(4) 0.0625 106.9 122.4
132(5) 0.0400 106.9 120.3
115(4) 0.0625 106.9 117.5
109(4) 0.0625 106.9 115.2
112(4) 0.0625 106.8 113.8
105(4) 0.0625 106.8 113.2
110(4) 0.0625 106.8 112.9
104(4) 0.0625 106.7 112.3
109(4) 0.0625 106.7 111.3
112(4) 0.0625 106.7 110.1
111(4) 0.0625 106.7 109.0
110(4) 0.0625 106.6 108.1
103(4) 0.0625 106.6 107.8
102(4) 0.0625 106.6 108.0
102(4) 0.0625 106.5 108.8
115(4) 0.0625 106.5 110.2
113(4) 0.0625 106.5 112.3
111(4) 0.0625 106.5 115.1
114(4) 0.0625 106.4 118.9
122(4) 0.0625 106.4 124.3
129(5) 0.0400 106.4 132.1
137(5) 0.0400 106.3 142.6
143(5) 0.0400 106.3 154.3
162(5) 0.0400 106.3 164.4
163(5) 0.0400 106.2 169.2
169(5) 0.0400 106.2 167.0
162(5) 0.0400 106.2 158.7
141(5) 0.0400 106.2 148.8
137(5) 0.0400 106.1 142.9
150(5) 0.0400 106.1 146.4
164(5) 0.0400 106.1 162.7
195(6) 0.02778 106.0 191.1
228(6) 0.02778 106.0 225.9
269(7) 0.02041 106.0 257.5
287(7) 0.02041 106.0 275.0
286(7) 0.02041 105.9 272.2
255(6) 0.02778 105.9 250.2
220(6) 0.02778 105.9 216.8
188(6) 0.02778 105.8 182.1
154(5) 0.0400 105.8 153.4
133(5) 0.0400 105.8 133.6
128(5) 0.0400 105.7 121.6
121(4) 0.0625 105.7 114.8
121(4) 0.0625 105.7 111.0
119(4) 0.0625 105.7 108.7
115(4) 0.0625 105.6 107.3
112(4) 0.0625 105.6 106.5
119(4) 0.0625 105.6 106.3
108(4) 0.0625 105.5 106.6
105(4) 0.0625 105.5 107.7
108(4) 0.0625 105.5 109.9
119(4) 0.0625 105.5 113.6
111(4) 0.0625 105.4 118.6
126(5) 0.0400 105.4 124.3
130(5) 0.0400 105.4 129.2
137(5) 0.0400 105.3 131.9
134(5) 0.0400 105.3 131.4
123(4) 0.0625 105.3 127.9
124(4) 0.0625 105.3 122.7
117(4) 0.0625 105.2 117.1
123(4) 0.0625 105.2 112.3
109(4) 0.0625 105.2 109.0
103(4) 0.0625 105.1 106.9
111(4) 0.0625 105.1 105.9
111(4) 0.0625 105.1 105.4
112(4) 0.0625 105.1 105.3
97(4) 0.0625 105.0 105.4
111(4) 0.0625 105.0 105.8
115(4) 0.0625 105.0 106.8
119(4) 0.0625 104.9 108.8
128(5) 0.0400 104.9 112.8
128(5) 0.0400 104.9 120.3
139(5) 0.0400 104.8 132.8
156(5) 0.0400 104.8 151.3
171(5) 0.0400 104.8 174.7
202(6) 0.02778 104.8 199.1
211(6) 0.02778 104.7 219.2
224(6) 0.02778 104.7 230.0
238(6) 0.02778 104.7 229.0
214(6) 0.02778 104.7 217.6
196(6) 0.02778 104.6 199.4
175(5) 0.0400 104.6 178.6
166(5) 0.0400 104.6 158.5
146(5) 0.0400 104.5 141.0
130(5) 0.0400 104.5 127.3
112(4) 0.0625 104.5 117.6
108(4) 0.0625 104.5 111.3
110(4) 0.0625 104.4 107.7
118(4) 0.0625 104.4 105.8
107(4) 0.0625 104.4 105.1
108(4) 0.0625 104.3 104.8
101(4) 0.0625 104.3 104.8
101(4) 0.0625 104.3 104.7
100(4) 0.0625 104.3 104.7
111(4) 0.0625 104.2 104.6
102(4) 0.0625 104.2 104.5
105(4) 0.0625 104.2 104.4
105(4) 0.0625 104.1 104.3
104(4) 0.0625 104.1 104.2
92(4) 0.0625 104.1 104.1
105(4) 0.0625 104.1 104.1
102(4) 0.0625 104.0 104.2
104(4) 0.0625 104.0 104.4
107(4) 0.0625 104.0 104.9
102(4) 0.0625 104.0 106.0
106(4) 0.0625 103.9 108.3
107(4) 0.0625 103.9 111.9
114(4) 0.0625 103.9 117.1
118(4) 0.0625 103.9 123.4
130(5) 0.0400 103.8 129.8
137(5) 0.0400 103.8 135.1
132(5) 0.0400 103.8 138.2
140(5) 0.0400 103.7 139.1
141(5) 0.0400 103.7 138.2
131(5) 0.0400 103.7 136.3
126(5) 0.0400 103.7 134.0
127(5) 0.0400 103.6 131.6
122(4) 0.0625 103.6 129.3
137(5) 0.0400 103.6 127.1
130(5) 0.0400 103.6 125.2
125(4) 0.0625 103.5 123.7
126(5) 0.0400 103.5 122.8
116(4) 0.0625 103.5 123.7
122(4) 0.0625 103.5 128.4
129(5) 0.0400 103.4 139.4
152(5) 0.0400 103.4 158.4
183(5) 0.0400 103.4 184.7
213(6) 0.02778 103.4 214.0
229(6) 0.02778 103.3 239.2
257(7) 0.02041 103.3 252.7
262(7) 0.02041 103.3 249.8
240(6) 0.02778 103.3 231.5
210(6) 0.02778 103.2 203.4
170(5) 0.0400 103.2 173.2
150(5) 0.0400 103.2 147.4
130(5) 0.0400 103.2 129.6
115(4) 0.0625 103.1 120.5
121(4) 0.0625 103.1 119.0
127(5) 0.0400 103.1 123.6
125(5) 0.0400 103.1 132.2
149(5) 0.0400 103.0 142.3
156(5) 0.0400 103.0 152.0
165(5) 0.0400 103.0 158.2
168(5) 0.0400 103.0 159.8
155(5) 0.0400 102.9 157.2
148(5) 0.0400 102.9 151.9
143(5) 0.0400 102.9 145.9
141(5) 0.0400 102.9 140.5
142(5) 0.0400 102.8 135.8
138(5) 0.0400 102.8 131.2
122(4) 0.0625 102.8 126.3
127(5) 0.0400 102.8 121.2
113(4) 0.0625 102.7 116.3
110(4) 0.0625 102.7 112.2
111(4) 0.0625 102.7 109.2
115(4) 0.0625 102.7 107.2
108(4) 0.0625 102.7 106.1
106(4) 0.0625 102.6 105.5
102(4) 0.0625 102.6 105.6
110(4) 0.0625 102.6 106.5
105(4) 0.0625 102.6 108.5
110(4) 0.0625 102.5 111.8
113(4) 0.0625 102.5 116.3
120(4) 0.0625 102.5 121.8
128(5) 0.0400 102.5 128.3
128(5) 0.0400 102.4 135.8
150(5) 0.0400 102.4 145.0
155(5) 0.0400 102.4 156.5
174(5) 0.0400 102.4 169.6
183(5) 0.0400 102.4 182.5
188(6) 0.02778 102.3 191.9
181(5) 0.0400 102.3 194.6
178(5) 0.0400 102.3 189.1
167(5) 0.0400 102.3 176.4
157(5) 0.0400 102.3 159.7
136(5) 0.0400 102.2 142.6
131(5) 0.0400 102.2 128.1
118(4) 0.0625 102.2 117.9
115(4) 0.0625 102.2 112.1
116(4) 0.0625 102.1 110.5
109(4) 0.0625 102.1 112.6
117(4) 0.0625 102.1 118.0
125(5) 0.0400 102.1 126.2
139(5) 0.0400 102.1 136.5
150(5) 0.0400 102.0 147.3
157(5) 0.0400 102.0 157.0
164(5) 0.0400 102.0 164.1
166(5) 0.0400 102.0 167.9
168(5) 0.0400 102.0 168.0
160(5) 0.0400 101.9 164.6
151(5) 0.0400 101.9 158.2
143(5) 0.0400 101.9 149.8
137(5) 0.0400 101.9 140.9
127(5) 0.0400 101.9 133.6
128(5) 0.0400 101.8 129.9
131(5) 0.0400 101.8 131.4
127(5) 0.0400 101.8 138.4
136(5) 0.0400 101.8 149.7
156(5) 0.0400 101.8 162.8
174(5) 0.0400 101.8 174.1
183(5) 0.0400 101.7 180.7
181(5) 0.0400 101.7 181.4
182(5) 0.0400 101.7 177.4
168(5) 0.0400 101.7 171.7
161(5) 0.0400 101.7 168.0
157(5) 0.0400 101.6 168.7
162(5) 0.0400 101.6 174.5
178(5) 0.0400 101.6 184.4
203(6) 0.02778 101.6 196.1
201(6) 0.02778 101.6 207.2
206(6) 0.02778 101.5 215.3
219(6) 0.02778 101.5 218.5
212(6) 0.02778 101.5 216.1
208(6) 0.02778 101.5 207.6
186(6) 0.02778 101.5 194.3
173(5) 0.0400 101.5 178.3
155(5) 0.0400 101.4 162.1
151(5) 0.0400 101.4 147.4
134(5) 0.0400 101.4 135.3
131(5) 0.0400 101.4 125.8
120(4) 0.0625 101.4 118.7
117(4) 0.0625 101.4 113.7
114(4) 0.0625 101.3 110.4
104(4) 0.0625 101.3 108.5
105(4) 0.0625 101.3 108.2
104(4) 0.0625 101.3 108.9
103(4) 0.0625 101.3 109.9
117(4) 0.0625 101.3 110.8
111(4) 0.0625 101.2 111.1
111(4) 0.0625 101.2 110.7
110(4) 0.0625 101.2 109.7
106(4) 0.0625 101.2 108.7
114(4) 0.0625 101.2 108.2
110(4) 0.0625 101.2 108.8
106(4) 0.0625 101.2 111.0
117(4) 0.0625 101.1 114.6
125(5) 0.0400 101.1 119.4
127(5) 0.0400 101.1 125.0
131(5) 0.0400 101.1 131.5
142(5) 0.0400 101.1 139.5
149(5) 0.0400 101.1 150.6
158(5) 0.0400 101.0 166.7
188(6) 0.02778 101.0 188.6
204(6) 0.02778 101.0 214.8
238(6) 0.02778 101.0 241.3
257(7) 0.02041 101.0 261.9
284(7) 0.02041 101.0 270.8
283(7) 0.02041 101.0 265.0
252(7) 0.02041 101.0 245.5
222(6) 0.02778 100.9 217.1
191(6) 0.02778 100.9 186.2
169(5) 0.0400 100.9 159.2
159(5) 0.0400 100.9 140.2
165(5) 0.0400 100.9 132.2
175(5) 0.0400 100.9 137.3
210(6) 0.02778 100.9 158.2
250(6) 0.02778 100.8 197.8
310(7) 0.02041 100.8 257.8
375(8) 0.01563 100.8 336.1
443(9) 0.01235 100.8 425.2
508(9) 0.01235 100.8 512.1
591(10) 0.01000 100.8 582.1
635(10) 0.01000 100.8 623.4
631(10) 0.01000 100.8 632.2
610(10) 0.01000 100.7 613.8
560(10) 0.01000 100.7 579.7
525(9) 0.01235 100.7 542.3
485(9) 0.01235 100.7 510.6
465(9) 0.01235 100.7 488.5
462(9) 0.01235 100.7 476.7
471(9) 0.01235 100.7 474.8
488(9) 0.01235 100.7 482.3
508(9) 0.01235 100.6 497.0
513(9) 0.01235 100.6 513.7
541(10) 0.01000 100.6 524.1
538(10) 0.01000 100.6 519.9
504(9) 0.01235 100.6 496.1
462(9) 0.01235 100.6 454.0
403(8) 0.01563 100.6 399.6
339(8) 0.01563 100.6 341.0
273(7) 0.02041 100.6 285.5
235(6) 0.02778 100.5 237.4
199(6) 0.02778 100.5 198.2
176(5) 0.0400 100.5 167.8
144(5) 0.0400 100.5 145.4
141(5) 0.0400 100.5 129.9
126(5) 0.0400 100.5 120.4
125(5) 0.0400 100.5 116.0
126(5) 0.0400 100.5 115.5
120(4) 0.0625 100.5 117.7
127(5) 0.0400 100.5 121.6
126(5) 0.0400 100.4 125.9
124(5) 0.0400 100.4 129.8
131(5) 0.0400 100.4 133.2
140(5) 0.0400 100.4 136.4
146(5) 0.0400 100.4 140.5
143(5) 0.0400 100.4 146.3
148(5) 0.0400 100.4 154.3
162(5) 0.0400 100.4 164.0
169(5) 0.0400 100.4 174.2
175(5) 0.0400 100.4 182.9
198(6) 0.02778 100.3 188.5
191(6) 0.02778 100.3 190.0
174(5) 0.0400 100.3 187.1
180(5) 0.0400 100.3 180.4
173(5) 0.0400 100.3 171.2
164(5) 0.0400 100.3 160.8
151(5) 0.0400 100.3 151.2
146(5) 0.0400 100.3 143.8
138(5) 0.0400 100.3 139.9
140(5) 0.0400 100.3 140.1
149(5) 0.0400 100.3 144.1
150(5) 0.0400 100.3 151.0
160(5) 0.0400 100.2 159.2
168(5) 0.0400 100.2 166.8
170(5) 0.0400 100.2 172.4
185(6) 0.02778 100.2 175.0
182(6) 0.02778 100.2 175.2
181(6) 0.02778 100.2 174.8
172(5) 0.0400 100.2 176.7
186(6) 0.02778 100.2 183.6
182(6) 0.02778 100.2 197.0
212(6) 0.02778 100.2 216.3
238(6) 0.02778 100.2 238.4
258(7) 0.02041 100.2 258.7
272(7) 0.02041 100.2 272.6
286(7) 0.02041 100.1 277.1
269(7) 0.02041 100.1 272.3
251(7) 0.02041 100.1 260.7
239(6) 0.02778 100.1 246.8
232(6) 0.02778 100.1 235.2
223(6) 0.02778 100.1 228.7
226(6) 0.02778 100.1 228.3
235(6) 0.02778 100.1 232.4
243(6) 0.02778 100.1 238.5
240(6) 0.02778 100.1 243.7
250(6) 0.02778 100.1 246.9
253(7) 0.02041 100.1 248.4
252(6) 0.02778 100.1 249.8
253(6) 0.02778 100.1 252.5
261(7) 0.02041 100.1 256.3
271(7) 0.02041 100.0 259.8
265(7) 0.02041 100.0 260.1
262(7) 0.02041 100.0 254.7
237(6) 0.02778 100.0 242.8
214(6) 0.02778 100.0 225.7
194(6) 0.02778 100.0 205.8
175(5) 0.0400 100.0 186.3
168(5) 0.0400 100.0 169.1
154(5) 0.0400 100.0 155.1
147(5) 0.0400 100.0 144.1
132(5) 0.0400 100.0 135.2
129(5) 0.0400 100.0 127.5
123(5) 0.0400 100.0 120.8
115(4) 0.0625 100.0 114.9
118(4) 0.0625 100.0 110.1
109(4) 0.0625 100.0 106.3
110(4) 0.0625 100.0 103.7
107(4) 0.0625 99.9 102.1
107(4) 0.0625 99.9 101.2
95(4) 0.0625 99.9 101.0
103(4) 0.0625 99.9 101.4
103(4) 0.0625 99.9 102.4
98(4) 0.0625 99.9 104.2
111(4) 0.0625 99.9 106.8
107(4) 0.0625 99.9 110.5
114(4) 0.0625 99.9 114.9
112(4) 0.0625 99.9 119.8
120(4) 0.0625 99.9 124.5
127(5) 0.0400 99.9 128.6
136(5) 0.0400 99.9 131.7
133(5) 0.0400 99.9 134.1
135(5) 0.0400 99.9 136.3
139(5) 0.0400 99.9 139.5
142(5) 0.0400 99.9 144.5
149(5) 0.0400 99.9 151.6
165(5) 0.0400 99.9 160.2
177(5) 0.0400 99.8 168.8
173(5) 0.0400 99.8 175.4
178(5) 0.0400 99.8 178.1
166(5) 0.0400 99.8 175.9
169(5) 0.0400 99.8 168.7
162(5) 0.0400 99.8 158.0
144(5) 0.0400 99.8 145.6
135(5) 0.0400 99.8 133.3
127(5) 0.0400 99.8 122.6
117(4) 0.0625 99.8 114.3
109(4) 0.0625 99.8 108.5
105(4) 0.0625 99.8 104.8
100(4) 0.0625 99.8 102.9
108(4) 0.0625 99.8 102.4
101(4) 0.0625 99.8 103.2
97(4) 0.0625 99.8 105.4
115(4) 0.0625 99.8 109.4
114(4) 0.0625 99.8 115.7
122(5) 0.0400 99.8 124.6
139(5) 0.0400 99.8 136.3
152(5) 0.0400 99.8 150.6
170(5) 0.0400 99.8 166.5
180(5) 0.0400 99.8 183.1
195(6) 0.02778 99.8 199.0
219(6) 0.02778 99.7 212.8
229(6) 0.02778 99.7 223.4
236(6) 0.02778 99.7 230.1
241(6) 0.02778 99.7 232.5
235(6) 0.02778 99.7 230.6
231(6) 0.02778 99.7 224.6
210(6) 0.02778 99.7 215.2
200(6) 0.02778 99.7 203.3
199(6) 0.02778 99.7 190.3
187(6) 0.02778 99.7 177.7
164(5) 0.0400 99.7 166.8
165(5) 0.0400 99.7 158.6
160(5) 0.0400 99.7 153.2
159(5) 0.0400 99.7 150.2
153(5) 0.0400 99.7 148.8
153(5) 0.0400 99.7 148.1
146(5) 0.0400 99.7 147.1
137(5) 0.0400 99.7 145.3
147(5) 0.0400 99.7 142.4
138(5) 0.0400 99.7 138.5
133(5) 0.0400 99.7 133.7
129(5) 0.0400 99.7 128.3
120(4) 0.0625 99.7 122.8
118(4) 0.0625 99.7 117.6
121(4) 0.0625 99.7 112.9
107(4) 0.0625 99.7 109.0
104(4) 0.0625 99.6 105.9
104(6) 0.02778 99.6 103.6
100(4) 0.0625 99.6 102.0
101(4) 0.0625 99.6 101.1
105(4) 0.0625 99.6 100.7
102(4) 0.0625 99.6 100.6
99(4) 0.0625 99.6 100.9
104(4) 0.0625 99.6 101.5
103(4) 0.0625 99.6 102.4
103(4) 0.0625 99.6 103.7
98(4) 0.0625 99.6 105.2
108(4) 0.0625 99.6 107.0
104(4) 0.0625 99.6 108.7
108(4) 0.0625 99.6 110.4
111(4) 0.0625 99.6 111.6
107(4) 0.0625 99.6 112.3
103(4) 0.0625 99.6 112.5
108(4) 0.0625 99.6 112.4
115(4) 0.0625 99.6 112.2
111(4) 0.0625 99.6 112.5
107(4) 0.0625 99.6 113.7
104(4) 0.0625 99.6 116.3
111(4) 0.0625 99.6 120.4
121(4) 0.0625 99.6 125.8
129(5) 0.0400 99.6 132.0
130(5) 0.0400 99.6 138.3
138(5) 0.0400 99.6 143.9
142(5) 0.0400 99.6 148.1
151(5) 0.0400 99.5 150.6
149(5) 0.0400 99.5 151.8
147(5) 0.0400 99.5 152.1
142(5) 0.0400 99.5 152.1
143(5) 0.0400 99.5 152.1
148(5) 0.0400 99.5 152.3
150(5) 0.0400 99.5 152.0
148(5) 0.0400 99.5 150.8
147(5) 0.0400 99.5 148.1
151(5) 0.0400 99.5 143.8
140(5) 0.0400 99.5 137.9
129(5) 0.0400 99.5 131.2
126(5) 0.0400 99.5 124.4
117(4) 0.0625 99.5 118.4
110(4) 0.0625 99.5 113.5
105(4) 0.0625 99.5 110.5
110(4) 0.0625 99.5 109.2
106(4) 0.0625 99.5 109.6
114(4) 0.0625 99.5 111.5
112(4) 0.0625 99.5 114.4
116(4) 0.0625 99.5 117.8
122(4) 0.0625 99.5 121.3
125(5) 0.0400 99.5 124.0
129(5) 0.0400 99.5 125.7
127(5) 0.0400 99.5 126.2
126(5) 0.0400 99.5 125.4
128(5) 0.0400 99.4 123.9
123(5) 0.0400 99.4 122.2
114(4) 0.0625 99.4 121.1
114(4) 0.0625 99.4 120.9
119(4) 0.0625 99.4 122.1
119(4) 0.0625 99.4 124.6
127(5) 0.0400 99.4 127.9
132(5) 0.0400 99.4 131.3
127(5) 0.0400 99.4 134.0
127(5) 0.0400 99.4 135.5
134(5) 0.0400 99.4 135.3
132(5) 0.0400 99.4 133.5
126(5) 0.0400 99.4 130.1
127(5) 0.0400 99.4 126.1
121(4) 0.0625 99.4 122.1
121(4) 0.0625 99.4 118.7
115(4) 0.0625 99.4 116.7
112(4) 0.0625 99.4 116.4
116(4) 0.0625 99.4 117.9
113(4) 0.0625 99.4 121.0
117(4) 0.0625 99.4 125.2
134(5) 0.0400 99.4 130.0
131(5) 0.0400 99.4 134.4
135(5) 0.0400 99.4 137.8
146(5) 0.0400 99.3 139.6
142(5) 0.0400 99.3 139.8
133(5) 0.0400 99.3 138.4
134(5) 0.0400 99.3 136.1
136(5) 0.0400 99.3 133.7
130(5) 0.0400 99.3 131.8
123(5) 0.0400 99.3 131.1
128(5) 0.0400 99.3 131.5
130(5) 0.0400 99.3 133.0
138(5) 0.0400 99.3 134.9
142(5) 0.0400 99.3 136.5
147(5) 0.0400 99.3 137.3
146(5) 0.0400 99.3 136.7
146(5) 0.0400 99.3 134.6
142(5) 0.0400 99.3 131.1
134(5) 0.0400 99.3 127.0
130(5) 0.0400 99.3 122.4
126(5) 0.0400 99.3 118.1
113(4) 0.0625 99.3 114.4
106(4) 0.0625 99.3 111.4
106(4) 0.0625 99.3 109.3
103(4) 0.0625 99.3 107.8
98(4) 0.0625 99.2 106.9
92(4) 0.0625 99.2 106.2
105(4) 0.0625 99.2 105.7
108(4) 0.0625 99.2 105.3
110(4) 0.0625 99.2 105.1
102(4) 0.0625 99.2 105.1
107(4) 0.0625 99.2 105.4
105(4) 0.0625 99.2 106.1
109(4) 0.0625 99.2 107.3
106(4) 0.0625 99.2 108.7
103(4) 0.0625 99.2 110.4
107(4) 0.0625 99.2 112.1
112(4) 0.0625 99.2 113.5
119(4) 0.0625 99.2 114.6
115(4) 0.0625 99.2 115.2
115(4) 0.0625 99.2 115.3
108(4) 0.0625 99.2 115.2
115(4) 0.0625 99.2 115.1
115(4) 0.0625 99.2 115.4
114(4) 0.0625 99.2 116.1
111(4) 0.0625 99.2 117.6
115(4) 0.0625 99.1 119.7
121(4) 0.0625 99.1 122.2
121(4) 0.0625 99.1 124.6
129(4) 0.0625 99.1 126.5
132(5) 0.0400 99.1 127.5
127(4) 0.0625 99.1 127.3
127(4) 0.0625 99.1 125.9
124(4) 0.0625 99.1 123.5
122(4) 0.0625 99.1 120.4
117(4) 0.0625 99.1 117.1
113(4) 0.0625 99.1 113.9
109(4) 0.0625 99.1 111.1
111(4) 0.0625 99.1 108.8
106(4) 0.0625 99.1 107.1
105(4) 0.0625 99.1 105.9
108(4) 0.0625 99.1 104.9
106(4) 0.0625 99.1 104.1
109(4) 0.0625 99.1 103.4
106(4) 0.0625 99.1 102.7
105(4) 0.0625 99.0 102.0
110(4) 0.0625 99.0 101.4
112(4) 0.0625 99.0 100.9
105(4) 0.0625 99.0 100.6
106(4) 0.0625 99.0 100.6
108(4) 0.0625 99.0 100.9
109(4) 0.0625 99.0 101.7
111(4) 0.0625 99.0 103.3
115(4) 0.0625 99.0 105.9
114(4) 0.0625 99.0 109.9
123(4) 0.0625 99.0 115.8
134(5) 0.0400 99.0 123.8
137(5) 0.0400 99.0 134.2
139(5) 0.0400 99.0 147.1
159(5) 0.0400 99.0 162.2
178(5) 0.0400 99.0 178.7
199(6) 0.02778 99.0 195.7
216(6) 0.02778 99.0 211.9
235(6) 0.02778 99.0 226.3
249(6) 0.02778 98.9 238.3
258(6) 0.02778 98.9 247.9
260(6) 0.02778 98.9 255.9
255(6) 0.02778 98.9 263.9
267(6) 0.02778 98.9 273.5
281(7) 0.02041 98.9 286.3
290(7) 0.02041 98.9 303.4
306(7) 0.02041 98.9 324.5
337(7) 0.02041 98.9 348.3
362(8) 0.01563 98.9 372.5
394(8) 0.01563 98.9 393.9
407(8) 0.01563 98.9 409.4
406(8) 0.01563 98.9 416.4
405(8) 0.01563 98.9 413.3
398(8) 0.01563 98.9 400.1
392(8) 0.01563 98.9 378.2
363(8) 0.01563 98.9 350.2
336(7) 0.0 98.9 .
322(7) 0.0 98.9 .
310(7) 0.0 98.8 .
308(7) 0.0 98.8 .
317(7) 0.0 98.8 .
330(7) 0.0 98.8 .
331(7) 0.0 98.8 .
337(7) 0.0 98.8 .
335(7) 0.0 98.8 .
322(7) 0.0 98.8 .
299(7) 0.0 98.8 .
269(7) 0.0 98.8 .
238(6) 0.0 98.8 .
216(6) 0.0 98.8 .
197(6) 0.0 98.8 .
178(5) 0.0 98.8 .
165(5) 0.0 98.8 .
158(5) 0.0400 98.8 153.2
168(5) 0.0400 98.8 157.3
177(5) 0.0400 98.8 163.5
182(5) 0.0400 98.8 170.8
186(5) 0.0400 98.8 178.1
192(5) 0.0400 98.8 184.3
203(6) 0.02778 98.8 188.0
195(6) 0.02778 98.7 188.7
183(5) 0.0400 98.7 186.1
185(5) 0.0400 98.7 180.5
174(5) 0.0400 98.7 172.7
174(5) 0.0400 98.7 163.8
158(5) 0.0400 98.7 155.2
146(5) 0.0400 98.7 147.8
141(5) 0.0400 98.7 142.7
138(5) 0.0400 98.7 140.2
137(5) 0.0400 98.7 140.4
144(5) 0.0400 98.7 143.0
153(5) 0.0400 98.7 147.4
154(5) 0.0400 98.7 152.7
163(5) 0.0400 98.7 158.0
162(5) 0.0400 98.7 162.5
168(5) 0.0400 98.7 165.4
169(5) 0.0400 98.7 166.3
167(5) 0.0400 98.7 165.0
166(5) 0.0400 98.7 161.5
160(5) 0.0400 98.7 156.2
151(5) 0.0400 98.7 149.5
143(5) 0.0400 98.7 142.1
135(5) 0.0400 98.7 134.6
127(5) 0.0400 98.7 127.5
117(4) 0.0625 98.7 121.2
120(4) 0.0625 98.7 116.1
112(4) 0.0625 98.7 112.3
110(4) 0.0625 98.6 109.8
109(4) 0.0625 98.6 108.5
108(4) 0.0625 98.6 108.5
105(4) 0.0625 98.6 109.3
103(4) 0.0625 98.6 110.9
113(4) 0.0625 98.6 112.8
123(4) 0.0625 98.6 114.9
114(4) 0.0625 98.6 116.8
118(4) 0.0625 98.6 118.3
116(4) 0.0625 98.6 119.1
114(4) 0.0625 98.6 119.2
122(4) 0.0625 98.6 118.5
115(4) 0.0625 98.6 117.1
113(4) 0.0625 98.6 115.3
110(4) 0.0625 98.6 113.2
111(4) 0.0625 98.6 111.1
106(4) 0.0625 98.6 109.2
102(4) 0.0625 98.6 107.7
104(4) 0.0625 98.6 106.7
109(4) 0.0625 98.6 106.3
98(4) 0.0625 98.6 106.4
109(4) 0.0625 98.6 107.0
110(4) 0.0625 98.6 107.9
108(4) 0.0625 98.6 109.0
111(4) 0.0625 98.6 110.2
110(4) 0.0625 98.6 111.2
113(4) 0.0625 98.6 112.0
114(4) 0.0625 98.6 112.3
113(4) 0.0625 98.6 112.3
114(4) 0.0625 98.6 112.0
111(4) 0.0625 98.6 111.4
107(4) 0.0625 98.6 110.8
108(4) 0.0625 98.6 110.4
102(4) 0.0625 98.6 110.4
107(4) 0.0625 98.6 111.0
114(4) 0.0625 98.6 112.2
113(4) 0.0625 98.6 114.1
120(4) 0.0625 98.6 116.7
122(4) 0.0625 98.6 119.6
121(4) 0.0625 98.6 122.6
126(4) 0.0625 98.6 125.4
128(5) 0.0400 98.6 127.7
133(5) 0.0400 98.6 129.1
132(5) 0.0400 98.6 129.5
131(5) 0.0400 98.6 128.8
128(5) 0.0400 98.6 127.1
126(4) 0.0625 98.6 124.5
128(5) 0.0400 98.6 121.5
121(4) 0.0625 98.6 118.2
112(4) 0.0625 98.6 115.0
103(4) 0.0625 98.6 112.2
113(4) 0.0625 98.6 109.8
107(4) 0.0625 98.6 107.9
109(4) 0.0625 98.6 106.6
106(4) 0.0625 98.6 105.8
102(4) 0.0625 98.6 105.2
104(4) 0.0625 98.6 104.9
107(4) 0.0625 98.6 104.7
101(4) 0.0625 98.6 104.5
94(4) 0.0625 98.6 104.2
99(4) 0.0625 98.6 103.9
105(4) 0.0625 98.6 103.6
97(4) 0.0625 98.7 103.4
104(4) 0.0625 98.7 103.3
106(4) 0.0625 98.7 103.5
104(4) 0.0625 98.7 104.2
107(4) 0.0625 98.7 105.4
115(4) 0.0625 98.7 107.1
107(4) 0.0625 98.7 109.6
107(4) 0.0625 98.7 112.7
117(4) 0.0625 98.7 116.4
119(4) 0.0625 98.7 120.5
127(5) 0.0400 98.7 124.9
131(5) 0.0400 98.7 129.2
128(4) 0.0625 98.7 133.0
139(5) 0.0400 98.7 136.1
142(5) 0.0400 98.7 138.1
139(5) 0.0400 98.7 138.9
136(5) 0.0400 98.7 138.4
140(5) 0.0400 98.7 136.6
139(5) 0.0400 98.7 133.7
129(5) 0.0400 98.7 130.0
123(4) 0.0625 98.8 125.8
118(4) 0.0625 98.8 121.4
120(4) 0.0625 98.8 117.1
112(4) 0.0625 98.8 113.1
123(4) 0.0625 98.8 109.7
108(4) 0.0625 98.8 106.8
105(4) 0.0625 98.8 104.5
106(4) 0.0625 98.8 102.7
106(4) 0.0625 98.8 101.4
102(4) 0.0625 98.8 100.5
102(4) 0.0625 98.8 99.9
106(4) 0.0625 98.8 99.5
103(4) 0.0625 98.9 99.2
103(4) 0.0625 98.9 99.0
97(4) 0.0625 98.9 99.0
101(4) 0.0625 98.9 98.9
102(4) 0.0625 98.9 99.0
103(4) 0.0625 98.9 99.0
98(4) 0.0625 98.9 99.1
95(4) 0.0625 98.9 99.2
105(4) 0.0625 98.9 99.3
105(4) 0.0625 98.9 99.5
107(4) 0.0625 99.0 99.8
98(4) 0.0625 99.0 100.1
101(4) 0.0625 99.0 100.5
106(4) 0.0625 99.0 101.1
103(4) 0.0625 99.0 101.7
104(4) 0.0625 99.0 102.6
101(4) 0.0625 99.0 103.6
108(4) 0.0625 99.0 104.9
104(4) 0.0625 99.0 106.5
104(4) 0.0625 99.1 108.5
110(4) 0.0625 99.1 111.1
112(4) 0.0625 99.1 114.2
117(4) 0.0625 99.1 118.0
115(4) 0.0625 99.1 122.4
120(4) 0.0625 99.1 127.4
130(5) 0.0400 99.1 133.0
134(5) 0.0400 99.2 138.8
136(5) 0.0400 99.2 144.8
152(5) 0.0400 99.2 150.4
152(5) 0.0400 99.2 155.4
157(5) 0.0400 99.2 159.4
159(5) 0.0400 99.2 162.2
158(5) 0.0400 99.2 163.3
167(5) 0.0400 99.3 162.9
162(5) 0.0400 99.3 160.8
163(5) 0.0400 99.3 157.3
147(5) 0.0400 99.3 152.5
141(5) 0.0400 99.3 146.8
141(5) 0.0400 99.3 140.7
136(5) 0.0400 99.4 134.5
125(4) 0.0625 99.4 128.5
123(4) 0.0625 99.4 123.2
124(4) 0.0625 99.4 118.6
118(4) 0.0625 99.4 115.1
110(4) 0.0625 99.4 112.7
114(4) 0.0625 99.5 111.4
111(4) 0.0625 99.5 111.4
111(4) 0.0625 99.5 112.6
119(4) 0.0625 99.5 114.9
118(4) 0.0625 99.5 118.5
119(4) 0.0625 99.6 123.1
124(4) 0.0625 99.6 128.7
141(5) 0.0400 99.6 135.2
148(5) 0.0400 99.6 142.2
146(5) 0.0400 99.6 149.4
156(5) 0.0400 99.7 156.7
167(5) 0.0400 99.7 163.5
169(5) 0.0400 99.7 169.6
175(5) 0.0400 99.7 174.5
168(5) 0.0400 99.7 178.1
182(5) 0.0400 99.8 180.1
180(5) 0.0400 99.8 180.5
173(5) 0.0400 99.8 179.1
172(5) 0.0400 99.8 176.2
170(5) 0.0400 99.9 171.8
168(5) 0.0400 99.9 166.3
159(5) 0.0400 99.9 160.1
151(5) 0.0400 99.9 153.3
150(5) 0.0400 99.9 146.4
136(5) 0.0400 100.0 139.8
135(5) 0.0400 100.0 133.7
129(5) 0.0400 100.0 128.3
129(5) 0.0400 100.0 124.0
122(4) 0.0625 100.1 120.8
118(4) 0.0625 100.1 118.8
133(5) 0.0400 100.1 118.3
121(4) 0.0625 100.1 119.1
122(4) 0.0625 100.2 121.3
127(5) 0.0400 100.2 125.0
131(5) 0.0400 100.2 130.1
136(5) 0.0400 100.2 136.8
146(5) 0.0400 100.3 144.7
154(5) 0.0400 100.3 154.0
168(5) 0.0400 100.3 164.2
176(5) 0.0400 100.4 175.1
181(5) 0.0400 100.4 186.4
191(6) 0.02778 100.4 197.5
195(6) 0.02778 100.4 208.0
211(6) 0.02778 100.5 217.6
235(6) 0.02778 100.5 225.7
227(6) 0.02778 100.5 232.1
230(6) 0.02778 100.6 236.4
239(6) 0.02778 100.6 238.6
236(6) 0.02778 100.6 238.6
236(6) 0.02778 100.6 236.5
236(6) 0.02778 100.7 232.6
218(6) 0.02778 100.7 227.0
211(6) 0.02778 100.7 220.2
205(6) 0.02778 100.8 212.6
207(6) 0.02778 100.8 204.4
196(6) 0.02778 100.8 196.2
179(5) 0.0400 100.9 188.4
182(5) 0.0400 100.9 181.2
180(5) 0.0400 100.9 175.0
162(5) 0.0400 101.0 169.9
161(5) 0.0400 101.0 166.0
166(5) 0.0400 101.0 163.1
159(5) 0.0400 101.1 161.2
152(5) 0.0400 101.1 160.0
159(5) 0.0400 101.1 159.4
159(5) 0.0400 101.2 159.0
160(5) 0.0400 101.2 158.6
156(5) 0.0400 101.2 158.0
158(5) 0.0400 101.3 157.4
164(5) 0.0400 101.3 156.4
154(5) 0.0400 101.3 155.1
150(5) 0.0400 101.4 153.6
153(5) 0.0400 101.4 151.9
154(5) 0.0400 101.4 150.0
151(5) 0.0400 101.5 148.0
149(5) 0.0400 101.5 145.9
144(5) 0.0400 101.6 143.8
140(5) 0.0400 101.6 141.7
137(5) 0.0400 101.6 139.6
141(5) 0.0400 101.7 137.5
139(5) 0.0400 101.7 135.4
135(5) 0.0400 101.7 133.4
135(5) 0.0400 101.8 131.4
129(5) 0.0400 101.8 129.5
135(5) 0.0400 101.9 127.6
126(5) 0.0400 101.9 125.9
131(5) 0.0400 101.9 124.4
122(4) 0.0625 102.0 123.0
118(4) 0.0625 102.0 121.9
118(4) 0.0625 102.1 121.0
121(4) 0.0625 102.1 120.5
120(4) 0.0625 102.1 120.2
117(4) 0.0625 102.2 120.2
122(5) 0.0400 102.2 120.5
117(4) 0.0625 102.3 121.0
123(5) 0.0400 102.3 121.6
123(5) 0.0400 102.3 122.3
126(5) 0.0400 102.4 122.9
129(5) 0.0400 102.4 123.2
121(4) 0.0625 102.5 123.4
128(5) 0.0400 102.5 123.3
135(5) 0.0400 102.6 122.8
123(5) 0.0400 102.6 122.1
123(5) 0.0400 102.6 121.0
121(4) 0.0625 102.7 119.7
115(4) 0.0625 102.7 118.3
120(4) 0.0625 102.8 116.9
118(4) 0.0625 102.8 115.6
117(4) 0.0625 102.9 114.7
115(4) 0.0625 102.9 114.0
116(4) 0.0625 103.0 113.8
111(4) 0.0625 103.0 114.1
113(4) 0.0625 103.0 114.9
116(4) 0.0625 103.1 116.3
115(4) 0.0625 103.1 118.6
120(4) 0.0625 103.2 121.7
128(5) 0.0400 103.2 125.7
131(5) 0.0400 103.3 130.8
136(5) 0.0400 103.3 137.0
138(5) 0.0400 103.4 144.5
143(5) 0.0400 103.4 153.3
157(5) 0.0400 103.5 163.3
175(5) 0.0400 103.5 174.6
175(5) 0.0400 103.6 186.8
197(6) 0.02778 103.6 200.0
206(6) 0.02778 103.7 213.6
226(6) 0.02778 103.7 227.2
242(6) 0.02778 103.8 240.5
246(6) 0.02778 103.8 252.8
261(7) 0.02041 103.9 263.7
270(7) 0.02041 103.9 272.7
270(7) 0.02041 104.0 279.6
274(7) 0.02041 104.0 284.0
289(7) 0.02041 104.1 285.9
284(7) 0.02041 104.1 285.4
305(11) 0.00826 104.2 282.5
292(7) 0.02041 104.2 277.6
280(7) 0.02041 104.3 271.1
268(7) 0.02041 104.3 263.3
247(7) 0.02041 104.4 254.7
239(6) 0.02778 104.4 245.7
230(6) 0.02778 104.5 236.7
226(6) 0.02778 104.5 227.9
215(6) 0.02778 104.6 219.6
213(6) 0.02778 104.6 212.0
202(6) 0.02778 104.7 205.4
200(6) 0.02778 104.7 199.7
199(6) 0.02778 104.8 195.0
191(6) 0.02778 104.8 191.5
192(6) 0.02778 104.9 189.2
177(6) 0.02778 104.9 188.2
176(6) 0.02778 105.0 188.3
187(6) 0.02778 105.0 189.7
193(6) 0.02778 105.1 192.2
192(6) 0.02778 105.1 195.4
204(6) 0.02778 105.2 199.8
208(6) 0.02778 105.3 204.8
214(6) 0.02778 105.3 210.1
211(6) 0.02778 105.4 215.4
220(6) 0.02778 105.4 220.2
221(6) 0.02778 105.5 224.3
225(6) 0.02778 105.5 227.3
234(6) 0.02778 105.6 228.9
234(6) 0.02778 105.6 228.9
228(6) 0.02778 105.7 227.1
226(6) 0.02778 105.8 223.5
226(6) 0.02778 105.8 218.2
214(6) 0.02778 105.9 211.5
206(6) 0.02778 105.9 203.5
187(6) 0.02778 106.0 194.7
174(6) 0.02778 106.0 185.3
176(6) 0.02778 106.1 175.8
170(5) 0.0400 106.1 166.5
158(5) 0.0400 106.2 157.8
146(5) 0.0400 106.3 149.9
141(5) 0.0400 106.3 143.0
138(5) 0.0400 106.4 137.3
134(5) 0.0400 106.4 132.9
122(5) 0.0400 106.5 129.8
117(5) 0.0400 106.5 127.9
127(5) 0.0400 106.6 127.3
133(5) 0.0400 106.7 127.9
127(5) 0.0400 106.7 129.7
129(5) 0.0400 106.8 132.5
133(5) 0.0400 106.8 136.2
138(5) 0.0400 106.9 140.8
148(5) 0.0400 106.9 146.3
159(5) 0.0400 107.0 152.3
166(5) 0.0400 107.1 158.9
166(5) 0.0400 107.1 165.9
179(6) 0.02778 107.2 173.2
175(6) 0.02778 107.2 180.8
187(6) 0.02778 107.3 188.5
194(6) 0.02778 107.4 196.1
207(6) 0.02778 107.4 203.7
211(6) 0.02778 107.5 211.2
218(6) 0.02778 107.5 218.3
222(6) 0.02778 107.6 225.1
231(6) 0.02778 107.6 231.5
242(6) 0.02778 107.7 237.4
247(7) 0.02041 107.8 242.9
245(7) 0.02041 107.8 247.8
248(7) 0.02041 107.9 252.1
240(6) 0.02778 107.9 255.9
258(7) 0.02041 108.0 259.1
261(7) 0.02041 108.1 261.7
260(7) 0.02041 108.1 263.7
267(7) 0.02041 108.2 265.0
264(7) 0.02041 108.2 265.6
271(7) 0.02041 108.3 265.5
266(7) 0.02041 108.4 264.6
266(7) 0.02041 108.4 262.9
259(7) 0.02041 108.5 260.3
262(7) 0.02041 108.5 256.9
263(7) 0.02041 108.6 252.6
249(7) 0.02041 108.7 247.5
246(7) 0.02041 108.7 241.7
241(6) 0.02778 108.8 235.3
231(6) 0.02778 108.8 228.5
234(6) 0.02778 108.9 221.4
219(6) 0.02778 109.0 214.0
206(6) 0.02778 109.0 206.7
198(6) 0.02778 109.1 199.6
192(6) 0.02778 109.1 192.7
194(6) 0.02778 109.2 186.2
186(6) 0.02778 109.3 180.2
176(6) 0.0 109.3 .
182(6) 0.0 109.4 .
181(6) 0.0 109.4 .
185(6) 0.0 109.5 .
185(6) 0.0 109.6 .
188(6) 0.0 109.6 .
189(6) 0.0 109.7 .
190(6) 0.0 109.7 .
201(6) 0.0 109.8 .
200(5) 0.0 109.9 .
208(6) 0.0 109.9 .
215(6) 0.0 110.0 .
228(6) 0.0 110.0 .
232(6) 0.0 110.1 .
228(6) 0.0 110.2 .
238(6) 0.0 110.2 .
228(6) 0.0 110.3 .
238(6) 0.0 110.3 .
238(6) 0.0 110.4 .
233(6) 0.0 110.5 .
227(6) 0.0 110.5 .
225(6) 0.0 110.6 .
214(6) 0.0 110.6 .
210(6) 0.0 110.7 .
197(6) 0.0 110.8 .
182(5) 0.0 110.8 .
184(5) 0.0 110.9 .
172(5) 0.0 110.9 .
162(5) 0.0 111.0 .
155(5) 0.0 111.1 .
150(5) 0.0 111.1 .
147(5) 0.0 111.2 .
137(5) 0.0 111.2 .
145(5) 0.0 111.3 .
140(5) 0.0400 111.3 122.3
135(5) 0.0400 111.4 122.6
137(5) 0.0400 111.5 123.0
138(5) 0.0400 111.5 123.4
130(5) 0.0400 111.6 123.9
132(5) 0.0400 111.6 124.5
140(5) 0.0400 111.7 125.1
134(5) 0.0400 111.8 125.9
131(5) 0.0400 111.8 126.8
141(5) 0.0400 111.9 127.7
136(5) 0.0400 111.9 128.7
134(5) 0.0400 112.0 129.7
142(5) 0.0400 112.0 130.8
140(5) 0.0400 112.1 131.8
143(5) 0.0400 112.2 132.8
144(5) 0.0400 112.2 133.7
138(5) 0.0400 112.3 134.4
138(5) 0.0400 112.3 135.0
139(5) 0.0400 112.4 135.5
145(5) 0.0400 112.4 135.7
140(5) 0.0400 112.5 135.7
139(5) 0.0400 112.5 135.5
135(5) 0.0400 112.6 135.1
134(5) 0.0400 112.7 134.4
133(5) 0.0400 112.7 133.6
131(5) 0.0400 112.8 132.6
130(5) 0.0400 112.8 131.4
125(4) 0.0625 112.9 130.2
132(5) 0.0400 112.9 128.9
127(5) 0.0400 113.0 127.5
125(4) 0.0625 113.0 126.2
123(4) 0.0625 113.1 124.9
117(4) 0.0625 113.2 123.7
117(4) 0.0625 113.2 122.5
121(4) 0.0625 113.3 121.5
116(4) 0.0625 113.3 120.6
113(4) 0.0625 113.4 119.8
111(4) 0.0625 113.4 119.2
111(4) 0.0625 113.5 118.7
121(4) 0.0625 113.5 118.4
119(4) 0.0625 113.6 118.2
124(4) 0.0625 113.6 118.2
124(4) 0.0625 113.7 118.3
113(4) 0.0625 113.7 118.6
117(4) 0.0625 113.8 119.0
124(4) 0.0625 113.9 119.5
119(4) 0.0625 113.9 120.2
114(4) 0.0625 114.0 121.0
122(4) 0.0625 114.0 121.9
121(4) 0.0625 114.1 123.0
126(5) 0.0400 114.1 124.1
125(4) 0.0625 114.2 125.2
133(5) 0.0400 114.2 126.5
131(5) 0.0400 114.3 127.7
133(5) 0.0400 114.3 129.0
131(5) 0.0400 114.4 130.2
133(5) 0.0400 114.4 131.3
141(5) 0.0400 114.5 132.4
137(5) 0.0400 114.5 133.3
139(5) 0.0400 114.6 134.1
141(5) 0.0400 114.6 134.8
136(5) 0.0400 114.7 135.2
135(5) 0.0400 114.7 135.5
132(5) 0.0400 114.8 135.6
139(5) 0.0400 114.8 135.4
137(5) 0.0400 114.9 135.1
136(5) 0.0400 114.9 134.7
138(5) 0.0400 115.0 134.1
128(5) 0.0400 115.0 133.4
130(5) 0.0400 115.1 132.7
130(5) 0.0400 115.1 131.9
121(4) 0.0625 115.2 131.1
122(4) 0.0625 115.2 130.4
130(5) 0.0400 115.2 129.7
131(5) 0.0400 115.3 129.2
127(5) 0.0400 115.3 128.7
133(5) 0.0400 115.4 128.3
133(5) 0.0400 115.4 128.1
128(4) 0.0625 115.5 128.3
125(4) 0.0625 115.5 128.4
122(4) 0.0625 115.6 128.6
118(4) 0.0625 115.6 129.0
120(4) 0.0625 115.7 129.5
126(4) 0.0625 115.7 130.0
129(4) 0.0625 115.7 130.7
123(4) 0.0625 115.8 131.5
125(4) 0.0625 115.8 132.4
128(4) 0.0625 115.9 133.4
134(5) 0.0400 115.9 134.5
134(5) 0.0400 116.0 135.8
136(5) 0.0400 116.0 137.3
135(5) 0.0400 116.1 138.9
136(5) 0.0400 116.1 140.9
137(5) 0.0400 116.1 143.1
145(5) 0.0400 116.2 145.7
143(5) 0.0400 116.2 148.5
159(5) 0.0400 116.3 151.7
159(5) 0.0400 116.3 155.2
150(5) 0.0400 116.4 159.1
157(5) 0.0400 116.4 163.2
159(5) 0.0400 116.4 167.6
168(5) 0.0400 116.5 172.1
177(5) 0.0400 116.5 176.6
184(5) 0.0400 116.6 181.2
189(5) 0.0400 116.6 185.6
185(5) 0.0400 116.6 189.7
182(5) 0.0400 116.7 193.5
205(6) 0.02778 116.7 196.8
192(5) 0.0400 116.8 199.5
200(6) 0.02778 116.8 201.5
210(6) 0.02778 116.8 202.8
205(6) 0.02778 116.9 203.3
201(6) 0.02778 116.9 203.0
205(6) 0.02778 117.0 201.9
204(6) 0.02778 117.0 200.1
203(6) 0.02778 117.0 197.5
198(6) 0.02778 117.1 194.2
187(5) 0.0400 117.1 190.5
186(5) 0.0400 117.2 186.2
175(5) 0.0400 117.2 181.7
169(5) 0.0400 117.2 177.0
170(5) 0.0400 117.3 172.1
163(5) 0.0400 117.3 167.4
158(5) 0.0400 117.3 162.8
149(5) 0.0400 117.4 158.4
149(5) 0.0400 117.4 154.4
155(5) 0.0400 117.5 150.8
147(5) 0.0400 117.5 147.6
144(5) 0.0400 117.5 144.9
141(5) 0.0400 117.6 142.7
142(5) 0.0400 117.6 141.0
150(5) 0.0400 117.6 139.9
148(5) 0.0400 117.7 139.1
149(5) 0.0400 117.7 138.9
143(5) 0.0400 117.7 139.1
140(5) 0.0400 117.8 139.6
136(5) 0.0400 117.8 140.5
137(5) 0.0400 117.9 141.6
146(5) 0.0400 117.9 143.0
149(5) 0.0400 117.9 144.5
144(5) 0.0400 118.0 146.1
147(5) 0.0400 118.0 147.8
156(5) 0.0400 118.0 149.6
153(5) 0.0400 118.1 151.3
146(5) 0.0400 118.1 153.1
156(5) 0.0400 118.1 154.5
154(5) 0.0400 118.2 156.2
159(5) 0.0400 118.2 157.8
156(5) 0.0400 118.2 159.4
160(5) 0.0400 118.3 160.9
166(5) 0.0400 118.3 162.4
161(5) 0.0400 118.3 163.9
160(5) 0.0400 118.4 165.4
172(5) 0.0400 118.4 167.0
171(5) 0.0400 118.5 168.7
156(5) 0.0400 118.5 170.5
171(5) 0.0400 118.5 172.5
174(5) 0.0400 118.6 174.6
178(5) 0.0400 118.6 176.9
181(5) 0.0400 118.6 179.5
181(5) 0.0400 118.7 182.2
186(5) 0.0400 118.7 185.0
190(5) 0.0400 118.7 187.9
191(5) 0.0400 118.8 190.9
193(5) 0.0400 118.8 193.8
201(6) 0.02778 118.8 196.7
199(6) 0.02778 118.9 199.5
197(6) 0.02778 118.9 202.0
204(6) 0.02778 118.9 204.3
207(6) 0.02778 119.0 206.2
217(6) 0.02778 119.0 207.8
209(6) 0.02778 119.0 208.9
214(6) 0.02778 119.1 209.5
209(6) 0.02778 119.1 209.7
214(6) 0.02778 119.1 209.3
214(6) 0.02778 119.2 208.5
208(6) 0.02778 119.2 207.2
209(6) 0.02778 119.2 205.4
207(6) 0.02778 119.3 203.3
203(5) 0.0400 119.3 200.9
200(5) 0.0400 119.4 198.2
198(5) 0.0400 119.4 195.4
193(5) 0.0400 119.4 192.4
193(5) 0.0400 119.5 189.4
186(5) 0.0400 119.5 186.4
176(5) 0.0400 119.5 183.6
180(5) 0.0400 119.6 180.8
182(5) 0.0400 119.6 178.3
171(5) 0.0400 119.6 176.0
175(5) 0.0400 119.7 174.0
175(5) 0.0400 119.7 172.2
175(5) 0.0400 119.8 170.7
168(5) 0.0400 119.8 169.5
172(5) 0.0400 119.8 168.5
166(5) 0.0400 119.9 167.8
170(5) 0.0400 119.9 167.3
170(5) 0.0400 119.9 167.0
168(5) 0.0400 120.0 166.9
171(5) 0.0400 120.0 166.9
170(5) 0.0400 120.1 167.1
171(5) 0.0400 120.1 167.3
169(5) 0.0400 120.1 167.6
165(5) 0.0400 120.2 167.9
168(5) 0.0400 120.2 168.2
175(5) 0.0400 120.3 168.5
168(5) 0.0400 120.3 168.8
165(5) 0.0400 120.3 169.1
169(5) 0.0400 120.4 169.3
169(5) 0.0400 120.4 169.4
170(5) 0.0400 120.5 169.4
174(5) 0.0400 120.5 169.3
180(5) 0.0400 120.6 169.1
172(5) 0.0400 120.6 168.7
167(5) 0.0400 120.7 168.1
165(5) 0.0400 120.7 167.5
164(5) 0.0400 120.7 166.7
167(5) 0.0400 120.8 165.8
169(5) 0.0400 120.8 164.7
164(5) 0.0400 120.9 163.5
161(5) 0.0400 120.9 162.1
158(5) 0.0400 121.0 160.7
157(5) 0.0400 121.0 159.2
154(5) 0.0400 121.1 157.5
153(5) 0.0400 121.1 155.8
154(5) 0.0400 121.2 154.0
149(5) 0.0400 121.2 152.3
146(5) 0.0400 121.3 150.5
143(5) 0.0400 121.3 148.8
138(4) 0.0625 121.4 147.2
141(5) 0.0400 121.4 145.7
138(4) 0.0625 121.5 144.3
139(5) 0.0400 121.5 143.0
142(5) 0.0400 121.6 142.0
143(5) 0.0400 121.6 141.1
144(5) 0.0400 121.7 140.4
138(4) 0.0625 121.8 139.9
139(5) 0.0400 121.8 139.7
137(4) 0.0625 121.9 139.6
136(4) 0.0625 121.9 139.8
140(5) 0.0400 122.0 140.3
140(5) 0.0400 122.0 141.1
142(5) 0.0400 122.1 142.0
145(5) 0.0400 122.2 143.2
148(5) 0.0400 122.2 144.6
150(5) 0.0400 122.3 146.2
149(5) 0.0400 122.3 148.0
148(5) 0.0400 122.4 150.0
150(5) 0.0400 122.5 152.1
155(5) 0.0400 122.5 154.4
163(5) 0.0400 122.6 156.7
165(5) 0.0400 122.7 159.2
167(5) 0.0400 122.7 161.7
166(5) 0.0400 122.8 164.2
168(5) 0.0400 122.9 166.8
169(5) 0.0400 123.0 169.3
176(5) 0.0400 123.0 171.8
178(5) 0.0400 123.1 174.1
178(5) 0.0400 123.2 176.4
185(5) 0.0400 123.2 178.5
189(5) 0.0400 123.3 180.5
189(5) 0.0400 123.4 182.2
186(5) 0.0400 123.5 183.8
190(5) 0.0400 123.5 185.1
200(5) 0.0400 123.6 186.2
199(5) 0.0400 123.7 187.0
190(5) 0.0400 123.8 187.6
187(5) 0.0400 123.9 188.0
192(5) 0.0400 124.0 188.1
192(5) 0.0400 124.0 188.0
193(5) 0.0400 124.1 187.6
197(5) 0.0400 124.2 187.1
196(5) 0.0400 124.3 186.4
195(5) 0.0400 124.4 185.6
189(5) 0.0400 124.5 184.7
183(5) 0.0400 124.6 183.7
180(4) 0.0625 124.7 182.6
180(5) 0.0400 124.8 181.6
181(5) 0.0400 124.8 180.6
176(5) 0.0400 124.9 179.6
174(5) 0.0400 125.0 178.7
172(5) 0.0400 125.1 177.9
174(5) 0.0400 125.2 177.2
180(5) 0.0400 125.3 176.7
172(5) 0.0400 125.4 176.3
169(5) 0.0400 125.5 176.0
172(5) 0.0400 125.6 175.9
169(5) 0.0400 125.7 175.9
174(5) 0.0400 125.9 176.1
182(5) 0.0400 126.0 176.4
179(5) 0.0400 126.1 176.9
173(5) 0.0400 126.2 177.3
174(5) 0.0400 126.3 177.9
179(5) 0.0400 126.4 178.5
172(5) 0.0400 126.5 179.1
169(5) 0.0400 126.6 179.7
171(5) 0.0400 126.8 180.3
179(5) 0.0400 126.9 180.8
184(5) 0.0400 127.0 181.2
187(5) 0.0400 127.1 181.6
183(5) 0.0400 127.2 181.8
178(5) 0.0400 127.4 181.9
181(5) 0.0400 127.5 181.9
178(5) 0.0400 127.6 181.8
181(5) 0.0400 127.7 181.5
188(5) 0.0400 127.9 181.0
181(5) 0.0400 128.0 180.5
179(5) 0.0400 128.1 179.8
178(5) 0.0400 128.3 179.0
179(5) 0.0400 128.4 178.1
179(5) 0.0400 128.5 177.1
179(5) 0.0400 128.7 176.0
176(5) 0.0400 128.8 174.8
171(5) 0.0400 129.0 173.5
170(5) 0.0400 129.1 172.3
169(5) 0.0400 129.3 171.1
171(5) 0.0400 129.4 169.8
168(5) 0.0400 129.6 168.6
164(5) 0.0400 129.7 167.4
164(5) 0.0400 129.9 166.2
164(5) 0.0400 130.0 165.1
160(5) 0.0400 130.2 164.0
167(5) 0.0400 130.3 163.0
164(5) 0.0400 130.5 162.0
160(5) 0.0400 130.7 161.0
156(5) 0.0400 130.8 160.2
157(5) 0.0400 131.0 159.3
159(5) 0.0400 131.1 158.6
161(5) 0.0400 131.3 157.9
159(5) 0.0400 131.5 157.2
157(5) 0.0400 131.7 156.6
158(5) 0.0400 131.8 156.0
155(5) 0.0400 132.0 155.5
152(5) 0.0400 132.2 155.0
150(5) 0.0400 132.4 154.5
154(5) 0.0400 132.5 154.0
153(5) 0.0400 132.7 153.5
149(5) 0.0400 132.9 153.1
150(5) 0.0400 133.1 152.7
152(5) 0.0400 133.3 152.2
153(5) 0.0400 133.5 151.8
150(5) 0.0400 133.7 151.4
150(5) 0.0400 133.8 151.0
149(5) 0.0400 134.0 150.6
148(4) 0.0625 134.2 150.2
151(5) 0.0400 134.4 149.8
150(5) 0.0400 134.6 149.4
150(5) 0.0400 134.8 149.0
148(5) 0.0400 135.0 148.7
154(5) 0.0400 135.2 148.3
155(5) 0.0400 135.5 148.0
147(4) 0.0625 135.7 147.7
144(4) 0.0625 135.9 147.4
146(4) 0.0625 136.1 147.1
152(5) 0.0400 136.3 146.9
152(5) 0.0400 136.5 146.7
148(5) 0.0400 136.7 146.6
148(4) 0.0625 137.0 146.4
151(5) 0.0400 137.2 146.4
148(4) 0.0625 137.4 146.3
142(4) 0.0625 137.6 146.3
142(4) 0.0625 137.9 146.3
149(5) 0.0400 138.1 146.4
152(5) 0.0400 138.3 146.5
148(5) 0.0400 138.6 146.7
148(4) 0.0625 138.8 146.9
146(4) 0.0625 139.0 147.1
147(4) 0.0625 139.3 147.4
148(5) 0.0400 139.5 147.7
152(5) 0.0400 139.8 148.0
152(5) 0.0400 140.0 148.4
148(4) 0.0625 140.2 148.8
144(4) 0.0625 140.5 149.2
144(4) 0.0625 140.7 149.7
149(5) 0.0400 141.0 150.2
149(5) 0.0400 141.2 150.7
156(5) 0.0400 141.5 151.2
150(5) 0.0400 141.8 151.7
152(5) 0.0400 142.0 152.3
143(4) 0.0625 142.3 152.9
154(5) 0.0400 142.5 153.4
159(5) 0.0400 142.8 154.0
151(5) 0.0400 143.1 154.6
152(5) 0.0400 143.3 155.2
151(5) 0.0400 143.6 155.8
157(5) 0.0400 143.9 156.4
159(5) 0.0400 144.2 157.0
159(5) 0.0400 144.4 157.6
160(5) 0.0400 144.7 158.2
161(5) 0.0400 145.0 158.8
162(5) 0.0400 145.3 159.4
163(5) 0.0400 145.5 160.0
160(5) 0.0400 145.8 160.5
158(5) 0.0400 146.1 161.1
160(5) 0.0400 146.4 161.6
162(5) 0.0400 146.7 162.2
161(5) 0.0400 147.0 162.8
166(5) 0.0400 147.3 163.3
164(5) 0.0400 147.6 163.8
166(5) 0.0400 147.8 164.3
172(5) 0.0400 148.1 164.9
165(5) 0.0400 148.4 165.4
164(5) 0.0400 148.7 165.9
163(5) 0.0400 149.0 166.3
171(5) 0.0400 149.3 166.8
163(5) 0.0400 149.6 167.3
162(5) 0.0400 149.9 167.8
169(5) 0.0400 150.2 168.2
171(5) 0.0400 150.6 168.7
174(5) 0.0400 150.9 169.1
165(5) 0.0400 151.2 169.6
168(5) 0.0400 151.5 170.0
174(5) 0.0400 151.8 170.4
168(5) 0.0400 152.1 170.8
176(5) 0.0400 152.4 171.2
178(5) 0.0400 152.7 171.6
172(5) . . .
172(5) . . .
170(5) . . .
171(5) . . .
170(5) . . .
180(5) . . .
177(5) . . .
180(5) . . .
175(5) . . .
176(5) . . .
174(5) . . .
172(5) . . .
173(5) . . .
177(5) . . .
176(5) . . .
173(5) . . .
175(5) . . .
175(5) . . .
177(5) . . .
181(5) . . .
176(5) . . .
180(5) . . .
183(5) . . .
181(5) . . .
184(5) . . .
183(5) . . .
181(5) . . .
186(5) . . .
188(5) . . .
196(5) . . .
194(5) . . .
187(5) . . .
193(5) . . .
198(5) . . .
191(5) . . .
195(5) . . .
200(5) . . .
196(5) . . .
198(5) . . .
198(5) . . .
205(5) . . .
206(5) . . .
204(5) . . .
207(5) . . .
215(6) . . .
217(6) . . .
225(6) . . .
233(6) . . .
234(6) . . .
236(6) . . .
236(6) . . .
243(6) . . .
244(6) . . .
242(6) . . .
243(6) . . .
256(6) . . .
264(6) . . .
257(6) . . .
258(6) . . .
259(6) . . .
265(9) . . .
270(9) . . .
267(9) . . .
288(9) . . .
286(9) . . .
280(9) . . .
294(9) . . .
296(9) . . .
311(9) . . .
307(9) . . .
315(9) . . .
318(9) . . .
330(10) . . .
337(10) . . .
348(10) . . .
337(10) . . .
347(10) . . .
354(10) . . .
348(10) . . .
359(10) . . .
355(10) . . .
351(10) . . .
368(10) . . .
357(10) . . .
355(10) . . .
378(10) . . .
367(10) . . .
382(10) . . .
367(10) . . .
373(10) . . .
369(10) . . .
389(10) . . .
378(10) . . .
386(10) . . .
394(11) . . .
397(11) . . .
391(10) . . .
373(10) . . .
389(10) . . .
383(10) . . .
393(11) . . .
383(10) . . .
384(10) . . .
373(10) . . .
367(10) . . .
362(10) . . .
371(10) . . .
380(10) . . .
398(11) . . .
371(10) . . .
376(10) . . .
372(10) . . .
371(10) . . .
375(10) . . .
378(10) . . .
374(10) . . .
360(10) . . .
372(10) . . .
369(10) . . .
361(10) . . .
355(10) . . .
365(10) . . .
353(10) . . .
342(10) . . .
356(10) . . .
341(10) . . .
346(10) . . .
357(10) . . .
335(10) . . .
341(10) . . .
342(10) . . .
331(10) . . .
333(10) . . .
338(10) . . .
317(9) . . .
316(9) . . .
323(10) . . .
313(9) . . .
310(9) . . .
317(9) . . .
320(10) . . .
323(10) . . .
318(10) . . .
310(9) . . .
321(10) . . .
315(9) . . .
312(9) . . .
315(9) . . .
311(9) . . .
316(9) . . .
293(9) . . .
300(9) . . .
299(9) . . .
298(9) . . .
301(9) . . .
282(9) . . .
291(9) . . .
285(9) . . .
288(9) . . .
286(9) . . .
loop_
_refln_index_h
_refln_index_k
_refln_index_l
_refln_observed_status
_refln_F_squared_meas
_refln_F_squared_calc
_refln_phase_calc
_refln_d_spacing
_gsas_i100_meas
1 0 1 o 0.202 0.087 0.00 4.89413 1.73
1 1 0 o 0.438 0.323 180.00 4.27479 2.88
0 0 2 o 0.132 0.093 0.00 4.26624 0.43
1 1 1 o 0.658 0.635 180.00 3.82196 6.93
0 2 0 o 5.075 5.066 0.00 3.05942 8.67
1 1 2 o 4.768 5.281 180.00 3.01971 31.76
2 0 0 o 2.209 1.796 0.00 2.98734 3.60
0 2 1 o 0.175 0.378 0.00 2.87988 0.53
1 2 0 o 2.450 2.674 180.00 2.72316 6.69
2 1 0 o 7.906 8.842 180.00 2.68449 21.01
1 2 1 o 5.145 5.175 180.00 2.59424 25.61
1 0 3 o 24.050 24.675 0.00 2.56804 58.72
2 1 1 o 7.354 7.470 0.00 2.56074 35.72
0 2 2 o 26.870 26.716 180.00 2.48621 61.69
2 0 2 o 17.185 17.072 180.00 2.44707 38.29
1 1 3 o 5.310 5.589 0.00 2.36794 22.24
1 2 2 o 7.098 7.257 180.00 2.29540 28.04
2 1 2 o 2.164 2.039 180.00 2.27210 8.39
2 2 0 o 57.817 55.596 0.00 2.13740 100.00
0 0 4 o 57.254 55.730 0.00 2.13312 49.33
0 2 3 o 7.778 6.242 0.00 2.08307 12.83
2 2 1 o 3.966 3.443 180.00 2.07334 12.97
1 2 3 o 3.882 4.004 180.00 1.96695 11.53
2 1 3 o 2.985 3.124 180.00 1.95223 8.74
3 0 1 o 5.429 5.697 180.00 1.93943 7.86
1 3 0 o 5.634 5.816 180.00 1.93024 8.08
2 2 2 o 2.208 1.912 0.00 1.91098 6.22
1 1 4 o 1.219 0.918 180.00 1.90868 3.43
3 1 0 o 0.276 0.169 0.00 1.89378 0.38
1 3 1 o 12.871 12.559 180.00 1.88266 35.31
3 1 1 o 2.094 2.679 180.00 1.84879 5.56
1 3 2 o 9.785 9.546 180.00 1.75861 23.78
0 2 4 o 30.607 29.244 0.00 1.74979 36.86
2 0 4 o 20.501 19.775 0.00 1.73598 24.35
3 1 2 o 34.975 34.862 180.00 1.73091 82.64
2 2 3 o 1.229 0.365 180.00 1.70868 2.84
2 3 0 o 0.000 0.053 0.00 1.68445 0.00
1 2 4 o 0.000 0.191 0.00 1.67926 0.00
2 1 4 o 0.748 0.786 180.00 1.67007 1.66
3 2 0 o 7.528 7.858 0.00 1.66908 8.35
2 3 1 o 0.702 0.924 0.00 1.65256 1.53
1 0 5 o 7.446 7.763 0.00 1.64088 8.02
3 2 1 o 0.223 0.246 180.00 1.63803 0.48
3 0 3 o 0.389 0.649 180.00 1.63138 0.41
1 3 3 o 5.969 6.500 0.00 1.59715 12.28
1 1 5 o 0.000 0.000 180.00 1.58488 0.00
3 1 3 o 5.517 5.519 180.00 1.57631 11.10
2 3 2 o 5.392 5.430 0.00 1.56675 10.73
3 2 2 o 0.000 0.056 180.00 1.55436 0.00
0 4 0 o 26.912 27.855 0.00 1.52971 12.87
2 2 4 o 23.385 22.983 0.00 1.50985 43.77
0 4 1 o 3.506 3.394 180.00 1.50570 3.27
4 0 0 o 15.781 14.367 0.00 1.49367 7.26
0 2 5 o 5.030 4.735 0.00 1.49033 4.61
1 4 0 o 27.641 27.570 0.00 1.48191 25.09
1 4 1 o 0.436 0.002 180.00 1.46005 0.77
4 1 0 o 14.616 13.847 0.00 1.45106 12.82
2 3 3 o 11.478 11.443 180.00 1.44934 20.10
1 2 5 o 18.417 18.282 180.00 1.44603 32.14
2 1 5 o 10.388 10.173 0.00 1.44015 18.01
0 4 2 o 0.674 0.659 0.00 1.43994 0.58
3 2 3 o 10.008 9.718 0.00 1.43951 17.34
3 1 4 o 2.266 1.581 0.00 1.41619 3.83
4 0 2 o 5.113 4.685 0.00 1.40976 4.28
3 3 1 o 0.373 0.337 180.00 1.40547 0.62
1 4 2 o 2.429 2.580 0.00 1.39986 4.03
4 1 2 o 8.741 8.232 0.00 1.37377 14.07
2 4 0 o 3.219 3.088 0.00 1.36158 2.56
3 3 2 o 3.347 3.402 180.00 1.35154 5.25
1 1 6 o 7.295 7.282 180.00 1.34937 11.42
0 4 3 o 9.431 9.377 180.00 1.34721 7.37
2 4 1 o 0.485 0.507 180.00 1.34457 0.76
4 2 0 o 1.103 1.233 0.00 1.34224 0.86
2 2 5 o 8.776 8.876 180.00 1.33359 13.50
4 2 1 o 4.770 4.061 180.00 1.32594 7.28
2 3 4 o 1.101 1.110 180.00 1.32197 1.67
3 2 4 o 2.156 2.425 0.00 1.31450 3.25
1 4 3 o 2.865 3.265 0.00 1.31422 4.31
2 4 2 o 0.151 0.182 180.00 1.29712 0.22
3 0 5 o 14.974 14.908 180.00 1.29585 11.04
4 1 3 o 6.707 7.019 180.00 1.29256 9.85
0 2 6 o 0.160 0.221 180.00 1.28958 0.12
2 0 6 o 0.313 0.255 0.00 1.28402 0.23
4 2 2 o 0.187 0.191 0.00 1.28037 0.27
1 3 5 o 15.583 15.544 180.00 1.27850 22.54
3 3 3 o 9.550 8.834 0.00 1.27399 13.74
3 1 5 o 12.220 12.521 180.00 1.26773 17.46
1 2 6 o 0.155 0.104 0.00 1.26055 0.22
2 1 6 o 2.031 2.549 0.00 1.25665 2.87
0 4 4 o 15.612 15.015 0.00 1.24310 10.85
2 4 3 o 22.206 21.137 0.00 1.22810 30.36
4 0 4 o 5.901 6.084 0.00 1.22353 4.01
1 4 4 o 4.107 3.812 0.00 1.21704 5.55
4 2 3 o 8.024 8.228 0.00 1.21386 10.80
3 4 0 o 0.005 0.005 180.00 1.21315 0.00
4 3 0 o 6.007 6.187 180.00 1.20508 4.00
3 4 1 o 0.995 1.169 180.00 1.20107 1.32
4 1 4 o 0.228 0.271 0.00 1.19978 0.30
1 5 0 o 0.190 0.227 180.00 1.19888 0.13
2 3 5 o 0.052 0.062 180.00 1.19881 0.07
1 0 7 o 12.175 12.705 0.00 1.19432 8.02
4 3 1 o 4.623 4.577 0.00 1.19324 6.09
3 2 5 o 0.474 0.469 0.00 1.19323 0.62
1 5 1 o 16.054 16.400 180.00 1.18721 21.00
3 3 4 o 0.741 0.757 0.00 1.18488 0.97
2 2 6 o 5.253 5.127 180.00 1.18397 6.85
5 0 1 o 1.629 1.528 0.00 1.18339 1.06
5 1 0 o 13.179 12.662 0.00 1.17278 8.49
1 1 7 o 3.781 3.745 0.00 1.17220 4.87
3 4 2 o 14.656 14.468 180.00 1.16689 18.76
5 1 1 o 1.456 1.367 0.00 1.16186 1.85
4 3 2 o 2.553 2.744 180.00 1.15970 3.24
1 5 2 o 0.391 0.446 180.00 1.15417 0.49
2 4 4 o 7.946 8.221 0.00 1.14770 9.97
1 3 6 o 2.929 2.823 180.00 1.14491 3.66
0 4 5 o 15.955 16.915 180.00 1.13906 9.92
3 1 6 o 20.016 20.054 180.00 1.13716 24.84
4 2 4 o 4.783 4.570 0.00 1.13605 5.93
2 5 0 o 2.696 2.629 180.00 1.13243 1.67
0 2 7 o 2.911 2.847 0.00 1.13236 1.80
5 1 2 o 24.288 24.700 180.00 1.13083 29.95
2 5 1 o 1.409 1.513 0.00 1.12259 1.72
1 4 5 o 0.244 0.528 0.00 1.11891 0.30
3 4 3 o 0.000 0.015 180.00 1.11588 0.00
5 2 0 o 0.109 0.186 0.00 1.11305 0.07
1 2 7 o 0.490 0.691 180.00 1.11256 0.59
2 1 7 o 3.440 3.751 180.00 1.10987 4.16
4 3 3 o 2.187 2.358 0.00 1.10959 2.64
4 1 5 o 0.280 0.268 0.00 1.10545 0.34
1 5 3 o 16.987 16.078 0.00 1.10474 20.42
5 2 1 o 0.833 0.755 0.00 1.10370 1.00
5 0 3 o 2.296 1.125 180.00 1.10166 1.38
2 5 2 o 2.699 2.409 0.00 1.09453 3.21
3 3 5 o 0.459 0.361 0.00 1.09376 0.55
2 3 6 o 0.470 0.240 0.00 1.08662 0.56
5 1 3 o 11.708 11.278 0.00 1.08422 13.81
3 2 6 o 4.156 3.947 180.00 1.08246 4.89
5 2 2 o 0.000 0.047 180.00 1.07700 0.00
4 4 0 o 5.445 6.219 0.00 1.06870 3.17
0 0 8 o 7.732 8.202 0.00 1.06656 2.24
2 4 5 o 1.447 1.493 0.00 1.06431 1.68
4 4 1 o 16.562 16.629 180.00 1.06041 19.13
2 2 7 o 0.002 0.002 180.00 1.05885 0.00
4 2 5 o 2.619 2.512 180.00 1.05500 3.01
3 4 4 o 3.759 3.611 0.00 1.05454 4.32
2 5 3 o 2.815 2.644 0.00 1.05210 3.23
4 3 4 o 0.312 0.251 180.00 1.04922 0.36
1 5 4 o 2.201 2.371 180.00 1.04512 2.51
3 5 0 o 18.834 19.931 180.00 1.04265 10.72
0 4 6 o 1.122 1.160 180.00 1.04154 0.64
3 0 7 o 0.019 0.018 0.00 1.03966 0.01
4 4 2 o 3.938 3.984 0.00 1.03667 4.46
5 2 3 o 1.189 1.209 180.00 1.03651 1.35
3 5 1 o 2.381 2.587 180.00 1.03496 2.70
1 1 8 o 1.985 2.168 180.00 1.03484 2.25
5 3 0 o 3.722 4.024 180.00 1.03102 2.10
1 3 7 o 6.708 7.162 0.00 1.03063 7.57
4 0 6 o 0.201 0.214 0.00 1.02994 0.11
5 1 4 o 5.958 6.338 0.00 1.02770 6.71
1 4 6 o 9.400 9.765 180.00 1.02606 10.58
3 1 7 o 1.940 1.977 180.00 1.02497 2.18
5 3 1 o 1.427 1.405 180.00 1.02358 1.60
0 6 0 o 4.448 4.788 0.00 1.01981 1.25
4 1 6 o 3.081 3.014 180.00 1.01565 3.44
3 5 2 o 21.985 20.735 180.00 1.01284 24.52
0 6 1 o 1.077 0.992 0.00 1.01260 0.60
0 2 8 o 81.950 76.297 0.00 1.00712 45.54
3 3 6 o 26.182 25.581 180.00 1.00657 29.09
1 6 0 o 5.285 5.404 180.00 1.00527 2.93
2 0 8 o 58.241 59.394 0.00 1.00446 32.31
5 3 2 o 47.100 46.476 180.00 1.00217 52.20
4 4 3 o 7.263 7.012 0.00 1.00041 8.04
2 5 4 o 2.541 2.430 180.00 1.00022 2.81
1 6 1 o 0.132 0.108 0.00 0.99836 0.15
6 0 0 o 14.997 14.053 0.00 0.99578 4.14
1 2 8 o 7.506 7.704 0.00 0.99311 8.28
0 6 2 o 8.940 9.029 0.00 0.99186 4.93
2 1 8 o 2.203 2.201 0.00 0.99120 2.43
3 4 5 o 2.619 2.555 180.00 0.98876 2.88
2 3 7 o 8.059 7.866 180.00 0.98750 8.86
5 2 4 o 0.200 0.198 0.00 0.98679 0.22
4 3 5 o 15.089 15.360 0.00 0.98438 16.57
3 2 7 o 5.312 5.407 0.00 0.98437 5.83
2 4 6 o 1.392 1.419 0.00 0.98348 1.53
6 1 0 o 7.462 7.594 180.00 0.98285 4.10
1 5 5 o 16.180 16.074 180.00 0.98099 17.75
3 5 3 o 2.186 2.179 0.00 0.97895 2.40
5 0 5 o 1.398 1.398 0.00 0.97883 0.77
1 6 2 o 16.857 17.001 180.00 0.97847 18.47
6 1 1 o 0.000 0.000 0.00 0.97640 0.00
4 2 6 o 4.254 3.941 0.00 0.97611 4.66
6 0 2 o 2.493 2.731 0.00 0.96972 1.36
5 3 3 o 2.658 2.831 180.00 0.96930 2.90
5 1 5 o 11.228 11.120 0.00 0.96654 12.26
2 6 0 o 0.253 0.243 0.00 0.96512 0.14
0 6 3 o 14.102 13.939 0.00 0.95996 7.68
2 6 1 o 8.772 8.538 180.00 0.95900 9.56
6 1 2 o 10.956 10.536 180.00 0.95776 11.94
4 4 4 o 3.738 3.542 0.00 0.95549 4.07
2 2 8 o 3.396 3.309 0.00 0.95434 3.70
0 4 7 o 3.735 3.634 180.00 0.95329 2.03
1 6 3 o 0.443 0.582 0.00 0.94781 0.48
6 2 0 o 2.027 2.901 0.00 0.94689 1.10
4 5 0 o 0.035 0.051 180.00 0.94662 0.02
2 5 5 o 5.850 6.860 0.00 0.94357 6.36
5 4 0 o 0.335 0.357 0.00 0.94168 0.18
1 4 7 o 1.377 1.453 0.00 0.94138 1.50
2 6 2 o 1.957 2.063 0.00 0.94133 2.13
6 2 1 o 2.362 2.480 180.00 0.94111 2.57
4 5 1 o 1.020 1.070 180.00 0.94085 1.11
3 5 4 o 3.039 3.104 180.00 0.93674 3.31
1 0 9 o 1.893 1.949 180.00 0.93634 1.03
5 4 1 o 0.191 0.199 0.00 0.93600 0.21
1 3 8 o 0.239 0.267 180.00 0.93353 0.26
4 1 7 o 4.624 5.136 180.00 0.93333 5.03
5 2 5 o 0.595 0.651 0.00 0.93227 0.65
3 1 8 o 4.441 4.715 0.00 0.92931 4.84
6 1 3 o 1.539 1.616 0.00 0.92895 1.68
5 3 4 o 0.290 0.299 0.00 0.92828 0.32
3 3 7 o 5.436 4.872 0.00 0.92626 5.93
1 1 9 o 1.545 1.391 180.00 0.92556 1.68
6 2 2 o 0.104 0.119 0.00 0.92439 0.11
4 5 2 o 0.018 0.022 0.00 0.92415 0.02
3 4 6 o 0.604 0.871 180.00 0.92294 0.66
0 6 4 o 1.750 2.009 0.00 0.92007 0.96
5 4 2 o 0.179 0.205 180.00 0.91955 0.20
4 3 6 o 1.299 1.484 0.00 0.91937 1.42
1 5 6 o 4.709 4.790 180.00 0.91661 5.15
2 6 3 o 1.406 0.755 180.00 0.91393 1.54
1 6 4 o 1.016 0.775 0.00 0.90935 1.12
2 4 7 o 12.657 12.116 0.00 0.90817 13.90
3 6 0 o 20.919 20.624 0.00 0.90772 11.49
4 4 5 o 20.719 21.181 180.00 0.90574 22.79
0 2 9 o 0.022 0.022 180.00 0.90557 0.01
5 1 6 o 39.190 39.557 180.00 0.90479 43.14
3 2 8 o 0.035 0.032 0.00 0.89874 0.04
6 2 3 o 6.082 5.607 0.00 0.89841 6.73
4 5 3 o 11.678 10.856 180.00 0.89818 12.92
1 2 9 o 0.736 0.717 180.00 0.89535 0.82
6 3 0 o 14.995 14.567 0.00 0.89483 8.32
5 4 3 o 0.018 0.018 180.00 0.89396 0.02
2 1 9 o 6.003 5.857 0.00 0.89394 6.67
6 1 4 o 0.032 0.033 0.00 0.89265 0.04
6 3 1 o 1.411 1.568 180.00 0.88995 1.57
3 5 5 o 2.111 2.367 180.00 0.88973 2.36
3 6 2 o 0.152 0.179 180.00 0.88785 0.17
2 5 6 o 2.433 2.592 0.00 0.88587 2.73
5 3 5 o 6.217 6.078 180.00 0.88247 7.00
2 6 4 o 0.788 1.075 0.00 0.87931 0.89
5 2 6 o 0.040 0.040 180.00 0.87650 0.05
6 3 2 o 0.055 0.054 180.00 0.87577 0.06
0 6 5 o 11.483 10.906 0.00 0.87540 6.53
0 4 8 o 6.527 5.754 0.00 0.87490 3.72
4 0 8 o 1.690 1.112 0.00 0.86799 0.97
2 2 9 o 0.831 0.891 180.00 0.86663 0.96
1 6 5 o 0.826 0.890 0.00 0.86615 0.96
1 4 8 o 2.901 3.066 180.00 0.86567 3.36
6 2 4 o 4.721 4.941 0.00 0.86545 5.47
4 5 4 o 0.152 0.158 180.00 0.86525 0.18
1 7 0 o 9.309 9.513 180.00 0.86491 5.40
3 6 3 o 0.074 0.075 180.00 0.86475 0.09
5 4 4 o 0.232 0.232 0.00 0.86147 0.27
1 7 1 o 10.285 10.368 180.00 0.86050 12.04
3 4 7 o 0.085 0.086 0.00 0.85986 0.10
4 1 8 o 9.454 9.423 180.00 0.85939 11.10
4 3 7 o 0.530 0.493 0.00 0.85697 0.63
3 0 9 o 1.682 1.634 180.00 0.85601 1.00
5 5 0 o 7.038 7.126 0.00 0.85496 4.18
1 5 7 o 14.148 14.391 0.00 0.85473 16.81
4 4 6 o 1.413 1.445 0.00 0.85434 1.68
3 3 8 o 3.234 3.318 180.00 0.85386 3.85
6 3 3 o 3.816 3.920 180.00 0.85358 4.55
5 0 7 o 1.536 1.579 180.00 0.85330 0.92
0 0 10 o 36.405 37.427 180.00 0.85325 10.86
6 1 5 o 0.354 0.361 0.00 0.85169 0.42
1 3 9 o 9.214 9.263 180.00 0.85095 11.07
5 5 1 o 0.125 0.125 180.00 0.85070 0.15
7 0 1 o 12.187 11.819 0.00 0.84929 7.35
3 1 9 o 0.159 0.154 180.00 0.84776 0.19
1 7 2 o 3.178 3.081 180.00 0.84767 3.85
7 1 0 o 0.181 0.169 180.00 0.84534 0.11
5 1 7 o 4.895 4.529 0.00 0.84513 5.99
4 6 0 o 1.993 2.088 0.00 0.84223 1.23
7 1 1 o 2.142 2.250 180.00 0.84122 2.66
3 5 6 o 0.358 0.373 180.00 0.84086 0.44
2 6 5 o 20.629 21.030 180.00 0.84007 25.70
2 7 0 o 7.677 7.719 180.00 0.83894 4.80
2 4 8 o 15.086 15.241 0.00 0.83963 18.83
5 5 2 o 0.170 0.172 0.00 0.83829 0.21
4 6 1 o 10.686 10.798 180.00 0.83815 13.42
1 1 10 o 6.672 6.767 180.00 0.83674 8.42
3 6 4 o 6.321 6.350 0.00 0.83524 8.03
4 2 8 o 9.237 9.289 0.00 0.83504 11.75
2 7 1 o 1.927 1.940 180.00 0.83492 2.45
5 3 6 o 8.887 8.971 180.00 0.83472 11.32
6 4 0 o 4.243 4.298 0.00 0.83454 2.70
6 4 1 o 10.526 10.575 180.00 0.83058 13.67
2 5 7 o 0.894 0.897 0.00 0.82964 1.17
7 1 2 o 19.426 19.455 180.00 0.82922 25.40
0 6 6 o 3.197 3.190 0.00 0.82874 2.10
6 2 5 o 1.188 1.173 180.00 0.82797 1.56
4 5 5 o 9.857 9.701 180.00 0.82779 12.99
1 7 3 o 16.091 15.764 0.00 0.82749 21.23
4 6 2 o 3.740 3.616 0.00 0.82628 4.97
2 3 9 o 2.584 2.497 0.00 0.82619 3.43
1 6 6 o 0.424 0.242 0.00 0.82088 0.58
2 0 10 o 3.322 2.006 0.00 0.82044 2.29
6 4 2 o 2.739 2.131 0.00 0.81902 3.81
5 5 3 o 0.367 0.302 0.00 0.81877 0.51
7 2 1 o 3.585 3.270 0.00 0.81834 5.00
7 0 3 o 1.269 1.415 180.00 0.81751 0.89
6 0 6 o 0.245 0.274 0.00 0.81569 0.17
1 2 10 o 0.969 0.917 0.00 0.81422 1.39
2 1 10 o 5.061 4.963 0.00 0.81316 7.34
7 1 3 o 2.708 3.306 180.00 0.81031 4.03
6 1 6 o 0.910 0.967 0.00 0.80854 1.38
4 6 3 o 22.620 23.155 0.00 0.80756 34.52
7 2 2 o 0.401 0.408 180.00 0.80728 0.61
0 4 9 o 0.012 0.011 180.00 0.80584 0.01
2 7 3 o 0.582 0.565 180.00 0.80467 0.92
4 4 7 o 9.225 9.174 0.00 0.80358 14.69
1 7 4 o 5.058 5.012 180.00 0.80153 8.25
3 6 5 o 0.243 0.241 180.00 0.80140 0.40
3 4 8 o 16.188 15.963 0.00 0.80101 26.58
6 4 3 o 4.436 4.368 0.00 0.80078 7.31
3 7 0 o 0.149 0.147 180.00 0.80042 0.12
4 3 8 o 2.748 2.691 0.00 0.79868 4.65
1 4 9 o 0.615 0.602 180.00 0.79861 1.04
2 6 6 o 5.125 5.021 0.00 0.79858 8.69
3 7 1 o 3.433 3.507 180.00 0.79692 5.96
1 5 8 o 7.353 7.528 180.00 0.79686 12.79
4 1 9 o 2.559 2.456 0.00 0.79367 4.69
5 5 4 o 0.190 0.181 180.00 0.79359 0.35
6 3 5 o 8.194 7.829 180.00 0.79249 15.34
2 2 10 o 7.635 7.303 180.00 0.79244 14.30
3 5 7 o 2.304 2.211 0.00 0.79233 4.32
7 2 3 o 12.343 12.620 180.00 0.78980 24.38
3 3 9 o 1.489 1.519 180.00 0.78931 2.97
5 1 8 o 1.560 1.589 0.00 0.78906 3.13
6 2 6 o 1.570 1.593 0.00 0.78816 3.22
4 5 6 o 0.000 0.000 180.00 0.78800 0.00
7 3 0 o 3.540 3.545 0.00 0.78736 3.70
5 3 7 o 0.927 0.923 180.00 0.78719 1.95
3 7 2 o 2.096 2.053 0.00 0.78669 4.46
7 1 4 o 0.073 0.071 0.00 0.78588 0.16
5 4 6 o 0.268 0.260 180.00 0.78515 0.60
7 3 1 o 0.599 0.600 180.00 0.78403 1.38
4 6 4 o 1.971 1.978 0.00 0.78337 4.63
0 6 7 o 5.673 5.606 0.00 0.78216 6.95
