#------------------------------------------------------------------------------
#$Date: 2016-02-16 22:30:59 +0200 (Tue, 16 Feb 2016) $
#$Revision: 176467 $
#$URL: svn://www.crystallography.net/cod/cif/4/00/07/4000724.cif $
#------------------------------------------------------------------------------
#
# This file is available in the Crystallography Open Database (COD),
# http://www.crystallography.net/
#
# All data on this site have been placed in the public domain by the
# contributors.
#
data_4000724
loop_
_publ_author_name
'Wang, Jin'
'Schenk, Kurt'
'Carvalho, Alexandra'
'Eerd, Ben Wylie-van'
'Trodahl, Joe'
'Sandu, Cosmin S.'
'Bonin, Michel'
'Gregora, Ivan'
'He, Zhanbing'
'Yamada, Tomoaki'
'Funakubo, Hiroshi'
'Briddon, Patrick R.'
'Setter, Nava'
_publ_section_title
;
 Structure Determination and Compositional Modification of Body-Centered
 Tetragonal PX-Phase Lead Titanate
;
_journal_issue                   10
_journal_name_full               'Chemistry of Materials'
_journal_page_first              2529
_journal_paper_doi               10.1021/cm1030206
_journal_volume                  23
_journal_year                    2011
_chemical_formula_moiety         'O3 Pb1 Ti1'
_chemical_formula_sum            'O3 Pb Ti'
_chemical_formula_weight         303.1
_chemical_name_common            'PX phase of lead titanate'
_chemical_name_systematic        ' ?'
_space_group_IT_number           87
_symmetry_cell_setting           tetragonal
_symmetry_space_group_name_Hall  '-I 4'
_symmetry_space_group_name_H-M   'I 4/m'
_cell_angle_alpha                90
_cell_angle_beta                 90
_cell_angle_gamma                90
_cell_formula_units_Z            8
_cell_length_a                   12.3853(1)
_cell_length_b                   12.3853(1)
_cell_length_c                   3.82000(4)
_cell_measurement_temperature    293
_cell_volume                     585.971(9)
_computing_publication_material
'Jana2006 (Petricek, Dusek & Palatinus, 2006)'
_computing_structure_refinement
'Jana2006 (Petricek, Dusek & Palatinus, 2006)'
_diffrn_ambient_temperature      293
_diffrn_detector                 'Six Si(111) analyser crystals'
_diffrn_detector_type            'scintillation counter'
_diffrn_measurement_device       'powder diffractometer'
_diffrn_measurement_device_type  synchrotron
_diffrn_radiation_monochromator  'channel-cut Si(111) crystal'
_diffrn_radiation_type           synchrotron
_diffrn_radiation_wavelength     0.49835776
_diffrn_source                   synchrotron
_diffrn_source_type              synchrotron
_exptl_absorpt_coefficient_mu    23.799
_exptl_absorpt_correction_type   cylinder
_exptl_absorpt_process_details
'Jana2006  (V. Pet\<r\'i\<cek, M. Du\<sek & L. Palatinus, 2006)'
_exptl_crystal_density_diffrn    6.871
_exptl_crystal_density_meas      6.6
_exptl_crystal_density_method    'He pycnometer'
_exptl_crystal_F_000             1024
_pd_char_colour                  colourless
_pd_char_particle_morphology     'long square prisms'
_pd_instr_location
; 
Beamline BM01b at ESRF, Grenoble, France
;
_pd_meas_2theta_range_inc        0.005
_pd_meas_2theta_range_max        46.580
_pd_meas_2theta_range_min        1.045
_pd_meas_number_of_points        9108
_pd_meas_scan_method             'DEBYE-SCHERRER geometry'
_pd_prep_temperature             293
_pd_proc_2theta_range_inc        0.005
_pd_proc_2theta_range_max        46.58
_pd_proc_2theta_range_min        2.505
_pd_proc_ls_background_function  '36 Legendre polynoms'
_pd_proc_ls_pref_orient_corr     none
_pd_proc_ls_profile_function     Pseudo-Voigt
_pd_proc_ls_prof_R_factor        0.0616
_pd_proc_ls_prof_wR_expected     0.0000
_pd_proc_ls_prof_wR_factor       0.0793
_pd_proc_wavelength              0.49835776
_pd_spec_mounting                '0.3mm borosilicate capillary'
_pd_spec_mount_mode              transmission
_pd_spec_shape                   cylinder
_pd_spec_size_axial              4mm
_pd_spec_size_equat              0.3mm
_pd_spec_size_thick              0.3mm
_refine_diff_density_max         0.77
_refine_diff_density_min         -0.66
_refine_ls_extinction_method     none
_refine_ls_hydrogen_treatment    noref
_refine_ls_number_parameters     8612
_refine_ls_R_factor_all          0.0188
_refine_ls_R_factor_gt           0.0188
_refine_ls_shift/su_max          0.0088
_refine_ls_shift/su_mean         0.0016
_refine_ls_weighting_scheme      sigma
_refine_ls_wR_factor_gt          0.0277
_refine_ls_wR_factor_ref         0.0277
_cod_data_source_file            cm1030206_si_002.cif
_cod_data_source_block           (I)
_cod_original_cell_volume        585.97(2)
_cod_original_formula_sum        'O3 Pb1 Ti1'
_cod_database_code               4000724
loop_
_symmetry_equiv_pos_site_id
_symmetry_equiv_pos_as_xyz
1 x,y,z
2 -x,-y,z
3 -y,x,z
4 y,-x,z
5 -x,-y,-z
6 x,y,-z
7 y,-x,-z
8 -y,x,-z
9 x+1/2,y+1/2,z+1/2
10 -x+1/2,-y+1/2,z+1/2
11 -y+1/2,x+1/2,z+1/2
12 y+1/2,-x+1/2,z+1/2
13 -x+1/2,-y+1/2,-z+1/2
14 x+1/2,y+1/2,-z+1/2
15 y+1/2,-x+1/2,-z+1/2
16 -y+1/2,x+1/2,-z+1/2
loop_
_atom_site_label
_atom_site_type_symbol
_atom_site_fract_x
_atom_site_fract_y
_atom_site_fract_z
_atom_site_adp_type
_atom_site_U_iso_or_equiv
_atom_site_symmetry_multiplicity
_atom_site_occupancy
_atom_site_calc_flag
Pb1 Pb 0.33510(9) 0.34959(12) 0 Uani 0.0633(5) 8 1 d
Ti1 Ti -0.0312(3) 0.6426(4) 0 Uani 0.0598(18) 8 1 d
O1 O 0.1073(7) 0.5262(9) 0 Uani 0.051(4) 8 1 d
O3 O -0.0407(9) 0.2416(9) 0 Uani 0.056(4) 8 1 d
O4 O -0.1639(12) 0.7168(8) 0 Uani 0.063(4) 8 1 d
loop_
_atom_site_aniso_label
_atom_site_aniso_type_symbol
_atom_site_aniso_U_11
_atom_site_aniso_U_22
_atom_site_aniso_U_33
_atom_site_aniso_U_12
_atom_site_aniso_U_13
_atom_site_aniso_U_23
Pb1 Pb 0.0592(8) 0.0681(11) 0.0624(4) -0.0016(10) 0 0
Ti1 Ti 0.056(2) 0.066(4) 0.058(2) 0.011(2) 0 0
O1 O 0.028(5) 0.079(10) 0.047(6) -0.016(5) 0 0
O3 O 0.040(7) 0.077(9) 0.052(7) 0.021(6) 0 0
O4 O 0.077(9) 0.047(7) 0.064(8) -0.020(8) 0 0
loop_
_atom_type_symbol
_atom_type_scat_dispersion_real
_atom_type_scat_dispersion_imag
_atom_type_scat_source
Pb -0.769 5.772 'International Tables Vol C Tables  4.2.6.8 and 6.1.1.1'
Ti 0.174 0.227 'International Tables Vol C Tables  4.2.6.8 and 6.1.1.1'
O 0.004 0.003 'International Tables Vol C Tables  4.2.6.8 and 6.1.1.1'
loop_
_geom_angle_atom_site_label_1
_geom_angle_atom_site_label_2
_geom_angle_atom_site_label_3
_geom_angle_site_symmetry_1
_geom_angle_site_symmetry_3
_geom_angle
_geom_angle_publ_flag
O3 Pb1 O3 11_554 11_555 98.1(3) yes
O3 Pb1 O4 11_554 9_544 77.3(3) yes
O3 Pb1 O4 11_554 9_545 157.6(4) yes
O3 Pb1 O4 11_554 2_565 81.0(3) yes
O3 Pb1 O4 11_555 9_544 157.6(4) yes
O3 Pb1 O4 11_555 9_545 77.3(3) yes
O3 Pb1 O4 11_555 2_565 81.0(3) yes
O4 Pb1 O4 9_544 9_545 98.5(3) yes
O4 Pb1 O4 9_544 2_565 76.6(4) yes
O4 Pb1 O4 9_545 2_565 76.6(4) yes
O1 Ti1 O1 . 2_565 74.2(4) yes
O1 Ti1 O1 . 11_554 80.4(3) yes
O1 Ti1 O1 . 11_555 80.4(3) yes
O1 Ti1 O3 . 2_565 98.2(5) yes
O1 Ti1 O4 . . 169.2(5) yes
O1 Ti1 O1 2_565 11_554 79.0(3) yes
O1 Ti1 O1 2_565 11_555 79.0(3) yes
O1 Ti1 O3 2_565 2_565 172.4(5) yes
O1 Ti1 O4 2_565 . 94.9(4) yes
O1 Ti1 O1 11_554 11_555 154.0(4) yes
O1 Ti1 O3 11_554 2_565 100.0(3) yes
O1 Ti1 O4 11_554 . 97.8(3) yes
O1 Ti1 O3 11_555 2_565 100.0(3) yes
O1 Ti1 O4 11_555 . 97.8(3) yes
O3 Ti1 O4 2_565 . 92.6(5) yes
Ti1 O1 Ti1 . 2_565 105.8(4) yes
Ti1 O1 Ti1 . 12_454 98.7(3) yes
Ti1 O1 Ti1 . 12_455 98.7(3) yes
Ti1 O1 O1 . 2_565 53.8(3) yes
Ti1 O1 O1 . 11_554 45.3(2) yes
Ti1 O1 O1 . 11_555 45.3(2) yes
Ti1 O1 O1 . 12_454 96.2(3) yes
Ti1 O1 O1 . 12_455 96.2(3) yes
Ti1 O1 O3 . 11_554 134.6(3) yes
Ti1 O1 O3 . 11_555 134.6(3) yes
Ti1 O1 O4 . 12_454 88.8(4) yes
Ti1 O1 O4 . 12_455 88.8(4) yes
Ti1 O1 Ti1 2_565 12_454 96.9(4) yes
Ti1 O1 Ti1 2_565 12_455 96.9(4) yes
Ti1 O1 O1 2_565 2_565 52.0(3) yes
Ti1 O1 O1 2_565 11_554 95.0(3) yes
Ti1 O1 O1 2_565 11_555 95.0(3) yes
Ti1 O1 O1 2_565 12_454 45.1(2) yes
Ti1 O1 O1 2_565 12_455 45.1(2) yes
Ti1 O1 O3 2_565 2_565 139.7(4) yes
Ti1 O1 O3 2_565 11_554 90.3(4) yes
Ti1 O1 O3 2_565 11_555 90.3(4) yes
Ti1 O1 O4 2_565 12_454 136.8(3) yes
Ti1 O1 O4 2_565 12_455 136.8(3) yes
Ti1 O1 Ti1 12_454 12_455 154.0(5) yes
Ti1 O1 O1 12_454 2_565 103.0(3) yes
Ti1 O1 O1 12_454 11_554 55.9(3) yes
Ti1 O1 O1 12_454 11_555 144.0(5) yes
Ti1 O1 O1 12_454 12_454 54.3(3) yes
Ti1 O1 O1 12_454 12_455 141.8(5) yes
Ti1 O1 O3 12_454 2_565 91.8(4) yes
Ti1 O1 O3 12_454 11_555 121.7(4) yes
Ti1 O1 O4 12_454 12_455 121.3(5) yes
Ti1 O1 O1 12_455 2_565 103.0(3) yes
Ti1 O1 O1 12_455 11_554 144.0(5) yes
Ti1 O1 O1 12_455 11_555 55.9(3) yes
Ti1 O1 O1 12_455 12_454 141.8(5) yes
Ti1 O1 O1 12_455 12_455 54.3(3) yes
Ti1 O1 O3 12_455 2_565 91.8(4) yes
Ti1 O1 O3 12_455 11_554 121.7(4) yes
Ti1 O1 O4 12_455 12_454 121.3(5) yes
O1 O1 O1 2_565 11_554 59.8(3) yes
O1 O1 O1 2_565 11_555 59.8(3) yes
O1 O1 O1 2_565 12_454 59.8(3) yes
O1 O1 O1 2_565 12_455 59.8(3) yes
O1 O1 O3 2_565 2_565 87.7(4) yes
O1 O1 O3 2_565 11_554 125.4(4) yes
O1 O1 O3 2_565 11_555 125.4(4) yes
O1 O1 O4 2_565 12_454 126.5(3) yes
O1 O1 O4 2_565 12_455 126.5(3) yes
O1 O1 O1 11_554 11_555 89.3(4) yes
O1 O1 O1 11_554 12_454 60.4(3) yes
O1 O1 O1 11_554 12_455 119.6(4) yes
O1 O1 O3 11_554 2_565 58.5(3) yes
O1 O1 O3 11_554 11_554 92.1(2) yes
O1 O1 O3 11_554 11_555 174.4(5) yes
O1 O1 O4 11_554 12_454 66.7(3) yes
O1 O1 O4 11_554 12_455 122.0(5) yes
O1 O1 O1 11_555 12_454 119.6(4) yes
O1 O1 O1 11_555 12_455 60.4(3) yes
O1 O1 O3 11_555 2_565 58.5(3) yes
O1 O1 O3 11_555 11_554 174.4(5) yes
O1 O1 O3 11_555 11_555 92.1(2) yes
O1 O1 O4 11_555 12_454 122.0(5) yes
O1 O1 O4 11_555 12_455 66.7(3) yes
O1 O1 O1 12_454 12_455 89.3(4) yes
O1 O1 O3 12_454 2_565 118.9(3) yes
O1 O1 O3 12_454 11_554 65.6(3) yes
O1 O1 O3 12_454 11_555 123.1(5) yes
O1 O1 O4 12_454 12_454 93.9(2) yes
O1 O1 O4 12_454 12_455 173.7(4) yes
O1 O1 O3 12_455 2_565 118.9(3) yes
O1 O1 O3 12_455 11_554 123.1(5) yes
O1 O1 O3 12_455 11_555 65.6(3) yes
O1 O1 O4 12_455 12_454 173.7(4) yes
O1 O1 O4 12_455 12_455 93.9(2) yes
O3 O1 O3 2_565 11_554 118.0(4) yes
O3 O1 O3 2_565 11_555 118.0(4) yes
O3 O1 O4 2_565 12_454 64.1(4) yes
O3 O1 O4 2_565 12_455 64.1(4) yes
O3 O1 O3 11_554 11_555 86.0(3) yes
O3 O1 O4 11_554 12_454 54.0(3) yes
O3 O1 O4 11_554 12_455 108.1(4) yes
O3 O1 O4 11_555 12_454 108.1(4) yes
O3 O1 O4 11_555 12_455 54.0(3) yes
O4 O1 O4 12_454 12_455 82.5(4) yes
Pb1 O3 Pb1 12_454 12_455 98.1(4) yes
Pb1 O3 Ti1 12_454 2_565 127.0(3) yes
Pb1 O3 O1 12_454 2_565 102.3(3) yes
Pb1 O3 O1 12_454 12_454 83.96(18) yes
Pb1 O3 O1 12_454 12_455 157.7(5) yes
Pb1 O3 O4 12_454 2_565 127.0(2) yes
Pb1 O3 Ti1 12_455 2_565 127.0(3) yes
Pb1 O3 O1 12_455 2_565 102.3(3) yes
Pb1 O3 O1 12_455 12_454 157.7(5) yes
Pb1 O3 O1 12_455 12_455 83.96(18) yes
Pb1 O3 O4 12_455 2_565 127.0(2) yes
Ti1 O3 O1 2_565 2_565 47.8(4) yes
Ti1 O3 O4 2_565 2_565 46.7(4) yes
O1 O3 O1 2_565 12_454 55.9(3) yes
O1 O3 O1 2_565 12_455 55.9(3) yes
O1 O3 O4 2_565 2_565 94.5(4) yes
O1 O3 O1 12_454 12_455 86.0(4) yes
O1 O3 O4 12_454 2_565 65.0(4) yes
O1 O3 O4 12_455 2_565 65.0(4) yes
Pb1 O4 Pb1 9_454 9_455 98.5(4) yes
Pb1 O4 Pb1 9_454 2_565 103.4(4) yes
Pb1 O4 Ti1 9_454 . 108.8(5) yes
Pb1 O4 O1 9_454 11_554 79.0(2) yes
Pb1 O4 O1 9_454 11_555 143.9(6) yes
Pb1 O4 O3 9_454 2_565 82.8(4) yes
Pb1 O4 O4 9_454 10_464 48.0(3) yes
Pb1 O4 O4 9_454 10_465 107.6(4) yes
Pb1 O4 Pb1 9_455 2_565 103.4(4) yes
Pb1 O4 Ti1 9_455 . 108.8(5) yes
Pb1 O4 O1 9_455 11_554 143.9(6) yes
Pb1 O4 O1 9_455 11_555 79.0(2) yes
Pb1 O4 O3 9_455 2_565 82.8(4) yes
Pb1 O4 O4 9_455 10_464 107.6(4) yes
Pb1 O4 O4 9_455 10_465 48.0(3) yes
Pb1 O4 Ti1 2_565 . 129.6(5) yes
Pb1 O4 O1 2_565 11_554 112.3(4) yes
Pb1 O4 O1 2_565 11_555 112.3(4) yes
Pb1 O4 O3 2_565 2_565 170.3(6) yes
Pb1 O4 O4 2_565 10_464 55.4(3) yes
Pb1 O4 O4 2_565 10_465 55.4(3) yes
Ti1 O4 O4 . 10_464 139.4(2) yes
Ti1 O4 O4 . 10_465 139.4(2) yes
O1 O4 O1 11_554 11_555 82.5(4) yes
O1 O4 O3 11_554 2_565 61.1(4) yes
O1 O4 O4 11_554 10_464 97.3(2) yes
O1 O4 O4 11_554 10_465 166.7(5) yes
O1 O4 O3 11_555 2_565 61.1(4) yes
O1 O4 O4 11_555 10_464 166.7(5) yes
O1 O4 O4 11_555 10_465 97.3(2) yes
O3 O4 O4 2_565 10_464 130.3(4) yes
O3 O4 O4 2_565 10_465 130.3(4) yes
O4 O4 O4 10_464 10_465 79.8(4) yes
loop_
_geom_bond_atom_site_label_1
_geom_bond_atom_site_label_2
_geom_bond_site_symmetry_2
_geom_bond_distance
_geom_bond_publ_flag
Pb1 O3 11_554 2.529(7) yes
Pb1 O3 11_555 2.529(7) yes
Pb1 O4 9_544 2.521(7) yes
Pb1 O4 9_545 2.521(7) yes
Pb1 O4 2_565 2.274(14) yes
Ti1 O1 . 2.240(11) yes
Ti1 O1 2_565 2.293(12) yes
Ti1 O1 11_554 1.960(2) yes
Ti1 O1 11_555 1.960(2) yes
Ti1 O3 2_565 1.689(12) yes
Ti1 O4 . 1.883(14) yes
O1 O1 2_565 2.736(12) yes
O1 O1 11_554 2.719(10) yes
O1 O1 11_555 2.719(10) yes
O1 O1 12_454 2.719(10) yes
O1 O1 12_455 2.719(10) yes
O1 O3 2_565 2.992(16) yes
O1 O3 11_554 2.800(11) yes
O1 O3 11_555 2.800(11) yes
O1 O4 12_454 2.898(13) yes
O1 O4 12_455 2.898(13) yes
O3 O4 2_565 2.586(18) yes
O4 O4 10_464 2.978(16) yes
O4 O4 10_465 2.978(16) yes
loop_
_pd_proc_point_id
_pd_proc_2theta_corrected
_pd_proc_intensity_net
_pd_calc_intensity_net
_pd_proc_ls_weight
1 1.0490 2406.28 2406.28 107.37
2 1.0540 2306.22 2306.22 91.62
3 1.0590 2321.73 2321.73 110.18
4 1.0640 2374.37 2374.37 112.79
5 1.0690 2339.72 2339.72 112.72
6 1.0740 2136.56 2136.56 107.98
7 1.0790 2311.08 2311.08 112.71
8 1.0840 2283.27 2283.27 112.24
9 1.0890 2103.16 2103.16 107.76
10 1.0940 2019.32 2019.32 105.28
11 1.0990 2097.25 2097.25 107.78
12 1.1040 2159.70 2159.70 109.42
13 1.1090 2146.58 2146.58 108.68
14 1.1140 2014.35 2014.35 106.19
15 1.1190 2013.47 2013.47 105.85
16 1.1240 2090.15 2090.15 107.46
17 1.1290 2064.52 2064.52 106.81
18 1.1340 1814.57 1814.57 99.98
19 1.1390 1924.18 1924.18 103.28
20 1.1440 2076.86 2076.86 107.42
21 1.1490 2035.83 2035.83 106.77
22 1.1540 1933.35 1933.35 103.52
23 1.1590 2023.56 2023.56 105.86
24 1.1640 1783.47 1783.47 99.18
25 1.1690 1920.51 1920.51 103.08
26 1.1740 1839.53 1839.53 101.30
27 1.1790 1788.49 1788.49 100.06
28 1.1840 1927.00 1927.00 103.66
29 1.1890 1615.25 1615.25 94.72
30 1.1940 1924.01 1924.01 100.63
31 1.1990 1817.90 1817.90 98.15
32 1.2040 1806.64 1806.64 97.61
33 1.2090 1738.77 1738.77 96.22
34 1.2140 1730.86 1730.86 95.90
35 1.2190 1801.60 1801.60 98.24
36 1.2240 1826.89 1826.89 97.86
37 1.2290 1696.67 1696.67 94.80
38 1.2340 1763.12 1763.12 96.71
39 1.2390 1654.99 1654.99 93.30
40 1.2440 1663.75 1663.75 94.00
41 1.2490 1652.45 1652.45 94.06
42 1.2540 1706.04 1706.04 95.17
43 1.2590 1519.10 1519.10 89.64
44 1.2640 1609.11 1609.11 92.45
45 1.2690 1747.38 1747.38 96.21
46 1.2740 1496.87 1496.87 89.10
47 1.2790 1538.99 1538.99 91.08
48 1.2840 1499.81 1499.81 89.24
49 1.2890 1485.35 1485.35 88.63
50 1.2940 1467.94 1467.94 88.54
51 1.2990 1475.90 1475.90 88.39
52 1.3040 1550.12 1550.12 90.91
53 1.3090 1472.27 1472.27 88.71
54 1.3140 1546.54 1546.54 90.90
55 1.3190 1685.66 1685.66 94.71
56 1.3240 1376.69 1376.69 85.25
57 1.3290 1381.72 1381.72 85.67
58 1.3340 1395.04 1395.04 86.14
59 1.3390 1499.07 1499.07 89.60
60 1.3440 1473.32 1473.32 88.77
61 1.3490 1523.63 1523.63 90.58
62 1.3540 1337.44 1337.44 84.05
63 1.3590 1438.77 1438.77 87.51
64 1.3640 1426.23 1426.23 87.25
65 1.3690 1344.66 1344.66 84.85
66 1.3740 1369.46 1369.46 85.82
67 1.3790 1523.74 1523.74 90.72
68 1.3840 1426.68 1426.68 87.06
69 1.3890 1359.06 1359.06 84.81
70 1.3940 1490.60 1490.60 89.25
71 1.3990 1295.51 1295.51 83.28
72 1.4040 1181.74 1181.74 79.37
73 1.4090 1330.96 1330.96 85.01
74 1.4140 1381.19 1381.19 86.00
75 1.4190 1365.14 1365.14 85.55
76 1.4240 1213.37 1213.37 80.24
77 1.4290 1232.54 1232.54 80.97
78 1.4340 1298.19 1298.19 83.34
79 1.4390 1330.24 1330.24 84.60
80 1.4440 1237.63 1237.63 81.66
81 1.4490 1296.82 1296.82 83.19
82 1.4540 1211.65 1211.65 80.12
83 1.4590 1237.05 1237.05 81.36
84 1.4640 1106.43 1106.43 76.86
85 1.4690 1147.02 1147.02 78.26
86 1.4740 1213.07 1213.07 80.80
87 1.4790 1280.79 1280.79 83.04
88 1.4840 1240.84 1240.84 81.54
89 1.4890 1209.88 1209.88 80.30
90 1.4940 1282.46 1282.46 82.99
91 1.4990 1241.98 1241.98 81.51
92 1.5040 1213.80 1213.80 80.61
93 1.5090 1272.91 1272.91 82.98
94 1.5140 1177.76 1177.76 79.61
95 1.5190 1098.46 1098.46 76.44
96 1.5240 1145.43 1145.43 78.26
97 1.5290 1090.83 1090.83 76.62
98 1.5340 1175.32 1175.32 79.23
99 1.5390 1126.40 1126.40 78.20
100 1.5440 1147.14 1147.14 78.43
101 1.5490 1143.53 1143.53 78.45
102 1.5540 1079.76 1079.76 75.83
103 1.5590 1184.30 1184.30 79.71
104 1.5640 1049.10 1049.10 74.99
105 1.5690 1022.31 1022.31 74.02
106 1.5740 1145.46 1145.46 78.68
107 1.5790 1081.03 1081.03 76.36
108 1.5840 1014.16 1014.16 73.78
109 1.5890 1191.28 1191.28 79.98
110 1.5940 1176.05 1176.05 79.05
111 1.5990 1125.22 1125.22 77.64
112 1.6040 1051.84 1051.84 75.13
113 1.6090 1003.22 1003.22 73.66
114 1.6140 1026.71 1026.71 74.37
115 1.6190 966.02 966.02 71.77
116 1.6240 1056.03 1056.03 75.31
117 1.6290 1064.05 1064.05 75.38
118 1.6340 1082.38 1082.38 75.94
119 1.6390 989.94 989.94 72.84
120 1.6440 1073.39 1073.39 76.19
121 1.6490 1049.18 1049.18 75.06
122 1.6540 1025.42 1025.42 74.06
123 1.6590 1068.42 1068.42 75.82
124 1.6640 1152.06 1152.06 78.11
125 1.6690 993.06 993.06 72.64
126 1.6740 1012.55 1012.55 74.07
127 1.6790 998.08 998.08 73.46
128 1.6840 1043.51 1043.51 74.52
129 1.6890 958.36 958.36 71.33
130 1.6940 990.17 990.17 72.69
131 1.6990 936.66 936.66 70.81
132 1.7040 1039.33 1039.33 74.90
133 1.7090 982.01 982.01 72.82
134 1.7140 1010.79 1010.79 73.56
135 1.7190 962.95 962.95 71.39
136 1.7240 1012.93 1012.93 73.56
137 1.7290 978.19 978.19 72.69
138 1.7340 1061.96 1061.96 75.09
139 1.7390 957.79 957.79 72.04
140 1.7440 975.72 975.72 72.44
141 1.7490 929.74 929.74 70.39
142 1.7540 860.93 860.93 67.87
143 1.7590 930.97 930.97 70.57
144 1.7640 907.15 907.15 69.72
145 1.7690 918.34 918.34 70.24
146 1.7740 964.52 964.52 72.17
147 1.7790 924.67 924.67 70.68
148 1.7840 947.24 947.24 70.85
149 1.7890 972.93 972.93 72.28
150 1.7940 932.35 932.35 70.54
151 1.7990 868.19 868.19 68.18
152 1.8040 967.86 967.86 72.28
153 1.8090 879.56 879.56 68.96
154 1.8140 952.79 952.79 71.45
155 1.8190 990.85 990.85 72.70
156 1.8240 919.12 919.12 70.14
157 1.8290 872.97 872.97 68.29
158 1.8340 940.86 940.86 71.13
159 1.8390 824.44 824.44 66.92
160 1.8440 839.90 839.90 67.41
161 1.8490 932.88 932.88 70.52
162 1.8540 840.87 840.87 66.86
163 1.8590 908.37 908.37 70.05
164 1.8640 982.61 982.61 72.64
165 1.8690 814.16 814.16 66.41
166 1.8740 817.53 817.53 66.45
167 1.8790 799.79 799.79 65.55
168 1.8840 998.69 998.69 73.22
169 1.8890 938.29 938.29 70.97
170 1.8940 838.04 838.04 67.17
171 1.8990 955.38 955.38 71.72
172 1.9040 997.54 997.54 73.44
173 1.9090 818.40 818.40 66.68
174 1.9140 799.98 799.98 65.29
175 1.9190 812.11 812.11 66.28
176 1.9240 848.21 848.21 67.41
177 1.9290 834.87 834.87 67.08
178 1.9340 866.74 866.74 68.22
179 1.9390 794.86 794.86 65.65
180 1.9440 898.16 898.16 69.77
181 1.9490 735.18 735.18 62.82
182 1.9540 900.22 900.22 69.70
183 1.9590 911.32 911.32 70.16
184 1.9640 837.32 837.32 67.18
185 1.9690 787.27 787.27 65.25
186 1.9740 858.66 858.66 68.22
187 1.9790 818.67 818.67 66.57
188 1.9840 809.29 809.29 65.86
189 1.9890 911.85 911.85 70.20
190 1.9940 942.17 942.17 71.15
191 1.9990 707.56 707.56 61.64
192 2.0040 809.02 809.02 66.67
193 2.0090 844.24 844.24 67.74
194 2.0140 733.19 733.19 62.75
195 2.0190 728.62 728.62 62.42
196 2.0240 835.77 835.77 67.35
197 2.0290 779.01 779.01 64.94
198 2.0340 736.25 736.25 63.31
199 2.0390 765.55 765.55 64.68
200 2.0440 698.40 698.40 61.36
201 2.0490 823.39 823.39 66.39
202 2.0540 706.73 706.73 61.93
203 2.0590 745.23 745.23 63.47
204 2.0640 794.99 794.99 65.54
205 2.0690 801.67 801.67 66.43
206 2.0740 852.15 852.15 67.97
207 2.0790 802.15 802.15 65.88
208 2.0840 731.71 731.71 62.62
209 2.0890 812.79 812.79 66.44
210 2.0940 670.28 670.28 60.38
211 2.0990 746.42 746.42 63.89
212 2.1040 840.89 840.89 67.58
213 2.1090 777.70 777.70 65.25
214 2.1140 767.29 767.29 63.99
215 2.1190 708.60 708.60 61.69
216 2.1240 765.31 765.31 64.85
217 2.1290 744.46 744.46 63.57
218 2.1340 814.72 814.72 66.46
219 2.1390 770.52 770.52 64.49
220 2.1440 707.66 707.66 62.13
221 2.1490 764.99 764.99 64.07
222 2.1540 672.02 672.02 60.31
223 2.1590 718.88 718.88 62.64
224 2.1640 744.21 744.21 63.59
225 2.1690 711.63 711.63 40.96
226 2.1740 833.42 833.42 48.39
227 2.1790 772.54 772.54 48.52
228 2.1840 713.67 713.67 46.61
229 2.1890 756.58 756.58 48.44
230 2.1940 719.29 719.29 47.03
231 2.1990 740.52 740.52 48.11
232 2.2040 730.86 730.86 47.64
233 2.2090 715.44 715.44 47.14
234 2.2140 773.27 773.27 48.69
235 2.2190 771.07 771.07 49.08
236 2.2240 705.39 705.39 46.72
237 2.2290 684.32 684.32 46.27
238 2.2340 788.36 788.36 49.55
239 2.2390 756.44 756.44 48.65
240 2.2440 765.21 765.21 48.68
241 2.2490 714.95 714.95 47.07
242 2.2540 752.68 752.68 48.25
243 2.2590 656.70 656.70 45.36
244 2.2640 734.34 734.34 47.87
245 2.2690 750.58 750.58 48.60
246 2.2740 726.75 726.75 47.48
247 2.2790 726.53 726.53 47.60
248 2.2840 661.90 661.90 45.09
249 2.2890 632.81 632.81 44.47
250 2.2940 679.31 679.31 46.08
251 2.2990 678.83 678.83 46.26
252 2.3040 688.83 688.83 46.35
253 2.3090 724.50 724.50 47.47
254 2.3140 743.45 743.45 47.37
255 2.3190 762.98 762.98 48.33
256 2.3240 660.71 660.71 44.92
257 2.3290 746.13 746.13 47.84
258 2.3340 693.01 693.01 45.99
259 2.3390 675.95 675.95 45.78
260 2.3440 724.88 724.88 46.76
261 2.3490 701.94 701.94 46.30
262 2.3540 699.78 699.78 46.10
263 2.3590 712.92 712.92 46.63
264 2.3640 669.77 669.77 45.29
265 2.3690 629.45 629.45 44.19
266 2.3740 678.62 678.62 45.39
267 2.3790 686.01 686.01 45.75
268 2.3840 708.63 708.63 46.32
269 2.3890 660.96 660.96 45.08
270 2.3940 730.76 730.76 47.32
271 2.3990 683.73 683.73 45.96
272 2.4040 747.66 747.66 47.72
273 2.4090 658.60 658.60 44.98
274 2.4140 709.59 709.59 46.39
275 2.4190 726.08 726.08 47.14
276 2.4240 625.57 625.57 43.64
277 2.4290 644.43 644.43 44.55
278 2.4340 695.29 695.29 46.07
279 2.4390 684.59 684.59 45.94
280 2.4440 670.37 670.37 45.03
281 2.4490 736.04 736.04 47.34
282 2.4540 675.59 675.59 45.26
283 2.4590 729.40 729.40 47.47
284 2.4640 647.92 647.92 44.45
285 2.4690 748.32 748.32 48.12
286 2.4740 701.25 701.25 46.19
287 2.4790 645.68 645.68 44.36
288 2.4840 674.20 674.20 45.20
289 2.4890 670.49 670.49 45.44
290 2.4940 637.15 637.15 44.23
291 2.4990 677.69 677.69 45.78
292 2.5040 637.07 637.07 44.03
293 2.5090 748.10 673.48 47.82
294 2.5140 599.29 671.31 42.66
295 2.5190 675.31 669.28 45.53
296 2.5240 660.20 667.36 44.84
297 2.5290 655.78 665.57 45.03
298 2.5340 625.66 663.89 43.71
299 2.5390 688.25 662.32 45.99
300 2.5440 661.79 660.85 44.83
301 2.5490 680.62 659.48 45.64
302 2.5540 669.96 658.20 45.11
303 2.5590 641.47 657.01 44.57
304 2.5640 648.06 655.89 44.42
305 2.5690 646.82 654.85 44.62
306 2.5740 670.55 653.89 45.18
307 2.5790 694.12 652.99 46.12
308 2.5840 708.68 652.16 46.32
309 2.5890 697.35 651.38 46.29
310 2.5940 624.55 650.65 43.67
311 2.5990 654.57 649.98 44.94
312 2.6040 650.72 649.35 44.67
313 2.6090 633.36 648.77 44.20
314 2.6140 620.47 648.23 43.41
315 2.6190 722.66 647.72 46.96
316 2.6240 601.85 647.25 42.93
317 2.6290 527.19 646.81 40.41
318 2.6340 620.65 646.39 43.58
319 2.6390 634.40 646.00 44.15
320 2.6440 560.11 645.63 41.27
321 2.6490 693.81 645.28 46.10
322 2.6540 709.40 644.94 46.62
323 2.6590 686.16 644.62 46.13
324 2.6640 613.25 644.31 43.22
325 2.6690 738.64 644.01 47.78
326 2.6740 602.37 643.72 42.84
327 2.6790 585.15 643.43 42.48
328 2.6840 620.28 643.15 43.44
329 2.6890 653.95 642.87 44.84
330 2.6940 582.58 642.59 42.30
331 2.6990 669.14 642.31 45.61
332 2.7040 648.21 642.03 44.50
333 2.7090 612.87 641.74 43.48
334 2.7140 638.26 641.45 43.82
335 2.7190 577.21 641.15 42.17
336 2.7240 708.09 640.84 46.59
337 2.7290 675.54 640.53 45.67
338 2.7340 669.32 640.20 45.35
339 2.7390 651.03 639.86 44.80
340 2.7440 631.71 639.51 43.78
341 2.7490 696.67 639.15 46.10
342 2.7540 648.84 638.77 44.45
343 2.7590 670.49 638.38 45.58
344 2.7640 663.11 637.97 45.03
345 2.7690 643.58 637.55 44.62
346 2.7740 700.71 637.11 46.23
347 2.7790 717.66 636.66 46.80
348 2.7840 616.33 636.19 43.06
349 2.7890 653.39 635.70 44.88
350 2.7940 649.79 635.19 44.67
351 2.7990 606.56 634.66 43.33
352 2.8040 667.61 634.12 45.03
353 2.8090 656.99 633.55 44.78
354 2.8140 667.28 632.97 44.88
355 2.8190 549.78 632.37 41.12
356 2.8240 623.41 631.75 43.72
357 2.8290 704.80 631.11 46.59
358 2.8340 629.11 630.45 43.79
359 2.8390 592.86 629.77 42.65
360 2.8440 721.31 629.07 46.83
361 2.8490 570.12 628.35 41.70
362 2.8540 693.29 627.61 45.83
363 2.8590 691.04 626.86 46.18
364 2.8640 632.82 626.08 43.94
365 2.8690 672.96 625.28 45.55
366 2.8740 658.27 624.47 44.69
367 2.8790 618.93 623.64 43.42
368 2.8840 588.44 622.79 42.11
369 2.8890 616.69 621.92 43.58
370 2.8940 596.75 621.03 42.72
371 2.8990 644.72 620.13 44.57
372 2.9040 604.25 619.21 42.81
373 2.9090 578.93 618.27 42.04
374 2.9140 619.39 617.32 43.20
375 2.9190 615.93 616.34 43.44
376 2.9240 624.71 615.36 43.67
377 2.9290 580.42 614.35 42.28
378 2.9340 626.92 613.34 43.55
379 2.9390 619.09 612.30 43.57
380 2.9440 689.01 611.26 45.41
381 2.9490 633.50 610.20 43.98
382 2.9540 527.18 609.13 40.09
383 2.9590 573.60 608.04 42.08
384 2.9640 608.89 606.94 43.11
385 2.9690 612.79 605.83 43.19
386 2.9740 590.30 604.71 42.24
387 2.9790 671.72 603.57 45.23
388 2.9840 636.12 603.95 43.86
389 2.9890 643.48 602.85 44.46
390 2.9940 627.05 601.74 43.69
391 2.9990 673.81 600.63 45.42
392 3.0040 534.69 599.51 40.27
393 3.0090 602.22 598.39 42.84
394 3.0140 618.36 597.26 43.06
395 3.0190 602.03 596.13 42.97
396 3.0240 588.91 595.00 42.32
397 3.0290 520.29 593.87 39.97
398 3.0340 578.26 592.73 41.86
399 3.0390 581.96 591.60 42.21
400 3.0440 559.63 590.47 41.06
401 3.0490 571.59 589.34 41.75
402 3.0540 578.41 588.22 41.96
403 3.0590 555.85 587.10 41.30
404 3.0640 548.28 585.98 40.86
405 3.0690 629.17 584.88 43.91
406 3.0740 609.64 583.78 42.93
407 3.0790 634.69 582.70 43.97
408 3.0840 585.57 581.62 42.12
409 3.0890 584.63 580.57 42.35
410 3.0940 560.01 579.53 41.23
411 3.0990 570.60 578.51 41.93
412 3.1040 589.84 577.51 42.29
413 3.1090 520.20 576.53 39.81
414 3.1140 513.93 575.59 39.41
415 3.1190 610.70 574.68 43.21
416 3.1240 597.90 573.81 42.75
417 3.1290 580.95 572.98 42.23
418 3.1340 599.59 572.21 42.64
419 3.1390 597.63 571.49 42.72
420 3.1440 582.03 570.84 41.99
421 3.1490 564.24 570.27 41.58
422 3.1540 624.01 569.79 43.56
423 3.1590 612.43 569.42 43.43
424 3.1640 573.94 569.18 41.73
425 3.1690 525.61 569.09 40.11
426 3.1740 535.67 569.19 40.31
427 3.1790 587.70 569.51 42.38
428 3.1840 565.09 570.11 41.41
429 3.1890 565.02 571.05 41.72
430 3.1940 559.89 572.44 41.31
431 3.1990 621.58 574.38 43.76
432 3.2040 573.42 577.04 41.67
433 3.2090 565.33 580.66 41.60
434 3.2140 530.37 585.58 40.10
435 3.2190 577.83 592.30 42.25
436 3.2240 504.14 601.60 39.12
437 3.2290 549.46 614.89 41.25
438 3.2340 556.03 635.27 40.98
439 3.2390 621.32 670.47 43.72
440 3.2440 733.55 738.71 47.25
441 3.2490 838.97 873.60 50.64
442 3.2540 991.52 1115.77 54.85
443 3.2590 1384.69 1478.05 47.12
444 3.2640 1868.19 1878.18 61.94
445 3.2690 2126.56 2064.63 67.38
446 3.2740 1920.33 1848.84 63.71
447 3.2790 1462.77 1442.87 56.04
448 3.2840 952.52 1086.59 44.94
449 3.2890 889.44 851.64 43.82
450 3.2940 623.92 721.23 36.56
451 3.2990 625.48 654.41 36.70
452 3.3040 566.51 618.72 34.81
453 3.3090 524.95 596.99 33.61
454 3.3140 550.05 581.99 34.18
455 3.3190 585.41 570.85 35.63
456 3.3240 559.23 562.22 34.64
457 3.3290 535.11 555.34 34.07
458 3.3340 545.19 549.74 34.01
459 3.3390 574.21 545.08 35.25
460 3.3440 554.42 541.13 34.38
461 3.3490 533.45 537.73 34.00
462 3.3540 578.92 534.77 35.20
463 3.3590 516.46 532.16 33.51
464 3.3640 512.59 529.82 33.14
465 3.3690 569.72 527.71 35.06
466 3.3740 513.22 525.79 33.03
467 3.3790 513.45 524.03 33.44
468 3.3840 522.08 522.41 33.44
469 3.3890 526.07 520.90 33.87
470 3.3940 594.94 519.49 35.74
471 3.3990 600.67 518.16 35.93
472 3.4040 573.25 516.92 34.67
473 3.4090 499.08 515.73 32.62
474 3.4140 499.17 514.61 32.46
475 3.4190 555.27 513.54 34.54
476 3.4240 483.21 512.52 32.01
477 3.4290 463.08 511.55 31.52
478 3.4340 503.36 510.61 32.45
479 3.4390 481.67 509.71 32.08
480 3.4440 492.42 508.85 32.27
481 3.4490 532.41 508.01 33.71
482 3.4540 514.93 507.21 33.03
483 3.4590 512.77 506.43 33.23
484 3.4640 595.66 505.68 35.37
485 3.4690 525.02 504.95 33.52
486 3.4740 519.53 504.25 33.08
487 3.4790 535.72 503.57 33.82
488 3.4840 521.02 502.91 33.30
489 3.4890 493.96 502.27 32.54
490 3.4940 530.05 501.65 33.49
491 3.4990 525.14 501.04 33.52
492 3.5040 529.17 500.46 33.32
493 3.5090 544.82 499.89 34.19
494 3.5140 542.86 499.34 33.87
495 3.5190 521.00 498.80 33.46
496 3.5240 494.36 498.28 32.35
497 3.5290 501.79 497.77 32.84
498 3.5340 494.36 497.28 32.22
499 3.5390 480.62 496.80 32.01
500 3.5440 495.56 496.33 32.35
501 3.5490 527.33 495.88 33.62
502 3.5540 479.64 495.44 31.87
503 3.5590 479.10 493.53 32.12
504 3.5640 497.89 493.17 32.40
505 3.5690 491.16 492.81 32.39
506 3.5740 470.50 492.46 31.48
507 3.5790 487.82 492.12 32.38
508 3.5840 477.68 491.79 31.78
509 3.5890 443.43 491.47 30.92
510 3.5940 533.44 491.15 33.57
511 3.5990 506.86 490.85 32.88
512 3.6040 528.37 490.55 33.33
513 3.6090 534.73 490.26 33.83
514 3.6140 459.91 489.98 31.22
515 3.6190 522.12 489.70 33.53
516 3.6240 432.39 489.43 30.28
517 3.6290 478.47 489.17 31.97
518 3.6340 524.17 488.92 33.24
519 3.6390 494.80 488.67 32.53
520 3.6440 507.61 488.43 32.70
521 3.6490 486.72 488.20 32.35
522 3.6540 479.90 487.97 31.83
523 3.6590 549.64 487.74 34.38
524 3.6640 500.47 487.53 32.49
525 3.6690 475.87 487.32 31.81
526 3.6740 489.46 487.11 32.11
527 3.6790 501.09 486.91 32.75
528 3.6840 515.04 486.72 33.08
529 3.6890 522.39 486.53 33.57
530 3.6940 504.89 486.34 32.63
531 3.6990 474.07 486.16 31.85
532 3.7040 501.12 485.99 32.49
533 3.7090 507.97 485.81 32.98
534 3.7140 534.46 485.65 33.60
535 3.7190 528.74 485.48 33.77
536 3.7240 509.67 485.32 32.90
537 3.7290 495.94 485.16 32.61
538 3.7340 452.47 485.01 30.89
539 3.7390 501.96 484.86 32.78
540 3.7440 469.93 484.71 31.55
541 3.7490 452.62 484.57 31.23
542 3.7540 444.87 484.43 30.71
543 3.7590 493.96 484.29 32.56
544 3.7640 473.70 484.15 31.62
545 3.7690 482.24 484.02 32.08
546 3.7740 485.26 483.88 32.01
547 3.7790 505.94 483.75 33.02
548 3.7840 519.66 483.62 33.25
549 3.7890 515.08 483.49 33.31
550 3.7940 485.16 483.37 32.10
551 3.7990 513.46 483.24 33.14
552 3.8040 506.47 483.12 32.59
553 3.8090 492.76 482.99 32.54
554 3.8140 499.99 482.87 32.65
555 3.8190 474.89 482.75 32.03
556 3.8240 498.00 482.63 32.50
557 3.8290 437.43 482.50 30.65
558 3.8340 435.35 482.38 30.16
559 3.8390 517.39 482.26 33.35
560 3.8440 469.61 482.14 31.54
561 3.8490 488.88 482.02 32.49
562 3.8540 439.06 481.89 30.58
563 3.8590 437.41 481.77 30.67
564 3.8640 452.98 481.65 30.92
565 3.8690 485.38 481.52 32.08
566 3.8740 478.58 481.40 31.78
567 3.8790 497.86 481.27 32.81
568 3.8840 493.65 481.15 32.38
569 3.8890 456.32 481.02 31.39
570 3.8940 487.55 480.89 32.10
571 3.8990 470.17 480.76 31.65
572 3.9040 493.50 480.62 32.18
573 3.9090 430.76 480.49 30.45
574 3.9140 506.73 480.35 32.84
575 3.9190 494.83 480.21 32.64
576 3.9240 490.77 480.07 32.24
577 3.9290 452.33 479.93 31.08
578 3.9340 493.04 479.78 32.21
579 3.9390 495.57 479.63 32.62
580 3.9440 500.23 479.48 32.58
581 3.9490 506.99 479.33 33.04
582 3.9540 466.18 479.18 31.50
583 3.9590 474.00 479.02 31.93
584 3.9640 493.88 478.86 32.22
585 3.9690 452.44 478.70 31.08
586 3.9740 491.02 478.53 32.19
587 3.9790 478.43 478.36 32.13
588 3.9840 557.99 478.19 34.45
589 3.9890 473.40 478.01 31.94
590 3.9940 438.57 477.83 30.45
591 3.9990 469.29 477.65 31.61
592 4.0040 435.29 477.47 30.31
593 4.0090 457.09 477.28 31.40
594 4.0140 490.79 477.09 32.23
595 4.0190 519.18 476.89 33.48
596 4.0240 491.08 476.69 32.15
597 4.0290 503.45 476.49 32.88
598 4.0340 476.75 476.29 31.65
599 4.0390 468.18 476.08 31.72
600 4.0440 479.86 475.86 31.94
601 4.0490 513.00 475.65 33.13
602 4.0540 503.46 475.43 32.73
603 4.0590 498.76 475.20 32.71
604 4.0640 459.31 474.98 31.11
605 4.0690 480.97 474.75 32.15
606 4.0740 491.93 474.51 32.22
607 4.0790 511.43 474.27 33.16
608 4.0840 495.88 474.03 32.44
609 4.0890 489.36 473.78 32.46
610 4.0940 444.14 473.53 30.67
611 4.0990 455.78 473.28 31.20
612 4.1040 481.94 473.02 31.90
613 4.1090 531.33 472.76 33.76
614 4.1140 516.54 472.49 33.14
615 4.1190 508.54 472.22 33.06
616 4.1240 436.13 471.95 30.40
617 4.1290 502.55 471.67 32.83
618 4.1340 515.37 471.39 32.92
619 4.1390 447.46 471.11 31.00
620 4.1440 469.58 470.82 31.53
621 4.1490 496.72 470.53 32.75
622 4.1540 502.09 470.23 32.63
623 4.1590 433.39 469.93 30.55
624 4.1640 517.39 469.63 33.02
625 4.1690 505.04 469.32 32.88
626 4.1740 442.43 469.01 30.68
627 4.1790 442.12 468.70 30.86
628 4.1840 505.14 468.38 32.77
629 4.1890 500.15 468.06 32.84
630 4.1940 505.98 467.74 32.72
631 4.1990 487.54 467.41 32.35
632 4.2040 490.99 467.08 32.16
633 4.2090 509.61 466.74 33.22
634 4.2140 486.48 466.41 32.15
635 4.2190 505.25 466.07 33.05
636 4.2240 479.81 465.72 31.93
637 4.2290 473.08 465.38 31.83
638 4.2340 492.00 465.02 32.27
639 4.2390 522.40 464.67 33.54
640 4.2440 493.40 464.32 32.42
641 4.2490 453.57 463.96 31.30
642 4.2540 425.93 463.60 30.11
643 4.2590 488.84 463.23 32.51
644 4.2640 450.81 462.86 30.86
645 4.2690 497.49 462.49 32.66
646 4.2740 458.29 462.12 31.20
647 4.2790 449.84 461.75 31.22
648 4.2840 452.48 461.37 31.09
649 4.2890 465.28 460.99 31.64
650 4.2940 471.74 460.61 31.70
651 4.2990 459.43 460.22 31.42
652 4.3040 453.61 459.84 30.98
653 4.3090 474.63 459.45 32.02
654 4.3140 504.79 459.06 32.84
655 4.3190 415.98 458.67 30.02
656 4.3240 444.18 458.27 30.67
657 4.3290 444.52 457.88 31.00
658 4.3340 490.40 457.48 32.18
659 4.3390 492.75 457.08 32.57
660 4.3440 482.20 476.68 32.01
661 4.3490 467.04 477.02 24.27
662 4.3540 444.94 477.41 26.59
663 4.3590 462.41 477.84 27.50
664 4.3640 486.75 478.31 28.00
665 4.3690 499.48 478.84 28.63
666 4.3740 466.72 479.43 27.48
667 4.3790 527.60 480.07 29.56
668 4.3840 478.18 480.79 27.86
669 4.3890 487.12 481.57 28.31
670 4.3940 488.18 482.44 28.14
671 4.3990 436.06 483.39 26.78
672 4.4040 446.96 484.44 26.89
673 4.4090 487.86 485.59 28.43
674 4.4140 478.18 486.85 27.97
675 4.4190 494.72 488.24 28.57
676 4.4240 434.34 489.77 26.53
677 4.4290 420.42 491.46 26.30
678 4.4340 479.11 493.31 27.89
679 4.4390 495.89 495.35 28.60
680 4.4440 494.56 497.61 28.40
681 4.4490 473.38 500.10 27.99
682 4.4540 511.61 502.85 28.82
683 4.4590 502.08 505.90 28.75
684 4.4640 510.06 509.29 28.77
685 4.4690 468.63 513.06 27.85
686 4.4740 513.29 517.26 28.89
687 4.4790 498.45 521.96 28.79
688 4.4840 457.76 527.22 27.35
689 4.4890 471.71 533.14 27.75
690 4.4940 563.43 539.81 30.03
691 4.4990 512.15 547.37 28.92
692 4.5040 494.45 555.97 28.18
693 4.5090 508.87 565.79 28.90
694 4.5140 486.51 577.07 28.05
695 4.5190 507.12 590.08 28.76
696 4.5240 546.65 605.20 29.57
697 4.5290 537.88 622.89 29.69
698 4.5340 533.33 643.73 29.23
699 4.5390 607.17 668.52 31.47
700 4.5440 589.66 698.26 30.85
701 4.5490 603.91 734.34 31.45
702 4.5540 623.58 778.67 31.62
703 4.5590 721.50 833.86 34.33
704 4.5640 722.35 903.71 34.02
705 4.5690 820.60 993.77 36.53
706 4.5740 958.19 1112.54 39.33
707 4.5790 1096.81 1274.36 42.33
708 4.5840 1440.47 1509.24 48.11
709 4.5890 1929.88 1896.73 56.19
710 4.5940 2913.78 2656.32 68.31
711 4.5990 4526.68 4285.38 85.99
712 4.6040 7820.96 7555.65 112.19
713 4.6090 13442.30 13011.50 148.73
714 4.6140 21047.00 19872.90 184.96
715 4.6190 26763.90 24674.90 210.10
716 4.6240 23197.10 22987.70 193.66
717 4.6290 14818.90 16574.90 155.91
718 4.6340 8181.35 10144.50 114.63
719 4.6390 4822.02 5743.45 88.73
720 4.6440 3184.09 3355.01 71.82
721 4.6490 2313.41 2222.56 61.51
722 4.6540 1717.26 1681.17 52.42
723 4.6590 1321.16 1381.38 46.33
724 4.6640 1121.76 1186.15 42.48
725 4.6690 1035.51 1046.50 41.08
726 4.6740 911.70 942.02 38.32
727 4.6790 829.01 861.73 36.88
728 4.6840 809.17 798.74 36.09
729 4.6890 807.45 748.45 36.27
730 4.6940 702.89 707.66 33.55
731 4.6990 646.10 674.14 32.48
732 4.7040 648.66 646.26 32.33
733 4.7090 563.32 622.82 30.40
734 4.7140 607.20 602.93 31.27
735 4.7190 575.89 585.90 30.66
736 4.7240 594.37 571.21 30.86
737 4.7290 554.41 558.45 30.10
738 4.7340 557.95 547.29 29.93
739 4.7390 488.30 537.47 28.28
740 4.7440 484.81 528.79 27.91
741 4.7490 462.63 521.08 27.49
742 4.7540 490.81 514.19 28.09
743 4.7590 469.16 508.02 27.68
744 4.7640 490.65 502.46 28.13
745 4.7690 507.52 497.44 28.74
746 4.7740 494.68 492.89 28.21
747 4.7790 447.43 488.76 27.12
748 4.7840 487.45 484.99 27.93
749 4.7890 457.48 481.54 27.34
750 4.7940 463.10 478.38 27.30
751 4.7990 455.01 475.48 27.25
752 4.8040 474.72 472.80 27.58
753 4.8090 522.72 470.34 29.33
754 4.8140 493.61 468.06 28.18
755 4.8190 468.70 465.95 27.66
756 4.8240 466.57 464.00 27.41
757 4.8290 478.23 462.19 27.94
758 4.8340 488.13 460.50 27.98
759 4.8390 481.40 458.93 28.09
760 4.8440 480.59 457.47 27.84
761 4.8490 483.08 456.11 28.09
762 4.8540 517.16 454.84 28.84
763 4.8590 454.63 453.66 27.29
764 4.8640 474.27 452.55 27.58
765 4.8690 453.56 451.52 27.21
766 4.8740 480.48 450.55 27.85
767 4.8790 493.21 449.65 28.43
768 4.8840 420.62 448.80 26.03
769 4.8890 441.81 448.01 26.83
770 4.8940 460.02 447.28 27.18
771 4.8990 498.05 426.75 28.50
772 4.9040 505.12 426.80 28.58
773 4.9090 448.07 426.85 27.16
774 4.9140 519.29 426.92 28.91
775 4.9190 528.66 426.99 29.38
776 4.9240 505.04 427.07 28.44
777 4.9290 486.27 427.16 28.21
778 4.9340 460.15 427.26 27.15
779 4.9390 446.70 427.37 27.08
780 4.9440 476.42 427.48 27.76
781 4.9490 445.70 427.61 26.99
782 4.9540 471.85 427.74 27.53
783 4.9590 496.87 427.88 28.45
784 4.9640 472.33 428.03 27.51
785 4.9690 515.85 428.18 29.01
786 4.9740 465.27 428.35 27.41
787 4.9790 455.80 428.52 27.35
788 4.9840 425.98 428.70 26.11
789 4.9890 463.23 428.89 27.42
790 4.9940 453.08 429.09 26.97
791 4.9990 492.02 429.30 28.32
792 5.0040 473.36 429.52 27.64
793 5.0090 492.52 429.74 28.43
794 5.0140 487.20 429.97 27.98
795 5.0190 475.41 430.21 27.77
796 5.0240 442.34 430.46 26.66
797 5.0290 462.31 430.72 27.44
798 5.0340 442.32 430.98 26.65
799 5.0390 460.36 431.26 27.46
800 5.0440 442.52 431.54 26.71
801 5.0490 418.21 431.83 26.11
802 5.0540 448.62 432.13 26.78
803 5.0590 469.97 432.44 27.67
804 5.0640 455.71 432.76 27.05
805 5.0690 438.48 433.08 26.76
806 5.0740 463.30 433.41 27.38
807 5.0790 478.30 433.75 27.92
808 5.0840 474.42 434.10 27.55
809 5.0890 485.64 434.46 28.13
810 5.0940 511.13 434.83 28.62
811 5.0990 516.42 435.20 28.97
812 5.1040 441.90 435.58 26.62
813 5.1090 429.92 435.97 26.56
814 5.1140 446.00 436.37 26.74
815 5.1190 456.31 436.78 27.28
816 5.1240 478.44 437.19 27.65
817 5.1290 429.94 437.61 26.45
818 5.1340 493.46 438.04 28.14
819 5.1390 417.39 438.48 26.10
820 5.1440 496.65 438.93 28.27
821 5.1490 485.60 439.38 28.08
822 5.1540 449.18 439.84 26.78
823 5.1590 493.50 440.31 28.40
824 5.1640 492.63 440.79 28.06
825 5.1690 500.25 441.27 28.59
826 5.1740 478.25 441.77 27.79
827 5.1790 489.28 442.27 28.27
828 5.1840 457.46 442.77 27.04
829 5.1890 402.64 443.29 25.58
830 5.1940 433.50 443.81 26.34
831 5.1990 478.87 444.34 27.94
832 5.2040 488.85 444.88 28.04
833 5.2090 460.77 445.42 27.45
834 5.2140 480.43 445.98 27.77
835 5.2190 504.29 446.54 28.60
836 5.2240 497.18 447.10 28.23
837 5.2290 483.94 447.68 28.09
838 5.2340 454.12 448.26 27.00
839 5.2390 465.76 448.85 27.64
840 5.2440 483.68 449.44 27.86
841 5.2490 528.52 450.04 29.41
842 5.2540 479.11 450.65 27.72
843 5.2590 491.19 451.26 28.34
844 5.2640 458.00 451.89 27.08
845 5.2690 485.88 452.51 28.19
846 5.2740 471.26 453.15 27.57
847 5.2790 462.68 453.79 27.47
848 5.2840 489.81 454.44 28.03
849 5.2890 429.65 455.09 26.49
850 5.2940 448.91 455.75 26.82
851 5.2990 493.29 456.42 28.44
852 5.3040 493.05 457.09 28.20
853 5.3090 461.10 457.77 27.49
854 5.3140 469.51 458.46 27.43
855 5.3190 435.38 459.15 26.67
856 5.3240 451.40 459.84 26.96
857 5.3290 488.99 460.55 28.29
858 5.3340 468.58 461.25 27.45
859 5.3390 527.04 461.97 29.38
860 5.3440 451.20 462.69 26.96
861 5.3490 472.26 463.41 27.77
862 5.3540 488.60 464.14 28.01
863 5.3590 442.94 464.88 26.94
864 5.3640 443.31 465.62 26.71
865 5.3690 450.09 466.37 27.15
866 5.3740 450.20 467.12 27.00
867 5.3790 472.33 467.87 27.79
868 5.3840 512.14 468.64 28.72
869 5.3890 499.80 469.40 28.61
870 5.3940 440.18 470.17 26.63
871 5.3990 521.02 470.95 29.20
872 5.4040 493.42 471.73 28.30
873 5.4090 448.06 472.51 27.10
874 5.4140 450.60 473.30 26.93
875 5.4190 511.69 474.10 28.94
876 5.4240 512.04 474.89 28.72
877 5.4290 481.54 475.70 28.05
878 5.4340 526.47 476.50 29.15
879 5.4390 503.85 477.31 28.77
880 5.4440 441.88 478.13 26.67
881 5.4490 508.53 478.95 28.87
882 5.4540 484.95 479.77 27.96
883 5.4590 460.19 480.59 27.43
884 5.4640 478.75 481.42 22.70
885 5.4690 470.94 482.26 24.66
886 5.4740 514.94 483.09 25.93
887 5.4790 463.08 483.93 24.73
888 5.4840 507.80 484.77 25.78
889 5.4890 514.82 485.62 26.04
890 5.4940 467.54 486.47 24.71
891 5.4990 495.77 487.32 25.67
892 5.5040 493.46 488.18 25.44
893 5.5090 471.21 489.04 25.00
894 5.5140 512.23 489.90 25.92
895 5.5190 472.03 490.76 24.98
896 5.5240 449.13 491.63 24.30
897 5.5290 515.04 492.49 26.14
898 5.5340 515.59 493.37 26.04
899 5.5390 497.42 494.24 25.68
900 5.5440 452.31 495.11 24.34
901 5.5490 453.65 495.99 24.53
902 5.5540 481.61 496.87 25.16
903 5.5590 468.64 497.75 24.97
904 5.5640 459.50 498.64 24.60
905 5.5690 525.20 499.52 26.38
906 5.5740 462.40 500.41 24.69
907 5.5790 473.82 501.30 24.98
908 5.5840 540.04 502.19 26.67
909 5.5890 524.85 503.08 26.38
910 5.5940 480.54 503.97 25.16
911 5.5990 484.56 504.87 25.38
912 5.6040 478.72 505.76 25.02
913 5.6090 452.38 506.66 24.36
914 5.6140 525.84 507.56 26.14
915 5.6190 506.62 508.45 25.85
916 5.6240 509.28 509.35 25.75
917 5.6290 483.45 510.25 25.25
918 5.6340 468.31 511.15 24.71
919 5.6390 497.44 512.05 25.50
920 5.6440 493.14 512.96 25.33
921 5.6490 504.24 513.86 25.73
922 5.6540 493.85 514.76 25.34
923 5.6590 515.84 515.66 26.06
924 5.6640 444.20 516.57 24.09
925 5.6690 467.68 517.47 24.78
926 5.6740 498.02 518.37 25.48
927 5.6790 493.51 519.27 25.44
928 5.6840 493.63 520.18 25.31
929 5.6890 525.48 521.08 26.33
930 5.6940 544.76 521.98 26.65
931 5.6990 529.60 522.88 26.38
932 5.7040 478.39 523.78 25.01
933 5.7090 502.46 524.68 25.67
934 5.7140 552.49 525.58 26.83
935 5.7190 500.54 526.48 25.63
936 5.7240 514.50 527.38 25.89
937 5.7290 530.22 528.28 26.38
938 5.7340 543.01 529.17 26.64
939 5.7390 513.07 530.07 25.96
940 5.7440 526.63 530.96 26.18
941 5.7490 545.62 531.85 26.78
942 5.7540 476.80 532.75 24.92
943 5.7590 501.19 533.64 25.62
944 5.7640 515.65 534.52 25.97
945 5.7690 545.80 535.41 26.79
946 5.7740 537.98 536.30 26.51
947 5.7790 495.40 537.18 25.50
948 5.7840 532.33 538.06 26.33
949 5.7890 551.42 538.94 26.92
950 5.7940 490.95 539.82 25.30
951 5.7990 514.17 540.70 26.01
952 5.8040 518.82 541.57 26.04
953 5.8090 532.46 542.45 26.48
954 5.8140 530.31 543.32 26.27
955 5.8190 551.32 544.18 26.91
956 5.8240 527.92 545.05 26.24
957 5.8290 498.96 545.91 25.62
958 5.8340 554.00 546.77 26.88
959 5.8390 500.09 547.63 25.67
960 5.8440 510.30 548.49 25.80
961 5.8490 561.42 549.34 27.17
962 5.8540 564.39 550.19 27.17
963 5.8590 524.91 551.04 26.20
964 5.8640 530.82 551.89 26.30
965 5.8690 550.94 552.73 26.96
966 5.8740 512.69 553.57 25.88
967 5.8790 547.64 554.41 26.85
968 5.8840 515.68 555.24 25.96
969 5.8890 520.49 556.07 26.16
970 5.8940 521.11 556.90 26.06
971 5.8990 507.82 557.72 25.86
972 5.9040 542.15 558.54 26.67
973 5.9090 545.25 559.36 26.81
974 5.9140 557.17 560.17 26.97
975 5.9190 507.97 560.98 25.84
976 5.9240 523.15 561.79 26.12
977 5.9290 512.11 562.60 25.96
978 5.9340 511.88 563.40 25.87
979 5.9390 497.59 564.19 25.63
980 5.9440 543.21 564.99 26.66
981 5.9490 548.41 565.78 26.91
982 5.9540 497.52 566.56 25.50
983 5.9590 550.67 567.34 26.86
984 5.9640 537.09 568.12 26.49
985 5.9690 559.56 568.90 27.18
986 5.9740 546.96 569.67 26.76
987 5.9790 529.32 570.43 26.38
988 5.9840 577.01 571.20 27.44
989 5.9890 523.03 571.96 26.27
990 5.9940 589.39 572.71 27.75
991 5.9990 507.99 573.46 25.91
992 6.0040 557.21 574.21 27.01
993 6.0090 537.88 574.95 26.55
994 6.0140 564.14 575.68 27.13
995 6.0190 544.66 576.42 26.80
996 6.0240 539.18 577.15 26.56
997 6.0290 541.46 577.87 26.74
998 6.0340 557.20 578.59 27.04
999 6.0390 553.70 579.31 26.99
1000 6.0440 574.17 580.02 27.33
1001 6.0490 568.00 580.73 27.34
1002 6.0540 560.20 581.43 27.11
1003 6.0590 572.55 582.13 27.41
1004 6.0640 599.48 582.82 28.04
1005 6.0690 552.20 583.51 27.00
1006 6.0740 519.10 584.20 26.01
1007 6.0790 564.43 584.88 27.18
1008 6.0840 545.45 585.55 26.69
1009 6.0890 590.01 586.22 27.87
1010 6.0940 564.51 586.89 27.15
1011 6.0990 536.39 587.55 26.59
1012 6.1040 540.57 588.21 26.56
1013 6.1090 535.38 588.86 26.50
1014 6.1140 584.55 589.51 27.63
1015 6.1190 550.10 590.15 26.90
1016 6.1240 557.17 590.79 26.94
1017 6.1290 559.31 591.42 27.13
1018 6.1340 574.68 592.05 27.41
1019 6.1390 569.11 592.68 27.40
1020 6.1440 582.35 593.30 27.56
1021 6.1490 584.15 593.91 27.69
1022 6.1540 578.34 594.52 27.47
1023 6.1590 552.97 595.12 26.98
1024 6.1640 578.75 595.72 27.51
1025 6.1690 545.19 596.32 26.79
1026 6.1740 574.30 597.41 27.34
1027 6.1790 608.50 598.01 28.26
1028 6.1840 575.27 598.61 27.42
1029 6.1890 576.98 599.20 27.56
1030 6.1940 541.62 599.79 26.59
1031 6.1990 570.20 600.37 27.38
1032 6.2040 570.10 600.95 27.29
1033 6.2090 622.37 601.52 28.58
1034 6.2140 566.17 602.09 27.21
1035 6.2190 582.61 602.66 27.66
1036 6.2240 573.45 603.22 27.39
1037 6.2290 532.22 603.78 26.43
1038 6.2340 590.52 604.34 27.81
1039 6.2390 574.66 604.89 27.45
1040 6.2440 569.56 605.44 27.21
1041 6.2490 615.11 605.99 28.47
1042 6.2540 615.68 606.53 28.38
1043 6.2590 540.79 607.07 26.66
1044 6.2640 589.04 607.60 27.71
1045 6.2690 579.23 608.14 27.64
1046 6.2740 587.61 608.67 27.69
1047 6.2790 608.27 609.19 28.25
1048 6.2840 639.97 609.72 28.91
1049 6.2890 577.83 610.24 27.61
1050 6.2940 586.02 610.76 27.64
1051 6.2990 601.77 611.28 28.16
1052 6.3040 607.17 611.80 28.18
1053 6.3090 579.97 612.32 27.54
1054 6.3140 602.44 612.83 28.11
1055 6.3190 575.75 613.35 27.53
1056 6.3240 610.31 613.86 28.18
1057 6.3290 598.45 614.38 28.07
1058 6.3340 617.86 614.90 28.47
1059 6.3390 636.44 615.42 28.93
1060 6.3440 614.17 615.94 28.30
1061 6.3490 594.03 616.46 28.00
1062 6.3540 626.59 616.99 28.67
1063 6.3590 566.27 617.53 27.26
1064 6.3640 620.34 618.07 28.53
1065 6.3690 609.80 618.61 28.35
1066 6.3740 627.98 619.17 28.62
1067 6.3790 688.68 619.73 30.15
1068 6.3840 699.18 620.31 30.28
1069 6.3890 715.64 620.91 30.72
1070 6.3940 756.73 621.52 31.44
1071 6.3990 760.02 622.16 31.66
1072 6.4040 781.48 622.81 32.01
1073 6.4090 758.79 623.50 31.55
1074 6.4140 717.46 624.23 30.70
1075 6.4190 683.89 625.00 30.09
1076 6.4240 714.19 625.82 30.53
1077 6.4290 686.15 626.70 30.06
1078 6.4340 583.74 627.65 27.67
1079 6.4390 646.11 628.70 29.21
1080 6.4440 659.63 629.86 29.35
1081 6.4490 666.93 631.16 29.71
1082 6.4540 673.14 632.64 29.68
1083 6.4590 629.82 634.35 28.77
1084 6.4640 614.88 636.34 28.43
1085 6.4690 636.08 638.70 28.97
1086 6.4740 647.32 641.56 29.07
1087 6.4790 621.51 645.11 28.65
1088 6.4840 661.84 649.66 29.47
1089 6.4890 656.99 655.80 29.43
1090 6.4940 665.16 664.73 29.51
1091 6.4990 657.90 678.91 29.49
1092 6.5040 739.63 702.64 31.18
1093 6.5090 799.51 742.18 32.47
1094 6.5140 850.90 804.01 33.37
1095 6.5190 897.63 890.83 34.45
1096 6.5240 950.41 994.38 35.26
1097 6.5290 1093.17 1083.72 37.87
1098 6.5340 1121.79 1106.58 38.44
1099 6.5390 985.52 1045.18 36.08
1100 6.5440 970.08 943.66 35.56
1101 6.5490 892.36 846.83 34.32
1102 6.5540 825.74 772.80 32.89
1103 6.5590 733.96 723.27 31.05
1104 6.5640 698.12 692.97 30.22
1105 6.5690 687.49 675.20 22.83
1106 6.5740 626.36 664.58 24.76
1107 6.5790 630.36 657.81 25.07
1108 6.5840 623.31 653.13 24.87
1109 6.5890 643.97 649.69 25.41
1110 6.5940 667.04 647.08 25.75
1111 6.5990 651.37 645.05 25.65
1112 6.6040 614.96 643.46 24.77
1113 6.6090 617.26 642.20 24.88
1114 6.6140 642.59 641.19 25.33
1115 6.6190 660.97 640.38 25.80
1116 6.6240 634.73 639.73 25.15
1117 6.6290 641.39 639.21 25.40
1118 6.6340 658.25 638.79 25.69
1119 6.6390 630.70 638.46 25.24
1120 6.6440 697.03 638.20 26.37
1121 6.6490 645.06 637.99 25.45
1122 6.6540 657.52 637.84 25.64
1123 6.6590 680.30 637.73 26.15
1124 6.6640 640.21 637.65 25.33
1125 6.6690 661.09 637.60 25.80
1126 6.6740 694.00 637.58 26.35
1127 6.6790 630.41 637.58 25.19
1128 6.6840 684.16 637.60 26.15
1129 6.6890 661.29 637.64 25.84
1130 6.6940 652.93 637.69 25.52
1131 6.6990 708.13 637.76 26.72
1132 6.7040 692.42 637.83 26.34
1133 6.7090 684.74 637.92 26.13
1134 6.7140 730.63 638.01 26.87
1135 6.7190 749.92 638.12 27.34
1136 6.7240 768.12 638.23 27.52
1137 6.7290 776.61 638.34 27.78
1138 6.7340 841.46 638.47 28.90
1139 6.7390 843.50 638.59 29.01
1140 6.7440 811.60 638.72 28.24
1141 6.7490 727.91 638.86 26.98
1142 6.7540 680.58 639.00 25.91
1143 6.7590 679.60 639.14 25.97
1144 6.7640 678.59 639.29 25.91
1145 6.7690 643.17 639.43 25.32
1146 6.7740 632.00 639.59 24.95
1147 6.7790 674.69 639.74 25.96
1148 6.7840 668.45 639.90 25.70
1149 6.7890 662.79 640.05 25.68
1150 6.7940 660.35 640.22 25.55
1151 6.7990 711.12 640.38 26.62
1152 6.8040 696.55 640.54 26.23
1153 6.8090 694.64 640.71 26.32
1154 6.8140 665.70 640.88 25.61
1155 6.8190 672.82 641.05 25.90
1156 6.8240 716.69 641.22 26.63
1157 6.8290 675.61 641.39 25.94
1158 6.8340 721.47 641.57 26.72
1159 6.8390 691.77 641.74 26.23
1160 6.8440 660.75 641.92 25.49
1161 6.8490 672.57 642.10 25.88
1162 6.8540 678.74 642.28 25.94
1163 6.8590 685.44 642.46 26.11
1164 6.8640 672.02 642.65 25.79
1165 6.8690 700.80 642.83 26.43
1166 6.8740 676.67 643.02 25.79
1167 6.8790 653.21 643.21 25.50
1168 6.8840 691.85 643.40 26.19
1169 6.8890 655.42 643.59 25.58
1170 6.8940 674.63 643.28 25.84
1171 6.8990 692.69 643.48 26.27
1172 6.9040 707.46 643.69 26.41
1173 6.9090 702.06 643.90 26.41
1174 6.9140 682.42 644.11 26.02
1175 6.9190 677.22 644.33 26.00
1176 6.9240 629.26 644.54 24.94
1177 6.9290 699.38 644.76 26.45
1178 6.9340 649.77 644.98 25.34
1179 6.9390 700.04 645.19 26.39
1180 6.9440 711.73 645.41 26.49
1181 6.9490 670.04 645.64 25.86
1182 6.9540 665.69 645.86 25.68
1183 6.9590 668.86 646.09 25.84
1184 6.9640 700.20 646.31 26.30
1185 6.9690 740.52 646.54 27.17
1186 6.9740 685.90 646.77 26.02
1187 6.9790 655.93 647.01 25.56
1188 6.9840 705.82 647.24 26.42
1189 6.9890 673.96 647.48 25.96
1190 6.9940 702.74 647.72 26.37
1191 6.9990 677.74 647.96 26.05
1192 7.0040 692.49 681.08 26.14
1193 7.0090 730.13 682.46 26.94
1194 7.0140 714.52 683.89 26.59
1195 7.0190 672.69 685.39 25.95
1196 7.0240 682.86 686.95 26.02
1197 7.0290 669.15 688.60 25.86
1198 7.0340 679.21 690.32 25.92
1199 7.0390 690.66 692.13 26.22
1200 7.0440 694.03 694.03 26.20
1201 7.0490 727.07 696.03 26.94
1202 7.0540 746.55 698.14 27.23
1203 7.0590 712.85 700.36 26.70
1204 7.0640 679.45 702.71 25.94
1205 7.0690 724.70 705.20 26.86
1206 7.0740 704.92 707.84 26.39
1207 7.0790 708.59 710.63 26.61
1208 7.0840 758.04 713.60 27.41
1209 7.0890 697.13 716.77 26.42
1210 7.0940 730.96 720.14 26.90
1211 7.0990 741.97 723.74 27.20
1212 7.1040 694.27 727.60 26.22
1213 7.1090 693.01 731.73 26.26
1214 7.1140 705.93 736.18 26.44
1215 7.1190 739.87 740.96 27.24
1216 7.1240 711.49 746.13 26.54
1217 7.1290 746.57 751.72 27.29
1218 7.1340 705.19 757.77 26.40
1219 7.1390 740.34 764.36 27.17
1220 7.1440 719.96 771.54 26.68
1221 7.1490 747.32 779.40 27.36
1222 7.1540 731.20 788.01 26.90
1223 7.1590 760.10 797.49 27.55
1224 7.1640 770.84 807.96 27.60
1225 7.1690 746.93 819.57 27.30
1226 7.1740 795.85 832.48 28.04
1227 7.1790 804.40 846.92 28.32
1228 7.1840 792.45 863.12 28.01
1229 7.1880 794.55 881.41 28.18
1230 7.1940 796.56 902.15 28.06
1231 7.1990 811.40 925.81 28.41
1232 7.2040 820.75 952.97 28.45
1233 7.2090 910.86 984.36 30.11
1234 7.2140 831.15 1020.91 28.70
1235 7.2190 850.54 1063.83 29.15
1236 7.2240 891.97 1114.66 29.70
1237 7.2290 978.30 1175.49 31.24
1238 7.2340 1049.42 1249.09 32.18
1239 7.2390 1200.89 1339.28 34.57
1240 7.2440 1266.13 1451.39 35.41
1241 7.2490 1412.60 1593.31 37.55
1242 7.2540 1608.38 1777.32 39.95
1243 7.2590 2086.50 2025.59 45.59
1244 7.2640 2568.99 2384.14 50.34
1245 7.2690 3572.36 2959.26 59.71
1246 7.2730 5082.97 3991.64 70.84
1247 7.2790 7498.39 5953.81 86.64
1248 7.2840 10951.90 9550.29 104.40
1249 7.2880 15611.60 15405.00 125.15
1250 7.2940 22022.40 23322.20 148.28
1251 7.2990 28733.10 31264.80 170.24
1252 7.3040 32349.50 34860.40 180.16
1253 7.3090 29829.60 31143.00 173.25
1254 7.3140 22535.50 23169.90 150.11
1255 7.3190 15360.60 15281.90 124.28
1256 7.3240 10144.50 9472.42 100.28
1257 7.3290 6532.74 5913.72 80.70
1258 7.3340 4507.52 3975.22 66.71
1259 7.3390 3406.28 2955.35 58.33
1260 7.3440 2761.64 2386.42 52.17
1261 7.3480 2271.56 2031.36 47.67
1262 7.3540 1823.59 1785.28 42.49
1263 7.3590 1679.29 1602.93 40.89
1264 7.3640 1488.51 1462.41 38.38
1265 7.3690 1375.88 1351.52 36.96
1266 7.3730 1297.86 1262.47 35.82
1267 7.3790 1233.47 1189.92 35.12
1268 7.3840 1065.83 1130.11 32.51
1269 7.3890 1079.70 1080.25 32.84
1270 7.3940 1033.39 1038.29 31.96
1271 7.3990 979.19 1002.68 31.23
1272 7.4040 902.51 972.22 29.88
1273 7.4090 889.60 945.98 29.80
1274 7.4140 940.99 923.23 30.52
1275 7.4190 842.64 903.40 29.02
1276 7.4240 854.08 886.02 29.09
1277 7.4290 845.83 870.72 29.04
1278 7.4340 823.40 857.19 28.59
1279 7.4390 857.80 845.18 29.23
1280 7.4440 834.20 834.48 28.74
1281 7.4490 845.36 824.92 29.05
1282 7.4540 793.12 816.35 28.06
1283 7.4580 772.44 808.64 27.80
1284 7.4640 734.69 801.70 26.95
1285 7.4690 736.38 795.43 27.15
1286 7.4730 768.40 789.75 27.60
1287 7.4790 748.89 784.61 27.36
1288 7.4840 751.99 779.94 27.33
1289 7.4890 786.59 775.69 28.03
1290 7.4940 743.75 771.83 27.18
1291 7.4990 780.51 768.31 27.93
1292 7.5040 763.08 765.09 27.51
1293 7.5090 769.49 762.16 27.75
1294 7.5140 729.15 759.49 26.88
1295 7.5190 702.81 757.04 26.55
1296 7.5240 729.59 754.81 26.93
1297 7.5290 750.32 752.77 27.39
1298 7.5340 776.63 750.91 27.71
1299 7.5390 754.09 749.22 27.48
1300 7.5430 750.59 747.67 27.30
1301 7.5490 715.18 762.82 26.79
1302 7.5540 732.10 762.13 26.98
1303 7.5580 724.77 761.59 26.94
1304 7.5640 690.13 761.20 26.09
1305 7.5690 702.09 760.95 26.52
1306 7.5740 772.84 760.83 27.70
1307 7.5790 742.92 760.84 27.28
1308 7.5840 758.05 760.98 27.51
1309 7.5890 733.16 761.24 27.09
1310 7.5940 785.12 761.64 27.94
1311 7.5990 733.69 762.16 27.04
1312 7.6040 705.63 762.81 26.46
1313 7.6090 741.44 746.25 27.30
1314 7.6140 753.21 747.71 27.39
1315 7.6190 751.01 749.28 27.43
1316 7.6240 715.03 750.97 26.68
1317 7.6290 724.32 752.78 26.91
1318 7.6340 787.59 754.72 27.88
1319 7.6390 731.68 756.81 27.11
1320 7.6430 721.77 759.05 26.79
1321 7.6490 743.95 761.46 27.29
1322 7.6540 728.74 764.06 26.88
1323 7.6590 752.35 766.85 27.48
1324 7.6640 749.94 769.86 27.26
1325 7.6690 740.74 762.64 27.19
1326 7.6740 738.59 766.45 27.09
1327 7.6790 793.08 770.56 28.20
1328 7.6840 718.86 775.00 26.76
1329 7.6890 716.64 779.81 26.86
1330 7.6940 764.64 785.05 27.49
1331 7.6990 747.32 790.79 27.30
1332 7.7040 767.13 797.09 27.58
1333 7.7090 738.93 804.04 27.24
1334 7.7140 737.81 811.75 27.10
1335 7.7190 724.11 820.34 26.99
1336 7.7240 764.10 829.98 27.54
1337 7.7280 727.38 840.86 26.95
1338 7.7340 789.62 853.21 27.97
1339 7.7390 768.40 867.34 27.76
1340 7.7430 743.96 883.63 27.21
1341 7.7490 753.58 902.57 27.52
1342 7.7530 803.79 924.80 28.26
1343 7.7590 833.72 951.15 28.92
1344 7.7640 855.11 982.73 29.10
1345 7.7690 879.28 1021.08 29.64
1346 7.7740 973.21 1068.30 31.15
1347 7.7790 1034.79 1127.36 32.26
1348 7.7840 1162.10 1202.65 33.99
1349 7.7890 1334.20 1300.82 36.58
1350 7.7940 1590.95 1433.79 39.79
1351 7.7990 2035.17 1629.82 45.07
1352 7.8040 2572.27 1973.36 50.52
1353 7.8090 3550.87 2711.93 59.78
1354 7.8140 5074.12 4423.60 71.04
1355 7.8190 7822.82 8032.01 88.69
1356 7.8240 12060.00 14252.70 109.92
1357 7.8280 19284.80 22396.90 139.51
1358 7.8340 27964.40 29259.50 167.64
1359 7.8390 30794.00 29974.90 177.14
1360 7.8440 23339.40 23901.00 152.93
1361 7.8490 14142.40 15670.90 119.30
1362 7.8540 8753.86 8983.24 93.57
1363 7.8590 5727.60 4925.55 75.79
1364 7.8640 4062.79 2941.93 63.44
1365 7.8690 3065.48 2081.45 55.45
1366 7.8740 2364.75 1692.83 48.51
1367 7.8790 1980.05 1480.58 44.58
1368 7.8840 1700.80 1340.65 41.17
1369 7.8890 1551.65 1238.91 39.41
1370 7.8940 1415.41 1161.74 37.47
1371 7.8990 1317.13 1101.77 36.27
1372 7.9040 1224.87 1054.36 34.93
1373 7.9090 1239.36 1016.29 35.29
1374 7.9130 1269.76 985.34 35.53
1375 7.9190 1246.12 959.86 35.33
1376 7.9240 1291.28 938.69 35.82
1377 7.9290 1240.50 920.95 35.26
1378 7.9340 1146.62 905.96 33.69
1379 7.9380 1072.81 893.22 32.83
1380 7.9440 995.87 882.32 31.49
1381 7.9490 900.94 872.95 30.03
1382 7.9540 833.58 864.85 28.80
1383 7.9590 853.83 857.84 29.23
1384 7.9640 816.34 851.73 28.41
1385 7.9690 838.31 846.41 28.96
1386 7.9740 788.85 841.75 28.06
1387 7.9790 839.18 837.67 29.00
1388 7.9840 798.60 834.10 28.17
1389 7.9890 820.35 830.96 28.68
1390 7.9940 825.43 828.21 28.64
1391 7.9990 805.37 825.79 28.34
1392 8.0040 787.20 823.67 27.96
1393 8.0090 730.13 821.82 27.11
1394 8.0140 811.73 820.20 28.39
1395 8.0190 811.38 818.79 28.52
1396 8.0240 739.95 817.57 27.12
1397 8.0280 785.98 816.52 28.05
1398 8.0340 776.23 815.63 27.76
1399 8.0380 785.09 814.86 28.06
1400 8.0440 800.28 814.23 28.22
1401 8.0490 767.09 813.71 27.73
1402 8.0540 811.19 813.28 28.39
1403 8.0590 781.83 812.96 28.00
1404 8.0640 777.02 812.72 27.74
1405 8.0680 746.43 812.55 27.33
1406 8.0740 758.65 812.46 27.53
1407 8.0780 809.86 812.43 28.45
1408 8.0840 758.39 812.47 27.50
1409 8.0890 719.55 812.56 26.86
1410 8.0940 747.72 812.70 27.26
1411 8.0990 745.76 812.89 27.28
1412 8.1040 766.40 813.12 27.62
1413 8.1090 751.99 813.40 27.48
1414 8.1130 743.46 813.71 27.17
1415 8.1190 834.82 814.05 28.99
1416 8.1230 785.31 814.43 27.97
1417 8.1290 798.57 798.47 28.25
1418 8.1340 742.12 799.45 27.11
1419 8.1390 816.24 800.43 28.64
1420 8.1440 747.04 801.41 27.28
1421 8.1490 766.41 802.39 27.76
1422 8.1530 776.12 803.36 27.77
1423 8.1590 827.78 804.34 28.79
1424 8.1630 798.01 805.32 28.10
1425 8.1690 778.32 806.30 27.98
1426 8.1740 784.07 807.27 27.98
1427 8.1790 798.36 808.24 28.27
1428 8.1840 807.55 809.22 28.35
1429 8.1890 821.86 810.19 28.69
1430 8.1940 782.65 811.16 27.94
1431 8.1980 744.42 812.13 27.30
1432 8.2040 759.82 813.10 27.52
1433 8.2080 760.10 814.07 27.65
1434 8.2140 792.54 815.03 28.08
1435 8.2190 791.94 816.00 28.19
1436 8.2240 783.68 816.96 27.92
1437 8.2290 830.76 817.92 28.82
1438 8.2340 780.51 818.88 27.87
1439 8.2380 791.84 819.84 28.24
1440 8.2440 740.40 820.79 27.12
1441 8.2480 764.55 821.75 27.71
1442 8.2540 785.06 822.70 27.97
1443 8.2590 765.26 823.65 27.70
1444 8.2640 821.00 824.60 28.50
1445 8.2690 789.22 825.54 28.15
1446 8.2740 800.28 826.49 28.25
1447 8.2790 833.96 827.43 28.91
1448 8.2830 761.80 828.37 27.56
1449 8.2890 841.94 829.30 29.07
1450 8.2930 813.19 830.24 28.41
1451 8.2990 825.76 831.17 28.69
1452 8.3040 795.39 832.10 28.15
1453 8.3090 796.79 833.03 28.27
1454 8.3140 792.14 833.95 28.07
1455 8.3190 812.79 834.87 28.60
1456 8.3230 787.97 835.79 27.95
1457 8.3290 825.18 836.71 28.69
1458 8.3330 771.07 837.62 27.67
1459 8.3390 766.58 838.53 27.74
1460 8.3440 796.33 839.44 28.18
1461 8.3490 784.60 840.34 28.08
1462 8.3540 781.99 841.24 27.88
1463 8.3590 840.05 842.14 28.99
1464 8.3640 845.17 843.03 28.94
1465 8.3690 803.42 843.92 28.38
1466 8.3740 768.70 844.81 27.64
1467 8.3780 799.29 845.70 28.29
1468 8.3840 808.81 846.58 28.42
1469 8.3890 783.69 847.45 28.03
1470 8.3940 796.38 848.33 28.06
1471 8.3990 817.23 849.20 28.55
1472 8.4040 830.72 850.06 28.75
1473 8.4080 785.24 850.92 28.05
1474 8.4140 776.81 851.78 27.80
1475 8.4180 785.34 852.64 28.05
1476 8.4240 801.56 853.49 28.17
1477 8.4290 810.79 854.33 28.51
1478 8.4340 840.66 855.17 28.85
1479 8.4390 853.45 856.01 29.27
1480 8.4440 855.63 856.84 29.14
1481 8.4480 829.62 857.67 28.81
1482 8.4540 793.32 858.50 28.08
1483 8.4580 851.14 859.32 29.12
1484 8.4640 819.68 860.14 28.45
1485 8.4690 834.26 860.95 28.93
1486 8.4740 813.09 861.75 28.46
1487 8.4790 797.35 862.55 28.31
1488 8.4830 812.90 863.35 28.41
1489 8.4890 874.32 864.15 29.53
1490 8.4930 861.14 864.93 29.20
1491 8.4990 811.16 865.72 28.48
1492 8.5030 864.57 866.49 29.31
1493 8.5090 843.40 867.27 29.12
1494 8.5140 812.42 868.03 28.39
1495 8.5190 823.54 868.80 28.74
1496 8.5240 829.81 869.55 28.68
1497 8.5290 823.46 870.31 28.60
1498 8.5330 842.45 871.05 28.96
1499 8.5390 865.64 871.80 29.46
1500 8.5430 840.91 872.53 28.92
1501 8.5490 889.83 873.26 29.90
1502 8.5540 889.93 873.99 29.73
1503 8.5590 819.22 874.71 28.61
1504 8.5640 861.70 875.42 29.19
1505 8.5680 876.25 876.13 29.68
1506 8.5740 879.99 876.84 29.55
1507 8.5780 836.79 877.53 28.99
1508 8.5840 894.34 878.22 29.85
1509 8.5890 829.32 878.91 28.80
1510 8.5940 827.98 879.59 28.66
1511 8.5990 855.38 880.26 29.27
1512 8.6040 862.25 880.93 29.33
1513 8.6080 814.83 881.59 28.56
1514 8.6140 845.53 882.25 29.00
1515 8.6180 888.56 882.90 29.93
1516 8.6240 894.61 883.54 29.73
1517 8.6280 883.56 884.18 29.74
1518 8.6340 870.49 884.81 29.42
1519 8.6390 827.90 885.44 28.81
1520 8.6440 838.00 886.06 28.87
1521 8.6490 861.44 886.67 29.40
1522 8.6530 901.66 887.27 29.96
1523 8.6590 932.99 887.87 30.50
1524 8.6630 887.59 888.47 29.69
1525 8.6690 901.10 889.05 30.09
1526 8.6740 915.20 889.63 30.13
1527 8.6790 950.13 890.20 30.93
1528 8.6840 954.53 890.77 30.83
1529 8.6890 1042.57 891.33 32.33
1530 8.6930 1075.56 891.88 32.64
1531 8.6990 1162.87 892.43 34.13
1532 8.7030 1263.03 892.97 35.45
1533 8.7090 1393.31 893.50 37.36
1534 8.7140 1354.98 894.02 36.80
1535 8.7190 1229.05 894.54 35.06
1536 8.7240 1154.29 895.05 33.81
1537 8.7290 1064.10 895.55 32.62
1538 8.7340 1004.21 896.05 31.58
1539 8.7390 979.87 896.54 31.35
1540 8.7440 973.03 897.02 31.11
1541 8.7480 954.83 897.50 30.93
1542 8.7540 947.74 897.97 30.70
1543 8.7590 904.89 898.43 30.04
1544 8.7640 893.42 898.88 29.76
1545 8.7690 957.73 899.33 30.97
1546 8.7740 876.13 899.76 29.51
1547 8.7780 941.13 900.19 30.74
1548 8.7840 925.15 903.23 30.33
1549 8.7880 929.83 903.73 30.49
1550 8.7940 978.46 904.23 31.12
1551 8.7990 948.70 904.72 30.82
1552 8.8040 868.20 905.21 29.35
1553 8.8090 898.02 905.70 30.06
1554 8.8140 901.63 906.19 29.96
1555 8.8180 896.33 906.68 30.00
1556 8.8240 901.18 907.16 29.84
1557 8.8280 893.99 907.65 29.90
1558 8.8340 933.77 908.13 30.48
1559 8.8390 907.82 908.61 30.16
1560 8.8440 949.98 909.09 30.76
1561 8.8490 937.33 909.58 30.63
1562 8.8540 946.86 922.48 30.67
1563 8.8590 898.64 923.30 29.99
1564 8.8630 957.62 924.13 30.82
1565 8.8690 942.27 924.99 30.73
1566 8.8730 915.22 925.86 30.14
1567 8.8790 943.80 926.76 30.84
1568 8.8840 924.89 927.68 30.36
1569 8.8890 914.74 928.64 30.18
1570 8.8940 942.17 929.62 30.59
1571 8.8990 932.28 930.63 30.52
1572 8.9030 942.94 931.68 30.62
1573 8.9090 920.01 932.77 30.37
1574 8.9130 956.58 933.91 30.89
1575 8.9190 954.30 935.09 30.94
1576 8.9240 920.29 936.34 30.21
1577 8.9290 969.35 937.64 31.13
1578 8.9340 973.75 939.01 31.05
1579 8.9390 925.03 940.45 30.44
1580 8.9440 934.79 941.98 30.54
1581 8.9480 966.10 943.61 31.09
1582 8.9540 966.02 945.34 30.96
1583 8.9580 1018.74 947.19 31.91
1584 8.9640 1015.98 949.18 31.78
1585 8.9690 955.33 951.33 30.92
1586 8.9740 1005.82 953.65 31.59
1587 8.9790 1009.84 956.17 31.82
1588 8.9840 1002.39 958.94 31.56
1589 8.9880 961.01 961.97 31.01
1590 8.9940 987.56 965.33 31.28
1591 8.9980 994.15 969.07 31.59
1592 9.0040 933.27 973.26 30.40
1593 9.0090 1005.98 978.00 31.78
1594 9.0140 995.58 983.40 31.47
1595 9.0190 1001.30 989.60 31.61
1596 9.0240 979.98 996.82 31.19
1597 9.0290 1059.66 1005.31 32.58
1598 9.0330 976.91 1015.43 31.15
1599 9.0390 1023.10 1027.70 31.99
1600 9.0430 1055.27 1042.85 32.44
1601 9.0490 1136.58 1062.04 33.74
1602 9.0540 1126.94 1087.50 33.41
1603 9.0590 1242.45 1124.73 35.28
1604 9.0640 1376.71 1188.52 36.97
1605 9.0690 1532.07 1315.65 39.06
1606 9.0730 1761.48 1579.16 41.90
1607 9.0790 2261.62 2081.76 47.63
1608 9.0830 3008.18 2895.75 54.81
1609 9.0890 3882.50 3952.90 62.28
1610 9.0940 4789.39 4935.14 69.03
1611 9.0990 5367.85 5294.78 73.39
1612 9.1040 4835.46 4756.56 69.24
1613 9.1090 3538.97 3726.64 59.63
1614 9.1140 2531.02 2721.25 50.23
1615 9.1180 2044.87 1993.87 45.31
1616 9.1240 1644.50 1569.99 40.36
1617 9.1280 1469.99 1362.09 38.37
1618 9.1340 1338.11 1271.61 36.48
1619 9.1390 1276.08 1234.97 35.73
1620 9.1440 1219.21 1222.31 34.85
1621 9.1490 1237.09 1222.38 35.29
1622 9.1540 1184.49 1231.48 34.26
1623 9.1580 1241.76 1248.61 35.23
1624 9.1640 1203.78 1273.88 34.59
1625 9.1680 1240.30 1308.15 35.26
1626 9.1740 1313.38 1353.02 36.16
1627 9.1790 1380.73 1411.07 37.33
1628 9.1840 1413.65 1486.56 37.40
1629 9.1890 1471.02 1586.98 38.34
1630 9.1940 1743.65 1727.23 41.65
1631 9.1980 1893.08 1937.80 43.62
1632 9.2040 2213.33 2278.39 46.95
1633 9.2090 2812.16 2851.80 53.09
1634 9.2140 3729.31 3804.79 60.94
1635 9.2190 5196.84 5292.69 72.22
1636 9.2240 7461.58 7399.10 86.28
1637 9.2290 10428.80 10010.20 102.46
1638 9.2330 13855.70 12630.20 117.59
1639 9.2390 15748.60 14242.00 126.17
1640 9.2430 15001.70 13865.00 122.72
1641 9.2490 11801.00 11755.60 109.09
1642 9.2530 8337.71 9047.64 91.18
1643 9.2590 5842.31 6580.25 76.52
1644 9.2640 4423.98 4689.73 66.44
1645 9.2690 3272.97 3402.89 57.26
1646 9.2740 2656.40 2599.25 51.38
1647 9.2790 2159.80 2119.29 46.62
1648 9.2830 1917.94 1830.17 43.63
1649 9.2890 1726.59 1645.30 41.58
1650 9.2930 1579.90 1517.06 39.64
1651 9.2990 1453.82 1421.60 38.24
1652 9.3040 1443.56 1347.18 37.87
1653 9.3090 1286.70 1287.53 35.95
1654 9.3140 1254.45 1238.85 35.33
1655 9.3180 1276.15 1198.57 35.75
1656 9.3240 1264.89 1164.85 35.49
1657 9.3280 1152.62 1136.34 34.02
1658 9.3340 1120.02 1112.00 33.38
1659 9.3390 1097.07 1091.06 33.20
1660 9.3440 1109.28 1072.88 33.23
1661 9.3490 1105.86 1057.01 33.32
1662 9.3540 1135.36 1043.04 33.56
1663 9.3580 1115.53 1030.68 33.44
1664 9.3640 1090.45 1051.98 32.96
1665 9.3680 1088.02 1042.89 33.09
1666 9.3740 1056.37 1034.81 32.44
1667 9.3780 1072.11 1027.62 32.77
1668 9.3840 1069.48 1021.19 32.56
1669 9.3890 1036.11 1015.43 32.17
1670 9.3940 1077.19 1010.27 32.80
1671 9.3990 1050.32 1005.63 32.46
1672 9.4030 1043.57 1001.46 32.24
1673 9.4090 1040.58 997.70 32.33
1674 9.4130 1073.56 994.32 32.66
1675 9.4190 1078.77 988.84 32.86
1676 9.4240 1068.78 986.19 32.58
1677 9.4290 1042.14 983.82 32.36
1678 9.4340 1018.12 981.72 31.86
1679 9.4390 1036.67 979.85 32.28
1680 9.4430 1042.42 978.21 32.22
1681 9.4490 1034.41 976.78 32.16
1682 9.4530 1081.30 975.55 32.81
1683 9.4590 1058.88 974.52 32.61
1684 9.4640 1038.52 973.57 32.13
1685 9.4690 1013.34 972.89 31.90
1686 9.4740 999.50 972.38 31.58
1687 9.4790 1066.09 972.04 32.71
1688 9.4840 1026.46 971.87 31.95
1689 9.4880 1064.31 971.86 32.69
1690 9.4940 1093.15 972.01 32.99
1691 9.4980 1060.54 972.33 32.59
1692 9.5040 1058.32 972.81 32.49
1693 9.5090 1034.56 973.46 32.22
1694 9.5140 1016.00 974.28 31.83
1695 9.5190 1091.59 975.28 33.12
1696 9.5240 1099.01 976.47 33.07
1697 9.5280 1050.91 977.85 32.50
1698 9.5340 1108.38 979.43 33.22
1699 9.5380 1072.10 981.22 32.80
1700 9.5440 1045.10 983.23 32.24
1701 9.5490 1048.19 985.48 32.48
1702 9.5540 1066.19 987.98 32.58
1703 9.5590 1051.65 990.74 32.49
1704 9.5640 1091.85 993.79 32.96
1705 9.5680 1065.70 997.15 32.74
1706 9.5740 1076.70 1000.84 32.78
1707 9.5790 1063.78 1004.89 32.75
1708 9.5830 1052.64 1009.32 32.43
1709 9.5890 1092.06 1014.18 33.10
1710 9.5940 1124.30 1019.50 33.44
1711 9.5990 1095.36 1025.32 33.22
1712 9.6040 1102.56 1031.69 33.12
1713 9.6090 1114.20 1038.66 33.51
1714 9.6130 1122.16 1046.31 33.51
1715 9.6190 1123.94 1054.70 33.59
1716 9.6230 1140.20 1063.91 33.70
1717 9.6290 1108.11 1061.40 33.40
1718 9.6340 1120.33 1072.86 33.42
1719 9.6390 1216.93 1085.46 35.02
1720 9.6440 1175.27 1099.33 34.31
1721 9.6490 1140.35 1114.65 33.90
1722 9.6530 1172.68 1131.60 34.17
1723 9.6590 1201.48 1150.42 34.75
1724 9.6630 1213.72 1171.37 34.81
1725 9.6690 1182.03 1194.77 34.53
1726 9.6740 1192.50 1221.01 34.54
1727 9.6790 1251.92 1250.53 35.52
1728 9.6840 1257.57 1283.88 35.43
1729 9.6890 1368.14 1321.73 37.08
1730 9.6940 1347.57 1364.88 36.69
1731 9.6980 1286.83 1414.36 36.07
1732 9.7040 1329.03 1471.42 36.46
1733 9.7080 1394.17 1537.60 37.51
1734 9.7140 1457.17 1614.94 38.15
1735 9.7190 1559.79 1705.96 39.64
1736 9.7240 1646.15 1814.04 40.54
1737 9.7290 1764.92 1943.62 42.22
1738 9.7340 1977.76 2100.90 44.52
1739 9.7380 2238.92 2295.09 47.49
1740 9.7440 2756.64 2541.03 52.47
1741 9.7480 3422.59 2864.41 58.78
1742 9.7540 4341.44 3311.73 65.89
1743 9.7590 5573.12 3964.17 74.97
1744 9.7640 7124.63 4953.88 84.53
1745 9.7690 8843.60 6469.36 94.65
1746 9.7740 10747.00 8738.13 104.01
1747 9.7790 13183.60 11965.50 115.68
1748 9.7830 16033.20 16235.80 126.78
1749 9.7890 19643.50 21345.30 141.13
1750 9.7930 22998.30 26530.30 152.57
1751 9.7990 26149.60 30217.30 163.57
1752 9.8040 27828.80 30619.70 168.03
1753 9.8090 27500.40 27504.20 167.37
1754 9.8140 25325.10 22479.70 160.27
1755 9.8190 21059.80 17265.90 146.22
1756 9.8230 16313.90 12843.20 127.96
1757 9.8290 12025.70 9393.22 110.35
1758 9.8330 8431.68 6935.34 91.98
1759 9.8390 5990.12 5278.27 77.78
1760 9.8440 4568.99 4193.74 67.74
1761 9.8490 3508.56 3481.74 59.53
1762 9.8540 2919.54 2998.50 53.87
1763 9.8580 2429.41 2653.06 49.38
1764 9.8640 2176.86 2392.82 46.71
1765 9.8680 1917.38 2188.77 43.97
1766 9.8740 1753.06 2024.26 41.86
1767 9.8780 1626.62 1889.26 40.48
1768 9.8840 1567.98 1777.03 39.58
1769 9.8890 1481.21 1687.11 38.61
1770 9.8940 1381.53 1607.48 37.15
1771 9.8990 1384.26 1539.65 37.42
1772 9.9040 1297.06 1481.51 35.94
1773 9.9080 1282.54 1431.41 35.93
1774 9.9140 1220.48 1388.05 34.90
1775 9.9180 1220.44 1350.39 35.09
1776 9.9240 1159.19 1317.58 34.03
1777 9.9290 1148.19 1288.96 34.06
1778 9.9340 1145.44 1263.96 33.85
1779 9.9390 1116.07 1242.13 33.54
1780 9.9440 1079.16 1223.09 32.78
1781 9.9490 1059.86 1206.52 32.72
1782 9.9530 1081.61 1192.18 32.82
1783 9.9590 1063.39 1179.84 32.72
1784 9.9640 1115.37 1169.34 33.40
1785 9.9690 1043.26 1160.95 32.44
1786 9.9740 1120.50 1153.72 33.45
1787 9.9790 1029.14 1147.98 32.15
1788 9.9830 1068.36 1143.65 32.69
1789 9.9890 1055.81 1140.68 32.54
1790 9.9930 1080.79 1139.04 32.87
1791 9.9990 1009.68 1138.69 31.94
1792 10.0030 1032.77 1139.65 32.12
1793 10.0090 1050.16 1141.92 32.51
1794 10.0140 1067.47 1145.54 32.64
1795 10.0190 1082.52 1150.54 32.97
1796 10.0240 1063.72 1156.99 32.56
1797 10.0290 1039.88 1164.96 32.42
1798 10.0330 989.69 1174.56 31.47
1799 10.0390 1047.52 1185.92 32.46
1800 10.0440 1057.09 1199.17 32.51
1801 10.0490 1066.21 1214.51 32.72
1802 10.0540 1080.53 1232.15 32.78
1803 10.0590 1054.52 1252.34 32.58
1804 10.0640 1041.35 1275.40 32.25
1805 10.0680 1073.23 1301.68 32.90
1806 10.0740 1059.49 1331.64 32.51
1807 10.0780 1091.65 1365.80 33.17
1808 10.0840 1118.79 1404.81 33.38
1809 10.0890 1128.15 1449.44 33.65
1810 10.0940 1177.04 1500.66 34.24
1811 10.0990 1239.66 1559.62 35.35
1812 10.1040 1206.21 1627.81 34.74
1813 10.1080 1258.03 1707.01 35.58
1814 10.1140 1304.21 1799.60 36.09
1815 10.1180 1338.29 1908.47 36.69
1816 10.1240 1419.47 2037.50 37.54
1817 10.1280 1531.00 2191.62 39.28
1818 10.1340 1725.36 2377.56 41.55
1819 10.1390 1865.21 2604.29 43.34
1820 10.1440 2124.81 2884.69 46.15
1821 10.1490 2491.73 3238.27 50.11
1822 10.1530 3033.38 3699.12 54.88
1823 10.1590 3872.46 4335.84 62.35
1824 10.1630 4781.29 5293.86 69.26
1825 10.1690 6601.80 6872.27 81.65
1826 10.1740 9169.21 9611.05 95.87
1827 10.1790 13540.50 14316.40 117.31
1828 10.1840 20019.50 21881.60 141.79
1829 10.1890 30781.10 32834.10 176.88
1830 10.1930 47734.80 46625.90 220.50
1831 10.1990 67744.50 60782.60 265.96
1832 10.2030 83552.50 70169.60 294.84
1833 10.2090 81271.70 69393.80 291.71
1834 10.2140 61970.70 58977.50 252.50
1835 10.2190 41221.00 44634.70 205.51
1836 10.2240 26854.00 31148.60 164.39
1837 10.2290 17789.40 20671.30 134.42
1838 10.2340 12672.70 13554.90 112.81
1839 10.2380 8932.05 9183.02 95.11
1840 10.2440 6792.77 6654.25 82.61
1841 10.2480 5402.31 5164.94 73.88
1842 10.2540 4508.54 4276.70 67.12
1843 10.2590 3691.50 3685.62 60.94
1844 10.2640 3085.36 3261.06 55.47
1845 10.2690 2769.34 2942.68 52.90
1846 10.2740 2640.36 2700.99 51.40
1847 10.2780 2368.50 2521.11 48.92
1848 10.2840 2380.48 2396.81 48.86
1849 10.2880 2347.55 2330.27 48.60
1850 10.2940 2451.47 2333.01 49.44
1851 10.2990 2678.11 2427.21 51.96
1852 10.3040 2799.96 2644.20 52.92
1853 10.3090 3168.01 3017.05 56.60
1854 10.3140 3664.97 3565.50 60.63
1855 10.3190 4126.62 4270.20 64.51
1856 10.3230 4563.90 5035.52 67.42
1857 10.3290 4926.07 5644.58 70.40
1858 10.3330 5211.07 5804.65 72.36
1859 10.3390 5217.29 5398.41 72.68
1860 10.3440 4704.56 4626.62 68.74
1861 10.3490 3960.09 3774.53 63.13
1862 10.3540 3084.77 3018.15 55.47
1863 10.3590 2545.73 2423.13 50.59
1864 10.3630 2054.99 1991.29 45.30
1865 10.3690 1707.66 1694.13 41.60
1866 10.3730 1473.37 1494.64 38.39
1867 10.3790 1370.57 1359.60 37.22
1868 10.3840 1250.02 1264.72 35.29
1869 10.3890 1155.31 1194.30 34.06
1870 10.3940 1154.71 1139.18 33.97
1871 10.3990 1069.42 1094.15 32.85
1872 10.4030 997.54 1056.29 31.58
1873 10.4090 1021.22 1023.82 32.08
1874 10.4140 1022.48 995.60 31.99
1875 10.4190 952.34 970.79 30.93
1876 10.4240 946.52 948.78 30.76
1877 10.4290 897.93 929.11 30.06
1878 10.4340 847.62 911.41 29.13
1879 10.4390 825.11 895.36 28.88
1880 10.4440 891.92 880.75 29.87
1881 10.4480 868.50 867.37 29.56
1882 10.4540 841.00 855.05 28.97
1883 10.4580 837.16 843.67 29.05
1884 10.4640 783.46 833.12 27.95
1885 10.4690 833.75 823.30 29.00
1886 10.4740 842.59 814.12 29.04
1887 10.4790 825.50 805.52 28.83
1888 10.4840 805.53 797.45 28.35
1889 10.4880 813.25 789.84 28.61
1890 10.4940 766.48 782.66 27.61
1891 10.4980 772.72 775.86 27.90
1892 10.5040 848.12 769.41 29.10
1893 10.5090 802.91 763.28 28.47
1894 10.5140 815.04 757.44 28.50
1895 10.5190 793.44 751.87 28.25
1896 10.5240 790.89 746.55 28.11
1897 10.5290 759.50 741.46 27.67
1898 10.5330 742.22 736.57 27.21
1899 10.5390 728.47 731.89 27.11
1900 10.5430 718.21 727.38 26.78
1901 10.5490 771.97 723.04 27.88
1902 10.5540 760.17 718.86 27.49
1903 10.5590 728.26 714.83 27.10
1904 10.5640 724.01 710.93 26.87
1905 10.5690 692.58 707.16 26.43
1906 10.5730 695.66 703.51 26.33
1907 10.5790 716.94 699.97 26.87
1908 10.5830 703.51 696.54 26.47
1909 10.5890 715.86 634.21 26.86
1910 10.5940 719.38 632.47 26.80
1911 10.5990 709.00 630.76 26.70
1912 10.6040 682.91 629.09 26.14
1913 10.6080 690.34 627.44 26.37
1914 10.6140 662.68 625.81 25.68
1915 10.6180 712.97 624.22 26.77
1916 10.6240 705.01 622.64 26.51
1917 10.6280 684.29 621.09 26.22
1918 10.6340 717.34 619.56 26.81
1919 10.6390 692.05 618.05 26.38
1920 10.6440 676.10 616.55 25.97
1921 10.6490 693.63 615.08 26.43
1922 10.6540 676.57 613.62 25.96
1923 10.6580 684.73 612.18 26.27
1924 10.6640 670.08 610.75 25.85
1925 10.6680 665.68 609.34 25.87
1926 10.6740 658.74 607.94 25.65
1927 10.6790 677.09 606.56 26.10
1928 10.6840 670.22 605.19 25.91
1929 10.6890 642.59 603.83 25.48
1930 10.6930 637.21 602.48 25.21
1931 10.6990 660.86 600.72 25.81
1932 10.7030 672.30 599.41 25.92
1933 10.7090 632.49 598.11 25.23
1934 10.7140 609.94 596.82 24.67
1935 10.7190 642.69 595.53 25.45
1936 10.7240 647.00 594.26 25.45
1937 10.7290 659.79 592.99 25.79
1938 10.7330 694.46 591.74 26.34
1939 10.7390 628.15 590.49 25.13
1940 10.7430 670.33 589.26 25.90
1941 10.7490 596.45 588.03 24.54
1942 10.7530 621.78 586.80 24.94
1943 10.7590 619.91 585.59 24.99
1944 10.7640 630.92 584.39 25.10
1945 10.7690 638.86 583.19 25.38
1946 10.7740 619.34 582.00 24.89
1947 10.7790 614.17 580.81 24.89
1948 10.7840 697.02 575.35 26.41
1949 10.7890 644.78 574.27 25.50
1950 10.7940 652.83 573.20 25.51
1951 10.7990 641.22 572.13 25.42
1952 10.8040 602.42 571.07 24.56
1953 10.8090 638.18 570.01 25.39
1954 10.8140 626.80 568.95 25.05
1955 10.8180 618.45 567.90 24.98
1956 10.8240 619.47 566.85 24.89
1957 10.8280 706.13 565.81 26.61
1958 10.8340 705.49 564.77 26.57
1959 10.8390 703.88 563.73 26.67
1960 10.8440 743.58 573.62 27.26
1961 10.8490 716.48 572.90 26.90
1962 10.8540 788.87 572.20 28.06
1963 10.8580 734.28 571.52 27.18
1964 10.8640 762.45 570.86 27.58
1965 10.8680 784.35 570.22 28.11
1966 10.8740 752.00 569.60 27.42
1967 10.8780 799.82 569.00 28.40
1968 10.8840 835.39 568.42 28.90
1969 10.8890 920.43 567.87 30.46
1970 10.8940 993.01 567.34 31.46
1971 10.8990 935.79 566.84 30.75
1972 10.9030 815.14 566.38 28.54
1973 10.9090 782.79 565.93 28.12
1974 10.9130 698.86 565.53 26.39
1975 10.9190 659.02 565.15 25.77
1976 10.9240 636.89 564.82 25.21
1977 10.9290 634.42 564.52 25.28
1978 10.9340 628.85 564.26 25.07
1979 10.9390 603.96 564.05 24.68
1980 10.9430 598.88 563.88 24.43
1981 10.9490 569.72 563.76 23.95
1982 10.9530 578.71 563.70 24.01
1983 10.9590 593.38 563.69 24.43
1984 10.9640 610.37 563.75 24.67
1985 10.9690 611.66 563.87 24.85
1986 10.9740 570.03 564.07 23.83
1987 10.9790 616.18 564.34 24.88
1988 10.9840 607.69 564.70 24.66
1989 10.9880 582.73 565.16 24.19
1990 10.9940 585.71 565.71 24.19
1991 10.9980 570.41 566.37 23.97
1992 11.0040 557.49 567.16 23.59
1993 11.0090 530.13 568.08 23.10
1994 11.0140 564.60 569.14 23.76
1995 11.0190 541.24 570.36 23.35
1996 11.0240 553.19 571.77 23.43
1997 11.0280 548.94 573.36 23.50
1998 11.0340 544.22 575.18 23.32
1999 11.0380 556.30 577.25 23.70
2000 11.0440 537.53 579.59 23.17
2001 11.0490 559.20 582.24 23.73
2002 11.0540 585.61 585.24 24.17
2003 11.0590 570.22 588.64 23.93
2004 11.0640 574.72 592.49 23.91
2005 11.0690 576.62 596.86 24.10
2006 11.0730 540.46 601.82 23.20
2007 11.0790 587.56 607.46 24.37
2008 11.0830 585.26 613.90 24.15
2009 11.0890 586.38 621.27 24.33
2010 11.0940 583.73 629.72 24.09
2011 11.0990 619.24 639.47 24.95
2012 11.1040 636.26 650.75 25.20
2013 11.1090 595.60 663.88 24.48
2014 11.1130 590.65 679.23 24.26
2015 11.1190 660.59 697.31 25.78
2016 11.1230 629.25 718.75 25.05
2017 11.1290 689.23 744.40 26.29
2018 11.1340 697.14 775.36 26.41
2019 11.1390 746.11 813.26 27.42
2020 11.1440 776.45 860.48 27.80
2021 11.1490 875.05 921.08 29.71
2022 11.1540 966.87 1002.35 30.98
2023 11.1590 1176.41 1118.31 34.36
2024 11.1640 1425.97 1295.17 37.72
2025 11.1680 1773.01 1579.34 42.31
2026 11.1740 2376.21 2044.07 48.63
2027 11.1790 3187.26 2785.76 56.69
2028 11.1840 4223.83 3898.75 64.93
2029 11.1890 5469.55 5417.59 74.23
2030 11.1940 6849.24 7235.15 82.74
2031 11.1980 8437.64 9003.36 92.45
2032 11.2040 9645.60 10092.80 98.22
2033 11.2080 10174.40 9920.85 101.29
2034 11.2140 9208.38 8590.96 95.94
2035 11.2190 7168.33 6760.33 85.11
2036 11.2240 5075.66 4995.52 71.24
2037 11.2290 3566.27 3575.18 60.01
2038 11.2340 2508.66 2561.56 50.12
2039 11.2380 1920.44 1897.97 43.95
2040 11.2440 1545.97 1485.67 39.20
2041 11.2480 1230.00 1232.83 35.21
2042 11.2540 1046.36 1073.25 32.33
2043 11.2590 933.99 966.42 30.74
2044 11.2640 814.23 889.84 28.54
2045 11.2690 760.52 831.67 27.67
2046 11.2740 729.25 785.64 26.89
2047 11.2790 718.76 748.22 26.88
2048 11.2830 674.27 717.28 25.96
2049 11.2890 624.28 691.34 25.13
2050 11.2930 601.62 669.37 24.55
2051 11.2990 565.17 650.59 23.88
2052 11.3040 603.91 634.41 24.54
2053 11.3090 578.77 620.35 24.07
2054 11.3140 530.76 608.06 23.01
2055 11.3190 557.97 597.23 23.75
2056 11.3230 512.02 587.65 22.65
2057 11.3290 520.03 579.11 22.93
2058 11.3330 520.16 571.47 22.81
2059 11.3390 540.96 564.60 23.36
2060 11.3440 543.86 558.39 23.25
2061 11.3490 526.16 552.75 23.08
2062 11.3540 542.78 548.33 23.29
2063 11.3580 507.73 543.65 22.65
2064 11.3640 519.51 539.35 22.82
2065 11.3680 521.43 535.40 22.95
2066 11.3740 487.13 531.75 22.01
2067 11.3780 492.70 528.36 22.28
2068 11.3840 456.95 525.22 21.39
2069 11.3890 509.48 522.30 22.71
2070 11.3940 481.46 519.57 21.99
2071 11.3990 484.62 517.01 22.17
2072 11.4040 496.03 514.61 22.24
2073 11.4080 494.69 512.36 22.27
2074 11.4140 485.12 510.24 22.00
2075 11.4180 496.80 508.23 22.44
2076 11.4240 512.83 506.34 22.66
2077 11.4290 473.51 504.55 21.91
2078 11.4340 467.72 502.85 21.65
2079 11.4390 449.27 501.23 21.25
2080 11.4430 481.65 499.70 21.91
2081 11.4490 487.22 498.23 22.17
2082 11.4530 477.08 496.83 21.86
2083 11.4590 491.93 495.50 22.35
2084 11.4640 489.16 494.23 22.14
2085 11.4690 499.83 493.01 22.47
2086 11.4740 519.46 491.84 22.76
2087 11.4790 510.39 490.72 22.66
2088 11.4830 497.52 489.65 22.33
2089 11.4890 478.20 488.62 22.05
2090 11.4930 476.14 487.63 21.85
2091 11.4990 497.88 486.68 22.43
2092 11.5030 500.16 485.76 22.36
2093 11.5090 500.11 484.89 22.39
2094 11.5140 465.45 484.04 21.57
2095 11.5190 497.17 483.23 22.43
2096 11.5240 496.02 482.44 22.29
2097 11.5290 483.14 481.69 22.12
2098 11.5340 488.86 480.97 22.10
2099 11.5380 495.77 480.27 22.36
2100 11.5440 478.29 479.61 21.82
2101 11.5490 473.48 478.96 21.91
2102 11.5540 483.01 478.35 21.99
2103 11.5590 443.86 477.76 21.16
2104 11.5640 456.25 477.20 21.40
2105 11.5680 492.15 476.66 22.29
2106 11.5740 459.94 473.72 21.40
2107 11.5780 460.86 473.30 21.58
2108 11.5840 433.47 472.90 20.80
2109 11.5890 459.01 472.53 21.55
2110 11.5940 454.46 472.18 21.32
2111 11.5990 444.95 471.86 21.23
2112 11.6040 438.72 471.57 20.91
2113 11.6080 448.99 471.31 21.24
2114 11.6140 458.47 471.08 21.40
2115 11.6180 471.48 470.88 21.81
2116 11.6240 467.82 470.72 21.68
2117 11.6290 449.44 470.59 21.30
2118 11.6340 448.21 470.51 21.17
2119 11.6390 464.82 470.47 21.64
2120 11.6440 479.83 470.49 21.86
2121 11.6490 491.03 464.71 22.30
2122 11.6530 480.55 464.98 21.93
2123 11.6590 449.21 465.31 21.31
2124 11.6630 456.60 465.73 21.39
2125 11.6690 478.25 468.51 21.93
2126 11.6740 442.39 469.18 21.01
2127 11.6790 416.13 469.97 20.49
2128 11.6840 497.85 470.91 22.31
2129 11.6890 488.80 472.04 22.21
2130 11.6930 441.33 473.38 21.02
2131 11.6990 464.74 474.98 21.70
2132 11.7030 460.74 480.07 21.41
2133 11.7090 459.71 482.48 21.55
2134 11.7140 451.20 485.42 21.23
2135 11.7190 458.89 489.02 21.51
2136 11.7240 507.77 493.55 22.53
2137 11.7290 459.66 499.42 21.57
2138 11.7340 503.01 507.43 22.44
2139 11.7380 512.66 519.10 22.76
2140 11.7440 548.33 537.20 23.40
2141 11.7480 583.85 566.17 24.28
2142 11.7540 670.24 612.21 25.88
2143 11.7590 729.90 682.18 27.14
2144 11.7640 818.38 781.18 28.60
2145 11.7690 935.78 908.59 30.75
2146 11.7740 1090.47 1053.21 33.03
2147 11.7780 1164.46 1186.54 34.26
2148 11.7840 1283.12 1261.84 35.83
2149 11.7880 1255.20 1240.94 35.64
2150 11.7940 1094.25 1135.48 33.11
2151 11.7990 943.02 992.89 30.90
2152 11.8040 767.78 853.35 27.74
2153 11.8090 709.74 737.36 26.74
2154 11.8140 639.63 650.99 25.31
2155 11.8190 533.91 591.97 23.25
2156 11.8230 522.41 554.07 22.85
2157 11.8290 493.53 530.49 22.36
2158 11.8330 497.20 515.72 22.33
2159 11.8390 501.73 506.05 22.54
2160 11.8440 465.65 499.32 21.54
2161 11.8490 463.24 494.35 21.66
2162 11.8540 447.99 490.54 21.20
2163 11.8590 428.42 487.55 20.78
2164 11.8630 524.27 485.19 22.93
2165 11.8690 491.49 483.32 22.33
2166 11.8730 466.96 481.86 21.58
2167 11.8790 447.11 480.74 21.26
2168 11.8840 445.33 479.90 21.10
2169 11.8890 437.28 479.30 21.03
2170 11.8940 466.99 478.92 21.61
2171 11.8990 456.93 478.74 21.55
2172 11.9040 471.45 478.73 21.75
2173 11.9080 432.39 478.89 20.89
2174 11.9140 451.64 479.20 21.26
2175 11.9180 476.16 479.67 21.91
2176 11.9240 442.74 480.28 21.05
2177 11.9290 438.98 481.05 21.08
2178 11.9340 483.16 481.97 22.01
2179 11.9390 476.95 483.05 22.00
2180 11.9440 438.86 484.30 20.91
2181 11.9480 449.79 485.72 21.33
2182 11.9540 440.04 487.34 20.98
2183 11.9580 448.26 489.17 21.27
2184 11.9640 445.99 491.22 21.11
2185 11.9690 483.79 493.52 22.13
2186 11.9740 432.76 496.11 20.81
2187 11.9790 465.88 499.00 21.68
2188 11.9840 470.19 502.25 21.71
2189 11.9880 488.24 505.89 22.22
2190 11.9940 448.47 510.00 21.14
2191 11.9990 445.93 514.62 21.25
2192 12.0040 477.66 519.86 21.85
2193 12.0090 461.02 525.81 21.55
2194 12.0140 465.98 532.59 21.55
2195 12.0190 476.83 540.35 21.98
2196 12.0240 452.21 549.28 21.27
2197 12.0290 505.11 559.61 22.59
2198 12.0330 493.09 571.65 22.19
2199 12.0390 534.53 585.78 23.19
2200 12.0430 550.95 602.48 23.42
2201 12.0490 567.74 622.42 23.94
2202 12.0540 540.53 646.49 23.25
2203 12.0590 581.35 676.04 24.23
2204 12.0640 645.22 713.24 25.37
2205 12.0690 668.94 761.95 25.97
2206 12.0730 755.53 829.54 27.42
2207 12.0790 894.80 929.83 29.96
2208 12.0830 1098.85 1087.01 33.12
2209 12.0890 1334.14 1339.08 36.76
2210 12.0940 1669.30 1736.21 40.80
2211 12.0990 2310.70 2330.48 48.33
2212 12.1040 3106.19 3153.00 55.72
2213 12.1080 4235.91 4182.25 65.26
2214 12.1140 5489.58 5303.82 73.90
2215 12.1180 6896.52 6261.86 83.55
2216 12.1240 7847.39 6687.41 88.71
2217 12.1280 7430.88 6358.26 86.73
2218 12.1340 5929.43 5449.95 77.05
2219 12.1390 4243.81 4332.74 65.45
2220 12.1440 3196.97 3281.87 56.31
2221 12.1490 2264.46 2428.91 47.78
2222 12.1540 1685.31 1805.09 41.09
2223 12.1580 1360.42 1384.23 37.03
2224 12.1640 1192.15 1115.65 34.45
2225 12.1680 992.32 948.11 31.66
2226 12.1740 893.50 841.74 29.80
2227 12.1790 774.14 770.62 27.90
2228 12.1840 716.84 719.77 26.76
2229 12.1890 721.38 681.19 27.00
2230 12.1930 674.72 650.65 25.94
2231 12.1990 617.84 625.81 24.99
2232 12.2030 622.97 605.26 24.92
2233 12.2090 620.40 588.04 24.96
2234 12.2140 551.79 573.48 23.44
2235 12.2190 574.62 561.06 24.08
2236 12.2240 558.86 549.68 23.65
2237 12.2290 555.79 540.47 23.68
2238 12.2330 532.55 532.44 23.06
2239 12.2390 510.34 525.42 22.71
2240 12.2430 549.53 519.24 23.37
2241 12.2490 541.13 513.77 23.37
2242 12.2530 526.07 508.92 22.94
2243 12.2590 522.21 504.57 22.93
2244 12.2640 545.91 500.70 23.34
2245 12.2690 476.62 497.22 21.93
2246 12.2740 504.36 494.09 22.47
2247 12.2780 490.55 491.26 22.21
2248 12.2840 474.71 488.69 21.80
2249 12.2880 495.08 486.36 22.35
2250 12.2940 495.32 484.23 22.20
2251 12.2990 473.72 482.30 21.85
2252 12.3040 496.77 480.52 22.30
2253 12.3090 500.03 478.90 22.49
2254 12.3140 520.34 477.41 22.75
2255 12.3180 462.24 476.04 21.63
2256 12.3240 498.12 474.78 22.32
2257 12.3280 496.27 473.62 22.30
2258 12.3340 484.58 472.54 21.98
2259 12.3390 487.63 471.55 22.24
2260 12.3440 524.65 470.63 22.88
2261 12.3490 489.39 469.78 22.25
2262 12.3540 475.64 468.99 21.81
2263 12.3580 485.74 468.26 22.13
2264 12.3640 473.54 467.58 21.69
2265 12.3690 489.67 466.95 22.25
2266 12.3730 490.27 466.37 22.13
2267 12.3790 469.33 465.82 21.73
2268 12.3840 496.66 465.32 22.33
2269 12.3890 457.76 464.85 21.49
2270 12.3940 500.32 464.41 22.35
2271 12.3990 502.98 464.01 22.48
2272 12.4030 483.05 463.63 21.98
2273 12.4090 491.32 463.28 22.25
2274 12.4130 501.97 462.95 22.39
2275 12.4190 516.43 462.65 22.86
2276 12.4240 473.48 462.37 21.73
2277 12.4290 479.85 462.11 22.00
2278 12.4340 471.09 461.88 21.62
2279 12.4390 508.35 461.65 22.70
2280 12.4430 494.00 461.45 22.24
2281 12.4490 507.86 461.26 22.63
2282 12.4530 515.42 461.09 22.69
2283 12.4590 457.34 460.93 21.49
2284 12.4640 460.73 460.79 21.42
2285 12.4690 448.82 460.65 21.28
2286 12.4740 488.62 460.54 22.11
2287 12.4790 476.49 460.43 21.94
2288 12.4840 424.07 460.33 20.57
2289 12.4880 468.99 460.25 21.80
2290 12.4940 460.15 460.17 21.42
2291 12.4980 486.35 460.10 22.12
2292 12.5040 461.40 460.05 21.49
2293 12.5090 469.85 460.00 21.79
2294 12.5140 463.19 459.96 21.51
2295 12.5190 484.67 459.92 22.13
2296 12.5240 487.01 459.90 22.05
2297 12.5280 459.96 459.88 21.50
2298 12.5340 482.81 459.87 21.96
2299 12.5380 466.36 459.86 21.74
2300 12.5440 470.18 459.87 21.64
2301 12.5490 474.78 457.27 21.92
2302 12.5540 454.30 457.36 21.29
2303 12.5590 469.62 457.47 21.76
2304 12.5640 477.53 457.57 21.83
2305 12.5690 486.08 457.68 22.13
2306 12.5730 443.60 457.79 21.05
2307 12.5790 479.85 457.90 22.02
2308 12.5830 483.19 458.02 21.95
2309 12.5890 471.92 455.86 21.83
2310 12.5940 465.07 456.03 21.56
2311 12.5990 462.05 456.20 21.60
2312 12.6040 478.06 456.38 21.82
2313 12.6090 466.64 456.55 21.72
2314 12.6130 484.42 456.73 21.98
2315 12.6190 451.94 456.90 21.36
2316 12.6230 495.13 457.08 22.22
2317 12.6290 468.53 457.26 21.72
2318 12.6340 493.21 457.44 22.14
2319 12.6390 468.27 457.62 21.75
2320 12.6440 505.02 457.81 22.48
2321 12.6490 454.25 457.99 21.37
2322 12.6540 508.70 458.18 22.55
2323 12.6580 462.54 458.37 21.61
2324 12.6640 453.60 458.56 21.26
2325 12.6680 453.90 458.75 21.37
2326 12.6740 475.72 458.94 21.76
2327 12.6790 450.43 459.14 21.30
2328 12.6840 465.24 459.33 21.55
2329 12.6890 464.38 459.53 21.67
2330 12.6940 447.91 459.73 21.16
2331 12.6980 460.70 459.93 21.49
2332 12.7040 469.33 460.14 21.63
2333 12.7080 459.43 460.34 21.49
2334 12.7140 479.66 460.55 21.85
2335 12.7190 501.44 460.76 22.48
2336 12.7240 483.91 460.97 21.98
2337 12.7290 453.03 461.18 21.41
2338 12.7340 468.95 461.40 21.58
2339 12.7390 465.64 461.61 21.67
2340 12.7430 449.93 461.83 21.16
2341 12.7490 475.20 462.06 21.85
2342 12.7530 464.95 462.28 21.56
2343 12.7590 456.79 462.51 21.50
2344 12.7640 469.34 462.74 21.63
2345 12.7690 502.96 462.98 22.45
2346 12.7740 518.61 463.21 22.70
2347 12.7790 466.52 463.46 21.68
2348 12.7830 530.76 463.70 23.01
2349 12.7890 504.94 463.95 22.58
2350 12.7930 491.63 464.20 22.13
2351 12.7990 542.82 464.46 23.39
2352 12.8040 583.74 464.72 24.09
2353 12.8090 625.34 464.98 25.07
2354 12.8140 642.46 465.26 25.30
2355 12.8190 632.34 465.53 25.24
2356 12.8230 597.66 465.82 24.45
2357 12.8290 552.37 466.10 23.60
2358 12.8340 522.79 466.40 22.78
2359 12.8390 511.04 466.70 22.67
2360 12.8440 506.42 467.01 22.46
2361 12.8490 505.99 467.33 22.57
2362 12.8540 487.88 467.66 22.06
2363 12.8580 504.29 468.00 22.56
2364 12.8640 492.51 468.35 22.17
2365 12.8680 468.73 468.71 21.70
2366 12.8740 521.99 469.09 22.78
2367 12.8780 488.35 469.48 22.18
2368 12.8840 481.98 469.88 21.94
2369 12.8890 501.95 470.31 22.49
2370 12.8940 476.81 470.75 21.85
2371 12.8990 488.37 471.21 22.19
2372 12.9040 483.81 471.70 21.93
2373 12.9080 471.01 472.21 21.81
2374 12.9140 470.92 472.75 21.61
2375 12.9180 473.12 473.33 21.85
2376 12.9240 492.04 473.94 22.20
2377 12.9290 456.86 474.60 21.52
2378 12.9340 482.66 475.30 21.89
2379 12.9390 457.14 476.05 21.44
2380 12.9430 485.91 476.87 22.02
2381 12.9490 474.58 478.01 21.86
2382 12.9530 469.68 478.99 21.69
2383 12.9590 491.92 480.06 22.30
2384 12.9640 475.43 481.24 21.73
2385 12.9690 484.35 482.55 22.07
2386 12.9740 482.44 484.02 21.94
2387 12.9790 479.23 485.67 21.96
2388 12.9830 464.65 487.54 21.54
2389 12.9890 493.62 489.68 22.35
2390 12.9930 527.59 492.14 22.98
2391 12.9990 505.75 495.01 22.51
2392 13.0030 510.10 498.40 22.52
2393 13.0090 526.15 502.48 23.00
2394 13.0140 517.70 507.54 22.74
2395 13.0190 547.88 514.01 23.50
2396 13.0240 585.48 522.64 24.17
2397 13.0280 574.25 534.53 24.07
2398 13.0340 566.42 551.35 23.70
2399 13.0380 635.39 575.21 25.28
2400 13.0440 623.90 608.66 24.96
2401 13.0490 695.72 653.99 26.45
2402 13.0540 760.37 712.86 27.55
2403 13.0590 820.98 785.01 28.82
2404 13.0640 837.45 866.88 28.89
2405 13.0680 915.90 949.12 30.24
2406 13.0740 950.97 1014.69 30.77
2407 13.0780 934.27 1042.44 30.67
2408 13.0840 989.31 1021.06 31.36
2409 13.0890 1014.11 959.60 32.04
2410 13.0940 989.57 878.82 31.40
2411 13.0990 908.70 796.74 30.26
2412 13.1040 878.09 723.54 29.48
2413 13.1090 735.45 663.40 27.23
2414 13.1130 700.38 616.85 26.37
2415 13.1190 628.19 582.48 25.13
2416 13.1230 610.60 557.97 24.71
2417 13.1290 589.89 540.81 24.36
2418 13.1340 536.49 528.81 23.09
2419 13.1390 521.76 520.26 22.85
2420 13.1440 479.78 513.97 21.86
2421 13.1490 516.26 509.19 22.79
2422 13.1530 481.41 505.42 21.88
2423 13.1590 538.08 502.37 23.30
2424 13.1630 515.36 499.86 22.65
2425 13.1690 488.58 497.78 22.08
2426 13.1740 524.36 496.03 22.84
2427 13.1790 516.23 494.55 22.77
2428 13.1840 488.84 493.30 22.08
2429 13.1890 506.44 492.24 22.57
2430 13.1930 503.15 491.34 22.41
2431 13.1990 500.73 490.57 22.39
2432 13.2040 498.83 489.92 22.21
2433 13.2090 510.89 489.37 22.67
2434 13.2140 520.59 488.90 22.75
2435 13.2190 502.86 488.51 22.51
2436 13.2240 536.62 488.18 23.13
2437 13.2290 474.29 487.91 21.83
2438 13.2340 496.47 487.70 22.18
2439 13.2380 474.85 487.52 21.82
2440 13.2440 509.11 487.39 22.53
2441 13.2480 511.46 487.30 22.69
2442 13.2540 512.49 487.24 22.59
2443 13.2590 515.75 487.21 22.80
2444 13.2640 527.88 487.21 22.87
2445 13.2690 499.93 487.24 22.39
2446 13.2740 495.55 487.29 22.17
2447 13.2780 500.36 487.36 22.47
2448 13.2840 498.00 487.46 22.28
2449 13.2880 469.20 500.64 21.74
2450 13.2940 486.20 501.06 22.01
2451 13.2990 513.84 501.50 22.70
2452 13.3040 504.14 501.97 22.37
2453 13.3090 503.92 502.48 22.52
2454 13.3140 529.10 503.01 22.98
2455 13.3190 482.75 503.58 22.03
2456 13.3230 505.69 504.18 22.45
2457 13.3290 502.68 504.81 22.49
2458 13.3330 502.04 505.49 22.33
2459 13.3390 548.72 506.21 23.50
2460 13.3440 539.26 506.97 23.18
2461 13.3490 525.68 511.97 22.97
2462 13.3540 521.66 512.93 22.82
2463 13.3590 504.52 513.96 22.56
2464 13.3630 499.50 523.62 22.30
2465 13.3690 480.58 524.96 21.97
2466 13.3730 522.63 526.39 22.82
2467 13.3790 526.12 527.93 23.00
2468 13.3840 516.13 529.59 22.64
2469 13.3890 519.31 531.39 22.94
2470 13.3940 496.24 533.36 22.26
2471 13.3990 526.57 535.52 23.06
2472 13.4040 516.08 537.92 22.62
2473 13.4080 522.56 540.61 22.94
2474 13.4140 555.47 543.70 23.53
2475 13.4180 583.72 547.32 24.23
2476 13.4240 526.43 551.71 22.97
2477 13.4290 517.92 557.26 22.87
2478 13.4340 579.57 564.56 24.02
2479 13.4390 589.28 574.48 24.39
2480 13.4440 602.82 588.20 24.51
2481 13.4480 628.73 607.09 25.16
2482 13.4540 634.80 632.55 25.17
2483 13.4580 641.16 665.47 25.49
2484 13.4640 692.03 705.65 26.32
2485 13.4690 687.79 750.80 26.24
2486 13.4740 720.09 795.28 26.83
2487 13.4790 753.14 829.29 27.59
2488 13.4830 810.97 841.66 28.44
2489 13.4890 832.57 827.96 29.00
2490 13.4930 826.27 794.85 28.75
2491 13.4990 805.78 753.75 28.48
2492 13.5030 727.11 713.59 26.91
2493 13.5090 708.22 679.18 26.80
2494 13.5140 700.65 652.26 26.41
2495 13.5190 657.91 632.74 25.74
2496 13.5240 583.09 619.58 24.15
2497 13.5290 614.19 611.40 24.92
2498 13.5330 595.54 606.84 24.37
2499 13.5390 585.02 604.82 24.28
2500 13.5430 585.21 604.55 24.17
2501 13.5490 560.76 605.51 23.79
2502 13.5540 584.38 607.36 24.15
2503 13.5590 555.49 609.93 23.75
2504 13.5640 569.90 613.09 23.88
2505 13.5690 566.85 616.80 23.89
2506 13.5740 586.66 621.03 24.11
2507 13.5790 603.39 625.77 24.70
2508 13.5840 599.23 631.03 24.46
2509 13.5890 614.14 636.82 24.95
2510 13.5940 657.50 643.18 25.70
2511 13.5990 659.89 650.14 25.80
2512 13.6040 674.36 657.74 25.87
2513 13.6080 625.78 666.04 25.11
2514 13.6140 683.82 674.49 26.11
2515 13.6180 630.05 684.41 25.20
2516 13.6240 632.76 695.28 25.20
2517 13.6280 650.83 707.20 25.71
2518 13.6340 643.66 720.29 25.31
2519 13.6390 630.00 734.70 25.20
2520 13.6440 664.35 750.63 25.71
2521 13.6490 672.61 768.27 26.02
2522 13.6540 687.43 787.87 26.26
2523 13.6580 619.46 809.75 25.04
2524 13.6640 615.32 834.26 24.79
2525 13.6680 659.83 861.83 25.75
2526 13.6740 725.82 893.01 26.89
2527 13.6790 742.40 928.45 27.37
2528 13.6840 767.58 968.96 27.70
2529 13.6890 809.38 1015.57 28.63
2530 13.6930 935.60 1069.57 30.63
2531 13.6990 969.28 1132.73 31.29
2532 13.7030 1051.20 1207.38 32.28
2533 13.7090 1135.42 1297.02 33.83
2534 13.7140 1361.77 1407.01 36.89
2535 13.7190 1621.35 1546.25 40.44
2536 13.7240 1876.36 1729.64 43.35
2537 13.7290 2346.40 1982.46 48.68
2538 13.7330 2906.64 2345.48 53.85
2539 13.7390 3700.62 2881.37 60.99
2540 13.7430 4738.00 3676.35 68.89
2541 13.7490 5934.92 4834.90 77.51
2542 13.7530 7086.21 6456.71 84.30
2543 13.7590 8587.84 8597.14 93.41
2544 13.7640 10368.70 11205.60 101.78
2545 13.7690 12512.70 14052.70 112.43
2546 13.7740 14532.40 16643.10 120.60
2547 13.7780 16410.20 18228.80 129.18
2548 13.7840 17269.10 18168.00 132.07
2549 13.7880 16781.10 16501.50 130.65
2550 13.7940 15193.50 13910.50 123.55
2551 13.7990 12288.10 11128.80 111.43
2552 13.8040 9509.18 8623.28 97.46
2553 13.8090 7107.86 6607.22 84.75
2554 13.8140 5371.62 5122.33 73.33
2555 13.8180 4334.80 4117.23 66.19
2556 13.8240 3598.98 3504.62 59.96
2557 13.8280 3386.32 3205.62 58.52
2558 13.8340 3291.73 3169.75 57.34
2559 13.8390 3452.37 3379.75 58.99
2560 13.8440 3909.16 3842.48 62.47
2561 13.8490 4821.70 4571.19 69.80
2562 13.8540 5866.83 5563.46 76.62
2563 13.8590 7321.77 6773.13 86.25
2564 13.8630 8845.18 8077.26 94.05
2565 13.8690 10230.20 9233.59 101.55
2566 13.8730 11121.50 9891.90 105.44
2567 13.8790 10617.20 9771.70 103.84
2568 13.8840 9233.30 8905.94 96.33
2569 13.8890 7374.97 7606.50 86.53
2570 13.8940 5628.59 6207.26 75.02
2571 13.8990 4230.81 4921.08 65.29
2572 13.9030 3297.34 3848.21 57.33
2573 13.9090 2585.07 3013.62 51.03
2574 13.9130 2090.02 2399.72 45.73
2575 13.9190 1745.18 1966.02 42.02
2576 13.9240 1520.97 1666.48 38.99
2577 13.9290 1313.13 1459.45 36.37
2578 13.9340 1160.33 1313.13 34.01
2579 13.9390 1105.74 1205.48 33.34
2580 13.9440 968.45 1122.66 31.18
2581 13.9490 940.81 1056.31 30.88
2582 13.9540 911.30 1001.55 30.21
2583 13.9580 850.60 955.41 29.28
2584 13.9640 807.33 915.95 28.34
2585 13.9690 885.94 881.89 29.86
2586 13.9740 769.53 852.23 27.74
2587 13.9790 738.49 826.23 27.32
2588 13.9840 767.57 803.31 27.73
2589 13.9880 722.39 782.98 27.07
2590 13.9940 674.75 764.87 25.99
2591 13.9980 651.11 748.71 25.57
2592 14.0040 639.62 734.14 25.23
2593 14.0090 628.13 720.99 25.18
2594 14.0140 636.81 709.08 25.28
2595 14.0190 624.05 698.27 25.13
2596 14.0240 618.64 688.16 24.88
2597 14.0280 598.85 679.15 24.57
2598 14.0340 572.61 670.91 23.88
2599 14.0380 609.16 663.33 24.79
2600 14.0440 632.65 656.35 25.16
2601 14.0490 576.67 649.92 24.17
2602 14.0540 565.67 643.97 23.79
2603 14.0590 604.72 638.49 24.69
2604 14.0640 581.46 633.38 24.06
2605 14.0690 588.41 628.63 24.34
2606 14.0730 582.96 624.20 24.14
2607 14.0790 598.76 620.08 24.60
2608 14.0830 580.72 616.23 24.08
2609 14.0890 583.92 612.64 24.29
2610 14.0940 593.66 609.27 24.35
2611 14.0990 554.20 606.12 23.61
2612 14.1040 558.87 603.16 23.62
2613 14.1090 518.74 600.39 22.89
2614 14.1130 563.11 597.78 23.70
2615 14.1190 629.56 595.33 25.24
2616 14.1230 574.40 593.02 23.96
2617 14.1290 587.48 590.84 24.32
2618 14.1340 574.54 591.13 23.93
2619 14.1390 565.23 589.25 23.85
2620 14.1440 580.99 587.47 24.10
2621 14.1490 600.37 585.80 24.61
2622 14.1540 542.07 584.23 23.26
2623 14.1580 580.80 582.74 24.22
2624 14.1640 584.85 581.34 24.14
2625 14.1680 597.43 580.03 24.48
2626 14.1740 556.70 578.78 23.50
2627 14.1790 572.52 577.61 24.06
2628 14.1840 572.31 576.51 23.90
2629 14.1890 571.71 575.47 24.06
2630 14.1940 555.55 574.50 23.58
2631 14.1980 577.47 573.58 24.07
2632 14.2040 596.03 572.71 24.33
2633 14.2080 593.75 571.90 24.46
2634 14.2140 558.77 571.13 23.61
2635 14.2190 575.72 566.14 24.12
2636 14.2240 556.56 565.56 23.57
2637 14.2290 535.68 565.03 23.21
2638 14.2330 551.95 564.53 23.43
2639 14.2390 530.89 564.07 23.15
2640 14.2430 582.50 563.64 24.10
2641 14.2490 565.38 563.25 23.84
2642 14.2530 569.54 562.90 23.85
2643 14.2590 568.15 562.57 23.92
2644 14.2640 570.04 562.27 23.81
2645 14.2690 594.27 562.01 24.42
2646 14.2740 562.92 561.77 23.63
2647 14.2790 567.18 560.83 23.94
2648 14.2830 608.26 560.66 24.64
2649 14.2890 576.58 560.53 24.11
2650 14.2930 556.14 560.41 23.54
2651 14.2990 553.67 560.33 23.58
2652 14.3040 612.50 560.27 24.68
2653 14.3090 626.23 560.24 25.10
2654 14.3140 521.50 549.13 22.80
2655 14.3190 581.02 549.35 24.17
2656 14.3240 536.42 549.59 23.12
2657 14.3290 536.28 549.85 23.26
2658 14.3340 573.98 550.13 23.87
2659 14.3390 539.73 550.43 23.31
2660 14.3440 579.76 550.76 24.02
2661 14.3490 571.34 551.10 23.97
2662 14.3540 551.76 551.48 23.46
2663 14.3590 551.95 551.87 23.58
2664 14.3640 560.75 552.30 23.62
2665 14.3680 522.70 552.74 22.91
2666 14.3730 525.44 553.22 22.86
2667 14.3790 567.95 553.73 23.91
2668 14.3840 543.57 554.27 23.27
2669 14.3890 590.95 554.85 24.43
2670 14.3940 546.47 546.64 23.35
2671 14.3990 548.81 547.46 23.53
2672 14.4030 510.92 548.31 22.55
2673 14.4090 532.54 549.21 23.12
2674 14.4140 584.96 550.16 24.14
2675 14.4190 544.01 551.15 23.43
2676 14.4240 527.42 552.21 22.95
2677 14.4290 562.23 553.33 23.83
2678 14.4340 550.55 554.52 23.41
2679 14.4390 573.79 555.79 24.00
2680 14.4440 583.19 557.16 24.12
2681 14.4490 591.05 558.63 24.40
2682 14.4530 536.18 560.22 23.14
2683 14.4580 592.63 561.96 24.46
2684 14.4640 560.82 563.86 23.64
2685 14.4690 530.85 565.95 23.07
2686 14.4740 591.84 568.30 24.26
2687 14.4790 578.61 570.98 24.21
2688 14.4830 572.06 574.11 23.92
2689 14.4880 594.99 577.88 24.49
2690 14.4940 597.76 582.58 24.44
2691 14.4990 563.48 588.61 23.79
2692 14.5030 602.69 596.45 24.47
2693 14.5090 600.75 606.65 24.61
2694 14.5140 643.30 619.59 25.34
2695 14.5190 602.59 635.40 24.68
2696 14.5240 615.13 653.61 24.79
2697 14.5290 638.81 672.89 25.43
2698 14.5340 629.94 690.66 24.97
2699 14.5380 697.01 703.51 26.43
2700 14.5430 658.87 709.20 25.68
2701 14.5490 665.70 714.66 25.92
2702 14.5540 667.62 712.24 25.88
2703 14.5590 715.38 711.45 26.92
2704 14.5640 768.21 715.28 27.63
2705 14.5680 802.72 726.27 28.39
2706 14.5730 840.97 747.21 28.89
2707 14.5790 906.89 781.93 30.28
2708 14.5840 977.15 835.86 31.21
2709 14.5890 1119.88 916.39 33.66
2710 14.5940 1239.17 1032.35 35.19
2711 14.5990 1286.59 1192.55 35.95
2712 14.6040 1501.51 1402.80 38.60
2713 14.6080 1696.54 1662.32 41.37
2714 14.6140 1872.63 1958.90 43.27
2715 14.6190 2012.78 2261.01 45.01
2716 14.6230 2304.98 2512.24 47.98
2717 14.6280 2473.64 2639.38 49.99
2718 14.6340 2584.66 2593.91 50.71
2719 14.6390 2430.24 2394.41 49.40
2720 14.6440 2237.59 2109.00 47.29
2721 14.6490 1968.07 1805.08 44.58
2722 14.6530 1647.81 1525.56 40.48
2723 14.6580 1345.59 1290.96 36.88
2724 14.6640 1142.05 1106.82 33.76
2725 14.6690 1050.79 969.87 32.49
2726 14.6740 946.26 872.00 30.64
2727 14.6790 864.98 803.80 29.56
2728 14.6840 835.19 756.61 28.86
2729 14.6890 807.18 723.60 28.54
2730 14.6930 789.61 699.85 28.08
2731 14.6990 774.89 682.11 27.95
2732 14.7040 680.82 668.40 25.92
2733 14.7080 679.16 657.47 26.18
2734 14.7140 644.98 648.57 25.39
2735 14.7190 666.44 641.21 25.90
2736 14.7240 633.34 635.08 25.10
2737 14.7290 633.35 629.96 25.28
2738 14.7340 664.51 625.65 25.72
2739 14.7380 637.96 622.05 25.33
2740 14.7430 634.04 619.03 25.17
2741 14.7490 631.72 616.53 25.19
2742 14.7540 627.18 614.47 24.99
2743 14.7590 608.48 612.79 24.80
2744 14.7640 586.75 611.47 24.17
2745 14.7690 609.47 610.45 24.76
2746 14.7740 638.41 609.71 25.18
2747 14.7790 631.07 609.23 25.22
2748 14.7840 620.58 609.00 24.92
2749 14.7890 654.86 608.99 25.69
2750 14.7930 586.35 609.20 24.19
2751 14.7990 676.86 609.62 26.09
2752 14.8040 592.94 610.25 24.25
2753 14.8090 610.40 611.09 24.72
2754 14.8140 574.80 612.14 23.93
2755 14.8190 585.38 613.41 24.33
2756 14.8230 637.29 614.89 25.19
2757 14.8280 605.94 616.62 24.74
2758 14.8340 597.38 618.59 24.37
2759 14.8390 614.28 620.84 24.77
2760 14.8440 638.26 623.38 25.22
2761 14.8490 647.29 626.23 25.54
2762 14.8540 605.91 629.44 24.52
2763 14.8580 635.42 633.05 25.37
2764 14.8640 634.08 637.10 25.14
2765 14.8690 598.99 641.75 24.48
2766 14.8730 641.67 646.87 25.22
2767 14.8780 658.71 652.66 25.73
2768 14.8840 682.66 659.20 26.05
2769 14.8890 662.27 666.64 25.86
2770 14.8940 638.62 675.11 25.27
2771 14.8990 633.53 684.82 25.20
2772 14.9040 700.39 695.99 26.33
2773 14.9080 715.11 708.94 26.78
2774 14.9130 714.40 724.04 26.65
2775 14.9190 721.01 741.80 26.94
2776 14.9240 750.82 762.85 27.35
2777 14.9290 843.80 788.10 29.11
2778 14.9340 921.71 818.95 30.26
2779 14.9390 991.14 857.77 31.52
2780 14.9430 1059.87 909.03 32.48
2781 14.9490 1129.22 981.80 33.67
2782 14.9540 1305.92 1093.61 36.02
2783 14.9580 1521.00 1276.07 39.19
2784 14.9640 1915.16 1579.58 43.67
2785 14.9690 2210.57 2072.54 47.10
2786 14.9740 2706.31 2827.63 51.79
2787 14.9790 3465.07 3894.29 59.06
2788 14.9840 4565.54 5258.43 67.41
2789 14.9890 5970.19 6801.00 77.60
2790 14.9930 8028.00 8260.89 89.59
2791 14.9980 10022.80 9232.73 100.66
2792 15.0040 10426.00 9327.26 101.92
2793 15.0090 9034.13 8500.73 95.53
2794 15.0140 6867.22 7101.09 82.54
2795 15.0190 5026.69 5550.42 71.07
2796 15.0240 3670.71 4139.16 60.51
2797 15.0280 2930.97 3012.47 54.46
2798 15.0340 2369.76 2200.02 48.61
2799 15.0390 1930.33 1662.50 43.99
2800 15.0430 1670.37 1328.54 40.72
2801 15.0490 1511.55 1127.57 38.93
2802 15.0540 1300.57 1005.38 35.99
2803 15.0590 1096.45 927.09 33.29
2804 15.0640 1061.82 872.85 32.56
2805 15.0690 955.72 832.35 31.01
2806 15.0740 847.37 800.46 29.00
2807 15.0780 851.76 774.51 29.23
2808 15.0830 793.16 752.92 28.07
2809 15.0890 838.38 734.84 29.07
2810 15.0940 761.01 719.51 27.62
2811 15.0990 755.62 706.40 27.61
2812 15.1040 698.53 695.13 26.34
2813 15.1080 717.28 685.38 26.84
2814 15.1130 662.09 676.88 25.59
2815 15.1190 683.20 669.44 26.24
2816 15.1240 682.73 662.91 26.08
2817 15.1280 674.00 657.14 26.12
2818 15.1340 641.63 651.29 25.29
2819 15.1390 633.82 646.75 25.19
2820 15.1440 639.89 642.71 25.22
2821 15.1490 649.36 639.09 25.55
2822 15.1540 652.21 635.85 25.45
2823 15.1590 632.97 632.93 25.30
2824 15.1630 700.06 630.30 26.41
2825 15.1680 716.01 627.93 26.81
2826 15.1740 668.42 625.79 25.70
2827 15.1790 689.44 623.85 26.33
2828 15.1840 665.80 622.09 25.72
2829 15.1890 682.90 620.51 26.19
2830 15.1930 601.86 617.73 24.52
2831 15.1980 639.13 616.45 25.38
2832 15.2040 624.86 616.32 24.84
2833 15.2090 623.03 615.30 24.96
2834 15.2140 608.03 614.37 24.61
2835 15.2190 634.34 613.55 25.26
2836 15.2240 597.42 612.81 24.38
2837 15.2290 579.49 612.16 24.19
2838 15.2340 642.79 611.58 25.26
2839 15.2390 650.49 611.09 25.51
2840 15.2430 606.12 610.66 24.56
2841 15.2480 607.22 610.31 24.70
2842 15.2540 591.66 610.03 24.23
2843 15.2590 604.88 609.83 24.67
2844 15.2640 590.09 609.69 24.26
2845 15.2690 613.55 609.64 24.83
2846 15.2740 575.72 609.67 23.84
2847 15.2780 596.75 609.81 24.48
2848 15.2830 601.42 610.05 24.44
2849 15.2890 639.08 610.44 25.36
2850 15.2940 590.81 611.02 24.27
2851 15.2990 626.62 611.90 25.12
2852 15.3040 607.14 613.26 24.48
2853 15.3090 594.77 615.41 24.41
2854 15.3140 637.32 618.84 25.17
2855 15.3190 636.17 624.24 25.28
2856 15.3240 658.34 632.36 25.57
2857 15.3280 647.67 643.92 25.57
2858 15.3330 652.19 659.19 25.43
2859 15.3390 639.54 677.67 25.30
2860 15.3440 717.02 697.63 26.66
2861 15.3490 697.91 715.71 26.47
2862 15.3540 734.27 726.98 27.01
2863 15.3590 775.39 727.14 27.97
2864 15.3630 748.05 716.15 27.31
2865 15.3680 718.03 698.28 26.78
2866 15.3740 713.65 678.43 26.55
2867 15.3790 715.38 660.97 26.79
2868 15.3840 706.18 645.77 26.49
2869 15.3890 758.20 634.27 27.61
2870 15.3940 762.84 626.20 27.59
2871 15.3990 745.09 620.87 27.38
2872 15.4040 718.62 617.51 26.69
2873 15.4090 720.19 619.32 26.85
2874 15.4130 700.63 618.10 26.35
2875 15.4180 665.89 617.35 25.88
2876 15.4240 649.58 616.89 25.41
2877 15.4290 682.16 616.61 26.21
2878 15.4340 641.92 616.46 25.29
2879 15.4390 619.68 616.41 24.90
2880 15.4440 600.39 616.44 24.40
2881 15.4480 622.89 616.54 25.05
2882 15.4530 659.93 616.69 25.60
2883 15.4590 657.96 610.93 25.75
2884 15.4640 605.79 611.31 24.58
2885 15.4690 596.30 611.72 24.43
2886 15.4740 626.45 612.17 24.90
2887 15.4790 641.79 612.65 25.41
2888 15.4830 637.48 613.17 25.21
2889 15.4890 608.60 613.71 24.79
2890 15.4940 590.64 614.29 24.30
2891 15.4980 608.62 614.91 24.75
2892 15.5030 638.10 615.56 25.16
2893 15.5090 612.74 616.24 24.78
2894 15.5140 630.57 616.96 25.05
2895 15.5190 597.15 617.72 24.53
2896 15.5240 613.50 618.53 24.76
2897 15.5290 618.52 619.38 24.99
2898 15.5330 635.76 620.28 25.15
2899 15.5380 623.03 621.23 25.01
2900 15.5440 642.22 622.25 25.30
2901 15.5490 608.34 623.34 24.75
2902 15.5540 650.65 624.50 25.46
2903 15.5590 629.81 625.75 25.21
2904 15.5640 632.19 627.09 25.10
2905 15.5680 649.24 628.54 25.58
2906 15.5740 634.07 630.12 25.13
2907 15.5790 581.89 631.84 24.20
2908 15.5830 631.90 633.72 25.07
2909 15.5890 682.72 635.79 26.25
2910 15.5940 622.78 638.08 24.97
2911 15.5990 645.35 640.63 25.51
2912 15.6040 608.03 643.50 24.56
2913 15.6090 611.92 646.73 24.81
2914 15.6130 659.69 650.41 25.70
2915 15.6180 702.12 654.64 26.63
2916 15.6240 663.59 659.55 25.70
2917 15.6290 671.93 665.34 26.06
2918 15.6340 624.64 672.33 24.98
2919 15.6390 672.85 681.06 26.01
2920 15.6440 734.08 692.52 27.05
2921 15.6490 698.31 708.50 26.55
2922 15.6530 751.06 732.02 27.32
2923 15.6590 785.48 767.90 28.20
2924 15.6640 873.37 822.80 29.54
2925 15.6680 955.25 904.74 31.00
2926 15.6740 1027.02 1021.33 31.94
2927 15.6790 1119.08 1176.89 33.60
2928 15.6840 1280.79 1368.56 35.70
2929 15.6890 1523.66 1582.49 39.20
2930 15.6940 1853.42 1789.04 43.14
2931 15.6980 2087.34 1940.89 45.90
2932 15.7030 2174.67 1986.97 46.45
2933 15.7090 2017.49 1908.75 45.06
2934 15.7140 1672.05 1737.99 40.86
2935 15.7190 1378.54 1527.69 37.27
2936 15.7240 1261.20 1320.38 35.48
2937 15.7290 1040.36 1140.64 32.42
2938 15.7330 913.12 998.92 30.16
2939 15.7380 876.67 895.42 29.69
2940 15.7440 831.90 824.61 28.78
2941 15.7490 824.85 778.60 28.85
2942 15.7530 745.49 749.60 27.23
2943 15.7590 721.24 731.49 27.03
2944 15.7640 713.61 720.02 26.69
2945 15.7690 685.91 712.60 26.29
2946 15.7740 686.82 707.73 26.11
2947 15.7790 656.97 704.60 25.72
2948 15.7830 649.24 702.78 25.43
2949 15.7880 656.16 702.01 25.74
2950 15.7940 646.67 702.16 25.43
2951 15.7990 627.28 704.62 25.18
2952 15.8040 681.57 706.42 26.04
2953 15.8090 640.43 708.99 25.36
2954 15.8140 667.34 712.32 25.76
2955 15.8180 724.55 716.46 26.98
2956 15.8230 680.02 721.43 26.03
2957 15.8290 649.85 727.33 25.65
2958 15.8340 727.52 734.30 26.98
2959 15.8390 709.60 742.35 26.71
2960 15.8440 729.31 751.71 26.92
2961 15.8490 656.38 762.47 25.71
2962 15.8540 697.86 775.11 26.35
2963 15.8590 706.35 789.84 26.73
2964 15.8640 713.03 807.13 26.67
2965 15.8680 779.74 827.57 28.00
2966 15.8730 775.67 852.05 27.77
2967 15.8790 850.16 881.98 29.25
2968 15.8840 855.21 919.56 29.18
2969 15.8890 919.91 968.56 30.46
2970 15.8940 1006.22 1035.08 31.73
2971 15.8990 1055.39 1128.75 32.64
2972 15.9030 1241.02 1263.47 35.12
2973 15.9080 1455.77 1458.03 38.32
2974 15.9140 1723.58 1734.53 41.39
2975 15.9190 2060.89 2114.69 45.56
2976 15.9240 2631.64 2614.41 51.27
2977 15.9290 3285.95 3235.56 57.52
2978 15.9340 4129.09 3956.42 64.14
2979 15.9390 4954.32 4717.58 70.75
2980 15.9440 5896.37 5408.36 76.56
2981 15.9490 6563.71 5867.84 81.41
2982 15.9530 6692.45 5947.06 81.83
2983 15.9580 5985.46 5616.57 77.80
2984 15.9640 5017.43 4992.16 70.78
2985 15.9690 3966.09 4241.94 63.22
2986 15.9740 3021.28 3497.51 54.74
2987 15.9790 2400.57 2835.45 49.13
2988 15.9830 1907.42 2289.78 43.56
2989 15.9880 1641.11 1866.34 40.67
2990 15.9940 1374.16 1553.45 37.06
2991 15.9990 1250.03 1330.92 35.51
2992 16.0030 1113.42 1176.14 33.25
2993 16.0090 974.41 1068.92 31.27
2994 16.0140 958.92 993.48 30.86
2995 16.0180 884.55 938.66 29.86
2996 16.0240 822.45 897.17 28.65
2997 16.0290 792.95 864.51 28.26
2998 16.0340 796.34 837.96 28.14
2999 16.0380 766.54 815.86 27.77
3000 16.0440 769.38 797.17 27.63
3001 16.0490 742.09 781.18 27.33
3002 16.0530 731.23 767.39 27.00
3003 16.0590 748.90 755.41 27.52
3004 16.0630 672.98 744.96 25.88
3005 16.0690 704.78 735.79 26.60
3006 16.0730 656.16 727.72 25.48
3007 16.0790 657.32 720.57 25.73
3008 16.0830 696.39 714.23 26.35
3009 16.0880 689.40 708.59 26.41
3010 16.0940 665.16 703.55 25.77
3011 16.0980 617.61 699.04 24.91
3012 16.1040 677.93 697.45 25.92
3013 16.1080 696.33 693.87 26.46
3014 16.1140 660.90 690.66 25.66
3015 16.1180 649.26 687.78 25.60
3016 16.1240 663.77 685.20 25.71
3017 16.1280 655.42 682.89 25.73
3018 16.1330 664.78 680.82 25.65
3019 16.1390 633.37 678.97 25.21
3020 16.1440 657.64 677.34 25.61
3021 16.1490 676.52 675.89 26.15
3022 16.1530 670.98 674.62 25.89
3023 16.1590 632.70 673.52 25.28
3024 16.1640 699.93 672.58 26.36
3025 16.1690 660.77 676.50 25.72
3026 16.1740 644.67 675.96 25.34
3027 16.1790 646.65 678.02 25.53
3028 16.1840 633.38 677.82 25.13
3029 16.1880 689.02 677.76 26.40
3030 16.1940 639.18 677.85 25.26
3031 16.1990 669.49 678.09 25.96
3032 16.2040 680.35 677.40 25.96
3033 16.2080 743.68 677.97 27.36
3034 16.2130 640.52 678.72 25.31
3035 16.2190 692.10 679.65 26.38
3036 16.2230 641.37 680.78 25.32
3037 16.2290 647.07 682.12 25.57
3038 16.2330 658.72 683.70 25.59
3039 16.2390 717.65 685.54 26.80
3040 16.2430 638.76 687.67 25.22
3041 16.2490 639.49 690.13 25.44
3042 16.2530 668.53 692.98 25.82
3043 16.2590 712.67 696.26 26.81
3044 16.2640 713.77 700.06 26.67
3045 16.2680 701.75 704.45 26.53
3046 16.2740 692.43 709.57 26.21
3047 16.2780 674.27 715.55 26.04
3048 16.2840 704.78 722.63 26.50
3049 16.2880 737.13 731.10 27.30
3050 16.2940 749.84 741.49 27.32
3051 16.2990 753.62 754.57 27.58
3052 16.3030 787.46 771.66 27.90
3053 16.3090 860.88 794.82 29.39
3054 16.3140 821.83 827.13 28.56
3055 16.3190 890.11 872.91 29.97
3056 16.3230 959.55 937.67 30.92
3057 16.3290 1053.66 1027.66 32.56
3058 16.3340 1200.41 1148.69 34.55
3059 16.3380 1378.10 1304.63 37.12
3060 16.3440 1594.62 1495.46 39.81
3061 16.3480 1827.41 1713.97 42.97
3062 16.3540 2109.54 1942.76 45.84
3063 16.3580 2362.48 2149.46 48.80
3064 16.3640 2564.70 2288.86 50.57
3065 16.3680 2577.96 2319.10 50.75
3066 16.3740 2356.19 2230.48 48.31
3067 16.3780 2118.01 2052.86 46.12
3068 16.3830 1736.46 1832.30 41.63
3069 16.3890 1527.47 1607.68 39.20
3070 16.3930 1364.81 1403.49 36.84
3071 16.3990 1143.75 1231.34 33.93
3072 16.4030 1068.35 1094.78 32.51
3073 16.4090 984.22 991.65 31.36
3074 16.4130 947.92 916.92 30.67
3075 16.4190 858.09 864.30 29.41
3076 16.4240 839.71 827.86 28.93
3077 16.4290 822.98 802.64 28.78
3078 16.4340 817.31 784.95 28.45
3079 16.4380 829.81 772.25 28.81
3080 16.4440 782.35 762.93 27.86
3081 16.4490 756.31 755.98 27.58
3082 16.4540 767.83 750.79 27.63
3083 16.4580 720.92 746.98 26.93
3084 16.4640 721.25 744.34 26.74
3085 16.4690 762.94 742.69 27.63
3086 16.4730 714.59 741.93 26.59
3087 16.4790 721.40 742.00 26.88
3088 16.4840 748.43 742.85 27.28
3089 16.4890 696.55 744.46 26.45
3090 16.4930 751.57 746.84 27.36
3091 16.4990 704.37 749.98 26.61
3092 16.5040 751.17 749.92 27.28
3093 16.5080 761.56 754.83 27.58
3094 16.5140 785.69 760.70 27.92
3095 16.5180 795.19 767.63 28.24
3096 16.5240 823.76 775.77 28.67
3097 16.5280 838.46 784.33 29.02
3098 16.5340 879.16 795.59 29.52
3099 16.5380 915.71 808.92 30.25
3100 16.5440 939.28 824.97 30.47
3101 16.5490 965.38 844.75 31.18
3102 16.5530 1087.45 870.13 32.91
3103 16.5590 1193.84 904.28 34.64
3104 16.5630 1236.70 952.43 35.06
3105 16.5690 1372.90 1022.68 37.13
3106 16.5730 1524.93 1126.09 38.78
3107 16.5790 1676.97 1275.94 40.99
3108 16.5830 1810.51 1484.74 42.42
3109 16.5880 1966.39 1760.36 44.52
3110 16.5940 2150.80 2099.82 46.23
3111 16.5990 2389.13 2482.99 49.10
3112 16.6040 2486.94 2866.62 49.64
3113 16.6080 2714.10 3179.92 52.12
3114 16.6140 2866.42 3339.30 53.37
3115 16.6190 2982.46 3298.16 54.78
3116 16.6240 3140.38 3089.36 55.92
3117 16.6280 3132.42 2797.91 56.15
3118 16.6330 3040.07 2507.37 55.03
3119 16.6390 2956.85 2278.87 54.40
3120 16.6430 2840.84 2155.18 53.02
3121 16.6490 2875.06 2168.69 53.83
3122 16.6540 3035.52 2348.90 54.96
3123 16.6590 3314.19 2725.89 57.80
3124 16.6630 3686.39 3327.61 60.73
3125 16.6690 4022.46 4172.84 63.45
3126 16.6740 4678.09 5253.13 68.09
3127 16.6780 5512.89 6514.96 74.50
3128 16.6840 6466.56 7837.84 80.38
3129 16.6880 7760.36 9013.72 88.41
3130 16.6940 8774.35 9779.06 93.67
3131 16.6980 9704.43 9933.72 99.05
3132 16.7040 9606.89 9400.56 97.79
3133 16.7080 8583.89 8350.01 92.81
3134 16.7140 7305.24 7041.49 85.32
3135 16.7190 5955.51 5712.21 77.59
3136 16.7230 4807.56 4516.17 69.19
3137 16.7290 3794.51 3527.36 61.90
3138 16.7340 3064.66 2763.23 55.26
3139 16.7390 2498.23 2203.86 50.05
3140 16.7430 2141.04 1811.28 45.98
3141 16.7490 1828.39 1542.88 42.95
3142 16.7530 1601.41 1360.81 39.94
3143 16.7580 1414.70 1235.30 37.71
3144 16.7640 1273.09 1145.76 35.61
3145 16.7690 1192.10 1079.01 34.58
3146 16.7740 1134.81 1026.97 33.52
3147 16.7780 1014.33 984.89 31.92
3148 16.7840 984.83 949.95 31.30
3149 16.7890 863.79 920.43 29.44
3150 16.7940 888.16 895.19 29.73
3151 16.7990 792.17 873.41 28.21
3152 16.8030 841.24 854.50 28.88
3153 16.8090 846.09 837.98 29.09
3154 16.8130 826.52 823.48 28.72
3155 16.8190 808.96 810.70 28.47
3156 16.8230 775.43 799.40 27.74
3157 16.8290 797.93 789.36 28.33
3158 16.8330 791.09 780.43 28.01
3159 16.8380 857.44 772.46 29.33
3160 16.8440 832.52 765.33 28.72
3161 16.8480 829.09 758.95 28.87
3162 16.8540 835.91 753.22 28.83
3163 16.8580 765.23 748.08 27.70
3164 16.8640 743.37 743.46 27.21
3165 16.8680 753.11 739.32 27.50
3166 16.8740 704.10 735.60 26.37
3167 16.8780 730.47 732.27 27.04
3168 16.8840 766.74 729.29 27.58
3169 16.8890 691.29 726.64 26.38
3170 16.8930 733.27 724.29 26.98
3171 16.8990 693.13 722.22 26.42
3172 16.9040 703.52 720.40 26.41
3173 16.9090 741.41 718.83 27.18
3174 16.9130 719.48 717.49 26.73
3175 16.9190 721.50 716.37 26.92
3176 16.9240 736.89 715.38 27.05
3177 16.9280 716.80 714.67 26.81
3178 16.9340 682.04 714.14 26.03
3179 16.9390 687.43 712.29 26.22
3180 16.9440 669.91 712.16 25.72
3181 16.9480 707.43 712.21 26.65
3182 16.9540 701.42 712.44 26.40
3183 16.9590 718.80 712.85 26.85
3184 16.9630 697.32 713.43 26.34
3185 16.9690 694.90 714.19 26.35
3186 16.9730 683.64 715.13 25.97
3187 16.9790 670.32 716.27 25.88
3188 16.9830 738.79 717.59 27.11
3189 16.9890 669.34 719.12 25.95
3190 16.9930 689.39 720.82 26.15
3191 16.9990 695.10 722.77 26.45
3192 17.0030 705.44 724.94 26.46
3193 17.0080 717.05 727.35 26.75
3194 17.0140 726.13 730.01 26.82
3195 17.0180 703.78 732.94 26.55
3196 17.0240 722.52 736.16 26.75
3197 17.0280 719.00 739.69 26.90
3198 17.0340 739.23 743.54 27.08
3199 17.0380 725.23 747.75 26.91
3200 17.0440 688.47 752.35 26.06
3201 17.0490 704.61 757.37 26.59
3202 17.0540 716.95 762.84 26.66
3203 17.0590 751.86 768.81 27.46
3204 17.0630 728.70 781.23 26.90
3205 17.0690 725.05 791.13 26.96
3206 17.0740 784.69 799.09 27.85
3207 17.0790 720.82 807.79 26.84
3208 17.0830 768.45 817.32 27.58
3209 17.0880 769.42 827.77 27.73
3210 17.0940 764.00 839.27 27.52
3211 17.0980 734.79 851.92 27.15
3212 17.1040 805.47 865.91 28.29
3213 17.1080 790.46 881.37 28.06
3214 17.1140 766.40 898.55 27.55
3215 17.1180 789.61 917.65 28.08
3216 17.1240 827.30 938.99 28.59
3217 17.1290 854.63 961.16 29.28
3218 17.1330 858.32 988.08 29.21
3219 17.1390 881.37 1018.50 29.73
3220 17.1430 934.97 1053.01 30.37
3221 17.1490 998.53 1092.39 31.59
3222 17.1530 1105.33 1137.55 33.09
3223 17.1590 1215.80 1189.81 34.84
3224 17.1630 1254.71 1250.84 35.32
3225 17.1690 1414.25 1323.12 37.69
3226 17.1740 1621.98 1410.25 40.05
3227 17.1780 1865.44 1518.06 43.18
3228 17.1840 2117.74 1655.68 45.76
3229 17.1890 2556.20 1837.37 50.52
3230 17.1940 3009.39 2085.13 54.64
3231 17.1980 3528.32 2430.86 59.66
3232 17.2040 4211.52 2917.97 64.69
3233 17.2090 4877.52 3599.42 69.79
3234 17.2130 5747.06 4532.82 75.59
3235 17.2190 6903.90 5770.60 83.01
3236 17.2240 7802.02 7336.69 87.97
3237 17.2290 9030.69 9220.19 95.33
3238 17.2330 10377.10 11337.60 101.97
3239 17.2390 12242.70 13500.30 111.05
3240 17.2440 13467.40 15387.60 115.71
3241 17.2490 14609.00 16580.80 121.29
3242 17.2530 15766.50 16714.20 125.08
3243 17.2580 15738.20 15746.10 125.93
3244 17.2640 14925.30 13983.20 122.40
3245 17.2680 13168.80 11855.30 115.12
3246 17.2740 11014.40 9708.28 104.60
3247 17.2780 8735.83 7759.79 93.62
3248 17.2840 6783.94 6114.17 82.04
3249 17.2880 5415.04 4802.27 73.68
3250 17.2940 4334.02 3802.26 65.64
3251 17.2990 3395.82 3067.78 58.49
3252 17.3030 2861.48 2541.19 53.31
3253 17.3090 2331.65 2167.07 48.22
3254 17.3130 1971.45 1900.12 44.15
3255 17.3190 1667.99 1705.67 40.85
3256 17.3230 1542.07 1559.82 39.08
3257 17.3290 1410.73 1445.92 37.64
3258 17.3330 1297.25 1355.09 35.94
3259 17.3390 1207.23 1287.71 34.76
3260 17.3440 1170.61 1225.07 33.99
3261 17.3480 1074.56 1171.76 32.82
3262 17.3540 1026.77 1125.91 31.89
3263 17.3590 1002.82 1086.22 31.68
3264 17.3640 966.24 1051.67 31.02
3265 17.3680 945.12 1021.44 30.77
3266 17.3740 950.68 994.90 30.64
3267 17.3790 820.85 971.55 28.61
3268 17.3830 812.80 950.97 28.39
3269 17.3890 749.82 932.77 27.41
3270 17.3940 778.33 916.69 27.78
3271 17.3990 802.26 902.47 28.39
3272 17.4030 796.23 889.91 28.10
3273 17.4090 773.37 878.84 27.74
3274 17.4140 782.91 869.12 27.84
3275 17.4190 747.80 860.62 27.34
3276 17.4240 774.81 853.25 27.72
3277 17.4280 726.17 846.92 26.96
3278 17.4340 792.39 841.56 28.06
3279 17.4380 752.54 837.11 27.45
3280 17.4440 756.08 833.54 27.30
3281 17.4480 782.30 830.81 27.98
3282 17.4540 690.61 828.90 26.20
3283 17.4580 739.19 827.80 27.18
3284 17.4630 736.81 827.51 27.03
3285 17.4690 758.87 828.03 27.56
3286 17.4740 744.14 829.39 27.12
3287 17.4790 715.49 831.62 26.69
3288 17.4830 731.48 834.76 26.91
3289 17.4890 736.39 838.87 27.15
3290 17.4930 742.64 844.01 27.14
3291 17.4990 780.94 850.28 28.06
3292 17.5030 805.93 857.79 28.25
3293 17.5090 798.22 866.67 28.18
3294 17.5140 794.57 877.08 27.98
3295 17.5180 831.13 889.23 28.83
3296 17.5240 848.74 903.36 28.99
3297 17.5290 840.98 919.77 29.03
3298 17.5340 906.90 938.84 30.00
3299 17.5380 925.12 961.07 30.45
3300 17.5440 936.07 987.10 30.40
3301 17.5490 1069.01 1017.80 32.63
3302 17.5530 1078.98 1054.44 32.67
3303 17.5590 1168.70 1098.93 34.23
3304 17.5630 1298.01 1154.08 35.93
3305 17.5690 1419.95 1224.25 37.67
3306 17.5730 1546.58 1315.86 39.10
3307 17.5790 1760.80 1438.53 41.88
3308 17.5830 1954.31 1605.44 44.01
3309 17.5880 2143.13 1834.05 46.32
3310 17.5940 2536.09 2146.03 50.14
3311 17.5980 2854.12 2564.70 53.49
3312 17.6040 3191.18 3112.64 56.20
3313 17.6080 3743.26 3804.65 61.16
3314 17.6140 4301.65 4642.47 65.33
3315 17.6180 4957.87 5601.19 70.47
3316 17.6240 5821.66 6619.32 75.98
3317 17.6280 6760.57 7583.34 82.39
3318 17.6330 7795.98 8334.89 88.07
3319 17.6390 8542.44 8703.83 92.65
3320 17.6440 9132.29 8592.16 95.17
3321 17.6490 8702.91 8027.93 93.45
3322 17.6530 7697.52 7150.34 87.57
3323 17.6590 6481.19 6134.12 80.63
3324 17.6640 5238.54 5123.07 72.09
3325 17.6690 4221.87 4206.58 65.16
3326 17.6740 3516.13 3429.14 59.06
3327 17.6790 2835.41 2803.55 53.25
3328 17.6840 2330.23 2321.49 48.08
3329 17.6880 2073.66 1963.44 45.56
3330 17.6940 1775.76 1703.99 41.98
3331 17.6990 1610.83 1518.85 40.23
3332 17.7040 1506.83 1386.79 38.72
3333 17.7080 1328.97 1291.47 36.44
3334 17.7130 1181.66 1221.18 34.23
3335 17.7190 1159.55 1168.02 34.08
3336 17.7230 1116.80 1126.98 33.27
3337 17.7290 1107.52 1094.82 33.37
3338 17.7330 1066.49 1069.58 32.55
3339 17.7390 954.64 1049.99 30.92
3340 17.7430 966.99 1035.25 30.98
3341 17.7490 992.58 1024.80 31.56
3342 17.7530 956.08 1018.33 30.78
3343 17.7580 952.25 1015.62 30.89
3344 17.7640 946.50 1016.63 30.69
3345 17.7680 907.48 1021.41 30.21
3346 17.7740 976.33 1030.18 31.13
3347 17.7780 959.36 1043.34 30.97
3348 17.7840 893.44 1061.63 29.79
3349 17.7880 927.45 1086.19 30.54
3350 17.7940 986.18 1118.93 31.32
3351 17.7990 1025.94 1162.80 32.11
3352 17.8030 1124.24 1223.98 33.37
3353 17.8090 1203.88 1297.99 34.77
3354 17.8140 1276.01 1411.49 35.59
3355 17.8190 1430.33 1567.75 37.89
3356 17.8230 1662.06 1779.74 40.67
3357 17.8290 1907.86 2060.47 43.70
3358 17.8340 2310.68 2419.98 47.97
3359 17.8380 2920.50 2862.28 54.20
3360 17.8440 3577.07 3381.57 59.61
3361 17.8480 4380.27 3955.06 66.25
3362 17.8540 5046.87 4537.58 70.99
3363 17.8580 5959.86 5052.04 77.33
3364 17.8640 6394.72 5400.36 79.85
3365 17.8690 6513.65 5498.48 80.94
3366 17.8740 6044.19 5332.75 77.50
3367 17.8780 5220.52 4972.78 72.30
3368 17.8830 4451.08 4519.37 66.57
3369 17.8890 3854.61 4086.41 62.27
3370 17.8930 3365.22 3740.47 57.82
3371 17.8990 3245.32 3532.79 57.15
3372 17.9030 3246.38 3500.41 56.77
3373 17.9090 3495.56 3668.72 59.18
3374 17.9130 3762.48 4051.25 61.08
3375 17.9190 4522.12 4647.93 67.51
3376 17.9240 5440.08 5437.97 73.50
3377 17.9290 6339.08 6373.50 79.96
3378 17.9340 7683.09 7366.19 87.48
3379 17.9380 8942.75 8273.50 94.73
3380 17.9440 9972.40 8903.37 99.77
3381 17.9490 10782.50 9073.76 103.91
3382 17.9540 10343.50 8720.28 101.54
3383 17.9580 9112.74 7941.65 95.97
3384 17.9640 7299.18 6926.30 85.28
3385 17.9690 5676.02 5850.23 75.41
3386 17.9730 4401.97 4832.93 66.11
3387 17.9790 3340.56 3940.25 57.86
3388 17.9840 2730.25 3200.45 51.98
3389 17.9890 2277.66 2614.90 47.85
3390 17.9930 1986.54 2168.87 44.42
3391 17.9990 1713.25 1838.85 41.44
3392 18.0040 1552.11 1599.27 39.32
3393 18.0080 1326.21 1426.16 36.47
3394 18.0140 1284.70 1299.70 35.60
3395 18.0180 1107.05 1205.28 33.30
3396 18.0240 1103.30 1132.48 33.07
3397 18.0280 1031.06 1074.52 32.15
3398 18.0340 995.62 1026.90 31.47
3399 18.0380 1001.17 986.91 31.71
3400 18.0440 937.73 952.72 30.51
3401 18.0490 890.36 923.16 29.84
3402 18.0530 875.14 897.36 29.45
3403 18.0590 853.20 874.71 29.22
3404 18.0630 817.73 854.74 28.49
3405 18.0690 795.41 837.06 28.25
3406 18.0730 757.01 821.35 27.38
3407 18.0790 774.66 807.37 27.84
3408 18.0830 784.92 794.92 27.87
3409 18.0880 719.72 783.80 26.83
3410 18.0940 728.94 773.88 26.94
3411 18.0990 760.63 765.05 27.59
3412 18.1040 667.04 757.20 25.71
3413 18.1080 702.04 750.25 26.54
3414 18.1140 696.34 744.15 26.29
3415 18.1190 719.56 738.84 26.78
3416 18.1240 683.83 734.29 26.04
3417 18.1280 698.77 730.49 26.50
3418 18.1340 705.94 727.42 26.49
3419 18.1390 740.35 725.10 27.25
3420 18.1430 730.25 723.56 26.86
3421 18.1490 716.53 722.83 26.72
3422 18.1540 744.56 723.01 27.20
3423 18.1590 722.58 724.22 26.94
3424 18.1630 714.93 726.65 26.64
3425 18.1690 766.22 730.63 27.69
3426 18.1740 740.57 736.69 27.04
3427 18.1780 778.34 745.65 27.92
3428 18.1840 765.49 758.81 27.55
3429 18.1880 796.17 778.06 28.25
3430 18.1940 828.32 806.04 28.67
3431 18.1980 859.86 846.02 29.39
3432 18.2040 927.49 901.88 30.29
3433 18.2080 971.41 977.36 31.16
3434 18.2140 1113.62 1075.44 33.15
3435 18.2190 1237.96 1195.89 35.22
3436 18.2230 1392.36 1336.35 37.24
3437 18.2290 1566.02 1494.28 39.64
3438 18.2330 1778.32 1652.76 42.02
3439 18.2390 1902.54 1789.40 43.54
3440 18.2430 2111.77 1875.09 45.77
3441 18.2490 2082.94 1885.91 45.70
3442 18.2530 1947.64 1818.33 44.00
3443 18.2580 1761.05 1691.79 42.07
3444 18.2640 1524.49 1535.31 38.87
3445 18.2690 1231.25 1373.94 35.13
3446 18.2740 1107.41 1223.88 33.13
3447 18.2780 1015.04 1093.86 31.86
3448 18.2840 888.79 987.20 29.70
3449 18.2890 857.33 903.73 29.34
3450 18.2940 815.04 837.03 28.47
3451 18.2990 800.98 791.22 28.34
3452 18.3030 775.86 758.54 27.74
3453 18.3090 727.73 735.49 26.96
3454 18.3130 750.42 719.27 27.25
3455 18.3190 683.61 707.78 26.24
3456 18.3230 702.79 699.59 26.41
3457 18.3290 726.28 693.79 26.98
3458 18.3330 677.23 689.78 25.95
3459 18.3380 695.32 687.24 26.38
3460 18.3440 708.63 685.96 26.51
3461 18.3480 651.65 685.86 25.58
3462 18.3540 701.74 686.91 26.44
3463 18.3580 694.33 689.13 26.39
3464 18.3640 722.23 692.61 26.83
3465 18.3680 710.08 697.49 26.69
3466 18.3740 736.80 704.03 26.94
3467 18.3780 748.38 712.60 27.39
3468 18.3840 732.31 723.82 27.00
3469 18.3890 804.36 738.63 28.39
3470 18.3930 822.07 758.46 28.65
3471 18.3990 883.48 785.40 29.78
3472 18.4040 893.16 822.28 29.76
3473 18.4090 1069.11 872.85 32.66
3474 18.4130 1089.41 941.57 32.90
3475 18.4190 1176.10 1033.35 34.35
3476 18.4240 1335.65 1152.90 36.43
3477 18.4280 1535.90 1303.21 39.30
3478 18.4340 1656.81 1485.48 40.58
3479 18.4390 1886.66 1696.35 43.48
3480 18.4440 2074.44 1926.48 45.35
3481 18.4480 2210.58 2157.47 47.05
3482 18.4540 2412.11 2359.56 49.06
3483 18.4590 2574.50 2494.00 50.78
3484 18.4630 2600.97 2526.93 50.87
3485 18.4690 2602.80 2448.75 51.20
3486 18.4730 2475.77 2280.89 49.44
3487 18.4790 2196.06 2061.38 46.86
3488 18.4830 1856.40 1826.38 42.91
3489 18.4890 1561.66 1596.19 39.62
3490 18.4930 1322.85 1394.39 36.29
3491 18.4990 1156.46 1222.96 34.09
3492 18.5030 1070.28 1083.68 32.62
3493 18.5080 915.56 973.87 30.20
3494 18.5140 862.76 889.82 29.23
3495 18.5180 848.69 826.80 29.15
3496 18.5240 781.84 779.95 27.87
3497 18.5280 711.41 745.09 26.71
3498 18.5340 703.62 718.80 26.46
3499 18.5380 726.22 698.55 26.94
3500 18.5440 675.85 682.50 25.84
3501 18.5490 672.94 669.43 25.94
3502 18.5540 676.05 658.53 25.91
3503 18.5590 622.40 641.28 24.98
3504 18.5630 611.56 633.38 24.65
3505 18.5690 597.17 626.49 24.46
3506 18.5740 594.01 620.42 24.26
3507 18.5790 570.29 615.05 23.83
3508 18.5830 619.44 610.26 24.76
3509 18.5880 597.40 605.97 24.47
3510 18.5940 609.26 602.11 24.63
3511 18.5980 643.97 598.63 25.42
3512 18.6040 616.04 595.47 24.73
3513 18.6090 577.91 592.59 24.01
3514 18.6140 601.71 589.96 24.36
3515 18.6180 580.40 587.55 24.11
3516 18.6240 586.03 585.34 24.11
3517 18.6290 596.62 583.29 24.46
3518 18.6330 569.57 581.40 23.78
3519 18.6390 608.03 579.65 24.67
3520 18.6430 601.21 578.02 24.37
3521 18.6490 571.44 576.50 23.85
3522 18.6530 625.99 575.08 24.95
3523 18.6590 632.72 573.75 25.23
3524 18.6630 572.22 572.51 23.78
3525 18.6690 566.84 571.33 23.84
3526 18.6740 618.95 570.23 24.76
3527 18.6780 617.46 569.19 24.79
3528 18.6840 609.32 568.20 24.58
3529 18.6890 622.77 567.27 24.95
3530 18.6940 618.89 566.39 24.79
3531 18.6980 635.32 565.55 25.24
3532 18.7040 651.42 564.75 25.49
3533 18.7080 669.79 563.99 25.79
3534 18.7130 642.67 563.26 25.21
3535 18.7190 609.65 562.57 24.69
3536 18.7240 605.44 561.91 24.46
3537 18.7290 611.76 561.27 24.80
3538 18.7330 609.87 560.66 24.65
3539 18.7390 590.60 560.08 24.30
3540 18.7440 586.88 559.53 24.10
3541 18.7490 596.37 558.99 24.40
3542 18.7530 583.92 558.47 24.05
3543 18.7580 570.36 557.98 23.90
3544 18.7640 609.16 557.50 24.61
3545 18.7680 602.34 557.04 24.60
3546 18.7740 535.08 556.60 23.05
3547 18.7780 560.03 556.17 23.63
3548 18.7840 566.87 555.76 23.67
3549 18.7880 546.96 555.36 23.42
3550 18.7940 538.99 554.98 23.15
3551 18.7990 564.93 554.61 23.85
3552 18.8030 557.01 554.26 23.51
3553 18.8090 592.93 553.92 24.33
3554 18.8130 561.04 553.59 23.54
3555 18.8190 545.84 553.18 23.39
3556 18.8230 541.89 552.88 23.24
3557 18.8290 538.65 552.59 23.24
3558 18.8330 543.81 552.31 23.33
3559 18.8390 555.87 552.04 23.58
3560 18.8440 568.36 551.78 23.67
3561 18.8480 553.76 551.54 23.53
3562 18.8540 581.59 551.30 24.06
3563 18.8590 600.23 551.08 24.56
3564 18.8640 536.61 550.87 23.11
3565 18.8680 577.75 549.57 24.05
3566 18.8740 572.30 549.40 23.82
3567 18.8790 594.55 549.25 24.34
3568 18.8830 560.74 549.10 23.63
3569 18.8890 546.82 548.98 23.41
3570 18.8940 584.14 548.86 24.10
3571 18.8990 558.38 548.77 23.68
3572 18.9030 595.01 548.68 24.31
3573 18.9090 594.07 548.62 24.35
3574 18.9140 547.84 548.57 23.26
3575 18.9190 544.63 548.54 23.39
3576 18.9240 551.77 548.54 23.40
3577 18.9280 599.35 548.56 24.53
3578 18.9340 532.86 548.60 23.06
3579 18.9380 562.24 548.67 23.71
3580 18.9440 563.12 548.77 23.59
3581 18.9480 602.27 548.91 24.54
3582 18.9540 551.35 549.08 23.42
3583 18.9580 569.62 549.30 23.90
3584 18.9630 547.78 549.56 23.29
3585 18.9690 557.18 549.87 23.66
3586 18.9730 564.60 550.25 23.66
3587 18.9790 577.41 550.69 23.98
3588 18.9830 562.55 551.21 23.61
3589 18.9890 579.18 551.82 24.06
3590 18.9930 504.02 552.53 22.38
3591 18.9990 546.90 553.36 23.44
3592 19.0030 570.33 556.53 23.81
3593 19.0090 554.64 557.70 23.53
3594 19.0140 552.71 559.08 23.36
3595 19.0180 548.03 560.71 23.41
3596 19.0240 566.08 562.66 23.72
3597 19.0290 600.37 565.04 24.54
3598 19.0340 580.60 567.98 24.03
3599 19.0380 557.05 571.72 23.60
3600 19.0440 596.83 576.59 24.27
3601 19.0490 591.88 583.05 24.30
3602 19.0530 587.50 591.76 24.13
3603 19.0590 591.95 603.57 24.38
3604 19.0630 608.58 619.51 24.60
3605 19.0690 639.66 640.79 25.32
3606 19.0730 680.45 668.55 25.92
3607 19.0790 687.62 703.46 26.16
3608 19.0840 708.58 746.46 26.48
3609 19.0880 766.66 796.66 27.71
3610 19.0940 830.12 852.04 28.74
3611 19.0980 913.41 908.40 30.25
3612 19.1040 977.40 959.21 31.12
3613 19.1080 1090.31 995.96 32.99
3614 19.1140 1114.99 1010.56 33.16
3615 19.1180 1038.48 998.93 32.21
3616 19.1240 1035.09 962.01 32.08
3617 19.1280 910.59 911.22 30.15
3618 19.1330 845.40 853.83 28.99
3619 19.1390 752.78 796.92 27.42
3620 19.1440 745.24 745.01 27.12
3621 19.1490 666.84 700.38 25.78
3622 19.1530 618.80 663.82 24.77
3623 19.1590 628.24 635.06 25.06
3624 19.1630 624.58 613.20 24.87
3625 19.1690 558.39 596.96 23.64
3626 19.1740 577.39 585.10 23.93
3627 19.1790 570.77 576.44 23.82
3628 19.1840 593.59 570.05 24.26
3629 19.1880 548.09 565.22 23.41
3630 19.1940 543.42 561.46 23.21
3631 19.1990 577.22 558.45 24.04
3632 19.2040 579.78 555.96 23.97
3633 19.2080 550.37 553.86 23.45
3634 19.2130 568.26 552.06 23.70
3635 19.2190 522.62 550.49 22.87
3636 19.2230 593.89 549.12 24.25
3637 19.2290 545.53 547.91 23.35
3638 19.2330 560.82 546.84 23.63
3639 19.2390 560.40 545.89 23.67
3640 19.2430 529.14 545.05 22.92
3641 19.2490 560.36 544.29 23.65
3642 19.2530 566.05 543.61 23.67
3643 19.2580 567.05 543.00 23.78
3644 19.2640 579.96 542.45 23.98
3645 19.2680 542.10 541.96 23.32
3646 19.2740 573.15 541.52 23.87
3647 19.2780 596.29 541.12 24.39
3648 19.2840 557.29 540.77 23.52
3649 19.2880 563.77 540.45 23.68
3650 19.2940 534.98 540.17 23.03
3651 19.2990 548.11 539.92 23.44
3652 19.3030 567.30 539.71 23.80
3653 19.3090 520.34 539.52 22.81
3654 19.3140 526.01 539.36 22.82
3655 19.3190 539.43 539.23 23.20
3656 19.3230 556.44 539.13 23.46
3657 19.3290 542.12 540.34 23.28
3658 19.3340 511.68 540.31 22.58
3659 19.3380 511.01 540.30 22.63
3660 19.3440 512.98 540.32 22.57
3661 19.3490 552.72 540.36 23.49
3662 19.3540 550.12 540.44 23.39
3663 19.3580 533.16 540.53 23.10
3664 19.3640 504.61 540.66 22.38
3665 19.3690 534.16 540.81 23.16
3666 19.3740 555.74 541.00 23.55
3667 19.3780 499.35 541.21 22.33
3668 19.3830 567.30 541.45 23.72
3669 19.3890 526.18 541.73 22.94
3670 19.3930 513.95 542.04 22.58
3671 19.3990 580.38 542.39 24.17
3672 19.4030 553.65 542.78 23.54
3673 19.4090 559.07 543.22 23.64
3674 19.4130 502.49 543.69 22.29
3675 19.4190 558.91 544.22 23.63
3676 19.4240 549.17 544.80 23.37
3677 19.4280 555.11 545.43 23.59
3678 19.4340 532.36 546.13 23.06
3679 19.4380 537.01 546.89 23.20
3680 19.4440 554.82 547.73 23.44
3681 19.4480 558.04 548.65 23.63
3682 19.4540 535.74 549.66 23.14
3683 19.4580 516.27 550.77 22.74
3684 19.4640 523.08 551.98 22.80
3685 19.4690 524.79 553.67 22.99
3686 19.4730 549.82 555.15 23.41
3687 19.4790 546.96 556.78 23.36
3688 19.4840 568.60 558.59 23.79
3689 19.4890 542.27 560.59 23.32
3690 19.4930 574.18 562.81 23.88
3691 19.4990 567.74 565.30 23.89
3692 19.5040 536.51 568.09 23.14
3693 19.5080 571.12 571.23 23.94
3694 19.5140 616.88 575.90 24.70
3695 19.5180 606.48 580.06 24.69
3696 19.5240 599.99 584.93 24.44
3697 19.5280 639.11 590.83 25.29
3698 19.5340 618.85 597.89 24.85
3699 19.5380 641.90 606.67 25.39
3700 19.5440 631.47 617.77 25.06
3701 19.5490 675.07 631.96 25.97
3702 19.5530 710.76 650.18 26.58
3703 19.5590 686.45 673.44 26.26
3704 19.5630 759.90 702.67 27.51
3705 19.5690 808.17 738.61 28.53
3706 19.5730 822.64 781.41 28.65
3707 19.5790 859.73 830.48 29.28
3708 19.5830 928.67 884.02 30.35
3709 19.5880 960.57 938.79 31.00
3710 19.5940 996.35 989.87 31.52
3711 19.5990 1027.36 1031.61 32.10
3712 19.6040 1125.14 1060.65 33.53
3713 19.6080 1202.26 1078.91 34.73
3714 19.6140 1198.19 1093.69 34.41
3715 19.6190 1271.85 1114.51 35.72
3716 19.6240 1268.42 1149.94 35.54
3717 19.6280 1334.29 1206.22 36.52
3718 19.6340 1368.27 1286.91 36.95
3719 19.6390 1378.69 1392.70 37.27
3720 19.6430 1420.49 1520.91 37.54
3721 19.6490 1546.51 1664.68 39.27
3722 19.6540 1564.29 1811.50 39.47
3723 19.6590 1589.98 1942.56 39.96
3724 19.6630 1649.23 2034.33 40.55
3725 19.6690 1818.96 2065.44 42.75
3726 19.6740 1787.02 2026.56 42.13
3727 19.6780 1804.28 1925.70 42.41
3728 19.6840 1826.51 1782.93 42.56
3729 19.6880 1763.95 1620.83 42.07
3730 19.6940 1721.20 1457.22 41.42
3731 19.6980 1629.49 1303.90 40.42
3732 19.7040 1443.56 1167.13 37.93
3733 19.7080 1303.81 1049.86 36.14
3734 19.7130 1222.11 952.44 34.76
3735 19.7190 1103.15 873.57 33.21
3736 19.7230 948.14 811.17 30.75
3737 19.7290 855.04 762.59 29.30
3738 19.7330 791.44 725.20 28.10
3739 19.7390 744.38 696.22 27.30
3740 19.7430 697.57 674.10 26.31
3741 19.7490 698.34 656.87 26.43
3742 19.7530 658.37 643.25 25.59
3743 19.7580 606.93 632.30 24.71
3744 19.7640 617.60 623.34 24.86
3745 19.7690 617.85 615.93 24.87
3746 19.7740 565.92 609.73 23.71
3747 19.7780 576.18 604.53 23.98
3748 19.7840 557.51 600.16 23.55
3749 19.7890 572.95 596.52 23.97
3750 19.7940 532.16 593.52 23.07
3751 19.7990 555.94 590.92 23.64
3752 19.8030 571.57 589.06 23.88
3753 19.8090 580.06 587.71 24.12
3754 19.8130 567.65 590.51 23.71
3755 19.8190 584.10 590.21 24.23
3756 19.8240 576.30 590.40 23.96
3757 19.8290 574.16 591.12 24.01
3758 19.8330 572.98 592.38 23.94
3759 19.8380 595.58 594.24 24.43
3760 19.8440 565.92 596.79 23.69
3761 19.8480 641.96 600.14 25.39
3762 19.8540 646.84 604.46 25.43
3763 19.8580 646.38 610.02 25.50
3764 19.8640 650.89 617.22 25.49
3765 19.8680 690.72 626.59 26.35
3766 19.8740 747.32 638.94 27.26
3767 19.8780 738.77 655.36 27.23
3768 19.8840 802.01 677.25 28.27
3769 19.8890 805.91 706.36 28.44
3770 19.8930 815.77 744.72 28.59
3771 19.8990 855.40 794.44 29.35
3772 19.9030 920.28 857.40 30.29
3773 19.9090 945.05 935.00 30.80
3774 19.9130 946.59 1027.35 30.71
3775 19.9190 1095.06 1132.90 33.15
3776 19.9240 1099.07 1247.27 33.13
3777 19.9280 1194.30 1362.56 34.67
3778 19.9340 1235.22 1466.29 35.09
3779 19.9390 1261.40 1542.37 35.61
3780 19.9440 1414.95 1575.65 37.54
3781 19.9480 1391.21 1558.59 37.42
3782 19.9540 1370.03 1495.43 37.02
3783 19.9590 1329.32 1399.66 36.51
3784 19.9630 1215.13 1287.47 34.86
3785 19.9690 1151.43 1172.49 34.05
3786 19.9730 1122.81 1064.20 33.42
3787 19.9790 1013.66 967.94 31.85
3788 19.9830 869.46 886.21 29.47
3789 19.9890 819.33 819.25 28.72
3790 19.9930 741.50 766.17 27.21
3791 19.9990 741.72 725.23 27.34
3792 20.0030 678.54 694.38 26.02
3793 20.0080 651.92 671.57 25.55
3794 20.0140 663.54 654.95 25.73
3795 20.0180 591.84 643.04 24.35
3796 20.0240 639.08 634.65 25.28
3797 20.0280 634.11 628.94 25.28
3798 20.0340 574.79 625.31 23.96
3799 20.0380 607.22 623.39 24.70
3800 20.0440 588.40 622.96 24.20
3801 20.0490 605.29 623.94 24.62
3802 20.0540 598.93 626.34 24.41
3803 20.0590 673.64 630.31 26.02
3804 20.0630 685.99 636.13 26.19
3805 20.0690 724.22 644.32 26.99
3806 20.0740 681.92 655.67 26.05
3807 20.0790 733.12 671.48 27.04
3808 20.0830 774.41 693.84 27.75
3809 20.0890 819.72 724.95 28.75
3810 20.0940 833.38 768.47 28.82
3811 20.0980 913.07 828.49 30.27
3812 20.1040 998.31 909.52 31.58
3813 20.1090 1066.60 1015.58 32.67
3814 20.1140 1172.81 1149.41 34.12
3815 20.1180 1223.35 1311.20 35.00
3816 20.1240 1407.19 1497.27 37.47
3817 20.1290 1559.55 1698.17 39.54
3818 20.1330 1679.82 1897.01 40.94
3819 20.1390 1841.35 2068.20 42.97
3820 20.1430 2007.60 2179.61 44.67
3821 20.1490 1986.16 2204.45 44.66
3822 20.1530 2082.73 2136.34 45.51
3823 20.1590 2015.22 1993.70 44.93
3824 20.1630 1935.53 1808.18 43.97
3825 20.1690 1702.31 1609.56 41.30
3826 20.1740 1580.75 1419.56 39.66
3827 20.1780 1381.19 1251.07 37.22
3828 20.1840 1257.03 1110.61 35.32
3829 20.1880 1048.36 999.95 32.35
3830 20.1940 983.86 917.18 31.29
3831 20.1980 906.97 858.46 30.20
3832 20.2040 839.14 818.41 28.95
3833 20.2080 836.57 791.68 28.95
3834 20.2130 721.44 772.50 26.78
3835 20.2190 728.81 756.09 26.98
3836 20.2240 765.24 739.24 27.59
3837 20.2290 722.21 720.85 26.92
3838 20.2330 698.72 701.40 26.39
3839 20.2390 625.39 682.03 25.05
3840 20.2440 640.92 663.79 25.24
3841 20.2490 585.73 647.35 24.22
3842 20.2530 592.94 633.08 24.27
3843 20.2580 583.26 621.08 24.16
3844 20.2640 587.12 611.29 24.20
3845 20.2680 580.98 603.53 24.15
3846 20.2740 579.67 597.54 24.00
3847 20.2780 575.12 593.05 24.01
3848 20.2840 591.36 589.80 24.25
3849 20.2880 556.28 587.56 23.58
3850 20.2940 546.59 586.86 23.36
3851 20.2990 519.23 586.71 22.84
3852 20.3030 535.66 586.59 23.09
3853 20.3090 500.28 586.99 22.39
3854 20.3130 595.07 587.69 24.37
3855 20.3190 584.23 589.06 24.19
3856 20.3230 579.68 590.90 24.00
3857 20.3290 541.02 593.23 23.31
3858 20.3330 571.85 596.07 23.89
3859 20.3390 550.30 599.45 23.55
3860 20.3440 545.25 603.72 23.26
3861 20.3480 556.38 608.33 23.62
3862 20.3540 566.28 613.66 23.76
3863 20.3590 558.70 619.79 23.68
3864 20.3640 570.37 626.82 23.90
3865 20.3680 554.63 634.89 23.59
3866 20.3740 604.99 644.15 24.52
3867 20.3780 627.29 654.80 25.03
3868 20.3830 597.86 667.13 24.37
3869 20.3890 617.13 681.49 24.91
3870 20.3940 662.62 696.73 25.68
3871 20.3990 667.20 717.03 25.92
3872 20.4030 706.10 741.85 26.58
3873 20.4090 707.61 773.00 26.59
3874 20.4140 719.13 813.13 26.70
3875 20.4190 826.56 866.14 28.78
3876 20.4240 873.48 937.36 29.52
3877 20.4280 954.81 1033.81 30.99
3878 20.4340 1066.06 1164.01 32.68
3879 20.4380 1219.28 1337.23 34.92
3880 20.4440 1465.97 1562.98 38.10
3881 20.4480 1766.77 1848.49 42.08
3882 20.4540 2047.67 2197.46 45.17
3883 20.4580 2490.07 2606.58 50.08
3884 20.4630 3177.21 3063.86 56.43
3885 20.4690 3865.84 3543.65 62.26
3886 20.4730 4653.55 4001.95 68.06
3887 20.4790 5363.98 4376.56 73.25
3888 20.4830 5759.07 4595.39 75.74
3889 20.4890 5677.43 4606.31 75.75
3890 20.4930 5123.17 4406.67 71.64
3891 20.4990 4124.28 4044.73 64.38
3892 20.5030 3341.12 3591.90 57.71
3893 20.5090 2623.42 3112.36 51.29
3894 20.5140 2180.13 2651.49 46.52
3895 20.5180 1738.35 2236.51 41.78
3896 20.5240 1563.56 1880.87 39.53
3897 20.5290 1380.96 1588.60 37.25
3898 20.5340 1143.79 1356.65 33.76
3899 20.5380 1064.70 1177.90 32.70
3900 20.5440 979.09 1043.19 31.22
3901 20.5490 853.71 943.15 29.23
3902 20.5530 848.79 869.14 29.12
3903 20.5590 773.31 813.95 27.85
3904 20.5640 776.88 771.97 27.80
3905 20.5690 723.04 739.46 26.97
3906 20.5730 655.49 713.52 25.58
3907 20.5790 618.64 692.23 24.88
3908 20.5840 616.41 674.38 24.79
3909 20.5880 625.61 659.17 25.09
3910 20.5940 634.44 646.02 25.17
3911 20.5980 564.02 634.58 23.79
3912 20.6040 557.37 624.54 23.61
3913 20.6080 570.20 615.72 23.87
3914 20.6140 534.22 607.93 23.04
3915 20.6180 575.02 601.06 24.03
3916 20.6240 536.08 594.99 23.10
3917 20.6280 593.82 589.64 24.41
3918 20.6330 574.47 584.93 23.95
3919 20.6390 579.46 580.54 24.13
3920 20.6430 599.50 577.00 24.39
3921 20.6490 600.20 573.99 24.52
3922 20.6530 561.63 571.51 23.67
3923 20.6590 542.42 569.59 23.33
3924 20.6630 557.98 568.29 23.62
3925 20.6690 566.73 567.73 23.84
3926 20.6740 553.85 567.46 23.50
3927 20.6790 589.53 569.05 24.30
3928 20.6840 581.22 572.27 24.01
3929 20.6880 573.99 577.64 24.03
3930 20.6940 612.04 585.82 24.70
3931 20.6990 620.29 597.47 24.97
3932 20.7040 634.54 613.22 25.09
3933 20.7080 697.44 633.49 26.45
3934 20.7130 691.80 658.34 26.21
3935 20.7190 690.80 687.24 26.31
3936 20.7230 665.88 718.84 25.77
3937 20.7290 685.68 750.73 26.23
3938 20.7330 719.93 779.11 26.75
3939 20.7390 729.42 799.10 27.05
3940 20.7430 751.37 806.07 27.35
3941 20.7490 764.06 798.06 27.63
3942 20.7540 707.77 776.97 26.59
3943 20.7580 696.22 747.38 26.43
3944 20.7640 682.81 714.15 26.06
3945 20.7680 662.47 681.09 25.75
3946 20.7740 664.13 650.66 25.73
3947 20.7780 620.13 624.23 24.90
3948 20.7840 611.47 601.16 24.64
3949 20.7880 624.46 583.73 25.03
3950 20.7940 539.78 570.35 23.18
3951 20.7990 555.82 560.41 23.61
3952 20.8030 508.85 553.21 22.51
3953 20.8090 497.52 548.10 22.32
3954 20.8140 518.92 544.53 22.66
3955 20.8190 536.79 542.09 23.20
3956 20.8230 515.49 540.47 22.62
3957 20.8290 552.91 539.30 23.55
3958 20.8340 523.23 538.75 22.83
3959 20.8380 568.53 538.59 23.89
3960 20.8440 518.16 538.77 22.72
3961 20.8490 540.36 539.26 23.22
3962 20.8540 556.83 540.04 23.54
3963 20.8580 561.04 541.14 23.70
3964 20.8640 523.36 542.57 22.80
3965 20.8690 543.05 544.32 23.36
3966 20.8740 567.19 546.24 23.77
3967 20.8780 548.99 548.75 23.45
3968 20.8830 526.15 551.70 22.80
3969 20.8890 510.71 555.16 22.61
3970 20.8930 558.60 559.17 23.59
3971 20.8990 565.24 563.85 23.79
3972 20.9030 550.17 569.33 23.49
3973 20.9090 571.81 575.77 23.94
3974 20.9130 573.31 583.34 23.85
3975 20.9190 574.02 592.62 23.95
3976 20.9240 632.83 604.06 25.08
3977 20.9280 622.19 618.47 24.93
3978 20.9340 675.78 637.02 25.97
3979 20.9380 688.15 661.33 26.34
3980 20.9440 745.04 693.54 27.20
3981 20.9480 771.42 736.33 27.80
3982 20.9540 809.35 792.90 28.39
3983 20.9580 873.64 866.65 29.53
3984 20.9640 1040.90 960.88 32.21
3985 20.9690 1164.37 1078.19 34.27
3986 20.9730 1276.42 1219.75 35.64
3987 20.9790 1463.15 1384.48 38.29
3988 20.9840 1734.32 1567.66 41.50
3989 20.9890 1966.30 1759.92 44.44
3990 20.9930 2056.13 1945.54 45.17
3991 20.9990 2222.37 2102.30 47.28
3992 21.0040 2440.47 2204.51 49.45
3993 21.0080 2399.92 2231.48 49.07
3994 21.0140 2423.33 2176.90 49.10
3995 21.0190 2185.50 2052.50 46.81
3996 21.0240 1947.76 1881.93 44.01
3997 21.0280 1622.21 1690.79 40.29
3998 21.0340 1355.66 1499.13 36.84
3999 21.0390 1235.54 1320.58 35.29
4000 21.0440 1066.63 1162.64 32.62
4001 21.0490 919.34 1028.77 30.30
4002 21.0530 809.94 919.10 28.37
4003 21.0590 790.15 831.91 28.17
4004 21.0630 723.09 764.32 26.84
4005 21.0690 731.52 712.80 27.12
4006 21.0730 642.96 673.95 25.36
4007 21.0790 630.03 644.67 25.13
4008 21.0830 626.84 622.44 24.94
4009 21.0880 597.36 605.26 24.48
4010 21.0940 594.00 591.67 24.33
4011 21.0990 592.86 580.68 24.38
4012 21.1040 599.87 571.58 24.50
4013 21.1080 550.84 563.89 23.55
4014 21.1140 570.01 557.29 23.77
4015 21.1180 557.53 551.58 23.63
4016 21.1240 576.65 546.61 23.91
4017 21.1280 584.89 542.28 24.25
4018 21.1340 567.45 538.53 23.81
4019 21.1390 561.36 535.32 23.77
4020 21.1430 536.48 532.63 23.12
4021 21.1490 492.45 530.46 22.17
4022 21.1540 520.97 528.79 22.78
4023 21.1590 560.26 527.66 23.70
4024 21.1630 503.82 523.05 22.38
4025 21.1690 504.28 522.97 22.50
4026 21.1740 516.46 523.32 22.69
4027 21.1780 532.69 523.98 23.08
4028 21.1840 533.04 524.77 22.97
4029 21.1880 489.91 525.42 22.14
4030 21.1940 534.67 525.60 23.09
4031 21.1980 540.13 524.99 23.22
4032 21.2040 539.78 523.44 23.22
4033 21.2080 531.79 521.03 23.09
4034 21.2130 510.22 518.05 22.51
4035 21.2190 519.55 514.82 22.76
4036 21.2230 527.31 511.60 22.88
4037 21.2290 486.42 508.58 22.12
4038 21.2330 497.02 505.85 22.25
4039 21.2390 462.77 504.14 21.60
4040 21.2430 517.18 502.10 22.66
4041 21.2490 519.11 500.38 22.70
4042 21.2530 511.24 498.94 22.56
4043 21.2580 494.18 497.74 22.26
4044 21.2640 478.20 496.74 21.80
4045 21.2690 517.92 495.89 22.81
4046 21.2740 510.82 495.16 22.57
4047 21.2780 488.84 494.51 22.09
4048 21.2840 477.09 493.94 21.73
4049 21.2890 486.52 493.42 22.06
4050 21.2940 537.44 492.95 23.09
4051 21.2990 537.10 493.45 23.23
4052 21.3040 530.73 493.06 23.02
4053 21.3090 491.55 492.70 22.18
4054 21.3130 540.41 492.36 23.16
4055 21.3190 497.58 492.04 22.26
4056 21.3240 494.48 491.75 22.17
4057 21.3290 513.71 491.47 22.67
4058 21.3330 491.05 491.21 22.13
4059 21.3380 479.66 490.97 21.95
4060 21.3440 463.99 490.75 21.44
4061 21.3480 494.84 490.54 22.23
4062 21.3540 527.11 490.34 22.91
4063 21.3580 481.13 490.15 21.97
4064 21.3640 480.21 489.98 21.87
4065 21.3680 483.00 489.82 22.01
4066 21.3740 512.94 489.66 22.58
4067 21.3780 484.52 489.52 22.02
4068 21.3830 478.15 489.39 21.78
4069 21.3890 465.44 489.27 21.59
4070 21.3930 518.21 489.15 22.71
4071 21.3990 523.98 489.05 22.97
4072 21.4030 483.24 488.95 21.96
4073 21.4090 483.79 488.62 22.05
4074 21.4130 502.58 488.54 22.33
4075 21.4190 498.84 488.47 22.33
4076 21.4240 481.81 488.40 21.92
4077 21.4280 512.48 488.35 22.69
4078 21.4340 507.61 488.30 22.48
4079 21.4390 494.31 488.25 22.31
4080 21.4440 492.01 488.22 22.17
4081 21.4480 483.84 489.77 21.99
4082 21.4540 482.55 489.77 21.91
4083 21.4590 514.51 489.77 22.71
4084 21.4630 502.45 489.78 22.39
4085 21.4690 472.25 489.79 21.82
4086 21.4730 515.52 489.81 22.70
4087 21.4790 469.87 489.84 21.70
4088 21.4830 536.68 489.87 23.08
4089 21.4890 483.50 489.91 22.03
4090 21.4940 494.99 489.95 22.23
4091 21.4990 477.20 490.00 21.89
4092 21.5030 489.08 490.05 22.14
4093 21.5080 506.26 490.12 22.55
4094 21.5140 497.69 490.19 22.25
4095 21.5180 538.74 490.26 23.23
4096 21.5240 498.02 490.34 22.28
4097 21.5280 493.90 490.43 22.31
4098 21.5340 492.68 490.52 22.18
4099 21.5380 474.72 490.62 21.89
4100 21.5440 510.95 491.52 22.57
4101 21.5490 514.92 491.64 22.72
4102 21.5540 465.48 491.77 21.58
4103 21.5590 455.17 491.91 21.38
4104 21.5630 516.80 492.05 22.72
4105 21.5690 505.35 492.20 22.58
4106 21.5740 521.88 492.35 22.79
4107 21.5790 536.54 492.51 23.24
4108 21.5830 487.08 492.68 22.01
4109 21.5890 497.74 492.86 22.36
4110 21.5940 513.32 493.05 22.65
4111 21.5980 511.30 493.24 22.68
4112 21.6040 523.88 493.44 22.91
4113 21.6090 520.07 493.65 22.91
4114 21.6140 488.19 493.86 22.08
4115 21.6180 495.44 494.09 22.25
4116 21.6240 514.65 494.33 22.66
4117 21.6290 503.07 494.57 22.49
4118 21.6330 489.34 494.82 22.11
4119 21.6390 515.47 495.09 22.80
4120 21.6430 505.45 495.36 22.49
4121 21.6490 505.81 495.65 22.51
4122 21.6530 526.99 495.95 22.92
4123 21.6590 494.12 496.25 22.32
4124 21.6630 498.98 496.57 22.31
4125 21.6690 536.68 496.91 23.24
4126 21.6740 505.35 497.25 22.52
4127 21.6780 498.69 497.61 22.38
4128 21.6840 511.80 497.66 22.54
4129 21.6880 504.01 498.06 22.50
4130 21.6940 510.95 498.47 22.58
4131 21.6980 506.27 498.90 22.59
4132 21.7040 520.26 499.35 22.88
4133 21.7080 465.50 499.81 21.67
4134 21.7130 515.81 500.29 22.65
4135 21.7190 492.08 500.15 22.19
4136 21.7240 490.46 500.05 22.10
4137 21.7290 556.29 500.61 23.67
4138 21.7330 513.01 501.21 22.66
4139 21.7390 507.18 501.69 22.63
4140 21.7440 540.27 502.34 23.25
4141 21.7490 503.48 503.02 22.48
4142 21.7530 514.02 503.72 22.57
4143 21.7590 518.73 504.47 22.86
4144 21.7640 558.55 505.24 23.65
4145 21.7680 504.13 506.06 22.55
4146 21.7740 484.10 506.92 22.01
4147 21.7790 533.85 507.82 23.16
4148 21.7840 512.93 508.78 22.60
4149 21.7880 518.22 509.78 22.83
4150 21.7940 476.67 510.84 21.83
4151 21.7990 515.90 511.96 22.82
4152 21.8030 539.39 513.15 23.25
4153 21.8090 537.01 514.41 23.23
4154 21.8130 543.10 515.75 23.28
4155 21.8190 522.10 519.36 22.85
4156 21.8230 497.35 520.92 22.30
4157 21.8290 538.13 522.57 23.30
4158 21.8330 550.13 524.34 23.45
4159 21.8390 557.33 526.24 23.69
4160 21.8440 539.47 528.28 23.22
4161 21.8480 529.78 530.47 23.04
4162 21.8540 525.73 532.83 22.90
4163 21.8580 563.69 535.39 23.84
4164 21.8640 562.84 538.16 23.72
4165 21.8680 607.24 541.17 24.74
4166 21.8740 564.85 544.46 23.76
4167 21.8780 547.63 548.06 23.45
4168 21.8830 571.67 553.77 23.85
4169 21.8890 563.27 558.12 23.79
4170 21.8940 571.36 562.96 23.90
4171 21.8990 552.11 568.33 23.57
4172 21.9030 639.47 574.61 25.28
4173 21.9090 637.15 581.39 25.33
4174 21.9140 613.22 589.09 24.74
4175 21.9190 625.71 597.98 25.05
4176 21.9240 659.53 608.37 25.64
4177 21.9280 692.57 620.78 26.36
4178 21.9340 720.71 635.91 26.92
4179 21.9380 745.87 654.74 27.41
4180 21.9440 762.22 678.68 27.55
4181 21.9480 827.06 709.54 28.82
4182 21.9540 928.55 749.62 30.44
4183 21.9580 949.33 801.63 30.90
4184 21.9630 1015.28 868.65 31.88
4185 21.9690 1095.77 953.76 33.28
4186 21.9730 1106.33 1059.53 33.22
4187 21.9790 1175.18 1187.84 34.29
4188 21.9830 1348.89 1338.73 36.66
4189 21.9890 1462.84 1510.09 38.35
4190 21.9930 1563.61 1696.16 39.58
4191 21.9990 1796.40 1886.99 42.59
4192 22.0030 1863.27 2066.79 43.14
4193 22.0090 1954.80 2212.60 44.33
4194 22.0140 2150.23 2301.27 46.33
4195 22.0180 2193.44 2314.12 46.93
4196 22.0240 2150.73 2249.23 46.41
4197 22.0290 2100.21 2120.97 46.03
4198 22.0340 1963.53 1952.73 44.31
4199 22.0380 1854.46 1767.64 43.23
4200 22.0440 1622.06 1583.42 40.21
4201 22.0490 1468.27 1411.90 38.39
4202 22.0530 1310.48 1259.79 36.19
4203 22.0590 1115.05 1130.02 33.53
4204 22.0640 1030.64 1023.18 32.11
4205 22.0690 926.06 937.94 30.57
4206 22.0730 855.04 871.88 29.27
4207 22.0790 824.07 822.07 28.75
4208 22.0840 781.81 785.54 27.96
4209 22.0880 754.23 759.54 27.57
4210 22.0940 741.41 741.77 27.20
4211 22.0980 713.80 730.44 26.85
4212 22.1040 721.78 724.29 26.85
4213 22.1080 687.84 722.56 26.26
4214 22.1140 732.72 724.94 27.07
4215 22.1180 707.66 731.54 26.71
4216 22.1240 694.41 742.93 26.34
4217 22.1280 739.89 760.10 27.32
4218 22.1330 765.16 784.58 27.70
4219 22.1390 876.01 818.34 29.68
4220 22.1430 789.86 863.77 28.08
4221 22.1490 932.25 923.64 30.61
4222 22.1530 976.64 1000.67 31.24
4223 22.1590 1126.05 1097.41 33.70
4224 22.1630 1243.58 1215.81 35.28
4225 22.1690 1362.60 1355.86 37.12
4226 22.1740 1591.58 1516.27 39.83
4227 22.1790 1798.82 1692.84 42.44
4228 22.1840 2041.52 1877.49 45.17
4229 22.1880 2212.65 2057.12 47.16
4230 22.1940 2451.57 2213.17 49.58
4231 22.1990 2633.20 2323.91 51.56
4232 22.2040 2656.05 2371.60 51.56
4233 22.2080 2567.53 2350.85 50.80
4234 22.2130 2311.71 2272.38 48.01
4235 22.2190 2176.71 2157.89 46.78
4236 22.2230 1930.88 2031.37 43.93
4237 22.2290 1713.81 1912.24 41.57
4238 22.2340 1595.70 1813.82 40.01
4239 22.2390 1568.52 1743.19 39.69
4240 22.2430 1599.28 1702.24 39.93
4241 22.2490 1678.05 1687.89 41.12
4242 22.2540 1701.24 1692.42 41.17
4243 22.2580 1826.54 1703.52 42.86
4244 22.2640 1898.34 1705.77 43.64
4245 22.2680 1878.75 1684.62 43.47
4246 22.2740 1835.36 1631.99 42.77
4247 22.2780 1549.53 1549.62 39.38
4248 22.2840 1425.29 1446.52 37.70
4249 22.2880 1190.44 1334.14 34.59
4250 22.2940 1058.28 1222.09 32.52
4251 22.2990 964.34 1117.17 31.17
4252 22.3030 872.91 1023.29 29.53
4253 22.3090 821.76 942.39 28.72
4254 22.3140 823.22 874.98 28.61
4255 22.3190 744.62 820.38 27.34
4256 22.3230 681.35 777.27 26.10
4257 22.3290 688.05 743.94 26.28
4258 22.3330 707.23 718.60 26.58
4259 22.3380 644.25 699.56 25.44
4260 22.3440 619.09 685.34 24.85
4261 22.3490 656.86 674.80 25.67
4262 22.3540 676.64 667.02 25.97
4263 22.3580 648.84 661.36 25.56
4264 22.3640 613.18 657.36 24.71
4265 22.3690 590.53 654.74 24.37
4266 22.3740 614.81 653.31 24.80
4267 22.3780 617.48 652.95 24.84
4268 22.3830 630.78 653.60 25.09
4269 22.3890 633.14 655.26 25.21
4270 22.3930 580.46 657.94 24.03
4271 22.3990 629.59 661.70 25.16
4272 22.4030 642.39 666.62 25.35
4273 22.4090 631.96 672.87 25.22
4274 22.4130 673.51 680.65 25.86
4275 22.4190 730.87 690.33 27.08
4276 22.4240 702.77 702.41 26.44
4277 22.4280 717.59 717.70 26.82
4278 22.4340 774.31 737.43 27.80
4279 22.4380 828.19 763.37 28.87
4280 22.4440 914.20 798.07 30.20
4281 22.4480 963.11 844.92 31.04
4282 22.4540 1066.67 908.36 32.62
4283 22.4580 1149.94 993.54 33.95
4284 22.4640 1250.14 1106.10 35.26
4285 22.4690 1360.90 1251.41 37.05
4286 22.4730 1535.75 1433.70 39.18
4287 22.4790 1763.96 1654.50 42.04
4288 22.4840 1884.21 1911.51 43.32
4289 22.4890 2062.19 2197.14 45.49
4290 22.4930 2308.68 2496.44 47.99
4291 22.4990 2511.57 2785.31 50.33
4292 22.5040 2740.20 3029.31 52.40
4293 22.5080 3003.17 3193.09 54.95
4294 22.5140 3245.06 3235.11 56.85
4295 22.5190 3279.98 3150.66 57.39
4296 22.5240 3070.04 2959.64 55.40
4297 22.5280 2722.67 2699.79 52.37
4298 22.5340 2372.79 2409.50 48.74
4299 22.5390 2062.92 2119.48 45.53
4300 22.5440 1731.06 1850.06 41.57
4301 22.5490 1565.16 1613.20 39.61
4302 22.5530 1344.63 1414.36 36.61
4303 22.5590 1223.59 1254.20 35.07
4304 22.5630 1130.92 1130.22 33.63
4305 22.5690 1062.83 1037.68 32.75
4306 22.5730 1000.11 971.28 31.60
4307 22.5790 999.94 925.66 31.66
4308 22.5830 969.55 896.26 31.08
4309 22.5880 916.57 879.40 30.37
4310 22.5940 960.19 872.59 30.99
4311 22.5980 1019.35 874.35 32.04
4312 22.6040 1034.22 884.22 32.14
4313 22.6080 1086.62 902.64 33.07
4314 22.6140 1140.75 930.94 33.65
4315 22.6180 1140.47 971.27 33.83
4316 22.6240 1278.67 1026.74 35.77
4317 22.6280 1379.73 1101.14 37.20
4318 22.6340 1400.13 1199.01 37.48
4319 22.6390 1512.92 1325.24 39.02
4320 22.6430 1658.60 1484.64 40.67
4321 22.6490 1835.11 1681.27 42.92
4322 22.6540 1906.29 1917.24 43.57
4323 22.6590 2071.25 2191.94 45.70
4324 22.6630 2271.37 2500.25 47.68
4325 22.6690 2448.00 2830.86 49.65
4326 22.6740 2684.14 3163.63 51.91
4327 22.6780 2918.19 3469.02 54.08
4328 22.6840 3188.24 3710.03 56.37
4329 22.6880 3269.22 3849.39 57.33
4330 22.6940 3462.48 3863.11 58.85
4331 22.6980 3552.83 3749.51 59.88
4332 22.7040 3578.93 3528.54 59.88
4333 22.7090 3440.21 3233.78 58.85
4334 22.7130 3111.57 2901.52 55.70
4335 22.7190 2866.94 2562.64 53.68
4336 22.7230 2554.95 2240.18 50.43
4337 22.7290 2166.57 1948.17 46.70
4338 22.7330 1915.03 1694.26 43.74
4339 22.7390 1642.53 1479.34 40.64
4340 22.7430 1430.92 1304.41 37.84
4341 22.7490 1227.37 1164.60 35.13
4342 22.7530 1159.84 1055.08 34.02
4343 22.7580 1070.73 970.31 32.82
4344 22.7640 981.84 905.12 31.32
4345 22.7690 855.64 854.98 29.33
4346 22.7740 826.32 816.09 28.72
4347 22.7780 831.13 785.48 28.88
4348 22.7840 761.59 760.94 27.51
4349 22.7890 716.48 740.88 26.82
4350 22.7940 718.14 724.15 26.86
4351 22.7990 670.01 709.20 25.93
4352 22.8040 697.51 697.03 26.41
4353 22.8090 664.87 686.47 25.84
4354 22.8130 641.47 677.24 25.29
4355 22.8190 675.09 669.14 26.00
4356 22.8240 635.08 662.01 25.22
4357 22.8290 682.59 655.74 26.18
4358 22.8330 695.67 650.22 26.32
4359 22.8380 570.20 645.37 23.99
4360 22.8440 556.26 641.12 23.55
4361 22.8480 648.91 637.44 25.52
4362 22.8540 643.34 634.27 25.33
4363 22.8580 645.05 631.58 25.46
4364 22.8640 623.69 629.35 24.96
4365 22.8680 619.30 627.56 24.96
4366 22.8740 627.83 626.21 25.06
4367 22.8780 633.93 625.30 25.23
4368 22.8830 642.38 624.87 25.25
4369 22.8890 607.73 624.96 24.72
4370 22.8930 627.45 625.63 25.03
4371 22.8990 643.43 626.99 25.44
4372 22.9030 643.59 629.18 25.37
4373 22.9090 660.23 635.32 25.76
4374 22.9130 673.95 639.85 25.94
4375 22.9190 671.71 645.97 25.89
4376 22.9240 689.39 653.99 26.20
4377 22.9280 673.41 664.30 26.02
4378 22.9340 680.04 677.27 26.06
4379 22.9390 727.41 693.22 27.01
4380 22.9440 714.23 712.38 26.72
4381 22.9480 739.08 734.83 27.23
4382 22.9540 763.57 760.44 27.50
4383 22.9590 756.27 786.92 27.58
4384 22.9630 730.37 816.90 27.03
4385 22.9690 802.09 846.98 28.36
4386 22.9740 824.01 874.77 28.71
4387 22.9790 820.16 897.22 28.66
4388 22.9830 857.66 911.11 29.16
4389 22.9890 888.71 914.22 29.81
4390 22.9940 837.29 906.19 28.92
4391 22.9990 933.64 887.87 30.63
4392 23.0030 873.68 864.04 29.51
4393 23.0080 889.90 837.01 30.00
4394 23.0140 819.31 809.41 28.56
4395 23.0180 859.56 783.13 29.33
4396 23.0240 801.36 759.31 28.23
4397 23.0280 830.13 738.62 28.84
4398 23.0340 787.37 721.31 27.99
4399 23.0380 737.13 707.40 27.29
4400 23.0440 730.67 696.74 27.03
4401 23.0490 724.34 689.04 26.89
4402 23.0540 680.80 683.99 26.07
4403 23.0590 690.81 681.23 26.31
4404 23.0630 664.22 680.47 25.70
4405 23.0690 659.26 681.43 25.74
4406 23.0730 679.20 683.90 26.11
4407 23.0790 697.45 687.75 26.52
4408 23.0830 666.47 692.89 25.78
4409 23.0890 679.34 699.32 26.09
4410 23.0940 680.39 707.08 26.00
4411 23.0980 706.67 716.31 26.59
4412 23.1040 673.18 727.21 25.97
4413 23.1090 734.46 740.07 27.21
4414 23.1140 759.04 755.30 27.61
4415 23.1180 726.09 773.44 26.92
4416 23.1240 796.95 795.22 28.15
4417 23.1290 795.72 821.55 28.26
4418 23.1330 851.50 853.59 29.13
4419 23.1390 880.66 892.86 29.77
4420 23.1430 965.59 941.19 31.11
4421 23.1490 1032.66 1000.97 32.26
4422 23.1530 1151.14 1075.00 33.84
4423 23.1590 1257.78 1166.79 35.52
4424 23.1630 1426.61 1280.17 37.73
4425 23.1690 1552.52 1419.48 39.47
4426 23.1740 1678.96 1588.90 41.04
4427 23.1780 1975.81 1793.29 44.63
4428 23.1840 2219.68 2037.39 47.01
4429 23.1880 2500.24 2324.74 50.18
4430 23.1940 2683.33 2656.88 51.65
4431 23.1980 2969.56 3029.66 54.59
4432 23.2040 3498.95 3432.21 59.21
4433 23.2080 3845.44 3841.25 62.34
4434 23.2130 4246.38 4228.74 65.12
4435 23.2190 4572.68 4548.95 67.69
4436 23.2240 4940.78 4753.62 70.29
4437 23.2290 5114.07 4804.90 71.58
4438 23.2330 5097.68 4691.04 71.56
4439 23.2390 4922.00 4432.39 70.54
4440 23.2440 4323.13 4072.00 65.78
4441 23.2490 3635.59 3658.01 60.48
4442 23.2530 3223.40 3231.26 56.57
4443 23.2590 2581.70 2820.92 50.83
4444 23.2640 2206.21 2445.23 47.06
4445 23.2680 1920.07 2114.52 43.93
4446 23.2740 1622.33 1832.16 40.32
4447 23.2790 1392.15 1597.86 37.42
4448 23.2840 1307.19 1407.90 36.06
4449 23.2880 1274.76 1256.55 35.65
4450 23.2940 1047.14 1138.23 32.34
4451 23.2990 1076.41 1046.45 32.92
4452 23.3030 980.15 975.44 31.29
4453 23.3090 944.95 920.23 30.90
4454 23.3130 809.03 876.91 28.39
4455 23.3190 795.17 842.38 28.18
4456 23.3230 791.17 815.56 28.08
4457 23.3290 762.03 792.37 27.69
4458 23.3330 748.61 772.84 27.34
4459 23.3380 710.91 756.13 26.78
4460 23.3440 679.90 741.66 26.05
4461 23.3480 668.12 729.01 25.86
4462 23.3540 666.31 717.88 25.75
4463 23.3580 696.21 708.04 26.44
4464 23.3640 626.68 699.31 25.03
4465 23.3680 633.45 691.54 25.23
4466 23.3740 653.60 685.05 25.57
4467 23.3780 625.83 678.90 25.12
4468 23.3830 609.24 672.87 24.59
4469 23.3890 657.14 668.00 25.64
4470 23.3940 649.64 663.15 25.48
4471 23.3990 592.79 659.33 24.41
4472 23.4030 607.27 655.97 24.65
4473 23.4090 620.38 653.03 24.99
4474 23.4140 600.10 650.47 24.48
4475 23.4190 619.11 648.28 24.86
4476 23.4240 657.36 646.44 25.62
4477 23.4280 618.98 644.92 24.92
4478 23.4340 583.13 643.71 24.13
4479 23.4380 615.32 642.81 24.92
4480 23.4440 637.85 642.20 25.25
4481 23.4490 606.30 641.88 24.65
4482 23.4540 592.85 641.86 24.28
4483 23.4580 621.84 642.13 24.99
4484 23.4630 617.27 642.69 24.84
4485 23.4690 622.53 643.57 24.99
4486 23.4730 596.98 644.76 24.48
4487 23.4790 608.51 645.98 24.74
4488 23.4830 580.90 647.87 24.02
4489 23.4890 637.30 650.14 25.27
4490 23.4930 620.70 652.82 24.90
4491 23.4990 670.88 653.95 25.98
4492 23.5030 600.63 657.59 24.52
4493 23.5090 609.09 661.77 24.78
4494 23.5140 625.71 666.56 25.00
4495 23.5180 609.78 672.04 24.71
4496 23.5240 657.13 678.30 25.63
4497 23.5290 707.53 685.46 26.67
4498 23.5340 676.02 693.69 25.99
4499 23.5380 717.17 703.19 26.86
4500 23.5440 691.21 714.28 26.31
4501 23.5490 726.52 727.39 27.02
4502 23.5530 778.39 743.18 27.84
4503 23.5590 793.02 762.72 28.25
4504 23.5640 765.69 787.21 27.65
4505 23.5690 876.76 818.75 29.70
4506 23.5730 882.59 860.09 29.80
4507 23.5790 931.61 914.87 30.61
4508 23.5840 1032.80 987.49 32.10
4509 23.5880 1092.97 1083.10 33.14
4510 23.5940 1164.13 1207.29 34.10
4511 23.5980 1329.36 1365.10 36.56
4512 23.6040 1482.12 1560.65 38.51
4513 23.6080 1746.62 1795.48 42.03
4514 23.6140 1865.87 2068.30 43.23
4515 23.6180 2194.56 2372.52 46.90
4516 23.6240 2682.95 2695.76 51.86
4517 23.6280 3152.23 3016.95 56.33
4518 23.6330 3611.83 3306.46 60.16
4519 23.6390 4050.69 3527.36 63.95
4520 23.6430 4509.68 3644.94 67.33
4521 23.6490 4252.75 3641.76 65.47
4522 23.6530 3924.82 3526.47 62.62
4523 23.6590 3318.31 3329.04 57.85
4524 23.6630 2804.79 3086.49 52.97
4525 23.6690 2471.47 2829.94 49.93
4526 23.6740 2284.21 2580.82 47.92
4527 23.6790 2019.68 2350.14 45.16
4528 23.6840 1911.37 2141.09 43.74
4529 23.6880 1826.18 1952.04 42.73
4530 23.6940 1651.10 1779.88 40.67
4531 23.6990 1614.40 1622.71 40.35
4532 23.7040 1506.15 1480.15 38.90
4533 23.7080 1339.25 1352.67 36.80
4534 23.7140 1269.49 1240.47 35.70
4535 23.7190 1156.30 1143.02 34.00
4536 23.7230 1078.59 1059.37 32.86
4537 23.7290 1035.40 988.88 32.29
4538 23.7340 895.53 928.69 29.92
4539 23.7390 912.92 878.23 30.41
4540 23.7430 819.09 836.25 28.66
4541 23.7490 787.04 801.55 28.15
4542 23.7540 788.11 773.04 28.08
4543 23.7580 718.24 749.68 26.91
4544 23.7640 693.14 730.51 26.37
4545 23.7680 684.90 714.74 26.30
4546 23.7740 656.95 701.67 25.66
4547 23.7780 670.59 690.74 26.04
4548 23.7840 682.49 681.51 26.15
4549 23.7880 673.10 673.63 26.02
4550 23.7940 644.60 667.13 25.39
4551 23.7990 682.79 661.23 26.23
4552 23.8030 639.18 656.08 25.35
4553 23.8090 624.95 651.55 25.13
4554 23.8130 626.24 647.24 25.05
4555 23.8190 612.02 643.77 24.83
4556 23.8230 651.65 640.77 25.56
4557 23.8290 640.26 638.19 25.38
4558 23.8330 644.01 636.03 25.42
4559 23.8380 632.31 634.28 25.25
4560 23.8440 630.85 632.97 25.13
4561 23.8490 636.55 632.11 25.35
4562 23.8540 631.94 631.75 25.14
4563 23.8580 599.91 631.93 24.57
4564 23.8640 635.84 632.70 25.25
4565 23.8690 609.82 634.11 24.79
4566 23.8740 667.15 636.20 25.88
4567 23.8780 629.76 638.99 25.21
4568 23.8830 623.71 642.37 25.00
4569 23.8890 635.41 646.49 25.28
4570 23.8930 656.71 651.12 25.64
4571 23.8990 685.14 656.07 26.26
4572 23.9030 647.22 660.99 25.45
4573 23.9090 700.90 665.47 26.65
4574 23.9130 669.08 668.97 25.92
4575 23.9190 701.28 671.04 26.56
4576 23.9240 679.15 671.43 26.06
4577 23.9280 696.76 670.24 26.48
4578 23.9340 661.02 667.89 25.72
4579 23.9380 650.29 664.90 25.59
4580 23.9440 657.86 661.77 25.70
4581 23.9480 672.74 658.94 26.05
4582 23.9540 671.09 656.69 25.94
4583 23.9580 674.34 655.22 26.03
4584 23.9640 661.01 653.80 25.73
4585 23.9690 657.74 654.22 25.78
4586 23.9730 685.61 656.76 26.21
4587 23.9790 698.74 659.34 26.54
4588 23.9840 718.40 663.09 26.85
4589 23.9890 704.91 668.11 26.57
4590 23.9930 720.43 674.60 26.84
4591 23.9990 761.04 682.85 27.69
4592 24.0040 790.34 693.31 28.16
4593 24.0080 802.15 706.65 28.48
4594 24.0140 806.17 723.87 28.39
4595 24.0190 834.43 745.23 29.01
4596 24.0240 901.00 772.17 29.98
4597 24.0280 972.60 810.66 31.30
4598 24.0340 1014.99 860.84 31.92
4599 24.0390 1043.36 925.47 32.43
4600 24.0440 1131.67 1007.39 33.65
4601 24.0490 1186.17 1109.05 34.54
4602 24.0530 1375.14 1232.10 37.14
4603 24.0590 1466.53 1376.86 38.39
4604 24.0630 1545.75 1541.49 39.34
4605 24.0690 1708.26 1721.67 41.48
4606 24.0730 1837.70 1909.02 42.89
4607 24.0790 1935.80 2090.79 44.15
4608 24.0830 2120.32 2249.26 46.15
4609 24.0880 2223.16 2364.50 47.25
4610 24.0940 2391.70 2418.98 48.87
4611 24.0980 2419.47 2403.99 49.39
4612 24.1040 2442.34 2322.77 49.51
4613 24.1080 2327.70 2188.68 48.35
4614 24.1140 2134.80 2020.05 46.26
4615 24.1180 1890.44 1835.58 43.60
4616 24.1240 1679.38 1650.35 40.99
4617 24.1280 1502.39 1475.50 38.90
4618 24.1340 1369.42 1317.81 37.10
4619 24.1390 1156.56 1180.82 34.16
4620 24.1430 1092.17 1065.54 33.03
4621 24.1490 967.51 971.14 31.15
4622 24.1540 898.13 895.71 30.02
4623 24.1590 858.72 836.56 29.45
4624 24.1630 828.30 790.85 28.78
4625 24.1690 737.58 755.77 27.30
4626 24.1740 719.36 728.90 26.87
4627 24.1780 702.91 708.18 26.57
4628 24.1840 694.40 691.98 26.34
4629 24.1890 668.94 679.09 25.97
4630 24.1940 647.37 668.62 25.45
4631 24.1980 638.26 659.95 25.40
4632 24.2040 648.00 652.62 25.52
4633 24.2090 614.41 646.34 24.88
4634 24.2130 651.85 640.90 25.54
4635 24.2190 647.28 636.14 25.53
4636 24.2230 683.15 631.97 26.16
4637 24.2290 603.62 628.29 24.67
4638 24.2330 632.32 625.04 25.20
4639 24.2390 593.57 623.04 24.45
4640 24.2430 618.88 620.54 24.92
4641 24.2490 579.22 618.34 24.12
4642 24.2530 588.05 616.43 24.27
4643 24.2580 618.59 614.79 25.02
4644 24.2640 622.35 613.40 25.03
4645 24.2690 604.85 612.24 24.72
4646 24.2740 633.41 611.34 25.18
4647 24.2780 651.25 610.78 25.60
4648 24.2840 578.05 610.38 24.07
4649 24.2880 593.20 610.28 24.44
4650 24.2940 594.73 610.51 24.47
4651 24.2990 597.20 611.14 24.56
4652 24.3040 596.00 612.26 24.49
4653 24.3090 600.13 613.97 24.62
4654 24.3130 650.52 616.39 25.48
4655 24.3190 656.37 619.67 25.69
4656 24.3240 642.34 623.95 25.36
4657 24.3290 642.30 629.36 25.49
4658 24.3330 660.34 636.00 25.75
4659 24.3380 700.17 643.93 26.60
4660 24.3440 696.63 653.12 26.47
4661 24.3480 644.06 663.42 25.43
4662 24.3540 709.02 674.56 26.65
4663 24.3580 670.96 686.02 26.03
4664 24.3640 679.78 697.06 26.09
4665 24.3680 689.67 706.64 26.44
4666 24.3740 730.01 713.62 27.07
4667 24.3780 695.73 717.00 26.47
4668 24.3830 713.79 713.75 26.69
4669 24.3890 725.39 709.46 27.00
4670 24.3930 683.80 702.44 26.19
4671 24.3990 681.23 693.87 26.24
4672 24.4030 663.92 684.83 25.86
4673 24.4090 657.74 676.15 25.73
4674 24.4130 711.36 668.40 26.67
4675 24.4190 666.49 661.96 25.86
4676 24.4240 655.76 657.03 25.61
4677 24.4280 668.08 653.74 25.95
4678 24.4340 643.86 652.15 25.41
4679 24.4390 648.57 652.28 25.62
4680 24.4440 659.46 654.19 25.69
4681 24.4480 686.20 657.99 26.26
4682 24.4540 668.63 663.90 25.84
4683 24.4590 666.79 672.28 25.88
4684 24.4630 720.54 683.65 26.88
4685 24.4690 756.11 698.80 27.68
4686 24.4740 766.43 718.70 27.68
4687 24.4790 732.80 744.54 27.16
4688 24.4830 811.34 777.81 28.44
4689 24.4890 850.20 820.00 29.22
4690 24.4940 894.77 872.58 29.94
4691 24.4990 980.09 936.83 31.44
4692 24.5030 1032.22 1013.59 32.17
4693 24.5080 1168.74 1102.95 34.30
4694 24.5140 1198.91 1203.96 34.61
4695 24.5180 1384.86 1313.46 37.21
4696 24.5240 1527.91 1428.15 39.11
4697 24.5280 1618.92 1540.24 40.42
4698 24.5340 1739.42 1640.06 41.75
4699 24.5380 1815.92 1716.14 42.74
4700 24.5440 1910.45 1759.87 43.77
4701 24.5490 1947.30 1761.31 44.20
4702 24.5530 1829.58 1722.20 42.70
4703 24.5590 1793.39 1648.59 42.47
4704 24.5630 1550.41 1550.61 39.43
4705 24.5690 1390.73 1439.27 37.44
4706 24.5730 1241.49 1324.46 35.27
4707 24.5790 1115.02 1213.35 33.50
4708 24.5830 992.59 1110.94 31.45
4709 24.5890 886.10 1020.00 29.78
4710 24.5940 857.29 941.76 29.28
4711 24.5980 810.74 877.02 28.59
4712 24.6040 714.16 823.57 26.75
4713 24.6090 754.18 780.89 27.61
4714 24.6140 725.36 747.38 26.93
4715 24.6180 689.24 721.44 26.34
4716 24.6240 657.38 701.52 25.55
4717 24.6290 673.19 687.19 26.03
4718 24.6330 698.89 675.53 26.43
4719 24.6390 661.69 666.54 25.81
4720 24.6430 649.64 659.57 25.53
4721 24.6490 599.16 654.12 24.52
4722 24.6530 613.97 649.87 24.73
4723 24.6590 621.18 646.55 25.01
4724 24.6640 631.49 644.38 25.17
4725 24.6690 640.97 642.53 25.41
4726 24.6740 637.42 641.28 25.26
4727 24.6780 619.12 640.60 24.99
4728 24.6840 614.18 640.45 24.75
4729 24.6880 606.14 640.84 24.66
4730 24.6940 598.35 641.77 24.52
4731 24.6980 573.68 643.26 24.04
4732 24.7040 610.26 645.35 24.79
4733 24.7080 593.22 648.12 24.44
4734 24.7130 616.59 651.66 24.84
4735 24.7190 654.89 656.12 25.63
4736 24.7240 685.56 661.71 26.19
4737 24.7290 689.97 668.72 26.41
4738 24.7330 688.89 677.56 26.25
4739 24.7390 659.58 688.76 25.81
4740 24.7430 718.40 702.99 26.84
4741 24.7490 805.47 721.14 28.47
4742 24.7530 820.15 744.22 28.60
4743 24.7590 821.93 773.42 28.78
4744 24.7640 892.48 810.01 29.94
4745 24.7680 964.62 855.24 31.16
4746 24.7740 962.32 910.23 31.09
4747 24.7790 1006.27 975.90 31.82
4748 24.7840 1112.63 1052.58 33.29
4749 24.7880 1178.36 1139.95 34.43
4750 24.7940 1279.19 1236.75 35.79
4751 24.7990 1269.69 1340.23 35.85
4752 24.8030 1325.76 1445.90 36.43
4753 24.8090 1431.44 1547.11 38.01
4754 24.8130 1553.94 1634.62 39.45
4755 24.8190 1612.44 1697.91 40.19
4756 24.8230 1661.00 1727.52 40.74
4757 24.8290 1727.20 1718.53 41.71
4758 24.8330 1758.54 1672.61 42.03
4759 24.8380 1700.14 1597.11 41.35
4760 24.8440 1705.46 1502.60 41.39
4761 24.8480 1623.88 1399.08 40.40
4762 24.8540 1413.85 1294.50 37.51
4763 24.8580 1246.81 1194.58 35.46
4764 24.8640 1120.79 1101.55 33.54
4765 24.8680 1046.87 1019.92 32.48
4766 24.8740 923.29 948.92 30.42
4767 24.8780 834.21 889.21 28.98
4768 24.8830 777.94 839.82 27.90
4769 24.8890 770.73 799.93 27.79
4770 24.8940 785.63 768.03 28.07
4771 24.8990 727.70 743.03 27.09
4772 24.9030 702.30 723.71 26.50
4773 24.9090 671.03 708.98 26.03
4774 24.9140 682.71 697.92 26.16
4775 24.9190 667.83 689.79 25.91
4776 24.9240 683.39 684.03 26.11
4777 24.9290 687.37 680.24 26.33
4778 24.9340 722.23 678.16 26.87
4779 24.9380 688.35 677.58 26.32
4780 24.9440 690.77 678.84 26.31
4781 24.9490 699.36 681.79 26.52
4782 24.9540 704.39 686.82 26.51
4783 24.9580 752.03 694.40 27.48
4784 24.9630 756.09 705.17 27.50
4785 24.9690 732.07 720.01 27.19
4786 24.9730 795.11 739.93 28.21
4787 24.9790 814.22 766.17 28.58
4788 24.9830 880.76 800.02 29.64
4789 24.9890 936.69 842.79 30.64
4790 24.9930 949.46 895.56 30.86
4791 24.9990 1029.09 959.19 32.24
4792 25.0030 1065.12 1033.79 32.65
4793 25.0080 1106.23 1118.70 33.34
4794 25.0140 1091.40 1212.18 33.10
4795 25.0180 1251.67 1310.77 35.36
4796 25.0240 1349.45 1409.13 36.68
4797 25.0280 1431.79 1499.48 38.01
4798 25.0340 1426.59 1572.28 37.79
4799 25.0380 1503.45 1617.46 38.95
4800 25.0440 1557.19 1627.75 39.47
4801 25.0490 1601.67 1601.38 40.06
4802 25.0530 1580.65 1542.82 39.72
4803 25.0590 1441.84 1460.86 38.08
4804 25.0640 1473.35 1365.58 38.40
4805 25.0690 1324.67 1266.61 36.56
4806 25.0730 1186.79 1169.00 34.44
4807 25.0790 1095.17 1077.97 33.18
4808 25.0840 932.57 996.25 30.52
4809 25.0880 878.67 925.11 29.74
4810 25.0940 821.99 864.73 28.67
4811 25.0980 801.01 814.73 28.41
4812 25.1040 757.12 774.10 27.43
4813 25.1080 742.51 741.67 27.38
4814 25.1140 719.37 716.09 26.84
4815 25.1180 682.31 696.09 26.17
4816 25.1240 625.39 680.51 24.99
4817 25.1280 636.57 668.37 25.28
4818 25.1330 657.77 658.86 25.69
4819 25.1390 621.31 651.36 24.95
4820 25.1430 635.41 645.38 25.24
4821 25.1490 602.70 640.58 24.62
4822 25.1530 604.18 636.69 24.57
4823 25.1590 620.43 633.54 24.97
4824 25.1630 581.99 631.01 24.11
4825 25.1690 606.67 628.98 24.69
4826 25.1740 582.90 627.41 24.17
4827 25.1790 608.41 626.24 24.77
4828 25.1840 605.79 625.44 24.62
4829 25.1880 584.69 624.98 24.20
4830 25.1940 578.47 624.85 24.01
4831 25.1990 624.48 625.03 25.03
4832 25.2040 586.33 625.40 24.24
4833 25.2080 586.32 626.19 24.30
4834 25.2140 604.60 627.28 24.61
4835 25.2190 545.20 628.68 23.46
4836 25.2230 607.70 630.40 24.59
4837 25.2290 568.55 632.43 23.91
4838 25.2340 560.50 634.81 23.67
4839 25.2390 569.68 637.55 23.94
4840 25.2430 560.74 640.67 23.76
4841 25.2490 588.19 644.20 24.39
4842 25.2540 596.98 648.17 24.35
4843 25.2580 608.20 652.62 24.73
4844 25.2640 607.28 657.61 24.65
4845 25.2680 621.61 663.18 24.99
4846 25.2740 674.71 669.40 25.97
4847 25.2780 652.85 676.34 25.72
4848 25.2840 652.64 684.10 25.57
4849 25.2880 692.39 692.79 26.33
4850 25.2940 642.46 702.55 25.37
4851 25.2990 697.48 713.55 26.44
4852 25.3030 718.53 726.04 26.83
4853 25.3090 726.04 740.32 27.10
4854 25.3130 754.40 756.78 27.53
4855 25.3190 797.15 775.82 28.31
4856 25.3230 839.93 798.63 28.94
4857 25.3290 872.59 826.06 29.60
4858 25.3330 961.99 859.51 31.03
4859 25.3380 1060.19 900.81 32.71
4860 25.3440 1085.65 952.57 33.03
4861 25.3490 1170.98 1017.68 34.39
4862 25.3540 1256.94 1099.78 35.40
4863 25.3580 1318.18 1203.01 36.36
4864 25.3640 1488.73 1331.07 38.59
4865 25.3690 1649.19 1490.23 40.83
4866 25.3740 1784.53 1683.87 42.35
4867 25.3780 1953.62 1915.30 44.49
4868 25.3830 2172.95 2186.15 46.65
4869 25.3890 2419.54 2495.69 49.30
4870 25.3930 2761.50 2839.07 52.52
4871 25.3990 2963.89 3207.32 54.72
4872 25.4040 3362.78 3584.16 58.06
4873 25.4090 3632.68 3946.29 60.72
4874 25.4130 4199.07 4262.53 65.04
4875 25.4190 4544.84 4498.85 67.67
4876 25.4240 4682.04 4624.27 68.41
4877 25.4280 4918.52 4620.83 70.42
4878 25.4340 4822.32 4488.89 69.62
4879 25.4380 4537.28 4247.21 67.64
4880 25.4440 4123.62 3926.46 64.51
4881 25.4480 3581.22 3561.26 60.16
4882 25.4540 3096.94 3181.61 55.62
4883 25.4580 2726.84 2812.65 52.40
4884 25.4640 2257.29 2467.28 47.60
4885 25.4690 1943.06 2156.45 44.25
4886 25.4730 1667.25 1884.84 40.91
4887 25.4790 1517.06 1653.40 39.17
4888 25.4830 1351.98 1460.75 36.83
4889 25.4890 1219.85 1303.23 34.97
4890 25.4930 1150.40 1176.60 33.95
4891 25.4990 1049.64 1075.91 32.54
4892 25.5030 970.14 996.49 31.20
4893 25.5080 910.58 933.89 30.33
4894 25.5140 874.57 884.36 29.65
4895 25.5190 863.54 844.84 29.51
4896 25.5240 780.58 812.86 27.89
4897 25.5280 753.95 786.57 27.57
4898 25.5340 721.85 764.58 26.89
4899 25.5390 734.73 745.90 27.25
4900 25.5440 746.76 729.80 27.45
4901 25.5490 674.93 715.76 26.06
4902 25.5530 658.06 703.42 25.64
4903 25.5590 655.78 692.49 25.69
4904 25.5630 644.59 682.78 25.41
4905 25.5690 646.04 674.13 25.55
4906 25.5730 665.90 666.42 25.85
4907 25.5790 638.53 659.56 25.39
4908 25.5830 604.77 653.49 24.63
4909 25.5880 603.42 648.15 24.58
4910 25.5940 580.82 643.52 24.10
4911 25.5980 620.41 639.60 25.04
4912 25.6040 566.22 636.43 23.86
4913 25.6080 639.03 634.05 25.40
4914 25.6140 654.99 632.58 25.64
4915 25.6180 636.45 632.17 25.30
4916 25.6240 650.89 633.02 25.47
4917 25.6280 658.76 635.37 25.79
4918 25.6340 671.26 639.49 25.94
4919 25.6390 669.38 645.67 26.00
4920 25.6430 643.25 654.18 25.42
4921 25.6490 693.13 665.22 26.45
4922 25.6540 706.68 678.89 26.60
4923 25.6590 708.41 695.11 26.65
4924 25.6630 692.84 713.59 26.36
4925 25.6690 654.05 733.71 25.72
4926 25.6740 718.09 754.45 26.83
4927 25.6780 758.18 774.32 27.68
4928 25.6840 776.10 790.12 27.90
4929 25.6890 789.39 802.07 28.18
4930 25.6940 799.56 806.94 28.26
4931 25.6980 823.68 803.74 28.83
4932 25.7040 813.56 792.94 28.57
4933 25.7090 809.42 776.26 28.57
4934 25.7130 757.07 755.94 27.61
4935 25.7190 693.70 734.73 26.47
4936 25.7230 702.41 713.11 26.51
4937 25.7290 657.53 692.87 25.72
4938 25.7330 667.50 674.78 25.90
4939 25.7390 619.48 659.27 25.00
4940 25.7430 701.01 646.53 26.51
4941 25.7490 653.75 636.58 25.72
4942 25.7530 677.59 629.34 26.06
4943 25.7580 668.18 624.66 25.96
4944 25.7640 744.58 622.43 27.39
4945 25.7680 651.60 622.59 25.63
4946 25.7740 632.39 625.16 25.22
4947 25.7780 648.38 630.33 25.62
4948 25.7840 696.13 638.38 26.47
4949 25.7880 706.03 649.75 26.67
4950 25.7940 711.79 664.95 26.73
4951 25.7990 697.31 684.54 26.55
4952 25.8040 765.63 709.03 27.75
4953 25.8090 769.00 738.84 27.94
4954 25.8130 804.82 774.15 28.44
4955 25.8190 844.82 814.72 29.21
4956 25.8240 815.90 860.16 28.61
4957 25.8290 776.64 909.18 28.02
4958 25.8330 838.21 959.82 29.02
4959 25.8380 866.66 1009.26 29.64
4960 25.8440 911.53 1054.03 30.29
4961 25.8480 895.62 1090.21 30.06
4962 25.8540 960.12 1116.72 31.06
4963 25.8580 1012.47 1134.57 31.97
4964 25.8640 996.91 1144.44 31.68
4965 25.8680 1077.81 1151.41 33.01
4966 25.8740 1148.06 1159.28 33.96
4967 25.8790 1221.22 1170.53 35.20
4968 25.8830 1278.34 1185.94 35.82
4969 25.8890 1348.19 1204.41 36.89
4970 25.8930 1371.81 1223.62 37.14
4971 25.8990 1435.94 1237.39 38.09
4972 25.9030 1455.18 1241.00 38.29
4973 25.9090 1366.48 1229.41 37.18
4974 25.9130 1380.67 1201.65 37.24
4975 25.9190 1233.80 1158.65 35.33
4976 25.9240 1176.17 1104.51 34.38
4977 25.9280 996.98 1044.09 31.77
4978 25.9340 928.61 981.89 30.56
4979 25.9390 873.33 921.38 29.71
4980 25.9440 819.16 864.87 28.70
4981 25.9480 762.90 813.76 27.76
4982 25.9540 720.09 768.76 26.91
4983 25.9580 694.80 730.10 26.48
4984 25.9630 641.95 697.54 25.40
4985 25.9690 640.64 670.62 25.46
4986 25.9740 623.52 648.71 25.03
4987 25.9790 594.03 631.10 24.51
4988 25.9830 565.94 617.06 23.85
4989 25.9890 567.55 605.89 23.94
4990 25.9940 583.75 597.01 24.20
4991 25.9990 538.71 589.90 23.34
4992 26.0030 609.10 584.16 24.79
4993 26.0080 584.67 579.47 24.31
4994 26.0140 612.89 575.59 24.80
4995 26.0180 531.84 572.34 23.17
4996 26.0240 588.47 569.59 24.30
4997 26.0280 556.72 567.26 23.69
4998 26.0340 556.86 565.27 23.66
4999 26.0380 498.62 563.59 22.47
5000 26.0440 559.79 562.16 23.73
5001 26.0490 547.14 560.97 23.52
5002 26.0530 593.00 560.00 24.39
5003 26.0590 548.82 559.23 23.54
5004 26.0630 588.03 558.66 24.26
5005 26.0690 546.05 558.27 23.49
5006 26.0730 562.31 558.06 23.78
5007 26.0790 582.65 558.03 24.26
5008 26.0830 562.28 558.18 23.73
5009 26.0890 595.54 558.51 24.55
5010 26.0940 572.20 559.01 23.91
5011 26.0980 539.67 559.71 23.35
5012 26.1040 536.14 560.61 23.23
5013 26.1090 564.65 561.72 23.89
5014 26.1140 574.90 563.05 24.03
5015 26.1180 575.61 564.62 24.14
5016 26.1240 574.78 566.45 23.97
5017 26.1290 606.53 568.58 24.71
5018 26.1330 599.42 571.03 24.55
5019 26.1390 606.30 573.84 24.73
5020 26.1440 602.67 577.06 24.61
5021 26.1490 586.73 580.78 24.37
5022 26.1530 672.62 585.06 25.97
5023 26.1590 681.01 590.04 26.21
5024 26.1640 683.50 595.87 26.14
5025 26.1690 672.90 602.79 26.05
5026 26.1740 720.61 611.10 26.95
5027 26.1780 747.18 621.22 27.48
5028 26.1840 768.72 633.69 27.75
5029 26.1880 801.03 649.24 28.46
5030 26.1940 771.21 668.80 27.75
5031 26.1980 840.93 693.48 29.15
5032 26.2040 871.07 724.61 29.63
5033 26.2080 907.38 763.23 30.30
5034 26.2130 983.96 811.78 31.39
5035 26.2190 1033.33 871.28 32.28
5036 26.2230 1016.50 942.98 31.89
5037 26.2290 1073.98 1027.82 32.87
5038 26.2330 1175.21 1125.85 34.39
5039 26.2390 1199.01 1236.30 34.87
5040 26.2430 1179.80 1357.43 34.37
5041 26.2490 1315.33 1483.56 36.44
5042 26.2530 1408.57 1610.60 37.58
5043 26.2590 1476.76 1728.00 38.56
5044 26.2640 1425.13 1826.46 37.88
5045 26.2680 1538.69 1892.90 39.40
5046 26.2740 1551.74 1917.49 39.50
5047 26.2790 1612.38 1896.24 40.35
5048 26.2840 1604.26 1832.80 40.02
5049 26.2880 1663.79 1736.99 40.98
5050 26.2940 1619.90 1620.44 40.33
5051 26.2990 1578.72 1494.67 39.91
5052 26.3030 1541.22 1367.37 39.46
5053 26.3090 1401.62 1247.13 37.67
5054 26.3130 1297.40 1136.84 36.06
5055 26.3190 1223.76 1038.66 35.07
5056 26.3230 1117.71 953.57 33.54
5057 26.3290 1015.42 881.38 32.00
5058 26.3340 989.64 821.37 31.51
5059 26.3380 957.60 772.33 31.17
5060 26.3440 795.56 732.75 28.22
5061 26.3480 792.55 701.18 28.25
5062 26.3540 745.21 676.15 27.33
5063 26.3580 719.86 656.39 26.94
5064 26.3640 721.39 640.75 26.95
5065 26.3680 713.49 628.34 26.90
5066 26.3740 654.53 618.43 25.68
5067 26.3780 639.87 610.48 25.42
5068 26.3830 609.96 604.08 24.71
5069 26.3890 592.95 598.90 24.43
5070 26.3940 664.56 594.75 25.79
5071 26.3990 634.71 591.47 25.40
5072 26.4030 641.41 588.95 25.37
5073 26.4090 609.66 587.13 24.81
5074 26.4140 642.65 585.97 25.44
5075 26.4190 613.32 585.46 24.86
5076 26.4240 601.99 585.64 24.60
5077 26.4290 656.12 586.56 25.74
5078 26.4340 664.81 588.33 25.81
5079 26.4380 713.03 591.14 26.83
5080 26.4440 687.03 595.24 26.32
5081 26.4490 695.02 601.00 26.48
5082 26.4540 694.58 608.92 26.37
5083 26.4580 708.03 619.62 26.75
5084 26.4630 764.55 633.89 27.75
5085 26.4690 791.47 652.64 28.28
5086 26.4730 809.60 676.84 28.54
5087 26.4790 782.28 707.51 28.10
5088 26.4830 837.09 745.49 28.99
5089 26.4890 903.73 791.41 30.18
5090 26.4930 857.99 845.40 29.36
5091 26.4990 865.72 907.07 29.59
5092 26.5030 849.52 974.94 29.21
5093 26.5080 980.63 1047.05 31.50
5094 26.5140 989.34 1119.63 31.54
5095 26.5180 976.10 1187.41 31.37
5096 26.5240 1028.62 1243.77 32.11
5097 26.5280 1101.88 1281.45 33.38
5098 26.5340 1085.19 1294.74 33.04
5099 26.5380 1140.88 1281.53 33.99
5100 26.5440 1092.41 1244.35 33.13
5101 26.5490 1106.47 1189.26 33.45
5102 26.5530 1103.10 1123.43 33.20
5103 26.5590 1093.26 1053.41 33.20
5104 26.5640 1056.15 984.32 32.63
5105 26.5690 1047.81 919.66 32.51
5106 26.5730 1041.97 861.72 32.38
5107 26.5790 939.60 811.72 30.84
5108 26.5840 883.88 770.14 29.75
5109 26.5880 843.22 736.82 29.13
5110 26.5940 815.53 711.22 28.60
5111 26.5990 799.91 692.63 28.41
5112 26.6040 753.67 680.25 27.56
5113 26.6080 782.68 673.37 28.13
5114 26.6140 750.47 671.42 27.52
5115 26.6190 697.10 674.08 26.46
5116 26.6240 698.09 681.31 26.41
5117 26.6280 729.24 693.29 27.13
5118 26.6330 782.55 710.50 28.01
5119 26.6390 759.94 733.32 27.71
5120 26.6430 786.75 763.12 28.13
5121 26.6490 803.57 800.55 28.50
5122 26.6530 810.66 846.48 28.47
5123 26.6590 907.30 901.77 30.23
5124 26.6630 971.46 969.08 31.20
5125 26.6690 1127.57 1044.56 33.74
5126 26.6740 1141.83 1129.99 33.91
5127 26.6790 1267.40 1224.39 35.77
5128 26.6840 1405.00 1325.69 37.50
5129 26.6880 1579.77 1430.69 39.88
5130 26.6940 1696.79 1535.37 41.21
5131 26.6980 1774.69 1635.78 42.35
5132 26.7040 1854.88 1729.83 43.13
5133 26.7080 1798.71 1817.58 42.69
5134 26.7140 1804.56 1900.93 42.61
5135 26.7190 1933.83 1981.57 44.09
5136 26.7230 1970.22 2058.99 44.32
5137 26.7290 2024.26 2129.21 45.12
5138 26.7340 2072.98 2184.43 45.70
5139 26.7390 2221.62 2214.40 47.31
5140 26.7430 2179.26 2209.25 46.81
5141 26.7490 2283.86 2163.30 48.10
5142 26.7540 2201.05 2077.79 46.93
5143 26.7580 2010.78 1959.97 44.91
5144 26.7640 1945.10 1821.87 44.17
5145 26.7680 1761.80 1674.65 42.16
5146 26.7740 1422.30 1527.40 37.76
5147 26.7780 1308.74 1386.86 36.40
5148 26.7840 1073.77 1257.38 32.89
5149 26.7880 1025.91 1141.47 32.07
5150 26.7940 932.39 1040.12 30.52
5151 26.7990 869.78 953.47 29.62
5152 26.8030 835.73 880.69 28.95
5153 26.8090 785.32 820.58 28.15
5154 26.8130 742.77 771.67 27.33
5155 26.8190 727.08 732.22 27.12
5156 26.8230 696.80 700.66 26.37
5157 26.8290 664.23 675.45 25.91
5158 26.8330 595.73 655.29 24.39
5159 26.8380 640.78 639.06 25.44
5160 26.8440 628.66 626.63 25.15
5161 26.8490 572.96 615.78 24.06
5162 26.8540 592.77 606.72 24.39
5163 26.8580 565.79 599.07 23.82
5164 26.8640 591.37 592.53 24.36
5165 26.8690 521.70 586.89 22.98
5166 26.8740 556.23 582.00 23.64
5167 26.8780 552.06 577.74 23.67
5168 26.8840 569.51 574.02 23.92
5169 26.8890 588.07 570.78 24.29
5170 26.8930 569.61 567.97 23.89
5171 26.8990 588.68 565.54 24.35
5172 26.9040 544.97 563.48 23.47
5173 26.9090 597.89 561.78 24.58
5174 26.9130 544.52 560.36 23.43
5175 26.9190 606.65 559.25 24.72
5176 26.9240 549.78 558.43 23.43
5177 26.9280 530.93 557.89 23.18
5178 26.9340 556.30 557.64 23.63
5179 26.9380 539.90 557.66 23.37
5180 26.9440 564.49 557.96 23.83
5181 26.9480 567.83 558.55 23.96
5182 26.9540 575.72 559.45 23.97
5183 26.9580 581.26 560.66 24.16
5184 26.9630 572.25 562.22 23.99
5185 26.9690 586.88 564.15 24.37
5186 26.9730 593.59 566.49 24.39
5187 26.9790 600.05 569.31 24.68
5188 26.9830 585.03 572.66 24.22
5189 26.9890 621.29 576.65 24.97
5190 26.9930 604.44 581.42 24.60
5191 26.9990 607.22 587.13 24.76
5192 27.0030 639.83 594.02 25.34
5193 27.0080 676.67 602.39 26.16
5194 27.0140 699.57 612.65 26.57
5195 27.0190 690.60 625.96 26.39
5196 27.0240 718.48 641.56 26.75
5197 27.0280 768.11 660.85 27.81
5198 27.0340 809.11 684.65 28.54
5199 27.0390 816.15 713.86 28.69
5200 27.0440 859.56 749.42 29.44
5201 27.0490 844.83 792.26 29.22
5202 27.0530 911.16 843.20 30.19
5203 27.0590 953.68 902.87 30.93
5204 27.0630 1008.66 971.48 31.81
5205 27.0690 1157.07 1048.86 34.18
5206 27.0740 1152.52 1133.99 34.04
5207 27.0790 1192.18 1224.99 34.74
5208 27.0830 1387.85 1318.60 37.31
5209 27.0880 1412.01 1410.47 37.63
5210 27.0940 1440.30 1494.50 37.89
5211 27.0980 1502.67 1566.35 38.98
5212 27.1040 1537.88 1621.11 39.29
5213 27.1080 1567.62 1656.89 39.80
5214 27.1140 1620.11 1674.84 40.36
5215 27.1180 1575.46 1678.42 39.82
5216 27.1240 1524.28 1671.90 38.97
5217 27.1280 1493.06 1658.70 38.80
5218 27.1340 1451.57 1640.26 38.17
5219 27.1390 1471.50 1615.80 38.55
5220 27.1430 1392.29 1582.94 37.37
5221 27.1490 1358.05 1538.95 36.98
5222 27.1540 1327.78 1482.40 36.47
5223 27.1590 1273.04 1414.07 35.73
5224 27.1630 1296.62 1336.90 36.07
5225 27.1690 1226.40 1254.98 35.16
5226 27.1740 1228.80 1172.51 35.06
5227 27.1780 1185.94 1092.73 34.62
5228 27.1840 1100.76 1017.96 33.18
5229 27.1890 1041.30 949.66 32.32
5230 27.1940 986.47 888.47 31.42
5231 27.1980 938.47 833.81 30.71
5232 27.2040 772.61 787.05 27.87
5233 27.2090 801.81 747.03 28.43
5234 27.2130 766.89 713.18 27.77
5235 27.2190 724.52 684.84 27.01
5236 27.2230 707.98 661.32 26.58
5237 27.2290 716.44 641.92 26.84
5238 27.2330 654.38 626.01 25.60
5239 27.2390 615.73 612.95 24.89
5240 27.2430 580.23 602.24 24.13
5241 27.2490 593.64 593.42 24.52
5242 27.2530 580.82 586.64 24.11
5243 27.2580 588.00 580.58 24.32
5244 27.2640 553.94 575.51 23.55
5245 27.2680 549.32 571.25 23.51
5246 27.2740 564.78 567.67 23.82
5247 27.2780 546.40 564.65 23.51
5248 27.2840 528.43 562.13 23.00
5249 27.2880 547.43 560.03 23.50
5250 27.2940 518.75 558.33 22.74
5251 27.2990 517.67 556.98 22.83
5252 27.3040 531.67 555.96 23.09
5253 27.3090 524.07 555.25 23.04
5254 27.3130 513.91 554.85 22.77
5255 27.3190 566.76 554.74 23.89
5256 27.3240 500.88 554.92 22.38
5257 27.3290 543.95 555.39 23.40
5258 27.3330 532.70 556.16 23.06
5259 27.3390 532.13 557.23 23.17
5260 27.3440 506.95 558.61 22.60
5261 27.3480 518.66 560.32 22.88
5262 27.3540 520.88 561.74 22.89
5263 27.3590 539.68 564.18 23.29
5264 27.3640 541.37 567.02 23.29
5265 27.3680 553.87 570.30 23.64
5266 27.3740 516.82 574.07 22.78
5267 27.3790 566.56 578.38 23.95
5268 27.3830 545.54 583.31 23.41
5269 27.3890 558.44 589.22 23.69
5270 27.3930 594.70 595.72 24.40
5271 27.3990 605.79 603.26 24.74
5272 27.4030 580.78 612.06 24.12
5273 27.4090 616.69 622.48 25.02
5274 27.4130 604.26 634.99 24.68
5275 27.4190 644.13 650.36 25.51
5276 27.4240 703.68 669.15 26.53
5277 27.4280 697.12 692.63 26.52
5278 27.4340 757.77 722.21 27.56
5279 27.4380 783.46 759.57 28.15
5280 27.4440 848.48 806.76 29.24
5281 27.4480 897.45 865.97 30.14
5282 27.4540 962.93 939.56 31.12
5283 27.4580 1054.42 1029.68 32.57
5284 27.4630 1150.69 1138.31 34.01
5285 27.4690 1255.00 1266.72 35.59
5286 27.4740 1444.63 1415.03 38.11
5287 27.4790 1596.87 1582.29 40.27
5288 27.4830 1733.03 1765.54 41.78
5289 27.4890 1964.62 1959.59 44.54
5290 27.4940 2246.74 2156.01 47.45
5291 27.4990 2438.62 2343.06 49.60
5292 27.5030 2631.64 2505.52 51.48
5293 27.5080 2925.86 2626.49 54.38
5294 27.5140 3089.55 2691.37 55.95
5295 27.5180 3021.19 2692.69 55.32
5296 27.5240 2879.68 2633.10 53.66
5297 27.5280 2638.42 2524.13 51.62
5298 27.5340 2226.34 2381.50 47.32
5299 27.5380 2011.38 2220.73 45.09
5300 27.5440 1752.70 2053.74 42.04
5301 27.5490 1616.89 1888.51 40.50
5302 27.5530 1442.14 1730.90 38.06
5303 27.5590 1325.66 1582.97 36.59
5304 27.5630 1291.10 1446.25 35.99
5305 27.5690 1231.43 1321.84 35.29
5306 27.5730 1121.57 1210.46 33.58
5307 27.5790 1067.87 1112.27 32.92
5308 27.5830 1028.04 1027.17 32.20
5309 27.5890 930.96 954.40 30.68
5310 27.5940 880.61 892.88 29.68
5311 27.5980 848.26 841.28 29.32
5312 27.6040 815.72 797.42 28.66
5313 27.6090 799.94 761.79 28.40
5314 27.6140 730.52 732.39 27.19
5315 27.6180 660.33 708.27 25.84
5316 27.6240 674.21 688.61 25.98
5317 27.6290 669.69 672.76 25.98
5318 27.6330 610.98 660.18 24.82
5319 27.6390 594.92 650.41 24.52
5320 27.6440 649.79 643.16 25.60
5321 27.6490 590.00 638.18 24.47
5322 27.6530 643.73 634.74 25.45
5323 27.6590 561.77 634.12 23.76
5324 27.6640 626.87 635.80 25.09
5325 27.6690 624.08 640.04 25.11
5326 27.6740 627.62 647.21 25.14
5327 27.6780 606.06 657.82 24.81
5328 27.6840 637.69 672.52 25.35
5329 27.6880 628.56 692.02 25.16
5330 27.6940 694.34 717.11 26.35
5331 27.6980 680.64 748.54 26.23
5332 27.7040 745.93 787.03 27.37
5333 27.7080 797.70 833.01 28.43
5334 27.7130 899.94 886.75 30.11
5335 27.7190 882.97 948.04 29.90
5336 27.7230 957.63 1016.06 30.93
5337 27.7290 1094.65 1089.38 33.17
5338 27.7330 1180.21 1165.45 34.48
5339 27.7390 1243.77 1240.62 35.43
5340 27.7430 1398.89 1309.77 37.56
5341 27.7490 1486.30 1366.76 38.81
5342 27.7530 1529.68 1405.03 39.15
5343 27.7590 1566.93 1419.44 39.71
5344 27.7640 1571.70 1407.89 39.72
5345 27.7680 1466.02 1372.13 38.47
5346 27.7740 1341.27 1317.10 36.76
5347 27.7790 1194.21 1249.29 34.81
5348 27.7840 1061.66 1174.97 32.69
5349 27.7880 921.75 1099.34 30.43
5350 27.7940 891.10 1026.24 29.85
5351 27.7990 829.77 958.37 28.97
5352 27.8030 770.07 897.41 27.85
5353 27.8090 748.46 844.23 27.52
5354 27.8140 739.36 799.34 27.28
5355 27.8190 688.11 762.73 26.33
5356 27.8230 658.05 734.24 25.69
5357 27.8290 667.74 713.53 25.93
5358 27.8340 695.39 700.27 26.44
5359 27.8380 652.95 694.19 25.76
5360 27.8440 666.34 695.11 25.86
5361 27.8480 677.41 703.00 26.17
5362 27.8540 689.74 717.92 26.30
5363 27.8580 641.96 739.97 25.41
5364 27.8640 742.02 769.27 27.31
5365 27.8680 801.48 805.76 28.53
5366 27.8740 833.35 849.24 29.01
5367 27.8780 847.93 899.05 29.24
5368 27.8830 909.23 954.14 30.20
5369 27.8890 1024.97 1012.73 32.13
5370 27.8940 1110.31 1072.10 33.34
5371 27.8990 1257.03 1128.57 35.70
5372 27.9030 1339.07 1177.53 36.73
5373 27.9090 1391.25 1214.09 37.58
5374 27.9130 1420.81 1234.19 37.80
5375 27.9190 1407.91 1236.05 37.72
5376 27.9240 1281.99 1220.67 35.88
5377 27.9290 1184.33 1191.30 34.55
5378 27.9340 1073.63 1152.08 32.90
5379 27.9380 1014.60 1106.60 32.05
5380 27.9440 957.83 1058.05 31.06
5381 27.9490 886.20 1008.06 29.93
5382 27.9540 892.68 957.77 29.91
5383 27.9580 851.69 907.98 29.34
5384 27.9630 774.49 860.03 27.89
5385 27.9690 777.42 814.77 28.06
5386 27.9730 739.24 773.13 27.33
5387 27.9790 700.78 735.65 26.61
5388 27.9830 703.94 702.62 26.61
5389 27.9890 645.11 673.98 25.51
5390 27.9930 602.99 649.50 24.64
5391 27.9990 604.99 628.85 24.75
5392 28.0030 545.30 611.56 23.43
5393 28.0080 557.51 597.34 23.77
5394 28.0140 589.81 585.72 24.36
5395 28.0180 561.67 576.35 23.80
5396 28.0240 560.05 568.93 23.73
5397 28.0280 486.61 563.19 22.16
5398 28.0340 517.72 558.91 22.84
5399 28.0380 567.97 555.94 23.95
5400 28.0440 528.86 553.72 23.11
5401 28.0490 504.49 553.12 22.59
5402 28.0530 541.95 553.69 23.28
5403 28.0590 584.75 555.52 24.30
5404 28.0640 601.69 558.77 24.59
5405 28.0690 554.47 563.65 23.70
5406 28.0730 636.99 570.45 25.34
5407 28.0790 616.40 579.53 24.94
5408 28.0840 649.59 591.26 25.57
5409 28.0880 650.05 606.06 25.55
5410 28.0940 648.81 624.34 25.50
5411 28.0990 730.44 646.42 27.19
5412 28.1040 733.35 671.81 27.16
5413 28.1080 744.14 702.43 27.44
5414 28.1140 739.91 736.81 27.25
5415 28.1190 819.82 774.82 28.78
5416 28.1240 824.85 815.68 28.74
5417 28.1280 877.57 858.10 29.74
5418 28.1330 899.43 900.16 30.04
5419 28.1390 926.01 939.23 30.60
5420 28.1430 1010.76 972.01 31.88
5421 28.1490 1039.92 995.08 32.44
5422 28.1530 1065.37 1005.48 32.69
5423 28.1590 1085.48 1001.80 33.04
5424 28.1630 1044.45 984.59 32.32
5425 28.1690 1008.30 956.19 31.91
5426 28.1740 935.79 919.96 30.70
5427 28.1780 889.17 879.34 29.99
5428 28.1840 839.75 837.25 29.01
5429 28.1880 769.05 796.02 27.81
5430 28.1940 673.03 757.21 25.97
5431 28.1980 659.79 721.98 25.77
5432 28.2040 614.57 690.85 24.85
5433 28.2080 607.58 664.23 24.78
5434 28.2140 614.53 642.24 24.86
5435 28.2190 593.19 624.88 24.46
5436 28.2230 600.74 612.03 24.53
5437 28.2290 598.91 603.55 24.56
5438 28.2340 634.95 599.33 25.22
5439 28.2390 601.46 599.24 24.63
5440 28.2430 596.39 603.21 24.46
5441 28.2490 609.77 611.21 24.83
5442 28.2540 623.73 623.18 24.98
5443 28.2580 619.21 639.08 24.96
5444 28.2640 681.05 658.78 26.13
5445 28.2680 718.07 681.99 26.90
5446 28.2740 739.64 708.28 27.23
5447 28.2780 773.06 736.90 27.91
5448 28.2840 825.53 766.78 28.80
5449 28.2890 865.89 796.36 29.47
5450 28.2940 893.82 823.68 29.93
5451 28.2990 968.77 846.46 31.21
5452 28.3030 944.73 862.56 30.76
5453 28.3090 964.69 870.46 31.24
5454 28.3130 947.17 869.82 30.85
5455 28.3190 886.55 861.46 29.89
5456 28.3230 887.95 847.05 29.86
5457 28.3290 818.70 828.46 28.62
5458 28.3330 777.40 807.23 27.97
5459 28.3380 730.13 784.38 27.09
5460 28.3440 769.60 760.45 27.82
5461 28.3490 721.26 735.79 27.02
5462 28.3540 676.54 710.70 26.00
5463 28.3580 634.30 685.66 25.28
5464 28.3640 659.36 661.23 25.75
5465 28.3690 658.84 638.01 25.74
5466 28.3740 635.03 615.40 25.24
5467 28.3780 609.41 595.83 24.83
5468 28.3840 546.17 578.75 23.45
5469 28.3890 528.23 563.39 23.07
5470 28.3930 501.68 550.02 22.42
5471 28.3990 523.82 538.49 22.94
5472 28.4040 547.82 528.63 23.41
5473 28.4090 519.68 520.24 22.95
5474 28.4130 533.37 513.14 23.15
5475 28.4190 528.80 506.17 23.11
5476 28.4240 518.87 501.12 22.76
5477 28.4280 480.46 496.94 22.01
5478 28.4340 514.40 493.34 22.72
5479 28.4380 514.43 490.27 22.76
5480 28.4440 480.75 487.63 22.02
5481 28.4480 499.44 485.36 22.44
5482 28.4540 477.27 483.37 21.85
5483 28.4580 475.46 481.62 21.88
5484 28.4630 454.21 480.06 21.33
5485 28.4690 469.45 478.66 21.76
5486 28.4730 450.32 477.39 21.27
5487 28.4790 450.77 476.24 21.38
5488 28.4830 476.92 475.18 21.89
5489 28.4890 487.96 474.20 22.09
5490 28.4930 482.97 473.30 21.99
5491 28.4990 507.04 472.46 22.60
5492 28.5030 465.17 471.68 21.65
5493 28.5080 504.69 470.65 22.61
5494 28.5140 446.69 469.97 21.20
5495 28.5190 469.99 469.33 21.75
5496 28.5240 476.84 468.73 21.82
5497 28.5280 459.09 468.17 21.56
5498 28.5340 480.88 467.64 21.98
5499 28.5390 453.14 467.56 21.36
5500 28.5440 472.33 467.10 21.80
5501 28.5490 467.90 467.09 21.75
5502 28.5540 469.27 466.67 21.66
5503 28.5590 480.28 466.29 21.98
5504 28.5630 441.61 465.92 21.03
5505 28.5690 453.33 465.57 21.42
5506 28.5740 475.34 465.24 21.85
5507 28.5790 457.02 464.92 21.49
5508 28.5830 456.87 464.62 21.44
5509 28.5880 470.67 464.34 21.76
5510 28.5940 442.33 464.07 21.03
5511 28.5980 471.43 463.82 21.85
5512 28.6040 456.46 463.58 21.42
5513 28.6080 460.95 463.35 21.56
5514 28.6140 484.52 463.12 22.06
5515 28.6180 419.38 462.91 20.58
5516 28.6240 458.06 462.72 21.41
5517 28.6280 427.23 462.53 20.73
5518 28.6340 467.88 462.35 21.70
5519 28.6390 407.59 462.19 20.25
5520 28.6430 449.60 462.03 21.24
5521 28.6490 464.19 462.01 21.70
5522 28.6540 460.48 461.87 21.48
5523 28.6590 464.28 461.74 21.61
5524 28.6630 426.02 461.62 20.68
5525 28.6690 472.39 461.51 21.81
5526 28.6740 454.14 461.40 21.38
5527 28.6780 444.96 460.39 21.18
5528 28.6830 446.29 460.30 21.16
5529 28.6880 464.83 460.23 21.65
5530 28.6940 482.74 460.17 21.97
5531 28.6990 472.96 460.11 21.85
5532 28.7040 434.10 460.06 20.92
5533 28.7090 461.89 460.01 21.59
5534 28.7140 436.77 459.97 20.92
5535 28.7190 454.04 459.94 21.42
5536 28.7230 472.96 459.92 21.74
5537 28.7290 445.63 459.90 21.15
5538 28.7330 455.50 459.90 21.42
5539 28.7390 455.38 459.90 21.43
5540 28.7430 427.61 459.91 20.71
5541 28.7490 467.54 459.93 21.74
5542 28.7540 409.94 459.95 20.27
5543 28.7580 446.43 459.99 21.17
5544 28.7640 452.73 460.03 21.30
5545 28.7690 489.39 460.09 22.23
5546 28.7740 448.84 460.15 21.20
5547 28.7780 481.50 460.22 22.03
5548 28.7840 451.84 460.30 21.32
5549 28.7880 456.36 460.40 21.41
5550 28.7940 477.17 460.50 21.84
5551 28.7980 464.57 460.62 21.63
5552 28.8030 449.18 460.75 21.20
5553 28.8090 429.25 460.89 20.79
5554 28.8140 434.27 460.71 20.89
5555 28.8190 491.72 460.89 22.25
5556 28.8240 450.13 461.08 21.24
5557 28.8290 449.98 461.30 21.22
5558 28.8330 464.09 461.53 21.59
5559 28.8390 437.26 461.77 21.00
5560 28.8440 441.28 462.04 20.97
5561 28.8480 468.90 462.33 21.78
5562 28.8530 477.23 462.65 21.88
5563 28.8580 421.58 463.22 20.53
5564 28.8640 434.85 463.59 20.85
5565 28.8690 465.24 463.98 21.65
5566 28.8740 477.02 464.41 21.84
5567 28.8790 480.63 464.88 22.02
5568 28.8840 491.40 465.38 22.19
5569 28.8890 457.68 465.92 21.47
5570 28.8930 474.72 466.34 21.74
5571 28.8990 484.56 466.98 22.10
5572 28.9030 467.15 467.68 21.61
5573 28.9090 466.91 468.43 21.66
5574 28.9130 468.88 469.26 21.73
5575 28.9190 476.41 470.16 21.91
5576 28.9240 483.67 471.15 21.99
5577 28.9280 478.01 472.24 21.89
5578 28.9340 484.06 473.44 22.01
5579 28.9390 516.19 474.78 22.78
5580 28.9440 495.00 476.28 22.27
5581 28.9480 460.89 477.97 21.57
5582 28.9540 512.59 480.01 22.68
5583 28.9580 530.54 482.24 23.09
5584 28.9630 493.67 484.85 22.22
5585 28.9680 449.98 487.94 21.25
5586 28.9730 474.91 491.64 21.78
5587 28.9790 525.75 496.13 23.00
5588 28.9840 503.16 501.61 22.51
5589 28.9890 534.76 508.31 23.25
5590 28.9940 505.12 516.53 22.43
5591 28.9990 539.79 526.57 23.27
5592 29.0030 569.80 538.76 23.86
5593 29.0080 602.28 553.44 24.62
5594 29.0140 627.15 570.89 25.11
5595 29.0180 636.31 591.35 25.39
5596 29.0240 641.84 614.97 25.35
5597 29.0280 711.27 641.70 26.73
5598 29.0340 729.85 671.40 26.99
5599 29.0390 755.31 703.56 27.55
5600 29.0440 784.32 737.41 28.01
5601 29.0490 813.55 771.72 28.70
5602 29.0540 949.78 804.79 30.90
5603 29.0590 978.74 834.38 31.37
5604 29.0630 977.46 857.96 31.29
5605 29.0690 967.36 873.00 31.17
5606 29.0730 961.04 877.80 31.04
5607 29.0790 875.54 871.78 29.69
5608 29.0830 906.01 855.81 30.22
5609 29.0880 859.22 831.82 29.47
5610 29.0940 830.72 802.30 28.79
5611 29.0990 812.10 769.78 28.57
5612 29.1040 720.13 735.82 26.84
5613 29.1090 660.96 703.07 25.76
5614 29.1140 638.11 672.16 25.35
5615 29.1180 611.36 643.82 24.88
5616 29.1240 623.24 618.49 24.96
5617 29.1280 536.96 596.33 23.19
5618 29.1330 512.45 577.35 22.66
5619 29.1380 554.26 561.40 23.61
5620 29.1430 514.44 548.24 22.67
5621 29.1490 488.82 537.57 22.26
5622 29.1540 500.75 529.07 22.44
5623 29.1590 516.52 522.47 22.73
5624 29.1640 514.45 517.38 22.65
5625 29.1690 487.08 513.58 22.14
5626 29.1740 488.63 510.83 22.11
5627 29.1780 507.79 508.98 22.58
5628 29.1840 484.29 507.86 22.08
5629 29.1880 505.53 507.40 22.58
5630 29.1940 523.93 507.54 22.81
5631 29.1980 497.58 508.26 22.37
5632 29.2040 506.24 509.55 22.50
5633 29.2090 491.24 511.51 22.20
5634 29.2130 515.32 514.29 22.76
5635 29.2190 489.03 518.00 22.21
5636 29.2240 502.17 522.86 22.41
5637 29.2290 528.21 529.13 22.97
5638 29.2330 546.13 537.13 23.38
5639 29.2390 536.46 546.95 23.20
5640 29.2430 575.00 559.53 23.97
5641 29.2490 604.32 575.03 24.70
5642 29.2530 612.59 593.77 24.80
5643 29.2580 646.59 616.12 25.43
5644 29.2640 656.57 642.28 25.60
5645 29.2690 661.35 672.26 25.76
5646 29.2740 700.52 705.87 26.47
5647 29.2790 738.72 742.63 27.28
5648 29.2840 759.91 781.66 27.62
5649 29.2880 836.23 821.62 28.97
5650 29.2940 903.99 860.59 29.96
5651 29.2990 938.49 896.02 30.72
5652 29.3030 935.39 924.91 30.56
5653 29.3090 942.74 944.28 30.78
5654 29.3130 977.71 951.88 31.34
5655 29.3190 994.53 946.95 31.69
5656 29.3240 995.41 930.64 31.44
5657 29.3290 1010.77 905.45 31.80
5658 29.3340 973.34 874.48 31.18
5659 29.3390 903.64 840.78 30.16
5660 29.3440 868.97 807.20 29.47
5661 29.3480 791.51 775.28 28.26
5662 29.3540 780.57 746.79 27.93
5663 29.3580 733.63 722.89 27.07
5664 29.3640 734.60 704.45 27.05
5665 29.3680 735.70 692.19 27.20
5666 29.3740 746.04 686.66 27.31
5667 29.3790 748.66 688.40 27.41
5668 29.3830 737.11 697.89 27.25
5669 29.3890 795.17 715.62 28.24
5670 29.3940 796.69 742.00 28.08
5671 29.3990 821.96 777.37 28.72
5672 29.4030 815.51 821.94 28.58
5673 29.4090 866.95 875.65 29.54
5674 29.4130 898.87 938.08 30.02
5675 29.4190 958.43 1008.38 31.10
5676 29.4230 1022.48 1084.79 31.93
5677 29.4280 1072.81 1165.02 32.79
5678 29.4340 1120.43 1245.57 33.51
5679 29.4390 1232.64 1321.66 35.19
5680 29.4440 1253.70 1387.80 35.36
5681 29.4490 1284.63 1438.33 36.02
5682 29.4540 1393.03 1468.68 37.42
5683 29.4580 1432.31 1476.68 37.86
5684 29.4630 1503.80 1463.11 38.79
5685 29.4690 1482.09 1431.28 38.63
5686 29.4730 1413.31 1385.84 37.51
5687 29.4790 1343.23 1331.77 36.84
5688 29.4830 1385.92 1272.27 37.35
5689 29.4890 1309.83 1210.06 36.28
5690 29.4940 1197.97 1146.75 34.58
5691 29.4990 1149.11 1083.23 34.01
5692 29.5040 1123.45 1020.35 33.51
5693 29.5090 1069.68 959.20 32.78
5694 29.5140 960.57 900.97 31.10
5695 29.5180 920.11 846.77 30.47
5696 29.5240 918.94 797.43 30.33
5697 29.5280 842.75 753.37 29.11
5698 29.5340 778.03 714.62 27.91
5699 29.5380 697.82 681.08 26.47
5700 29.5440 707.48 652.30 26.62
5701 29.5490 703.05 627.92 26.67
5702 29.5540 638.86 607.45 25.31
5703 29.5590 599.26 590.42 24.53
5704 29.5640 579.41 576.39 24.09
5705 29.5690 567.59 564.96 23.94
5706 29.5730 584.57 555.75 24.21
5707 29.5790 516.16 548.46 22.81
5708 29.5830 518.94 542.83 22.85
5709 29.5880 568.56 538.63 23.93
5710 29.5930 535.12 535.72 23.10
5711 29.5980 565.85 533.98 23.91
5712 29.6040 582.66 533.35 24.17
5713 29.6090 569.71 533.79 23.93
5714 29.6140 500.96 535.30 22.47
5715 29.6190 522.72 537.88 23.03
5716 29.6240 549.20 541.57 23.43
5717 29.6280 544.13 546.36 23.38
5718 29.6330 540.24 552.27 23.31
5719 29.6390 533.67 559.28 23.17
5720 29.6430 544.38 567.30 23.33
5721 29.6490 521.23 576.23 22.99
5722 29.6530 546.08 585.85 23.42
5723 29.6590 596.93 595.88 24.51
5724 29.6640 577.75 605.89 24.07
5725 29.6690 608.11 615.31 24.76
5726 29.6740 553.68 624.07 23.54
5727 29.6790 599.11 630.32 24.60
5728 29.6840 550.56 634.04 23.55
5729 29.6880 585.05 634.97 24.28
5730 29.6940 606.48 633.09 24.63
5731 29.6980 597.60 628.87 24.50
5732 29.7040 639.52 622.99 25.32
5733 29.7080 654.91 616.26 25.71
5734 29.7130 684.56 609.39 26.24
5735 29.7190 631.30 603.08 25.28
5736 29.7240 654.45 597.89 25.62
5737 29.7290 663.34 594.31 25.80
5738 29.7340 631.28 592.78 25.14
5739 29.7390 667.17 593.72 25.95
5740 29.7430 672.30 597.53 25.94
5741 29.7480 663.14 604.62 25.89
5742 29.7530 688.97 615.40 26.36
5743 29.7580 699.82 630.26 26.55
5744 29.7640 702.52 649.56 26.48
5745 29.7680 736.97 673.56 27.27
5746 29.7740 769.45 702.51 27.73
5747 29.7790 784.38 736.41 28.16
5748 29.7840 800.93 775.12 28.39
5749 29.7890 872.36 818.23 29.71
5750 29.7940 871.75 864.98 29.51
5751 29.7990 898.14 914.16 30.03
5752 29.8030 910.77 963.97 30.22
5753 29.8090 976.72 1011.95 31.37
5754 29.8130 1012.31 1055.02 31.91
5755 29.8190 1042.71 1089.72 32.51
5756 29.8230 1066.29 1112.79 32.74
5757 29.8290 1124.11 1122.14 33.58
5758 29.8340 1064.38 1117.30 32.59
5759 29.8390 1143.57 1099.68 33.95
5760 29.8440 1032.65 1071.99 32.16
5761 29.8490 1042.82 1037.38 32.48
5762 29.8540 913.43 998.71 30.33
5763 29.8580 892.80 958.19 29.97
5764 29.8640 879.09 917.24 29.66
5765 29.8680 807.65 876.68 28.52
5766 29.8740 727.78 836.98 27.02
5767 29.8780 744.66 798.58 27.41
5768 29.8830 741.22 761.82 27.29
5769 29.8890 703.83 727.19 26.64
5770 29.8940 671.37 695.17 25.94
5771 29.8990 670.15 666.07 25.95
5772 29.9040 604.72 640.02 24.65
5773 29.9090 638.41 617.04 25.37
5774 29.9130 609.91 597.00 24.78
5775 29.9180 609.38 579.67 24.80
5776 29.9240 569.87 564.81 23.87
5777 29.9280 555.66 552.15 23.63
5778 29.9340 531.78 541.70 23.03
5779 29.9380 522.30 532.61 23.00
5780 29.9440 535.06 524.94 23.18
5781 29.9490 494.53 518.47 22.35
5782 29.9540 514.95 513.01 22.76
5783 29.9580 513.21 508.39 22.69
5784 29.9640 451.95 504.45 21.24
5785 29.9690 474.66 501.09 21.89
5786 29.9730 512.20 498.21 22.64
5787 29.9790 440.11 495.73 21.08
5788 29.9830 491.00 493.58 22.23
5789 29.9890 481.90 491.70 22.04
5790 29.9930 479.52 490.05 21.86
5791 29.9990 489.67 488.60 22.19
5792 30.0040 478.30 487.32 21.95
5793 30.0090 478.02 486.18 21.95
5794 30.0140 484.92 485.19 22.09
5795 30.0190 513.00 484.31 22.77
5796 30.0240 511.23 483.54 22.59
5797 30.0280 466.55 482.87 21.64
5798 30.0340 471.30 482.30 21.71
5799 30.0380 465.23 481.47 21.67
5800 30.0440 476.81 481.07 21.93
5801 30.0490 488.77 480.72 22.23
5802 30.0530 494.25 480.48 22.25
5803 30.0590 465.39 480.33 21.59
5804 30.0640 509.71 480.26 22.57
5805 30.0690 489.67 480.28 22.26
5806 30.0740 495.88 480.38 22.33
5807 30.0790 479.59 480.57 22.02
5808 30.0830 483.73 480.87 22.05
5809 30.0880 505.65 481.26 22.55
5810 30.0940 520.28 481.79 22.80
5811 30.0980 503.02 482.46 22.50
5812 30.1040 476.09 483.29 21.85
5813 30.1080 476.51 484.31 21.92
5814 30.1140 509.11 485.55 22.63
5815 30.1190 508.04 487.04 22.68
5816 30.1240 488.80 488.80 22.09
5817 30.1280 478.40 490.89 21.97
5818 30.1340 463.17 494.41 21.56
5819 30.1390 493.49 497.29 22.32
5820 30.1430 504.20 500.62 22.47
5821 30.1490 493.01 504.47 22.32
5822 30.1530 512.53 508.87 22.67
5823 30.1590 522.27 513.91 22.92
5824 30.1630 551.02 519.62 23.48
5825 30.1690 528.90 526.11 23.12
5826 30.1740 570.51 533.42 23.94
5827 30.1790 510.59 541.65 22.77
5828 30.1840 518.76 550.90 22.79
5829 30.1890 524.87 561.18 22.97
5830 30.1940 564.74 572.63 23.73
5831 30.1980 571.10 585.48 24.02
5832 30.2030 607.53 599.81 24.73
5833 30.2080 579.51 615.96 24.21
5834 30.2130 597.71 634.35 24.50
5835 30.2190 638.98 654.83 25.40
5836 30.2230 671.33 677.48 25.88
5837 30.2290 694.30 702.04 26.37
5838 30.2340 716.74 727.80 26.81
5839 30.2390 687.55 753.67 26.42
5840 30.2440 775.48 778.06 27.89
5841 30.2490 825.31 798.52 28.86
5842 30.2530 823.76 813.68 28.71
5843 30.2580 857.36 821.10 29.33
5844 30.2640 874.33 819.58 29.52
5845 30.2680 852.37 809.19 29.33
5846 30.2740 777.34 791.21 27.94
5847 30.2780 744.58 767.75 27.43
5848 30.2840 708.55 740.99 26.64
5849 30.2890 662.94 713.89 25.87
5850 30.2940 620.99 686.27 24.81
5851 30.2990 664.19 660.21 25.83
5852 30.3040 601.77 636.50 24.59
5853 30.3090 566.39 615.66 23.92
5854 30.3130 594.84 598.01 24.43
5855 30.3190 580.22 583.64 24.18
5856 30.3230 557.80 572.54 23.60
5857 30.3290 577.64 564.60 24.08
5858 30.3330 566.22 559.70 23.78
5859 30.3380 574.27 557.95 24.09
5860 30.3440 558.52 558.74 23.66
5861 30.3490 565.29 562.27 23.85
5862 30.3540 606.57 568.51 24.66
5863 30.3590 614.39 577.50 24.79
5864 30.3640 612.95 589.28 24.74
5865 30.3680 622.94 603.42 25.06
5866 30.3730 674.54 620.93 26.01
5867 30.3780 686.53 641.06 26.32
5868 30.3830 705.64 664.07 26.57
5869 30.3890 744.73 689.48 27.35
5870 30.3930 773.23 716.73 27.73
5871 30.3990 801.73 745.13 28.33
5872 30.4040 844.57 773.51 29.12
5873 30.4090 884.74 800.39 29.92
5874 30.4130 904.24 823.99 30.01
5875 30.4190 872.13 842.25 29.70
5876 30.4240 919.70 853.32 30.26
5877 30.4280 954.47 855.98 30.94
5878 30.4340 924.39 849.99 30.38
5879 30.4380 867.17 836.13 29.54
5880 30.4440 837.50 816.09 28.93
5881 30.4480 818.48 791.81 28.75
5882 30.4540 794.20 764.93 28.22
5883 30.4590 751.56 737.59 27.43
5884 30.4640 719.63 710.81 26.77
5885 30.4690 656.35 685.53 25.66
5886 30.4740 677.50 662.37 26.01
5887 30.4790 682.02 641.63 26.21
5888 30.4830 627.14 623.74 25.03
5889 30.4880 579.48 608.68 24.16
5890 30.4930 585.22 596.44 24.15
5891 30.4990 607.35 586.95 24.64
5892 30.5040 576.57 580.13 24.01
5893 30.5080 653.79 575.92 25.64
5894 30.5140 628.23 574.29 25.11
5895 30.5190 599.13 575.29 24.60
5896 30.5240 662.09 579.06 25.73
5897 30.5290 673.37 585.86 25.95
5898 30.5340 680.67 596.05 26.00
5899 30.5380 669.91 610.10 26.02
5900 30.5430 736.48 628.54 27.14
5901 30.5490 735.41 651.97 27.23
5902 30.5530 709.16 680.92 26.70
5903 30.5590 735.82 715.90 27.13
5904 30.5630 771.71 757.14 27.71
5905 30.5690 821.06 804.78 28.79
5906 30.5740 812.53 858.42 28.51
5907 30.5790 892.15 917.32 29.95
5908 30.5830 937.31 980.10 30.70
5909 30.5890 965.72 1044.68 31.17
5910 30.5940 1008.06 1108.10 31.68
5911 30.5980 1062.78 1166.46 32.63
5912 30.6040 1084.56 1215.41 32.98
5913 30.6080 1137.14 1249.57 33.92
5914 30.6140 1111.45 1265.32 33.34
5915 30.6180 1145.69 1260.72 34.01
5916 30.6240 1199.02 1236.44 34.59
5917 30.6290 1186.85 1195.51 34.47
5918 30.6340 1166.19 1142.26 34.16
5919 30.6390 1180.34 1081.36 34.49
5920 30.6440 1090.40 1017.02 33.01
5921 30.6490 1014.52 952.66 32.03
5922 30.6530 979.88 890.84 31.33
5923 30.6580 901.68 833.35 30.08
5924 30.6630 787.10 781.30 27.98
5925 30.6690 772.55 735.25 27.88
5926 30.6740 746.78 695.40 27.36
5927 30.6780 671.86 661.56 26.00
5928 30.6840 641.86 633.27 25.40
5929 30.6890 646.93 610.01 25.51
5930 30.6940 575.17 591.11 23.95
5931 30.6980 567.40 575.92 23.85
5932 30.7040 543.85 563.80 23.37
5933 30.7080 555.23 554.16 23.64
5934 30.7130 548.10 546.66 23.42
5935 30.7190 535.77 540.56 23.29
5936 30.7230 563.00 535.52 23.75
5937 30.7290 538.61 531.57 23.20
5938 30.7330 512.79 528.38 22.64
5939 30.7390 505.14 525.76 22.59
5940 30.7440 511.55 523.62 22.60
5941 30.7490 496.11 521.87 22.39
5942 30.7530 496.64 520.44 22.32
5943 30.7590 527.15 519.30 22.99
5944 30.7640 507.38 518.40 22.48
5945 30.7680 521.53 517.74 22.92
5946 30.7740 513.78 517.28 22.68
5947 30.7780 510.39 517.03 22.68
5948 30.7840 521.59 516.98 22.84
5949 30.7890 539.10 517.12 23.30
5950 30.7940 477.89 517.42 21.80
5951 30.7990 510.99 517.68 22.67
5952 30.8040 454.68 518.45 21.31
5953 30.8090 478.49 519.46 21.96
5954 30.8140 516.06 520.89 22.70
5955 30.8190 531.28 522.50 23.13
5956 30.8230 500.86 524.49 22.41
5957 30.8280 517.74 526.95 22.78
5958 30.8330 549.14 529.97 23.40
5959 30.8380 500.96 533.70 22.47
5960 30.8440 526.30 538.29 22.90
5961 30.8480 494.95 543.56 22.30
5962 30.8540 528.53 550.49 23.02
5963 30.8590 522.44 558.93 22.92
5964 30.8640 521.35 569.15 22.77
5965 30.8680 520.08 581.90 22.90
5966 30.8740 583.39 596.42 24.14
5967 30.8780 598.64 613.43 24.53
5968 30.8830 586.10 633.04 24.21
5969 30.8890 622.47 655.27 24.99
5970 30.8930 682.91 680.03 26.13
5971 30.8990 708.56 707.04 26.62
5972 30.9030 728.08 735.78 27.00
5973 30.9090 782.81 765.53 28.09
5974 30.9140 805.68 795.14 28.34
5975 30.9190 832.69 823.08 28.95
5976 30.9240 919.37 847.61 30.34
5977 30.9290 960.77 866.68 30.98
5978 30.9340 942.67 878.43 30.64
5979 30.9380 942.28 881.69 30.80
5980 30.9430 909.80 876.27 30.16
5981 30.9480 796.59 863.07 28.29
5982 30.9540 797.82 843.75 28.25
5983 30.9590 738.12 820.36 27.23
5984 30.9630 695.56 794.83 26.27
5985 30.9690 673.11 768.70 26.00
5986 30.9740 709.12 743.28 26.61
5987 30.9790 717.20 719.41 26.83
5988 30.9840 669.36 697.67 25.90
5989 30.9890 641.19 678.42 25.40
5990 30.9930 636.56 661.83 25.19
5991 30.9990 606.03 647.96 24.59
5992 31.0030 598.91 636.80 24.44
5993 31.0080 588.26 628.23 24.33
5994 31.0140 607.28 622.12 24.61
5995 31.0180 614.72 618.33 24.90
5996 31.0240 599.03 616.71 24.44
5997 31.0290 623.85 617.18 24.97
5998 31.0340 657.21 619.66 25.58
5999 31.0380 694.85 624.26 26.40
6000 31.0440 691.92 630.93 26.27
6001 31.0490 665.23 639.96 25.80
6002 31.0530 677.78 651.64 26.09
6003 31.0590 703.78 666.39 26.60
6004 31.0630 727.09 684.73 26.86
6005 31.0690 802.44 707.33 28.37
6006 31.0730 820.53 734.84 28.59
6007 31.0790 829.94 768.12 28.80
6008 31.0840 929.60 807.95 30.51
6009 31.0890 954.07 855.14 30.99
6010 31.0940 948.97 910.43 30.75
6011 31.0990 1044.53 974.40 32.28
6012 31.1040 1063.49 1047.41 32.57
6013 31.1080 1120.05 1129.46 33.51
6014 31.1130 1180.03 1220.12 34.31
6015 31.1180 1264.85 1318.34 35.72
6016 31.1240 1324.07 1422.34 36.40
6017 31.1290 1432.94 1529.16 37.89
6018 31.1330 1496.44 1634.81 38.62
6019 31.1390 1589.66 1734.36 39.86
6020 31.1440 1680.94 1821.31 40.90
6021 31.1490 1712.61 1889.33 41.45
6022 31.1530 1858.88 1932.73 43.19
6023 31.1590 1899.95 1947.79 43.79
6024 31.1630 1990.85 1933.64 44.54
6025 31.1690 1981.99 1892.35 44.55
6026 31.1740 1960.61 1828.60 44.17
6027 31.1780 1889.04 1748.04 43.46
6028 31.1840 1751.55 1657.81 41.88
6029 31.1880 1633.51 1563.96 40.62
6030 31.1940 1540.54 1471.53 39.22
6031 31.1990 1379.18 1384.93 37.18
6032 31.2040 1314.70 1307.33 36.17
6033 31.2080 1234.47 1241.12 35.17
6034 31.2140 1156.32 1187.97 33.91
6035 31.2190 1155.77 1149.02 34.18
6036 31.2230 1118.86 1124.92 33.46
6037 31.2280 1143.87 1116.42 33.84
6038 31.2330 1144.17 1122.46 33.82
6039 31.2390 1187.79 1143.11 34.49
6040 31.2440 1218.96 1177.49 34.88
6041 31.2490 1258.07 1224.55 35.55
6042 31.2540 1253.33 1282.64 35.43
6043 31.2590 1401.53 1349.61 37.55
6044 31.2640 1522.70 1422.62 38.97
6045 31.2690 1521.60 1498.03 39.09
6046 31.2740 1607.53 1571.29 40.05
6047 31.2780 1702.07 1637.13 41.30
6048 31.2830 1766.59 1689.97 42.01
6049 31.2880 1732.35 1724.78 41.81
6050 31.2940 1805.96 1738.07 42.46
6051 31.2990 1792.23 1728.67 42.37
6052 31.3030 1728.28 1698.00 41.58
6053 31.3090 1648.45 1649.32 40.64
6054 31.3140 1592.82 1587.08 39.83
6055 31.3190 1513.09 1515.56 39.06
6056 31.3230 1299.36 1438.44 36.04
6057 31.3290 1259.47 1358.58 35.53
6058 31.3330 1147.44 1278.21 33.76
6059 31.3380 1070.89 1199.17 32.82
6060 31.3440 980.27 1123.08 31.21
6061 31.3480 921.44 1051.32 30.39
6062 31.3540 924.59 985.18 30.47
6063 31.3580 885.62 924.96 29.82
6064 31.3640 832.90 871.07 28.76
6065 31.3690 779.65 823.62 27.96
6066 31.3740 737.93 782.31 27.14
6067 31.3780 706.68 746.70 26.62
6068 31.3840 690.77 716.22 26.26
6069 31.3890 652.09 690.34 25.63
6070 31.3930 672.80 668.46 25.91
6071 31.3980 619.94 650.00 24.84
6072 31.4030 647.26 634.47 25.43
6073 31.4090 640.54 621.37 25.35
6074 31.4140 589.97 610.33 24.24
6075 31.4190 602.47 600.98 24.64
6076 31.4240 571.49 593.04 23.95
6077 31.4290 561.28 586.24 23.67
6078 31.4340 571.06 580.41 23.81
6079 31.4390 525.29 575.37 23.00
6080 31.4440 542.74 570.63 23.24
6081 31.4480 547.65 566.82 23.48
6082 31.4540 542.33 563.48 23.33
6083 31.4580 527.30 560.56 23.01
6084 31.4630 559.07 558.01 23.54
6085 31.4690 557.28 555.79 23.63
6086 31.4730 521.57 553.87 22.83
6087 31.4790 541.22 552.22 23.29
6088 31.4840 535.10 550.84 23.15
6089 31.4890 499.45 549.72 22.42
6090 31.4930 499.00 548.84 22.27
6091 31.4990 541.16 548.21 23.27
6092 31.5030 521.03 547.83 22.73
6093 31.5080 510.26 547.73 22.68
6094 31.5140 540.17 548.03 23.23
6095 31.5180 561.74 548.53 23.79
6096 31.5240 573.26 549.39 23.98
6097 31.5290 554.24 550.67 23.51
6098 31.5340 526.63 552.44 22.89
6099 31.5390 560.96 554.79 23.76
6100 31.5440 564.93 557.83 23.76
6101 31.5490 569.19 561.68 23.92
6102 31.5540 611.16 566.51 24.72
6103 31.5590 599.87 571.85 24.56
6104 31.5630 584.73 579.15 24.09
6105 31.5680 592.29 587.93 24.39
6106 31.5730 631.42 598.34 25.11
6107 31.5790 631.18 610.68 25.14
6108 31.5840 624.72 625.01 25.03
6109 31.5880 688.56 641.42 26.33
6110 31.5940 685.38 659.99 26.13
6111 31.5990 682.83 680.65 26.12
6112 31.6040 732.88 703.26 27.07
6113 31.6080 730.48 727.56 27.11
6114 31.6140 752.97 753.08 27.42
6115 31.6180 807.28 779.15 28.52
6116 31.6240 865.92 804.86 29.46
6117 31.6280 832.28 829.01 28.91
6118 31.6330 843.60 850.34 28.98
6119 31.6390 897.63 867.65 30.02
6120 31.6430 875.65 880.06 29.64
6121 31.6490 942.83 887.38 30.71
6122 31.6540 917.47 890.06 30.36
6123 31.6590 892.18 889.13 30.01
6124 31.6630 883.18 885.80 29.63
6125 31.6690 877.42 881.32 29.68
6126 31.6740 849.26 877.09 29.16
6127 31.6780 804.86 872.36 28.40
6128 31.6830 833.60 867.64 28.91
6129 31.6880 856.01 862.39 29.39
6130 31.6940 883.86 855.78 29.72
6131 31.6990 818.63 846.84 28.67
6132 31.7040 835.72 834.83 28.88
6133 31.7090 841.09 819.46 29.08
6134 31.7140 796.96 801.05 28.24
6135 31.7190 732.46 780.41 27.22
6136 31.7240 692.36 758.56 26.35
6137 31.7290 656.52 736.55 25.67
6138 31.7330 640.53 715.27 25.26
6139 31.7380 642.69 695.39 25.42
6140 31.7430 647.35 677.40 25.45
6141 31.7490 590.61 661.61 24.40
6142 31.7540 620.45 648.26 24.98
6143 31.7580 585.47 637.50 24.25
6144 31.7640 564.32 629.39 23.73
6145 31.7690 602.32 624.02 24.60
6146 31.7740 594.90 621.47 24.43
6147 31.7780 609.38 621.84 24.77
6148 31.7840 625.87 625.29 25.04
6149 31.7880 682.20 632.02 26.24
6150 31.7940 656.10 642.30 25.61
6151 31.7990 671.01 656.43 25.92
6152 31.8030 667.93 674.78 25.87
6153 31.8090 646.01 697.73 25.54
6154 31.8130 718.85 725.56 26.80
6155 31.8190 760.34 758.59 27.74
6156 31.8240 776.12 796.88 27.92
6157 31.8290 780.91 840.36 28.03
6158 31.8330 799.24 888.69 28.22
6159 31.8390 866.08 941.14 29.51
6160 31.8440 981.03 996.58 31.34
6161 31.8480 1020.43 1053.31 32.04
6162 31.8530 1151.22 1109.02 33.99
6163 31.8580 1211.73 1160.81 34.94
6164 31.8640 1262.40 1205.29 35.47
6165 31.8690 1395.87 1238.81 37.46
6166 31.8740 1376.36 1258.19 37.10
6167 31.8790 1413.96 1261.28 37.74
6168 31.8840 1370.67 1247.57 36.99
6169 31.8890 1275.24 1218.40 35.92
6170 31.8930 1189.89 1176.62 34.48
6171 31.8990 1077.99 1125.87 32.88
6172 31.9030 993.84 1069.84 31.50
6173 31.9090 859.00 1011.75 29.38
6174 31.9130 829.67 954.28 28.84
6175 31.9190 735.25 899.20 27.20
6176 31.9240 694.91 847.92 26.34
6177 31.9280 663.70 801.36 25.88
6178 31.9340 615.78 759.71 24.77
6179 31.9390 632.47 723.31 25.21
6180 31.9440 623.31 691.63 24.97
6181 31.9480 603.02 665.21 24.60
6182 31.9540 612.50 643.27 24.77
6183 31.9580 618.73 625.37 24.98
6184 31.9630 574.96 611.05 23.97
6185 31.9680 593.65 599.88 24.43
6186 31.9730 585.82 591.42 24.18
6187 31.9790 623.60 585.31 24.99
6188 31.9840 563.80 581.28 23.78
6189 31.9890 577.13 579.02 24.10
6190 31.9940 589.39 578.35 24.30
6191 31.9990 592.26 579.11 24.39
6192 32.0040 564.03 581.13 23.71
6193 32.0080 567.35 584.28 23.88
6194 32.0140 557.05 588.40 23.61
6195 32.0190 588.82 593.29 24.33
6196 32.0230 622.63 598.73 24.97
6197 32.0290 642.44 604.46 25.40
6198 32.0330 608.23 610.03 24.65
6199 32.0390 600.84 615.04 24.56
6200 32.0440 645.42 618.98 25.40
6201 32.0480 607.44 621.37 24.69
6202 32.0540 633.20 621.84 25.22
6203 32.0590 634.59 620.21 25.21
6204 32.0630 629.04 616.59 25.07
6205 32.0690 584.90 611.30 24.24
6206 32.0740 617.38 604.79 24.81
6207 32.0790 595.95 597.55 24.48
6208 32.0840 549.82 590.04 23.48
6209 32.0880 529.59 582.62 23.08
6210 32.0940 555.01 575.57 23.53
6211 32.0990 544.87 569.08 23.36
6212 32.1030 528.95 563.29 22.95
6213 32.1090 531.28 558.29 23.12
6214 32.1140 520.98 554.13 22.85
6215 32.1190 539.41 550.83 23.30
6216 32.1240 523.53 548.40 22.89
6217 32.1280 520.98 546.82 22.84
6218 32.1340 531.17 545.84 23.00
6219 32.1390 561.71 545.89 23.71
6220 32.1430 554.29 546.72 23.56
6221 32.1490 573.33 548.20 24.03
6222 32.1540 567.81 550.52 23.83
6223 32.1580 513.92 553.53 22.71
6224 32.1640 545.39 557.23 23.28
6225 32.1680 603.14 561.58 24.60
6226 32.1730 599.12 566.41 24.51
6227 32.1790 626.73 571.90 25.07
6228 32.1830 600.45 577.83 24.50
6229 32.1890 615.17 584.08 24.86
6230 32.1940 618.01 590.48 24.81
6231 32.1980 683.55 596.82 26.16
6232 32.2040 695.32 602.85 26.34
6233 32.2080 666.72 608.34 25.91
6234 32.2130 634.64 613.07 25.18
6235 32.2190 700.47 616.89 26.56
6236 32.2230 651.79 619.33 25.52
6237 32.2290 672.00 622.10 25.93
6238 32.2340 714.19 624.85 26.71
6239 32.2380 713.36 628.10 26.74
6240 32.2440 694.15 632.40 26.36
6241 32.2490 728.08 638.30 27.11
6242 32.2530 728.38 646.38 26.99
6243 32.2590 731.01 657.06 27.05
6244 32.2640 739.49 671.10 27.13
6245 32.2690 761.09 688.94 27.67
6246 32.2740 774.61 711.05 27.83
6247 32.2780 776.94 737.87 28.00
6248 32.2840 791.44 769.76 28.14
6249 32.2890 829.80 806.98 28.89
6250 32.2930 944.39 849.60 30.65
6251 32.2990 939.34 897.48 30.70
6252 32.3040 933.24 950.23 30.56
6253 32.3080 957.38 1007.06 31.05
6254 32.3140 1029.25 1066.80 32.06
6255 32.3180 1058.22 1128.60 32.65
6256 32.3240 1098.82 1188.15 33.17
6257 32.3290 1146.61 1243.15 33.87
6258 32.3330 1201.63 1289.95 34.60
6259 32.3390 1290.13 1325.71 36.06
6260 32.3440 1289.95 1346.23 35.92
6261 32.3480 1302.82 1350.30 36.24
6262 32.3540 1310.77 1336.95 36.24
6263 32.3590 1322.65 1307.49 36.45
6264 32.3640 1307.90 1264.60 36.03
6265 32.3690 1316.83 1212.30 36.40
6266 32.3730 1239.26 1153.64 35.23
6267 32.3790 1179.72 1092.13 34.47
6268 32.3840 1141.21 1030.58 33.87
6269 32.3880 1031.31 971.03 32.18
6270 32.3940 993.06 914.79 31.49
6271 32.3990 901.42 862.94 29.98
6272 32.4040 800.42 815.97 28.30
6273 32.4090 777.61 774.22 27.98
6274 32.4130 825.43 737.60 28.75
6275 32.4190 735.98 705.87 27.25
6276 32.4240 721.89 678.94 26.87
6277 32.4280 694.29 656.26 26.34
6278 32.4340 678.73 637.40 25.96
6279 32.4390 681.19 621.97 26.15
6280 32.4430 663.98 609.42 25.80
6281 32.4490 639.45 599.37 25.35
6282 32.4530 594.72 591.48 24.41
6283 32.4590 635.40 585.43 25.26
6284 32.4640 631.61 581.01 25.05
6285 32.4680 617.94 578.02 24.86
6286 32.4740 599.38 576.34 24.47
6287 32.4790 573.15 575.88 24.01
6288 32.4830 612.58 576.60 24.78
6289 32.4890 591.35 578.48 24.36
6290 32.4940 584.77 581.53 24.15
6291 32.4980 621.44 585.75 24.87
6292 32.5040 608.70 591.14 24.60
6293 32.5080 610.53 597.68 24.80
6294 32.5140 631.06 605.33 25.12
6295 32.5190 617.40 613.99 24.93
6296 32.5230 599.76 623.53 24.48
6297 32.5290 615.69 633.72 24.80
6298 32.5340 646.12 644.24 25.31
6299 32.5380 634.05 654.70 25.18
6300 32.5440 641.01 664.56 25.39
6301 32.5490 594.44 673.27 24.40
6302 32.5530 674.90 680.20 25.95
6303 32.5590 655.21 684.93 25.65
6304 32.5630 662.99 687.22 25.64
6305 32.5690 722.05 687.13 26.85
6306 32.5740 760.47 685.02 27.60
6307 32.5780 732.92 681.49 27.12
6308 32.5840 670.23 677.21 25.87
6309 32.5890 726.65 672.98 27.01
6310 32.5930 703.95 669.63 26.50
6311 32.5990 734.47 667.83 27.02
6312 32.6040 705.46 668.31 26.47
6313 32.6090 710.50 671.70 26.71
6314 32.6140 703.76 678.54 26.50
6315 32.6180 752.40 689.34 27.46
6316 32.6240 714.61 704.51 26.73
6317 32.6290 771.35 724.36 27.83
6318 32.6330 782.02 749.08 27.82
6319 32.6390 792.02 778.70 28.13
6320 32.6440 826.72 813.07 28.70
6321 32.6490 895.94 851.81 29.96
6322 32.6540 945.62 894.20 30.75
6323 32.6580 992.18 939.17 31.56
6324 32.6640 1011.83 985.34 31.71
6325 32.6690 1090.95 1030.63 32.95
6326 32.6730 1133.06 1072.54 33.60
6327 32.6790 1236.74 1108.31 35.21
6328 32.6840 1239.05 1134.71 35.13
6329 32.6880 1310.04 1149.25 36.21
6330 32.6940 1308.64 1150.36 36.17
6331 32.6980 1328.14 1137.60 36.38
6332 32.7040 1210.97 1112.60 34.67
6333 32.7090 1113.07 1077.55 33.39
6334 32.7130 1063.66 1034.87 32.59
6335 32.7190 1000.34 988.04 31.70
6336 32.7240 958.55 939.38 30.99
6337 32.7280 914.08 890.95 30.25
6338 32.7340 863.43 844.17 29.25
6339 32.7380 768.94 800.24 27.73
6340 32.7440 730.31 759.80 27.03
6341 32.7490 695.52 723.33 26.44
6342 32.7530 678.60 690.91 25.99
6343 32.7590 665.98 662.52 25.89
6344 32.7640 604.17 638.04 24.52
6345 32.7680 592.74 617.14 24.30
6346 32.7740 596.69 599.47 24.42
6347 32.7790 554.77 584.67 23.61
6348 32.7830 565.43 572.37 23.75
6349 32.7890 517.39 562.14 22.84
6350 32.7930 556.09 553.67 23.54
6351 32.7990 520.55 546.65 22.77
6352 32.8040 499.39 540.79 22.28
6353 32.8080 509.20 535.87 22.64
6354 32.8140 569.05 531.71 23.83
6355 32.8190 477.48 528.17 21.90
6356 32.8230 497.95 525.10 22.33
6357 32.8290 510.78 522.43 22.66
6358 32.8330 540.99 520.09 23.15
6359 32.8380 496.71 518.01 22.29
6360 32.8440 507.36 516.16 22.53
6361 32.8480 508.68 514.50 22.59
6362 32.8540 478.18 513.01 21.88
6363 32.8590 476.94 511.67 21.87
6364 32.8630 501.65 510.47 22.36
6365 32.8690 487.10 509.38 22.04
6366 32.8740 490.83 508.41 22.10
6367 32.8780 495.87 507.54 22.35
6368 32.8840 480.21 506.77 21.90
6369 32.8890 484.72 506.08 22.05
6370 32.8940 486.06 504.88 22.03
6371 32.8990 546.88 504.37 23.37
6372 32.9030 485.62 503.95 21.95
6373 32.9090 470.11 503.60 21.73
6374 32.9140 486.26 503.34 22.05
6375 32.9180 500.30 503.15 22.42
6376 32.9240 505.12 502.88 22.49
6377 32.9290 505.53 502.87 22.52
6378 32.9340 485.63 502.95 21.92
6379 32.9390 463.66 503.14 21.54
6380 32.9430 483.03 503.44 21.98
6381 32.9490 515.23 503.87 22.72
6382 32.9540 524.16 504.45 22.89
6383 32.9580 524.76 505.21 22.94
6384 32.9640 541.58 506.17 23.20
6385 32.9690 513.21 507.37 22.65
6386 32.9730 518.11 508.85 22.70
6387 32.9790 561.66 510.67 23.72
6388 32.9830 541.10 512.87 23.23
6389 32.9890 527.73 515.85 23.00
6390 32.9940 493.31 519.00 22.19
6391 32.9980 530.78 522.71 23.03
6392 33.0040 526.29 527.05 22.82
6393 33.0090 575.66 532.06 24.03
6394 33.0130 552.91 537.77 23.48
6395 33.0190 558.81 544.59 23.67
6396 33.0240 526.26 551.77 22.92
6397 33.0290 525.24 559.64 22.94
6398 33.0340 532.61 568.12 23.00
6399 33.0380 553.70 577.10 23.50
6400 33.0440 555.35 586.37 23.51
6401 33.0490 523.75 595.64 22.94
6402 33.0530 534.36 604.57 23.09
6403 33.0590 567.30 612.74 23.85
6404 33.0640 597.72 619.64 24.35
6405 33.0680 598.78 624.83 24.41
6406 33.0740 573.73 627.88 23.92
6407 33.0780 619.71 628.75 24.88
6408 33.0840 639.23 627.39 25.27
6409 33.0890 610.35 624.01 24.75
6410 33.0930 619.25 618.97 24.79
6411 33.0990 599.47 612.71 24.47
6412 33.1040 602.71 605.72 24.44
6413 33.1080 613.37 598.43 24.74
6414 33.1140 606.02 591.22 24.60
6415 33.1180 530.79 584.41 23.07
6416 33.1230 597.93 578.26 24.44
6417 33.1290 604.46 572.94 24.55
6418 33.1330 599.18 568.63 24.37
6419 33.1390 600.61 565.46 24.46
6420 33.1440 601.66 563.54 24.50
6421 33.1480 575.48 562.95 23.99
6422 33.1540 633.28 563.82 25.08
6423 33.1590 580.90 566.22 24.14
6424 33.1630 618.04 570.28 24.76
6425 33.1690 568.41 576.11 23.83
6426 33.1740 600.70 583.79 24.44
6427 33.1790 651.58 593.45 25.49
6428 33.1840 622.67 605.15 24.89
6429 33.1880 636.24 618.92 25.25
6430 33.1940 679.07 634.78 26.01
6431 33.1990 667.45 652.63 25.83
6432 33.2030 698.35 672.34 26.34
6433 33.2090 754.42 693.62 27.41
6434 33.2140 668.12 716.04 25.75
6435 33.2180 736.74 739.05 27.15
6436 33.2240 746.72 761.86 27.27
6437 33.2280 833.40 783.43 28.92
6438 33.2340 847.73 802.67 28.99
6439 33.2390 822.72 818.34 28.63
6440 33.2430 888.10 829.49 29.69
6441 33.2490 962.59 835.59 30.99
6442 33.2540 961.13 836.72 30.94
6443 33.2580 898.70 833.66 30.04
6444 33.2640 854.60 827.67 29.17
6445 33.2680 899.19 820.28 29.91
6446 33.2740 872.82 813.61 29.47
6447 33.2790 896.74 808.18 29.93
6448 33.2830 894.30 805.86 29.78
6449 33.2890 879.77 807.89 29.70
6450 33.2940 807.86 815.36 28.43
6451 33.2980 831.51 829.16 28.80
6452 33.3040 868.77 850.30 29.32
6453 33.3090 938.09 879.38 30.64
6454 33.3140 916.66 916.95 30.14
6455 33.3190 1010.22 963.27 31.77
6456 33.3230 1019.32 1018.49 31.96
6457 33.3290 1090.85 1082.43 33.07
6458 33.3340 1142.24 1154.40 33.67
6459 33.3380 1195.29 1233.35 34.55
6460 33.3440 1245.49 1317.88 35.11
6461 33.3490 1321.52 1405.51 36.36
6462 33.3530 1447.39 1493.19 38.00
6463 33.3590 1549.76 1577.27 39.46
6464 33.3630 1583.87 1653.21 39.78
6465 33.3690 1662.39 1716.75 40.71
6466 33.3740 1767.56 1763.88 41.90
6467 33.3780 1748.30 1793.21 41.85
6468 33.3840 1841.33 1804.24 42.81
6469 33.3890 1851.88 1798.61 43.14
6470 33.3930 1794.93 1779.12 42.36
6471 33.3990 1788.60 1748.88 42.26
6472 33.4030 1676.10 1710.59 40.72
6473 33.4080 1675.95 1666.06 40.97
6474 33.4140 1615.40 1616.04 40.13
6475 33.4180 1599.71 1560.81 40.04
6476 33.4240 1533.12 1500.29 39.21
6477 33.4290 1433.98 1434.68 37.90
6478 33.4330 1389.71 1364.71 37.15
6479 33.4390 1265.44 1291.82 35.59
6480 33.4440 1132.33 1218.00 33.59
6481 33.4480 1071.53 1145.08 32.73
6482 33.4540 972.96 1074.82 31.13
6483 33.4580 941.35 1008.67 30.78
6484 33.4640 930.58 947.51 30.46
6485 33.4690 852.19 891.26 29.14
6486 33.4730 791.25 841.38 28.07
6487 33.4790 774.23 797.39 27.84
6488 33.4840 725.00 758.84 26.87
6489 33.4880 770.15 725.58 27.81
6490 33.4940 680.64 697.35 26.08
6491 33.4990 659.42 673.65 25.67
6492 33.5030 607.76 654.09 24.49
6493 33.5090 694.48 638.26 26.42
6494 33.5130 617.83 625.80 24.79
6495 33.5190 620.06 616.30 24.94
6496 33.5240 621.95 609.41 24.93
6497 33.5280 642.60 604.81 25.36
6498 33.5340 604.27 602.19 24.46
6499 33.5390 614.81 601.26 24.77
6500 33.5430 617.09 601.75 24.83
6501 33.5490 580.66 603.36 24.10
6502 33.5540 588.12 605.78 24.18
6503 33.5590 591.47 608.68 24.38
6504 33.5640 565.12 611.65 23.71
6505 33.5680 592.10 614.27 24.27
6506 33.5740 571.86 616.07 23.84
6507 33.5790 586.36 616.64 24.25
6508 33.5830 552.53 615.70 23.46
6509 33.5890 573.49 613.11 23.97
6510 33.5940 596.34 608.99 24.36
6511 33.5990 568.89 603.60 23.83
6512 33.6040 594.34 597.41 24.27
6513 33.6080 606.62 590.76 24.63
6514 33.6140 578.78 584.75 24.02
6515 33.6190 543.20 578.55 23.30
6516 33.6230 581.29 573.05 24.08
6517 33.6290 570.56 568.48 23.91
6518 33.6340 568.23 565.06 23.73
6519 33.6380 563.45 562.94 23.70
6520 33.6440 579.72 562.25 23.99
6521 33.6480 587.03 563.08 24.25
6522 33.6540 540.33 565.49 23.19
6523 33.6590 541.67 569.50 23.32
6524 33.6630 594.62 575.09 24.33
6525 33.6690 597.30 582.19 24.39
6526 33.6740 549.08 590.67 23.33
6527 33.6780 540.51 600.49 23.25
6528 33.6840 556.26 611.10 23.54
6529 33.6880 593.71 622.27 24.39
6530 33.6930 601.35 633.52 24.44
6531 33.6990 588.08 644.32 24.25
6532 33.7030 669.62 654.05 25.74
6533 33.7090 673.41 662.13 25.93
6534 33.7140 611.30 668.17 24.72
6535 33.7180 628.80 672.06 25.07
6536 33.7240 652.04 673.71 25.48
6537 33.7290 661.25 673.48 25.71
6538 33.7330 638.86 671.72 25.11
6539 33.7390 661.43 668.73 25.69
6540 33.7430 676.54 664.70 25.95
6541 33.7480 638.48 659.24 25.31
6542 33.7540 655.21 653.14 25.55
6543 33.7580 643.68 645.61 25.36
6544 33.7640 594.70 637.03 24.31
6545 33.7690 626.74 627.21 25.00
6546 33.7730 636.12 616.37 25.14
6547 33.7790 618.67 604.85 24.88
6548 33.7840 575.17 593.05 23.95
6549 33.7880 595.72 581.35 24.44
6550 33.7940 522.17 570.05 22.74
6551 33.7980 530.16 559.50 23.05
6552 33.8040 510.14 549.66 22.50
6553 33.8090 474.55 540.72 21.79
6554 33.8130 504.09 532.73 22.45
6555 33.8190 499.22 525.67 22.37
6556 33.8240 541.49 519.52 23.21
6557 33.8280 527.74 514.25 23.02
6558 33.8340 504.67 509.79 22.43
6559 33.8390 537.69 506.08 23.21
6560 33.8440 502.75 503.04 22.35
6561 33.8490 511.87 500.59 22.67
6562 33.8530 490.88 498.67 22.10
6563 33.8590 491.46 497.20 22.21
6564 33.8640 451.06 496.14 21.21
6565 33.8680 491.29 495.44 22.16
6566 33.8740 495.92 495.04 22.23
6567 33.8790 524.78 494.92 22.99
6568 33.8840 481.19 495.06 21.87
6569 33.8890 469.96 495.44 21.72
6570 33.8930 505.89 496.05 22.47
6571 33.8990 464.71 496.91 21.57
6572 33.9040 482.50 498.01 21.93
6573 33.9080 529.68 499.37 23.03
6574 33.9140 513.26 501.04 22.63
6575 33.9190 542.16 503.04 23.32
6576 33.9230 512.10 505.45 22.64
6577 33.9290 526.89 508.33 22.98
6578 33.9330 557.20 511.78 23.58
6579 33.9390 494.62 515.93 22.26
6580 33.9440 520.78 520.91 22.78
6581 33.9480 516.66 526.90 22.76
6582 33.9540 601.94 534.13 24.48
6583 33.9590 599.62 542.81 24.55
6584 33.9630 612.43 553.20 24.69
6585 33.9690 588.93 565.63 24.26
6586 33.9740 621.33 580.35 24.90
6587 33.9780 645.18 597.68 25.41
6588 33.9840 667.03 617.94 25.82
6589 33.9880 685.12 641.36 26.23
6590 33.9940 668.15 668.16 25.80
6591 33.9990 686.97 698.42 26.22
6592 34.0030 696.08 732.21 26.31
6593 34.0090 744.08 769.38 27.26
6594 34.0140 798.80 809.52 28.24
6595 34.0180 857.92 852.10 29.34
6596 34.0240 860.75 896.22 29.32
6597 34.0280 910.18 940.58 30.21
6598 34.0330 957.17 983.61 30.85
6599 34.0390 1069.24 1023.66 32.69
6600 34.0430 1056.41 1058.94 32.44
6601 34.0490 1081.39 1088.08 32.94
6602 34.0540 1142.22 1110.24 33.71
6603 34.0580 1209.65 1124.98 34.82
6604 34.0640 1244.96 1132.30 35.19
6605 34.0690 1283.44 1132.25 35.77
6606 34.0730 1198.59 1124.77 34.56
6607 34.0790 1163.69 1109.75 34.11
6608 34.0830 1142.78 1087.26 33.77
6609 34.0890 1127.45 1057.75 33.61
6610 34.0940 1047.59 1022.23 32.24
6611 34.0980 1009.17 982.19 31.77
6612 34.1040 897.74 939.35 29.86
6613 34.1090 823.27 895.45 28.70
6614 34.1130 822.70 851.98 28.61
6615 34.1190 755.83 810.09 27.52
6616 34.1240 684.02 770.71 26.09
6617 34.1290 678.29 734.28 26.04
6618 34.1340 640.70 701.53 25.26
6619 34.1380 640.12 671.90 25.30
6620 34.1440 600.97 645.64 24.41
6621 34.1490 549.38 622.69 23.41
6622 34.1530 569.44 602.81 23.84
6623 34.1590 530.36 585.81 23.03
6624 34.1640 550.46 571.39 23.44
6625 34.1680 535.67 559.25 23.15
6626 34.1740 523.31 549.15 22.77
6627 34.1780 518.01 540.78 22.76
6628 34.1840 561.26 533.92 23.59
6629 34.1890 501.47 528.33 22.42
6630 34.1930 490.39 523.82 22.09
6631 34.1990 505.32 520.22 22.49
6632 34.2040 478.15 517.42 21.78
6633 34.2080 556.86 515.28 23.58
6634 34.2140 531.45 513.74 22.95
6635 34.2180 558.86 512.73 23.62
6636 34.2240 531.21 512.14 23.00
6637 34.2290 541.62 512.13 23.30
6638 34.2330 575.64 512.62 23.92
6639 34.2390 537.20 513.64 23.17
6640 34.2440 571.62 515.25 23.78
6641 34.2480 569.18 517.50 23.87
6642 34.2540 583.66 520.52 24.12
6643 34.2590 601.16 524.39 24.53
6644 34.2630 557.96 529.28 23.57
6645 34.2690 568.20 535.37 23.82
6646 34.2730 592.03 542.81 24.23
6647 34.2790 578.44 551.84 24.03
6648 34.2840 635.97 562.66 25.17
6649 34.2880 637.96 575.49 25.33
6650 34.2940 611.96 590.55 24.66
6651 34.2990 606.05 608.00 24.57
6652 34.3030 637.37 628.01 25.15
6653 34.3090 655.51 650.68 25.58
6654 34.3130 660.23 675.99 25.65
6655 34.3180 707.23 703.60 26.63
6656 34.3240 739.92 733.86 27.17
6657 34.3280 729.03 766.07 26.95
6658 34.3340 741.51 799.72 27.10
6659 34.3390 783.96 833.91 27.98
6660 34.3430 845.00 867.58 28.99
6661 34.3490 807.66 899.28 28.46
6662 34.3540 882.68 927.27 29.68
6663 34.3580 879.26 949.72 29.65
6664 34.3640 928.63 964.89 30.42
6665 34.3680 953.61 971.41 30.80
6666 34.3740 909.59 968.71 30.06
6667 34.3790 951.99 957.07 30.86
6668 34.3830 971.94 937.58 31.15
6669 34.3890 931.28 911.87 30.55
6670 34.3940 937.88 881.79 30.55
6671 34.3980 940.59 849.11 30.63
6672 34.4040 859.79 815.37 29.16
6673 34.4090 852.96 781.87 29.20
6674 34.4140 803.18 749.45 28.35
6675 34.4190 789.41 718.85 28.11
6676 34.4230 780.66 690.15 27.92
6677 34.4290 761.47 664.32 27.61
6678 34.4340 725.52 641.22 26.79
6679 34.4380 647.77 620.82 25.43
6680 34.4440 653.95 603.11 25.55
6681 34.4490 628.84 587.79 25.06
6682 34.4530 602.33 575.16 24.54
6683 34.4590 602.85 564.84 24.56
6684 34.4630 619.35 556.69 24.82
6685 34.4690 605.99 550.55 24.61
6686 34.4740 555.71 546.32 23.51
6687 34.4780 559.48 543.89 23.69
6688 34.4840 601.40 543.21 24.50
6689 34.4890 541.55 543.31 23.31
6690 34.4930 549.99 546.08 23.39
6691 34.4990 564.93 550.61 23.79
6692 34.5040 594.13 556.94 24.27
6693 34.5090 599.41 565.13 24.52
6694 34.5140 548.70 575.21 23.38
6695 34.5180 603.34 587.21 24.61
6696 34.5240 609.50 601.12 24.61
6697 34.5290 642.47 616.83 25.42
6698 34.5330 601.15 634.18 24.42
6699 34.5390 619.33 652.95 24.91
6700 34.5440 626.66 672.70 24.97
6701 34.5480 612.41 692.88 24.78
6702 34.5540 658.97 712.81 25.67
6703 34.5580 681.33 731.57 26.09
6704 34.5640 706.82 748.02 26.53
6705 34.5690 726.84 761.55 26.96
6706 34.5730 728.17 770.92 26.91
6707 34.5790 739.47 775.68 27.25
6708 34.5840 796.43 775.64 28.16
6709 34.5880 780.44 771.11 27.98
6710 34.5940 808.13 762.71 28.39
6711 34.5980 784.53 751.41 27.98
6712 34.6030 772.53 738.29 27.70
6713 34.6090 746.98 724.42 27.32
6714 34.6130 758.13 710.89 27.49
6715 34.6190 728.74 698.59 27.00
6716 34.6240 683.93 688.28 26.11
6717 34.6280 717.78 680.69 26.83
6718 34.6340 722.56 676.30 26.81
6719 34.6390 728.40 675.58 26.96
6720 34.6430 699.50 678.90 26.32
6721 34.6490 714.55 686.59 26.78
6722 34.6530 711.10 698.86 26.59
6723 34.6590 771.47 715.90 27.81
6724 34.6640 737.00 737.83 27.03
6725 34.6680 777.53 764.68 27.88
6726 34.6740 810.28 796.34 28.33
6727 34.6790 855.51 832.56 29.27
6728 34.6830 864.97 872.93 29.35
6729 34.6890 924.62 916.85 30.40
6730 34.6940 925.18 963.37 30.37
6731 34.6980 970.86 1011.60 31.14
6732 34.7040 1036.31 1060.45 32.02
6733 34.7080 1113.05 1108.69 33.31
6734 34.7140 1127.84 1155.15 33.47
6735 34.7190 1168.79 1198.46 34.24
6736 34.7230 1247.50 1237.03 35.26
6737 34.7290 1279.67 1268.94 35.80
6738 34.7340 1361.30 1292.03 36.71
6739 34.7380 1386.32 1304.43 37.11
6740 34.7440 1385.34 1304.53 37.15
6741 34.7480 1374.98 1291.53 37.04
6742 34.7540 1314.27 1265.73 36.17
6743 34.7590 1269.54 1228.75 35.65
6744 34.7630 1150.26 1182.78 33.81
6745 34.7690 1062.20 1130.42 32.56
6746 34.7740 1091.69 1074.47 32.85
6747 34.7780 1012.90 1017.34 31.84
6748 34.7840 929.43 961.04 30.39
6749 34.7890 822.80 907.12 28.70
6750 34.7940 801.71 856.66 28.27
6751 34.7990 740.48 810.56 27.20
6752 34.8030 696.51 769.19 26.27
6753 34.8090 710.49 732.82 26.59
6754 34.8140 671.15 701.59 25.80
6755 34.8180 674.07 675.42 25.99
6756 34.8240 620.85 654.06 24.82
6757 34.8290 665.72 637.36 25.89
6758 34.8340 616.81 624.98 24.76
6759 34.8390 628.60 616.55 24.97
6760 34.8430 571.68 611.75 23.79
6761 34.8490 614.37 610.09 24.78
6762 34.8540 606.93 611.34 24.58
6763 34.8580 572.04 615.09 23.93
6764 34.8640 620.60 620.76 24.87
6765 34.8690 578.63 628.08 24.02
6766 34.8730 635.07 636.21 25.07
6767 34.8790 574.24 644.69 23.95
6768 34.8830 599.15 652.80 24.36
6769 34.8880 633.81 659.73 25.19
6770 34.8940 606.04 664.70 24.60
6771 34.8980 616.05 666.98 24.80
6772 34.9040 621.77 666.05 24.88
6773 34.9090 633.90 661.76 25.08
6774 34.9130 674.60 654.26 25.89
6775 34.9190 612.71 644.02 24.78
6776 34.9240 630.08 631.75 25.10
6777 34.9280 590.94 618.12 24.31
6778 34.9340 596.98 603.79 24.40
6779 34.9380 596.59 589.32 24.39
6780 34.9440 565.65 575.15 23.67
6781 34.9490 553.07 561.60 23.54
6782 34.9530 561.10 548.89 23.64
6783 34.9590 505.07 537.15 22.52
6784 34.9640 537.78 526.51 23.14
6785 34.9680 509.94 516.95 22.58
6786 34.9740 471.43 508.48 21.62
6787 34.9790 486.52 501.08 22.05
6788 34.9830 477.26 494.65 21.81
6789 34.9890 510.65 489.12 22.58
6790 34.9930 481.36 484.41 21.95
6791 34.9990 467.21 480.42 21.62
6792 35.0040 476.82 477.06 21.74
6793 35.0080 465.74 474.24 21.59
6794 35.0140 459.97 471.89 21.39
6795 35.0190 447.77 469.94 21.18
6796 35.0230 466.49 468.32 21.58
6797 35.0290 473.71 466.98 21.83
6798 35.0340 451.34 465.89 21.18
6799 35.0390 470.00 465.01 21.62
6800 35.0440 485.08 464.33 22.01
6801 35.0480 471.01 463.80 21.69
6802 35.0540 466.21 463.44 21.57
6803 35.0590 476.15 463.22 21.88
6804 35.0630 452.75 463.15 21.21
6805 35.0690 468.75 463.22 21.61
6806 35.0740 467.75 463.46 21.52
6807 35.0790 428.45 463.84 20.71
6808 35.0840 464.80 464.38 21.51
6809 35.0880 437.80 465.11 20.94
6810 35.0940 488.05 466.05 22.07
6811 35.0990 490.50 467.24 22.15
6812 35.1030 446.91 468.72 21.05
6813 35.1090 497.43 470.38 22.24
6814 35.1140 498.59 472.63 22.26
6815 35.1180 483.34 475.40 22.04
6816 35.1240 503.50 478.80 22.36
6817 35.1280 446.11 482.95 21.20
6818 35.1340 483.30 488.00 21.89
6819 35.1390 515.95 494.13 22.67
6820 35.1430 501.08 501.52 22.26
6821 35.1490 547.53 510.41 23.40
6822 35.1540 537.60 520.95 23.13
6823 35.1580 523.63 533.40 22.89
6824 35.1640 543.26 547.95 23.26
6825 35.1680 582.91 564.75 24.13
6826 35.1730 555.51 583.90 23.42
6827 35.1790 546.31 605.48 23.34
6828 35.1830 598.37 629.66 24.37
6829 35.1890 590.10 655.82 24.28
6830 35.1940 675.06 683.63 25.95
6831 35.1980 664.49 713.10 25.77
6832 35.2040 703.58 743.34 26.40
6833 35.2090 833.07 772.98 28.73
6834 35.2130 828.39 801.67 28.67
6835 35.2190 868.18 827.65 29.49
6836 35.2230 913.82 849.29 30.16
6837 35.2280 991.91 865.06 31.51
6838 35.2340 892.95 873.64 29.76
6839 35.2380 995.26 874.19 31.41
6840 35.2440 892.66 866.61 29.73
6841 35.2490 871.17 851.66 29.52
6842 35.2530 844.95 830.40 28.95
6843 35.2590 762.29 804.46 27.64
6844 35.2640 716.52 775.55 26.67
6845 35.2680 664.51 745.08 25.73
6846 35.2740 613.78 714.30 24.63
6847 35.2780 620.71 684.19 24.90
6848 35.2840 585.80 655.46 24.11
6849 35.2890 542.32 628.59 23.29
6850 35.2930 519.60 603.90 22.76
6851 35.2990 551.67 581.58 23.44
6852 35.3040 523.55 561.66 22.79
6853 35.3080 523.09 544.18 22.82
6854 35.3140 501.86 528.91 22.31
6855 35.3190 503.02 515.78 22.43
6856 35.3240 474.95 504.56 21.72
6857 35.3290 476.97 495.06 21.85
6858 35.3330 463.46 487.06 21.47
6859 35.3390 472.79 480.35 21.68
6860 35.3440 471.40 474.72 21.65
6861 35.3480 478.99 470.01 21.84
6862 35.3540 487.85 466.05 22.06
6863 35.3590 498.03 462.70 22.30
6864 35.3640 458.89 459.86 21.36
6865 35.3690 459.52 457.42 21.41
6866 35.3730 452.26 455.33 21.15
6867 35.3790 476.43 453.48 21.87
6868 35.3840 424.14 451.86 20.55
6869 35.3880 450.25 450.43 21.20
6870 35.3940 449.61 449.14 21.16
6871 35.3990 424.23 447.99 20.60
6872 35.4030 464.75 446.95 21.47
6873 35.4090 423.86 446.01 20.59
6874 35.4130 460.63 445.15 21.38
6875 35.4190 445.94 444.37 21.15
6876 35.4240 431.82 443.66 20.71
6877 35.4280 428.67 443.02 20.76
6878 35.4340 416.96 442.44 20.38
6879 35.4390 431.63 441.92 20.76
6880 35.4430 442.82 441.45 20.96
6881 35.4490 436.26 441.02 20.88
6882 35.4540 438.07 440.76 20.88
6883 35.4590 432.77 440.43 20.82
6884 35.4640 463.21 440.15 21.51
6885 35.4680 440.49 439.86 20.99
6886 35.4740 453.10 439.79 21.21
6887 35.4790 458.53 439.64 21.44
6888 35.4830 455.02 439.54 21.28
6889 35.4890 419.26 439.48 20.49
6890 35.4940 484.34 439.47 22.00
6891 35.4980 443.74 439.51 21.07
6892 35.5040 429.23 439.59 20.69
6893 35.5080 454.57 439.83 21.29
6894 35.5130 432.68 440.06 20.77
6895 35.5190 464.03 440.35 21.57
6896 35.5230 456.27 440.71 21.33
6897 35.5290 447.84 441.16 21.23
6898 35.5340 456.40 441.73 21.35
6899 35.5380 482.00 442.40 21.93
6900 35.5440 453.10 443.26 21.22
6901 35.5490 479.66 443.80 21.94
6902 35.5530 498.41 445.09 22.28
6903 35.5590 489.62 446.65 22.20
6904 35.5630 491.00 448.54 22.16
6905 35.5690 448.51 450.83 21.19
6906 35.5740 464.15 453.56 21.46
6907 35.5780 445.73 456.82 21.14
6908 35.5840 490.16 460.67 22.11
6909 35.5890 511.00 465.18 22.67
6910 35.5930 479.54 470.42 21.85
6911 35.5990 458.44 476.43 21.48
6912 35.6040 498.94 483.24 22.29
6913 35.6090 520.04 490.88 22.78
6914 35.6140 552.96 499.31 23.49
6915 35.6180 545.06 508.48 23.40
6916 35.6240 543.22 518.29 23.28
6917 35.6290 516.10 528.55 22.78
6918 35.6330 501.92 539.06 22.38
6919 35.6390 570.54 549.47 23.89
6920 35.6440 523.02 559.39 22.84
6921 35.6480 540.23 568.34 23.24
6922 35.6540 543.40 575.80 23.29
6923 35.6580 530.61 581.29 23.10
6924 35.6640 520.12 584.44 22.81
6925 35.6690 573.17 585.08 23.99
6926 35.6730 525.42 583.10 22.85
6927 35.6790 567.74 579.08 23.81
6928 35.6840 585.47 573.25 24.13
6929 35.6880 554.14 565.92 23.61
6930 35.6940 531.04 557.71 23.06
6931 35.6980 569.89 548.97 23.95
6932 35.7040 547.40 539.79 23.33
6933 35.7090 518.33 530.55 22.73
6934 35.7130 513.31 521.44 22.63
6935 35.7190 490.94 512.65 22.19
6936 35.7240 527.45 504.34 22.95
6937 35.7280 491.88 496.64 22.26
6938 35.7340 493.10 489.68 22.16
6939 35.7390 472.56 483.39 21.73
6940 35.7440 511.10 477.87 22.50
6941 35.7490 527.69 473.11 22.99
6942 35.7530 519.39 469.08 22.80
6943 35.7590 506.85 465.76 22.54
6944 35.7640 450.86 463.12 21.24
6945 35.7680 458.37 461.08 21.43
6946 35.7740 465.21 459.67 21.49
6947 35.7790 457.99 458.81 21.43
6948 35.7830 468.48 458.49 21.63
6949 35.7890 468.04 458.66 21.65
6950 35.7930 484.93 459.31 22.00
6951 35.7980 458.91 460.40 21.46
6952 35.8040 445.75 461.87 21.05
6953 35.8080 470.58 463.77 21.66
6954 35.8140 479.23 466.05 21.89
6955 35.8190 474.13 468.61 21.82
6956 35.8230 479.55 471.42 21.88
6957 35.8290 463.08 474.16 21.56
6958 35.8330 437.73 477.26 20.90
6959 35.8380 466.04 480.34 21.60
6960 35.8440 466.97 483.30 21.53
6961 35.8480 499.63 485.98 22.39
6962 35.8540 500.60 488.28 22.34
6963 35.8590 458.06 490.10 21.45
6964 35.8630 504.80 491.40 22.45
6965 35.8690 519.05 492.11 22.82
6966 35.8740 482.48 492.46 21.92
6967 35.8780 439.57 492.75 20.96
6968 35.8840 513.58 493.02 22.65
6969 35.8890 525.68 493.56 23.00
6970 35.8940 503.49 494.55 22.39
6971 35.8990 514.05 496.18 22.70
6972 35.9030 499.18 498.61 22.32
6973 35.9090 497.68 501.99 22.26
6974 35.9140 502.11 506.06 22.35
6975 35.9180 528.02 511.70 23.06
6976 35.9240 503.85 518.59 22.45
6977 35.9290 513.42 526.77 22.70
6978 35.9330 536.14 536.26 23.15
6979 35.9390 558.33 547.02 23.61
6980 35.9430 562.47 559.09 23.62
6981 35.9490 557.70 572.09 23.66
6982 35.9540 559.91 585.76 23.66
6983 35.9580 585.38 599.86 24.25
6984 35.9640 554.53 613.96 23.54
6985 35.9690 554.14 627.56 23.56
6986 35.9730 622.23 640.16 24.89
6987 35.9790 606.85 651.32 24.67
6988 35.9840 639.75 660.70 25.28
6989 35.9890 621.26 668.12 25.00
6990 35.9940 655.42 673.53 25.61
6991 35.9980 637.59 676.95 25.24
6992 36.0040 668.54 678.42 25.81
6993 36.0090 667.12 677.88 25.88
6994 36.0130 666.21 675.24 25.78
6995 36.0190 638.39 670.33 25.34
6996 36.0240 694.08 663.09 26.37
6997 36.0290 704.03 653.59 26.57
6998 36.0340 637.39 642.06 25.22
6999 36.0380 663.28 628.90 25.82
7000 36.0440 642.62 614.58 25.31
7001 36.0490 632.76 599.66 25.19
7002 36.0530 609.65 584.61 24.72
7003 36.0590 596.90 569.83 24.50
7004 36.0640 556.70 555.65 23.56
7005 36.0680 571.02 542.32 23.97
7006 36.0740 562.34 529.96 23.67
7007 36.0780 524.21 518.67 22.94
7008 36.0840 486.82 508.49 22.06
7009 36.0890 477.01 499.42 21.92
7010 36.0930 489.46 491.33 22.09
7011 36.0990 485.02 484.36 22.09
7012 36.1040 486.83 478.34 22.01
7013 36.1080 462.44 473.19 21.55
7014 36.1140 457.61 468.84 21.36
7015 36.1190 467.83 465.20 21.69
7016 36.1230 447.74 462.19 21.17
7017 36.1290 447.17 459.73 21.22
7018 36.1330 439.16 457.76 20.91
7019 36.1390 458.24 456.20 21.45
7020 36.1440 482.02 455.02 21.95
7021 36.1480 437.79 454.17 20.96
7022 36.1540 444.03 453.61 21.03
7023 36.1590 462.29 453.32 21.58
7024 36.1630 457.68 453.29 21.38
7025 36.1690 469.90 453.51 21.66
7026 36.1740 490.05 453.98 22.15
7027 36.1780 482.68 454.72 22.00
7028 36.1840 477.21 455.75 21.78
7029 36.1880 464.03 457.11 21.60
7030 36.1940 456.21 458.84 21.37
7031 36.1990 501.18 460.99 22.37
7032 36.2030 471.77 463.63 21.71
7033 36.2090 507.33 466.82 22.53
7034 36.2140 491.92 470.64 22.11
7035 36.2180 484.02 475.16 22.05
7036 36.2240 488.83 480.49 22.13
7037 36.2280 525.28 486.67 22.94
7038 36.2340 523.53 493.82 22.81
7039 36.2390 518.10 501.98 22.81
7040 36.2430 497.29 511.21 22.26
7041 36.2490 506.22 521.55 22.53
7042 36.2540 565.59 532.99 23.72
7043 36.2580 549.68 545.51 23.54
7044 36.2640 564.62 559.01 23.70
7045 36.2690 621.98 573.35 24.95
7046 36.2740 596.85 588.32 24.36
7047 36.2790 631.97 603.57 25.18
7048 36.2830 657.30 618.73 25.56
7049 36.2890 671.81 633.36 25.94
7050 36.2940 718.74 646.98 26.83
7051 36.2980 716.87 659.17 26.74
7052 36.3040 764.15 669.66 27.56
7053 36.3090 762.92 678.28 27.68
7054 36.3140 713.55 685.04 26.65
7055 36.3190 676.98 690.03 26.02
7056 36.3230 667.80 693.33 25.83
7057 36.3290 700.43 694.95 26.48
7058 36.3340 695.88 694.88 26.29
7059 36.3380 684.76 692.77 26.22
7060 36.3440 721.90 688.36 26.80
7061 36.3490 716.55 681.76 26.74
7062 36.3530 694.70 672.90 26.33
7063 36.3590 668.44 662.00 25.88
7064 36.3630 647.91 649.55 25.42
7065 36.3690 579.30 636.07 24.12
7066 36.3740 625.99 622.20 24.94
7067 36.3780 600.60 608.47 24.50
7068 36.3840 598.35 595.04 24.42
7069 36.3890 559.73 582.97 23.67
7070 36.3930 562.22 572.15 23.70
7071 36.3990 565.22 562.91 23.81
7072 36.4040 560.52 555.39 23.60
7073 36.4080 515.70 549.68 22.72
7074 36.4140 567.48 545.87 23.78
7075 36.4180 532.62 544.00 23.08
7076 36.4240 553.60 544.09 23.48
7077 36.4290 536.64 546.11 23.25
7078 36.4330 538.27 550.03 23.14
7079 36.4390 538.18 555.76 23.24
7080 36.4440 583.26 563.19 24.08
7081 36.4480 576.61 572.18 24.01
7082 36.4540 590.64 582.54 24.28
7083 36.4580 621.29 593.98 24.97
7084 36.4630 601.67 606.18 24.51
7085 36.4690 648.58 618.76 25.49
7086 36.4730 663.60 631.20 25.69
7087 36.4790 626.01 642.95 25.05
7088 36.4840 629.68 653.39 25.04
7089 36.4880 638.77 661.93 25.34
7090 36.4940 695.32 668.09 26.35
7091 36.4990 698.90 671.56 26.50
7092 36.5030 687.37 672.37 26.14
7093 36.5090 682.98 670.59 26.14
7094 36.5140 737.20 666.80 27.10
7095 36.5190 716.21 661.63 26.76
7096 36.5240 685.40 655.86 26.24
7097 36.5280 715.79 650.24 26.78
7098 36.5340 706.56 645.47 26.54
7099 36.5390 659.18 642.27 25.68
7100 36.5430 668.62 640.91 25.77
7101 36.5490 674.08 641.90 26.01
7102 36.5540 666.73 645.51 25.78
7103 36.5590 699.45 651.90 26.55
7104 36.5640 670.59 661.13 25.85
7105 36.5680 700.55 673.12 26.50
7106 36.5740 638.37 687.68 25.16
7107 36.5790 682.27 704.42 26.12
7108 36.5830 701.28 722.83 26.48
7109 36.5890 709.21 742.20 26.73
7110 36.5940 710.37 761.69 26.60
7111 36.5980 739.15 780.13 27.25
7112 36.6040 720.54 796.49 26.74
7113 36.6080 744.93 809.72 27.30
7114 36.6140 758.45 818.98 27.48
7115 36.6190 754.37 823.74 27.55
7116 36.6230 748.44 823.79 27.32
7117 36.6290 760.59 819.26 27.64
7118 36.6340 772.84 810.45 27.77
7119 36.6380 741.28 797.77 27.21
7120 36.6440 722.41 781.61 26.86
7121 36.6480 736.94 762.52 27.17
7122 36.6540 761.37 741.05 27.58
7123 36.6590 697.83 717.93 26.45
7124 36.6630 704.11 693.84 26.49
7125 36.6690 647.61 669.52 25.48
7126 36.6740 649.43 645.83 25.44
7127 36.6780 597.89 622.89 24.51
7128 36.6840 560.64 601.29 23.64
7129 36.6890 604.92 581.31 24.62
7130 36.6930 573.16 563.10 23.90
7131 36.6990 581.44 546.70 24.18
7132 36.7030 534.10 532.12 23.05
7133 36.7090 530.27 519.30 23.04
7134 36.7140 536.36 508.15 23.13
7135 36.7180 531.51 498.52 23.14
7136 36.7240 503.94 490.27 22.36
7137 36.7290 510.49 483.28 22.67
7138 36.7330 482.85 477.37 21.91
7139 36.7390 494.30 472.42 22.28
7140 36.7430 535.99 468.29 23.06
7141 36.7480 469.64 464.87 21.73
7142 36.7540 464.90 462.05 21.53
7143 36.7580 476.08 459.74 21.84
7144 36.7640 452.06 457.83 21.23
7145 36.7690 425.60 456.34 20.64
7146 36.7730 467.78 455.19 21.57
7147 36.7790 472.12 454.35 21.75
7148 36.7840 461.58 453.78 21.48
7149 36.7880 485.88 453.50 22.10
7150 36.7940 441.99 453.48 20.96
7151 36.7990 457.22 453.76 21.40
7152 36.8040 416.36 454.34 20.38
7153 36.8090 432.01 455.27 20.76
7154 36.8130 446.85 456.57 21.15
7155 36.8190 462.48 458.29 21.55
7156 36.8240 437.20 460.53 20.89
7157 36.8280 452.13 463.33 21.29
7158 36.8340 449.82 466.77 21.16
7159 36.8390 470.63 470.92 21.69
7160 36.8440 448.41 475.85 21.12
7161 36.8490 481.87 481.63 22.00
7162 36.8530 496.63 488.33 22.23
7163 36.8590 505.55 496.00 22.52
7164 36.8640 486.92 504.66 21.99
7165 36.8680 513.04 514.31 22.69
7166 36.8740 513.31 524.92 22.59
7167 36.8790 508.07 536.41 22.55
7168 36.8830 536.78 548.63 23.13
7169 36.8890 572.04 561.45 23.97
7170 36.8930 577.68 574.56 23.91
7171 36.8990 567.02 587.58 23.90
7172 36.9040 630.79 600.08 25.05
7173 36.9080 602.02 611.50 24.51
7174 36.9140 624.34 621.27 24.87
7175 36.9190 619.03 628.78 24.94
7176 36.9230 635.48 633.59 25.15
7177 36.9290 624.19 635.57 25.03
7178 36.9340 651.86 634.51 25.51
7179 36.9390 669.13 630.77 25.85
7180 36.9440 649.27 624.79 25.34
7181 36.9480 610.20 617.06 24.71
7182 36.9540 608.77 608.09 24.62
7183 36.9590 569.15 598.30 23.85
7184 36.9630 599.53 588.06 24.48
7185 36.9690 595.90 577.63 24.44
7186 36.9740 571.76 567.28 23.82
7187 36.9780 542.99 557.25 23.30
7188 36.9840 559.36 547.68 23.55
7189 36.9880 540.47 538.83 23.29
7190 36.9940 525.83 530.87 22.89
7191 36.9990 510.89 523.99 22.64
7192 37.0030 521.71 518.31 22.79
7193 37.0090 510.44 513.93 22.59
7194 37.0140 562.40 510.93 23.60
7195 37.0180 515.47 509.38 22.69
7196 37.0240 534.31 509.32 23.05
7197 37.0280 552.14 510.78 23.58
7198 37.0330 498.65 513.77 22.30
7199 37.0390 508.91 518.30 22.60
7200 37.0430 533.77 524.40 22.95
7201 37.0490 514.43 532.03 22.67
7202 37.0540 525.65 541.13 22.89
7203 37.0580 554.42 551.64 23.55
7204 37.0640 508.47 563.46 22.56
7205 37.0690 583.82 576.39 24.21
7206 37.0730 575.51 590.28 23.89
7207 37.0790 580.78 604.73 24.10
7208 37.0830 560.32 619.41 23.58
7209 37.0890 587.34 633.84 24.25
7210 37.0940 654.80 647.44 25.56
7211 37.0980 636.93 659.59 25.32
7212 37.1040 716.52 669.61 26.73
7213 37.1090 624.03 677.03 24.99
7214 37.1130 713.25 681.40 26.62
7215 37.1190 686.65 682.51 26.17
7216 37.1240 695.87 680.45 26.34
7217 37.1280 650.52 675.53 25.59
7218 37.1340 697.48 668.28 26.40
7219 37.1380 680.57 659.37 26.15
7220 37.1440 648.88 649.49 25.36
7221 37.1490 638.73 639.35 25.30
7222 37.1530 675.51 629.53 25.91
7223 37.1590 677.46 620.54 26.10
7224 37.1640 670.18 612.90 25.85
7225 37.1680 621.67 606.56 25.02
7226 37.1740 637.63 601.82 25.19
7227 37.1780 640.45 598.74 25.32
7228 37.1840 634.37 597.17 25.07
7229 37.1890 612.07 597.17 24.80
7230 37.1930 604.16 598.48 24.52
7231 37.1990 636.12 600.59 25.33
7232 37.2040 623.22 603.14 24.92
7233 37.2080 587.97 605.59 24.23
7234 37.2140 629.20 607.40 25.01
7235 37.2190 649.88 607.99 25.50
7236 37.2240 611.87 606.80 24.68
7237 37.2290 628.39 603.69 25.16
7238 37.2330 630.63 598.47 25.14
7239 37.2390 610.17 591.28 24.69
7240 37.2440 563.95 582.43 23.62
7241 37.2480 586.32 572.25 24.20
7242 37.2540 539.29 561.35 23.19
7243 37.2590 527.18 550.06 22.98
7244 37.2630 568.74 538.74 23.86
7245 37.2690 523.85 527.70 22.94
7246 37.2730 519.55 517.06 22.67
7247 37.2790 504.26 507.02 22.44
7248 37.2840 520.08 497.71 22.73
7249 37.2880 456.83 489.30 21.42
7250 37.2940 467.74 481.56 21.62
7251 37.2990 463.37 474.63 21.59
7252 37.3030 481.55 468.49 21.87
7253 37.3090 450.50 463.10 21.19
7254 37.3130 445.70 458.42 21.03
7255 37.3180 440.15 454.39 21.01
7256 37.3240 435.14 450.94 20.82
7257 37.3280 477.54 448.02 21.91
7258 37.3340 436.29 445.57 20.87
7259 37.3390 440.41 443.52 21.03
7260 37.3430 476.26 441.82 21.70
7261 37.3490 426.76 440.43 20.65
7262 37.3540 418.26 439.30 20.39
7263 37.3580 449.54 438.40 21.24
7264 37.3640 432.72 437.69 20.80
7265 37.3680 396.50 437.15 19.93
7266 37.3740 425.58 436.76 20.55
7267 37.3790 411.96 436.49 20.31
7268 37.3830 444.53 436.33 21.02
7269 37.3890 407.21 436.26 20.22
7270 37.3940 432.82 436.26 20.76
7271 37.3980 418.59 436.33 20.51
7272 37.4040 440.71 436.44 20.94
7273 37.4090 439.12 436.59 20.94
7274 37.4130 442.29 436.79 20.99
7275 37.4190 429.43 436.97 20.69
7276 37.4230 450.85 437.18 21.22
7277 37.4290 425.75 437.43 20.69
7278 37.4340 447.78 437.73 21.15
7279 37.4380 430.11 438.11 20.72
7280 37.4440 427.89 438.61 20.60
7281 37.4490 425.15 439.27 20.65
7282 37.4530 414.54 440.11 20.30
7283 37.4590 465.82 441.18 21.64
7284 37.4640 440.96 442.52 20.97
7285 37.4690 481.66 444.16 21.99
7286 37.4740 467.12 446.14 21.54
7287 37.4780 455.40 448.49 21.36
7288 37.4840 417.30 451.24 20.36
7289 37.4890 408.92 454.31 20.28
7290 37.4930 491.80 457.91 22.13
7291 37.4990 481.10 461.94 22.01
7292 37.5040 453.94 466.39 21.26
7293 37.5090 481.07 471.24 21.92
7294 37.5140 480.65 476.43 21.84
7295 37.5180 496.17 481.90 22.33
7296 37.5240 450.00 487.53 21.18
7297 37.5290 436.50 493.29 20.96
7298 37.5330 503.84 499.01 22.44
7299 37.5390 447.38 504.56 21.18
7300 37.5440 466.89 509.91 21.53
7301 37.5480 513.55 514.59 22.70
7302 37.5540 508.51 518.54 22.52
7303 37.5580 536.87 521.54 23.24
7304 37.5640 528.43 523.41 22.97
7305 37.5690 561.10 524.01 23.76
7306 37.5730 509.11 523.33 22.48
7307 37.5790 541.74 521.45 23.30
7308 37.5840 512.26 518.54 22.61
7309 37.5880 533.74 514.85 23.16
7310 37.5940 542.64 510.65 23.27
7311 37.5990 495.42 506.22 22.33
7312 37.6030 481.39 501.82 21.93
7313 37.6090 502.29 497.66 22.41
7314 37.6130 501.76 493.93 22.38
7315 37.6190 503.40 490.79 22.47
7316 37.6240 458.13 488.38 21.37
7317 37.6280 452.00 486.81 21.37
7318 37.6340 474.01 486.21 21.76
7319 37.6390 488.81 486.65 22.17
7320 37.6430 438.97 488.27 20.87
7321 37.6490 484.50 491.13 22.06
7322 37.6530 454.71 495.30 21.32
7323 37.6580 524.89 500.84 22.99
7324 37.6640 484.76 507.80 22.02
7325 37.6680 509.11 516.26 22.64
7326 37.6740 523.69 526.07 22.84
7327 37.6790 550.11 537.26 23.47
7328 37.6830 558.68 549.73 23.59
7329 37.6890 576.70 563.37 24.13
7330 37.6940 597.10 577.91 24.42
7331 37.6980 589.57 593.13 24.35
7332 37.7040 625.59 608.58 24.99
7333 37.7080 639.10 623.88 25.32
7334 37.7140 647.18 638.39 25.35
7335 37.7190 658.43 651.41 25.71
7336 37.7230 730.06 662.23 27.03
7337 37.7290 701.54 670.16 26.58
7338 37.7340 690.99 674.68 26.28
7339 37.7380 696.73 675.55 26.45
7340 37.7440 711.39 672.76 26.56
7341 37.7490 696.90 666.96 26.47
7342 37.7540 665.36 658.69 25.75
7343 37.7590 694.16 648.78 26.42
7344 37.7630 664.04 637.86 25.80
7345 37.7690 603.04 626.94 24.64
7346 37.7740 620.73 616.65 24.87
7347 37.7780 631.98 607.49 25.14
7348 37.7840 596.72 599.91 24.42
7349 37.7890 585.17 594.15 24.25
7350 37.7930 586.54 590.73 24.22
7351 37.7990 582.67 589.74 24.21
7352 37.8030 608.91 591.31 24.67
7353 37.8090 626.07 595.50 25.07
7354 37.8140 594.65 602.29 24.30
7355 37.8180 611.10 612.00 24.78
7356 37.8240 622.42 623.67 24.94
7357 37.8290 647.60 637.42 25.53
7358 37.8330 664.33 652.89 25.80
7359 37.8390 642.11 669.68 25.39
7360 37.8430 647.60 687.05 25.40
7361 37.8490 627.44 704.30 25.09
7362 37.8540 650.40 720.58 25.42
7363 37.8580 697.49 734.89 26.48
7364 37.8640 765.51 746.21 27.65
7365 37.8690 735.63 753.51 27.22
7366 37.8730 732.51 756.19 27.03
7367 37.8790 773.64 753.85 27.81
7368 37.8840 764.48 746.57 27.59
7369 37.8880 776.97 734.87 27.94
7370 37.8940 749.96 719.51 27.39
7371 37.8980 778.66 701.45 27.98
7372 37.9040 680.03 681.59 26.01
7373 37.9090 647.82 660.88 25.51
7374 37.9130 648.26 639.96 25.36
7375 37.9190 634.61 619.40 25.30
7376 37.9240 602.79 599.68 24.53
7377 37.9280 565.47 581.07 23.84
7378 37.9340 591.83 563.78 24.29
7379 37.9380 588.06 547.97 24.32
7380 37.9430 539.19 533.70 23.17
7381 37.9490 521.22 520.96 22.85
7382 37.9530 549.25 509.74 23.41
7383 37.9590 497.04 499.95 22.36
7384 37.9640 471.88 491.51 21.71
7385 37.9680 479.15 484.31 21.93
7386 37.9740 498.42 478.23 22.30
7387 37.9790 453.80 473.16 21.33
7388 37.9830 459.62 468.97 21.36
7389 37.9890 487.36 465.56 22.15
7390 37.9930 477.01 462.83 21.83
7391 37.9990 473.87 460.72 21.83
7392 38.0040 452.40 459.14 21.22
7393 38.0080 456.96 458.06 21.40
7394 38.0140 434.17 457.43 20.77
7395 38.0190 443.41 457.25 21.10
7396 38.0230 471.45 457.50 21.71
7397 38.0290 471.84 458.20 21.77
7398 38.0340 488.40 459.38 22.05
7399 38.0390 455.71 461.07 21.40
7400 38.0440 507.26 463.32 22.47
7401 38.0480 459.35 466.19 21.44
7402 38.0540 491.18 469.75 22.16
7403 38.0590 448.25 474.04 21.21
7404 38.0630 485.40 479.15 21.96
7405 38.0690 497.58 485.12 22.36
7406 38.0740 538.72 492.01 23.18
7407 38.0780 483.14 499.85 22.00
7408 38.0840 482.98 508.65 21.92
7409 38.0880 535.56 518.39 23.20
7410 38.0940 508.23 529.32 22.55
7411 38.0990 484.77 540.77 22.05
7412 38.1030 539.87 552.85 23.14
7413 38.1090 569.83 565.40 23.92
7414 38.1140 601.47 578.10 24.45
7415 38.1180 632.43 590.47 25.19
7416 38.1240 613.71 602.25 24.77
7417 38.1290 611.36 612.81 24.78
7418 38.1340 677.68 621.57 25.92
7419 38.1390 648.99 628.02 25.49
7420 38.1430 680.56 631.73 26.02
7421 38.1490 718.96 632.44 26.84
7422 38.1540 673.06 630.10 25.87
7423 38.1580 612.10 624.81 24.83
7424 38.1640 675.77 617.16 25.91
7425 38.1690 597.26 607.56 24.47
7426 38.1730 623.13 596.55 24.92
7427 38.1790 539.86 584.65 23.25
7428 38.1830 516.03 572.35 22.70
7429 38.1890 526.68 560.06 22.98
7430 38.1940 505.30 548.12 22.45
7431 38.1980 491.29 536.76 22.22
7432 38.2040 441.61 526.15 20.92
7433 38.2090 484.33 516.45 22.03
7434 38.2130 518.29 507.72 22.74
7435 38.2190 480.31 500.00 21.97
7436 38.2230 454.13 493.32 21.27
7437 38.2280 465.66 487.65 21.64
7438 38.2340 457.15 482.98 21.33
7439 38.2380 450.05 479.25 21.23
7440 38.2440 464.04 476.42 21.51
7441 38.2490 431.86 474.44 20.80
7442 38.2530 480.51 473.24 21.90
7443 38.2590 449.78 472.79 21.29
7444 38.2640 447.96 473.02 21.14
7445 38.2680 481.05 473.90 21.94
7446 38.2740 455.01 475.38 21.27
7447 38.2780 494.27 477.42 22.28
7448 38.2840 504.37 479.99 22.41
7449 38.2890 459.55 483.06 21.53
7450 38.2930 486.57 486.61 22.05
7451 38.2990 460.66 490.59 21.48
7452 38.3040 483.28 494.97 21.94
7453 38.3080 497.90 499.71 22.31
7454 38.3140 516.39 504.76 22.67
7455 38.3190 484.85 509.98 22.09
7456 38.3230 481.79 515.49 21.94
7457 38.3290 509.55 521.17 22.62
7458 38.3330 526.47 526.97 22.89
7459 38.3390 586.35 532.99 24.20
7460 38.3440 559.82 539.30 23.61
7461 38.3480 615.50 546.07 24.84
7462 38.3540 555.51 553.50 23.54
7463 38.3590 590.45 561.84 24.35
7464 38.3630 604.24 571.34 24.55
7465 38.3690 588.74 582.23 24.24
7466 38.3730 574.39 594.69 23.87
7467 38.3790 650.95 608.89 25.56
7468 38.3840 661.69 624.89 25.67
7469 38.3880 669.38 642.72 25.88
7470 38.3940 706.49 662.19 26.53
7471 38.3990 727.43 683.44 27.02
7472 38.4030 749.48 706.09 27.28
7473 38.4090 732.42 729.63 27.07
7474 38.4140 814.40 753.57 28.42
7475 38.4190 852.14 777.24 29.19
7476 38.4240 862.80 799.80 29.38
7477 38.4280 869.13 820.46 29.54
7478 38.4340 923.84 838.42 30.29
7479 38.4390 894.65 853.00 29.90
7480 38.4430 1005.97 863.66 31.59
7481 38.4490 901.63 870.56 30.05
7482 38.4540 898.25 873.61 29.84
7483 38.4590 929.69 873.04 30.59
7484 38.4640 875.34 869.10 29.53
7485 38.4680 830.42 861.98 28.82
7486 38.4740 857.78 851.84 29.16
7487 38.4790 860.88 838.78 29.32
7488 38.4830 822.07 822.91 28.59
7489 38.4890 809.59 804.42 28.50
7490 38.4940 806.72 783.71 28.35
7491 38.4980 715.92 761.29 26.80
7492 38.5040 682.38 737.70 26.00
7493 38.5080 669.06 713.64 25.84
7494 38.5130 636.78 689.70 25.18
7495 38.5190 555.06 666.35 23.56
7496 38.5230 600.32 644.06 24.47
7497 38.5290 598.83 623.09 24.49
7498 38.5340 544.79 603.68 23.33
7499 38.5380 539.17 585.91 23.17
7500 38.5440 566.58 569.83 23.73
7501 38.5490 537.07 555.46 23.16
7502 38.5530 504.42 542.72 22.41
7503 38.5590 482.12 531.68 21.97
7504 38.5630 480.28 522.01 21.85
7505 38.5690 485.20 513.70 22.08
7506 38.5740 479.92 506.65 21.79
7507 38.5780 495.39 500.75 22.26
7508 38.5840 495.34 495.88 22.18
7509 38.5890 496.80 491.94 22.33
7510 38.5930 474.59 488.84 21.74
7511 38.5990 501.64 486.49 22.45
7512 38.6040 471.26 484.83 21.62
7513 38.6080 501.11 483.82 22.39
7514 38.6140 505.11 483.42 22.37
7515 38.6180 489.74 483.62 22.17
7516 38.6240 476.11 484.42 21.75
7517 38.6290 470.67 485.86 21.76
7518 38.6330 499.32 487.96 22.30
7519 38.6390 516.32 490.81 22.75
7520 38.6440 499.95 494.49 22.26
7521 38.6480 503.11 499.18 22.45
7522 38.6540 512.25 504.82 22.58
7523 38.6590 482.26 511.63 22.02
7524 38.6640 506.53 519.75 22.50
7525 38.6690 530.77 529.31 23.02
7526 38.6730 496.23 540.45 22.19
7527 38.6790 515.92 553.32 22.72
7528 38.6840 573.52 568.00 23.91
7529 38.6880 582.57 584.67 24.16
7530 38.6940 561.72 603.16 23.65
7531 38.6990 569.39 623.54 23.94
7532 38.7040 559.65 645.72 23.60
7533 38.7090 633.18 669.48 25.12
7534 38.7130 681.67 694.52 26.03
7535 38.7190 713.13 720.47 26.77
7536 38.7240 690.38 746.76 26.26
7537 38.7280 732.37 772.72 27.10
7538 38.7340 745.48 797.61 27.27
7539 38.7390 829.19 820.56 28.78
7540 38.7430 888.51 840.63 29.67
7541 38.7490 873.69 856.95 29.65
7542 38.7530 940.68 868.73 30.57
7543 38.7590 925.84 875.40 30.52
7544 38.7640 953.12 876.66 30.78
7545 38.7680 908.72 872.55 30.24
7546 38.7740 882.14 863.35 29.57
7547 38.7790 832.65 849.62 28.83
7548 38.7830 843.92 832.07 29.02
7549 38.7890 744.51 811.47 27.34
7550 38.7930 729.51 788.75 26.96
7551 38.7980 735.36 764.77 27.15
7552 38.8040 709.17 740.30 26.53
7553 38.8080 673.62 716.12 25.98
7554 38.8140 626.26 692.82 24.93
7555 38.8190 631.52 670.93 25.16
7556 38.8230 625.55 650.79 24.98
7557 38.8290 585.37 632.56 24.21
7558 38.8340 614.31 616.72 24.72
7559 38.8380 586.90 603.07 24.26
7560 38.8440 602.12 591.70 24.44
7561 38.8480 576.29 582.60 24.01
7562 38.8530 559.93 575.69 23.63
7563 38.8590 562.65 570.85 23.73
7564 38.8630 555.32 567.96 23.49
7565 38.8690 586.97 566.86 24.25
7566 38.8740 592.87 567.37 24.27
7567 38.8780 560.51 569.31 23.68
7568 38.8840 598.83 572.46 24.41
7569 38.8890 583.13 576.62 24.17
7570 38.8930 613.84 581.50 24.69
7571 38.8990 628.78 586.86 25.12
7572 38.9030 581.79 592.42 24.02
7573 38.9090 644.80 597.93 25.38
7574 38.9140 650.52 603.18 25.41
7575 38.9180 695.66 608.05 26.42
7576 38.9240 635.10 612.54 25.11
7577 38.9290 669.36 616.76 25.91
7578 38.9330 688.27 620.96 26.19
7579 38.9390 650.42 625.33 25.50
7580 38.9440 653.29 630.55 25.41
7581 38.9490 742.33 636.86 27.25
7582 38.9540 711.48 644.70 26.60
7583 38.9580 708.75 654.23 26.65
7584 38.9640 729.84 665.94 26.92
7585 38.9690 725.05 679.66 26.94
7586 38.9730 745.57 695.54 27.19
7587 38.9790 718.85 713.79 26.73
7588 38.9840 749.12 734.19 27.30
7589 38.9890 759.86 756.51 27.60
7590 38.9940 755.01 780.37 27.38
7591 38.9980 724.33 805.23 26.92
7592 39.0040 770.23 830.43 27.67
7593 39.0090 891.77 855.06 29.80
7594 39.0130 889.65 878.07 29.67
7595 39.0190 834.48 898.36 28.86
7596 39.0240 894.35 914.75 29.83
7597 39.0280 911.95 926.22 30.24
7598 39.0340 947.60 932.04 30.71
7599 39.0380 990.70 931.81 31.49
7600 39.0440 967.80 925.59 30.89
7601 39.0490 977.33 913.82 31.27
7602 39.0530 997.37 897.17 31.46
7603 39.0590 897.68 876.51 29.98
7604 39.0640 873.14 852.80 29.45
7605 39.0680 867.43 826.93 29.43
7606 39.0740 801.86 799.70 28.19
7607 39.0790 775.09 771.90 27.80
7608 39.0840 725.71 743.94 26.82
7609 39.0890 645.52 716.83 25.42
7610 39.0930 701.77 690.77 26.36
7611 39.0990 625.85 666.09 25.02
7612 39.1040 656.09 643.08 25.52
7613 39.1080 606.78 621.88 24.62
7614 39.1140 591.10 602.54 24.14
7615 39.1190 544.88 585.14 23.35
7616 39.1230 567.78 569.62 23.73
7617 39.1290 562.33 555.88 23.69
7618 39.1330 559.33 543.86 23.61
7619 39.1380 557.64 533.43 23.61
7620 39.1440 528.52 524.44 22.87
7621 39.1480 529.53 516.77 22.94
7622 39.1540 513.27 510.20 22.56
7623 39.1590 527.66 504.79 22.95
7624 39.1630 495.73 500.33 22.17
7625 39.1690 480.16 496.69 21.97
7626 39.1740 541.53 493.84 23.18
7627 39.1780 526.89 491.67 22.90
7628 39.1840 501.54 490.18 22.30
7629 39.1880 518.47 489.30 22.72
7630 39.1940 496.59 489.05 22.17
7631 39.1990 490.19 489.41 22.19
7632 39.2030 505.57 490.42 22.41
7633 39.2090 533.16 492.13 23.11
7634 39.2140 515.28 494.61 22.56
7635 39.2180 505.50 497.93 22.44
7636 39.2240 511.50 502.20 22.47
7637 39.2290 523.91 507.52 22.93
7638 39.2340 513.11 514.02 22.61
7639 39.2390 524.87 521.80 22.94
7640 39.2430 516.01 530.99 22.59
7641 39.2490 570.35 541.68 23.83
7642 39.2540 560.66 553.95 23.54
7643 39.2580 592.08 567.87 24.27
7644 39.2640 596.91 583.46 24.38
7645 39.2690 571.34 600.66 23.96
7646 39.2730 606.93 619.41 24.58
7647 39.2790 624.98 639.53 24.94
7648 39.2830 645.77 660.75 25.27
7649 39.2890 672.45 682.73 25.92
7650 39.2940 640.14 704.95 25.18
7651 39.2980 699.10 726.78 26.48
7652 39.3040 738.01 747.50 27.10
7653 39.3090 755.11 766.14 27.49
7654 39.3130 698.79 781.78 26.29
7655 39.3190 760.74 793.55 27.56
7656 39.3230 777.44 800.49 27.74
7657 39.3290 798.86 802.22 28.27
7658 39.3340 798.37 798.58 28.24
7659 39.3380 760.60 789.88 27.59
7660 39.3440 798.54 776.63 28.08
7661 39.3490 760.25 759.79 27.55
7662 39.3530 808.65 740.22 28.32
7663 39.3590 764.31 718.82 27.64
7664 39.3640 746.72 696.46 27.24
7665 39.3690 708.24 673.83 26.73
7666 39.3740 672.21 651.56 25.83
7667 39.3780 637.70 630.05 25.20
7668 39.3840 645.75 609.65 25.31
7669 39.3890 604.40 590.63 24.57
7670 39.3930 576.65 573.11 23.97
7671 39.3990 565.23 557.26 23.81
7672 39.4040 544.61 542.75 23.26
7673 39.4080 526.18 530.00 22.95
7674 39.4140 522.92 518.74 22.74
7675 39.4180 530.18 508.91 23.01
7676 39.4230 500.58 500.39 22.30
7677 39.4290 511.17 493.04 22.62
7678 39.4330 518.54 486.76 22.77
7679 39.4390 471.90 481.41 21.75
7680 39.4440 468.45 476.87 21.52
7681 39.4480 463.19 473.03 21.49
7682 39.4540 471.85 469.78 21.64
7683 39.4580 488.30 467.04 22.13
7684 39.4630 441.14 464.72 20.90
7685 39.4690 424.43 462.93 20.69
7686 39.4730 446.93 461.26 21.04
7687 39.4790 442.16 459.85 20.98
7688 39.4840 470.24 458.64 21.58
7689 39.4880 413.77 457.63 20.39
7690 39.4940 482.64 456.81 21.90
7691 39.4990 443.83 456.10 21.11
7692 39.5030 460.03 455.51 21.38
7693 39.5090 452.57 455.05 21.23
7694 39.5140 447.21 454.70 21.02
7695 39.5190 445.34 454.47 21.15
7696 39.5240 416.17 454.37 20.30
7697 39.5280 424.58 454.38 20.65
7698 39.5340 451.54 454.54 21.22
7699 39.5390 460.63 454.84 21.49
7700 39.5430 414.92 455.31 20.25
7701 39.5490 397.76 455.97 19.92
7702 39.5540 472.29 456.83 21.67
7703 39.5580 426.41 457.93 20.66
7704 39.5640 483.43 459.30 21.93
7705 39.5680 447.72 460.97 21.20
7706 39.5740 464.83 463.04 21.48
7707 39.5790 476.98 465.39 21.81
7708 39.5830 460.63 468.13 21.38
7709 39.5890 460.31 471.29 21.45
7710 39.5940 489.29 474.89 22.09
7711 39.5980 502.82 478.91 22.45
7712 39.6040 484.19 483.36 21.99
7713 39.6090 478.11 488.18 21.83
7714 39.6140 489.74 493.44 22.04
7715 39.6190 516.48 499.03 22.71
7716 39.6230 488.28 504.86 22.04
7717 39.6290 507.95 510.85 22.58
7718 39.6340 559.65 516.84 23.63
7719 39.6380 530.23 522.66 23.05
7720 39.6440 548.47 528.12 23.30
7721 39.6490 549.48 532.96 23.44
7722 39.6540 561.20 536.96 23.60
7723 39.6590 520.69 539.91 22.83
7724 39.6630 563.09 541.67 23.65
7725 39.6690 569.12 542.20 23.94
7726 39.6740 533.46 541.54 23.06
7727 39.6780 565.01 539.86 23.76
7728 39.6840 538.43 537.41 23.12
7729 39.6890 560.38 534.52 23.69
7730 39.6930 565.10 531.38 23.68
7731 39.6990 571.58 528.30 24.01
7732 39.7030 584.46 525.56 24.16
7733 39.7090 539.21 523.36 23.22
7734 39.7140 505.71 521.86 22.41
7735 39.7180 532.91 521.00 23.08
7736 39.7240 508.21 521.21 22.51
7737 39.7290 522.86 522.56 22.93
7738 39.7330 520.66 525.00 22.79
7739 39.7390 534.23 528.38 23.13
7740 39.7430 536.78 533.01 23.12
7741 39.7480 558.16 538.66 23.65
7742 39.7540 552.61 545.20 23.43
7743 39.7580 513.71 552.59 22.69
7744 39.7640 540.14 560.60 23.22
7745 39.7690 533.53 569.00 23.19
7746 39.7730 559.07 577.51 23.59
7747 39.7790 543.80 585.79 23.32
7748 39.7840 559.72 593.46 23.59
7749 39.7880 560.39 600.30 23.73
7750 39.7940 582.66 605.69 24.10
7751 39.7990 620.17 609.54 24.96
7752 39.8030 607.54 611.78 24.61
7753 39.8090 572.49 612.53 23.98
7754 39.8130 599.61 612.06 24.36
7755 39.8190 658.91 610.79 25.75
7756 39.8240 594.89 609.20 24.34
7757 39.8280 618.47 607.77 24.95
7758 39.8340 634.93 606.94 25.18
7759 39.8390 622.32 607.08 25.02
7760 39.8430 639.26 608.52 25.18
7761 39.8490 630.95 611.47 25.16
7762 39.8530 616.95 616.09 24.81
7763 39.8590 642.07 622.44 25.38
7764 39.8640 624.32 630.52 24.95
7765 39.8680 658.85 640.23 25.73
7766 39.8740 618.29 651.36 24.80
7767 39.8790 648.77 663.64 25.52
7768 39.8830 674.06 676.65 25.90
7769 39.8890 667.34 689.89 25.87
7770 39.8940 696.01 702.74 26.35
7771 39.8990 676.20 714.51 26.05
7772 39.9040 686.00 724.46 26.16
7773 39.9080 771.72 731.91 27.81
7774 39.9140 749.35 736.27 27.32
7775 39.9190 770.24 737.13 27.75
7776 39.9230 772.57 734.33 27.72
7777 39.9290 771.37 727.95 27.89
7778 39.9340 707.34 718.33 26.52
7779 39.9390 715.01 705.97 26.78
7780 39.9440 675.30 691.51 25.93
7781 39.9480 648.67 675.58 25.50
7782 39.9540 636.28 658.81 25.14
7783 39.9590 633.03 641.78 25.17
7784 39.9630 601.95 624.96 24.49
7785 39.9690 565.91 608.71 23.84
7786 39.9740 575.22 593.13 23.91
7787 39.9780 560.36 578.89 23.69
7788 39.9840 566.53 565.90 23.71
7789 39.9880 530.72 554.25 23.08
7790 39.9940 550.53 544.03 23.40
7791 39.9990 525.94 535.25 22.95
7792 40.0030 511.75 527.86 22.58
7793 40.0090 510.83 521.83 22.60
7794 40.0140 532.05 517.10 23.00
7795 40.0180 499.19 513.57 22.34
7796 40.0240 526.12 511.17 22.88
7797 40.0290 526.20 509.79 22.96
7798 40.0330 506.24 509.33 22.45
7799 40.0390 493.82 509.69 22.23
7800 40.0430 558.01 510.65 23.55
7801 40.0490 551.85 512.32 23.52
7802 40.0540 487.54 514.63 22.00
7803 40.0580 506.90 516.99 22.50
7804 40.0640 508.63 519.71 22.51
7805 40.0690 548.16 522.52 23.47
7806 40.0730 559.04 525.30 23.57
7807 40.0790 540.26 527.93 23.23
7808 40.0830 529.48 530.35 22.93
7809 40.0880 553.02 532.54 23.54
7810 40.0940 551.64 534.54 23.42
7811 40.0980 577.90 536.45 24.07
7812 40.1040 536.55 538.42 23.09
7813 40.1090 526.24 540.64 22.98
7814 40.1130 614.02 543.30 24.67
7815 40.1190 568.10 546.59 23.81
7816 40.1240 583.09 550.71 24.08
7817 40.1280 538.69 555.80 23.23
7818 40.1340 577.95 562.01 24.00
7819 40.1390 603.85 569.44 24.63
7820 40.1440 599.33 578.17 24.38
7821 40.1490 651.86 588.22 25.51
7822 40.1530 631.76 599.60 25.03
7823 40.1590 640.76 612.25 25.32
7824 40.1640 599.40 626.04 24.42
7825 40.1680 633.20 640.75 25.23
7826 40.1740 674.27 656.26 25.84
7827 40.1790 690.45 672.21 26.28
7828 40.1840 693.44 688.26 26.24
7829 40.1890 683.92 703.99 26.15
7830 40.1930 659.46 718.99 25.64
7831 40.1990 737.13 732.87 27.18
7832 40.2040 683.52 745.17 26.03
7833 40.2080 661.59 755.48 25.70
7834 40.2140 743.93 763.37 27.18
7835 40.2190 714.05 768.44 26.71
7836 40.2230 768.80 770.32 27.62
7837 40.2290 755.29 768.74 27.58
7838 40.2330 757.41 763.63 27.42
7839 40.2390 775.23 755.07 27.81
7840 40.2440 750.29 743.38 27.27
7841 40.2480 717.39 729.06 26.76
7842 40.2540 727.43 712.72 26.88
7843 40.2590 740.16 694.99 27.26
7844 40.2630 697.37 676.46 26.32
7845 40.2690 688.02 657.66 26.23
7846 40.2730 662.44 639.03 25.62
7847 40.2790 657.87 620.92 25.65
7848 40.2840 637.85 603.62 25.13
7849 40.2880 594.02 587.24 24.44
7850 40.2940 645.26 571.98 25.31
7851 40.2990 604.28 557.97 24.65
7852 40.3030 578.83 545.08 23.97
7853 40.3090 523.33 533.37 22.80
7854 40.3140 550.82 522.84 23.38
7855 40.3180 541.96 513.37 23.31
7856 40.3240 533.26 505.01 23.02
7857 40.3280 515.14 497.64 22.77
7858 40.3340 500.93 491.16 22.32
7859 40.3390 494.77 485.51 22.25
7860 40.3430 500.27 480.59 22.22
7861 40.3490 504.49 476.29 22.50
7862 40.3540 470.33 472.42 21.61
7863 40.3580 443.98 469.01 21.10
7864 40.3640 432.82 466.25 20.75
7865 40.3680 511.94 463.87 22.62
7866 40.3730 420.25 461.81 20.43
7867 40.3790 433.25 460.03 20.81
7868 40.3830 465.93 458.49 21.51
7869 40.3890 438.62 457.13 21.00
7870 40.3940 448.04 455.98 21.10
7871 40.3980 427.66 454.99 20.73
7872 40.4040 465.62 454.14 21.50
7873 40.4090 439.55 453.43 20.92
7874 40.4130 453.48 452.83 21.20
7875 40.4190 429.62 452.36 20.78
7876 40.4240 477.01 452.08 21.81
7877 40.4290 443.95 451.80 21.10
7878 40.4340 455.43 451.62 21.28
7879 40.4380 445.46 451.54 21.11
7880 40.4440 448.90 451.55 21.07
7881 40.4490 435.67 451.65 20.89
7882 40.4530 477.84 451.85 21.79
7883 40.4590 454.44 452.13 21.39
7884 40.4640 438.50 452.51 20.85
7885 40.4690 442.40 452.99 21.06
7886 40.4740 418.33 453.54 20.38
7887 40.4780 459.45 454.16 21.43
7888 40.4840 481.58 454.87 21.87
7889 40.4890 421.90 455.64 20.58
7890 40.4930 450.15 456.48 21.16
7891 40.4990 431.06 457.37 20.82
7892 40.5040 413.14 458.31 20.24
7893 40.5080 443.46 459.30 21.05
7894 40.5140 474.02 460.36 21.67
7895 40.5180 489.09 461.47 22.14
7896 40.5240 447.88 462.68 21.09
7897 40.5290 449.73 464.02 21.25
7898 40.5330 434.47 465.53 20.77
7899 40.5390 445.82 467.40 21.17
7900 40.5440 485.40 469.46 21.88
7901 40.5480 457.72 471.91 21.37
7902 40.5540 464.10 474.82 21.47
7903 40.5590 504.23 478.13 22.49
7904 40.5640 507.90 482.23 22.49
7905 40.5690 468.93 487.05 21.66
7906 40.5730 497.09 492.68 22.22
7907 40.5790 491.10 499.23 22.11
7908 40.5840 504.01 506.73 22.33
7909 40.5880 537.94 515.42 23.25
7910 40.5940 531.14 525.08 22.98
7911 40.5990 523.50 535.88 22.88
7912 40.6030 587.54 547.65 24.17
7913 40.6090 547.13 560.71 23.34
7914 40.6130 550.43 574.81 23.28
7915 40.6190 614.59 589.86 24.81
7916 40.6240 604.98 605.66 24.49
7917 40.6280 625.27 622.02 25.06
7918 40.6340 632.71 638.62 25.07
7919 40.6390 662.05 655.04 25.78
7920 40.6430 692.30 670.87 26.11
7921 40.6490 705.64 685.58 26.55
7922 40.6530 721.63 698.59 26.73
7923 40.6580 749.70 709.39 27.42
7924 40.6640 746.72 717.59 27.17
7925 40.6680 744.35 722.92 27.33
7926 40.6740 784.92 725.37 27.91
7927 40.6790 764.03 725.11 27.54
7928 40.6830 710.31 722.69 26.51
7929 40.6890 772.11 718.63 27.81
7930 40.6940 716.53 713.60 26.67
7931 40.6980 676.72 708.24 26.03
7932 40.7040 701.79 703.14 26.41
7933 40.7080 653.64 698.77 25.56
7934 40.7140 631.96 695.50 24.94
7935 40.7190 636.47 693.59 25.24
7936 40.7230 614.65 693.17 24.68
7937 40.7290 662.10 694.27 25.74
7938 40.7340 695.80 696.78 26.29
7939 40.7380 668.41 700.49 25.85
7940 40.7440 697.27 705.12 26.25
7941 40.7490 684.93 710.16 26.11
7942 40.7530 709.67 715.12 26.53
7943 40.7590 677.69 719.40 26.02
7944 40.7630 696.93 722.37 26.31
7945 40.7690 752.63 723.47 27.45
7946 40.7740 722.64 722.26 26.79
7947 40.7780 724.17 718.45 26.86
7948 40.7840 740.06 712.01 27.03
7949 40.7890 738.40 703.09 27.23
7950 40.7930 703.25 692.01 26.41
7951 40.7990 724.28 679.22 26.90
7952 40.8030 724.75 665.25 26.84
7953 40.8090 717.83 650.57 26.82
7954 40.8140 684.33 635.68 25.98
7955 40.8180 609.66 620.98 24.70
7956 40.8240 611.67 606.79 24.62
7957 40.8290 630.85 593.41 25.13
7958 40.8330 548.46 581.04 23.39
7959 40.8390 579.43 569.84 24.12
7960 40.8440 563.39 559.99 23.57
7961 40.8490 577.78 551.45 24.00
7962 40.8540 565.93 544.35 23.71
7963 40.8580 555.15 538.69 23.60
7964 40.8640 549.19 534.47 23.34
7965 40.8690 560.14 531.67 23.74
7966 40.8730 565.67 530.23 23.68
7967 40.8790 530.20 530.10 23.01
7968 40.8840 537.78 531.20 23.07
7969 40.8880 539.38 533.42 23.22
7970 40.8940 543.71 536.66 23.22
7971 40.8980 520.60 540.78 22.89
7972 40.9040 533.77 545.64 23.05
7973 40.9090 549.63 551.03 23.44
7974 40.9130 551.90 556.77 23.34
7975 40.9190 543.47 562.61 23.30
7976 40.9240 617.66 568.28 24.76
7977 40.9280 601.73 573.40 24.57
7978 40.9340 604.92 577.87 24.55
7979 40.9380 578.35 581.33 24.09
7980 40.9430 605.83 583.59 24.50
7981 40.9490 583.36 584.58 24.05
7982 40.9530 601.28 584.31 24.43
7983 40.9590 572.67 582.93 23.98
7984 40.9640 586.50 580.68 24.12
7985 40.9680 560.12 577.86 23.75
7986 40.9740 580.76 574.79 24.00
7987 40.9790 580.55 571.78 23.99
7988 40.9830 558.84 569.13 23.52
7989 40.9890 555.99 567.07 23.61
7990 40.9930 539.24 565.80 23.12
7991 40.9990 575.51 565.48 24.01
7992 41.0040 533.29 566.22 23.06
7993 41.0080 491.56 568.07 22.16
7994 41.0140 565.19 571.04 23.57
7995 41.0190 578.62 575.12 24.07
7996 41.0230 605.29 580.23 24.46
7997 41.0290 573.43 586.24 23.94
7998 41.0340 570.23 592.98 23.85
7999 41.0380 573.72 600.24 23.97
8000 41.0440 608.12 607.67 24.50
8001 41.0480 607.71 615.29 24.56
8002 41.0540 623.68 622.74 24.88
8003 41.0590 608.16 629.75 24.38
8004 41.0630 601.47 636.11 22.39
8005 41.0690 621.02 641.58 27.69
8006 41.0740 578.40 645.93 26.52
8007 41.0780 663.10 648.92 28.53
8008 41.0840 664.49 650.31 28.33
8009 41.0890 606.67 649.88 27.29
8010 41.0940 669.80 647.49 28.58
8011 41.0990 651.96 643.07 28.27
8012 41.1030 597.79 636.70 26.99
8013 41.1090 616.66 628.53 27.54
8014 41.1140 571.52 618.88 26.28
8015 41.1180 643.70 608.24 28.11
8016 41.1240 620.97 596.76 27.45
8017 41.1290 593.39 584.92 27.01
8018 41.1340 555.90 573.06 25.98
8019 41.1390 585.97 561.48 26.89
8020 41.1430 568.55 550.37 26.25
8021 41.1490 552.05 539.90 25.98
8022 41.1540 519.68 530.21 25.15
8023 41.1580 488.67 521.37 24.51
8024 41.1640 442.18 513.41 23.15
8025 41.1690 490.12 506.36 24.53
8026 41.1730 471.54 500.17 23.96
8027 41.1790 472.71 494.76 24.12
8028 41.1830 460.56 490.31 23.60
8029 41.1890 499.23 486.63 24.76
8030 41.1940 501.57 483.65 24.65
8031 41.1980 484.21 481.31 24.38
8032 41.2040 472.43 479.51 24.00
8033 41.2090 511.15 478.09 25.07
8034 41.2130 503.32 477.16 24.71
8035 41.2190 472.46 476.55 24.10
8036 41.2230 442.98 476.24 23.15
8037 41.2280 510.32 476.21 25.03
8038 41.2340 490.96 476.48 24.42
8039 41.2380 486.91 477.08 24.49
8040 41.2440 484.47 478.13 24.27
8041 41.2490 470.87 479.66 24.02
8042 41.2530 504.22 481.79 24.71
8043 41.2590 474.95 484.62 24.15
8044 41.2640 470.93 488.24 23.85
8045 41.2680 484.17 492.73 24.46
8046 41.2740 484.68 498.17 24.33
8047 41.2780 506.16 504.59 24.88
8048 41.2830 505.03 511.98 24.74
8049 41.2890 458.59 520.42 23.72
8050 41.2930 506.15 529.82 24.77
8051 41.2990 586.65 540.11 26.83
8052 41.3040 511.49 551.18 24.99
8053 41.3080 527.88 562.86 25.51
8054 41.3140 568.21 574.92 26.17
8055 41.3190 544.69 587.03 25.86
8056 41.3230 617.80 598.83 27.37
8057 41.3290 628.73 609.89 27.75
8058 41.3330 603.96 619.66 27.13
8059 41.3390 617.69 627.61 27.63
8060 41.3440 696.87 633.22 29.07
8061 41.3480 645.02 636.10 28.10
8062 41.3540 656.46 636.00 28.19
8063 41.3590 638.88 632.89 27.97
8064 41.3630 654.82 626.96 28.20
8065 41.3690 621.97 618.61 27.71
8066 41.3740 571.29 608.27 26.36
8067 41.3790 552.89 596.47 26.05
8068 41.3840 538.06 583.76 25.56
8069 41.3880 523.58 570.64 25.36
8070 41.3940 495.02 557.35 24.48
8071 41.3990 485.08 544.29 24.42
8072 41.4030 488.33 531.68 24.42
8073 41.4090 506.66 519.72 25.00
8074 41.4140 468.13 508.51 23.79
8075 41.4190 463.22 498.16 23.86
8076 41.4240 476.73 488.71 24.03
8077 41.4280 430.33 480.17 22.99
8078 41.4340 468.39 472.54 23.86
8079 41.4390 477.52 465.77 24.31
8080 41.4430 445.14 459.86 23.26
8081 41.4490 465.02 454.72 23.87
8082 41.4540 484.76 450.30 24.28
8083 41.4580 446.99 446.53 23.42
8084 41.4640 449.22 443.37 23.31
8085 41.4680 449.54 440.71 23.57
8086 41.4740 467.58 438.50 23.90
8087 41.4790 431.35 436.71 23.01
8088 41.4830 417.02 435.27 22.47
8089 41.4890 422.36 434.17 22.79
8090 41.4940 438.08 433.35 23.09
8091 41.4980 472.10 432.81 24.06
8092 41.5040 459.72 432.52 23.71
8093 41.5090 412.70 432.46 22.57
8094 41.5130 391.42 432.68 21.76
8095 41.5190 425.12 433.15 22.85
8096 41.5230 460.91 433.90 23.67
8097 41.5290 442.16 434.93 23.29
8098 41.5340 429.75 436.26 22.89
8099 41.5380 439.62 437.90 23.33
8100 41.5440 454.83 439.91 23.50
8101 41.5490 428.41 442.30 22.92
8102 41.5530 418.75 445.08 22.55
8103 41.5590 428.65 448.28 22.95
8104 41.5630 423.44 451.90 22.67
8105 41.5680 481.18 455.87 24.38
8106 41.5740 481.93 460.35 24.26
8107 41.5780 444.90 465.22 23.36
8108 41.5840 466.47 470.46 23.77
8109 41.5890 508.16 476.02 25.05
8110 41.5930 484.42 481.83 24.25
8111 41.5990 441.80 487.78 23.34
8112 41.6040 486.16 493.76 24.33
8113 41.6080 466.54 499.54 23.98
8114 41.6140 501.04 504.89 24.65
8115 41.6180 533.96 509.96 25.61
8116 41.6240 524.92 514.34 25.25
8117 41.6290 503.52 517.87 24.89
8118 41.6330 553.30 520.43 25.93
8119 41.6390 595.92 521.97 27.11
8120 41.6440 567.03 522.48 26.25
8121 41.6480 549.67 522.04 25.95
8122 41.6540 512.72 520.77 24.97
8123 41.6590 523.20 518.80 25.35
8124 41.6640 528.03 516.33 25.31
8125 41.6690 549.68 513.55 26.06
8126 41.6730 520.87 510.71 25.21
8127 41.6790 497.23 507.90 24.69
8128 41.6840 494.00 505.38 24.43
8129 41.6880 492.81 503.30 24.64
8130 41.6940 490.56 501.91 24.44
8131 41.6990 511.83 501.18 25.10
8132 41.7030 552.93 501.28 25.95
8133 41.7090 540.03 502.31 25.81
8134 41.7130 545.04 504.30 25.65
8135 41.7190 507.12 507.30 24.93
8136 41.7240 509.78 511.30 24.93
8137 41.7280 532.79 516.29 25.57
8138 41.7340 537.54 522.22 25.60
8139 41.7390 531.53 529.01 25.64
8140 41.7430 563.09 536.57 26.11
8141 41.7490 573.09 544.75 26.46
8142 41.7530 588.02 553.38 26.73
8143 41.7590 630.89 562.26 27.90
8144 41.7640 590.42 571.11 26.78
8145 41.7680 637.72 579.66 28.02
8146 41.7740 607.66 587.62 27.24
8147 41.7790 636.45 594.70 27.89
8148 41.7830 665.36 600.69 28.41
8149 41.7890 675.16 605.47 28.83
8150 41.7940 646.25 609.05 28.10
8151 41.7980 647.07 611.59 28.19
8152 41.8040 667.77 613.35 28.52
8153 41.8080 707.38 614.68 29.53
8154 41.8140 696.91 615.97 29.01
8155 41.8190 622.45 617.63 27.61
8156 41.8230 655.08 619.92 28.31
8157 41.8290 612.95 623.17 27.50
8158 41.8340 600.56 627.57 27.04
8159 41.8380 637.29 633.26 28.02
8160 41.8440 651.97 640.28 28.16
8161 41.8480 618.04 648.59 27.50
8162 41.8530 649.99 658.06 28.08
8163 41.8590 662.86 668.47 28.61
8164 41.8630 678.99 679.50 28.72
8165 41.8690 641.05 690.72 28.14
8166 41.8740 668.58 701.63 28.53
8167 41.8780 666.09 711.68 28.65
8168 41.8840 697.17 720.39 29.06
8169 41.8890 700.64 727.05 29.41
8170 41.8930 682.96 731.33 28.89
8171 41.8990 762.92 732.94 30.64
8172 41.9030 778.52 731.76 30.80
8173 41.9090 796.98 727.78 31.38
8174 41.9140 738.34 721.14 29.88
8175 41.9180 734.52 712.03 30.07
8176 41.9240 722.75 700.75 29.70
8177 41.9290 735.91 687.58 30.13
8178 41.9330 694.68 672.88 29.11
8179 41.9390 645.79 657.00 28.24
8180 41.9440 615.68 640.37 27.39
8181 41.9490 584.78 623.19 26.80
8182 41.9540 609.64 606.12 27.30
8183 41.9580 595.35 589.34 27.07
8184 41.9640 595.56 573.12 26.91
8185 41.9690 563.47 557.66 26.39
8186 41.9730 537.04 543.11 25.60
8187 41.9790 506.33 529.59 24.94
8188 41.9840 530.62 517.16 25.41
8189 41.9880 467.64 505.83 24.03
8190 41.9940 489.16 495.59 24.45
8191 41.9980 483.29 486.43 24.37
8192 42.0040 441.71 478.29 23.22
8193 42.0090 476.20 471.12 24.25
8194 42.0130 470.29 464.85 23.91
8195 42.0190 470.28 459.29 24.04
8196 42.0240 475.88 454.60 24.11
8197 42.0280 421.53 450.59 22.79
8198 42.0340 443.64 447.20 23.25
8199 42.0390 438.56 444.37 23.26
8200 42.0440 433.85 442.05 22.98
8201 42.0490 471.93 440.20 24.10
8202 42.0530 468.88 438.77 23.87
8203 42.0590 443.96 437.73 23.42
8204 42.0640 419.66 437.13 22.62
8205 42.0680 463.34 436.80 23.86
8206 42.0740 452.46 436.82 23.50
8207 42.0790 476.94 437.15 24.24
8208 42.0840 419.70 437.79 22.53
8209 42.0890 448.41 438.82 23.49
8210 42.0930 411.87 440.17 22.41
8211 42.0990 446.62 441.89 23.42
8212 42.1040 445.87 443.94 23.32
8213 42.1080 471.00 446.34 24.09
8214 42.1140 411.63 449.08 22.31
8215 42.1190 473.05 452.14 24.09
8216 42.1230 430.86 455.50 22.93
8217 42.1290 448.94 459.14 23.48
8218 42.1330 438.21 462.99 23.10
8219 42.1380 451.18 467.00 23.55
8220 42.1440 405.95 471.13 22.20
8221 42.1480 425.76 475.22 22.86
8222 42.1540 451.61 478.98 23.37
8223 42.1590 465.08 482.66 23.91
8224 42.1630 424.89 485.94 22.70
8225 42.1690 463.28 488.67 23.88
8226 42.1740 492.96 490.75 24.46
8227 42.1780 471.85 492.07 23.51
8228 42.1840 461.92 492.59 22.59
8229 42.1880 476.55 492.29 26.55
8230 42.1940 445.73 491.19 25.61
8231 42.1990 514.71 489.34 27.69
8232 42.2030 457.17 486.80 25.87
8233 42.2090 480.21 483.69 26.71
8234 42.2140 474.27 480.12 26.38
8235 42.2180 477.73 476.21 26.54
8236 42.2240 503.46 472.08 27.16
8237 42.2290 484.32 467.87 26.85
8238 42.2330 525.89 463.66 27.79
8239 42.2390 447.96 459.54 25.78
8240 42.2430 432.03 455.60 25.21
8241 42.2490 513.74 451.88 27.51
8242 42.2540 473.66 448.43 26.33
8243 42.2580 461.25 445.27 26.10
8244 42.2640 416.24 442.42 24.77
8245 42.2690 491.36 439.90 27.03
8246 42.2730 447.85 437.70 25.62
8247 42.2790 437.02 435.83 25.43
8248 42.2830 439.13 434.28 25.39
8249 42.2890 442.33 433.05 25.57
8250 42.2940 446.13 432.13 25.57
8251 42.2980 432.63 431.51 25.35
8252 42.3040 472.65 431.20 26.39
8253 42.3090 482.06 431.19 26.72
8254 42.3130 441.11 431.49 25.42
8255 42.3190 455.02 432.10 25.91
8256 42.3240 478.70 432.92 26.49
8257 42.3290 451.92 434.18 25.87
8258 42.3340 456.98 435.78 25.95
8259 42.3380 472.68 437.74 26.52
8260 42.3440 447.39 440.10 25.63
8261 42.3490 432.79 442.82 25.29
8262 42.3530 425.54 445.96 24.93
8263 42.3590 434.79 449.56 25.40
8264 42.3640 457.38 453.61 25.94
8265 42.3680 461.71 458.11 26.17
8266 42.3740 450.70 463.07 25.77
8267 42.3780 479.55 468.47 26.60
8268 42.3840 480.34 474.30 26.50
8269 42.3890 491.81 480.50 26.95
8270 42.3930 470.57 487.04 26.27
8271 42.3990 489.98 493.83 27.00
8272 42.4040 505.45 500.82 27.21
8273 42.4080 562.48 507.79 28.90
8274 42.4140 459.35 514.59 25.90
8275 42.4180 486.34 521.10 26.77
8276 42.4230 507.37 527.04 27.25
8277 42.4290 509.29 532.21 27.50
8278 42.4330 546.84 536.34 28.38
8279 42.4390 511.16 539.22 27.54
8280 42.4440 502.74 540.74 27.13
8281 42.4480 484.19 540.81 26.69
8282 42.4540 563.42 539.44 28.69
8283 42.4590 506.37 536.71 27.37
8284 42.4630 538.06 532.80 28.14
8285 42.4690 528.60 527.71 28.02
8286 42.4730 540.78 522.04 28.18
8287 42.4790 556.38 515.83 28.66
8288 42.4840 528.32 509.28 27.71
8289 42.4880 536.33 502.57 28.18
8290 42.4940 526.91 495.85 27.83
8291 42.4990 528.41 489.26 28.01
8292 42.5030 556.02 482.89 28.62
8293 42.5090 513.41 476.83 27.55
8294 42.5140 518.50 471.13 27.47
8295 42.5180 493.49 465.83 26.99
8296 42.5240 505.25 460.96 27.24
8297 42.5280 507.07 456.52 27.41
8298 42.5340 479.10 452.53 26.55
8299 42.5390 489.23 448.97 26.91
8300 42.5430 479.78 445.82 26.55
8301 42.5490 447.79 443.09 25.68
8302 42.5540 427.48 440.74 25.00
8303 42.5580 427.69 438.75 25.18
8304 42.5640 435.57 437.09 25.28
8305 42.5690 469.64 435.76 26.37
8306 42.5740 440.08 434.90 25.44
8307 42.5790 411.62 434.14 24.65
8308 42.5830 421.44 433.65 24.84
8309 42.5890 435.67 433.41 25.35
8310 42.5940 459.71 433.42 26.01
8311 42.5980 423.95 433.68 25.05
8312 42.6040 460.46 434.20 25.98
8313 42.6090 470.72 434.98 26.46
8314 42.6140 457.20 436.04 25.83
8315 42.6190 446.22 437.39 25.66
8316 42.6230 430.87 439.06 25.14
8317 42.6290 417.14 441.07 24.86
8318 42.6340 424.72 443.44 24.96
8319 42.6380 446.95 446.21 25.73
8320 42.6440 445.88 449.39 25.58
8321 42.6490 467.40 453.01 26.25
8322 42.6530 438.63 457.14 25.35
8323 42.6590 479.05 461.58 26.60
8324 42.6630 457.16 466.64 25.94
8325 42.6690 441.62 472.17 25.55
8326 42.6740 435.24 478.17 25.31
8327 42.6780 462.30 484.60 26.22
8328 42.6840 506.19 491.41 27.11
8329 42.6890 478.36 498.40 26.61
8330 42.6930 502.95 505.70 27.17
8331 42.6990 530.87 513.07 28.01
8332 42.7040 537.45 520.43 28.13
8333 42.7090 559.34 527.45 28.77
8334 42.7140 555.04 534.01 28.50
8335 42.7180 550.49 539.92 28.47
8336 42.7240 548.73 545.01 28.33
8337 42.7290 568.47 549.12 29.02
8338 42.7330 523.94 552.14 27.73
8339 42.7390 599.44 553.99 29.85
8340 42.7440 601.09 554.65 29.67
8341 42.7480 579.97 554.10 29.21
8342 42.7540 587.60 552.38 29.29
8343 42.7580 571.37 549.57 29.10
8344 42.7630 543.28 545.75 28.24
8345 42.7690 524.69 541.05 27.81
8346 42.7730 531.73 535.65 28.01
8347 42.7790 593.43 529.71 29.58
8348 42.7840 539.16 523.45 28.03
8349 42.7880 514.57 517.05 27.55
8350 42.7940 531.48 510.70 27.93
8351 42.7990 506.16 504.57 27.38
8352 42.8030 474.91 498.77 26.42
8353 42.8090 476.84 493.42 26.58
8354 42.8130 522.36 488.60 27.66
8355 42.8190 440.58 484.35 25.38
8356 42.8240 425.04 480.70 25.00
8357 42.8280 450.67 477.68 25.85
8358 42.8340 468.17 475.27 26.18
8359 42.8390 468.39 473.47 26.41
8360 42.8430 434.00 472.23 25.22
8361 42.8490 440.04 471.52 25.46
8362 42.8540 467.74 471.28 26.08
8363 42.8590 398.82 471.45 24.33
8364 42.8640 416.02 471.95 24.68
8365 42.8680 467.15 472.70 26.29
8366 42.8740 493.54 473.66 26.99
8367 42.8790 477.66 474.61 26.60
8368 42.8830 441.54 475.51 25.28
8369 42.8890 415.14 476.28 24.76
8370 42.8940 492.50 476.83 26.91
8371 42.8980 480.83 477.12 26.65
8372 42.9040 452.83 477.13 25.79
8373 42.9080 471.42 476.87 26.47
8374 42.9140 467.00 476.40 26.12
8375 42.9190 469.92 475.79 26.24
8376 42.9230 462.95 475.12 26.07
8377 42.9290 482.06 474.50 26.73
8378 42.9340 516.78 474.01 27.54
8379 42.9380 479.06 473.74 26.65
8380 42.9440 452.55 473.75 25.77
8381 42.9480 443.75 474.12 25.57
8382 42.9540 471.98 474.87 26.23
8383 42.9590 487.38 476.05 26.81
8384 42.9630 453.38 477.67 25.81
8385 42.9690 488.97 479.65 26.89
8386 42.9740 476.06 482.14 26.45
8387 42.9780 484.12 485.02 26.81
8388 42.9840 527.37 488.25 27.72
8389 42.9890 492.39 491.77 26.95
8390 42.9940 499.46 495.48 27.11
8391 42.9990 511.22 499.26 27.46
8392 43.0030 487.52 502.99 26.74
8393 43.0090 524.93 506.53 27.94
8394 43.0140 516.30 509.70 27.50
8395 43.0180 505.63 512.35 27.25
8396 43.0240 495.36 514.32 26.92
8397 43.0290 536.60 515.59 28.22
8398 43.0330 532.61 516.10 27.93
8399 43.0390 498.14 515.87 27.28
8400 43.0430 496.46 514.99 27.01
8401 43.0480 468.66 513.61 26.27
8402 43.0540 490.86 511.89 26.76
8403 43.0580 487.27 510.02 26.89
8404 43.0640 493.34 508.16 26.91
8405 43.0690 488.08 506.49 26.83
8406 43.0730 484.13 505.13 26.74
8407 43.0790 476.67 504.21 26.62
8408 43.0830 495.95 503.82 26.85
8409 43.0880 490.08 504.02 26.89
8410 43.0940 532.52 504.88 27.97
8411 43.0980 505.02 506.40 27.34
8412 43.1040 451.56 508.60 25.75
8413 43.1090 473.87 511.48 26.53
8414 43.1130 507.45 514.98 27.26
8415 43.1190 509.15 519.07 27.31
8416 43.1240 551.53 523.65 28.44
8417 43.1280 534.10 528.63 28.13
8418 43.1340 548.65 533.88 28.35
8419 43.1390 543.71 539.22 28.44
8420 43.1440 506.20 544.52 27.25
8421 43.1490 516.90 549.57 27.64
8422 43.1530 556.61 554.21 28.43
8423 43.1590 594.73 558.19 29.64
8424 43.1640 603.29 561.73 29.74
8425 43.1680 604.22 564.67 29.90
8426 43.1740 596.17 567.08 29.57
8427 43.1790 552.54 569.11 28.61
8428 43.1830 605.45 570.93 29.73
8429 43.1890 629.67 572.75 30.41
8430 43.1930 615.15 574.74 30.04
8431 43.1990 633.71 577.09 30.56
8432 43.2040 573.51 579.95 28.94
8433 43.2080 611.20 583.29 30.13
8434 43.2140 576.45 587.20 29.08
8435 43.2190 611.69 591.66 29.86
8436 43.2230 570.39 596.56 28.90
8437 43.2290 590.60 601.74 29.50
8438 43.2340 621.37 606.99 30.15
8439 43.2390 646.51 612.02 30.92
8440 43.2440 595.47 616.49 29.57
8441 43.2480 608.86 619.91 29.88
8442 43.2540 593.13 622.22 29.36
8443 43.2590 616.78 622.95 30.19
8444 43.2630 632.53 621.90 30.25
8445 43.2690 582.37 618.90 27.91
8446 43.2740 612.33 614.09 29.83
8447 43.2790 576.95 607.48 32.85
8448 43.2840 591.15 599.56 32.98
8449 43.2880 595.02 590.53 33.28
8450 43.2940 600.24 580.74 33.35
8451 43.2990 581.52 570.56 32.95
8452 43.3030 533.03 560.26 31.45
8453 43.3090 516.35 550.13 31.05
8454 43.3140 549.16 540.37 31.89
8455 43.3180 547.69 531.17 31.88
8456 43.3240 548.93 522.66 31.83
8457 43.3280 462.08 514.99 29.39
8458 43.3340 478.52 508.24 29.79
8459 43.3390 539.26 502.45 31.73
8460 43.3430 496.38 497.66 30.43
8461 43.3490 509.50 493.89 30.75
8462 43.3540 495.46 491.17 30.19
8463 43.3580 453.54 489.48 29.10
8464 43.3640 480.86 488.78 29.88
8465 43.3680 456.54 489.05 29.17
8466 43.3730 519.73 490.24 31.10
8467 43.3790 486.37 492.29 30.16
8468 43.3830 501.22 495.11 30.39
8469 43.3890 471.44 498.66 29.59
8470 43.3940 502.46 502.76 30.56
8471 43.3980 543.74 507.27 31.84
8472 43.4040 508.31 512.07 30.76
8473 43.4090 566.86 516.98 32.53
8474 43.4130 497.60 521.80 30.26
8475 43.4190 501.55 526.31 30.49
8476 43.4240 558.11 530.27 32.21
8477 43.4280 580.84 533.45 32.94
8478 43.4340 525.83 535.66 31.24
8479 43.4380 505.21 536.72 30.75
8480 43.4440 586.51 536.55 32.98
8481 43.4490 580.68 535.16 32.85
8482 43.4530 552.47 532.61 31.94
8483 43.4590 490.18 529.10 30.25
8484 43.4640 528.86 524.77 31.30
8485 43.4680 533.83 519.86 31.60
8486 43.4740 489.41 514.59 30.14
8487 43.4780 469.19 509.20 29.65
8488 43.4840 511.14 503.83 30.64
8489 43.4890 461.80 498.65 29.37
8490 43.4930 444.10 493.77 28.76
8491 43.4990 484.64 489.27 30.02
8492 43.5040 521.32 485.20 31.06
8493 43.5080 467.21 481.59 29.58
8494 43.5140 483.19 478.47 29.95
8495 43.5190 488.06 475.84 30.04
8496 43.5240 481.66 473.60 29.92
8497 43.5290 435.51 471.72 28.52
8498 43.5330 472.15 470.14 29.56
8499 43.5390 495.11 468.78 30.45
8500 43.5440 429.06 467.54 28.26
8501 43.5480 418.70 466.32 27.92
8502 43.5540 489.89 465.04 30.05
8503 43.5590 463.82 463.59 29.48
8504 43.5640 447.14 461.89 28.80
8505 43.5690 477.53 459.96 29.88
8506 43.5730 533.20 457.74 31.47
8507 43.5790 495.40 455.25 30.40
8508 43.5840 450.90 452.57 28.89
8509 43.5880 416.50 449.67 27.88
8510 43.5940 452.41 446.64 29.02
8511 43.5990 427.72 443.56 28.24
8512 43.6030 442.66 440.48 28.67
8513 43.6090 453.27 437.42 29.15
8514 43.6130 427.77 434.48 28.17
8515 43.6190 413.84 431.66 27.70
8516 43.6240 397.13 428.99 27.19
8517 43.6280 402.83 426.49 27.44
8518 43.6340 444.60 424.16 28.73
8519 43.6390 460.40 422.03 29.33
8520 43.6430 449.43 420.08 28.90
8521 43.6490 426.52 418.33 28.19
8522 43.6540 463.76 416.77 29.24
8523 43.6580 408.79 415.41 27.61
8524 43.6640 425.94 414.24 28.14
8525 43.6680 377.70 413.27 26.51
8526 43.6740 393.37 412.48 27.07
8527 43.6790 393.34 411.88 27.14
8528 43.6830 423.85 411.46 27.98
8529 43.6890 396.87 411.24 27.19
8530 43.6940 418.62 411.20 27.86
8531 43.6980 433.51 411.36 28.43
8532 43.7040 423.40 411.80 28.03
8533 43.7080 424.56 412.37 28.25
8534 43.7130 410.61 413.14 27.60
8535 43.7190 413.39 414.14 27.67
8536 43.7230 465.43 415.37 29.37
8537 43.7290 434.53 416.83 28.51
8538 43.7340 444.56 418.53 28.72
8539 43.7380 423.03 420.48 28.18
8540 43.7440 402.80 422.67 27.34
8541 43.7490 406.01 425.09 27.46
8542 43.7530 390.14 427.74 26.85
8543 43.7590 423.08 430.60 28.12
8544 43.7640 417.84 433.64 27.81
8545 43.7690 418.47 436.82 28.03
8546 43.7740 433.64 440.11 28.40
8547 43.7780 409.02 443.43 27.64
8548 43.7840 435.88 446.73 28.40
8549 43.7890 491.06 449.90 30.20
8550 43.7930 465.33 452.87 29.45
8551 43.7990 480.72 455.53 29.97
8552 43.8040 459.34 457.78 29.24
8553 43.8090 499.44 459.55 30.54
8554 43.8140 455.94 460.75 29.10
8555 43.8180 452.05 461.36 28.96
8556 43.8240 456.12 461.37 29.02
8557 43.8290 463.85 460.83 29.48
8558 43.8330 476.42 459.82 29.76
8559 43.8390 422.94 458.44 28.13
8560 43.8440 445.82 456.82 28.80
8561 43.8480 461.95 455.09 29.35
8562 43.8540 495.50 453.39 30.20
8563 43.8580 433.39 451.83 28.41
8564 43.8640 419.21 450.53 27.93
8565 43.8690 423.79 449.58 28.13
8566 43.8730 425.98 449.05 28.15
8567 43.8790 431.98 449.05 28.43
8568 43.8840 460.35 449.60 29.15
8569 43.8880 470.81 450.78 29.56
8570 43.8940 469.82 452.61 29.54
8571 43.8980 468.12 455.14 29.58
8572 43.9040 458.26 458.35 29.17
8573 43.9090 511.51 462.14 30.88
8574 43.9130 447.71 466.76 28.87
8575 43.9190 479.94 472.07 29.83
8576 43.9240 471.58 478.03 29.47
8577 43.9280 505.92 484.58 30.79
8578 43.9340 523.24 491.67 31.19
8579 43.9390 510.51 499.20 30.89
8580 43.9430 527.46 507.04 31.38
8581 43.9490 528.10 515.08 31.33
8582 43.9530 539.74 523.13 31.57
8583 43.9590 526.03 531.01 31.20
8584 43.9640 594.62 538.51 33.26
8585 43.9680 568.70 545.46 32.60
8586 43.9740 596.51 551.71 33.33
8587 43.9790 555.90 557.13 32.22
8588 43.9830 566.92 561.73 32.36
8589 43.9890 652.41 565.56 34.72
8590 43.9930 601.36 568.76 33.41
8591 43.9980 548.56 571.51 32.03
8592 44.0040 552.19 574.06 32.08
8593 44.0080 551.51 576.64 32.05
8594 44.0140 577.29 579.44 32.78
8595 44.0190 531.12 582.65 31.29
8596 44.0230 611.96 586.38 33.60
8597 44.0290 628.36 590.69 34.28
8598 44.0340 560.20 595.58 32.24
8599 44.0380 567.64 600.95 32.66
8600 44.0440 575.22 606.69 32.68
8601 44.0490 580.48 612.59 32.93
8602 44.0540 527.51 618.43 31.11
8603 44.0590 614.08 623.91 33.85
8604 44.0630 590.65 628.74 33.10
8605 44.0690 663.98 632.62 35.26
8606 44.0740 613.66 635.29 33.79
8607 44.0780 596.18 636.56 33.32
8608 44.0840 634.11 636.17 34.30
8609 44.0890 642.59 634.03 34.52
8610 44.0940 608.02 630.20 33.58
8611 44.0990 601.76 624.66 33.53
8612 44.1030 593.20 617.52 33.18
8613 44.1090 651.42 608.92 34.88
8614 44.1140 611.26 599.07 33.73
8615 44.1180 601.65 588.25 33.42
8616 44.1240 548.03 576.62 31.81
8617 44.1290 615.13 564.48 33.88
8618 44.1330 558.60 552.10 32.24
8619 44.1390 527.23 539.69 31.37
8620 44.1430 543.32 527.42 31.79
8621 44.1490 555.92 515.57 32.19
8622 44.1540 520.57 504.23 31.01
8623 44.1580 480.57 493.51 29.95
8624 44.1640 496.82 483.46 30.39
8625 44.1690 445.35 474.17 28.88
8626 44.1730 426.68 465.64 28.15
8627 44.1790 452.64 457.87 29.10
8628 44.1840 483.26 450.90 29.92
8629 44.1890 457.07 444.68 29.11
8630 44.1940 384.94 439.27 26.72
8631 44.1980 427.23 434.49 28.28
8632 44.2040 409.01 430.38 27.60
8633 44.2090 415.60 426.92 27.85
8634 44.2130 429.64 424.06 28.26
8635 44.2190 430.65 421.77 28.29
8636 44.2240 472.97 420.02 29.49
8637 44.2280 425.79 418.78 28.25
8638 44.2340 416.98 418.02 27.85
8639 44.2380 440.53 417.74 28.71
8640 44.2440 437.43 417.90 28.51
8641 44.2490 491.73 418.49 30.24
8642 44.2530 412.33 419.50 27.60
8643 44.2590 438.28 420.91 28.52
8644 44.2640 428.06 422.70 28.20
8645 44.2680 426.68 424.87 28.26
8646 44.2740 453.07 427.39 28.99
8647 44.2780 412.52 430.23 27.76
8648 44.2830 480.79 433.36 29.79
8649 44.2890 437.61 436.75 28.49
8650 44.2930 457.12 440.33 29.06
8651 44.2990 465.43 444.04 29.56
8652 44.3040 465.79 447.80 29.39
8653 44.3080 434.65 451.52 28.45
8654 44.3140 452.16 455.08 28.92
8655 44.3190 471.79 458.34 29.55
8656 44.3230 476.08 461.17 29.57
8657 44.3290 511.64 463.42 30.93
8658 44.3330 512.97 464.95 30.84
8659 44.3390 533.31 465.68 31.54
8660 44.3440 483.03 465.51 29.89
8661 44.3480 511.82 464.51 30.88
8662 44.3540 497.42 462.72 30.06
8663 44.3590 446.70 460.18 26.54
8664 44.3630 450.19 457.05 29.87
8665 44.3690 415.20 453.44 32.54
8666 44.3740 489.94 449.54 35.52
8667 44.3780 466.17 445.43 34.63
8668 44.3840 444.72 441.21 33.64
8669 44.3880 438.46 437.04 33.40
8670 44.3940 423.05 432.94 32.78
8671 44.3990 412.77 429.01 32.58
8672 44.4030 450.31 425.27 34.05
8673 44.4090 406.38 421.77 32.31
8674 44.4140 412.68 418.52 32.49
8675 44.4180 448.14 415.55 33.77
8676 44.4240 406.22 412.85 32.11
8677 44.4280 374.34 410.42 30.87
8678 44.4340 388.43 408.28 31.62
8679 44.4390 386.64 406.41 31.53
8680 44.4430 403.41 404.80 32.13
8681 44.4490 345.25 403.43 29.82
8682 44.4540 373.51 402.31 30.72
8683 44.4580 406.92 401.45 32.22
8684 44.4640 425.11 400.76 32.91
8685 44.4690 441.24 400.28 33.70
8686 44.4740 467.22 399.97 34.59
8687 44.4790 444.36 399.89 33.76
8688 44.4830 463.12 399.97 34.45
8689 44.4890 448.60 400.26 33.76
8690 44.4940 419.18 400.73 32.63
8691 44.4980 388.62 401.40 31.55
8692 44.5040 386.52 402.27 31.47
8693 44.5090 411.32 403.33 32.62
8694 44.5130 383.64 404.64 31.31
8695 44.5190 415.89 406.17 32.58
8696 44.5230 420.85 407.96 32.69
8697 44.5290 392.58 410.00 31.65
8698 44.5340 433.65 412.32 33.32
8699 44.5380 431.06 414.92 33.23
8700 44.5440 422.62 417.81 33.04
8701 44.5490 403.14 420.99 32.07
8702 44.5530 420.14 424.46 32.75
8703 44.5590 374.23 428.22 30.77
8704 44.5630 415.64 432.23 32.56
8705 44.5680 413.64 436.46 32.57
8706 44.5740 436.81 440.90 33.56
8707 44.5780 409.80 445.47 32.45
8708 44.5840 413.82 450.12 32.46
8709 44.5890 431.46 454.75 33.08
8710 44.5930 427.32 459.28 33.02
8711 44.5990 419.59 463.60 32.78
8712 44.6040 422.00 467.59 32.95
8713 44.6080 443.86 471.13 33.72
8714 44.6140 456.33 474.10 34.18
8715 44.6180 417.25 476.39 32.59
8716 44.6240 445.25 477.91 33.52
8717 44.6290 442.95 478.58 33.68
8718 44.6330 494.52 478.39 35.63
8719 44.6390 521.99 477.22 36.56
8720 44.6440 466.15 475.33 34.56
8721 44.6480 489.46 472.78 35.40
8722 44.6540 457.83 469.64 34.10
8723 44.6590 454.70 466.07 33.98
8724 44.6630 432.97 462.20 33.31
8725 44.6690 407.90 458.16 32.22
8726 44.6730 466.37 454.07 34.63
8727 44.6790 459.27 450.02 34.25
8728 44.6840 443.91 446.04 33.68
8729 44.6880 432.12 442.33 33.17
8730 44.6940 415.59 438.86 32.59
8731 44.6990 439.84 435.70 33.58
8732 44.7030 479.28 432.85 34.89
8733 44.7090 459.39 430.30 34.33
8734 44.7140 471.94 428.23 34.83
8735 44.7190 438.98 426.47 33.51
8736 44.7240 458.42 425.09 34.15
8737 44.7280 445.04 424.11 33.71
8738 44.7340 429.61 423.53 33.00
8739 44.7390 419.47 423.36 32.85
8740 44.7430 405.88 423.58 32.30
8741 44.7490 390.65 424.26 31.77
8742 44.7540 435.48 425.37 33.25
8743 44.7590 432.59 426.95 33.21
8744 44.7640 423.14 428.99 32.80
8745 44.7680 453.46 431.52 34.11
8746 44.7740 447.06 434.55 33.80
8747 44.7790 427.47 438.10 33.12
8748 44.7830 393.52 442.18 31.80
8749 44.7890 412.28 446.81 32.48
8750 44.7940 468.09 451.98 34.54
8751 44.7980 484.52 457.72 35.18
8752 44.8040 449.28 463.96 33.82
8753 44.8080 475.56 470.71 34.95
8754 44.8140 411.50 477.92 32.51
8755 44.8190 491.59 485.54 35.51
8756 44.8230 456.45 493.49 34.12
8757 44.8290 518.62 501.68 36.38
8758 44.8340 534.66 509.96 36.99
8759 44.8380 575.36 518.17 38.29
8760 44.8440 508.48 526.14 36.21
8761 44.8480 504.06 533.62 35.99
8762 44.8530 510.70 540.39 36.08
8763 44.8590 609.46 546.20 39.39
8764 44.8630 629.36 550.82 40.05
8765 44.8690 619.27 553.97 39.82
8766 44.8740 616.17 555.72 39.67
8767 44.8780 644.88 555.94 40.72
8768 44.8840 594.45 554.68 39.05
8769 44.8890 631.88 552.06 40.19
8770 44.8930 590.89 548.27 38.83
8771 44.8990 560.23 543.55 37.89
8772 44.9030 551.00 538.18 37.47
8773 44.9080 526.24 532.39 36.92
8774 44.9140 505.66 526.42 35.97
8775 44.9180 516.66 520.53 36.45
8776 44.9240 483.10 514.91 35.04
8777 44.9290 490.51 509.70 35.41
8778 44.9330 512.88 505.05 36.22
8779 44.9390 532.83 501.08 36.94
8780 44.9440 446.13 497.88 33.87
8781 44.9480 493.09 495.50 35.66
8782 44.9540 461.09 493.98 34.31
8783 44.9580 515.78 493.33 36.27
8784 44.9640 460.32 493.56 34.30
8785 44.9690 505.82 494.64 35.94
8786 44.9730 533.23 496.54 36.96
8787 44.9790 534.66 499.21 37.18
8788 44.9840 500.13 502.55 35.79
8789 44.9880 529.47 506.48 36.68
8790 44.9940 511.94 510.88 36.13
8791 44.9990 457.81 515.58 34.20
8792 45.0040 486.27 520.45 35.29
8793 45.0090 491.65 525.27 35.67
8794 45.0130 491.90 529.89 35.56
8795 45.0190 494.51 534.11 35.57
8796 45.0240 506.06 537.77 35.76
8797 45.0280 574.88 540.72 38.30
8798 45.0340 498.29 542.91 35.78
8799 45.0390 491.88 544.34 35.53
8800 45.0440 597.19 545.04 39.19
8801 45.0490 548.57 545.17 37.67
8802 45.0530 565.96 544.86 37.85
8803 45.0590 557.16 544.30 37.69
8804 45.0640 513.90 543.65 36.16
8805 45.0680 524.68 543.09 36.69
8806 45.0740 502.55 542.70 35.83
8807 45.0790 524.37 542.62 36.85
8808 45.0830 529.46 542.88 36.79
8809 45.0890 537.96 543.48 36.95
8810 45.0930 530.96 544.43 36.82
8811 45.0990 523.53 545.55 36.66
8812 45.1040 522.84 546.76 36.52
8813 45.1080 529.59 547.89 36.95
8814 45.1140 528.40 548.76 36.78
8815 45.1190 503.35 549.15 35.96
8816 45.1230 533.85 548.85 36.73
8817 45.1290 523.48 547.74 36.60
8818 45.1340 557.35 545.57 37.67
8819 45.1380 595.04 542.34 39.03
8820 45.1440 523.97 538.03 36.77
8821 45.1480 544.76 532.75 37.44
8822 45.1540 532.61 526.61 36.91
8823 45.1590 583.60 519.79 38.49
8824 45.1630 550.71 512.47 37.46
8825 45.1690 485.41 504.84 35.28
8826 45.1740 609.98 497.08 39.48
8827 45.1780 577.83 489.39 38.62
8828 45.1840 512.15 481.78 36.27
8829 45.1880 485.31 474.41 35.18
8830 45.1930 571.21 467.38 38.16
8831 45.1990 459.30 460.72 34.33
8832 45.2030 437.21 454.49 33.33
8833 45.2090 444.42 448.71 33.88
8834 45.2140 438.81 443.41 33.64
8835 45.2180 406.10 438.58 32.21
8836 45.2240 434.54 434.21 33.21
8837 45.2290 423.62 430.29 32.92
8838 45.2330 392.15 426.80 31.69
8839 45.2390 355.94 423.72 30.23
8840 45.2430 419.82 420.96 32.94
8841 45.2490 388.01 418.61 31.53
8842 45.2540 381.43 416.58 31.17
8843 45.2580 377.81 414.81 31.01
8844 45.2640 425.46 413.29 33.08
8845 45.2690 497.05 411.98 35.69
8846 45.2730 395.57 410.84 31.90
8847 45.2790 407.07 409.86 32.41
8848 45.2840 420.92 408.99 32.78
8849 45.2890 395.28 408.22 31.70
8850 45.2940 370.41 407.54 30.70
8851 45.2980 368.28 406.93 30.85
8852 45.3040 408.83 406.39 32.39
8853 45.3090 430.69 405.92 33.26
8854 45.3130 424.40 405.53 33.08
8855 45.3190 408.57 405.23 32.30
8856 45.3240 374.76 405.03 30.77
8857 45.3280 462.45 404.93 34.39
8858 45.3340 404.67 404.95 32.22
8859 45.3380 394.23 405.10 31.81
8860 45.3440 419.14 405.38 32.93
8861 45.3490 362.85 405.81 30.56
8862 45.3530 415.41 406.38 32.44
8863 45.3590 350.62 407.10 29.85
8864 45.3640 401.48 407.98 32.08
8865 45.3680 439.24 408.99 33.64
8866 45.3740 394.20 410.15 31.79
8867 45.3780 450.22 411.44 34.11
8868 45.3840 436.31 412.85 33.31
8869 45.3890 424.27 414.36 32.81
8870 45.3930 418.70 415.94 32.67
8871 45.3990 416.71 417.58 32.72
8872 45.4040 391.90 419.22 31.79
8873 45.4080 413.41 420.83 32.54
8874 45.4140 436.67 422.34 33.53
8875 45.4190 430.03 423.77 33.12
8876 45.4230 462.30 425.05 34.11
8877 45.4290 460.45 426.17 34.35
8878 45.4330 417.72 427.10 32.74
8879 45.4390 485.31 427.86 35.29
8880 45.4440 418.58 428.49 32.81
8881 45.4480 401.04 428.92 32.10
8882 45.4540 437.95 429.42 33.35
8883 45.4590 408.57 429.95 32.17
8884 45.4630 423.91 430.57 32.98
8885 45.4690 434.67 431.35 33.28
8886 45.4730 409.07 432.32 29.65
8887 45.4780 448.40 433.52 33.66
8888 45.4840 446.65 435.01 42.72
8889 45.4880 435.56 436.79 42.39
8890 45.4940 406.10 438.87 40.79
8891 45.4990 464.27 441.24 43.88
8892 45.5030 397.44 443.89 40.29
8893 45.5090 433.82 446.80 42.67
8894 45.5140 435.22 449.92 42.28
8895 45.5180 482.98 453.17 44.72
8896 45.5240 431.23 456.53 41.89
8897 45.5280 519.95 459.86 46.47
8898 45.5340 525.52 463.14 46.23
8899 45.5390 436.01 466.27 42.69
8900 45.5430 482.97 469.10 44.54
8901 45.5490 520.44 471.72 46.58
8902 45.5540 472.18 474.06 43.98
8903 45.5580 504.57 476.14 45.69
8904 45.5640 475.88 478.01 44.18
8905 45.5690 440.23 479.77 42.71
8906 45.5740 506.19 481.52 45.64
8907 45.5790 520.00 483.38 46.69
8908 45.5830 478.74 485.45 44.39
8909 45.5890 474.34 487.70 44.37
8910 45.5940 476.54 490.47 44.18
8911 45.5980 494.30 493.61 45.34
8912 45.6040 510.38 497.21 45.65
8913 45.6090 447.68 501.23 43.32
8914 45.6130 554.85 505.59 47.97
8915 45.6190 473.58 510.21 44.37
8916 45.6230 521.58 514.98 46.24
8917 45.6290 550.03 519.74 47.75
8918 45.6340 487.67 524.30 44.62
8919 45.6380 602.03 528.43 49.97
8920 45.6440 507.79 531.90 45.88
8921 45.6490 552.73 534.49 48.19
8922 45.6530 548.96 535.98 47.36
8923 45.6590 544.90 536.21 47.58
8924 45.6640 578.57 535.07 48.53
8925 45.6690 605.59 532.53 50.27
8926 45.6740 526.28 528.64 46.52
8927 45.6780 462.11 523.52 44.19
8928 45.6840 497.91 517.34 45.24
8929 45.6890 493.75 510.34 45.24
8930 45.6930 470.36 502.74 43.84
8931 45.6990 450.74 494.74 43.47
8932 45.7040 492.27 486.57 44.99
8933 45.7090 473.16 478.39 44.75
8934 45.7140 430.16 470.37 42.18
8935 45.7180 461.91 462.60 43.88
8936 45.7240 510.94 455.24 45.51
8937 45.7290 458.01 448.27 43.70
8938 45.7330 392.32 441.77 40.26
8939 45.7390 448.77 435.80 43.38
8940 45.7440 397.22 430.38 40.64
8941 45.7480 425.46 425.53 42.27
8942 45.7540 454.90 421.24 43.06
8943 45.7580 433.39 417.51 42.37
8944 45.7630 418.58 414.35 41.53
8945 45.7690 391.51 411.73 40.61
8946 45.7730 472.77 409.66 44.10
8947 45.7790 442.02 408.10 43.29
8948 45.7840 443.74 407.06 42.75
8949 45.7880 417.86 406.52 41.64
8950 45.7940 401.23 406.47 40.55
8951 45.7990 425.01 406.90 42.24
8952 45.8030 430.23 407.80 42.21
8953 45.8090 444.53 409.17 43.20
8954 45.8130 447.17 410.90 43.08
8955 45.8190 428.00 413.22 42.38
8956 45.8240 462.64 415.95 43.40
8957 45.8280 470.39 419.12 44.20
8958 45.8340 458.61 422.72 43.50
8959 45.8390 525.67 426.73 46.95
8960 45.8430 458.26 431.13 43.66
8961 45.8490 441.47 435.89 43.15
8962 45.8540 501.94 440.96 45.57
8963 45.8580 565.72 446.31 48.27
8964 45.8640 415.68 451.85 41.31
8965 45.8680 513.54 457.50 46.44
8966 45.8740 415.29 463.15 41.42
8967 45.8790 455.22 468.67 43.64
8968 45.8830 493.00 473.93 45.11
8969 45.8890 553.17 478.75 47.95
8970 45.8940 540.02 482.98 47.13
8971 45.8980 527.28 486.44 46.97
8972 45.9040 417.92 489.06 41.58
8973 45.9080 509.14 490.61 46.10
8974 45.9140 450.21 491.09 43.12
8975 45.9190 537.36 490.49 47.54
8976 45.9230 484.35 488.88 44.50
8977 45.9290 437.88 486.32 42.81
8978 45.9340 471.87 482.96 43.97
8979 45.9380 516.79 478.95 46.69
8980 45.9440 451.39 474.46 43.16
8981 45.9490 504.50 469.65 46.08
8982 45.9540 501.06 464.64 45.44
8983 45.9590 468.98 459.60 44.20
8984 45.9630 479.61 454.61 44.34
8985 45.9690 489.73 449.79 45.33
8986 45.9740 453.11 445.20 43.30
8987 45.9780 450.36 440.91 43.50
8988 45.9840 464.02 436.98 43.75
8989 45.9890 418.07 433.43 41.99
8990 45.9940 454.07 430.30 43.10
8991 45.9990 450.15 427.61 43.34
8992 46.0030 392.48 425.36 40.29
8993 46.0090 406.16 423.57 41.22
8994 46.0140 358.85 422.24 38.74
8995 46.0180 414.34 421.35 41.65
8996 46.0240 452.97 420.90 43.21
8997 46.0290 358.08 420.88 38.57
8998 46.0330 429.21 421.27 42.03
8999 46.0390 427.95 422.04 42.45
9000 46.0430 386.68 423.18 39.95
9001 46.0480 467.65 424.65 44.41
9002 46.0540 359.09 426.44 38.51
9003 46.0580 415.06 428.51 41.56
9004 46.0640 464.32 430.83 43.50
9005 46.0690 445.36 433.30 43.35
9006 46.0730 427.30 435.98 41.99
9007 46.0790 441.13 438.77 42.91
9008 46.0840 448.10 441.62 43.22
9009 46.0880 377.67 444.49 39.59
9010 46.0940 440.30 447.37 42.39
9011 46.0980 384.80 450.23 40.07
9012 46.1040 436.10 453.06 42.38
9013 46.1090 378.57 455.90 39.84
9014 46.1130 421.85 458.77 41.86
9015 46.1190 420.77 461.71 41.93
9016 46.1240 393.10 464.73 40.03
9017 46.1280 458.30 467.82 43.50
9018 46.1340 467.93 470.98 43.86
9019 46.1390 512.23 474.19 46.27
9020 46.1430 435.38 477.41 42.45
9021 46.1490 498.75 480.57 45.65
9022 46.1530 471.48 483.58 44.11
9023 46.1590 515.98 486.30 46.20
9024 46.1640 390.17 488.67 39.90
9025 46.1680 521.08 490.56 46.67
9026 46.1740 433.83 491.85 42.27
9027 46.1790 472.06 492.46 44.36
9028 46.1830 548.64 492.32 47.64
9029 46.1890 475.61 491.43 44.60
9030 46.1940 542.28 489.79 46.92
9031 46.1990 505.38 487.47 45.74
9032 46.2040 467.13 484.55 43.98
9033 46.2080 437.70 481.16 42.59
9034 46.2140 441.34 477.42 42.72
9035 46.2190 443.51 473.46 43.15
9036 46.2230 440.43 469.41 42.52
9037 46.2290 391.67 465.37 40.24
9038 46.2340 480.48 461.45 44.41
9039 46.2390 489.19 457.73 45.03
9040 46.2440 446.42 454.28 42.84
9041 46.2480 419.74 451.16 42.00
9042 46.2540 385.17 448.40 39.81
9043 46.2590 446.51 446.03 43.07
9044 46.2630 460.23 444.07 43.44
9045 46.2690 449.08 442.51 43.10
9046 46.2740 499.48 441.34 45.39
9047 46.2780 477.09 440.55 44.74
9048 46.2840 423.66 440.09 41.74
9049 46.2880 468.29 439.94 44.33
9050 46.2940 429.53 440.07 41.92
9051 46.2990 481.81 440.35 44.67
9052 46.3030 463.91 440.75 43.76
9053 46.3090 405.91 441.18 41.09
9054 46.3140 501.36 441.57 45.45
9055 46.3180 461.64 441.81 43.92
9056 46.3240 474.11 441.92 43.98
9057 46.3280 414.71 441.80 41.44
9058 46.3340 453.51 441.45 43.12
9059 46.3390 514.33 440.86 46.43
9060 46.3430 420.61 440.05 41.49
9061 46.3490 395.63 439.03 40.86
9062 46.3540 513.55 437.91 45.77
9063 46.3580 490.89 436.70 45.18
9064 46.3640 426.83 435.46 41.60
9065 46.3690 439.70 434.22 42.92
9066 46.3730 495.02 433.02 45.22
9067 46.3790 481.61 431.90 44.77
9068 46.3830 431.20 430.78 42.26
9069 46.3880 459.51 429.82 43.63
9070 46.3940 403.25 428.92 40.51
9071 46.3980 457.74 428.05 43.62
9072 46.4040 453.88 427.22 43.25
9073 46.4090 442.36 426.36 42.92
9074 46.4130 341.36 425.46 37.48
9075 46.4190 414.64 424.48 41.66
9076 46.4240 460.42 423.47 43.47
9077 46.4280 465.07 422.33 43.53
9078 46.4340 420.96 421.14 41.62
9079 46.4380 504.09 419.92 45.80
9080 46.4440 473.42 418.73 44.11
9081 46.4490 380.46 417.61 40.04
9082 46.4530 410.48 416.64 41.07
9083 46.4590 445.68 415.87 42.96
9084 46.4640 390.37 415.35 39.62
9085 46.4680 406.92 415.13 41.17
9086 46.4740 423.54 415.26 41.69
9087 46.4790 414.43 415.77 41.64
9088 46.4840 379.36 416.72 39.51
9089 46.4890 383.08 418.09 39.83
9090 46.4930 511.16 419.99 45.47
9091 46.4990 421.66 422.39 41.76
9092 46.5040 457.64 425.36 43.25
9093 46.5080 448.49 428.90 43.30
9094 46.5140 432.96 433.05 42.04
9095 46.5190 394.14 437.78 40.65
9096 46.5240 449.84 443.12 42.85
9097 46.5290 533.57 449.08 46.67
9098 46.5330 460.55 455.64 43.22
9099 46.5390 424.42 462.78 42.05
9100 46.5440 416.98 470.55 41.32
9101 46.5480 458.41 478.88 43.63
9102 46.5540 524.71 487.71 46.42
9103 46.5590 517.48 497.06 45.99
9104 46.5630 508.90 506.81 45.25
9105 46.5690 504.85 516.85 45.81
9106 46.5730 506.47 527.23 44.34
9107 46.5790 498.43 537.79 34.33
9108 46.5840 544.07 548.51 60.67
loop_
_pd_proc_info_excluded_regions
'from 1.044 to 2.500'
'from 6.295 to 6.455'
'from 6.655 to 6.815'
'from 8.625 to 8.830'
'from 10.735 to 11.005'
'from 12.755 to 12.875'
'from 46.505 to 46.627'
