#------------------------------------------------------------------------------
#$Date: 2016-03-17 13:15:08 +0200 (Thu, 17 Mar 2016) $
#$Revision: 178232 $
#$URL: svn://www.crystallography.net/cod/cif/4/00/06/4000618.cif $
#------------------------------------------------------------------------------
#
# This file is available in the Crystallography Open Database (COD),
# http://www.crystallography.net/
#
# All data on this site have been placed in the public domain by the
# contributors.
#
data_4000618
loop_
_publ_author_name
'Thundathil, Mary A.'
'Jones, Camille Y.'
'Snyder, G. Jeffrey'
'Haile, Sossina M.'
_publ_section_title
;
 Nonstoichiometry, Structure, and Electrical Properties of "SrPrO~3~"
;
_journal_coden_ASTM              CMATEX
_journal_issue                   20
_journal_name_full               'Chemistry of Materials'
_journal_page_first              5146
_journal_page_last               5154
_journal_paper_doi               10.1021/cm050895k
_journal_volume                  17
_journal_year                    2005
_chemical_formula_sum            'O3 Pr Sr0.96'
_chemical_formula_weight         273.28
_symmetry_cell_setting           orthorhombic
_symmetry_space_group_name_H-M   'P b n m'
_audit_author_name               z
_audit_creation_date             2004-05-27T08:50
_audit_creation_method           'from EXP file using GSAS2CIF'
_audit_update_record
' 2004-05-27T08:50  Initial CIF as created by GSAS2CIF'
_cell_angle_alpha                90.0
_cell_angle_beta                 90.0
_cell_angle_gamma                90.0
_cell_formula_units_Z            4
_cell_length_a                   5.98800(17)
_cell_length_b                   6.12136(17)
_cell_length_c                   8.54858(24)
_cell_volume                     313.34595
_computing_structure_refinement  GSAS
_diffrn_radiation_probe          neutron
_diffrn_radiation_wavelength     1.5398
_exptl_absorpt_correction_T_max  1.00000
_exptl_absorpt_correction_T_min  1.00000
_exptl_absorpt_process_details
;   GSAS Absorption/surface roughness correction: function number 0
 No correction is applied.
;
_pd_block_id                     2004-05-27T08:50|SRPRO300K_PBNM|z|a
_pd_calc_method                  'Rietveld Refinement'
_pd_meas_2theta_range_inc        0.05
_pd_meas_2theta_range_max        167.95
_pd_meas_2theta_range_min        3.0
_pd_meas_number_of_points        3300
_pd_phase_name                   srpro3_80K
_pd_proc_2theta_range_inc        0.05
_pd_proc_2theta_range_max        167.9611
_pd_proc_2theta_range_min        3.0111
_pd_proc_info_datetime           2004-05-27T08:50:30
_pd_proc_ls_background_function
;   GSAS Background function number 1 with 14 terms.
 Shifted Chebyshev function of 1st kind
      1:    41.8185     2:   -6.66563     3:    12.5681     4:  -0.110839    
      5:    6.81339     6:   -1.20484     7:    3.67918     8:   -1.34492    
      9:    2.14340    10:  -0.583473    11:   0.805915    12:  -0.739334    
     13:   0.906507    14:  -0.445314    
;
_pd_proc_ls_peak_cutoff          0.00500
_pd_proc_ls_profile_function
;
 CW Profile function number 1 with   6 terms
 Profile coefficients for Simpson's rule integration of Gaussian function
 C.J. Howard (1982). J. Appl. Cryst.,15,615-620.
 Cooper & Sayer, J. Appl. Cryst., 8, 615-618 (1975).
 Thomas, J. Appl. Cryst., 10, 12-13(1977).
 #1(U)    =  291.160 #2(V)    = -313.430 #3(W)    =  201.390
 #4(asym) =   2.2680 #5(F1)   =    0.000 #6(F2)   =    0.000
 Peak tails are ignored  where the intensity is below 0.0050 times the peak
   Aniso. broadening axis   0.0   0.0   1.0
;
_pd_proc_ls_prof_R_factor        0.0302
_pd_proc_ls_prof_wR_expected     0.0319
_pd_proc_ls_prof_wR_factor       0.0359
_pd_proc_number_of_points        3300
_refine_ls_goodness_of_fit_all   1.14
_refine_ls_matrix_type           full
_refine_ls_number_parameters     50
_refine_ls_number_restraints     0
_refine_ls_R_Fsqd_factor         0.03313
_refine_ls_shift/su_max          0.00
_refine_ls_shift/su_mean         0.00
_reflns_d_resolution_high        0.776
_reflns_d_resolution_low         4.904
_reflns_limit_h_max              7
_reflns_limit_h_min              0
_reflns_limit_k_max              7
_reflns_limit_k_min              0
_reflns_limit_l_max              10
_reflns_limit_l_min              0
_reflns_number_observed          374
_cod_data_source_file            cm050895ksi20050629_010556.cif
_cod_data_source_block           SRPRO300K_PBNM_publ
_cod_depositor_comments
;
The following automatic conversions were performed:
'_geom_bond_publ_flag' value 'N' changed to 'n' according to
'/home/saulius/struct/CIF-dictionaries/cif_core.dic' dictionary named
'cif_core.dic' version 2.4.1 from 2010-06-29 (45 times).

Automatic conversion script
Id: cif_fix_enum 1527 2010-12-29 10:47:43Z saulius 
;
_cod_database_code               4000618
#BEGIN Tags that were not found in dictionaries:
_gsas_exptl_extinct_corr_t_min   1.00000
_gsas_exptl_extinct_corr_t_max   1.00000
#END Tags that were not found in dictionaries
loop_
_symmetry_equiv_pos_site_id
_symmetry_equiv_pos_as_xyz
1 +x,+y,+z
2 -x+1/2,+y+1/2,+z
3 +x+1/2,-y+1/2,+z+1/2
4 -x,-y,+z+1/2
-1 -x,-y,-z
-2 +x+1/2,-y+1/2,-z
-3 -x+1/2,+y+1/2,-z+1/2
-4 +x,+y,-z+1/2
loop_
_atom_site_aniso_label
_atom_site_aniso_U_11
_atom_site_aniso_U_12
_atom_site_aniso_U_13
_atom_site_aniso_U_22
_atom_site_aniso_U_23
_atom_site_aniso_U_33
SR1 0.0101(6) -0.0027(6) 0.0 0.0097(5) 0.0 0.0122(6)
PR2 0.0056(9) -0.0015(8) 0.0019(9) 0.0090(8) 0.0002(5) 0.0051(7)
O1 0.0170(7) -0.0019(6) 0.0 0.0149(7) 0.0 0.0067(7)
O2 0.0142(5) -0.0060(5) 0.0042(5) 0.0132(5) -0.0050(5) 0.0199(6)
loop_
_atom_site_type_symbol
_atom_site_label
_atom_site_fract_x
_atom_site_fract_y
_atom_site_fract_z
_atom_site_occupancy
_atom_site_thermal_displace_type
_atom_site_U_iso_or_equiv
_atom_site_symmetry_multiplicity
SR SR1 -0.01026(25) 0.04351(18) 0.25 0.963 Uani 0.01067 4
PR PR2 0.0 0.5 0.0 1.0 Uani 0.0066 4
O O1 0.10286(28) 0.45820(26) 0.25 1.0 Uani 0.01288 4
O O2 0.70072(19) 0.29857(20) 0.05466(15) 1.0 Uani 0.01578 8
loop_
_atom_type_symbol
_atom_type_number_in_cell
_atom_type_scat_length_neutron
_atom_type_scat_source
SR 3.852 0.7020 International_Tables_Vol_C
PR 4.0 0.4580 International_Tables_Vol_C
O 12.0 0.5803 International_Tables_Vol_C
loop_
_geom_angle_atom_site_label_1
_geom_angle_atom_site_label_2
_geom_angle_atom_site_label_3
_geom_angle
_geom_angle_site_symmetry_1
_geom_angle_site_symmetry_2
_geom_angle_site_symmetry_3
_geom_angle_publ_flag
SR1 SR1 SR1 93.66(6) 2_445 . 2_455 n
SR1 SR1 PR2 52.920(5) 2_445 . 1_545 n
SR1 SR1 PR2 126.24(4) 2_445 . 1_555 n
SR1 SR1 PR2 52.784(31) 2_445 . 2_445 n
SR1 SR1 PR2 120.480(21) 2_445 . 2_545 n
SR1 SR1 PR2 52.784(31) 2_445 . 3_455 n
SR1 SR1 PR2 120.480(21) 2_445 . 3_555 n
SR1 SR1 PR2 52.920(5) 2_445 . 4_555 n
SR1 SR1 PR2 126.24(4) 2_445 . 4_565 n
SR1 SR1 O1 151.77(7) 2_445 . 1_555 n
SR1 SR1 O1 121.09(5) 2_445 . 2_545 n
SR1 SR1 O2 89.09(5) 2_445 . 1_455 n
SR1 SR1 O2 41.897(35) 2_445 . 2_545 n
SR1 SR1 O2 41.897(35) 2_445 . -3_656 n
SR1 SR1 O2 89.09(5) 2_445 . -4_456 n
SR1 SR1 PR2 128.62(4) 2_455 . 1_545 n
SR1 SR1 PR2 55.439(6) 2_455 . 1_555 n
SR1 SR1 PR2 60.129(34) 2_455 . 2_445 n
SR1 SR1 PR2 127.675(22) 2_455 . 2_545 n
SR1 SR1 PR2 60.129(34) 2_455 . 3_455 n
SR1 SR1 PR2 127.675(22) 2_455 . 3_555 n
SR1 SR1 PR2 128.62(4) 2_455 . 4_555 n
SR1 SR1 PR2 55.439(6) 2_455 . 4_565 n
SR1 SR1 O1 58.11(4) 2_455 . 1_555 n
SR1 SR1 O1 145.25(6) 2_455 . 2_545 n
SR1 SR1 O2 35.896(29) 2_455 . 1_455 n
SR1 SR1 O2 97.15(6) 2_455 . 2_545 n
SR1 SR1 O2 97.15(6) 2_455 . -3_656 n
SR1 SR1 O2 35.896(29) 2_455 . -4_456 n
PR2 SR1 PR2 109.8535(33) 1_545 . 1_555 n
PR2 SR1 PR2 68.501(16) 1_545 . 2_445 n
PR2 SR1 PR2 67.568(16) 1_545 . 2_545 n
PR2 SR1 PR2 105.566(32) 1_545 . 3_455 n
PR2 SR1 PR2 103.669(30) 1_545 . 3_555 n
PR2 SR1 PR2 65.421(18) 1_545 . 4_555 n
PR2 SR1 PR2 174.939(25) 1_545 . 4_565 n
PR2 SR1 O1 143.982(28) 1_545 . 1_555 n
PR2 SR1 O1 78.97(4) 1_545 . 2_545 n
PR2 SR1 O2 98.785(31) 1_545 . 1_455 n
PR2 SR1 O2 31.517(28) 1_545 . 2_545 n
PR2 SR1 O2 82.21(4) 1_545 . -3_656 n
PR2 SR1 O2 141.46(5) 1_545 . -4_456 n
PR2 SR1 PR2 73.467(17) 1_555 . 2_445 n
PR2 SR1 PR2 72.245(18) 1_555 . 2_545 n
PR2 SR1 PR2 115.40(4) 1_555 . 3_455 n
PR2 SR1 PR2 112.93(4) 1_555 . 3_555 n
PR2 SR1 PR2 174.939(25) 1_555 . 4_555 n
PR2 SR1 PR2 74.805(22) 1_555 . 4_565 n
PR2 SR1 O1 39.480(16) 1_555 . 1_555 n
PR2 SR1 O1 98.58(4) 1_555 . 2_545 n
PR2 SR1 O2 39.134(24) 1_555 . 1_455 n
PR2 SR1 O2 94.475(34) 1_555 . 2_545 n
PR2 SR1 O2 152.11(6) 1_555 . -3_656 n
PR2 SR1 O2 86.09(4) 1_555 . -4_456 n
PR2 SR1 PR2 108.528(4) 2_445 . 2_545 n
PR2 SR1 PR2 71.942(28) 2_445 . 3_455 n
PR2 SR1 PR2 171.641(34) 2_445 . 3_555 n
PR2 SR1 PR2 105.566(32) 2_445 . 4_555 n
PR2 SR1 PR2 115.40(4) 2_445 . 4_565 n
PR2 SR1 O1 106.17(4) 2_445 . 1_555 n
PR2 SR1 O1 140.607(25) 2_445 . 2_545 n
PR2 SR1 O2 37.935(27) 2_445 . 1_455 n
PR2 SR1 O2 37.025(30) 2_445 . 2_545 n
PR2 SR1 O2 88.90(5) 2_445 . -3_656 n
PR2 SR1 O2 84.00(4) 2_445 . -4_456 n
PR2 SR1 PR2 171.641(34) 2_545 . 3_455 n
PR2 SR1 PR2 69.739(27) 2_545 . 3_555 n
PR2 SR1 PR2 103.669(30) 2_545 . 4_555 n
PR2 SR1 PR2 112.93(4) 2_545 . 4_565 n
PR2 SR1 O1 81.84(5) 2_545 . 1_555 n
PR2 SR1 O1 35.495(15) 2_545 . 2_545 n
PR2 SR1 O2 101.489(26) 2_545 . 1_455 n
PR2 SR1 O2 87.055(34) 2_545 . 2_545 n
PR2 SR1 O2 135.00(5) 2_545 . -3_656 n
PR2 SR1 O2 149.90(5) 2_545 . -4_456 n
PR2 SR1 PR2 108.528(4) 3_455 . 3_555 n
PR2 SR1 PR2 68.501(16) 3_455 . 4_555 n
PR2 SR1 PR2 73.467(17) 3_455 . 4_565 n
PR2 SR1 O1 106.17(4) 3_455 . 1_555 n
PR2 SR1 O1 140.607(25) 3_455 . 2_545 n
PR2 SR1 O2 84.00(4) 3_455 . 1_455 n
PR2 SR1 O2 88.90(5) 3_455 . 2_545 n
PR2 SR1 O2 37.025(30) 3_455 . -3_656 n
PR2 SR1 O2 37.935(27) 3_455 . -4_456 n
PR2 SR1 PR2 67.568(16) 3_555 . 4_555 n
PR2 SR1 PR2 72.245(18) 3_555 . 4_565 n
PR2 SR1 O1 81.84(5) 3_555 . 1_555 n
PR2 SR1 O1 35.495(15) 3_555 . 2_545 n
PR2 SR1 O2 149.90(5) 3_555 . 1_455 n
PR2 SR1 O2 135.00(5) 3_555 . 2_545 n
PR2 SR1 O2 87.055(34) 3_555 . -3_656 n
PR2 SR1 O2 101.489(26) 3_555 . -4_456 n
PR2 SR1 PR2 109.8535(33) 4_555 . 4_565 n
PR2 SR1 O1 143.982(28) 4_555 . 1_555 n
PR2 SR1 O1 78.97(4) 4_555 . 2_545 n
PR2 SR1 O2 141.46(5) 4_555 . 1_455 n
PR2 SR1 O2 82.21(4) 4_555 . 2_545 n
PR2 SR1 O2 31.517(28) 4_555 . -3_656 n
PR2 SR1 O2 98.785(31) 4_555 . -4_456 n
PR2 SR1 O1 39.480(16) 4_565 . 1_555 n
PR2 SR1 O1 98.58(4) 4_565 . 2_545 n
PR2 SR1 O2 86.09(4) 4_565 . 1_455 n
PR2 SR1 O2 152.11(6) 4_565 . 2_545 n
PR2 SR1 O2 94.475(34) 4_565 . -3_656 n
PR2 SR1 O2 39.134(24) 4_565 . -4_456 n
O1 SR1 O1 87.14(6) 1_555 . 2_545 n
O1 SR1 O2 68.25(5) 1_555 . 1_455 n
O1 SR1 O2 133.81(4) 1_555 . 2_545 n
O1 SR1 O2 133.81(4) 1_555 . -3_656 n
O1 SR1 O2 68.25(5) 1_555 . -4_456 n
O1 SR1 O2 134.76(4) 2_545 . 1_455 n
O1 SR1 O2 108.56(5) 2_545 . 2_545 n
O1 SR1 O2 108.56(5) 2_545 . -3_656 n
O1 SR1 O2 134.76(4) 2_545 . -4_456 n
O2 SR1 O2 70.40(4) 1_455 . 2_545 n
O2 SR1 O2 115.92(6) 1_455 . -3_656 n
O2 SR1 O2 71.24(5) 1_455 . -4_456 n
O2 SR1 O2 83.11(7) 2_545 . -3_656 n
O2 SR1 O2 115.92(6) 2_545 . -4_456 n
O2 SR1 O2 70.40(4) -3_656 . -4_456 n
SR1 PR2 SR1 109.8535(33) 1_555 . 1_565 n
SR1 PR2 SR1 71.777(29) 1_555 . 2_455 n
SR1 PR2 SR1 73.954(28) 1_555 . 2_555 n
SR1 PR2 SR1 106.046(28) 1_555 . 3_454 n
SR1 PR2 SR1 108.223(29) 1_555 . 3_554 n
SR1 PR2 SR1 70.1465(33) 1_555 . 4_554 n
SR1 PR2 SR1 180.0 1_555 . 4_564 n
SR1 PR2 O1 48.26(4) 1_555 . 1_555 n
SR1 PR2 O1 131.74(4) 1_555 . 4_564 n
SR1 PR2 O2 54.43(5) 1_555 . 1_455 n
SR1 PR2 O2 120.84(4) 1_555 . 2_555 n
SR1 PR2 O2 125.57(5) 1_555 . -1_665 n
SR1 PR2 O2 59.16(4) 1_555 . -2_565 n
SR1 PR2 SR1 66.951(29) 1_565 . 2_455 n
SR1 PR2 SR1 69.133(30) 1_565 . 2_555 n
SR1 PR2 SR1 110.867(30) 1_565 . 3_454 n
SR1 PR2 SR1 113.049(29) 1_565 . 3_554 n
SR1 PR2 SR1 180.0 1_565 . 4_554 n
SR1 PR2 SR1 70.1465(33) 1_565 . 4_564 n
SR1 PR2 O1 65.45(4) 1_565 . 1_555 n
SR1 PR2 O1 114.55(4) 1_565 . 4_564 n
SR1 PR2 O2 109.89(4) 1_565 . 1_455 n
SR1 PR2 O2 36.039(35) 1_565 . 2_555 n
SR1 PR2 O2 70.11(4) 1_565 . -1_665 n
SR1 PR2 O2 143.961(35) 1_565 . -2_565 n
SR1 PR2 SR1 108.528(4) 2_455 . 2_555 n
SR1 PR2 SR1 71.472(4) 2_455 . 3_454 n
SR1 PR2 SR1 179.972 2_455 . 3_554 n
SR1 PR2 SR1 113.049(29) 2_455 . 4_554 n
SR1 PR2 SR1 108.223(29) 2_455 . 4_564 n
SR1 PR2 O1 70.69(4) 2_455 . 1_555 n
SR1 PR2 O1 109.31(4) 2_455 . 4_564 n
SR1 PR2 O2 42.948(35) 2_455 . 1_455 n
SR1 PR2 O2 52.00(4) 2_455 . 2_555 n
SR1 PR2 O2 137.052(35) 2_455 . -1_665 n
SR1 PR2 O2 128.00(4) 2_455 . -2_565 n
SR1 PR2 SR1 180.0 2_555 . 3_454 n
SR1 PR2 SR1 71.472(4) 2_555 . 3_554 n
SR1 PR2 SR1 110.867(30) 2_555 . 4_554 n
SR1 PR2 SR1 106.046(28) 2_555 . 4_564 n
SR1 PR2 O1 40.32(4) 2_555 . 1_555 n
SR1 PR2 O1 139.68(4) 2_555 . 4_564 n
SR1 PR2 O2 125.29(4) 2_555 . 1_455 n
SR1 PR2 O2 105.162(33) 2_555 . 2_555 n
SR1 PR2 O2 54.71(4) 2_555 . -1_665 n
SR1 PR2 O2 74.838(33) 2_555 . -2_565 n
SR1 PR2 SR1 108.528(4) 3_454 . 3_554 n
SR1 PR2 SR1 69.133(30) 3_454 . 4_554 n
SR1 PR2 SR1 73.954(28) 3_454 . 4_564 n
SR1 PR2 O1 139.68(4) 3_454 . 1_555 n
SR1 PR2 O1 40.32(4) 3_454 . 4_564 n
SR1 PR2 O2 54.71(4) 3_454 . 1_455 n
SR1 PR2 O2 74.838(33) 3_454 . 2_555 n
SR1 PR2 O2 125.29(4) 3_454 . -1_665 n
SR1 PR2 O2 105.162(33) 3_454 . -2_565 n
SR1 PR2 SR1 66.951(29) 3_554 . 4_554 n
SR1 PR2 SR1 71.777(29) 3_554 . 4_564 n
SR1 PR2 O1 109.31(4) 3_554 . 1_555 n
SR1 PR2 O1 70.69(4) 3_554 . 4_564 n
SR1 PR2 O2 137.052(35) 3_554 . 1_455 n
SR1 PR2 O2 128.00(4) 3_554 . 2_555 n
SR1 PR2 O2 42.948(35) 3_554 . -1_665 n
SR1 PR2 O2 52.00(4) 3_554 . -2_565 n
SR1 PR2 SR1 109.8535(33) 4_554 . 4_564 n
SR1 PR2 O1 114.55(4) 4_554 . 1_555 n
SR1 PR2 O1 65.45(4) 4_554 . 4_564 n
SR1 PR2 O2 70.11(4) 4_554 . 1_455 n
SR1 PR2 O2 143.961(35) 4_554 . 2_555 n
SR1 PR2 O2 109.89(4) 4_554 . -1_665 n
SR1 PR2 O2 36.039(35) 4_554 . -2_565 n
SR1 PR2 O1 131.74(4) 4_564 . 1_555 n
SR1 PR2 O1 48.26(4) 4_564 . 4_564 n
SR1 PR2 O2 125.57(5) 4_564 . 1_455 n
SR1 PR2 O2 59.16(4) 4_564 . 2_555 n
SR1 PR2 O2 54.43(5) 4_564 . -1_665 n
SR1 PR2 O2 120.84(4) 4_564 . -2_565 n
O1 PR2 O1 179.9657 1_555 . 4_564 n
O1 PR2 O2 87.58(6) 1_555 . 1_455 n
O1 PR2 O2 92.40(5) 1_555 . 2_555 n
O1 PR2 O2 92.42(6) 1_555 . -1_665 n
O1 PR2 O2 87.60(5) 1_555 . -2_565 n
O1 PR2 O2 92.42(6) 4_564 . 1_455 n
O1 PR2 O2 87.60(5) 4_564 . 2_555 n
O1 PR2 O2 87.58(6) 4_564 . -1_665 n
O1 PR2 O2 92.40(5) 4_564 . -2_565 n
O2 PR2 O2 88.633(17) 1_455 . 2_555 n
O2 PR2 O2 179.972 1_455 . -1_665 n
O2 PR2 O2 91.367(17) 1_455 . -2_565 n
O2 PR2 O2 91.367(17) 2_555 . -1_665 n
O2 PR2 O2 180.0 2_555 . -2_565 n
O2 PR2 O2 88.633(17) -1_665 . -2_565 n
SR1 O1 SR1 117.02(8) 1_555 . 2_555 n
SR1 O1 PR2 92.26(4) 1_555 . 1_555 n
SR1 O1 PR2 92.26(4) 1_555 . 4_565 n
SR1 O1 PR2 104.19(4) 2_555 . 1_555 n
SR1 O1 PR2 104.19(4) 2_555 . 4_565 n
PR2 O1 PR2 145.34(8) 1_555 . 4_565 n
SR1 O2 SR1 102.21(5) 1_655 . 2_555 n
SR1 O2 PR2 86.44(5) 1_655 . 1_655 n
SR1 O2 PR2 90.06(5) 1_655 . 2_545 n
SR1 O2 PR2 100.03(5) 2_555 . 1_655 n
SR1 O2 PR2 112.44(5) 2_555 . 2_545 n
PR2 O2 PR2 147.33(6) 1_655 . 2_545 n
loop_
_geom_bond_atom_site_label_1
_geom_bond_atom_site_label_2
_geom_bond_distance
_geom_bond_site_symmetry_1
_geom_bond_site_symmetry_2
_geom_bond_publ_flag
SR1 SR1 4.1966(21) . 2_445 n
SR1 SR1 4.1966(21) . 2_455 n
SR1 SR1 4.3684(22) . 2_545 n
SR1 SR1 4.3684(22) . 2_555 n
SR1 SR1 4.30911(31) . 4_554 n
SR1 SR1 4.30911(31) . 4_555 n
SR1 PR2 3.9548(10) . 1_545 n
SR1 PR2 3.5184(9) . 1_555 n
SR1 PR2 3.6385(12) . 2_445 n
SR1 PR2 3.7382(12) . 2_545 n
SR1 PR2 3.6385(12) . 3_455 n
SR1 PR2 3.7382(12) . 3_555 n
SR1 PR2 3.9548(10) . 4_555 n
SR1 PR2 3.5184(9) . 4_565 n
SR1 O1 2.6273(19) . 1_555 n
SR1 O1 2.4948(22) . 2_545 n
SR1 O2 2.8673(18) . 1_455 n
SR1 O2 2.5175(15) . 2_545 n
SR1 O2 3.0518(16) . 3_455 n
SR1 O2 3.0518(16) . -2_565 n
SR1 O2 2.5175(15) . -3_656 n
SR1 O2 2.8673(18) . -4_456 n
PR2 SR1 3.5184(9) . 1_555 n
PR2 SR1 3.9548(10) . 1_565 n
PR2 SR1 3.6385(12) . 2_455 n
PR2 SR1 3.7382(12) . 2_555 n
PR2 SR1 3.7382(12) . 3_454 n
PR2 SR1 3.6385(12) . 3_554 n
PR2 SR1 3.9548(10) . 4_554 n
PR2 SR1 3.5184(9) . 4_564 n
PR2 O1 2.2388(5) . 1_555 n
PR2 O1 2.2388(5) . 4_564 n
PR2 O2 2.2249(10) . 1_455 n
PR2 O2 2.2368(11) . 2_555 n
PR2 O2 2.2249(10) . -1_665 n
PR2 O2 2.2368(11) . -2_565 n
O1 SR1 2.6273(19) . 1_555 n
O1 SR1 2.4948(22) . 2_555 n
O1 PR2 2.2388(5) . 1_555 n
O1 PR2 2.2388(5) . 4_565 n
O2 SR1 2.8673(18) . 1_655 n
O2 SR1 2.5175(15) . 2_555 n
O2 SR1 3.0518(16) . 3_554 n
O2 PR2 2.2249(10) . 1_655 n
O2 PR2 2.2368(11) . 2_545 n
loop_
_pd_meas_intensity_total
_pd_proc_ls_weight
_pd_proc_intensity_bkg_calc
_pd_calc_intensity_total
99(5) 0.0 80.4 .
97(5) 0.0400 79.8 79.8
93(5) 0.0400 79.3 79.3
87(5) 0.0400 78.7 78.7
89(5) 0.0400 78.1 78.1
89(5) 0.0400 77.6 77.6
89(5) 0.0400 77.0 77.0
82(5) 0.0400 76.5 76.5
78(5) 0.0400 76.0 76.0
78(5) 0.0400 75.4 75.4
79(5) 0.0400 74.9 74.9
77(5) 0.0400 74.4 74.4
71(4) 0.0625 73.9 73.9
81(5) 0.0400 73.4 73.4
79(5) 0.0400 73.0 73.0
62(4) 0.0625 72.5 72.5
73(4) 0.0625 72.0 72.0
70(4) 0.0625 71.6 71.6
75(4) 0.0625 71.1 71.1
62(4) 0.0625 70.7 70.7
70(4) 0.0625 70.3 70.3
74(4) 0.0625 69.8 69.8
70(4) 0.0625 69.4 69.4
68(4) 0.0625 69.0 69.0
64(4) 0.0625 68.6 68.6
71(4) 0.0625 68.2 68.2
73(4) 0.0625 67.8 67.8
67(4) 0.0625 67.4 67.4
65(4) 0.0625 67.0 67.0
62(4) 0.0625 66.6 66.6
59(4) 0.0625 66.3 66.3
68(4) 0.0625 65.9 65.9
66(4) 0.0625 65.5 65.5
61(4) 0.0625 65.2 65.2
63(4) 0.0625 64.8 64.8
54(4) 0.0625 64.5 64.5
59(4) 0.0625 64.2 64.2
64(4) 0.0625 63.8 63.8
60(4) 0.0625 63.5 63.5
58(4) 0.0625 63.2 63.2
67(4) 0.0625 62.9 62.9
63(4) 0.0625 62.6 62.6
57(4) 0.0625 62.3 62.3
62(4) 0.0625 62.0 62.0
60(4) 0.0625 61.7 61.7
59(4) 0.0625 61.4 61.4
62(4) 0.0625 61.1 61.1
61(4) 0.0625 60.8 60.8
57(4) 0.0625 60.6 60.6
60(4) 0.0625 60.3 60.3
51(4) 0.0625 60.0 60.0
58(4) 0.0625 59.8 59.8
53(4) 0.0625 59.5 59.5
60(4) 0.0625 59.3 59.3
55(4) 0.0625 59.0 59.0
57(4) 0.0625 58.8 58.8
56(4) 0.0625 58.6 58.6
51(4) 0.0625 58.3 58.3
47(4) 0.0625 58.1 58.1
61(4) 0.0625 57.9 57.9
56(4) 0.0625 57.6 57.6
51(4) 0.0625 57.4 57.4
63(4) 0.0625 57.2 57.2
61(4) 0.0625 57.0 57.0
61(4) 0.0625 56.8 56.8
56(4) 0.0625 56.6 56.6
60(4) 0.0625 56.4 56.4
54(4) 0.0625 56.2 56.2
61(4) 0.0625 56.0 56.0
55(4) 0.0625 55.8 55.8
52(4) 0.0625 55.6 55.6
58(4) 0.0625 55.5 55.5
57(4) 0.0625 55.3 55.3
47(4) 0.0625 55.1 55.1
56(4) 0.0625 54.9 54.9
58(4) 0.0625 54.8 54.8
50(4) 0.0625 54.6 54.6
53(4) 0.0625 54.4 54.4
48(4) 0.0625 54.3 54.3
54(4) 0.0625 54.1 54.1
50(4) 0.0625 54.0 54.0
58(4) 0.0625 53.8 53.8
57(4) 0.0625 53.7 53.7
53(4) 0.0625 53.5 53.5
54(4) 0.0625 53.4 53.4
57(4) 0.0625 53.2 53.2
59(4) 0.0625 53.1 53.1
47(4) 0.0625 53.0 53.0
49(4) 0.0625 52.8 52.8
53(4) 0.0625 52.7 52.7
53(4) 0.0625 52.6 52.6
52(4) 0.0625 52.4 52.4
49(4) 0.0625 52.3 52.3
55(4) 0.0625 52.2 52.2
52(4) 0.0625 52.1 52.1
53(4) 0.0625 52.0 52.0
46.0(30) 0.1111 51.84 51.84
51(4) 0.0625 51.7 51.7
47(4) 0.0625 51.6 51.6
50(4) 0.0625 51.5 51.5
50.0(20) 0.2500 51.40 51.40
47.0(20) 0.2500 51.30 51.30
47.0(20) 0.2500 51.19 51.19
52.0(30) 0.1111 51.09 51.09
50.0(20) 0.2500 50.99 50.99
50.0(20) 0.2500 50.90 50.90
56.0(30) 0.1111 50.80 50.80
55.0(30) 0.1111 50.71 50.71
55.0(30) 0.1111 50.62 50.62
51.0(20) 0.2500 50.53 50.53
48.0(20) 0.2500 50.44 50.44
55.0(30) 0.1111 50.35 50.35
53.0(30) 0.1111 50.26 50.26
48.0(20) 0.2500 50.18 50.18
49.0(20) 0.2500 50.10 50.10
54.0(30) 0.1111 50.02 50.02
50.0(20) 0.2500 49.94 49.94
51.0(30) 0.1111 49.86 49.86
50.0(20) 0.2500 49.78 49.78
53.0(30) 0.1111 49.71 49.71
48.0(20) 0.2500 49.64 49.64
48.0(20) 0.2500 49.56 49.56
51.0(30) 0.1111 49.49 49.49
52.0(30) 0.1111 49.42 49.42
49.0(20) 0.2500 49.35 49.35
49.0(20) 0.2500 49.29 49.29
49.0(20) 0.2500 49.22 49.22
48.0(20) 0.2500 49.16 49.16
50.0(20) 0.2500 49.09 49.09
50.0(20) 0.2500 49.03 49.03
50.0(20) 0.2500 48.97 48.97
51.0(30) 0.1111 48.91 48.91
50.0(20) 0.2500 48.85 48.85
50.0(20) 0.2500 48.79 48.79
49.0(20) 0.2500 48.73 48.73
50.0(20) 0.2500 48.68 48.68
48.0(20) 0.2500 48.62 48.62
48.0(20) 0.2500 48.57 48.57
52.0(30) 0.1111 48.51 48.51
49.0(20) 0.2500 48.46 48.46
48.0(20) 0.2500 48.41 48.41
50.0(20) 0.2500 48.36 48.36
47.0(20) 0.2500 48.31 48.31
46.0(20) 0.2500 48.26 48.26
50.0(20) 0.2500 48.21 48.21
50.0(20) 0.2500 48.16 48.16
51.0(20) 0.2500 48.12 48.12
52.0(30) 0.1111 48.07 48.07
47.0(20) 0.2500 48.03 48.03
51.0(20) 0.2500 47.98 47.98
50.0(20) 0.2500 47.94 47.94
46.0(20) 0.2500 47.89 47.89
46.0(20) 0.2500 47.85 47.85
49.0(20) 0.2500 47.81 47.81
50.0(20) 0.2500 47.77 47.77
49.0(20) 0.2500 47.73 47.73
47.0(20) 0.2500 47.69 47.69
50.0(20) 0.2500 47.65 47.65
45.0(20) 0.2500 47.61 47.61
51.0(20) 0.2500 47.57 47.57
46.0(20) 0.2500 47.54 47.54
49.0(20) 0.2500 47.50 47.50
44.0(20) 0.2500 47.46 47.46
45.0(20) 0.2500 47.43 47.43
46.0(20) 0.2500 47.39 47.39
47.0(20) 0.2500 47.35 47.35
46.0(20) 0.2500 47.32 47.32
46.0(20) 0.2500 47.29 47.29
51.0(30) 0.1111 47.25 47.25
48.0(20) 0.2500 47.22 47.22
46.0(20) 0.2500 47.19 47.19
46.0(20) 0.2500 47.15 47.15
50.0(20) 0.2500 47.12 47.12
46.0(20) 0.2500 47.09 47.09
45.0(20) 0.2500 47.06 47.06
44.0(20) 0.2500 47.03 47.03
47.0(20) 0.2500 47.00 47.00
49.0(20) 0.2500 46.97 46.97
46.0(20) 0.2500 46.94 46.94
49.0(20) 0.2500 46.91 46.91
49.0(20) 0.2500 46.88 46.88
46.0(20) 0.2500 46.85 46.85
45.0(20) 0.2500 46.82 46.82
47.0(20) 0.2500 46.79 46.79
50.0(20) 0.2500 46.76 46.76
49.0(20) 0.2500 46.73 46.73
45.0(20) 0.2500 46.71 46.71
46.0(20) 0.2500 46.68 46.68
46.0(20) 0.2500 46.65 46.65
44.0(20) 0.2500 46.62 46.62
46.0(20) 0.2500 46.60 46.60
51.0(20) 0.2500 46.57 46.57
48.0(20) 0.2500 46.54 46.54
42.0(20) 0.2500 46.52 46.52
47.0(20) 0.2500 46.49 46.49
47.0(20) 0.2500 46.47 46.47
45.0(20) 0.2500 46.44 46.44
47.0(20) 0.2500 46.41 46.41
47.0(20) 0.2500 46.39 46.39
44.0(20) 0.2500 46.36 46.36
48.0(20) 0.2500 46.34 46.34
46.0(20) 0.2500 46.31 46.31
48.0(20) 0.2500 46.29 46.29
46.0(20) 0.2500 46.26 46.26
47.0(20) 0.2500 46.24 46.24
45.0(20) 0.2500 46.22 46.22
47.0(20) 0.2500 46.19 46.19
46.0(20) 0.2500 46.17 46.17
45.0(20) 0.2500 46.14 46.14
51.0(30) 0.1111 46.12 46.12
44.0(20) 0.2500 46.09 46.09
47.0(20) 0.2500 46.07 46.07
47.0(20) 0.2500 46.05 46.05
46.0(20) 0.2500 46.02 46.02
47.0(20) 0.2500 46.00 46.00
50.0(20) 0.2500 45.98 45.98
50.0(20) 0.2500 45.95 45.95
47.0(20) 0.2500 45.93 45.93
46.0(20) 0.2500 45.91 45.91
48.0(20) 0.2500 45.88 45.88
45.0(20) 0.2500 45.86 45.86
47.0(20) 0.2500 45.84 45.84
50.0(20) 0.2500 45.81 45.81
46.0(20) 0.2500 45.79 45.79
45.0(20) 0.2500 45.77 45.77
48.0(20) 0.2500 45.74 45.74
47.0(20) 0.2500 45.72 45.72
50.0(20) 0.2500 45.70 45.70
45.0(20) 0.2500 45.67 45.67
43.0(20) 0.2500 45.65 45.65
46.0(20) 0.2500 45.63 45.63
49.0(20) 0.2500 45.60 45.60
46.0(20) 0.2500 45.58 45.58
46.0(20) 0.2500 45.56 45.56
45.0(20) 0.2500 45.53 45.53
47.0(20) 0.2500 45.51 45.51
47.0(20) 0.2500 45.49 45.49
46.0(20) 0.2500 45.47 45.47
46.0(20) 0.2500 45.44 45.44
46.0(20) 0.2500 45.42 45.42
45.0(20) 0.2500 45.40 45.40
44.0(20) 0.2500 45.37 45.37
46.0(20) 0.2500 45.35 45.35
46.0(20) 0.2500 45.33 45.33
44.0(20) 0.2500 45.30 45.30
47.0(20) 0.2500 45.28 45.28
45.0(20) 0.2500 45.26 45.26
45.0(20) 0.2500 45.24 45.24
44.0(20) 0.2500 45.21 45.21
44.0(20) 0.2500 45.19 45.19
44.0(20) 0.2500 45.17 45.17
44.0(20) 0.2500 45.14 45.14
45.0(20) 0.2500 45.12 45.12
46.0(20) 0.2500 45.10 45.10
46.0(20) 0.2500 45.07 45.07
47.0(20) 0.2500 45.05 45.05
46.0(20) 0.2500 45.03 45.03
43.0(20) 0.2500 45.00 45.00
44.0(20) 0.2500 44.98 44.98
43.0(20) 0.2500 44.96 44.96
45.0(20) 0.2500 44.93 44.93
48.0(20) 0.2500 44.91 44.91
48.0(20) 0.2500 44.89 44.89
45.0(20) 0.2500 44.86 44.86
44.0(20) 0.2500 44.84 44.84
44.0(20) 0.2500 44.81 44.81
43.0(20) 0.2500 44.79 44.79
44.0(20) 0.2500 44.77 44.77
42.0(20) 0.2500 44.74 44.74
44.0(20) 0.2500 44.72 44.72
45.0(20) 0.2500 44.70 44.70
45.0(20) 0.2500 44.67 44.67
47.0(20) 0.2500 44.65 44.65
43.0(20) 0.2500 44.63 44.63
44.0(20) 0.2500 44.60 44.60
43.0(20) 0.2500 44.58 44.58
45.0(20) 0.2500 44.55 44.55
45.0(20) 0.2500 44.53 44.53
49.0(20) 0.2500 44.51 44.51
49.0(20) 0.2500 44.48 44.48
46.0(20) 0.2500 44.46 44.46
46.0(20) 0.2500 44.43 44.43
48.0(20) 0.2500 44.41 44.41
47.0(20) 0.2500 44.39 44.39
44.0(20) 0.2500 44.36 44.36
44.0(20) 0.2500 44.34 44.34
43.0(20) 0.2500 44.31 44.31
42.0(20) 0.2500 44.29 44.29
44.0(20) 0.2500 44.27 44.27
43.0(20) 0.2500 44.24 44.24
42.0(20) 0.2500 44.22 44.22
44.0(20) 0.2500 44.19 44.19
46.0(20) 0.2500 44.17 44.17
42.0(20) 0.2500 44.14 44.16
41.0(20) 0.2500 44.12 44.18
45.0(20) 0.2500 44.10 44.24
46.0(20) 0.2500 44.07 44.39
46.0(20) 0.2500 44.05 44.65
44.0(20) 0.2500 44.02 44.98
45.0(20) 0.2500 44.00 45.31
48(4) 0.0625 44.0 45.5
44.0(20) 0.2500 43.95 45.52
44.0(20) 0.2500 43.93 45.29
47.0(20) 0.2500 43.90 44.92
42.0(20) 0.2500 43.88 44.53
44.0(20) 0.2500 43.85 44.21
43.0(20) 0.2500 43.83 44.00
44.0(20) 0.2500 43.80 43.87
45.0(20) 0.2500 43.78 43.80
43.0(20) 0.2500 43.75 43.76
43.0(20) 0.2500 43.73 43.73
41.0(20) 0.2500 43.71 43.71
44.0(20) 0.2500 43.68 43.68
44.0(20) 0.2500 43.66 43.66
44.0(20) 0.2500 43.63 43.63
43.0(20) 0.2500 43.61 43.61
45.0(20) 0.2500 43.58 43.58
42.0(20) 0.2500 43.56 43.56
51.0(30) 0.1111 43.54 43.54
44.0(20) 0.2500 43.51 43.51
44.0(20) 0.2500 43.49 43.49
43.0(20) 0.2500 43.46 43.46
45.0(20) 0.2500 43.44 43.44
45.0(20) 0.2500 43.41 43.41
42.0(20) 0.2500 43.39 43.39
40.0(20) 0.2500 43.37 43.37
41.0(20) 0.2500 43.34 43.34
44.0(20) 0.2500 43.32 43.32
44.0(20) 0.2500 43.29 43.29
42.0(20) 0.2500 43.27 43.27
42.0(20) 0.2500 43.25 43.25
43.0(20) 0.2500 43.22 43.22
42.0(20) 0.2500 43.20 43.20
43.0(20) 0.2500 43.17 43.17
43.0(20) 0.2500 43.15 43.15
42.0(20) 0.2500 43.13 43.13
40.0(20) 0.2500 43.10 43.10
44.0(20) 0.2500 43.08 43.08
40.0(20) 0.2500 43.05 43.05
45.0(20) 0.2500 43.03 43.03
42.0(20) 0.2500 43.01 43.01
43.0(20) 0.2500 42.98 42.98
43.0(20) 0.2500 42.96 42.96
40.0(20) 0.2500 42.93 42.94
40.0(20) 0.2500 42.91 42.91
44.0(20) 0.2500 42.89 42.90
42.0(20) 0.2500 42.86 42.91
43.0(20) 0.2500 42.84 43.00
45.0(20) 0.2500 42.82 43.24
41.0(20) 0.2500 42.79 43.79
46.0(20) 0.2500 42.77 44.79
47.0(20) 0.2500 42.75 46.22
46.0(20) 0.2500 42.72 47.83
52.0(30) 0.1111 42.70 49.12
46.0(20) 0.2500 42.68 49.57
44.0(20) 0.2500 42.66 48.98
47.0(20) 0.2500 42.63 47.59
49.0(30) 0.1111 42.61 45.93
46.0(20) 0.2500 42.59 44.48
41.0(20) 0.2500 42.56 43.49
46.0(20) 0.2500 42.54 42.93
39.0(20) 0.2500 42.52 42.66
43.0(20) 0.2500 42.50 42.54
45.0(20) 0.2500 42.47 42.48
48.0(20) 0.2500 42.45 42.45
37.0(20) 0.2500 42.43 42.43
40.0(20) 0.2500 42.41 42.41
40.0(20) 0.2500 42.38 42.38
42.0(20) 0.2500 42.36 42.36
41.0(20) 0.2500 42.34 42.34
41.0(20) 0.2500 42.32 42.32
41.0(20) 0.2500 42.30 42.30
40.0(20) 0.2500 42.27 42.27
43.0(20) 0.2500 42.25 42.25
41.0(20) 0.2500 42.23 42.23
41.0(20) 0.2500 42.21 42.21
43.0(20) 0.2500 42.19 42.19
42.0(20) 0.2500 42.17 42.17
44.0(20) 0.2500 42.15 42.15
43.0(20) 0.2500 42.12 42.12
43.0(20) 0.2500 42.10 42.10
42.0(20) 0.2500 42.08 42.08
41.0(20) 0.2500 42.06 42.06
43.0(20) 0.2500 42.04 42.04
40.0(20) 0.2500 42.02 42.02
38.0(20) 0.2500 42.00 42.00
41.0(20) 0.2500 41.98 41.98
44.0(20) 0.2500 41.96 41.96
40.0(20) 0.2500 41.94 41.94
38.0(20) 0.2500 41.92 41.92
41.0(20) 0.2500 41.90 41.90
41.0(20) 0.2500 41.88 41.88
40.0(20) 0.2500 41.86 41.86
42.0(20) 0.2500 41.84 41.84
45.0(20) 0.2500 41.82 41.83
43.0(20) 0.2500 41.80 41.84
46.0(20) 0.2500 41.78 41.93
41.0(20) 0.2500 41.76 42.24
46.0(20) 0.2500 41.74 43.04
47.0(20) 0.2500 41.72 44.72
50.0(20) 0.2500 41.70 47.57
51.0(20) 0.2500 41.68 51.45
54.0(30) 0.1111 41.66 55.44
57.0(30) 0.1111 41.64 58.14
61.0(30) 0.1111 41.63 58.39
58.0(30) 0.1111 41.61 56.06
53.0(20) 0.2500 41.59 52.15
48.0(20) 0.2500 41.57 48.12
45.0(20) 0.2500 41.55 44.99
44.0(20) 0.2500 41.53 43.07
45.0(20) 0.2500 41.52 42.09
42.0(20) 0.2500 41.50 41.68
43.0(20) 0.2500 41.48 41.53
45.0(20) 0.2500 41.46 41.47
42.0(20) 0.2500 41.44 41.45
44.0(20) 0.2500 41.43 41.43
41.0(20) 0.2500 41.41 41.41
43.0(20) 0.2500 41.39 41.39
36.0(20) 0.2500 41.38 41.38
34.0(20) 0.2500 41.36 41.36
38.0(20) 0.2500 41.34 41.34
39.0(20) 0.2500 41.33 41.33
40.0(20) 0.2500 41.31 41.31
39.0(20) 0.2500 41.29 41.29
41.0(20) 0.2500 41.28 41.28
41.0(20) 0.2500 41.26 41.26
38.0(20) 0.2500 41.24 41.24
43.0(20) 0.2500 41.23 41.23
40.0(20) 0.2500 41.21 41.21
42.0(20) 0.2500 41.20 41.20
41.0(20) 0.2500 41.18 41.18
40.0(20) 0.2500 41.16 41.16
42.0(20) 0.2500 41.15 41.15
40.0(20) 0.2500 41.13 41.13
39.0(20) 0.2500 41.12 41.12
43.0(20) 0.2500 41.10 41.10
39.0(20) 0.2500 41.09 41.09
40.0(20) 0.2500 41.07 41.07
44.0(20) 0.2500 41.06 41.06
41.0(20) 0.2500 41.04 41.04
42.0(20) 0.2500 41.03 41.03
44.0(20) 0.2500 41.02 41.02
44.0(20) 0.2500 41.00 41.00
42.0(20) 0.2500 40.99 40.99
44.0(20) 0.2500 40.97 40.97
44.0(20) 0.2500 40.96 40.96
43.0(20) 0.2500 40.95 40.95
46.0(20) 0.2500 40.93 40.93
43.0(20) 0.2500 40.92 40.92
45.0(20) 0.2500 40.91 40.91
44.0(20) 0.2500 40.89 40.89
44.0(20) 0.2500 40.88 40.88
44.0(20) 0.2500 40.87 40.87
43.0(20) 0.2500 40.86 40.86
41.0(20) 0.2500 40.84 40.84
42.0(20) 0.2500 40.83 40.83
40.0(20) 0.2500 40.82 40.82
38.0(20) 0.2500 40.81 40.81
42.0(20) 0.2500 40.79 40.79
40.0(20) 0.2500 40.78 40.78
37.0(20) 0.2500 40.77 40.77
39.0(20) 0.2500 40.76 40.76
40.0(20) 0.2500 40.75 40.75
38.0(20) 0.2500 40.74 40.74
39.0(20) 0.2500 40.72 40.72
39.0(20) 0.2500 40.71 40.71
39.0(20) 0.2500 40.70 40.70
42.0(20) 0.2500 40.69 40.69
41.0(20) 0.2500 40.68 40.68
41.0(20) 0.2500 40.67 40.67
38.0(20) 0.2500 40.66 40.66
39.0(20) 0.2500 40.65 40.65
39.0(20) 0.2500 40.64 40.64
38.0(20) 0.2500 40.63 40.63
41.0(20) 0.2500 40.62 40.62
42.0(20) 0.2500 40.61 40.61
38.0(20) 0.2500 40.60 40.60
41.0(20) 0.2500 40.59 40.59
41.0(20) 0.2500 40.58 40.58
42.0(20) 0.2500 40.57 40.57
39.0(20) 0.2500 40.56 40.56
37.0(20) 0.2500 40.55 40.55
40.0(20) 0.2500 40.54 40.54
39.0(20) 0.2500 40.53 40.53
41.0(20) 0.2500 40.52 40.52
41.0(20) 0.2500 40.52 40.52
41.0(20) 0.2500 40.51 40.51
39.0(20) 0.2500 40.50 40.50
39.0(20) 0.2500 40.49 40.49
40.0(20) 0.2500 40.48 40.48
37.0(20) 0.2500 40.47 40.47
40.0(20) 0.2500 40.47 40.47
41.0(20) 0.2500 40.46 40.46
41.0(20) 0.2500 40.45 40.45
40.0(20) 0.2500 40.44 40.44
42.0(20) 0.2500 40.44 40.44
41.0(20) 0.2500 40.43 40.43
42.0(20) 0.2500 40.42 40.42
42.0(20) 0.2500 40.41 40.41
45.0(20) 0.2500 40.41 40.41
40.0(20) 0.2500 40.40 40.40
41.0(20) 0.2500 40.39 40.39
40.0(20) 0.2500 40.39 40.39
40.0(20) 0.2500 40.38 40.38
37.0(20) 0.2500 40.37 40.37
39.0(20) 0.2500 40.37 40.37
39.0(20) 0.2500 40.36 40.36
42.0(20) 0.2500 40.36 40.36
40.0(20) 0.2500 40.35 40.35
40.0(20) 0.2500 40.34 40.34
39.0(20) 0.2500 40.34 40.34
40.0(20) 0.2500 40.33 40.33
42.0(20) 0.2500 40.33 40.33
43.0(20) 0.2500 40.32 40.34
43.0(20) 0.2500 40.32 40.38
43.0(20) 0.2500 40.31 40.56
42.0(20) 0.2500 40.31 41.13
42.0(20) 0.2500 40.30 42.59
45.0(20) 0.2500 40.30 45.61
49.0(20) 0.2500 40.29 50.63
57.0(30) 0.1111 40.29 57.19
63.0(30) 0.1111 40.28 63.54
70.0(30) 0.1111 40.28 67.48
70.0(30) 0.1111 40.27 68.29
69.0(30) 0.1111 40.27 68.21
72.0(30) 0.1111 40.27 71.96
79.0(30) 0.1111 40.26 83.81
94.0(30) 0.1111 40.26 103.67
115(4) 0.0625 40.3 125.3
132(4) 0.0625 40.2 138.6
133(4) 0.0625 40.2 136.7
116(4) 0.0625 40.2 120.2
99.0(30) 0.1111 40.24 97.10
73.0(30) 0.1111 40.24 76.32
59.0(30) 0.1111 40.23 62.51
54.0(20) 0.2500 40.23 55.15
53.0(20) 0.2500 40.23 51.26
47.0(20) 0.2500 40.22 48.41
43.0(20) 0.2500 40.22 45.73
42.0(20) 0.2500 40.22 43.42
42.0(20) 0.2500 40.21 41.78
41.0(20) 0.2500 40.21 40.86
42.0(20) 0.2500 40.21 40.43
42.0(20) 0.2500 40.21 40.27
42.0(20) 0.2500 40.20 40.22
42.0(20) 0.2500 40.20 40.21
40.0(20) 0.2500 40.20 40.20
39.0(20) 0.2500 40.20 40.20
37.0(20) 0.2500 40.20 40.20
39.0(20) 0.2500 40.19 40.19
42.0(20) 0.2500 40.19 40.19
38.0(20) 0.2500 40.19 40.20
41.0(20) 0.2500 40.19 40.21
40.0(20) 0.2500 40.19 40.27
39.0(20) 0.2500 40.19 40.41
41.0(20) 0.2500 40.18 40.74
41.0(20) 0.2500 40.18 41.30
44.0(20) 0.2500 40.18 42.06
44.0(20) 0.2500 40.18 42.83
43.0(20) 0.2500 40.18 43.29
44.0(20) 0.2500 40.18 43.23
44.0(20) 0.2500 40.18 42.68
42.0(20) 0.2500 40.18 41.88
39.0(20) 0.2500 40.17 41.15
40.0(20) 0.2500 40.17 40.64
39.0(20) 0.2500 40.17 40.36
37.0(20) 0.2500 40.17 40.23
40.0(20) 0.2500 40.17 40.19
40.0(20) 0.2500 40.17 40.17
38.0(20) 0.2500 40.17 40.17
38.0(20) 0.2500 40.17 40.17
37.0(20) 0.2500 40.17 40.17
38.0(20) 0.2500 40.17 40.17
38.0(20) 0.2500 40.17 40.17
42.0(20) 0.2500 40.17 40.17
40.0(20) 0.2500 40.17 40.17
41.0(20) 0.2500 40.17 40.17
43.0(20) 0.2500 40.17 40.17
42.0(20) 0.2500 40.17 40.17
38.0(20) 0.2500 40.17 40.17
42.0(20) 0.2500 40.17 40.17
44.0(20) 0.2500 40.17 40.17
42.0(20) 0.2500 40.17 40.17
44.0(20) 0.2500 40.17 40.17
39.0(20) 0.2500 40.17 40.17
37.0(20) 0.2500 40.17 40.17
39.0(20) 0.2500 40.17 40.17
39.0(20) 0.2500 40.17 40.18
40.0(20) 0.2500 40.17 40.24
37.0(20) 0.2500 40.17 40.44
39.0(20) 0.2500 40.17 41.04
44.0(20) 0.2500 40.17 42.53
43.0(20) 0.2500 40.17 45.51
48.0(20) 0.2500 40.17 50.21
53.0(20) 0.2500 40.17 55.86
61.0(30) 0.1111 40.17 60.58
62.0(30) 0.1111 40.18 62.27
61.0(30) 0.1111 40.18 60.22
54.0(20) 0.2500 40.18 55.82
53.0(20) 0.2500 40.18 52.07
56.0(20) 0.2500 40.18 52.21
59.0(30) 0.1111 40.18 58.66
71.0(30) 0.1111 40.18 71.82
88.0(30) 0.1111 40.18 88.70
102.0(30) 0.1111 40.18 102.98
110(4) 0.0625 40.2 107.9
100.0(30) 0.1111 40.19 100.90
85.0(30) 0.1111 40.19 85.42
69.0(30) 0.1111 40.19 68.18
53.0(20) 0.2500 40.19 54.57
45.0(20) 0.2500 40.19 46.33
41.0(20) 0.2500 40.19 42.37
41.0(20) 0.2500 40.19 40.83
38.0(20) 0.2500 40.19 40.35
39.0(20) 0.2500 40.19 40.23
43.0(20) 0.2500 40.20 40.20
42.0(20) 0.2500 40.20 40.20
42.0(20) 0.2500 40.20 40.20
40.0(20) 0.2500 40.20 40.20
43.0(20) 0.2500 40.20 40.20
41.0(20) 0.2500 40.20 40.22
40.0(20) 0.2500 40.20 40.29
45.0(20) 0.2500 40.21 40.59
42.0(20) 0.2500 40.21 41.64
46.0(20) 0.2500 40.21 44.62
52.0(20) 0.2500 40.21 51.43
62.0(30) 0.1111 40.21 63.87
78.0(30) 0.1111 40.21 81.59
102.0(30) 0.1111 40.21 100.63
122(4) 0.0625 40.2 114.0
128(4) 0.0625 40.2 118.1
129(4) 0.0625 40.2 116.7
124(4) 0.0625 40.2 121.7
140(4) 0.0625 40.2 145.0
177(4) 0.0625 40.2 188.6
226(5) 0.0400 40.2 240.0
270(6) 0.02778 40.2 278.2
288(6) 0.02778 40.2 285.4
259(5) 0.0400 40.2 257.8
213(5) 0.0400 40.2 206.8
152(4) 0.0625 40.2 149.9
101.0(30) 0.1111 40.23 102.11
70.0(30) 0.1111 40.23 70.03
55.0(20) 0.2500 40.24 52.40
45.0(20) 0.2500 40.24 44.03
43.0(20) 0.2500 40.24 41.37
41.0(20) 0.2500 40.24 40.24
43.0(20) 0.2500 40.24 40.24
44.0(20) 0.2500 40.24 40.24
42.0(20) 0.2500 40.24 40.24
48.0(20) 0.2500 40.25 40.25
44.0(20) 0.2500 40.25 40.25
41.0(20) 0.2500 40.25 40.45
44.0(20) 0.2500 40.25 41.18
51.0(20) 0.2500 40.25 43.73
59.0(30) 0.1111 40.25 51.09
75.0(30) 0.1111 40.25 68.11
99.0(30) 0.1111 40.25 99.47
136(4) 0.0625 40.3 144.3
182(5) 0.0400 40.3 191.4
218(5) 0.0400 40.3 221.8
225(5) 0.0400 40.3 220.4
199(5) 0.0400 40.3 188.1
146(4) 0.0625 40.3 140.6
99.0(30) 0.1111 40.26 96.93
72.0(30) 0.1111 40.26 68.31
60.0(30) 0.1111 40.26 56.73
61.0(30) 0.1111 40.27 60.39
78.0(30) 0.1111 40.27 76.74
103.0(30) 0.1111 40.27 104.93
134(4) 0.0625 40.3 134.9
155(4) 0.0625 40.3 154.7
158(4) 0.0625 40.3 154.6
135(4) 0.0625 40.3 134.5
103.0(30) 0.1111 40.27 104.37
77.0(30) 0.1111 40.27 76.28
57.0(20) 0.2500 40.27 56.97
46.0(20) 0.2500 40.27 46.66
45.0(20) 0.2500 40.27 42.29
42.0(20) 0.2500 40.27 40.80
40.0(20) 0.2500 40.28 40.28
40.0(20) 0.2500 40.28 40.28
37.0(20) 0.2500 40.28 40.28
38.0(20) 0.2500 40.28 40.28
38.0(20) 0.2500 40.28 40.28
39.0(20) 0.2500 40.28 40.28
44.0(20) 0.2500 40.28 40.28
43.0(20) 0.2500 40.28 40.28
37.0(20) 0.2500 40.28 40.28
42.0(20) 0.2500 40.28 40.38
45.0(20) 0.2500 40.28 40.71
45.0(20) 0.2500 40.28 41.85
47.0(20) 0.2500 40.28 45.00
51.0(20) 0.2500 40.28 51.96
61.0(30) 0.1111 40.28 64.12
73.0(30) 0.1111 40.28 80.37
93.0(30) 0.1111 40.28 95.83
102.0(30) 0.1111 40.28 103.68
100.0(30) 0.1111 40.28 99.89
88.0(30) 0.1111 40.28 86.44
65.0(20) 0.2500 40.28 69.73
54.0(20) 0.2500 40.28 55.75
45.0(20) 0.2500 40.28 46.97
43.0(20) 0.2500 40.28 42.66
40.0(20) 0.2500 40.28 40.98
39.0(20) 0.2500 40.27 40.27
38.0(20) 0.2500 40.27 40.27
38.0(20) 0.2500 40.27 40.27
40.0(20) 0.2500 40.27 40.27
42.0(20) 0.2500 40.27 40.27
42.0(20) 0.2500 40.27 40.27
42.0(20) 0.2500 40.27 40.27
39.0(20) 0.2500 40.27 40.27
41.0(20) 0.2500 40.27 40.27
42.0(20) 0.2500 40.27 40.27
43.0(20) 0.2500 40.27 40.57
43.0(20) 0.2500 40.26 41.47
45.0(20) 0.2500 40.26 44.24
53.0(20) 0.2500 40.26 51.03
65.0(30) 0.1111 40.26 64.25
86.0(30) 0.1111 40.26 84.19
103.0(30) 0.1111 40.26 106.41
125(4) 0.0625 40.3 122.2
125(4) 0.0625 40.3 123.7
110.0(30) 0.1111 40.25 110.43
96.0(30) 0.1111 40.25 89.70
67.0(30) 0.1111 40.25 71.31
58.0(20) 0.2500 40.25 61.28
58.0(20) 0.2500 40.24 59.77
64.0(20) 0.2500 40.24 62.80
71.0(30) 0.1111 40.24 65.36
67.0(30) 0.1111 40.24 64.10
64.0(20) 0.2500 40.24 59.14
57.0(20) 0.2500 40.23 52.54
50.0(20) 0.2500 40.23 46.81
43.0(20) 0.2500 40.23 43.12
42.0(20) 0.2500 40.23 41.27
38.0(20) 0.2500 40.22 40.53
40.0(20) 0.2500 40.22 40.22
41.0(20) 0.2500 40.22 40.22
40.0(20) 0.2500 40.22 40.22
38.0(20) 0.2500 40.21 40.21
39.0(20) 0.2500 40.21 40.21
40.0(20) 0.2500 40.21 40.21
41.0(20) 0.2500 40.20 40.20
39.0(20) 0.2500 40.20 40.20
37.0(20) 0.2500 40.20 40.20
38.0(20) 0.2500 40.19 40.19
39.0(20) 0.2500 40.19 40.19
38.0(20) 0.2500 40.19 40.19
38.0(20) 0.2500 40.18 40.18
38.0(20) 0.2500 40.18 40.18
40.0(20) 0.2500 40.18 40.18
38.0(20) 0.2500 40.17 40.17
34.0(20) 0.2500 40.17 40.17
36.0(20) 0.2500 40.17 40.17
38.0(20) 0.2500 40.16 40.16
38.0(20) 0.2500 40.16 40.16
36.0(20) 0.2500 40.15 40.15
38.0(20) 0.2500 40.15 40.15
40.0(20) 0.2500 40.14 40.14
39.0(20) 0.2500 40.14 40.14
36.0(20) 0.2500 40.14 40.14
38.0(20) 0.2500 40.13 40.13
39.0(20) 0.2500 40.13 40.13
40.0(20) 0.2500 40.12 40.12
41.0(20) 0.2500 40.12 40.12
38.0(20) 0.2500 40.11 40.11
39.0(20) 0.2500 40.11 40.11
40.0(20) 0.2500 40.10 40.10
37.0(20) 0.2500 40.10 40.10
40.0(20) 0.2500 40.09 40.09
38.0(20) 0.2500 40.09 40.09
37.0(20) 0.2500 40.08 40.08
44.0(20) 0.2500 40.08 40.08
45.0(20) 0.2500 40.07 40.61
51.0(20) 0.2500 40.07 42.63
61.0(20) 0.2500 40.06 49.56
84.0(30) 0.1111 40.06 69.04
123.0(30) 0.1111 40.05 112.89
195(4) 0.0625 40.0 191.0
292(5) 0.0400 40.0 298.2
404(6) 0.02778 40.0 405.3
472(7) 0.02041 40.0 468.1
475(7) 0.02041 40.0 456.2
391(6) 0.02778 40.0 376.1
264(5) 0.0400 40.0 265.7
155(4) 0.0625 40.0 166.0
96.0(30) 0.1111 39.99 98.50
65.0(20) 0.2500 39.99 62.56
51.0(20) 0.2500 39.98 47.21
47.0(20) 0.2500 39.98 41.46
45.0(20) 0.2500 39.97 39.97
42.0(20) 0.2500 39.96 39.96
41.0(20) 0.2500 39.95 39.95
43.0(20) 0.2500 39.95 39.95
40.0(20) 0.2500 39.94 39.94
39.0(20) 0.2500 39.93 39.93
40.0(20) 0.2500 39.93 39.96
39.0(20) 0.2500 39.92 40.07
41.0(20) 0.2500 39.91 40.50
42.0(20) 0.2500 39.90 41.75
47.0(20) 0.2500 39.90 44.67
47.0(20) 0.2500 39.89 49.97
55.0(20) 0.2500 39.88 57.47
65.0(20) 0.2500 39.87 65.48
78.0(30) 0.1111 39.87 71.75
75.0(30) 0.1111 39.86 75.25
78.0(30) 0.1111 39.85 76.74
78.0(30) 0.1111 39.84 77.02
75.0(30) 0.1111 39.83 75.39
72.0(30) 0.1111 39.83 70.51
65.0(20) 0.2500 39.82 62.65
57.0(20) 0.2500 39.81 54.05
45.0(20) 0.2500 39.80 47.08
43.0(20) 0.2500 39.79 42.89
40.0(20) 0.2500 39.78 40.86
40.0(20) 0.2500 39.78 40.08
39.0(20) 0.2500 39.77 39.77
40.0(20) 0.2500 39.76 39.76
40.0(20) 0.2500 39.75 39.75
42.0(20) 0.2500 39.74 39.74
41.0(20) 0.2500 39.73 39.73
40.0(20) 0.2500 39.72 39.72
40.0(20) 0.2500 39.71 39.71
40.0(20) 0.2500 39.70 39.70
36.0(20) 0.2500 39.69 39.69
38.0(20) 0.2500 39.68 39.68
38.0(20) 0.2500 39.68 39.68
36.0(20) 0.2500 39.67 39.67
37.0(20) 0.2500 39.66 39.66
38.0(20) 0.2500 39.65 39.65
39.0(20) 0.2500 39.64 39.64
38.0(20) 0.2500 39.63 39.63
37.0(20) 0.2500 39.62 39.62
37.0(20) 0.2500 39.61 39.61
38.0(20) 0.2500 39.60 39.60
39.0(20) 0.2500 39.59 39.59
39.0(20) 0.2500 39.58 39.58
39.0(20) 0.2500 39.57 39.57
40.0(20) 0.2500 39.56 39.56
40.0(20) 0.2500 39.55 39.55
38.0(20) 0.2500 39.53 39.53
39.0(20) 0.2500 39.52 39.52
40.0(20) 0.2500 39.51 39.51
37.0(20) 0.2500 39.50 39.50
38.0(20) 0.2500 39.49 39.49
39.0(20) 0.2500 39.48 39.48
40.0(20) 0.2500 39.47 39.47
38.0(20) 0.2500 39.46 39.46
37.0(20) 0.2500 39.45 39.45
39.0(20) 0.2500 39.44 39.44
38.0(20) 0.2500 39.43 39.47
42.0(20) 0.2500 39.41 39.61
41.0(20) 0.2500 39.40 40.17
44.0(20) 0.2500 39.39 41.80
48.0(20) 0.2500 39.38 45.55
47.0(20) 0.2500 39.37 52.24
56.0(20) 0.2500 39.36 61.20
70.0(20) 0.2500 39.35 69.54
75.0(30) 0.1111 39.33 73.41
72.0(20) 0.2500 39.32 71.04
62.0(20) 0.2500 39.31 64.62
59.0(20) 0.2500 39.30 58.84
56.0(20) 0.2500 39.29 57.35
61.0(20) 0.2500 39.27 60.27
66.0(20) 0.2500 39.26 64.41
67.0(20) 0.2500 39.25 66.03
69.0(20) 0.2500 39.24 63.89
62.0(20) 0.2500 39.23 60.38
60.0(20) 0.2500 39.21 58.93
60.0(20) 0.2500 39.20 61.05
63.0(20) 0.2500 39.19 64.79
69.0(20) 0.2500 39.18 66.56
63.0(20) 0.2500 39.16 64.50
59.0(20) 0.2500 39.15 60.21
58.0(20) 0.2500 39.14 57.33
57.0(20) 0.2500 39.12 58.04
62.0(20) 0.2500 39.11 61.29
66.0(20) 0.2500 39.10 63.66
63.0(20) 0.2500 39.09 62.31
60.0(20) 0.2500 39.07 57.18
50.0(20) 0.2500 39.06 50.76
48.0(20) 0.2500 39.05 45.73
45.0(20) 0.2500 39.03 43.68
45.0(20) 0.2500 39.02 44.98
51.0(20) 0.2500 39.01 49.20
53.0(20) 0.2500 38.99 54.86
60.0(20) 0.2500 38.98 59.65
65.0(20) 0.2500 38.97 61.01
63.0(20) 0.2500 38.95 58.19
56.0(20) 0.2500 38.94 52.70
50.0(20) 0.2500 38.93 47.00
46.0(20) 0.2500 38.91 42.84
41.0(20) 0.2500 38.90 40.56
41.0(20) 0.2500 38.88 39.62
42.0(20) 0.2500 38.87 39.40
42.0(20) 0.2500 38.86 39.52
44.0(20) 0.2500 38.84 40.38
47.0(20) 0.2500 38.83 43.21
55.0(20) 0.2500 38.82 50.65
70.0(20) 0.2500 38.80 65.76
93.0(30) 0.1111 38.79 89.04
119.0(30) 0.1111 38.77 114.95
134.0(30) 0.1111 38.76 132.53
132.0(30) 0.1111 38.74 132.45
113.0(30) 0.1111 38.73 114.74
87.0(30) 0.1111 38.72 88.76
61.0(20) 0.2500 38.70 65.44
46.0(20) 0.2500 38.69 50.28
42.0(20) 0.2500 38.67 42.75
37.0(20) 0.2500 38.66 39.82
37.0(20) 0.2500 38.64 38.91
39.0(20) 0.2500 38.63 38.63
38.0(20) 0.2500 38.61 38.64
38.0(20) 0.2500 38.60 38.74
38.0(20) 0.2500 38.58 39.11
37.0(20) 0.2500 38.57 40.20
42.0(20) 0.2500 38.56 42.65
46.0(20) 0.2500 38.54 46.88
51.0(20) 0.2500 38.53 52.30
56.0(20) 0.2500 38.51 56.95
61.0(20) 0.2500 38.50 58.52
56.0(20) 0.2500 38.48 56.12
49.0(20) 0.2500 38.47 51.06
43.0(20) 0.2500 38.45 45.75
38.0(20) 0.2500 38.44 41.86
36.0(20) 0.2500 38.42 39.73
38.0(20) 0.2500 38.41 38.81
36.0(20) 0.2500 38.39 38.49
37.0(20) 0.2500 38.37 38.37
39.0(20) 0.2500 38.36 38.36
40.0(20) 0.2500 38.34 38.34
39.0(20) 0.2500 38.33 38.33
39.0(20) 0.2500 38.31 38.31
36.0(20) 0.2500 38.30 38.30
34.0(20) 0.2500 38.28 38.28
34.0(20) 0.2500 38.27 38.27
36.0(20) 0.2500 38.25 38.25
36.0(20) 0.2500 38.24 38.24
38.0(20) 0.2500 38.22 38.22
38.0(20) 0.2500 38.21 38.21
38.0(20) 0.2500 38.19 38.19
40.0(20) 0.2500 38.17 38.17
40.0(20) 0.2500 38.16 38.16
36.0(20) 0.2500 38.14 38.14
36.0(20) 0.2500 38.13 38.13
39.0(20) 0.2500 38.11 38.11
37.0(20) 0.2500 38.10 38.10
35.0(20) 0.2500 38.08 38.08
38.0(20) 0.2500 38.06 38.06
39.0(20) 0.2500 38.05 38.05
37.0(20) 0.2500 38.03 38.03
38.0(20) 0.2500 38.02 38.02
38.0(20) 0.2500 38.00 38.00
38.0(20) 0.2500 37.98 37.98
39.0(20) 0.2500 37.97 37.97
39.0(20) 0.2500 37.95 37.95
39.0(20) 0.2500 37.94 37.94
39.0(20) 0.2500 37.92 37.92
37.0(20) 0.2500 37.91 37.91
35.0(20) 0.2500 37.89 37.89
38.0(20) 0.2500 37.87 37.87
38.0(20) 0.2500 37.86 37.86
36.0(20) 0.2500 37.84 37.84
38.0(20) 0.2500 37.83 37.83
38.0(20) 0.2500 37.81 37.81
40.0(20) 0.2500 37.79 37.79
41.0(20) 0.2500 37.78 37.78
38.0(20) 0.2500 37.76 37.82
39.0(20) 0.2500 37.74 38.03
41.0(20) 0.2500 37.73 38.92
45.0(20) 0.2500 37.71 41.75
49.0(20) 0.2500 37.70 48.75
60.0(20) 0.2500 37.68 62.25
82.0(30) 0.1111 37.66 81.99
101.0(30) 0.1111 37.65 103.10
118.0(30) 0.1111 37.63 118.25
132.0(30) 0.1111 37.62 124.46
128.0(30) 0.1111 37.60 126.91
133.0(30) 0.1111 37.58 133.30
144.0(30) 0.1111 37.57 143.63
153.0(30) 0.1111 37.55 148.33
146.0(30) 0.1111 37.53 137.98
122.0(30) 0.1111 37.52 113.78
91.0(30) 0.1111 37.50 86.62
72.0(20) 0.2500 37.49 69.25
73.0(20) 0.2500 37.47 67.86
88.0(30) 0.1111 37.45 83.71
122.0(30) 0.1111 37.44 115.12
167(4) 0.0625 37.4 159.6
215(4) 0.0625 37.4 214.3
269(5) 0.0400 37.4 269.3
307(5) 0.0400 37.4 305.6
310(5) 0.0400 37.4 302.8
263(5) 0.0400 37.3 256.9
186(4) 0.0625 37.3 186.8
112.0(30) 0.1111 37.31 120.37
66.0(20) 0.2500 37.29 74.80
52.0(20) 0.2500 37.28 50.97
43.0(20) 0.2500 37.26 41.32
37.0(20) 0.2500 37.24 38.22
40.0(20) 0.2500 37.23 37.24
38.0(20) 0.2500 37.21 37.26
39.0(20) 0.2500 37.20 37.36
38.0(20) 0.2500 37.18 37.61
40.0(20) 0.2500 37.16 38.09
40.0(20) 0.2500 37.15 38.77
40.0(20) 0.2500 37.13 39.43
42.0(20) 0.2500 37.12 39.74
41.0(20) 0.2500 37.10 39.53
41.0(20) 0.2500 37.08 38.90
41.0(20) 0.2500 37.07 38.16
38.0(20) 0.2500 37.05 37.59
36.0(20) 0.2500 37.04 37.25
37.0(20) 0.2500 37.02 37.09
37.0(20) 0.2500 37.00 37.02
38.0(20) 0.2500 36.99 36.99
34.0(20) 0.2500 36.97 36.97
37.0(20) 0.2500 36.96 36.96
34.0(20) 0.2500 36.94 36.94
37.0(20) 0.2500 36.92 36.93
38.0(20) 0.2500 36.91 36.93
38.0(20) 0.2500 36.89 36.95
37.0(20) 0.2500 36.88 36.98
36.0(20) 0.2500 36.86 37.04
35.0(20) 0.2500 36.84 37.12
38.0(20) 0.2500 36.83 37.21
36.0(20) 0.2500 36.81 37.30
36.0(20) 0.2500 36.80 37.42
38.0(20) 0.2500 36.78 37.78
41.0(20) 0.2500 36.77 38.91
44.0(20) 0.2500 36.75 41.72
47.0(20) 0.2500 36.74 47.09
54.0(20) 0.2500 36.72 54.77
64.0(20) 0.2500 36.70 62.49
66.0(20) 0.2500 36.69 66.73
62.0(20) 0.2500 36.67 65.16
57.0(20) 0.2500 36.66 58.62
46.0(20) 0.2500 36.64 50.40
40.0(20) 0.2500 36.63 43.62
35.0(20) 0.2500 36.61 39.50
36.0(20) 0.2500 36.60 37.59
35.0(20) 0.2500 36.58 36.96
36.0(20) 0.2500 36.57 36.95
35.0(20) 0.2500 36.55 37.57
37.0(20) 0.2500 36.53 38.75
38.0(20) 0.2500 36.52 40.41
42.0(20) 0.2500 36.50 42.03
43.0(20) 0.2500 36.49 42.87
42.0(20) 0.2500 36.47 42.55
40.0(20) 0.2500 36.46 41.64
38.0(20) 0.2500 36.44 41.48
43.0(20) 0.2500 36.43 43.51
46.0(20) 0.2500 36.41 48.29
53.0(20) 0.2500 36.40 54.67
59.0(20) 0.2500 36.38 59.85
61.0(20) 0.2500 36.37 61.07
59.0(20) 0.2500 36.35 57.72
54.0(20) 0.2500 36.34 51.68
44.0(20) 0.2500 36.32 45.76
40.0(20) 0.2500 36.31 41.68
40.0(20) 0.2500 36.30 39.57
38.0(20) 0.2500 36.28 38.67
37.0(20) 0.2500 36.27 38.17
37.0(20) 0.2500 36.25 37.66
35.0(20) 0.2500 36.24 37.13
33.0(10) 1.000 36.22 36.69
35.0(20) 0.2500 36.21 36.41
36.0(20) 0.2500 36.19 36.26
35.0(20) 0.2500 36.18 36.20
34.0(20) 0.2500 36.17 36.17
36.0(20) 0.2500 36.15 36.15
33.0(10) 1.000 36.14 36.14
35.0(20) 0.2500 36.12 36.12
37.0(20) 0.2500 36.11 36.11
34.0(20) 0.2500 36.09 36.09
36.0(20) 0.2500 36.08 36.08
36.0(20) 0.2500 36.07 36.07
35.0(20) 0.2500 36.05 36.05
35.0(20) 0.2500 36.04 36.04
36.0(20) 0.2500 36.02 36.02
36.0(20) 0.2500 36.01 36.01
35.0(20) 0.2500 36.00 36.03
36.0(20) 0.2500 35.98 36.14
39.0(20) 0.2500 35.97 36.62
39.0(20) 0.2500 35.96 38.14
39.0(20) 0.2500 35.94 41.85
49.0(20) 0.2500 35.93 48.87
56.0(20) 0.2500 35.91 58.82
65.0(20) 0.2500 35.90 68.64
75.0(20) 0.2500 35.89 73.71
73.0(20) 0.2500 35.87 71.18
65.0(20) 0.2500 35.86 62.48
53.0(20) 0.2500 35.85 52.07
43.0(20) 0.2500 35.83 43.82
37.0(20) 0.2500 35.82 39.00
36.0(20) 0.2500 35.81 36.83
40.0(20) 0.2500 35.80 36.07
39.0(20) 0.2500 35.78 35.86
34.0(10) 1.000 35.77 36.08
38.0(20) 0.2500 35.76 36.88
38.0(20) 0.2500 35.74 39.05
46.0(20) 0.2500 35.73 43.62
49.0(20) 0.2500 35.72 50.95
56.0(20) 0.2500 35.71 59.47
67.0(20) 0.2500 35.69 65.66
64.0(20) 0.2500 35.68 66.22
64.0(20) 0.2500 35.67 60.89
53.0(20) 0.2500 35.66 52.70
44.0(20) 0.2500 35.64 45.77
45.0(20) 0.2500 35.63 42.86
44.0(20) 0.2500 35.62 44.86
49.0(20) 0.2500 35.61 51.09
57.0(20) 0.2500 35.59 59.08
65.0(20) 0.2500 35.58 64.89
68.0(20) 0.2500 35.57 65.24
62.0(20) 0.2500 35.56 59.83
50.0(20) 0.2500 35.55 51.60
44.0(20) 0.2500 35.53 44.12
39.0(20) 0.2500 35.52 39.24
35.0(10) 1.000 35.51 36.85
37.0(20) 0.2500 35.50 35.97
36.0(20) 0.2500 35.49 35.75
34.0(10) 1.000 35.47 35.72
36.0(20) 0.2500 35.46 35.75
35.0(10) 1.000 35.45 35.71
34.0(10) 1.000 35.44 35.63
34.0(10) 1.000 35.43 35.54
35.0(10) 1.000 35.42 35.47
34.0(10) 1.000 35.41 35.43
37.0(20) 0.2500 35.39 35.40
37.0(20) 0.2500 35.38 35.39
36.0(20) 0.2500 35.37 35.37
36.0(20) 0.2500 35.36 35.36
36.0(20) 0.2500 35.35 35.35
36.0(20) 0.2500 35.34 35.34
35.0(10) 1.000 35.33 35.33
36.0(20) 0.2500 35.32 35.32
35.0(10) 1.000 35.31 35.31
38.0(20) 0.2500 35.30 35.36
36.0(20) 0.2500 35.29 35.57
36.0(20) 0.2500 35.28 36.36
40.0(20) 0.2500 35.27 38.68
43.0(20) 0.2500 35.25 43.90
52.0(20) 0.2500 35.24 52.97
64.0(20) 0.2500 35.23 64.61
76.0(20) 0.2500 35.22 74.61
81.0(20) 0.2500 35.21 77.91
73.0(20) 0.2500 35.20 72.64
62.0(20) 0.2500 35.19 61.74
49.0(20) 0.2500 35.18 50.41
42.0(20) 0.2500 35.17 42.23
38.0(20) 0.2500 35.16 37.81
36.0(20) 0.2500 35.15 35.96
36.0(20) 0.2500 35.14 35.34
36.0(20) 0.2500 35.13 35.34
39.0(20) 0.2500 35.13 36.09
44.0(20) 0.2500 35.12 38.79
51.0(20) 0.2500 35.11 46.50
66.0(20) 0.2500 35.10 63.65
88.0(20) 0.2500 35.09 93.00
128.0(30) 0.1111 35.08 130.15
160.0(30) 0.1111 35.07 161.41
182(4) 0.0625 35.1 171.1
160.0(30) 0.1111 35.05 154.29
121.0(30) 0.1111 35.04 120.98
78.0(20) 0.2500 35.03 87.58
56.0(20) 0.2500 35.02 64.39
51.0(20) 0.2500 35.02 51.89
47.0(20) 0.2500 35.01 45.65
44.0(20) 0.2500 35.00 41.91
44.0(20) 0.2500 34.99 39.39
41.0(20) 0.2500 34.98 38.83
39.0(20) 0.2500 34.97 40.63
46.0(20) 0.2500 34.96 44.96
50.0(20) 0.2500 34.96 50.82
55.0(20) 0.2500 34.95 56.02
60.0(20) 0.2500 34.94 58.60
61.0(20) 0.2500 34.93 58.19
57.0(20) 0.2500 34.92 56.06
53.0(20) 0.2500 34.92 53.39
49.0(20) 0.2500 34.91 50.32
51.0(20) 0.2500 34.90 46.65
42.0(20) 0.2500 34.89 42.91
41.0(20) 0.2500 34.88 40.60
42.0(20) 0.2500 34.88 41.69
49.0(20) 0.2500 34.87 48.39
60.0(20) 0.2500 34.86 61.97
76.0(20) 0.2500 34.85 80.55
97.0(30) 0.1111 34.85 97.56
105.0(30) 0.1111 34.84 104.63
100.0(30) 0.1111 34.83 97.73
81.0(20) 0.2500 34.82 80.73
57.0(20) 0.2500 34.82 61.96
44.0(20) 0.2500 34.81 47.80
39.0(20) 0.2500 34.80 39.84
36.0(20) 0.2500 34.80 36.38
37.0(20) 0.2500 34.79 35.19
35.0(10) 1.000 34.78 34.78
36.0(10) 1.000 34.78 34.78
35.0(10) 1.000 34.77 34.77
36.0(10) 1.000 34.76 34.76
35.0(10) 1.000 34.76 34.76
36.0(10) 1.000 34.75 34.75
38.0(10) 1.000 34.74 34.74
34.0(10) 1.000 34.74 34.74
32.0(10) 1.000 34.73 34.73
34.0(10) 1.000 34.72 34.73
36.0(10) 1.000 34.72 34.72
35.0(10) 1.000 34.71 34.74
34.0(10) 1.000 34.71 34.82
37.0(10) 1.000 34.70 35.17
38.0(10) 1.000 34.69 36.35
41.0(20) 0.2500 34.69 39.43
50.0(20) 0.2500 34.68 45.83
58.0(20) 0.2500 34.68 56.57
71.0(20) 0.2500 34.67 71.11
86.0(20) 0.2500 34.67 87.67
103.0(20) 0.2500 34.66 104.60
121.0(30) 0.1111 34.65 121.39
136.0(30) 0.1111 34.65 137.78
154.0(30) 0.1111 34.64 151.87
161.0(30) 0.1111 34.64 159.28
159.0(30) 0.1111 34.63 155.62
145.0(30) 0.1111 34.63 141.17
124.0(30) 0.1111 34.62 123.76
108.0(30) 0.1111 34.62 114.97
111.0(30) 0.1111 34.61 119.78
127.0(30) 0.1111 34.61 131.54
137.0(30) 0.1111 34.60 137.20
133.0(30) 0.1111 34.60 127.32
104.0(20) 0.2500 34.59 104.01
76.0(20) 0.2500 34.59 77.68
56.0(20) 0.2500 34.59 57.22
47.0(20) 0.2500 34.58 46.29
45.0(20) 0.2500 34.58 43.76
48.0(20) 0.2500 34.57 46.59
52.0(20) 0.2500 34.57 51.30
58.0(20) 0.2500 34.56 54.70
56.0(20) 0.2500 34.56 54.91
55.0(20) 0.2500 34.56 52.57
52.0(20) 0.2500 34.55 50.74
54.0(20) 0.2500 34.55 52.75
60.0(20) 0.2500 34.54 59.83
67.0(20) 0.2500 34.54 70.08
79.0(20) 0.2500 34.54 79.33
81.0(20) 0.2500 34.53 83.34
81.0(20) 0.2500 34.53 80.13
72.0(20) 0.2500 34.53 71.01
59.0(20) 0.2500 34.52 59.72
49.0(20) 0.2500 34.52 50.18
45.0(20) 0.2500 34.51 44.39
41.0(20) 0.2500 34.51 41.85
41.0(20) 0.2500 34.51 40.83
42.0(20) 0.2500 34.50 40.13
40.0(20) 0.2500 34.50 39.49
41.0(20) 0.2500 34.50 39.73
43.0(20) 0.2500 34.50 41.19
43.0(20) 0.2500 34.49 43.41
43.0(20) 0.2500 34.49 45.08
44.0(20) 0.2500 34.49 45.03
45.0(20) 0.2500 34.48 43.20
41.0(20) 0.2500 34.48 40.63
37.0(10) 1.000 34.48 38.49
36.0(10) 1.000 34.48 37.27
36.0(10) 1.000 34.47 36.73
37.0(10) 1.000 34.47 36.49
38.0(10) 1.000 34.47 36.52
38.0(10) 1.000 34.47 37.23
38.0(10) 1.000 34.46 39.16
43.0(20) 0.2500 34.46 42.30
46.0(20) 0.2500 34.46 45.71
49.0(20) 0.2500 34.46 47.76
50.0(20) 0.2500 34.45 47.30
43.0(20) 0.2500 34.45 44.56
42.0(20) 0.2500 34.45 40.92
39.0(10) 1.000 34.45 37.82
35.0(10) 1.000 34.45 35.88
36.0(10) 1.000 34.44 34.94
34.0(10) 1.000 34.44 34.58
34.0(10) 1.000 34.44 34.44
35.0(10) 1.000 34.44 34.44
35.0(10) 1.000 34.44 34.44
35.0(10) 1.000 34.44 34.44
36.0(10) 1.000 34.43 34.43
33.0(10) 1.000 34.43 34.43
35.0(10) 1.000 34.43 34.43
33.0(10) 1.000 34.43 34.43
35.0(10) 1.000 34.43 34.43
33.0(10) 1.000 34.43 34.43
35.0(10) 1.000 34.43 34.43
35.0(10) 1.000 34.42 34.50
36.0(10) 1.000 34.42 34.75
37.0(10) 1.000 34.42 35.62
39.0(10) 1.000 34.42 38.01
42.0(20) 0.2500 34.42 43.20
52.0(20) 0.2500 34.42 51.91
64.0(20) 0.2500 34.42 62.85
74.0(20) 0.2500 34.42 72.10
75.0(30) 0.1111 34.42 75.13
69.0(20) 0.2500 34.42 70.29
57.0(20) 0.2500 34.42 60.20
49.0(20) 0.2500 34.42 49.52
39.0(10) 1.000 34.41 41.63
35.0(10) 1.000 34.41 37.23
34.0(10) 1.000 34.41 35.31
35.0(10) 1.000 34.41 34.64
34.0(10) 1.000 34.41 34.43
34.0(10) 1.000 34.41 34.49
35.0(10) 1.000 34.41 34.69
36.0(10) 1.000 34.41 35.23
38.0(10) 1.000 34.41 36.36
39.0(10) 1.000 34.41 38.23
41.0(10) 1.000 34.41 40.51
42.0(10) 1.000 34.41 42.37
42.0(10) 1.000 34.41 42.89
44.0(20) 0.2500 34.41 41.79
41.0(10) 1.000 34.41 39.66
39.0(10) 1.000 34.41 37.50
37.0(10) 1.000 34.41 36.08
37.0(10) 1.000 34.41 35.77
39.0(10) 1.000 34.41 36.95
41.0(10) 1.000 34.41 40.30
46.0(20) 0.2500 34.41 46.56
57.0(20) 0.2500 34.41 55.76
66.0(20) 0.2500 34.41 66.21
75.0(20) 0.2500 34.41 74.77
78.0(20) 0.2500 34.41 78.47
78.0(20) 0.2500 34.41 76.63
72.0(20) 0.2500 34.41 71.47
66.0(20) 0.2500 34.41 66.10
61.0(20) 0.2500 34.42 61.95
59.0(20) 0.2500 34.42 58.37
55.0(20) 0.2500 34.42 54.35
47.0(20) 0.2500 34.42 49.87
43.0(10) 1.000 34.42 45.57
41.0(10) 1.000 34.42 42.13
38.0(10) 1.000 34.42 39.40
38.0(10) 1.000 34.42 37.36
39.0(10) 1.000 34.42 36.04
37.0(10) 1.000 34.42 35.57
37.0(10) 1.000 34.42 36.37
40.0(10) 1.000 34.42 39.13
45.0(20) 0.2500 34.42 44.73
54.0(20) 0.2500 34.43 53.11
62.0(20) 0.2500 34.43 62.22
70.0(20) 0.2500 34.43 68.30
69.0(20) 0.2500 34.43 68.24
62.0(20) 0.2500 34.43 62.12
53.0(20) 0.2500 34.43 53.16
45.0(20) 0.2500 34.43 45.35
40.0(10) 1.000 34.43 41.10
41.0(10) 1.000 34.43 40.79
43.0(10) 1.000 34.44 43.43
48.0(20) 0.2500 34.44 47.22
49.0(20) 0.2500 34.44 49.93
50.0(20) 0.2500 34.44 50.10
47.0(20) 0.2500 34.44 47.73
44.0(20) 0.2500 34.44 44.32
41.0(10) 1.000 34.44 41.53
38.0(10) 1.000 34.45 40.00
39.0(10) 1.000 34.45 39.25
41.0(10) 1.000 34.45 38.56
39.0(10) 1.000 34.45 37.63
37.0(10) 1.000 34.45 36.75
36.0(10) 1.000 34.45 36.54
38.0(10) 1.000 34.46 37.58
42.0(10) 1.000 34.46 40.30
43.0(20) 0.2500 34.46 44.68
48.0(20) 0.2500 34.46 49.90
51.0(20) 0.2500 34.46 54.38
56.0(20) 0.2500 34.46 56.32
54.0(20) 0.2500 34.47 54.86
48.0(20) 0.2500 34.47 50.58
43.0(20) 0.2500 34.47 45.19
40.0(10) 1.000 34.47 40.46
37.0(10) 1.000 34.47 37.26
35.0(10) 1.000 34.48 35.56
35.0(10) 1.000 34.48 34.81
37.0(10) 1.000 34.48 34.57
35.0(10) 1.000 34.48 34.48
36.0(10) 1.000 34.48 34.48
34.0(10) 1.000 34.48 34.48
33.0(10) 1.000 34.49 34.49
34.0(10) 1.000 34.49 34.49
34.0(10) 1.000 34.49 34.53
36.0(10) 1.000 34.49 34.67
37.0(10) 1.000 34.50 35.16
38.0(10) 1.000 34.50 36.56
42.0(10) 1.000 34.50 39.77
46.0(20) 0.2500 34.50 45.73
55.0(20) 0.2500 34.50 54.24
62.0(20) 0.2500 34.51 63.49
72.0(20) 0.2500 34.51 70.72
76.0(20) 0.2500 34.51 74.20
73.0(20) 0.2500 34.51 74.51
74.0(20) 0.2500 34.51 73.20
71.0(20) 0.2500 34.52 70.67
64.0(20) 0.2500 34.52 66.05
55.0(20) 0.2500 34.52 59.05
49.0(20) 0.2500 34.52 51.05
43.0(10) 1.000 34.53 44.01
39.0(10) 1.000 34.53 39.41
38.0(10) 1.000 34.53 36.86
36.0(10) 1.000 34.53 35.64
37.0(10) 1.000 34.53 35.09
37.0(10) 1.000 34.54 34.83
34.0(10) 1.000 34.54 34.78
33.0(10) 1.000 34.54 34.78
35.0(10) 1.000 34.54 34.80
36.0(10) 1.000 34.55 35.06
37.0(10) 1.000 34.55 35.76
36.0(10) 1.000 34.55 37.78
43.0(10) 1.000 34.55 42.51
52.0(20) 0.2500 34.56 51.38
64.0(20) 0.2500 34.56 64.34
79.0(20) 0.2500 34.56 78.42
90.0(20) 0.2500 34.56 88.32
96.0(20) 0.2500 34.57 89.94
84.0(20) 0.2500 34.57 83.98
75.0(20) 0.2500 34.57 75.70
68.0(20) 0.2500 34.57 70.53
69.0(20) 0.2500 34.58 69.68
69.0(20) 0.2500 34.58 70.06
70.0(20) 0.2500 34.58 67.78
60.0(20) 0.2500 34.58 62.11
56.0(20) 0.2500 34.58 55.92
56.0(20) 0.2500 34.59 53.61
56.0(20) 0.2500 34.59 57.52
63.0(20) 0.2500 34.59 66.58
74.0(20) 0.2500 34.59 76.23
81.0(20) 0.2500 34.60 80.72
82.0(20) 0.2500 34.60 77.40
66.0(20) 0.2500 34.60 67.45
54.0(20) 0.2500 34.60 55.45
45.0(20) 0.2500 34.61 45.55
40.0(10) 1.000 34.61 39.36
36.0(10) 1.000 34.61 36.33
35.0(10) 1.000 34.61 35.14
35.0(10) 1.000 34.62 34.68
34.0(10) 1.000 34.62 34.77
35.0(10) 1.000 34.62 35.02
35.0(10) 1.000 34.62 35.59
36.0(10) 1.000 34.63 36.66
37.0(10) 1.000 34.63 38.27
40.0(10) 1.000 34.63 40.09
41.0(10) 1.000 34.63 41.44
40.0(10) 1.000 34.63 41.68
40.0(10) 1.000 34.64 40.68
41.0(10) 1.000 34.64 38.94
38.0(10) 1.000 34.64 37.18
36.0(10) 1.000 34.64 35.88
32.0(10) 1.000 34.65 35.15
35.0(10) 1.000 34.65 34.82
35.0(10) 1.000 34.65 34.70
35.0(10) 1.000 34.65 34.65
34.0(10) 1.000 34.66 34.66
33.0(10) 1.000 34.66 34.66
33.0(10) 1.000 34.66 34.66
34.0(10) 1.000 34.66 34.69
34.0(10) 1.000 34.66 34.77
36.0(10) 1.000 34.67 35.08
36.0(10) 1.000 34.67 35.99
38.0(10) 1.000 34.67 38.19
43.0(10) 1.000 34.67 42.48
47.0(20) 0.2500 34.68 49.05
57.0(20) 0.2500 34.68 56.68
61.0(20) 0.2500 34.68 62.67
62.0(20) 0.2500 34.68 64.28
61.0(20) 0.2500 34.68 60.69
52.0(20) 0.2500 34.69 53.68
46.0(20) 0.2500 34.69 46.22
40.0(10) 1.000 34.69 40.51
38.0(10) 1.000 34.69 37.13
36.0(10) 1.000 34.69 35.55
36.0(10) 1.000 34.70 34.94
36.0(10) 1.000 34.70 34.76
37.0(10) 1.000 34.70 34.71
36.0(10) 1.000 34.70 34.70
35.0(10) 1.000 34.70 34.71
38.0(10) 1.000 34.71 34.72
40.0(10) 1.000 34.71 34.77
39.0(10) 1.000 34.71 34.99
41.0(10) 1.000 34.71 35.75
40.0(10) 1.000 34.71 37.97
45.0(20) 0.2500 34.72 43.24
53.0(20) 0.2500 34.72 53.32
67.0(20) 0.2500 34.72 68.58
83.0(20) 0.2500 34.72 86.19
101.0(20) 0.2500 34.72 100.18
107.0(20) 0.2500 34.72 104.71
97.0(20) 0.2500 34.73 98.29
85.0(20) 0.2500 34.73 84.93
68.0(20) 0.2500 34.73 70.70
56.0(20) 0.2500 34.73 59.54
50.0(20) 0.2500 34.73 51.87
47.0(20) 0.2500 34.74 46.43
42.0(10) 1.000 34.74 42.18
40.0(10) 1.000 34.74 38.95
37.0(10) 1.000 34.74 36.85
36.0(10) 1.000 34.74 35.86
36.0(10) 1.000 34.74 35.90
36.0(10) 1.000 34.74 37.07
42.0(10) 1.000 34.75 39.64
44.0(10) 1.000 34.75 43.82
48.0(20) 0.2500 34.75 49.38
54.0(20) 0.2500 34.75 55.60
59.0(20) 0.2500 34.75 61.40
61.0(20) 0.2500 34.75 65.60
66.0(20) 0.2500 34.75 67.01
65.0(20) 0.2500 34.76 64.85
59.0(20) 0.2500 34.76 59.38
52.0(20) 0.2500 34.76 52.15
44.0(10) 1.000 34.76 45.24
41.0(10) 1.000 34.76 40.11
37.0(10) 1.000 34.76 37.07
36.0(10) 1.000 34.76 35.63
36.0(10) 1.000 34.76 35.15
35.0(10) 1.000 34.76 35.25
37.0(10) 1.000 34.77 35.91
38.0(10) 1.000 34.77 37.30
38.0(10) 1.000 34.77 39.50
43.0(10) 1.000 34.77 42.21
44.0(10) 1.000 34.77 44.57
46.0(20) 0.2500 34.77 45.61
45.0(10) 1.000 34.77 44.92
44.0(10) 1.000 34.77 43.00
41.0(10) 1.000 34.77 40.99
38.0(10) 1.000 34.77 39.88
38.0(10) 1.000 34.77 39.98
41.0(10) 1.000 34.77 40.79
39.0(10) 1.000 34.78 41.46
40.0(10) 1.000 34.78 41.34
40.0(10) 1.000 34.78 40.40
39.0(10) 1.000 34.78 39.23
39.0(10) 1.000 34.78 38.73
40.0(10) 1.000 34.78 39.83
45.0(10) 1.000 34.78 43.24
49.0(20) 0.2500 34.78 49.10
57.0(20) 0.2500 34.78 56.58
60.0(20) 0.2500 34.78 63.78
66.0(20) 0.2500 34.78 68.38
69.0(20) 0.2500 34.78 68.78
63.0(20) 0.2500 34.78 64.89
58.0(20) 0.2500 34.78 58.10
52.0(20) 0.2500 34.78 50.53
46.0(20) 0.2500 34.78 44.05
40.0(10) 1.000 34.78 39.69
37.0(10) 1.000 34.78 37.72
39.0(10) 1.000 34.78 38.31
40.0(10) 1.000 34.78 42.08
48.0(20) 0.2500 34.78 50.01
59.0(20) 0.2500 34.78 62.38
74.0(20) 0.2500 34.78 77.48
88.0(20) 0.2500 34.78 91.29
100.0(20) 0.2500 34.78 99.24
101.0(20) 0.2500 34.78 98.76
91.0(20) 0.2500 34.78 90.65
77.0(20) 0.2500 34.78 78.15
64.0(20) 0.2500 34.78 64.89
53.0(20) 0.2500 34.78 53.47
45.0(10) 1.000 34.78 45.09
40.0(10) 1.000 34.78 39.78
37.0(10) 1.000 34.78 36.89
37.0(10) 1.000 34.78 35.54
34.0(10) 1.000 34.78 35.02
34.0(10) 1.000 34.78 34.85
35.0(10) 1.000 34.78 34.83
35.0(10) 1.000 34.78 34.92
37.0(10) 1.000 34.78 35.27
38.0(10) 1.000 34.78 36.22
38.0(10) 1.000 34.77 38.36
42.0(10) 1.000 34.77 42.31
48.0(20) 0.2500 34.77 48.28
55.0(20) 0.2500 34.77 55.47
59.0(20) 0.2500 34.77 61.90
64.0(20) 0.2500 34.77 65.27
65.0(20) 0.2500 34.77 64.21
59.0(20) 0.2500 34.77 59.23
51.0(20) 0.2500 34.77 52.30
44.0(10) 1.000 34.77 45.79
41.0(10) 1.000 34.76 41.38
40.0(10) 1.000 34.76 40.01
41.0(10) 1.000 34.76 42.21
48.0(20) 0.2500 34.76 48.29
60.0(20) 0.2500 34.76 57.73
68.0(20) 0.2500 34.76 68.37
76.0(20) 0.2500 34.76 76.54
80.0(20) 0.2500 34.76 78.82
74.0(20) 0.2500 34.75 74.26
65.0(20) 0.2500 34.75 65.13
52.0(20) 0.2500 34.75 55.24
47.0(20) 0.2500 34.75 47.66
46.0(20) 0.2500 34.75 43.32
41.0(10) 1.000 34.75 41.53
42.0(10) 1.000 34.74 41.18
43.0(10) 1.000 34.74 41.52
41.0(10) 1.000 34.74 42.18
41.0(10) 1.000 34.74 42.85
42.0(20) 0.2500 34.74 43.05
42.0(10) 1.000 34.74 42.39
40.0(10) 1.000 34.73 40.89
38.0(10) 1.000 34.73 39.00
36.0(10) 1.000 34.73 37.26
36.0(10) 1.000 34.73 36.03
35.0(10) 1.000 34.73 35.36
37.0(10) 1.000 34.72 35.17
36.0(10) 1.000 34.72 35.31
35.0(10) 1.000 34.72 35.69
36.0(10) 1.000 34.72 36.20
38.0(10) 1.000 34.71 36.66
36.0(10) 1.000 34.71 36.88
37.0(10) 1.000 34.71 36.78
36.0(10) 1.000 34.71 36.44
38.0(10) 1.000 34.70 36.11
36.0(10) 1.000 34.70 36.20
37.0(10) 1.000 34.70 37.30
40.0(10) 1.000 34.70 40.06
44.0(10) 1.000 34.69 45.00
47.0(20) 0.2500 34.69 51.91
56.0(20) 0.2500 34.69 59.40
63.0(20) 0.2500 34.69 65.25
69.0(20) 0.2500 34.68 67.59
65.0(20) 0.2500 34.68 66.05
61.0(20) 0.2500 34.68 61.90
58.0(20) 0.2500 34.67 56.85
51.0(20) 0.2500 34.67 52.00
47.0(20) 0.2500 34.67 47.62
45.0(10) 1.000 34.67 43.71
41.0(10) 1.000 34.66 40.44
38.0(10) 1.000 34.66 38.17
39.0(10) 1.000 34.66 37.34
38.0(10) 1.000 34.65 38.53
41.0(10) 1.000 34.65 42.74
49.0(20) 0.2500 34.65 51.32
65.0(20) 0.2500 34.64 65.18
78.0(20) 0.2500 34.64 83.57
102.0(20) 0.2500 34.64 103.19
116.0(20) 0.2500 34.63 118.70
123.0(20) 0.2500 34.63 125.04
119.0(20) 0.2500 34.63 120.10
100.0(20) 0.2500 34.62 105.88
85.0(20) 0.2500 34.62 87.35
66.0(20) 0.2500 34.61 69.95
63.0(20) 0.2500 34.61 57.79
55.0(20) 0.2500 34.61 53.14
58.0(20) 0.2500 34.60 56.90
67.0(20) 0.2500 34.60 68.54
83.0(20) 0.2500 34.59 85.43
96.0(20) 0.2500 34.59 102.36
109.0(20) 0.2500 34.59 112.89
111.0(20) 0.2500 34.58 112.48
102.0(20) 0.2500 34.58 101.13
87.0(20) 0.2500 34.57 83.36
63.0(20) 0.2500 34.57 65.23
52.0(20) 0.2500 34.57 51.09
45.0(10) 1.000 34.56 42.19
38.0(10) 1.000 34.56 37.57
36.0(10) 1.000 34.55 35.57
35.0(10) 1.000 34.55 34.85
34.0(10) 1.000 34.54 34.62
35.0(10) 1.000 34.54 34.58
34.0(10) 1.000 34.54 34.61
34.0(10) 1.000 34.53 34.75
35.0(10) 1.000 34.53 35.06
36.0(10) 1.000 34.52 35.62
36.0(10) 1.000 34.52 36.48
36.0(10) 1.000 34.51 37.51
40.0(10) 1.000 34.51 38.46
39.0(10) 1.000 34.50 39.00
38.0(10) 1.000 34.50 38.94
40.0(10) 1.000 34.49 38.35
37.0(10) 1.000 34.49 37.55
38.0(10) 1.000 34.48 36.85
38.0(10) 1.000 34.48 36.38
36.0(10) 1.000 34.47 36.10
34.0(10) 1.000 34.47 35.87
36.0(10) 1.000 34.46 35.61
34.0(10) 1.000 34.46 35.33
32.0(10) 1.000 34.45 35.08
35.0(10) 1.000 34.45 34.96
35.0(10) 1.000 34.44 35.00
35.0(10) 1.000 34.44 35.23
32.0(10) 1.000 34.43 35.66
35.0(10) 1.000 34.43 36.28
35.0(10) 1.000 34.42 37.04
39.0(10) 1.000 34.42 37.98
39.0(10) 1.000 34.41 39.26
42.0(10) 1.000 34.40 41.08
46.0(10) 1.000 34.40 43.49
46.0(10) 1.000 34.39 46.11
48.0(20) 0.2500 34.39 48.15
48.0(20) 0.2500 34.38 48.76
48.0(20) 0.2500 34.38 47.58
47.0(20) 0.2500 34.37 44.99
41.0(10) 1.000 34.36 41.92
41.0(10) 1.000 34.36 39.34
39.0(10) 1.000 34.35 37.99
41.0(10) 1.000 34.35 38.36
43.0(10) 1.000 34.34 40.96
49.0(20) 0.2500 34.33 46.28
53.0(20) 0.2500 34.33 54.39
62.0(20) 0.2500 34.32 64.20
75.0(20) 0.2500 34.32 73.21
77.0(20) 0.2500 34.31 78.38
77.0(20) 0.2500 34.30 77.66
72.0(20) 0.2500 34.30 71.33
63.0(20) 0.2500 34.29 61.76
52.0(20) 0.2500 34.29 52.01
48.0(20) 0.2500 34.28 44.26
42.0(10) 1.000 34.27 39.20
39.0(10) 1.000 34.27 36.40
38.0(10) 1.000 34.26 35.08
38.0(10) 1.000 34.25 34.54
35.0(10) 1.000 34.25 34.34
37.0(10) 1.000 34.24 34.26
33.0(10) 1.000 34.23 34.26
33.0(10) 1.000 34.23 34.30
34.0(10) 1.000 34.22 34.44
34.0(10) 1.000 34.21 34.78
34.0(10) 1.000 34.21 35.45
37.0(10) 1.000 34.20 36.58
37.0(10) 1.000 34.19 38.16
38.0(10) 1.000 34.19 39.92
40.0(10) 1.000 34.18 41.36
42.0(10) 1.000 34.17 41.97
38.0(10) 1.000 34.17 41.52
40.0(10) 1.000 34.16 40.18
34.0(10) 1.000 34.15 38.42
37.0(10) 1.000 34.14 36.78
36.0(10) 1.000 34.14 35.54
34.0(10) 1.000 34.13 34.79
35.0(10) 1.000 34.12 34.40
34.0(10) 1.000 34.12 34.25
33.0(10) 1.000 34.11 34.25
33.0(10) 1.000 34.10 34.43
37.0(10) 1.000 34.10 34.89
37.0(10) 1.000 34.09 35.94
35.0(10) 1.000 34.08 37.99
40.0(10) 1.000 34.07 41.52
47.0(20) 0.2500 34.07 46.74
50.0(20) 0.2500 34.06 53.16
57.0(20) 0.2500 34.05 59.51
63.0(20) 0.2500 34.04 64.06
66.0(20) 0.2500 34.04 65.52
63.0(20) 0.2500 34.03 63.75
59.0(20) 0.2500 34.02 59.72
50.0(20) 0.2500 34.01 54.81
52.0(20) 0.2500 34.01 50.05
45.0(10) 1.000 34.00 45.85
45.0(10) 1.000 33.99 42.29
39.0(10) 1.000 33.98 39.37
36.0(10) 1.000 33.98 37.15
36.0(10) 1.000 33.97 35.64
33.0(10) 1.000 33.96 34.74
33.0(10) 1.000 33.95 34.28
33.0(10) 1.000 33.94 34.08
36.0(10) 1.000 33.94 34.01
32.0(10) 1.000 33.93 33.99
32.0(10) 1.000 33.92 33.98
33.0(10) 1.000 33.91 33.97
36.0(10) 1.000 33.90 33.95
33.0(10) 1.000 33.90 33.93
31.0(10) 1.000 33.89 33.91
35.0(10) 1.000 33.88 33.89
34.0(10) 1.000 33.87 33.88
30.0(10) 1.000 33.86 33.87
32.0(10) 1.000 33.86 33.86
33.0(10) 1.000 33.85 33.85
33.0(10) 1.000 33.84 33.85
33.0(10) 1.000 33.83 33.88
36.0(10) 1.000 33.82 33.96
34.0(10) 1.000 33.82 34.19
34.0(10) 1.000 33.81 34.71
33.0(10) 1.000 33.80 35.71
40.0(10) 1.000 33.79 37.36
40.0(10) 1.000 33.78 39.68
44.0(10) 1.000 33.77 42.41
45.0(20) 0.2500 33.77 45.04
49.0(20) 0.2500 33.76 46.96
49.0(20) 0.2500 33.75 47.77
47.0(20) 0.2500 33.74 47.37
44.0(10) 1.000 33.73 45.97
46.0(20) 0.2500 33.72 43.99
41.0(10) 1.000 33.72 41.89
40.0(10) 1.000 33.71 40.07
39.0(10) 1.000 33.70 38.80
39.0(10) 1.000 33.69 38.13
37.0(10) 1.000 33.68 37.90
39.0(10) 1.000 33.67 37.87
36.0(10) 1.000 33.66 38.00
37.0(10) 1.000 33.66 38.60
40.0(10) 1.000 33.65 40.33
45.0(10) 1.000 33.64 43.95
49.0(20) 0.2500 33.63 49.82
60.0(20) 0.2500 33.62 57.39
64.0(20) 0.2500 33.61 64.97
67.0(20) 0.2500 33.60 70.25
72.0(20) 0.2500 33.60 71.36
68.0(20) 0.2500 33.59 67.84
61.0(20) 0.2500 33.58 60.94
51.0(20) 0.2500 33.57 52.86
44.0(20) 0.2500 33.56 45.72
39.0(10) 1.000 33.55 40.72
36.0(10) 1.000 33.54 38.13
40.0(10) 1.000 33.53 37.60
40.0(10) 1.000 33.53 38.56
41.0(10) 1.000 33.52 40.39
41.0(10) 1.000 33.51 42.48
46.0(20) 0.2500 33.50 44.23
46.0(20) 0.2500 33.49 45.19
46.0(20) 0.2500 33.48 45.08
43.0(10) 1.000 33.47 44.05
41.0(10) 1.000 33.46 42.51
42.0(10) 1.000 33.45 41.01
38.0(10) 1.000 33.45 39.98
38.0(10) 1.000 33.44 39.53
40.0(10) 1.000 33.43 39.43
40.0(10) 1.000 33.42 39.32
37.0(10) 1.000 33.41 38.91
40.0(10) 1.000 33.40 38.15
36.0(10) 1.000 33.39 37.18
36.0(10) 1.000 33.38 36.18
35.0(10) 1.000 33.37 35.34
37.0(10) 1.000 33.36 34.69
34.0(10) 1.000 33.36 34.23
33.0(10) 1.000 33.35 33.92
34.0(10) 1.000 33.34 33.77
35.0(10) 1.000 33.33 33.79
34.0(10) 1.000 33.32 34.03
34.0(10) 1.000 33.31 34.55
34.0(10) 1.000 33.30 35.38
37.0(10) 1.000 33.29 36.49
40.0(10) 1.000 33.28 37.85
38.0(10) 1.000 33.27 39.48
42.0(10) 1.000 33.26 41.52
43.0(10) 1.000 33.25 44.19
46.0(20) 0.2500 33.25 47.59
51.0(20) 0.2500 33.24 51.37
53.0(20) 0.2500 33.23 54.69
56.0(20) 0.2500 33.22 56.49
58.0(20) 0.2500 33.21 56.01
55.0(20) 0.2500 33.20 53.25
51.0(20) 0.2500 33.19 48.97
45.0(20) 0.2500 33.18 44.32
37.0(10) 1.000 33.17 40.31
39.0(10) 1.000 33.16 37.54
36.0(10) 1.000 33.15 36.18
37.0(10) 1.000 33.14 36.16
40.0(10) 1.000 33.14 37.31
39.0(10) 1.000 33.13 39.41
44.0(20) 0.2500 33.12 42.08
46.0(20) 0.2500 33.11 44.91
47.0(20) 0.2500 33.10 47.37
51.0(20) 0.2500 33.09 49.09
50.0(20) 0.2500 33.08 49.93
48.0(20) 0.2500 33.07 49.94
51.0(20) 0.2500 33.06 49.23
49.0(20) 0.2500 33.05 47.89
43.0(10) 1.000 33.04 46.06
45.0(20) 0.2500 33.03 44.00
42.0(10) 1.000 33.02 42.17
39.0(10) 1.000 33.02 41.14
41.0(10) 1.000 33.01 41.40
42.0(10) 1.000 33.00 43.09
47.0(20) 0.2500 32.99 45.90
51.0(20) 0.2500 32.98 49.11
52.0(20) 0.2500 32.97 51.82
53.0(20) 0.2500 32.96 53.36
54.0(20) 0.2500 32.95 53.64
55.0(20) 0.2500 32.94 53.07
54.0(20) 0.2500 32.93 52.32
56.0(20) 0.2500 32.92 51.81
55.0(20) 0.2500 32.91 51.59
52.0(20) 0.2500 32.90 51.45
52.0(20) 0.2500 32.90 51.30
52.0(20) 0.2500 32.89 51.36
53.0(20) 0.2500 32.88 52.01
54.0(20) 0.2500 32.87 53.35
56.0(20) 0.2500 32.86 54.97
59.0(20) 0.2500 32.85 56.08
57.0(20) 0.2500 32.84 55.84
53.0(20) 0.2500 32.83 53.95
53.0(20) 0.2500 32.82 50.74
47.0(20) 0.2500 32.81 46.92
45.0(20) 0.2500 32.80 43.20
41.0(10) 1.000 32.79 40.07
38.0(10) 1.000 32.79 37.65
38.0(10) 1.000 32.78 35.89
33.0(10) 1.000 32.77 34.67
36.0(10) 1.000 32.76 33.88
36.0(10) 1.000 32.75 33.43
35.0(10) 1.000 32.74 33.31
36.0(10) 1.000 32.73 33.47
33.0(10) 1.000 32.72 33.87
36.0(10) 1.000 32.71 34.46
38.0(10) 1.000 32.70 35.16
37.0(10) 1.000 32.69 35.83
36.0(10) 1.000 32.68 36.35
36.0(10) 1.000 32.68 36.65
35.0(10) 1.000 32.67 36.78
37.0(10) 1.000 32.66 36.87
37.0(10) 1.000 32.65 37.02
39.0(10) 1.000 32.64 37.24
40.0(10) 1.000 32.63 37.47
37.0(10) 1.000 32.62 37.55
35.0(10) 1.000 32.61 37.49
39.0(10) 1.000 32.60 37.55
40.0(10) 1.000 32.59 38.29
40.0(10) 1.000 32.59 40.46
45.0(20) 0.2500 32.58 44.81
49.0(20) 0.2500 32.57 51.69
58.0(20) 0.2500 32.56 60.61
69.0(20) 0.2500 32.55 70.09
80.0(20) 0.2500 32.54 77.91
80.0(20) 0.2500 32.53 81.88
82.0(20) 0.2500 32.52 80.75
79.0(20) 0.2500 32.51 74.95
65.0(20) 0.2500 32.51 66.17
57.0(20) 0.2500 32.50 56.93
51.0(20) 0.2500 32.49 49.47
48.0(20) 0.2500 32.48 45.56
48.0(20) 0.2500 32.47 46.36
56.0(20) 0.2500 32.46 52.75
64.0(20) 0.2500 32.45 65.26
81.0(20) 0.2500 32.44 83.44
105.0(20) 0.2500 32.44 105.41
129.0(30) 0.1111 32.43 128.04
147.0(30) 0.1111 32.42 146.89
163.0(30) 0.1111 32.41 158.51
167.0(30) 0.1111 32.40 161.54
155.0(30) 0.1111 32.39 157.50
151.0(30) 0.1111 32.38 149.26
138.0(30) 0.1111 32.37 140.14
135.0(30) 0.1111 32.37 132.28
128.0(30) 0.1111 32.36 126.58
123.0(30) 0.1111 32.35 123.46
124.0(30) 0.1111 32.34 123.51
125.0(30) 0.1111 32.33 127.17
129.0(30) 0.1111 32.32 133.89
138.0(30) 0.1111 32.31 141.29
148.0(30) 0.1111 32.31 145.87
148.0(30) 0.1111 32.30 144.52
139.0(30) 0.1111 32.29 135.77
127.0(30) 0.1111 32.28 121.08
104.0(20) 0.2500 32.27 103.69
90.0(20) 0.2500 32.26 86.87
72.0(20) 0.2500 32.26 73.08
63.0(20) 0.2500 32.25 62.59
59.0(20) 0.2500 32.24 54.87
51.0(20) 0.2500 32.23 49.08
46.0(20) 0.2500 32.22 44.63
41.0(10) 1.000 32.21 41.34
41.0(10) 1.000 32.21 39.08
38.0(10) 1.000 32.20 38.22
40.0(10) 1.000 32.19 38.24
40.0(10) 1.000 32.18 38.81
41.0(10) 1.000 32.17 39.46
41.0(10) 1.000 32.16 39.83
40.0(10) 1.000 32.16 39.74
41.0(10) 1.000 32.15 39.35
38.0(10) 1.000 32.14 39.01
40.0(10) 1.000 32.13 39.09
40.0(10) 1.000 32.12 39.87
42.0(10) 1.000 32.12 41.31
45.0(20) 0.2500 32.11 43.09
45.0(20) 0.2500 32.10 44.75
47.0(20) 0.2500 32.09 45.89
47.0(20) 0.2500 32.08 46.35
46.0(20) 0.2500 32.08 46.23
45.0(20) 0.2500 32.07 45.87
48.0(20) 0.2500 32.06 45.47
48.0(20) 0.2500 32.05 45.12
49.0(20) 0.2500 32.04 44.76
43.0(20) 0.2500 32.04 44.28
46.0(20) 0.2500 32.03 43.75
42.0(10) 1.000 32.02 43.40
43.0(20) 0.2500 32.01 43.58
47.0(20) 0.2500 32.01 44.54
44.0(20) 0.2500 32.00 46.40
50.0(20) 0.2500 31.99 48.80
55.0(20) 0.2500 31.98 51.20
57.0(20) 0.2500 31.97 53.00
56.0(20) 0.2500 31.97 53.78
56.0(20) 0.2500 31.96 53.59
54.0(20) 0.2500 31.95 52.98
52.0(20) 0.2500 31.94 52.98
54.0(20) 0.2500 31.94 54.57
56.0(20) 0.2500 31.93 58.37
62.0(20) 0.2500 31.92 64.16
73.0(20) 0.2500 31.91 70.86
75.0(20) 0.2500 31.91 76.80
82.0(20) 0.2500 31.90 80.30
78.0(20) 0.2500 31.89 80.34
74.0(20) 0.2500 31.88 76.80
72.0(20) 0.2500 31.88 70.80
65.0(20) 0.2500 31.87 63.70
57.0(20) 0.2500 31.86 57.13
53.0(20) 0.2500 31.86 52.41
48.0(20) 0.2500 31.85 50.32
55.0(20) 0.2500 31.84 50.98
55.0(20) 0.2500 31.83 53.82
59.0(20) 0.2500 31.83 57.79
60.0(20) 0.2500 31.82 61.58
65.0(20) 0.2500 31.81 64.10
65.0(20) 0.2500 31.81 64.89
66.0(20) 0.2500 31.80 64.28
64.0(20) 0.2500 31.79 63.22
63.0(20) 0.2500 31.78 62.82
64.0(20) 0.2500 31.78 63.79
66.0(20) 0.2500 31.77 66.10
70.0(20) 0.2500 31.76 68.97
74.0(20) 0.2500 31.76 71.20
74.0(20) 0.2500 31.75 71.69
71.0(20) 0.2500 31.74 69.83
67.0(20) 0.2500 31.74 65.71
61.0(20) 0.2500 31.73 60.01
55.0(20) 0.2500 31.72 53.67
47.0(20) 0.2500 31.72 47.61
42.0(10) 1.000 31.71 42.46
40.0(10) 1.000 31.70 38.49
36.0(10) 1.000 31.70 35.69
34.0(10) 1.000 31.69 33.88
32.0(10) 1.000 31.68 32.81
34.0(10) 1.000 31.68 32.24
33.0(10) 1.000 31.67 31.97
31.0(10) 1.000 31.66 31.92
33.0(10) 1.000 31.66 32.02
31.0(10) 1.000 31.65 32.31
33.0(10) 1.000 31.64 32.80
35.0(10) 1.000 31.64 33.54
35.0(10) 1.000 31.63 34.53
36.0(10) 1.000 31.63 35.74
36.0(10) 1.000 31.62 37.04
40.0(10) 1.000 31.61 38.29
41.0(10) 1.000 31.61 39.34
39.0(10) 1.000 31.60 40.12
38.0(10) 1.000 31.59 40.71
42.0(10) 1.000 31.59 41.34
39.0(10) 1.000 31.58 42.32
43.0(20) 0.2500 31.58 43.92
47.0(20) 0.2500 31.57 46.15
45.0(20) 0.2500 31.56 48.71
49.0(20) 0.2500 31.56 51.04
54.0(20) 0.2500 31.55 52.46
52.0(20) 0.2500 31.55 52.46
49.0(20) 0.2500 31.54 50.90
50.0(20) 0.2500 31.53 48.08
46.0(20) 0.2500 31.53 44.59
43.0(20) 0.2500 31.52 41.08
37.0(10) 1.000 31.52 38.07
37.0(10) 1.000 31.51 35.79
33.0(10) 1.000 31.51 34.26
33.0(10) 1.000 31.50 33.31
32.0(10) 1.000 31.49 32.75
33.0(10) 1.000 31.49 32.41
32.0(10) 1.000 31.48 32.17
33.0(10) 1.000 31.48 31.98
32.0(10) 1.000 31.47 31.86
34.0(10) 1.000 31.47 31.80
32.0(10) 1.000 31.46 31.86
31.0(10) 1.000 31.46 32.15
34.0(10) 1.000 31.45 32.80
34.0(10) 1.000 31.44 34.05
36.0(10) 1.000 31.44 36.17
41.0(10) 1.000 31.43 39.47
43.0(20) 0.2500 31.43 44.14
51.0(20) 0.2500 31.42 50.14
55.0(20) 0.2500 31.42 57.07
65.0(20) 0.2500 31.41 64.16
70.0(20) 0.2500 31.41 70.32
76.0(20) 0.2500 31.40 74.44
74.0(20) 0.2500 31.40 75.71
74.0(20) 0.2500 31.39 73.91
70.0(20) 0.2500 31.39 69.52
63.0(20) 0.2500 31.38 63.56
59.0(20) 0.2500 31.38 57.32
51.0(20) 0.2500 31.37 51.93
48.0(20) 0.2500 31.37 48.12
46.0(20) 0.2500 31.36 46.05
46.0(20) 0.2500 31.36 45.46
47.0(20) 0.2500 31.35 45.75
47.0(20) 0.2500 31.35 46.30
46.0(20) 0.2500 31.34 46.60
48.0(20) 0.2500 31.34 46.34
48.0(20) 0.2500 31.33 45.48
44.0(20) 0.2500 31.33 44.14
44.0(20) 0.2500 31.32 42.50
41.0(10) 1.000 31.32 40.78
39.0(10) 1.000 31.31 39.10
38.0(10) 1.000 31.31 37.54
37.0(10) 1.000 31.30 36.14
36.0(10) 1.000 31.30 34.91
31.0(10) 1.000 31.30 33.87
31.0(10) 1.000 31.29 33.03
32.0(10) 1.000 31.29 32.40
32.0(10) 1.000 31.28 31.95
31.0(10) 1.000 31.28 31.67
32.0(10) 1.000 31.27 31.52
33.0(20) 0.2500 31.27 31.48
31.0(10) 1.000 31.26 31.54
31.0(10) 1.000 31.26 31.71
31.0(10) 1.000 31.26 31.99
31.0(10) 1.000 31.25 32.40
31.0(10) 1.000 31.25 32.92
34.0(10) 1.000 31.24 33.50
33.0(10) 1.000 31.24 34.07
33.0(10) 1.000 31.24 34.53
33.0(10) 1.000 31.23 34.80
33.0(10) 1.000 31.23 34.82
34.0(10) 1.000 31.22 34.60
34.0(10) 1.000 31.22 34.20
35.0(10) 1.000 31.21 33.73
33.0(10) 1.000 31.21 33.34
32.0(10) 1.000 31.21 33.15
32.0(10) 1.000 31.20 33.32
34.0(10) 1.000 31.20 33.92
34.0(10) 1.000 31.20 35.02
35.0(10) 1.000 31.19 36.60
39.0(10) 1.000 31.19 38.52
40.0(10) 1.000 31.18 40.59
43.0(20) 0.2500 31.18 42.54
43.0(20) 0.2500 31.18 44.10
43.0(20) 0.2500 31.17 45.12
45.0(20) 0.2500 31.17 45.53
46.0(20) 0.2500 31.17 45.43
44.0(20) 0.2500 31.16 44.97
44.0(20) 0.2500 31.16 44.29
43.0(20) 0.2500 31.15 43.50
43.0(20) 0.2500 31.15 42.60
41.0(10) 1.000 31.15 41.57
39.0(10) 1.000 31.14 40.39
37.0(10) 1.000 31.14 39.07
37.0(10) 1.000 31.14 37.66
37.0(10) 1.000 31.13 36.27
34.0(10) 1.000 31.13 35.00
33.0(10) 1.000 31.13 33.96
35.0(10) 1.000 31.12 33.23
34.0(10) 1.000 31.12 32.85
31.0(10) 1.000 31.12 32.85
31.0(10) 1.000 31.11 33.20
33.0(10) 1.000 31.11 33.85
34.0(10) 1.000 31.11 34.73
37.0(10) 1.000 31.10 35.70
37.0(10) 1.000 31.10 36.62
38.0(10) 1.000 31.10 37.35
38.0(10) 1.000 31.09 37.80
39.0(10) 1.000 31.09 37.98
38.0(10) 1.000 31.09 37.98
36.0(10) 1.000 31.09 37.96
38.0(10) 1.000 31.08 38.09
40.0(10) 1.000 31.08 38.47
39.0(10) 1.000 31.08 39.09
39.0(10) 1.000 31.07 39.82
41.0(10) 1.000 31.07 40.44
42.0(20) 0.2500 31.07 40.74
42.0(20) 0.2500 31.06 40.55
39.0(10) 1.000 31.06 39.85
38.0(10) 1.000 31.06 38.74
38.0(10) 1.000 31.06 37.40
36.0(10) 1.000 31.05 36.06
36.0(10) 1.000 31.05 34.94
35.0(10) 1.000 31.05 34.19
35.0(10) 1.000 31.05 33.91
35.0(10) 1.000 31.04 34.11
35.0(10) 1.000 31.04 34.73
36.0(10) 1.000 31.04 35.68
38.0(10) 1.000 31.03 36.78
38.0(10) 1.000 31.03 37.83
39.0(10) 1.000 31.03 38.62
40.0(10) 1.000 31.03 39.01
40.0(10) 1.000 31.02 38.94
38.0(10) 1.000 31.02 38.46
38.0(10) 1.000 31.02 37.72
38.0(10) 1.000 31.02 36.94
37.0(10) 1.000 31.01 36.35
37.0(10) 1.000 31.01 36.10
37.0(10) 1.000 31.01 36.29
37.0(10) 1.000 31.01 36.88
37.0(10) 1.000 31.01 37.73
39.0(10) 1.000 31.00 38.63
41.0(10) 1.000 31.00 39.36
40.0(10) 1.000 31.00 39.72
38.0(10) 1.000 31.00 39.61
38.0(10) 1.000 30.99 39.02
37.0(10) 1.000 30.99 38.06
36.0(10) 1.000 30.99 36.89
34.0(10) 1.000 30.99 35.70
34.0(10) 1.000 30.98 34.63
34.0(10) 1.000 30.98 33.79
33.0(10) 1.000 30.98 33.21
33.0(10) 1.000 30.98 32.88
32.0(10) 1.000 30.98 32.73
33.0(10) 1.000 30.97 32.69
35.0(10) 1.000 30.97 32.70
34.0(10) 1.000 30.97 32.68
34.0(10) 1.000 30.97 32.63
32.0(10) 1.000 30.97 32.53
32.0(10) 1.000 30.96 32.44
32.0(10) 1.000 30.96 32.41
33.0(10) 1.000 30.96 32.49
32.0(10) 1.000 30.96 32.74
32.0(10) 1.000 30.96 33.19
35.0(10) 1.000 30.95 33.83
36.0(10) 1.000 30.95 34.61
34.0(10) 1.000 30.95 35.42
34.0(10) 1.000 30.95 36.15
36.0(10) 1.000 30.95 36.67
36.0(10) 1.000 30.95 36.90
37.0(10) 1.000 30.94 36.81
36.0(10) 1.000 30.94 36.46
36.0(10) 1.000 30.94 35.96
36.0(10) 1.000 30.94 35.46
35.0(10) 1.000 30.94 35.13
36.0(10) 1.000 30.93 35.08
34.0(10) 1.000 30.93 35.36
37.0(10) 1.000 30.93 35.95
37.0(10) 1.000 30.93 36.74
36.0(10) 1.000 30.93 37.55
37.0(10) 1.000 30.93 38.21
39.0(10) 1.000 30.92 38.56
41.0(10) 1.000 30.92 38.50
39.0(10) 1.000 30.92 38.02
36.0(10) 1.000 30.92 37.21
37.0(10) 1.000 30.92 36.20
36.0(10) 1.000 30.92 35.14
33.0(10) 1.000 30.92 34.16
31.0(10) 1.000 30.91 33.36
31.0(10) 1.000 30.91 32.77
31.0(10) 1.000 30.91 32.38
31.0(10) 1.000 30.91 32.13
31.0(10) 1.000 30.91 31.99
32.0(10) 1.000 30.91 31.89
32.0(10) 1.000 30.90 31.80
32.0(10) 1.000 30.90 31.69
31.0(10) 1.000 30.90 31.56
33.0(10) 1.000 30.90 31.44
32.0(10) 1.000 30.90 31.31
32.0(10) 1.000 30.90 31.25
32.0(10) 1.000 30.90 31.21
33.0(10) 1.000 30.90 31.26
33.0(10) 1.000 30.89 31.43
32.0(10) 1.000 30.89 31.82
34.0(10) 1.000 30.89 32.47
36.0(10) 1.000 30.89 33.48
34.0(10) 1.000 30.89 34.97
37.0(10) 1.000 30.89 37.01
42.0(10) 1.000 30.89 39.69
45.0(20) 0.2500 30.89 42.89
48.0(20) 0.2500 30.88 46.65
51.0(20) 0.2500 30.88 50.67
57.0(20) 0.2500 30.88 54.84
60.0(20) 0.2500 30.88 59.03
66.0(20) 0.2500 30.88 63.24
70.0(20) 0.2500 30.88 67.61
73.0(20) 0.2500 30.88 72.39
78.0(20) 0.2500 30.88 77.89
85.0(20) 0.2500 30.87 84.31
92.0(20) 0.2500 30.87 91.60
99.0(20) 0.2500 30.87 99.40
107.0(20) 0.2500 30.87 106.93
113.0(20) 0.2500 30.87 113.15
115.0(20) 0.2500 30.87 117.01
119.0(20) 0.2500 30.87 117.68
115.0(20) 0.2500 30.87 114.79
110.0(20) 0.2500 30.87 108.62
102.0(20) 0.2500 30.86 99.96
91.0(20) 0.2500 30.86 89.97
80.0(20) 0.2500 30.86 80.00
71.0(20) 0.2500 30.86 71.03
65.0(20) 0.2500 30.86 63.73
61.0(20) 0.2500 30.86 58.29
55.0(20) 0.2500 30.86 54.64
54.0(20) 0.2500 30.86 52.30
51.0(20) 0.2500 30.86 50.79
49.0(20) 0.2500 30.86 49.67
50.0(20) 0.2500 30.85 48.54
49.0(20) 0.2500 30.85 47.52
48.0(20) 0.2500 30.85 46.15
45.0(20) 0.2500 30.85 45.00
44.0(10) 1.000 30.85 43.79
45.0(20) 0.2500 30.85 42.62
43.0(10) 1.000 30.85 41.64
42.0(10) 1.000 30.85 40.96
40.0(10) 1.000 30.85 40.69
39.0(10) 1.000 30.85 40.93
40.0(10) 1.000 30.85 41.72
40.0(10) 1.000 30.84 43.03
43.0(10) 1.000 30.84 44.74
48.0(20) 0.2500 30.84 46.68
50.0(20) 0.2500 30.84 48.59
51.0(20) 0.2500 30.84 50.22
52.0(20) 0.2500 30.84 51.33
53.0(20) 0.2500 30.84 51.75
52.0(20) 0.2500 30.84 51.42
52.0(20) 0.2500 30.84 50.41
51.0(20) 0.2500 30.84 48.90
49.0(20) 0.2500 30.84 47.15
46.0(20) 0.2500 30.83 45.47
43.0(10) 1.000 30.83 44.15
43.0(20) 0.2500 30.83 43.39
42.0(10) 1.000 30.83 43.29
45.0(20) 0.2500 30.83 43.83
44.0(20) 0.2500 30.83 44.84
46.0(20) 0.2500 30.83 46.10
48.0(20) 0.2500 30.83 47.34
48.0(20) 0.2500 30.83 48.29
49.0(20) 0.2500 30.83 48.75
49.0(20) 0.2500 30.83 48.60
48.0(20) 0.2500 30.83 47.80
47.0(20) 0.2500 30.83 46.43
43.0(20) 0.2500 30.82 44.62
43.0(10) 1.000 30.82 42.54
41.0(10) 1.000 30.82 40.38
37.0(10) 1.000 30.82 38.31
37.0(10) 1.000 30.82 36.47
35.0(10) 1.000 30.82 34.94
34.0(10) 1.000 30.82 33.76
33.0(10) 1.000 30.82 32.92
32.0(10) 1.000 30.82 32.41
32.0(10) 1.000 30.82 32.17
32.0(10) 1.000 30.82 32.18
33.0(10) 1.000 30.82 32.38
34.0(10) 1.000 30.82 32.72
35.0(10) 1.000 30.81 33.17
35.0(10) 1.000 30.81 33.66
34.0(10) 1.000 30.81 34.16
36.0(10) 1.000 30.81 34.60
34.0(10) 1.000 30.81 34.93
35.0(10) 1.000 30.81 35.13
35.0(10) 1.000 30.81 35.16
36.0(10) 1.000 30.81 35.02
35.0(10) 1.000 30.81 34.73
35.0(10) 1.000 30.81 34.32
34.0(10) 1.000 30.81 33.84
34.0(10) 1.000 30.81 33.35
33.0(10) 1.000 30.81 32.90
32.0(10) 1.000 30.81 32.53
32.0(10) 1.000 30.81 32.27
31.0(10) 1.000 30.80 32.13
32.0(10) 1.000 30.80 32.14
32.0(10) 1.000 30.80 32.27
32.0(10) 1.000 30.80 32.52
32.0(10) 1.000 30.80 32.86
33.0(10) 1.000 30.80 33.25
32.0(10) 1.000 30.80 33.65
34.0(10) 1.000 30.80 34.01
35.0(10) 1.000 30.80 34.29
32.0(10) 1.000 30.80 34.48
34.0(10) 1.000 30.80 34.56
36.0(10) 1.000 30.80 34.55
34.0(10) 1.000 30.80 34.51
34.0(10) 1.000 30.80 34.50
33.0(10) 1.000 30.80 34.58
34.0(10) 1.000 30.79 34.80
36.0(10) 1.000 30.79 35.20
37.0(10) 1.000 30.79 35.77
35.0(10) 1.000 30.79 36.45
38.0(10) 1.000 30.79 37.16
39.0(10) 1.000 30.79 37.79
39.0(10) 1.000 30.79 38.25
40.0(10) 1.000 30.79 38.45
37.0(10) 1.000 30.79 38.34
36.0(10) 1.000 30.79 37.93
37.0(10) 1.000 30.79 37.25
36.0(10) 1.000 30.79 36.39
34.0(10) 1.000 30.79 35.45
35.0(10) 1.000 30.79 34.51
34.0(10) 1.000 30.79 33.65
35.0(10) 1.000 30.78 32.94
32.0(10) 1.000 30.78 32.40
32.0(10) 1.000 30.78 32.04
32.0(10) 1.000 30.78 31.85
31.0(10) 1.000 30.78 31.80
31.0(10) 1.000 30.78 31.86
31.0(10) 1.000 30.78 32.00
33.0(10) 1.000 30.78 32.18
33.0(10) 1.000 30.78 32.36
31.0(10) 1.000 30.78 32.52
30.0(10) 1.000 30.78 32.63
30.0(10) 1.000 30.78 32.67
32.0(10) 1.000 30.78 32.65
32.0(10) 1.000 30.78 32.55
32.0(10) 1.000 30.78 32.42
32.0(10) 1.000 30.78 32.26
32.0(10) 1.000 30.77 32.13
31.0(10) 1.000 30.77 32.06
31.0(10) 1.000 30.77 32.09
32.0(10) 1.000 30.77 32.26
33.0(10) 1.000 30.77 32.61
32.0(10) 1.000 30.77 33.16
32.0(10) 1.000 30.77 33.91
34.0(10) 1.000 30.77 34.86
37.0(10) 1.000 30.77 35.95
36.0(10) 1.000 30.77 37.11
38.0(10) 1.000 30.77 38.26
39.0(10) 1.000 30.77 39.27
41.0(10) 1.000 30.77 40.03
39.0(10) 1.000 30.77 40.47
39.0(10) 1.000 30.77 40.53
39.0(10) 1.000 30.77 40.19
39.0(10) 1.000 30.76 39.50
38.0(10) 1.000 30.76 38.54
36.0(10) 1.000 30.76 37.40
35.0(10) 1.000 30.76 36.21
37.0(10) 1.000 30.76 35.05
37.0(10) 1.000 30.76 34.00
33.0(10) 1.000 30.76 33.11
33.0(10) 1.000 30.76 32.40
31.0(10) 1.000 30.76 31.85
33.0(10) 1.000 30.76 31.46
34.0(10) 1.000 30.76 31.19
32.0(10) 1.000 30.76 31.02
32.0(10) 1.000 30.76 30.91
31.0(10) 1.000 30.76 30.84
33.0(10) 1.000 30.76 30.81
31.0(10) 1.000 30.76 30.80
31.0(10) 1.000 30.76 30.79
31.0(10) 1.000 30.75 30.81
31.0(10) 1.000 30.75 30.84
31.0(10) 1.000 30.75 30.88
30.0(10) 1.000 30.75 30.94
31.0(10) 1.000 30.75 31.01
31.0(10) 1.000 30.75 31.10
29.0(10) 1.000 30.75 31.22
31.0(10) 1.000 30.75 31.35
31.0(10) 1.000 30.75 31.50
33.0(10) 1.000 30.75 31.67
31.0(10) 1.000 30.75 31.86
32.0(10) 1.000 30.75 32.09
33.0(10) 1.000 30.75 32.36
32.0(10) 1.000 30.75 32.69
33.0(10) 1.000 30.75 33.10
35.0(10) 1.000 30.75 33.60
33.0(10) 1.000 30.75 34.23
34.0(10) 1.000 30.74 34.98
37.0(10) 1.000 30.74 35.85
37.0(10) 1.000 30.74 36.82
36.0(10) 1.000 30.74 37.84
37.0(10) 1.000 30.74 38.88
38.0(10) 1.000 30.74 39.85
42.0(10) 1.000 30.74 40.70
41.0(10) 1.000 30.74 41.37
41.0(10) 1.000 30.74 41.83
43.0(20) 0.2500 30.74 42.05
43.0(20) 0.2500 30.74 42.05
43.0(20) 0.2500 30.74 41.85
41.0(10) 1.000 30.74 41.48
38.0(10) 1.000 30.74 41.01
41.0(10) 1.000 30.74 40.45
39.0(10) 1.000 30.74 39.85
41.0(10) 1.000 30.74 39.20
37.0(10) 1.000 30.74 38.53
39.0(10) 1.000 30.74 37.82
36.0(10) 1.000 30.74 37.08
36.0(10) 1.000 30.73 36.32
37.0(10) 1.000 30.73 35.57
36.0(10) 1.000 30.73 34.87
33.0(10) 1.000 30.73 34.22
33.0(10) 1.000 30.73 33.67
33.0(10) 1.000 30.73 33.28
34.0(10) 1.000 30.73 33.07
34.0(10) 1.000 30.73 33.12
33.0(10) 1.000 30.73 33.44
33.0(10) 1.000 30.73 34.09
34.0(10) 1.000 30.73 35.09
37.0(10) 1.000 30.73 36.46
37.0(10) 1.000 30.73 38.20
39.0(10) 1.000 30.73 40.26
42.0(10) 1.000 30.73 42.58
42.0(10) 1.000 30.73 45.02
45.0(20) 0.2500 30.73 47.41
50.0(20) 0.2500 30.73 49.60
50.0(20) 0.2500 30.73 51.39
51.0(20) 0.2500 30.73 52.61
51.0(20) 0.2500 30.73 53.14
51.0(20) 0.2500 30.73 52.95
52.0(20) 0.2500 30.73 52.04
51.0(20) 0.2500 30.73 50.52
49.0(20) 0.2500 30.73 48.54
45.0(20) 0.2500 30.72 46.28
44.0(20) 0.2500 30.72 43.92
42.0(10) 1.000 30.72 41.65
42.0(10) 1.000 30.72 39.60
36.0(10) 1.000 30.72 37.86
39.0(10) 1.000 30.72 36.48
38.0(10) 1.000 30.72 35.48
36.0(10) 1.000 30.72 34.83
36.0(10) 1.000 30.72 34.52
37.0(10) 1.000 30.72 34.53
36.0(10) 1.000 30.72 34.83
36.0(10) 1.000 30.72 35.43
36.0(10) 1.000 30.72 36.36
38.0(10) 1.000 30.72 37.60
40.0(10) 1.000 30.72 39.23
39.0(10) 1.000 30.72 41.32
45.0(20) 0.2500 30.72 43.79
45.0(20) 0.2500 30.72 46.62
48.0(20) 0.2500 30.72 49.72
52.0(20) 0.2500 30.72 52.99
59.0(20) 0.2500 30.72 56.24
61.0(20) 0.2500 30.72 59.29
61.0(20) 0.2500 30.72 61.95
66.0(20) 0.2500 30.72 64.01
67.0(20) 0.2500 30.72 65.34
66.0(20) 0.2500 30.72 65.83
66.0(20) 0.2500 30.72 65.46
66.0(20) 0.2500 30.72 64.27
61.0(20) 0.2500 30.72 62.37
61.0(20) 0.2500 30.72 59.92
57.0(20) 0.2500 30.72 57.14
55.0(20) 0.2500 30.72 54.22
54.0(20) 0.2500 30.72 51.37
47.0(20) 0.2500 30.72 48.78
51.0(20) 0.2500 30.72 46.57
44.0(20) 0.2500 30.72 44.84
43.0(20) 0.2500 30.72 43.60
43.0(20) 0.2500 30.72 42.85
44.0(20) 0.2500 30.72 42.52
44.0(20) 0.2500 30.72 42.53
43.0(20) 0.2500 30.72 42.76
44.0(20) 0.2500 30.72 43.10
44.0(20) 0.2500 30.72 43.46
46.0(20) 0.2500 30.72 43.73
41.0(10) 1.000 30.72 43.87
46.0(20) 0.2500 30.72 43.81
44.0(20) 0.2500 30.72 43.55
44.0(20) 0.2500 30.72 43.08
41.0(10) 1.000 30.72 42.43
42.0(20) 0.2500 30.72 41.62
40.0(10) 1.000 30.72 40.69
39.0(10) 1.000 30.72 39.71
40.0(10) 1.000 30.72 38.70
38.0(10) 1.000 30.72 37.73
35.0(10) 1.000 30.72 36.83
38.0(10) 1.000 30.72 36.04
38.0(10) 1.000 30.72 35.40
36.0(10) 1.000 30.72 34.92
35.0(10) 1.000 30.73 34.61
35.0(10) 1.000 30.73 34.47
36.0(10) 1.000 30.73 34.50
34.0(10) 1.000 30.73 34.68
35.0(10) 1.000 30.73 34.97
36.0(10) 1.000 30.73 35.37
37.0(10) 1.000 30.73 35.82
36.0(10) 1.000 30.73 36.31
36.0(10) 1.000 30.73 36.80
37.0(10) 1.000 30.73 37.27
38.0(10) 1.000 30.73 37.69
39.0(10) 1.000 30.73 38.02
38.0(10) 1.000 30.73 38.26
39.0(10) 1.000 30.73 38.39
39.0(10) 1.000 30.73 38.39
40.0(10) 1.000 30.73 38.26
37.0(10) 1.000 30.73 38.00
36.0(10) 1.000 30.74 37.62
36.0(10) 1.000 30.74 37.13
37.0(10) 1.000 30.74 36.56
38.0(10) 1.000 30.74 35.93
33.0(10) 1.000 30.74 35.28
33.0(10) 1.000 30.74 34.64
33.0(10) 1.000 30.74 34.03
36.0(10) 1.000 30.74 33.49
30.0(10) 1.000 30.74 33.03
33.0(10) 1.000 30.74 32.68
34.0(10) 1.000 30.74 32.44
33.0(10) 1.000 30.74 32.31
31.0(10) 1.000 30.75 32.30
28.0(10) 1.000 30.75 32.45
34.0(10) 1.000 30.75 32.67
33.0(10) 1.000 30.75 33.00
33.0(10) 1.000 30.75 33.43
33.0(10) 1.000 30.75 33.96
35.0(10) 1.000 30.75 34.59
35.0(10) 1.000 30.75 35.35
35.0(10) 1.000 30.75 36.25
38.0(10) 1.000 30.76 37.34
36.0(10) 1.000 30.76 38.65
40.0(10) 1.000 30.76 40.23
43.0(20) 0.2500 30.76 42.15
42.0(20) 0.2500 30.76 44.42
46.0(20) 0.2500 30.76 47.06
48.0(20) 0.2500 30.76 50.08
54.0(20) 0.2500 30.77 53.41
58.0(20) 0.2500 30.77 56.99
61.0(20) 0.2500 30.77 60.66
64.0(20) 0.2500 30.77 64.27
67.0(20) 0.2500 30.77 67.65
73.0(20) 0.2500 30.77 70.61
71.0(20) 0.2500 30.77 73.00
75.0(20) 0.2500 30.78 74.71
77.0(20) 0.2500 30.78 75.65
76.0(20) 0.2500 30.78 75.84
80.0(20) 0.2500 30.78 75.32
75.0(20) 0.2500 30.78 74.22
74.0(20) 0.2500 30.78 72.65
69.0(20) 0.2500 30.79 70.77
71.0(20) 0.2500 30.79 68.75
69.0(20) 0.2500 30.79 66.71
68.0(30) 0.1111 30.79 64.73
62.0(20) 0.2500 30.79 62.89
60.0(20) 0.2500 30.80 61.21
59.0(20) 0.2500 30.80 59.71
58.0(20) 0.2500 30.80 58.39
59.0(20) 0.2500 30.80 57.22
61.0(20) 0.2500 30.80 56.23
59.0(20) 0.2500 30.81 55.43
59.0(20) 0.2500 30.81 54.83
59.0(20) 0.2500 30.81 54.49
57.0(20) 0.2500 30.81 54.43
54.0(20) 0.2500 30.81 54.69
55.0(20) 0.2500 30.82 55.26
58.0(20) 0.2500 30.82 56.12
60.0(20) 0.2500 30.82 57.22
61.0(20) 0.2500 30.82 58.43
62.0(20) 0.2500 30.83 59.74
60.0(20) 0.2500 30.83 60.96
62.0(20) 0.2500 30.83 61.95
63.0(20) 0.2500 30.83 62.60
64.0(20) 0.2500 30.84 62.80
64.0(20) 0.2500 30.84 62.49
60.0(20) 0.2500 30.84 61.65
60.0(20) 0.2500 30.84 60.27
60.0(20) 0.2500 30.85 58.42
55.0(20) 0.2500 30.85 56.19
56.0(20) 0.2500 30.85 53.69
51.0(20) 0.2500 30.85 51.06
47.0(20) 0.2500 30.86 48.38
46.0(20) 0.2500 30.86 45.79
41.0(20) 0.2500 30.86 43.38
40.0(20) 0.2500 30.86 41.22
37.0(10) 1.000 30.87 39.38
40.0(20) 0.2500 30.87 37.90
36.0(10) 1.000 30.87 36.79
35.0(10) 1.000 30.88 36.06
34.0(10) 1.000 30.88 35.71
36.0(10) 1.000 30.88 35.73
36.0(10) 1.000 30.89 36.12
38.0(10) 1.000 30.89 36.85
40.0(20) 0.2500 30.89 37.92
39.0(20) 0.2500 30.90 39.30
41.0(20) 0.2500 30.90 40.95
44.0(20) 0.2500 30.90 42.88
44.0(20) 0.2500 30.91 44.99
50.0(20) 0.2500 30.91 47.28
52.0(20) 0.2500 30.91 49.68
51.0(20) 0.2500 30.92 52.09
52.0(20) 0.2500 30.92 54.44
57.0(20) 0.2500 30.92 56.63
60.0(20) 0.2500 30.93 58.60
61.0(20) 0.2500 30.93 60.26
63.0(20) 0.2500 30.93 61.56
68.0(20) 0.2500 30.94 62.44
66.0(20) 0.2500 30.94 62.88
61.0(20) 0.2500 30.94 62.90
62.0(20) 0.2500 30.95 62.53
62.0(20) 0.2500 30.95 61.81
64.0(20) 0.2500 30.96 60.84
62.0(20) 0.2500 30.96 59.70
59.0(20) 0.2500 30.96 58.49
60.0(20) 0.2500 30.97 57.31
57.0(20) 0.2500 30.97 56.27
57.0(20) 0.2500 30.98 55.42
54.0(20) 0.2500 30.98 54.84
57.0(20) 0.2500 30.98 54.55
58.0(20) 0.2500 30.99 54.55
56.0(20) 0.2500 30.99 54.82
55.0(20) 0.2500 31.00 55.33
56.0(20) 0.2500 31.00 56.01
59.0(20) 0.2500 31.01 56.79
58.0(20) 0.2500 31.01 57.60
61.0(20) 0.2500 31.01 58.32
60.0(20) 0.2500 31.02 58.97
62.0(20) 0.2500 31.02 59.42
62.0(20) 0.2500 31.03 59.63
59.0(20) 0.2500 31.03 59.57
59.0(20) 0.2500 31.04 59.22
58.0(20) 0.2500 31.04 58.58
59.0(20) 0.2500 31.05 57.67
56.0(20) 0.2500 31.05 56.53
56.0(20) 0.2500 31.06 55.18
53.0(20) 0.2500 31.06 53.68
51.0(20) 0.2500 31.07 52.06
49.0(20) 0.2500 31.07 50.40
47.0(20) 0.2500 31.08 48.73
48.0(20) 0.2500 31.08 47.08
46.0(20) 0.2500 31.09 45.49
44.0(20) 0.2500 31.09 43.98
42.0(20) 0.2500 31.10 42.58
42.0(20) 0.2500 31.10 41.28
40.0(20) 0.2500 31.11 40.10
40.0(20) 0.2500 31.11 39.04
39.0(20) 0.2500 31.12 38.09
36.0(10) 1.000 31.12 37.25
36.0(10) 1.000 31.13 36.52
36.0(10) 1.000 31.13 35.89
36.0(10) 1.000 31.14 35.36
35.0(10) 1.000 31.14 34.91
33.0(10) 1.000 31.15 34.54
34.0(10) 1.000 31.15 34.25
34.0(10) 1.000 31.16 34.02
33.0(10) 1.000 31.17 33.84
34.0(10) 1.000 31.17 33.71
33.0(10) 1.000 31.18 33.61
33.0(10) 1.000 31.18 33.53
33.0(10) 1.000 31.19 33.48
34.0(10) 1.000 31.20 33.44
33.0(10) 1.000 31.20 33.41
33.0(10) 1.000 31.21 33.38
34.0(10) 1.000 31.21 33.35
33.0(10) 1.000 31.22 33.32
34.0(10) 1.000 31.23 33.31
33.0(10) 1.000 31.23 33.29
32.0(10) 1.000 31.24 33.29
33.0(10) 1.000 31.24 33.31
34.0(10) 1.000 31.25 33.34
34.0(10) 1.000 31.26 33.40
34.0(10) 1.000 31.26 33.49
35.0(10) 1.000 31.27 33.60
35.0(10) 1.000 31.28 33.74
34.0(10) 1.000 31.28 33.92
35.0(10) 1.000 31.29 34.13
38.0(10) 1.000 31.30 34.36
37.0(10) 1.000 31.30 34.62
37.0(10) 1.000 31.31 34.90
36.0(10) 1.000 31.32 35.19
36.0(10) 1.000 31.32 35.49
36.0(10) 1.000 31.33 35.77
35.0(10) 1.000 31.34 36.04
38.0(10) 1.000 31.34 36.27
38.0(10) 1.000 31.35 36.46
37.0(10) 1.000 31.36 36.59
36.0(10) 1.000 31.36 36.67
37.0(10) 1.000 31.37 36.68
38.0(10) 1.000 31.38 36.62
37.0(10) 1.000 31.39 36.49
36.0(10) 1.000 31.39 36.30
35.0(10) 1.000 31.40 36.06
37.0(10) 1.000 31.41 35.77
35.0(10) 1.000 31.42 35.45
35.0(10) 1.000 31.42 35.10
34.0(10) 1.000 31.43 34.75
32.0(10) 1.000 31.44 34.40
32.0(10) 1.000 31.45 34.07
34.0(10) 1.000 31.45 33.75
35.0(10) 1.000 31.46 33.46
32.0(10) 1.000 31.47 33.21
32.0(10) 1.000 31.48 33.00
33.0(10) 1.000 31.48 32.82
34.0(10) 1.000 31.49 32.68
34.0(10) 1.000 31.50 32.57
34.0(10) 1.000 31.51 32.49
33.0(10) 1.000 31.52 32.45
31.0(10) 1.000 31.52 32.43
32.0(10) 1.000 31.53 32.44
33.0(10) 1.000 31.54 32.48
35.0(10) 1.000 31.55 32.54
33.0(10) 1.000 31.56 32.63
32.0(10) 1.000 31.57 32.74
31.0(10) 1.000 31.57 32.88
33.0(10) 1.000 31.58 33.05
32.0(10) 1.000 31.59 33.23
32.0(10) 1.000 31.60 33.45
35.0(10) 1.000 31.61 33.69
35.0(10) 1.000 31.62 33.94
33.0(10) 1.000 31.62 34.21
37.0(10) 1.000 31.63 34.49
36.0(10) 1.000 31.64 34.77
36.0(10) 1.000 31.65 35.05
35.0(10) 1.000 31.66 35.31
35.0(10) 1.000 31.67 35.55
34.0(10) 1.000 31.68 35.76
36.0(10) 1.000 31.69 35.94
36.0(10) 1.000 31.69 36.07
35.0(10) 1.000 31.70 36.15
38.0(10) 1.000 31.71 36.19
36.0(10) 1.000 31.72 36.18
34.0(10) 1.000 31.73 36.13
36.0(10) 1.000 31.74 36.04
34.0(10) 1.000 31.75 35.92
36.0(10) 1.000 31.76 35.78
35.0(10) 1.000 31.77 35.63
34.0(10) 1.000 31.78 35.48
35.0(10) 1.000 31.79 35.34
35.0(10) 1.000 31.80 35.22
36.0(10) 1.000 31.81 35.13
35.0(10) 1.000 31.82 35.06
34.0(10) 1.000 31.83 35.03
36.0(10) 1.000 31.83 35.03
34.0(10) 1.000 31.84 35.06
35.0(10) 1.000 31.85 35.12
36.0(10) 1.000 31.86 35.19
37.0(10) 1.000 31.87 35.28
37.0(10) 1.000 31.88 35.37
38.0(10) 1.000 31.89 35.45
38.0(10) 1.000 31.90 35.55
37.0(10) 1.000 31.91 35.60
36.0(10) 1.000 31.92 35.64
36.0(10) 1.000 31.93 35.66
35.0(10) 1.000 31.94 35.66
33.0(10) 1.000 31.95 35.63
36.0(10) 1.000 31.96 35.59
34.0(10) 1.000 31.97 35.55
34.0(10) 1.000 31.98 35.50
36.0(10) 1.000 32.00 35.49
37.0(10) 1.000 32.01 35.51
36.0(10) 1.000 32.02 35.57
37.0(10) 1.000 32.03 35.69
36.0(10) 1.000 32.04 35.88
35.0(10) 1.000 32.05 36.15
37.0(10) 1.000 32.06 36.53
38.0(10) 1.000 32.07 37.01
38.0(10) 1.000 32.08 37.61
38.0(10) 1.000 32.09 38.33
41.0(10) 1.000 32.10 39.17
41.0(10) 1.000 32.11 40.12
43.0(10) 1.000 32.12 41.19
44.0(20) 0.2500 32.13 42.34
44.0(10) 1.000 32.14 43.57
44.0(10) 1.000 32.16 44.85
47.0(20) 0.2500 32.17 46.15
48.0(20) 0.2500 32.18 47.44
50.0(20) 0.2500 32.19 48.67
51.0(20) 0.2500 32.20 49.82
55.0(20) 0.2500 32.21 50.85
52.0(20) 0.2500 32.22 51.71
53.0(20) 0.2500 32.23 52.39
54.0(20) 0.2500 32.25 52.86
53.0(20) 0.2500 32.26 53.11
52.0(20) 0.2500 32.27 53.11
52.0(20) 0.2500 32.28 52.87
49.0(20) 0.2500 32.29 52.40
50.0(20) 0.2500 32.30 51.73
52.0(20) 0.2500 32.31 50.86
48.0(20) 0.2500 32.33 49.84
47.0(20) 0.2500 32.34 48.70
45.0(20) 0.2500 32.35 47.48
44.0(10) 1.000 32.36 46.21
43.0(10) 1.000 32.37 44.94
42.0(10) 1.000 32.39 43.71
40.0(10) 1.000 32.40 42.54
41.0(10) 1.000 32.41 41.46
40.0(10) 1.000 32.42 40.50
39.0(10) 1.000 32.43 39.66
40.0(10) 1.000 32.45 38.97
37.0(10) 1.000 32.46 38.42
35.0(10) 1.000 32.47 38.02
36.0(10) 1.000 32.48 37.75
39.0(10) 1.000 32.50 37.61
39.0(10) 1.000 32.51 37.59
38.0(10) 1.000 32.52 37.66
36.0(10) 1.000 32.53 37.82
37.0(10) 1.000 32.54 38.08
39.0(10) 1.000 32.56 38.38
40.0(10) 1.000 32.57 38.71
40.0(10) 1.000 32.58 39.04
38.0(10) 1.000 32.60 39.38
40.0(10) 1.000 32.61 39.70
39.0(10) 1.000 32.62 40.00
38.0(10) 1.000 32.63 40.26
40.0(10) 1.000 32.65 40.50
39.0(10) 1.000 32.66 40.70
41.0(10) 1.000 32.67 40.84
41.0(10) 1.000 32.69 40.99
40.0(10) 1.000 32.70 41.12
44.0(10) 1.000 32.71 41.24
41.0(10) 1.000 32.72 41.37
41.0(10) 1.000 32.74 41.53
44.0(10) 1.000 32.75 41.72
43.0(10) 1.000 32.76 41.97
41.0(10) 1.000 32.78 42.28
42.0(10) 1.000 32.79 42.67
43.0(10) 1.000 32.80 43.14
43.0(10) 1.000 32.82 43.70
44.0(10) 1.000 32.83 44.33
46.0(20) 0.2500 32.84 45.04
46.0(20) 0.2500 32.86 45.81
46.0(20) 0.2500 32.87 46.63
47.0(20) 0.2500 32.89 47.48
48.0(20) 0.2500 32.90 48.32
47.0(20) 0.2500 32.91 49.15
50.0(20) 0.2500 32.93 49.92
53.0(20) 0.2500 32.94 50.62
50.0(20) 0.2500 32.95 51.23
51.0(20) 0.2500 32.97 51.72
51.0(20) 0.2500 32.98 52.07
53.0(20) 0.2500 33.00 52.27
52.0(20) 0.2500 33.01 52.32
52.0(20) 0.2500 33.03 52.21
53.0(20) 0.2500 33.04 51.94
54.0(20) 0.2500 33.05 51.53
50.0(20) 0.2500 33.07 51.00
52.0(20) 0.2500 33.08 50.35
50.0(20) 0.2500 33.10 49.61
48.0(20) 0.2500 33.11 48.81
45.0(20) 0.2500 33.13 47.95
45.0(20) 0.2500 33.14 47.08
46.0(20) 0.2500 33.16 46.21
44.0(10) 1.000 33.17 45.37
44.0(10) 1.000 33.18 44.57
43.0(10) 1.000 33.20 43.82
43.0(10) 1.000 33.21 43.15
39.0(10) 1.000 33.23 42.55
40.0(10) 1.000 33.24 42.03
42.0(10) 1.000 33.26 41.59
41.0(10) 1.000 33.27 41.23
40.0(10) 1.000 33.29 40.95
40.0(10) 1.000 33.30 40.75
41.0(10) 1.000 33.32 40.61
41.0(10) 1.000 33.33 40.54
41.0(10) 1.000 33.35 40.51
41.0(10) 1.000 33.37 40.54
40.0(10) 1.000 33.38 40.61
41.0(10) 1.000 33.40 40.71
41.0(10) 1.000 33.41 40.84
40.0(10) 1.000 33.43 40.99
42.0(10) 1.000 33.44 41.17
41.0(10) 1.000 33.46 41.37
42.0(10) 1.000 33.47 41.57
44.0(10) 1.000 33.49 41.80
44.0(10) 1.000 33.51 41.97
44.0(10) 1.000 33.52 42.19
44.0(10) 1.000 33.54 42.44
42.0(10) 1.000 33.55 42.67
42.0(10) 1.000 33.57 42.88
45.0(10) 1.000 33.59 43.08
44.0(10) 1.000 33.60 43.25
44.0(10) 1.000 33.62 43.38
44.0(10) 1.000 33.64 43.49
46.0(10) 1.000 33.65 43.55
46.0(10) 1.000 33.67 43.57
43.0(10) 1.000 33.69 43.54
43.0(10) 1.000 33.70 43.46
43.0(10) 1.000 33.72 43.33
43.0(10) 1.000 33.74 43.18
42.0(10) 1.000 33.75 42.99
42.0(10) 1.000 33.77 42.73
42.0(10) 1.000 33.79 42.45
40.0(10) 1.000 33.80 42.13
40.0(10) 1.000 33.82 41.80
39.0(10) 1.000 33.84 41.45
40.0(10) 1.000 33.85 41.10
39.0(10) 1.000 33.87 40.76
38.0(10) 1.000 33.89 40.44
38.0(10) 1.000 33.91 40.13
41.0(10) 1.000 33.92 39.86
41.0(10) 1.000 33.94 39.63
38.0(10) 1.000 33.96 39.45
37.0(10) 1.000 33.98 39.32
39.0(10) 1.000 34.00 39.24
39.0(10) 1.000 34.01 39.23
38.0(10) 1.000 34.03 39.27
39.0(10) 1.000 34.05 39.38
40.0(10) 1.000 34.07 39.55
39.0(10) 1.000 34.09 39.78
39.0(10) 1.000 34.10 40.07
41.0(10) 1.000 34.12 40.41
41.0(10) 1.000 34.14 40.81
40.0(10) 1.000 34.16 41.25
41.0(10) 1.000 34.18 41.73
44.0(10) 1.000 34.20 42.24
43.0(10) 1.000 34.22 42.78
44.0(10) 1.000 34.23 43.33
43.0(10) 1.000 34.25 43.89
43.0(10) 1.000 34.27 44.45
45.0(10) 1.000 34.29 45.00
46.0(10) 1.000 34.31 45.53
46.0(10) 1.000 34.33 46.04
47.0(20) 0.2500 34.35 46.52
48.0(20) 0.2500 34.37 46.95
48.0(20) 0.2500 34.39 47.33
48.0(20) 0.2500 34.41 47.66
50.0(20) 0.2500 34.43 47.94
49.0(20) 0.2500 34.45 48.16
48.0(20) 0.2500 34.47 48.31
49.0(20) 0.2500 34.49 48.40
48.0(20) 0.2500 34.51 48.44
48.0(20) 0.2500 34.53 48.43
49.0(20) 0.2500 34.55 48.36
49.0(20) 0.2500 34.57 48.25
48.0(20) 0.2500 34.59 48.10
48.0(20) 0.2500 34.61 47.93
49.0(20) 0.2500 34.63 47.73
48.0(20) 0.2500 34.65 47.52
47.0(20) 0.2500 34.67 47.31
50.0(20) 0.2500 34.70 47.10
47.0(20) 0.2500 34.72 46.90
48.0(20) 0.2500 34.74 46.72
48.0(20) 0.2500 34.76 46.57
47.0(20) 0.2500 34.78 46.45
46.0(10) 1.000 34.80 46.35
45.0(10) 1.000 34.83 46.29
47.0(20) 0.2500 34.85 46.25
46.0(10) 1.000 34.87 46.26
47.0(20) 0.2500 34.89 46.28
46.0(10) 1.000 34.91 46.33
47.0(10) 1.000 34.94 46.39
46.0(10) 1.000 34.96 46.47
46.0(10) 1.000 34.98 46.55
46.0(10) 1.000 35.00 46.63
47.0(10) 1.000 35.03 46.71
47.0(10) 1.000 35.05 46.77
47.0(10) 1.000 35.07 46.81
47.0(10) 1.000 35.10 46.83
47.0(10) 1.000 35.12 46.82
47.0(10) 1.000 35.14 46.78
47.0(10) 1.000 35.17 46.71
48.0(10) 1.000 35.19 46.60
48.0(10) 1.000 35.22 46.45
45.0(10) 1.000 35.24 46.28
44.0(10) 1.000 35.27 46.07
46.0(10) 1.000 35.29 45.84
45.0(10) 1.000 35.31 45.58
44.0(10) 1.000 35.34 45.27
44.0(10) 1.000 35.36 44.98
44.0(10) 1.000 35.39 44.67
42.0(10) 1.000 35.42 44.36
44.0(10) 1.000 35.44 44.04
45.0(10) 1.000 35.47 43.72
43.0(10) 1.000 35.49 43.40
43.0(10) 1.000 35.52 43.09
44.0(10) 1.000 35.54 42.79
44.0(10) 1.000 35.57 42.50
42.0(10) 1.000 35.60 42.23
41.0(10) 1.000 35.62 41.98
41.0(10) 1.000 35.65 41.74
42.0(10) 1.000 35.68 41.51
41.0(10) 1.000 35.70 41.31
41.0(10) 1.000 35.73 41.12
42.0(10) 1.000 35.76 40.94
41.0(10) 1.000 35.79 40.79
40.0(10) 1.000 35.82 40.64
41.0(10) 1.000 35.84 40.51
40.0(10) 1.000 35.87 40.38
40.0(10) 1.000 35.90 40.27
40.0(10) 1.000 35.93 40.16
40.0(10) 1.000 35.96 40.06
40.0(10) 1.000 35.99 39.96
39.0(10) 1.000 36.02 39.87
39.0(10) 1.000 36.05 39.79
41.0(10) 1.000 36.08 39.70
40.0(10) 1.000 36.11 39.62
40.0(10) 1.000 36.14 39.54
40.0(10) 1.000 36.17 39.46
39.0(10) 1.000 36.20 39.38
39.0(10) 1.000 36.23 39.31
39.0(10) 1.000 36.26 39.24
39.0(10) 1.000 36.29 39.17
41.0(10) 1.000 36.32 39.11
40.0(10) 1.000 36.35 39.03
38.0(10) 1.000 36.39 38.97
39.0(10) 1.000 36.42 38.92
40.0(10) 1.000 36.45 38.87
39.0(10) 1.000 36.48 38.82
40.0(10) 1.000 36.52 38.77
39.0(10) 1.000 36.55 38.73
38.0(10) 1.000 36.58 38.69
38.0(10) 1.000 36.62 38.66
39.0(10) 1.000 36.65 38.63
39.0(10) 1.000 36.68 38.60
40.0(10) 1.000 36.72 38.58
39.0(10) 1.000 36.75 38.57
39.0(10) 1.000 36.79 38.56
38.0(10) 1.000 36.82 38.55
40.0(10) 1.000 36.86 38.55
39.0(10) 1.000 36.89 38.55
39.0(10) 1.000 36.93 38.56
40.0(10) 1.000 36.97 38.57
38.0(10) 1.000 37.00 38.59
39.0(10) 1.000 37.04 38.61
41.0(10) 1.000 37.08 38.63
41.0(10) 1.000 37.12 38.66
40.0(10) 1.000 37.15 38.70
40.0(10) 1.000 37.19 38.75
39.0(10) 1.000 37.23 38.79
38.0(10) 1.000 37.27 38.85
40.0(10) 1.000 37.31 38.91
40.0(10) 1.000 37.35 38.98
39.0(10) 1.000 37.39 39.05
40.0(10) 1.000 37.43 39.12
41.0(10) 1.000 37.47 39.21
40.0(10) 1.000 37.51 39.30
39.0(10) 1.000 37.55 39.39
39.0(10) 1.000 37.59 39.49
40.0(10) 1.000 37.63 39.60
40.0(10) 1.000 37.67 39.70
40.0(10) 1.000 37.71 39.82
41.0(10) 1.000 37.76 39.95
41.0(10) 1.000 37.80 40.07
42.0(10) 1.000 37.84 40.19
40.0(10) 1.000 37.89 40.32
40.0(10) 1.000 37.93 40.45
42.0(10) 1.000 37.98 40.59
41.0(10) 1.000 38.02 40.72
41.0(10) 1.000 38.07 40.85
42.0(10) 1.000 38.11 40.99
43.0(10) 1.000 38.16 41.12
42.0(10) 1.000 38.20 41.25
42.0(10) 1.000 38.25 41.38
42.0(10) 1.000 38.30 41.51
43.0(10) 1.000 38.34 41.64
42.0(10) 1.000 38.39 41.77
42.0(10) 1.000 38.44 41.89
42.0(10) 1.000 38.49 42.01
41.0(10) 1.000 38.54 42.13
42.0(10) 1.000 38.59 42.25
41.0(10) 1.000 38.64 42.36
42.0(10) 1.000 38.69 42.48
43.0(10) 1.000 38.74 42.59
44.0(10) 1.000 38.79 42.69
42.0(10) 1.000 38.84 42.80
43.0(10) 1.000 38.89 42.90
43.0(10) 1.000 38.95 43.03
44.0(10) 1.000 39.00 43.13
43.0(10) 1.000 39.05 43.24
43.0(10) 1.000 39.11 43.34
42.0(10) 1.000 39.16 43.45
44.0(10) 1.000 39.21 43.55
44.0(10) 1.000 39.27 43.66
43.0(10) 1.000 39.32 43.76
43.0(10) 1.000 39.38 43.87
43.0(10) 1.000 39.44 43.98
44.0(10) 1.000 39.49 44.09
45.0(10) 1.000 39.55 44.20
44.0(10) 1.000 39.61 44.31
44.0(10) 1.000 39.67 44.43
45.0(10) 1.000 39.73 44.55
43.0(10) 1.000 39.79 44.67
44.0(10) 1.000 39.85 44.80
45.0(10) 1.000 39.91 44.93
45.0(10) 1.000 39.97 45.06
46.0(10) 1.000 40.03 45.19
46.0(10) 1.000 40.09 45.33
46.0(10) 1.000 40.16 45.48
46.0(10) 1.000 40.22 45.62
45.0(10) 1.000 40.28 45.78
45.0(10) 1.000 40.35 45.93
46.0(10) 1.000 40.41 46.10
48.0(10) 1.000 40.48 46.26
46.0(10) 1.000 40.54 46.44
45.0(10) 1.000 40.61 46.62
44.0(10) 1.000 40.68 46.81
47.0(10) 1.000 40.74 47.00
48.0(10) 1.000 40.81 47.20
48.0(10) 1.000 40.88 47.41
47.0(10) 1.000 40.95 47.63
48.0(10) 1.000 41.02 47.85
49.0(10) 1.000 41.09 48.08
49.0(20) 0.2500 41.16 48.33
48.0(10) 1.000 41.23 48.58
50.0(20) 0.2500 41.31 48.83
49.0(20) 0.2500 41.38 49.10
49.0(20) 0.2500 41.45 49.38
50.0(20) 0.2500 41.53 49.66
49.0(20) 0.2500 41.60 49.96
49.0(20) 0.2500 41.68 50.27
50.0(20) 0.2500 41.75 50.58
50.0(20) 0.2500 41.83 50.91
50.0(20) 0.2500 41.91 51.24
50.0(20) 0.2500 41.99 51.58
53.0(20) 0.2500 42.07 51.93
53.0(20) 0.2500 42.15 52.28
53.0(20) 0.2500 42.23 52.64
51.0(20) 0.2500 42.31 53.00
52.0(20) 0.2500 42.39 53.36
53.0(20) 0.2500 42.47 53.73
53.0(20) 0.2500 42.55 54.09
53.0(20) 0.2500 42.64 54.45
55.0(20) 0.2500 42.72 54.81
55.0(20) 0.2500 42.81 55.17
56.0(20) 0.2500 42.89 55.53
55.0(20) 0.2500 42.98 55.87
54.0(20) 0.2500 43.07 56.20
53.0(20) 0.2500 43.15 56.52
57.0(20) 0.2500 43.24 56.83
57.0(20) 0.2500 43.33 57.12
56.0(20) 0.2500 43.42 57.39
58.0(20) 0.2500 43.51 57.65
58.0(20) 0.2500 43.61 57.88
59.0(20) 0.2500 43.70 58.10
58.0(20) 0.2500 43.79 58.29
59.0(20) 0.2500 43.89 58.47
59.0(20) 0.2500 43.98 58.62
60.0(20) 0.2500 44.08 58.74
57.0(20) 0.2500 44.17 58.85
58.0(20) 0.2500 44.27 58.93
59.0(20) 0.2500 44.37 58.99
58.0(20) 0.2500 44.47 59.02
57.0(20) 0.2500 44.57 59.03
57.0(20) 0.2500 44.67 59.02
58.0(20) 0.2500 44.77 58.99
59.0(20) 0.2500 44.87 58.94
57.0(20) 0.2500 44.97 58.87
58.0(20) 0.2500 45.08 58.79
58.0(20) 0.2500 45.18 58.69
58.0(20) 0.2500 45.29 58.57
56.0(20) 0.2500 45.40 58.44
59.0(20) 0.2500 45.50 58.30
57.0(20) 0.2500 45.61 58.15
56.0(20) 0.2500 45.72 57.99
58.0(20) 0.2500 45.83 57.83
58.0(20) 0.2500 45.94 57.66
56.0(20) 0.2500 46.05 57.49
54.0(20) 0.2500 46.17 57.32
57.0(20) 0.2500 46.28 57.15
61.0(20) 0.2500 46.39 56.99
57.0(20) 0.2500 46.51 56.82
54.0(20) 0.2500 46.63 56.67
55.0(20) 0.2500 46.74 56.51
55.0(20) 0.2500 46.86 56.37
55.0(20) 0.2500 46.98 56.23
60.0(20) 0.2500 47.10 56.11
55.0(20) 0.2500 47.22 56.00
54.0(20) 0.2500 47.35 55.90
54.0(20) 0.2500 47.47 55.81
56.0(20) 0.2500 47.59 55.73
56.0(20) 0.2500 47.72 55.67
56.0(20) 0.2500 47.84 55.61
56.0(20) 0.2500 47.97 55.58
53.0(20) 0.2500 48.10 55.55
56.0(20) 0.2500 48.23 55.54
56.0(20) 0.2500 48.36 55.54
55.0(20) 0.2500 48.49 55.56
57.0(20) 0.2500 48.62 55.59
56.0(20) 0.2500 48.75 55.63
55.0(20) 0.2500 48.89 55.68
55.0(20) 0.2500 49.02 55.74
55.0(20) 0.2500 49.16 55.82
59.0(20) 0.2500 49.30 55.90
55.0(20) 0.2500 49.44 56.00
57.0(20) 0.2500 49.58 56.10
56.0(20) 0.2500 49.72 56.21
55.0(20) 0.2500 49.86 56.34
53.0(20) 0.2500 50.00 56.46
55.0(20) 0.2500 50.15 56.60
56.0(20) 0.2500 50.29 56.74
59.0(20) 0.2500 50.44 56.89
59.0(20) 0.2500 50.58 57.04
58.0(20) 0.2500 50.73 57.19
56.0(20) 0.2500 50.88 57.35
55.0(20) 0.2500 51.03 57.51
56.0(20) 0.2500 51.18 57.67
58.0(20) 0.2500 51.34 57.83
59.0(20) 0.2500 51.49 58.00
57.0(20) 0.2500 51.65 58.16
57.0(20) 0.2500 51.80 58.32
60.0(20) 0.2500 51.96 58.49
59.0(20) 0.2500 52.12 58.65
58.0(20) 0.2500 52.28 58.81
58.0(20) 0.2500 52.44 58.93
60.0(20) 0.2500 52.60 59.09
57.0(20) 0.2500 52.76 59.25
60.0(20) 0.2500 52.93 59.40
62.0(20) 0.2500 53.09 59.54
60.0(20) 0.2500 53.26 59.68
60.0(20) 0.2500 53.43 59.82
58.0(20) 0.2500 53.60 59.95
58.0(20) 0.2500 53.77 60.08
59.0(20) 0.2500 53.94 60.21
62.0(20) 0.2500 54.11 60.33
65.0(20) 0.2500 54.29 60.44
61.0(20) 0.2500 54.46 60.55
61.0(20) 0.2500 54.64 60.66
62.0(20) 0.2500 54.82 60.77
65.0(20) 0.2500 55.00 60.86
60.0(20) 0.2500 55.18 60.96
61.0(20) 0.2500 55.36 61.05
60.0(20) 0.2500 55.54 61.14
58.0(20) 0.2500 55.73 61.23
61.0(20) 0.2500 55.91 61.31
63.0(20) 0.2500 56.10 61.39
61.0(20) 0.2500 56.29 61.47
64.0(20) 0.2500 56.48 61.55
63.0(20) 0.2500 56.67 61.63
61.0(20) 0.2500 56.86 61.70
64.0(20) 0.2500 57.05 61.77
63.0(20) 0.2500 57.25 61.85
64.0(20) 0.2500 57.44 61.93
64.0(20) 0.2500 57.64 62.00
64.0(20) . . .
63.0(20) . . .
65.0(20) . . .
68.0(30) . . .
66.0(20) . . .
66.0(20) . . .
65.0(20) . . .
66.0(20) . . .
62.0(20) . . .
66.0(20) . . .
62.0(20) . . .
65.0(20) . . .
65.0(20) . . .
64.0(20) . . .
67.0(30) . . .
70.0(30) . . .
67.0(30) . . .
65.0(20) . . .
69.0(30) . . .
69.0(30) . . .
loop_
_refln_index_h
_refln_index_k
_refln_index_l
_refln_observed_status
_refln_F_squared_meas
_refln_F_squared_calc
_refln_phase_calc
_refln_d_spacing
_gsas_i100_meas
1 0 1 o 0.012 0.068 0.00 4.90449 0.11
1 1 0 o 0.279 0.315 180.00 4.28053 1.84
0 0 2 o 0.155 0.131 0.00 4.27429 0.51
1 1 1 o 0.718 0.571 180.00 3.82750 7.59
0 2 0 o 5.637 5.323 0.00 3.06068 9.65
1 1 2 o 4.709 5.059 180.00 3.02458 31.52
2 0 0 o 1.937 1.912 0.00 2.99400 3.18
0 2 1 o 0.152 0.351 0.00 2.88156 0.46
1 2 0 o 2.371 2.706 180.00 2.72531 6.49
2 1 0 o 8.435 8.500 180.00 2.68953 22.53
1 2 1 o 5.269 4.912 180.00 2.59655 26.32
1 0 3 o 22.379 22.823 0.00 2.57304 54.93
2 1 1 o 7.021 6.982 0.00 2.56555 34.28
0 2 2 o 27.363 26.566 180.00 2.48848 63.03
2 0 2 o 17.417 17.228 180.00 2.45224 39.02
1 1 3 o 4.782 4.950 0.00 2.37201 20.12
1 2 2 o 7.099 6.959 180.00 2.29795 28.15
2 1 2 o 2.338 2.085 180.00 2.27638 9.11
2 2 0 o 57.581 55.567 0.00 2.14026 100.00
0 0 4 o 56.708 55.437 0.00 2.13715 49.11
0 2 3 o 5.377 5.287 0.00 2.08558 8.90
2 2 1 o 2.985 2.893 180.00 2.07618 9.80
1 2 3 o 3.539 3.610 180.00 1.96953 10.55
2 1 3 o 2.960 2.799 180.00 1.95590 8.72
3 0 1 o 5.729 5.767 180.00 1.94372 8.34
1 3 0 o 5.631 5.321 180.00 1.93140 8.10
2 2 2 o 1.889 1.643 0.00 1.91375 5.35
1 1 4 o 1.062 0.875 180.00 1.91208 3.00
3 1 0 o 0.290 0.088 0.00 1.89767 0.40
1 3 1 o 11.198 11.042 180.00 1.88392 30.81
3 1 1 o 1.875 2.366 180.00 1.85257 5.00
1 3 2 o 9.923 9.697 180.00 1.76005 24.18
0 2 4 o 28.475 27.040 0.00 1.75225 34.43
2 0 4 o 18.963 18.119 0.00 1.73946 22.64
3 1 2 o 32.823 32.726 180.00 1.73441 77.96
2 2 3 o 0.776 0.355 180.00 1.71131 1.80
2 3 0 o 0.000 0.046 0.00 1.68612 0.00
1 2 4 o 0.010 0.057 0.00 1.68173 0.02
2 1 4 o 0.892 0.917 180.00 1.67322 1.99
3 2 0 o 5.967 6.773 0.00 1.67190 6.65
2 3 1 o 0.585 0.906 0.00 1.65425 1.28
1 0 5 o 6.516 6.842 0.00 1.64402 7.05
3 2 1 o 0.273 0.289 180.00 1.64081 0.59
3 0 3 o 0.000 0.507 180.00 1.63483 0.00
1 3 3 o 5.734 5.744 0.00 1.59876 11.83
1 1 5 o 0.014 0.002 0.00 1.58775 0.03
3 1 3 o 4.797 4.806 180.00 1.57947 9.70
2 3 2 o 4.685 4.739 0.00 1.56849 9.36
3 2 2 o 0.000 0.045 180.00 1.55702 0.00
0 4 0 o 28.634 27.926 0.00 1.53034 13.72
2 2 4 o 22.925 22.655 0.00 1.51229 43.10
0 4 1 o 3.212 2.959 180.00 1.50639 3.00
4 0 0 o 14.706 14.259 0.00 1.49700 6.80
0 2 5 o 4.469 4.260 0.00 1.49262 4.11
1 4 0 o 23.366 24.088 0.00 1.48269 21.26
1 4 1 o 0.054 0.001 180.00 1.46087 0.10
4 1 0 o 13.327 12.846 0.00 1.45415 11.75
2 3 3 o 10.024 9.997 180.00 1.45111 17.62
1 2 5 o 16.154 16.118 180.00 1.44831 28.30
2 1 5 o 8.865 9.071 0.00 1.44286 15.44
3 2 3 o 9.149 9.277 0.00 1.44201 15.92
0 4 2 o 0.306 0.307 0.00 1.44078 0.27
4 1 1 o 1.674 1.530 0.00 1.43356 2.89
1 3 4 o 2.440 2.233 180.00 1.43294 4.20
3 3 0 o 9.503 9.598 0.00 1.42684 8.13
0 0 6 o 21.179 21.458 180.00 1.42476 9.04
3 1 4 o 1.099 1.017 0.00 1.41900 1.86
4 0 2 o 3.980 4.023 0.00 1.41285 3.35
3 3 1 o 0.332 0.333 180.00 1.40737 0.56
1 4 2 o 2.752 2.570 0.00 1.40080 4.57
4 1 2 o 7.875 8.049 0.00 1.37666 12.74
2 4 0 o 4.023 3.425 0.00 1.36265 3.20
3 3 2 o 3.136 3.018 180.00 1.35342 4.94
1 1 6 o 6.295 6.229 180.00 1.35185 9.90
0 4 3 o 7.382 7.623 180.00 1.34821 5.78
2 4 1 o 0.430 0.448 180.00 1.34567 0.67
4 2 0 o 1.337 1.275 0.00 1.34477 1.04
2 2 5 o 7.410 7.248 180.00 1.33582 11.45
4 2 1 o 3.229 3.335 180.00 1.32843 4.95
2 3 4 o 0.934 0.861 180.00 1.32374 1.42
3 2 4 o 1.951 2.104 0.00 1.31682 2.95
1 4 3 o 2.813 3.031 0.00 1.31529 4.25
3 0 5 o 14.301 13.748 180.00 1.29848 10.59
2 4 2 o 0.377 0.365 180.00 1.29828 0.56
4 1 3 o 5.944 6.209 180.00 1.29524 8.77
0 2 6 o 0.566 0.362 180.00 1.29167 0.42
2 0 6 o 0.061 0.098 0.00 1.28652 0.04
4 2 2 o 0.087 0.081 0.00 1.28278 0.13
1 3 5 o 12.621 12.356 180.00 1.28019 18.32
3 3 3 o 7.434 7.507 0.00 1.27583 10.74
3 1 5 o 10.482 10.647 180.00 1.27022 15.04
1 2 6 o 0.009 0.014 0.00 1.26263 0.01
2 1 6 o 1.449 1.668 0.00 1.25902 2.05
0 4 4 o 13.949 14.289 0.00 1.24424 9.72
2 4 3 o 17.506 16.910 0.00 1.22932 24.01
4 0 4 o 5.534 5.699 0.00 1.22612 3.78
1 4 4 o 3.492 3.669 0.00 1.21822 4.73
4 2 3 o 6.062 6.279 0.00 1.21614 8.19
3 4 0 o 0.013 0.012 180.00 1.21447 0.01
4 3 0 o 5.574 5.533 180.00 1.20700 3.73
3 4 1 o 1.088 1.291 180.00 1.20239 1.45
4 1 4 o 0.334 0.393 0.00 1.20224 0.44
2 3 5 o 0.051 0.053 180.00 1.20052 0.07
1 5 0 o 0.127 0.125 180.00 1.19946 0.08
1 0 7 o 11.031 11.237 0.00 1.19659 7.30
3 2 5 o 0.303 0.305 0.00 1.19536 0.40
4 3 1 o 4.147 4.153 0.00 1.19515 5.48
1 5 1 o 13.629 14.130 180.00 1.18782 17.87
3 3 4 o 0.958 0.972 0.00 1.18667 1.25
5 0 1 o 0.952 0.964 0.00 1.18602 0.62
2 2 6 o 4.041 4.092 180.00 1.18601 5.29
5 1 0 o 11.045 11.218 0.00 1.17532 7.14
1 1 7 o 3.019 3.153 0.00 1.17437 3.90
3 4 2 o 12.073 12.135 180.00 1.16823 15.50
5 1 1 o 1.235 1.198 0.00 1.16437 1.58
4 3 2 o 1.878 2.116 180.00 1.16158 2.39
1 5 2 o 0.721 0.614 180.00 1.15485 0.91
2 4 4 o 8.151 8.669 0.00 1.14897 10.26
1 3 6 o 3.083 3.031 180.00 1.14655 3.87
0 4 5 o 13.341 14.012 180.00 1.14028 8.32
3 1 6 o 16.879 17.529 180.00 1.13937 21.03
4 2 4 o 4.563 4.640 0.00 1.13819 5.68
0 2 7 o 2.471 2.516 0.00 1.13427 1.53
5 1 2 o 21.377 21.652 180.00 1.13326 26.47
2 5 0 o 1.752 1.772 180.00 1.13319 1.08
2 5 1 o 1.354 1.349 0.00 1.12337 1.66
1 4 5 o 0.206 0.384 0.00 1.12015 0.25
3 4 3 o 0.000 0.031 180.00 1.11723 0.00
5 2 0 o 0.105 0.247 0.00 1.11526 0.06
1 2 7 o 0.469 0.646 180.00 1.11445 0.57
2 1 7 o 2.813 2.667 180.00 1.11196 3.41
4 3 3 o 1.924 1.792 0.00 1.11141 2.33
4 1 5 o 0.329 0.281 0.00 1.10769 0.40
5 2 1 o 0.355 0.339 0.00 1.10589 0.43
1 5 3 o 14.212 13.407 0.00 1.10551 17.12
5 0 3 o 1.036 0.580 180.00 1.10406 0.62
3 3 5 o 0.181 0.268 0.00 1.09548 0.22
2 5 2 o 1.538 2.235 0.00 1.09535 1.84
2 3 6 o 0.198 0.250 0.00 1.08827 0.23
5 1 3 o 8.871 9.440 0.00 1.08653 10.50
3 2 6 o 2.626 2.812 180.00 1.08441 3.10
5 2 2 o 0.000 0.019 180.00 1.07913 0.00
4 4 0 o 7.417 7.205 0.00 1.07013 4.33
0 0 8 o 8.487 8.359 0.00 1.06857 2.47
2 4 5 o 1.122 1.204 0.00 1.06561 1.30
4 4 1 o 12.752 13.118 180.00 1.06184 14.77
2 2 7 o 0.043 0.045 180.00 1.06070 0.05
4 2 5 o 2.097 2.000 180.00 1.05699 2.42
3 4 4 o 2.513 2.537 0.00 1.05589 2.90
2 5 3 o 1.794 1.858 0.00 1.05299 2.06
4 3 4 o 0.309 0.276 180.00 1.05097 0.35
1 5 4 o 1.569 1.596 180.00 1.04598 1.79
3 5 0 o 15.485 15.460 180.00 1.04360 8.84
0 4 6 o 1.389 1.358 180.00 1.04279 0.79
3 0 7 o 0.021 0.020 0.00 1.04171 0.01
5 2 3 o 1.022 0.936 180.00 1.03855 1.16
4 4 2 o 3.542 3.331 0.00 1.03809 4.03
1 1 8 o 2.012 2.014 180.00 1.03676 2.28
3 5 1 o 2.375 2.449 180.00 1.03591 2.70
5 3 0 o 3.307 3.238 180.00 1.03284 1.87
1 3 7 o 5.705 5.444 0.00 1.03220 6.46
4 0 6 o 0.156 0.148 0.00 1.03205 0.09
5 1 4 o 5.889 5.441 0.00 1.02986 6.65
1 4 6 o 6.548 6.173 180.00 1.02733 7.38
3 1 7 o 2.067 1.933 180.00 1.02695 2.33
5 3 1 o 1.511 1.186 180.00 1.02539 1.70
0 6 0 o 6.739 5.324 0.00 1.02023 1.89
4 1 6 o 1.827 1.721 180.00 1.01769 2.05
3 5 2 o 19.421 19.287 180.00 1.01382 21.71
0 6 1 o 0.503 0.487 0.00 1.01304 0.28
0 2 8 o 59.659 58.966 0.00 1.00885 33.24
3 3 6 o 19.641 19.454 180.00 1.00819 21.88
2 0 8 o 45.797 45.774 0.00 1.00640 25.48
1 6 0 o 4.444 4.458 180.00 1.00573 2.47
5 3 2 o 42.344 41.804 180.00 1.00395 47.05
4 4 3 o 5.651 5.330 0.00 1.00182 6.27
2 5 4 o 1.655 1.531 180.00 1.00116 1.84
1 6 1 o 0.038 0.034 0.00 0.99884 0.04
6 0 0 o 13.385 11.928 0.00 0.99800 3.71
1 2 8 o 5.336 5.003 0.00 0.99483 5.90
2 1 8 o 1.460 1.340 0.00 0.99306 1.61
0 6 2 o 6.738 6.247 0.00 0.99235 3.72
2 3 7 o 7.151 6.737 180.00 0.98905 7.88
3 4 5 o 2.772 2.594 180.00 0.99010 3.06
5 2 4 o 0.236 0.225 0.00 0.98873 0.26
3 2 7 o 4.388 4.445 0.00 0.98616 4.83
4 3 5 o 13.123 13.281 0.00 0.98604 14.45
6 1 0 o 7.037 7.028 180.00 0.98500 3.87
2 4 6 o 1.055 1.050 0.00 0.98477 1.16
1 5 5 o 13.115 12.815 180.00 0.98192 14.41
5 0 5 o 0.683 0.669 0.00 0.98090 0.38
3 5 3 o 2.274 2.215 0.00 0.97995 2.50
1 6 2 o 13.732 13.268 180.00 0.97900 15.07
6 1 1 o 0.004 0.004 0.00 0.97852 0.00
4 2 6 o 3.485 3.298 0.00 0.97795 3.82
6 0 2 o 2.803 2.741 0.00 0.97186 1.53
5 3 3 o 2.208 2.303 180.00 0.97102 2.42
5 1 5 o 9.064 9.268 0.00 0.96854 9.91
2 6 0 o 0.918 0.700 0.00 0.96570 0.50
0 6 3 o 11.241 11.156 0.00 0.96052 6.14
6 1 2 o 8.794 8.777 180.00 0.95984 9.60
2 6 1 o 7.163 7.148 180.00 0.95960 7.82
4 4 4 o 3.744 3.595 0.00 0.95688 4.08
2 2 8 o 3.664 3.489 0.00 0.95604 4.00
0 4 7 o 3.300 3.473 180.00 0.95454 1.80
6 2 0 o 1.749 2.726 0.00 0.94883 0.95
1 6 3 o 0.252 0.357 0.00 0.94840 0.27
4 5 0 o 0.071 0.092 180.00 0.94770 0.04
2 5 5 o 5.231 5.606 0.00 0.94456 5.70
5 4 0 o 0.217 0.229 0.00 0.94313 0.12
6 2 1 o 1.786 1.889 180.00 0.94304 1.95
1 4 7 o 0.898 0.955 0.00 0.94264 0.98
2 6 2 o 1.139 1.220 0.00 0.94196 1.24
4 5 1 o 0.609 0.652 180.00 0.94193 0.66
1 0 9 o 0.894 0.935 180.00 0.93811 0.49
3 5 4 o 2.491 2.539 180.00 0.93777 2.71
5 4 1 o 0.142 0.143 0.00 0.93745 0.15
4 1 7 o 4.403 4.218 180.00 0.93518 4.80
1 3 8 o 0.366 0.349 180.00 0.93501 0.40
5 2 5 o 0.229 0.208 0.00 0.93410 0.25
3 1 8 o 3.003 2.728 0.00 0.93110 3.28
6 1 3 o 1.343 1.224 0.00 0.93095 1.46
5 3 4 o 0.163 0.151 0.00 0.92994 0.18
3 3 7 o 3.620 3.751 0.00 0.92780 3.95
1 1 9 o 0.661 0.709 180.00 0.92729 0.72
6 2 2 o 0.134 0.141 0.00 0.92629 0.15
4 5 2 o 0.023 0.020 0.00 0.92523 0.02
3 4 6 o 0.967 0.812 180.00 0.92425 1.06
5 4 2 o 0.297 0.319 180.00 0.92098 0.32
4 3 6 o 1.097 1.177 0.00 0.92095 1.20
0 6 4 o 3.061 3.255 0.00 0.92070 1.67
1 5 6 o 3.874 4.052 180.00 0.91759 4.24
2 6 3 o 0.527 0.461 180.00 0.91461 0.58
1 6 4 o 0.487 0.416 0.00 0.91000 0.54
2 4 7 o 9.755 8.996 0.00 0.90944 10.72
3 6 0 o 16.344 15.917 0.00 0.90844 8.99
0 2 9 o 0.026 0.026 0.00 0.90716 0.01
4 4 5 o 15.460 15.327 180.00 0.90710 17.02
5 1 6 o 31.046 30.721 180.00 0.90664 34.19
3 6 1 o 0.040 0.039 180.00 0.90335 0.04
6 0 4 o 8.010 7.682 0.00 0.90426 4.42
4 2 7 o 4.275 4.090 0.00 0.90407 4.72
2 3 8 o 4.170 4.041 180.00 0.90258 4.61
3 2 8 o 0.042 0.043 0.00 0.90038 0.05
6 2 3 o 4.460 4.472 0.00 0.90024 4.93
4 5 3 o 8.667 8.430 180.00 0.89927 9.60
1 2 9 o 0.818 0.818 180.00 0.89693 0.91
6 3 0 o 11.515 11.522 0.00 0.89651 6.39
2 1 9 o 4.783 4.786 0.00 0.89563 5.31
5 4 3 o 0.016 0.016 0.00 0.89537 0.02
6 1 4 o 0.001 0.001 0.00 0.89456 0.00
6 3 1 o 1.247 1.071 180.00 0.89162 1.39
3 5 5 o 1.834 1.704 180.00 0.89077 2.05
3 6 2 o 0.090 0.114 180.00 0.88859 0.10
2 5 6 o 1.777 2.092 0.00 0.88688 1.99
5 3 5 o 4.587 4.600 180.00 0.88405 5.16
2 6 4 o 0.613 1.158 0.00 0.88003 0.69
5 2 6 o 0.019 0.027 180.00 0.87821 0.02
6 3 2 o 0.001 0.002 0.00 0.87742 0.00
0 4 8 o 5.404 5.375 0.00 0.87613 3.07
0 6 5 o 6.963 6.883 0.00 0.87610 3.96
4 0 8 o 0.866 1.071 0.00 0.86973 0.50
2 2 9 o 0.794 0.843 180.00 0.86819 0.92
6 2 4 o 3.549 3.673 0.00 0.86721 4.10
1 4 8 o 1.658 1.703 180.00 0.86690 1.92
1 6 5 o 0.537 0.552 0.00 0.86687 0.62
4 5 4 o 0.255 0.259 180.00 0.86634 0.29
3 6 3 o 0.000 0.000 180.00 0.86552 0.00
1 7 0 o 6.718 6.742 180.00 0.86530 3.90
5 4 4 o 0.114 0.121 0.00 0.86285 0.13
3 4 7 o 0.078 0.081 0.00 0.86114 0.09
4 1 8 o 5.834 6.076 180.00 0.86108 6.83
1 7 1 o 8.600 8.836 180.00 0.86090 10.08
3 0 9 o 1.859 1.673 180.00 0.85768 1.10
4 3 7 o 0.711 0.605 0.00 0.85846 0.84
5 5 0 o 6.747 6.621 0.00 0.85611 4.00
1 5 7 o 10.397 10.201 0.00 0.85574 12.34
4 4 6 o 0.788 0.772 0.00 0.85566 0.94
3 3 8 o 2.197 2.148 180.00 0.85531 2.61
6 3 3 o 3.052 2.980 180.00 0.85518 3.63
5 0 7 o 1.174 1.145 180.00 0.85506 0.70
0 0 10 o 24.506 23.839 180.00 0.85486 7.29
6 1 5 o 0.412 0.395 0.00 0.85349 0.49
1 3 9 o 6.332 6.094 180.00 0.85235 7.59
5 5 1 o 0.139 0.134 180.00 0.85184 0.17
7 0 1 o 8.583 8.158 0.00 0.85118 5.16
3 1 9 o 0.342 0.310 180.00 0.84938 0.41
1 7 2 o 2.782 2.670 180.00 0.84810 3.37
7 1 0 o 0.048 0.049 180.00 0.84720 0.03
5 1 7 o 3.662 3.790 0.00 0.84684 4.46
7 1 1 o 1.526 1.702 180.00 0.84307 1.88
4 6 0 o 1.359 1.514 0.00 0.84306 0.84
3 5 6 o 0.912 0.939 180.00 0.84191 1.13
2 4 8 o 13.243 13.111 0.00 0.84086 16.48
2 6 5 o 16.124 15.954 180.00 0.84084 20.06
5 5 2 o 0.020 0.019 0.00 0.83943 0.02
2 7 0 o 6.091 5.840 180.00 0.83941 3.81
4 6 1 o 8.584 8.148 180.00 0.83899 10.76
1 1 10 o 5.273 4.953 180.00 0.83830 6.63
4 2 8 o 8.056 7.839 0.00 0.83661 10.19
5 3 6 o 8.942 8.832 180.00 0.83623 11.33
3 6 4 o 4.617 4.596 0.00 0.83604 5.86
6 4 0 o 2.980 2.978 0.00 0.83595 1.89
2 7 1 o 1.101 1.124 180.00 0.83539 1.40
6 4 1 o 8.458 8.159 180.00 0.83198 10.93
7 1 2 o 17.645 16.909 180.00 0.83103 22.90
2 5 7 o 0.765 0.732 0.00 0.83067 0.99
6 2 5 o 0.694 0.662 180.00 0.82964 0.91
0 6 6 o 2.667 2.548 0.00 0.82949 1.74
4 5 5 o 6.825 6.562 180.00 0.82888 8.96
1 7 3 o 13.247 12.979 0.00 0.82797 17.46
2 3 9 o 1.321 1.307 0.00 0.82757 1.75
4 6 2 o 1.964 1.959 0.00 0.82712 2.60
6 3 4 o 2.434 2.444 0.00 0.82672 3.23
3 2 9 o 1.783 1.825 180.00 0.82587 2.38
5 4 5 o 0.251 0.257 0.00 0.82582 0.33
7 2 0 o 1.714 1.780 180.00 0.82386 1.16
2 7 2 o 0.034 0.034 0.00 0.82367 0.05
5 2 7 o 0.361 0.363 180.00 0.82353 0.49
0 2 10 o 0.131 0.130 0.00 0.82335 0.09
2 0 10 o 1.767 1.454 0.00 0.82201 1.21
1 6 6 o 0.114 0.092 0.00 0.82165 0.16
6 4 2 o 1.361 1.199 0.00 0.82040 1.88
7 2 1 o 2.455 2.262 0.00 0.82006 3.39
5 5 3 o 0.418 0.392 0.00 0.81990 0.58
7 0 3 o 0.968 0.943 180.00 0.81931 0.67
6 0 6 o 0.696 0.622 0.00 0.81741 0.49
1 2 10 o 0.594 0.597 0.00 0.81567 0.85
2 1 10 o 3.085 3.232 0.00 0.81470 4.43
7 1 3 o 3.103 2.862 180.00 0.81207 4.55
6 1 6 o 0.703 0.662 0.00 0.81022 1.05
7 2 2 o 0.534 0.523 180.00 0.80897 0.81
4 6 3 o 17.078 17.374 0.00 0.80842 25.89
0 4 9 o 0.166 0.180 180.00 0.80703 0.13
2 7 3 o 0.400 0.416 180.00 0.80520 0.63
4 4 7 o 5.812 5.989 0.00 0.80485 9.14
3 4 8 o 9.788 9.994 0.00 0.80224 15.86
3 6 5 o 0.156 0.159 180.00 0.80223 0.25
6 4 3 o 3.049 3.119 0.00 0.80214 4.94
1 7 4 o 3.444 3.530 180.00 0.80205 5.59
3 7 0 o 0.077 0.080 180.00 0.80098 0.06
4 3 8 o 1.521 1.545 0.00 0.80008 2.53
1 4 9 o 0.610 0.611 180.00 0.79980 1.02
2 6 6 o 2.346 2.306 0.00 0.79938 3.94
1 5 8 o 4.809 4.875 180.00 0.79787 8.25
3 7 1 o 3.195 3.338 180.00 0.79749 5.51
4 1 9 o 1.563 1.623 0.00 0.79523 2.79
5 5 4 o 0.006 0.006 180.00 0.79471 0.01
6 3 5 o 5.413 5.322 180.00 0.79398 9.88
3 5 7 o 2.389 2.329 0.00 0.79338 4.41
2 2 10 o 4.417 4.333 180.00 0.79388 8.07
7 2 3 o 8.549 8.554 180.00 0.79144 16.35
3 3 9 o 0.798 0.805 180.00 0.79067 1.55
5 1 8 o 1.031 1.040 0.00 0.79065 2.00
6 2 6 o 1.040 1.040 0.00 0.78974 2.06
4 5 6 o 0.001 0.001 180.00 0.78908 0.00
7 3 0 o 3.313 3.200 0.00 0.78891 3.34
5 3 7 o 0.707 0.669 180.00 0.78862 1.44
7 1 4 o 0.112 0.095 0.00 0.78757 0.23
3 7 2 o 0.948 0.776 0.00 0.78728 1.99
5 4 6 o 0.424 0.324 180.00 0.78644 0.91
7 3 1 o 0.342 0.264 180.00 0.78557 0.75
4 6 4 o 2.216 1.968 0.00 0.78424 5.06
0 6 7 o 4.160 4.160 0.00 0.78296 4.96
1 3 10 o 1.232 1.269 180.00 0.78171 3.07
2 7 4 o 2.390 2.472 180.00 0.78130 6.06
3 1 10 o 10.122 10.619 180.00 0.77942 27.91
2 4 9 o 1.226 1.287 180.00 0.77922 3.42
6 4 4 o 3.094 3.241 0.00 0.77851 8.94
2 5 8 o 1.542 1.595 180.00 0.77744 4.75
5 6 0 o 0.114 0.115 0.00 0.77663 0.18
1 6 7 o 0.548 0.547 0.00 0.77635 1.82
4 2 9 o 3.138 3.061 180.00 0.77583 10.83
7 3 2 o 2.585 2.518 180.00 0.77580 8.94
