#------------------------------------------------------------------------------
#$Date: 2016-03-21 01:21:50 +0200 (Mon, 21 Mar 2016) $
#$Revision: 178377 $
#$URL: svn://www.crystallography.net/cod/cif/4/00/07/4000790.cif $
#------------------------------------------------------------------------------
#
# This file is available in the Crystallography Open Database (COD),
# http://www.crystallography.net/
#
# All data on this site have been placed in the public domain by the
# contributors.
#
data_4000790
loop_
_publ_author_name
'Reeves-McLaren, Nik'
'Smith, Ronald I.'
'West, Anthony R.'
_publ_section_title
;
 Lithium-Ion Conduction Pathways in Complex Lithium Spinels Li2MGe3O8(M =
 Ni or Zn)
;
_journal_issue                   15
_journal_name_full               'Chemistry of Materials'
_journal_page_first              3556
_journal_paper_doi               10.1021/cm201429f
_journal_volume                  23
_journal_year                    2011
_chemical_formula_sum            'Ge3 Li2 Ni O8'
_chemical_formula_weight         418.34
_chemical_name_systematic        ' ?'
_space_group_IT_number           212
_symmetry_cell_setting           cubic
_symmetry_space_group_name_Hall  'P 4acd 2ab 3'
_symmetry_space_group_name_H-M   'P 43 3 2'
_audit_creation_date             2011-07-04T15:48
_audit_creation_method           'from EXP file using GSAS2CIF'
_audit_update_record
' 2011-07-04T15:48  Initial CIF as created by GSAS2CIF'
_cell_angle_alpha                90.0
_cell_angle_beta                 90.0
_cell_angle_gamma                90.0
_cell_formula_units_Z            4
_cell_length_a                   8.19851(11)
_cell_length_b                   8.19851
_cell_length_c                   8.19851
_cell_volume                     551.067(7)
_computing_structure_refinement  GSAS
_diffrn_radiation_probe          neutron
_exptl_absorpt_correction_T_max  1.00000
_exptl_absorpt_correction_T_min  1.00000
_exptl_absorpt_process_details
;   GSAS Absorption/surface roughness correction: function number 0
 No correction is applied.
;
_pd_block_id                     2011-07-04T15:48|LNG3-RT-TRY2|nik|polaris
_pd_calc_method                  'Rietveld Refinement'
_pd_instr_location               ' ?'
_pd_meas_2theta_fixed            90.00
_pd_meas_number_of_points        5525
_pd_phase_name                   'Li2NiGe3O8 RT'
_pd_proc_info_datetime           2011-07-04T15:48:58
_pd_proc_info_excluded_regions   ' ?'
_pd_proc_ls_background_function
;   GSAS Background function number 1 with  6 terms.
 Shifted Chebyshev function of 1st kind
      1:    5.94673     2:   -1.58216     3:    1.06436     4:  -0.715751    
      5:   0.284271     6:  -0.296381    
;
_pd_proc_ls_peak_cutoff          0.00100
_pd_proc_ls_profile_function
;
 TOF Profile function number 3 with  21 terms
 Profile coefficients for exponential pseudovoigt
  convolution Von Dreele, 1990 (unpublished)
 Peak tails are ignored  where the intensity is below 0.0010 times the peak
   Aniso. broadening axis   0.0   0.0   1.0
;
_pd_proc_ls_prof_R_factor        0.0377
_pd_proc_ls_prof_wR_expected     0.0154
_pd_proc_ls_prof_wR_factor       0.0236
_pd_proc_number_of_points        5525
_pd_spec_mounting                ' ?'
_refine_ls_goodness_of_fit_all   1.53
_refine_ls_matrix_type           full
_refine_ls_number_parameters     24
_refine_ls_number_restraints     0
_refine_ls_R_Fsqd_factor         0.05515
_refine_ls_shift/su_max          0.08
_refine_ls_shift/su_mean         0.01
_reflns_d_resolution_high        0.219
_reflns_d_resolution_low         3.666
_reflns_limit_h_max              43
_reflns_limit_h_min              1
_reflns_limit_k_max              30
_reflns_limit_k_min              0
_reflns_limit_l_max              25
_reflns_limit_l_min              0
_reflns_number_total             5252
_cod_data_source_file            cm201429f_si_003.cif
_cod_data_source_block           LNG3-RT-TRY2_publ
_cod_depositor_comments
;
The following automatic conversions were performed:

'_geom_bond_publ_flag' value 'N' changed to 'n' according to
/home/saulius/struct/CIF-dictionaries/cif_core.dic dictionary named
'cif_core.dic' version 2.4.1 from 2010-06-29 (37
times).

'_geom_angle_publ_flag' value 'N' changed to 'n' according
to /home/saulius/struct/CIF-dictionaries/cif_core.dic dictionary
named 'cif_core.dic' version 2.4.1 from 2010-06-29 (48 times).

Automatic conversion script
Id: cif_fix_values 1715 2011-07-08 13:25:40Z adriana 
;
_cod_original_cell_volume        551.067(22)
_cod_database_code               4000790
#BEGIN Tags that were not found in dictionaries:
_gsas_exptl_extinct_corr_t_min   1.00000
_gsas_exptl_extinct_corr_t_max   1.00000
#END Tags that were not found in dictionaries
loop_
_symmetry_equiv_pos_site_id
_symmetry_equiv_pos_as_xyz
1 +x,+y,+z
2 +z,+x,+y
3 +y,+z,+x
4 -y+3/4,+x+1/4,+z+3/4
5 +z+3/4,-y+3/4,+x+1/4
6 +x+1/4,+z+3/4,-y+3/4
7 -x+1/2,-y,+z+1/2
8 -z,+x+1/2,-y+1/2
9 -y+1/2,-z,+x+1/2
10 +x+1/2,-y+1/2,-z
11 +z+1/2,-x+1/2,-y
12 -y,+z+1/2,-x+1/2
13 +y+3/4,-x+3/4,+z+1/4
14 +z+1/4,+y+3/4,-x+3/4
15 -x+3/4,+z+1/4,+y+3/4
16 -x+1/4,-z+1/4,-y+1/4
17 -y+1/4,-x+1/4,-z+1/4
18 -z+1/4,-y+1/4,-x+1/4
19 +y+1/2,-z+1/2,-x
20 +y+1/4,+x+3/4,-z+3/4
21 -z+3/4,+y+1/4,+x+3/4
22 +x+3/4,-z+3/4,+y+1/4
23 -x,+y+1/2,-z+1/2
24 -z+1/2,-x,+y+1/2
loop_
_atom_site_type_symbol
_atom_site_label
_atom_site_fract_x
_atom_site_fract_y
_atom_site_fract_z
_atom_site_occupancy
_atom_site_thermal_displace_type
_atom_site_U_iso_or_equiv
_atom_site_symmetry_multiplicity
Li Li-8c 0.0040(6) 0.0040(6) 0.0040(6) 1.0 Uiso 0.0118(4) 8
Ni Ni-4b 0.625 0.625 0.625 1.0 Uiso 0.00354(22) 4
Ge Ge-12d 0.125 0.37773(8) 0.87226(8) 1.0 Uiso 0.00222(8) 12
O O1-8c 0.38454(10) 0.38454(10) 0.38454(10) 1.0 Uiso 0.00328(22) 8
O O2-24e 0.10016(12) 0.12643(10) 0.39408(12) 1.0 Uiso 0.00345(10) 24
loop_
_atom_type_symbol
_atom_type_number_in_cell
_atom_type_scat_length_neutron
_atom_type_scat_source
Li 8.0 -0.1900 International_Tables_Vol_C
Ni 4.0 1.0300 International_Tables_Vol_C
Ge 12.0 0.8185 International_Tables_Vol_C
O 32.0 0.5805 International_Tables_Vol_C
loop_
_geom_angle_atom_site_label_1
_geom_angle_atom_site_label_2
_geom_angle_atom_site_label_3
_geom_angle
_geom_angle_site_symmetry_1
_geom_angle_site_symmetry_3
_geom_angle_publ_flag
O1-8c Li-8c O2-24e 106.39(22) 16_555 16_555 n
O1-8c Li-8c O2-24e 106.39(22) 16_555 17_555 n
O1-8c Li-8c O2-24e 106.39(22) 16_555 18_555 n
O2-24e Li-8c O2-24e 112.37(19) 16_555 17_555 n
O2-24e Li-8c O2-24e 112.37(19) 16_555 18_555 n
O2-24e Li-8c O2-24e 112.37(19) 17_555 18_555 n
O2-24e Ni-4b O2-24e 79.665(25) 8_655 9_565 n
O2-24e Ni-4b O2-24e 79.665(25) 8_655 10_556 n
O2-24e Ni-4b O2-24e 99.15(5) 8_655 13_555 n
O2-24e Ni-4b O2-24e 101.55(5) 8_655 14_555 n
O2-24e Ni-4b O2-24e 178.16(7) 8_655 15_555 n
O2-24e Ni-4b O2-24e 79.665(25) 9_565 10_556 n
O2-24e Ni-4b O2-24e 178.16(7) 9_565 13_555 n
O2-24e Ni-4b O2-24e 99.15(5) 9_565 14_555 n
O2-24e Ni-4b O2-24e 101.55(5) 9_565 15_555 n
O2-24e Ni-4b O2-24e 101.55(5) 10_556 13_555 n
O2-24e Ni-4b O2-24e 178.16(7) 10_556 14_555 n
O2-24e Ni-4b O2-24e 99.15(5) 10_556 15_555 n
O2-24e Ni-4b O2-24e 79.665(25) 13_555 14_555 n
O2-24e Ni-4b O2-24e 79.665(25) 13_555 15_555 n
O2-24e Ni-4b O2-24e 79.665(25) 14_555 15_555 n
O1-8c Ge-12d O1-8c 96.00(6) 5_455 7_565 n
O1-8c Ge-12d O2-24e 177.11(4) 5_455 3_556 n
O1-8c Ge-12d O2-24e 92.889(34) 5_455 11_456 n
O1-8c Ge-12d O2-24e 82.96(4) 5_455 17_556 n
O1-8c Ge-12d O2-24e 82.226(34) 5_455 21_555 n
O1-8c Ge-12d O2-24e 82.96(4) 7_565 3_556 n
O1-8c Ge-12d O2-24e 82.226(34) 7_565 11_456 n
O1-8c Ge-12d O2-24e 177.11(4) 7_565 17_556 n
O1-8c Ge-12d O2-24e 92.889(34) 7_565 21_555 n
O2-24e Ge-12d O2-24e 89.65(6) 3_556 11_456 n
O2-24e Ge-12d O2-24e 98.21(7) 3_556 17_556 n
O2-24e Ge-12d O2-24e 95.12(5) 3_556 21_555 n
O2-24e Ge-12d O2-24e 95.12(5) 11_456 17_556 n
O2-24e Ge-12d O2-24e 172.73(8) 11_456 21_555 n
O2-24e Ge-12d O2-24e 89.65(6) 17_556 21_555 n
Li-8c O1-8c Ge-12d 121.55(4) 16_555 4_554 n
Li-8c O1-8c Ge-12d 121.55(4) 16_555 5_455 n
Li-8c O1-8c Ge-12d 121.55(4) 16_555 6_545 n
Ge-12d O1-8c Ge-12d 95.13(5) 4_554 5_455 n
Ge-12d O1-8c Ge-12d 95.13(5) 4_554 6_545 n
Ge-12d O1-8c Ge-12d 95.13(5) 5_455 6_545 n
Li-8c O2-24e Ni-4b 112.86(12) 16_555 4_544 n
Li-8c O2-24e Ge-12d 124.43(14) 16_555 2_455 n
Li-8c O2-24e Ge-12d 123.66(22) 16_555 9_565 n
Ni-4b O2-24e Ge-12d 94.94(5) 4_544 2_455 n
Ni-4b O2-24e Ge-12d 94.08(5) 4_544 9_565 n
Ge-12d O2-24e Ge-12d 99.57(5) 2_455 9_565 n
loop_
_geom_bond_atom_site_label_1
_geom_bond_atom_site_label_2
_geom_bond_distance
_geom_bond_site_symmetry_2
_geom_bond_publ_flag
Li-8c Li-8c 3.435(16) 16_555 n
Li-8c O1-8c 1.968(8) 16_555 n
Li-8c O2-24e 1.9657(23) 16_555 n
Li-8c O2-24e 1.9657(23) 17_555 n
Li-8c O2-24e 1.9657(23) 18_555 n
Ni-4b Ge-12d 2.9146(5) 4_554 n
Ni-4b Ge-12d 2.9146(5) 5_455 n
Ni-4b Ge-12d 2.9146(5) 6_545 n
Ni-4b Ge-12d 2.9146(5) 19_566 n
Ni-4b Ge-12d 2.9146(5) 20_556 n
Ni-4b Ge-12d 2.9146(5) 22_565 n
Ni-4b O2-24e 2.0773(8) 8_655 n
Ni-4b O2-24e 2.0773(8) 9_565 n
Ni-4b O2-24e 2.0773(8) 10_556 n
Ni-4b O2-24e 2.0773(8) 13_555 n
Ni-4b O2-24e 2.0773(8) 14_555 n
Ni-4b O2-24e 2.0773(8) 15_555 n
Ge-12d Ni-4b 2.9146(5) 5_455 n
Ge-12d Ni-4b 2.9146(5) 6_446 n
Ge-12d Ge-12d 2.8829(5) 4_554 n
Ge-12d Ge-12d 2.8829(5) 8_656 n
Ge-12d Ge-12d 2.8829(5) 9_565 n
Ge-12d Ge-12d 2.8829(5) 19_466 n
Ge-12d O1-8c 1.9531(10) 5_455 n
Ge-12d O1-8c 1.9531(10) 7_565 n
Ge-12d O2-24e 1.8732(12) 3_556 n
Ge-12d O2-24e 1.9019(10) 11_456 n
Ge-12d O2-24e 1.8732(12) 17_556 n
Ge-12d O2-24e 1.9019(10) 21_555 n
O1-8c Li-8c 1.968(8) 16_555 n
O1-8c Ge-12d 1.9531(10) 4_554 n
O1-8c Ge-12d 1.9531(10) 5_455 n
O1-8c Ge-12d 1.9531(10) 6_545 n
O2-24e Li-8c 1.9657(23) 16_555 n
O2-24e Ni-4b 2.0773(8) 4_544 n
O2-24e Ge-12d 1.8732(12) 2_455 n
O2-24e Ge-12d 1.9019(10) 9_565 n
loop_
_pd_meas_time_of_flight
_pd_proc_d_spacing
_pd_meas_intensity_total
_pd_proc_ls_weight
_pd_proc_intensity_bkg_calc
_pd_calc_intensity_total
1000.00 0.218331 10.18(12) 65.2 9.890 10.214
1001.00 0.218550 10.18(12) 65.2 9.887 10.216
1002.00 0.218769 10.20(12) 65.0 9.884 10.218
1003.00 0.218987 10.21(12) 65.0 9.882 10.224
1004.00 0.219206 10.12(12) 65.6 9.879 10.235
1005.00 0.219425 10.03(12) 66.1 9.876 10.250
1006.00 0.219644 10.02(12) 66.1 9.874 10.267
1007.00 0.219863 10.11(12) 65.6 9.871 10.280
1008.00 0.220081 10.15(12) 65.2 9.868 10.289
1009.00 0.220300 10.21(12) 64.8 9.866 10.291
1010.00 0.220519 10.32(12) 64.1 9.863 10.286
1011.00 0.220738 10.26(12) 64.5 9.860 10.274
1012.00 0.220956 10.32(12) 64.1 9.858 10.257
1013.00 0.221175 10.31(12) 64.1 9.855 10.240
1014.00 0.221394 10.24(12) 64.6 9.852 10.231
1015.00 0.221613 10.20(12) 64.7 9.850 10.234
1016.00 0.221831 10.16(12) 65.0 9.847 10.244
1017.00 0.222050 10.14(12) 65.1 9.845 10.253
1018.00 0.222269 10.20(12) 64.7 9.842 10.250
1019.00 0.222488 10.23(12) 64.5 9.839 10.235
1020.00 0.222706 10.28(12) 64.2 9.837 10.211
1021.00 0.222925 10.31(13) 63.9 9.834 10.187
1022.00 0.223144 10.27(12) 64.2 9.831 10.170
1023.00 0.223363 10.08(12) 65.4 9.829 10.163
1024.00 0.223582 10.14(12) 65.0 9.826 10.164
1025.00 0.223800 10.12(12) 65.0 9.823 10.174
1026.00 0.224019 10.08(12) 65.2 9.821 10.190
1027.00 0.224238 10.05(12) 65.5 9.818 10.211
1028.00 0.224457 10.27(13) 64.0 9.816 10.229
1029.00 0.224675 10.39(13) 63.3 9.813 10.238
1030.00 0.224894 10.35(13) 63.5 9.810 10.234
1031.00 0.225113 10.29(13) 63.9 9.808 10.219
1032.00 0.225332 10.15(12) 64.7 9.805 10.199
1033.00 0.225550 10.01(12) 65.6 9.802 10.183
1034.00 0.225769 10.17(12) 64.5 9.800 10.174
1035.00 0.225988 10.08(12) 65.1 9.797 10.173
1036.00 0.226207 10.11(12) 64.9 9.795 10.175
1037.00 0.226425 10.02(12) 65.5 9.792 10.179
1038.00 0.226644 10.14(12) 64.6 9.789 10.186
1039.00 0.226863 10.10(12) 64.9 9.787 10.198
1040.00 0.227082 10.08(12) 65.0 9.784 10.215
1041.00 0.227301 10.23(12) 64.1 9.781 10.232
1042.00 0.227519 10.24(13) 64.0 9.779 10.242
1043.00 0.227738 10.17(12) 64.4 9.776 10.239
1044.00 0.227957 10.15(12) 64.5 9.774 10.221
1045.00 0.228176 10.27(13) 63.7 9.771 10.196
1046.00 0.228394 10.28(13) 63.6 9.768 10.171
1047.00 0.228613 10.14(12) 64.5 9.766 10.154
1048.00 0.228832 10.08(12) 64.9 9.763 10.147
1049.00 0.229051 10.12(12) 64.6 9.761 10.146
1050.00 0.229269 10.06(12) 64.9 9.758 10.150
1051.00 0.229488 10.11(12) 64.6 9.755 10.158
1052.00 0.229707 10.15(12) 64.3 9.753 10.172
1053.00 0.229926 10.00(12) 65.2 9.750 10.193
1054.00 0.230144 10.09(12) 64.6 9.748 10.221
1055.00 0.230363 10.14(12) 64.3 9.745 10.249
1056.00 0.230582 10.17(12) 64.1 9.742 10.268
1057.00 0.230801 10.25(13) 63.6 9.740 10.274
1058.00 0.231020 10.27(13) 63.5 9.737 10.264
1059.00 0.231238 10.24(13) 63.6 9.735 10.246
1060.00 0.231457 10.37(13) 62.8 9.732 10.225
1061.00 0.231676 10.37(13) 62.8 9.729 10.205
1062.00 0.231895 10.22(13) 63.7 9.727 10.187
1063.00 0.232113 10.31(13) 63.1 9.724 10.173
1064.00 0.232332 10.16(13) 64.0 9.722 10.171
1065.00 0.232551 10.15(12) 64.1 9.719 10.182
1066.00 0.232770 10.30(13) 63.1 9.716 10.203
1067.00 0.232988 10.22(13) 63.6 9.714 10.225
1068.00 0.233207 10.22(13) 63.6 9.711 10.239
1069.00 0.233426 10.19(13) 63.7 9.709 10.238
1070.00 0.233645 10.26(13) 63.3 9.706 10.221
1071.00 0.233863 10.19(13) 63.7 9.704 10.194
1072.00 0.234082 10.20(13) 63.6 9.701 10.168
1073.00 0.234301 10.26(13) 63.2 9.698 10.151
1074.00 0.234520 10.10(12) 64.2 9.696 10.148
1075.00 0.234739 10.17(13) 63.8 9.693 10.156
1076.00 0.234957 10.35(13) 62.6 9.691 10.169
1077.00 0.235176 10.12(13) 64.0 9.688 10.182
1078.00 0.235395 10.25(13) 63.2 9.686 10.193
1079.00 0.235614 10.29(13) 62.9 9.683 10.203
1080.00 0.235832 10.13(13) 63.9 9.680 10.216
1081.00 0.236051 10.02(12) 64.6 9.678 10.233
1082.00 0.236270 10.14(13) 63.8 9.675 10.254
1083.00 0.236489 10.15(13) 63.7 9.673 10.272
1084.00 0.236707 10.14(13) 63.8 9.670 10.281
1085.00 0.236926 10.29(13) 62.8 9.668 10.277
1086.00 0.237145 10.37(13) 62.3 9.665 10.261
1087.00 0.237364 10.27(13) 62.9 9.662 10.242
1088.00 0.237583 10.20(13) 63.3 9.660 10.226
1089.00 0.237801 10.24(13) 63.1 9.657 10.214
1090.00 0.238020 10.37(13) 62.2 9.655 10.200
1091.00 0.238239 10.33(13) 62.5 9.652 10.180
1092.00 0.238458 10.28(13) 62.8 9.650 10.155
1093.00 0.238676 10.16(13) 63.5 9.647 10.131
1094.00 0.238895 10.01(12) 64.4 9.645 10.115
1095.00 0.239114 10.09(13) 63.9 9.642 10.111
1096.00 0.239333 10.24(13) 62.9 9.639 10.119
1097.00 0.239551 10.13(13) 63.6 9.637 10.133
1098.00 0.239770 9.91(12) 64.9 9.634 10.142
1099.00 0.239989 9.98(12) 64.5 9.632 10.140
1100.00 0.240208 10.25(13) 62.8 9.629 10.124
1101.00 0.240426 10.15(13) 63.4 9.627 10.098
1102.00 0.240645 10.07(13) 63.9 9.624 10.068
1103.00 0.240864 10.00(12) 64.3 9.622 10.041
1104.00 0.241083 10.07(13) 63.8 9.619 10.023
1105.00 0.241302 10.11(13) 63.6 9.617 10.012
1106.00 0.241520 10.00(12) 64.2 9.614 10.006
1107.00 0.241739 9.91(12) 64.8 9.612 10.006
1108.00 0.241958 10.00(12) 64.2 9.609 10.012
1109.00 0.242177 9.94(12) 64.6 9.606 10.022
1110.00 0.242395 9.87(12) 65.0 9.604 10.036
1111.00 0.242614 10.04(13) 63.9 9.601 10.050
1112.00 0.242833 9.80(12) 65.5 9.599 10.063
1113.00 0.243052 10.05(13) 63.8 9.596 10.072
1114.00 0.243270 9.98(12) 64.2 9.594 10.078
1115.00 0.243489 9.87(12) 64.9 9.591 10.081
1116.00 0.243708 10.02(13) 63.9 9.589 10.081
1117.00 0.243927 10.18(13) 62.9 9.586 10.081
1118.00 0.244146 10.17(13) 63.0 9.584 10.085
1119.00 0.244364 10.14(13) 63.2 9.581 10.096
1120.00 0.244583 10.19(13) 62.8 9.579 10.110
1121.00 0.244802 10.21(13) 62.7 9.576 10.121
1122.00 0.245021 10.07(13) 63.5 9.574 10.126
1123.00 0.245239 10.08(13) 63.4 9.571 10.131
1124.00 0.245458 10.14(13) 63.1 9.569 10.141
1125.00 0.245677 10.18(13) 62.8 9.566 10.163
1126.00 0.245896 10.21(13) 62.5 9.564 10.194
1127.00 0.246114 10.19(13) 62.7 9.561 10.230
1128.00 0.246333 10.21(13) 62.6 9.559 10.261
1129.00 0.246552 10.18(13) 62.7 9.556 10.276
1130.00 0.246771 10.18(13) 62.7 9.554 10.270
1131.00 0.246989 10.16(13) 62.8 9.551 10.248
1132.00 0.247208 10.27(13) 62.1 9.549 10.216
1133.00 0.247427 10.32(13) 61.7 9.546 10.183
1134.00 0.247646 10.18(13) 62.6 9.544 10.154
1135.00 0.247865 10.07(13) 63.3 9.541 10.131
1136.00 0.248083 10.08(13) 63.2 9.539 10.111
1137.00 0.248302 10.20(13) 62.4 9.536 10.088
1138.00 0.248521 10.21(13) 62.3 9.534 10.062
1139.00 0.248740 10.10(13) 63.1 9.531 10.040
1140.00 0.248958 9.92(12) 64.2 9.529 10.029
1141.00 0.249177 9.91(12) 64.2 9.526 10.031
1142.00 0.249396 9.85(12) 64.6 9.524 10.045
1143.00 0.249615 10.03(13) 63.4 9.521 10.064
1144.00 0.249833 10.24(13) 62.1 9.519 10.082
1145.00 0.250052 9.94(13) 63.9 9.516 10.092
1146.00 0.250271 10.12(13) 62.8 9.514 10.092
1147.00 0.250490 10.15(13) 62.6 9.511 10.086
1148.00 0.250709 10.00(13) 63.5 9.509 10.076
1149.00 0.250927 10.00(13) 63.5 9.506 10.068
1150.00 0.251146 10.18(13) 62.3 9.504 10.065
1151.00 0.251365 10.09(13) 62.9 9.501 10.068
1152.00 0.251584 9.99(13) 63.5 9.499 10.078
1153.00 0.251802 10.07(13) 63.0 9.496 10.088
1154.00 0.252021 10.10(13) 62.8 9.494 10.092
1155.00 0.252240 10.13(13) 62.6 9.491 10.087
1156.00 0.252459 10.13(13) 62.6 9.489 10.079
1157.00 0.252677 10.28(13) 61.6 9.486 10.074
1158.00 0.252896 10.28(13) 61.6 9.484 10.083
1159.00 0.253115 10.18(13) 62.2 9.481 10.106
1160.00 0.253334 10.29(13) 61.5 9.479 10.142
1161.00 0.253553 10.28(13) 61.5 9.476 10.185
1162.00 0.253771 10.18(13) 62.2 9.474 10.226
1163.00 0.253990 10.34(13) 61.2 9.472 10.257
1164.00 0.254209 10.37(13) 61.0 9.469 10.268
1165.00 0.254428 10.35(13) 61.0 9.467 10.256
1166.00 0.254646 10.35(13) 61.0 9.464 10.223
1167.00 0.254865 10.40(13) 60.8 9.462 10.178
1168.00 0.255084 10.29(13) 61.4 9.459 10.132
1169.00 0.255303 10.08(13) 62.7 9.457 10.100
1170.00 0.255521 10.15(13) 62.2 9.454 10.085
1171.00 0.255740 10.17(13) 62.1 9.452 10.081
1172.00 0.255959 10.20(13) 61.8 9.449 10.082
1173.00 0.256178 10.12(13) 62.4 9.447 10.083
1174.00 0.256397 10.25(13) 61.5 9.444 10.086
1175.00 0.256615 10.23(13) 61.6 9.442 10.092
1176.00 0.256834 10.32(13) 61.1 9.440 10.102
1177.00 0.257053 10.30(13) 61.2 9.437 10.117
1178.00 0.257272 10.14(13) 62.2 9.435 10.139
1179.00 0.257490 10.22(13) 61.6 9.432 10.167
1180.00 0.257709 10.34(13) 60.9 9.430 10.198
1181.00 0.257928 10.26(13) 61.3 9.427 10.225
1182.00 0.258147 10.32(13) 60.9 9.425 10.243
1183.00 0.258365 10.17(13) 61.9 9.422 10.247
1184.00 0.258584 10.22(13) 61.5 9.420 10.233
1185.00 0.258803 10.17(13) 61.9 9.418 10.202
1186.00 0.259022 10.28(13) 61.1 9.415 10.161
1187.00 0.259241 10.26(13) 61.3 9.413 10.127
1188.00 0.259459 10.29(13) 61.0 9.410 10.109
1189.00 0.259678 10.27(13) 61.2 9.408 10.107
1190.00 0.259897 10.27(13) 61.2 9.405 10.110
1191.00 0.260116 10.30(13) 61.0 9.403 10.109
1192.00 0.260334 10.20(13) 61.6 9.400 10.100
1193.00 0.260553 10.26(13) 61.2 9.398 10.084
1194.00 0.260772 10.16(13) 61.8 9.396 10.070
1195.00 0.260991 10.16(13) 61.8 9.393 10.064
1196.00 0.261209 10.13(13) 61.9 9.391 10.074
1197.00 0.261428 10.13(13) 62.0 9.388 10.102
1198.00 0.261647 10.16(13) 61.8 9.386 10.147
1199.00 0.261866 10.29(13) 60.9 9.383 10.205
1200.00 0.262085 10.23(13) 61.3 9.381 10.261
1201.00 0.262303 10.28(13) 60.9 9.379 10.304
1202.00 0.262522 10.35(13) 60.6 9.376 10.320
1203.00 0.262741 10.27(13) 61.0 9.374 10.302
1204.00 0.262960 10.30(13) 60.8 9.371 10.253
1205.00 0.263178 10.37(13) 60.4 9.369 10.181
1206.00 0.263397 10.28(13) 60.9 9.367 10.101
1207.00 0.263616 10.20(13) 61.3 9.364 10.028
1208.00 0.263835 10.18(13) 61.5 9.362 9.971
1209.00 0.264053 10.21(13) 61.3 9.359 9.927
1210.00 0.264272 10.17(13) 61.5 9.357 9.894
1211.00 0.264491 9.98(13) 62.7 9.354 9.873
1212.00 0.264710 9.95(13) 62.9 9.352 9.867
1213.00 0.264929 9.94(13) 62.9 9.350 9.879
1214.00 0.265147 9.91(13) 63.1 9.347 9.905
1215.00 0.265366 9.82(13) 63.6 9.345 9.942
1216.00 0.265585 9.95(13) 62.8 9.342 9.984
1217.00 0.265804 10.02(13) 62.4 9.340 10.028
1218.00 0.266022 10.14(13) 61.6 9.338 10.072
1219.00 0.266241 10.06(13) 62.1 9.335 10.113
1220.00 0.266460 10.16(13) 61.4 9.333 10.143
1221.00 0.266679 10.21(13) 61.1 9.330 10.159
1222.00 0.266897 10.19(13) 61.2 9.328 10.155
1223.00 0.267116 10.29(13) 60.7 9.326 10.133
1224.00 0.267335 10.10(13) 61.8 9.323 10.097
1225.00 0.267554 10.07(13) 62.0 9.321 10.055
1226.00 0.267773 10.10(13) 61.7 9.318 10.017
1227.00 0.267991 10.17(13) 61.3 9.316 9.992
1228.00 0.268210 10.04(13) 62.1 9.314 9.984
1229.00 0.268429 9.93(13) 62.8 9.311 9.990
1230.00 0.268648 9.98(13) 62.5 9.309 10.005
1231.00 0.268866 10.17(13) 61.2 9.306 10.020
1232.00 0.269085 10.11(13) 61.6 9.304 10.031
1233.00 0.269304 10.04(13) 62.0 9.302 10.038
1234.00 0.269523 10.06(13) 61.9 9.299 10.040
1235.00 0.269742 10.17(13) 61.2 9.297 10.039
1236.00 0.269960 10.10(13) 61.6 9.295 10.040
1237.00 0.270179 10.04(13) 62.0 9.292 10.050
1238.00 0.270398 9.96(13) 62.5 9.290 10.077
1239.00 0.270617 10.01(13) 62.2 9.287 10.119
1240.00 0.270835 10.05(13) 61.9 9.285 10.170
1241.00 0.271054 9.97(13) 62.4 9.283 10.220
1242.00 0.271273 10.10(13) 61.6 9.280 10.256
1243.00 0.271492 10.19(13) 61.0 9.278 10.273
1244.00 0.271710 10.11(13) 61.5 9.276 10.267
1245.00 0.271929 9.96(13) 62.4 9.273 10.239
1246.00 0.272148 10.08(13) 61.6 9.271 10.194
1247.00 0.272367 10.16(13) 61.1 9.268 10.143
1248.00 0.272586 10.16(13) 61.1 9.266 10.098
1249.00 0.272804 10.13(13) 61.3 9.264 10.070
1250.00 0.273023 10.22(13) 60.8 9.261 10.057
1251.00 0.273242 10.28(13) 60.4 9.259 10.051
1252.00 0.273461 10.18(13) 61.0 9.257 10.042
1253.00 0.273679 10.25(13) 60.6 9.254 10.023
1254.00 0.273898 10.11(13) 61.4 9.252 9.996
1255.00 0.274117 9.99(13) 62.1 9.249 9.966
1256.00 0.274336 10.13(13) 61.2 9.247 9.936
1257.00 0.274554 9.96(13) 62.3 9.245 9.911
1258.00 0.274773 10.01(13) 61.9 9.242 9.892
1259.00 0.274992 9.92(13) 62.5 9.240 9.883
1260.00 0.275211 10.01(13) 61.9 9.238 9.887
1261.00 0.275430 10.00(13) 62.0 9.235 9.909
1262.00 0.275648 9.91(13) 62.5 9.233 9.949
1263.00 0.275867 9.87(13) 62.8 9.231 10.002
1264.00 0.276086 10.05(13) 61.6 9.228 10.064
1265.00 0.276305 10.02(13) 61.8 9.226 10.124
1266.00 0.276523 10.07(13) 61.5 9.224 10.174
1267.00 0.276742 10.24(13) 60.5 9.221 10.202
1268.00 0.276961 10.22(13) 60.6 9.219 10.201
1269.00 0.277180 10.02(13) 61.8 9.217 10.172
1270.00 0.277398 10.09(13) 61.4 9.214 10.129
1271.00 0.277617 10.19(13) 60.8 9.212 10.091
1272.00 0.277836 10.23(13) 60.5 9.210 10.071
1273.00 0.278055 10.14(13) 61.0 9.207 10.067
1274.00 0.278274 10.09(13) 61.3 9.205 10.070
1275.00 0.278492 10.14(13) 61.0 9.203 10.066
1276.00 0.278711 10.14(13) 60.9 9.200 10.051
1277.00 0.278930 10.06(13) 61.5 9.198 10.026
1278.00 0.279149 9.98(13) 61.9 9.196 10.000
1279.00 0.279367 10.02(13) 61.7 9.193 9.983
1280.00 0.279586 9.93(13) 62.3 9.191 9.982
1281.00 0.279805 10.15(13) 60.9 9.189 9.999
1282.00 0.280024 10.24(13) 60.3 9.186 10.031
1283.00 0.280243 10.07(13) 61.3 9.184 10.074
1284.00 0.280461 10.14(13) 60.9 9.182 10.123
1285.00 0.280680 10.18(13) 60.7 9.179 10.168
1286.00 0.280899 10.16(13) 60.8 9.177 10.201
1287.00 0.281118 10.14(13) 60.9 9.175 10.214
1288.00 0.281336 10.17(13) 60.7 9.172 10.204
1289.00 0.281555 10.32(13) 59.8 9.170 10.173
1290.00 0.281774 10.26(13) 60.2 9.168 10.123
1291.00 0.281993 10.13(13) 60.9 9.165 10.058
1292.00 0.282212 10.20(13) 60.5 9.163 9.982
1293.00 0.282430 10.06(13) 61.3 9.161 9.902
1294.00 0.282649 9.99(13) 61.8 9.158 9.828
1295.00 0.282868 10.02(13) 61.6 9.156 9.773
1296.00 0.283087 10.02(13) 61.5 9.154 9.741
1297.00 0.283305 10.14(13) 60.8 9.151 9.729
1298.00 0.283524 9.92(13) 62.2 9.149 9.730
1299.00 0.283743 9.78(13) 63.1 9.147 9.736
1300.00 0.283962 9.96(13) 61.9 9.144 9.743
1301.00 0.284180 9.77(13) 63.1 9.142 9.751
1302.00 0.284399 9.93(13) 62.1 9.140 9.760
1303.00 0.284618 9.81(13) 62.8 9.138 9.773
1304.00 0.284837 9.98(13) 61.7 9.135 9.789
1305.00 0.285056 9.83(13) 62.7 9.133 9.810
1306.00 0.285274 9.78(13) 63.0 9.131 9.838
1307.00 0.285493 9.82(13) 62.7 9.128 9.876
1308.00 0.285712 9.87(13) 62.4 9.126 9.925
1309.00 0.285931 10.17(13) 60.5 9.124 9.985
1310.00 0.286149 10.01(13) 61.5 9.121 10.054
1311.00 0.286368 9.94(13) 62.0 9.119 10.126
1312.00 0.286587 10.01(13) 61.4 9.117 10.196
1313.00 0.286806 10.02(13) 61.4 9.115 10.260
1314.00 0.287025 10.06(13) 61.1 9.112 10.315
1315.00 0.287243 10.11(13) 60.8 9.110 10.353
1316.00 0.287462 10.10(13) 60.9 9.108 10.367
1317.00 0.287681 10.18(13) 60.4 9.105 10.351
1318.00 0.287900 10.22(13) 60.2 9.103 10.305
1319.00 0.288118 10.22(13) 60.2 9.101 10.245
1320.00 0.288337 10.21(13) 60.2 9.098 10.194
1321.00 0.288556 10.21(13) 60.2 9.096 10.169
1322.00 0.288775 10.17(13) 60.4 9.094 10.173
1323.00 0.288993 10.14(13) 60.6 9.092 10.194
1324.00 0.289212 10.29(13) 59.7 9.089 10.214
1325.00 0.289431 10.22(13) 60.1 9.087 10.217
1326.00 0.289650 10.31(13) 59.5 9.085 10.193
1327.00 0.289869 10.37(13) 59.2 9.083 10.147
1328.00 0.290087 10.21(13) 60.1 9.080 10.086
1329.00 0.290306 10.21(13) 60.2 9.078 10.025
1330.00 0.290525 10.17(13) 60.4 9.076 9.977
1331.00 0.290744 10.17(13) 60.4 9.073 9.947
1332.00 0.290962 10.06(13) 61.0 9.071 9.935
1333.00 0.291181 9.88(13) 62.1 9.069 9.942
1334.00 0.291400 9.98(13) 61.5 9.067 9.969
1335.00 0.291619 10.09(13) 60.8 9.064 10.015
1336.00 0.291838 10.08(13) 60.8 9.062 10.075
1337.00 0.292056 9.93(13) 61.8 9.060 10.143
1338.00 0.292275 10.16(13) 60.4 9.058 10.213
1339.00 0.292494 10.31(13) 59.4 9.055 10.280
1340.00 0.292713 10.27(13) 59.7 9.053 10.339
1341.00 0.292931 10.24(13) 59.9 9.051 10.381
1342.00 0.293150 10.19(13) 60.1 9.048 10.398
1343.00 0.293369 10.35(13) 59.2 9.046 10.382
1344.00 0.293588 10.49(13) 58.5 9.044 10.330
1345.00 0.293807 10.31(13) 59.4 9.042 10.248
1346.00 0.294025 10.31(13) 59.4 9.039 10.153
1347.00 0.294244 10.31(13) 59.4 9.037 10.064
1348.00 0.294463 10.10(13) 60.6 9.035 9.994
1349.00 0.294682 10.06(13) 60.8 9.033 9.945
1350.00 0.294900 10.10(13) 60.6 9.030 9.907
1351.00 0.295119 9.94(13) 61.6 9.028 9.871
1352.00 0.295338 9.90(13) 61.8 9.026 9.831
1353.00 0.295557 9.98(13) 61.3 9.024 9.787
1354.00 0.295776 9.97(13) 61.3 9.021 9.746
1355.00 0.295994 9.78(13) 62.6 9.019 9.716
1356.00 0.296213 9.61(13) 63.7 9.017 9.702
1357.00 0.296432 9.73(13) 62.9 9.015 9.703
1358.00 0.296651 9.86(13) 62.0 9.012 9.716
1359.00 0.296869 9.74(13) 62.8 9.010 9.736
1360.00 0.297088 9.73(13) 62.8 9.008 9.760
1361.00 0.297307 9.84(13) 62.1 9.006 9.787
1362.00 0.297526 9.80(13) 62.4 9.003 9.817
1363.00 0.297744 9.84(13) 62.1 9.001 9.848
1364.00 0.297963 9.92(13) 61.6 8.999 9.877
1365.00 0.298182 9.84(13) 62.1 8.997 9.899
1366.00 0.298401 9.97(13) 61.2 8.994 9.912
1367.00 0.298620 10.04(13) 60.8 8.992 9.916
1368.00 0.298838 10.06(13) 60.7 8.990 9.917
1369.00 0.299057 9.79(13) 62.4 8.988 9.920
1370.00 0.299276 9.85(13) 62.0 8.986 9.924
1371.00 0.299495 9.89(13) 61.7 8.983 9.922
1372.00 0.299713 9.82(13) 62.1 8.981 9.906
1373.00 0.299932 9.83(13) 62.1 8.979 9.874
1374.00 0.300151 9.92(13) 61.5 8.977 9.835
1375.00 0.300370 9.79(13) 62.3 8.974 9.803
1376.00 0.300589 9.84(13) 62.0 8.972 9.791
1377.00 0.300807 9.95(13) 61.2 8.970 9.804
1378.00 0.301026 10.07(13) 60.6 8.968 9.838
1379.00 0.301245 10.04(13) 60.7 8.966 9.882
1380.00 0.301464 9.90(13) 61.5 8.963 9.923
1381.00 0.301682 9.79(13) 62.2 8.961 9.953
1382.00 0.301901 9.92(13) 61.4 8.959 9.969
1383.00 0.302120 9.86(13) 61.8 8.957 9.976
1384.00 0.302339 9.87(13) 61.7 8.954 9.977
1385.00 0.302558 9.86(13) 61.7 8.952 9.975
1386.00 0.302776 9.96(13) 61.1 8.950 9.971
1387.00 0.302995 9.95(13) 61.1 8.948 9.962
1388.00 0.303214 10.03(13) 60.7 8.946 9.948
1389.00 0.303433 10.10(13) 60.2 8.943 9.932
1390.00 0.303651 10.03(13) 60.7 8.941 9.920
1391.00 0.303870 10.03(13) 60.7 8.939 9.921
1392.00 0.304089 10.09(13) 60.3 8.937 9.942
1393.00 0.304308 10.10(13) 60.2 8.935 9.987
1394.00 0.304527 10.09(13) 60.3 8.932 10.054
1395.00 0.304745 10.14(13) 59.9 8.930 10.138
1396.00 0.304964 10.23(13) 59.4 8.928 10.234
1397.00 0.305183 10.23(13) 59.4 8.926 10.335
1398.00 0.305402 10.31(13) 58.9 8.924 10.433
1399.00 0.305620 10.49(13) 57.8 8.921 10.517
1400.00 0.305839 10.56(13) 57.5 8.919 10.576
1401.00 0.306058 10.65(13) 57.0 8.917 10.598
1402.00 0.306277 10.51(13) 57.7 8.915 10.572
1403.00 0.306496 10.55(13) 57.5 8.913 10.496
1404.00 0.306714 10.49(13) 57.7 8.910 10.377
1405.00 0.306933 10.33(13) 58.7 8.908 10.242
1406.00 0.307152 10.22(13) 59.3 8.906 10.119
1407.00 0.307371 10.19(13) 59.4 8.904 10.031
1408.00 0.307589 10.18(13) 59.5 8.902 9.985
1409.00 0.307808 10.16(13) 59.6 8.899 9.974
1410.00 0.308027 10.31(13) 58.7 8.897 9.984
1411.00 0.308246 10.31(13) 58.7 8.895 10.000
1412.00 0.308464 9.99(13) 60.6 8.893 10.009
1413.00 0.308683 10.00(13) 60.6 8.891 10.008
1414.00 0.308902 9.98(13) 60.6 8.888 9.999
1415.00 0.309121 10.08(13) 60.0 8.886 9.990
1416.00 0.309340 10.11(13) 59.8 8.884 9.986
1417.00 0.309558 10.07(13) 60.1 8.882 9.986
1418.00 0.309777 10.14(13) 59.5 8.880 9.984
1419.00 0.309996 10.29(13) 58.7 8.878 9.976
1420.00 0.310215 10.10(13) 59.8 8.875 9.960
1421.00 0.310434 10.03(13) 60.3 8.873 9.944
1422.00 0.310652 10.07(13) 60.0 8.871 9.939
1423.00 0.310871 10.06(13) 60.0 8.869 9.957
1424.00 0.311090 10.02(13) 60.2 8.867 10.004
1425.00 0.311309 10.12(13) 59.6 8.865 10.078
1426.00 0.311527 10.09(13) 59.8 8.862 10.171
1427.00 0.311746 10.09(13) 59.7 8.860 10.276
1428.00 0.311965 10.18(13) 59.3 8.858 10.385
1429.00 0.312184 10.29(13) 58.5 8.856 10.491
1430.00 0.312403 10.33(13) 58.4 8.854 10.590
1431.00 0.312621 10.41(13) 57.9 8.852 10.674
1432.00 0.312840 10.51(13) 57.3 8.849 10.737
1433.00 0.313059 10.71(13) 56.2 8.847 10.767
1434.00 0.313278 10.70(13) 56.3 8.845 10.752
1435.00 0.313496 10.59(13) 56.8 8.843 10.683
1436.00 0.313715 10.64(13) 56.5 8.841 10.562
1437.00 0.313934 10.69(13) 56.3 8.839 10.410
1438.00 0.314153 10.58(13) 56.8 8.836 10.258
1439.00 0.314371 10.45(13) 57.6 8.834 10.131
1440.00 0.314590 10.34(13) 58.2 8.832 10.039
1441.00 0.314809 10.29(13) 58.4 8.830 9.982
1442.00 0.315028 10.27(13) 58.5 8.828 9.948
1443.00 0.315247 10.27(13) 58.5 8.826 9.922
1444.00 0.315465 10.27(13) 58.5 8.823 9.893
1445.00 0.315684 10.17(13) 59.0 8.821 9.853
1446.00 0.315903 9.98(13) 60.1 8.819 9.803
1447.00 0.316122 10.10(13) 59.4 8.817 9.749
1448.00 0.316341 10.01(13) 59.9 8.815 9.699
1449.00 0.316559 9.92(13) 60.5 8.813 9.662
1450.00 0.316778 9.96(13) 60.2 8.811 9.644
1451.00 0.316997 9.78(13) 61.3 8.808 9.644
1452.00 0.317216 9.74(13) 61.5 8.806 9.661
1453.00 0.317434 9.74(13) 61.5 8.804 9.691
1454.00 0.317653 9.67(13) 62.0 8.802 9.727
1455.00 0.317872 9.66(13) 62.0 8.800 9.770
1456.00 0.318091 9.71(13) 61.7 8.798 9.822
1457.00 0.318310 9.90(13) 60.5 8.796 9.888
1458.00 0.318528 9.95(13) 60.2 8.793 9.969
1459.00 0.318747 9.86(13) 60.7 8.791 10.062
1460.00 0.318966 9.94(13) 60.2 8.789 10.157
1461.00 0.319185 10.05(13) 59.5 8.787 10.241
1462.00 0.319403 10.25(13) 58.3 8.785 10.302
1463.00 0.319622 10.40(13) 57.4 8.783 10.331
1464.00 0.319841 10.35(13) 57.7 8.781 10.329
1465.00 0.320060 10.27(13) 58.1 8.779 10.302
1466.00 0.320279 10.15(13) 58.8 8.776 10.256
1467.00 0.320497 10.12(13) 59.0 8.774 10.197
1468.00 0.320716 10.09(13) 59.2 8.772 10.132
1469.00 0.320935 10.00(13) 59.6 8.770 10.062
1470.00 0.321154 9.98(13) 59.8 8.768 9.986
1471.00 0.321372 9.98(13) 59.7 8.766 9.904
1472.00 0.321591 9.81(13) 60.8 8.764 9.819
1473.00 0.321810 9.84(13) 60.6 8.762 9.739
1474.00 0.322029 9.88(13) 60.3 8.759 9.675
1475.00 0.322248 9.78(13) 60.9 8.757 9.632
1476.00 0.322466 9.93(13) 60.0 8.755 9.611
1477.00 0.322685 9.92(13) 60.0 8.753 9.607
1478.00 0.322904 9.80(13) 60.8 8.751 9.615
1479.00 0.323123 9.56(13) 62.2 8.749 9.629
1480.00 0.323341 9.56(13) 62.3 8.747 9.643
1481.00 0.323560 9.62(13) 61.8 8.745 9.658
1482.00 0.323779 9.65(13) 61.6 8.743 9.675
1483.00 0.323998 9.54(13) 62.3 8.740 9.696
1484.00 0.324217 9.69(13) 61.3 8.738 9.722
1485.00 0.324435 9.81(13) 60.6 8.736 9.751
1486.00 0.324654 9.77(13) 60.8 8.734 9.777
1487.00 0.324873 9.63(13) 61.6 8.732 9.792
1488.00 0.325092 9.62(13) 61.6 8.730 9.790
1489.00 0.325310 9.66(13) 61.4 8.728 9.769
1490.00 0.325529 9.63(13) 61.6 8.726 9.727
1491.00 0.325748 9.56(13) 62.0 8.724 9.673
1492.00 0.325967 9.51(13) 62.3 8.721 9.620
1493.00 0.326186 9.43(13) 62.8 8.719 9.578
1494.00 0.326404 9.36(13) 63.3 8.717 9.555
1495.00 0.326623 9.42(13) 62.9 8.715 9.551
1496.00 0.326842 9.42(13) 62.9 8.713 9.562
1497.00 0.327061 9.43(13) 62.8 8.711 9.583
1498.00 0.327279 9.41(13) 62.9 8.709 9.613
1499.00 0.327498 9.48(13) 62.4 8.707 9.653
1500.00 0.327717 9.47(13) 62.4 8.705 9.707
1501.00 0.327936 9.55(13) 61.9 8.703 9.781
1502.00 0.328155 9.72(13) 60.8 8.701 9.876
1503.00 0.328373 9.83(13) 60.1 8.698 9.988
1504.00 0.328592 9.85(13) 59.9 8.696 10.101
1505.00 0.328811 9.89(13) 59.7 8.694 10.195
1506.00 0.329030 9.99(13) 59.1 8.692 10.248
1507.00 0.329248 10.12(13) 58.3 8.690 10.245
1508.00 0.329467 10.23(13) 57.7 8.688 10.186
1509.00 0.329686 10.27(13) 57.4 8.686 10.089
1510.00 0.329905 10.01(13) 58.8 8.684 9.986
1511.00 0.330124 9.85(13) 59.8 8.682 9.907
1512.00 0.330342 9.94(13) 59.3 8.680 9.873
1513.00 0.330561 9.92(13) 59.4 8.678 9.889
1514.00 0.330780 10.01(13) 58.8 8.676 9.945
1515.00 0.330999 10.00(13) 58.8 8.673 10.027
1516.00 0.331217 9.98(13) 58.9 8.671 10.113
1517.00 0.331436 10.07(13) 58.4 8.669 10.184
1518.00 0.331655 10.08(13) 58.3 8.667 10.223
1519.00 0.331874 9.99(13) 58.8 8.665 10.221
1520.00 0.332093 10.13(13) 58.0 8.663 10.178
1521.00 0.332311 10.05(13) 58.5 8.661 10.103
1522.00 0.332530 9.85(13) 59.5 8.659 10.009
1523.00 0.332749 10.06(13) 58.3 8.657 9.909
1524.00 0.332968 9.82(13) 59.7 8.655 9.819
1525.00 0.333187 9.70(13) 60.5 8.653 9.746
1526.00 0.333405 9.76(13) 60.1 8.651 9.694
1527.00 0.333624 9.74(13) 60.2 8.649 9.659
1528.00 0.333843 9.63(13) 60.8 8.647 9.634
1529.00 0.334062 9.69(13) 60.5 8.644 9.610
1530.00 0.334280 9.61(13) 60.9 8.642 9.583
1531.00 0.334499 9.74(13) 60.1 8.640 9.556
1532.00 0.334718 9.67(13) 60.5 8.638 9.535
1533.00 0.334937 9.71(13) 60.3 8.636 9.526
1534.00 0.335156 9.62(13) 60.8 8.634 9.540
1535.00 0.335374 9.58(13) 61.0 8.632 9.577
1536.00 0.335593 9.56(13) 61.1 8.630 9.637
1537.00 0.335812 9.53(13) 61.3 8.628 9.712
1538.00 0.336031 9.61(13) 60.8 8.626 9.795
1539.00 0.336249 9.76(13) 59.8 8.624 9.879
1540.00 0.336468 9.73(13) 60.0 8.622 9.960
1541.00 0.336687 9.76(13) 59.7 8.620 10.040
1542.00 0.336906 9.79(13) 59.5 8.618 10.120
1543.00 0.337125 9.92(13) 58.7 8.616 10.204
1544.00 0.337343 10.16(13) 57.4 8.614 10.290
1545.00 0.337562 10.28(13) 56.7 8.612 10.370
1546.00 0.337781 10.32(13) 56.4 8.610 10.431
1547.00 0.338000 10.31(13) 56.4 8.608 10.457
1548.00 0.338218 10.41(13) 55.9 8.606 10.436
1549.00 0.338437 10.34(13) 56.3 8.603 10.369
1550.00 0.338656 10.29(13) 56.5 8.601 10.265
1551.00 0.338875 10.20(13) 57.0 8.599 10.147
1552.00 0.339094 9.99(13) 58.2 8.597 10.034
1553.00 0.339312 10.01(13) 58.1 8.595 9.944
1554.00 0.339531 10.04(13) 57.8 8.593 9.885
1555.00 0.339750 9.95(13) 58.4 8.591 9.858
1556.00 0.339969 9.94(13) 58.5 8.589 9.856
1557.00 0.340188 9.90(13) 58.6 8.587 9.865
1558.00 0.340406 10.00(13) 58.0 8.585 9.876
1559.00 0.340625 10.03(13) 57.8 8.583 9.878
1560.00 0.340844 9.88(13) 58.6 8.581 9.868
1561.00 0.341063 9.90(13) 58.5 8.579 9.846
1562.00 0.341281 9.96(13) 58.2 8.577 9.820
1563.00 0.341500 9.82(13) 59.0 8.575 9.800
1564.00 0.341719 9.69(13) 59.8 8.573 9.789
1565.00 0.341938 9.70(13) 59.7 8.571 9.790
1566.00 0.342157 9.77(13) 59.3 8.569 9.803
1567.00 0.342375 9.79(13) 59.1 8.567 9.823
1568.00 0.342594 9.74(13) 59.4 8.565 9.845
1569.00 0.342813 9.84(13) 58.7 8.563 9.863
1570.00 0.343032 9.93(13) 58.2 8.561 9.874
1571.00 0.343250 10.10(13) 57.1 8.559 9.874
1572.00 0.343469 10.03(13) 57.6 8.557 9.867
1573.00 0.343688 9.91(13) 58.3 8.555 9.857
1574.00 0.343907 9.94(13) 58.1 8.553 9.855
1575.00 0.344126 9.90(13) 58.3 8.551 9.868
1576.00 0.344344 9.97(13) 57.8 8.549 9.897
1577.00 0.344563 10.04(13) 57.4 8.547 9.941
1578.00 0.344782 10.10(13) 57.0 8.545 9.995
1579.00 0.345001 10.03(13) 57.4 8.543 10.051
1580.00 0.345219 10.11(13) 57.0 8.541 10.103
1581.00 0.345438 10.24(13) 56.2 8.539 10.146
1582.00 0.345657 10.32(13) 55.8 8.537 10.178
1583.00 0.345876 10.32(13) 55.7 8.535 10.201
1584.00 0.346095 10.22(13) 56.3 8.533 10.221
1585.00 0.346313 10.21(13) 56.3 8.531 10.244
1586.00 0.346532 10.25(13) 56.1 8.529 10.273
1587.00 0.346751 10.30(13) 55.8 8.527 10.305
1588.00 0.346970 10.42(13) 55.1 8.525 10.332
1589.00 0.347189 10.35(13) 55.4 8.523 10.346
1590.00 0.347407 10.42(13) 55.0 8.521 10.337
1591.00 0.347626 10.53(14) 54.5 8.519 10.290
1592.00 0.347845 10.47(14) 54.8 8.517 10.203
1593.00 0.348064 10.40(13) 55.1 8.515 10.081
1594.00 0.348282 10.12(13) 56.6 8.513 9.944
1595.00 0.348501 10.25(13) 55.9 8.511 9.811
1596.00 0.348720 10.17(13) 56.4 8.509 9.703
1597.00 0.348939 9.96(13) 57.5 8.507 9.631
1598.00 0.349158 9.80(13) 58.5 8.505 9.599
1599.00 0.349376 9.78(13) 58.5 8.503 9.605
1600.00 0.349595 9.79(13) 58.5 8.501 9.643
1601.00 0.349814 9.88(13) 57.9 8.499 9.704
1602.00 0.350033 9.89(13) 57.8 8.497 9.777
1603.00 0.350252 9.97(13) 57.3 8.495 9.852
1604.00 0.350470 9.83(13) 58.1 8.493 9.919
1605.00 0.350689 10.06(13) 56.8 8.491 9.971
1606.00 0.35091 10.14(13) 56.4 8.489 10.000
1607.00 0.35113 10.02(13) 57.0 8.487 10.002
1608.00 0.35135 10.12(13) 56.4 8.485 9.977
1609.00 0.35156 10.18(13) 56.0 8.483 9.928
1610.00 0.35178 10.07(13) 56.6 8.481 9.866
1611.00 0.35200 10.00(13) 57.0 8.479 9.804
1612.00 0.35222 10.03(13) 56.9 8.477 9.751
1613.00 0.35244 9.94(13) 57.3 8.475 9.714
1614.00 0.35266 9.69(13) 58.8 8.473 9.691
1615.00 0.35288 9.67(13) 58.9 8.471 9.677
1616.00 0.35310 9.61(13) 59.2 8.469 9.663
1617.00 0.35331 9.67(13) 58.9 8.467 9.646
1618.00 0.35353 9.76(13) 58.3 8.465 9.626
1619.00 0.35375 9.59(13) 59.4 8.463 9.611
1620.00 0.35397 9.71(13) 58.5 8.461 9.612
1621.00 0.35419 9.83(13) 57.8 8.459 9.640
1622.00 0.35441 9.79(13) 58.0 8.457 9.698
1623.00 0.35463 9.89(13) 57.4 8.455 9.791
1624.00 0.35485 10.07(13) 56.4 8.453 9.913
1625.00 0.35506 10.11(13) 56.2 8.451 10.056
1626.00 0.35528 10.09(13) 56.2 8.449 10.208
1627.00 0.35550 10.18(13) 55.7 8.447 10.358
1628.00 0.35572 10.23(13) 55.4 8.445 10.493
1629.00 0.35594 10.35(14) 54.8 8.443 10.605
1630.00 0.35616 10.47(14) 54.1 8.442 10.697
1631.00 0.35638 10.54(14) 53.7 8.440 10.777
1632.00 0.35660 10.59(14) 53.5 8.438 10.862
1633.00 0.35682 10.77(14) 52.6 8.436 10.964
1634.00 0.35703 10.88(14) 52.0 8.434 11.087
1635.00 0.35725 10.97(14) 51.5 8.432 11.229
1636.00 0.35747 11.15(14) 50.7 8.430 11.376
1637.00 0.35769 11.30(14) 50.0 8.428 11.502
1638.00 0.35791 11.40(14) 49.5 8.426 11.576
1639.00 0.35813 11.45(14) 49.3 8.424 11.568
1640.00 0.35835 11.38(14) 49.6 8.422 11.459
1641.00 0.35857 11.33(14) 49.8 8.420 11.256
1642.00 0.35878 11.28(14) 50.0 8.418 10.989
1643.00 0.35900 11.14(14) 50.7 8.416 10.698
1644.00 0.35922 10.83(14) 52.1 8.414 10.418
1645.00 0.35944 10.39(14) 54.3 8.412 10.176
1646.00 0.35966 10.24(13) 55.0 8.410 9.987
1647.00 0.35988 10.03(13) 56.2 8.408 9.859
1648.00 0.36010 9.98(13) 56.5 8.406 9.790
1649.00 0.36032 10.02(13) 56.3 8.405 9.768
1650.00 0.36053 10.15(13) 55.4 8.403 9.780
1651.00 0.36075 10.27(14) 54.9 8.401 9.809
1652.00 0.36097 10.13(13) 55.6 8.399 9.837
1653.00 0.36119 10.15(13) 55.4 8.397 9.850
1654.00 0.36141 10.11(13) 55.7 8.395 9.838
1655.00 0.36163 10.07(13) 55.9 8.393 9.800
1656.00 0.36185 9.99(13) 56.3 8.391 9.742
1657.00 0.36207 9.92(13) 56.7 8.389 9.676
1658.00 0.36228 9.79(13) 57.4 8.387 9.614
1659.00 0.36250 9.73(13) 57.7 8.385 9.567
1660.00 0.36272 9.77(13) 57.5 8.383 9.540
1661.00 0.36294 9.69(13) 57.9 8.381 9.533
1662.00 0.36316 9.62(13) 58.4 8.379 9.542
1663.00 0.36338 9.70(13) 57.8 8.377 9.560
1664.00 0.36360 9.65(13) 58.1 8.376 9.579
1665.00 0.36382 9.76(13) 57.5 8.374 9.591
1666.00 0.36403 9.68(13) 57.9 8.372 9.589
1667.00 0.36425 9.60(13) 58.5 8.370 9.569
1668.00 0.36447 9.59(13) 58.5 8.368 9.530
1669.00 0.36469 9.60(13) 58.4 8.366 9.477
1670.00 0.36491 9.50(13) 59.0 8.364 9.417
1671.00 0.36513 9.37(13) 59.7 8.362 9.362
1672.00 0.36535 9.42(13) 59.4 8.360 9.319
1673.00 0.36557 9.41(13) 59.5 8.358 9.296
1674.00 0.36579 9.41(13) 59.4 8.356 9.296
1675.00 0.36600 9.54(13) 58.6 8.354 9.314
1676.00 0.36622 9.51(13) 58.8 8.353 9.345
1677.00 0.36644 9.44(13) 59.2 8.351 9.382
1678.00 0.36666 9.46(13) 59.1 8.349 9.417
1679.00 0.36688 9.56(13) 58.5 8.347 9.446
1680.00 0.36710 9.40(13) 59.4 8.345 9.468
1681.00 0.36732 9.28(13) 60.2 8.343 9.486
1682.00 0.36754 9.28(13) 60.2 8.341 9.505
1683.00 0.36775 9.47(13) 58.9 8.339 9.535
1684.00 0.36797 9.43(13) 59.2 8.337 9.583
1685.00 0.36819 9.37(13) 59.5 8.335 9.657
1686.00 0.36841 9.51(13) 58.7 8.333 9.759
1687.00 0.36863 9.84(13) 56.7 8.332 9.885
1688.00 0.36885 10.03(13) 55.6 8.330 10.025
1689.00 0.36907 9.95(13) 56.0 8.328 10.162
1690.00 0.36929 10.13(13) 55.0 8.326 10.279
1691.00 0.36950 10.17(14) 54.8 8.324 10.357
1692.00 0.36972 10.15(14) 54.8 8.322 10.381
1693.00 0.36994 10.22(14) 54.5 8.320 10.347
1694.00 0.37016 10.30(14) 54.1 8.318 10.260
1695.00 0.37038 10.16(14) 54.8 8.316 10.137
1696.00 0.37060 9.88(13) 56.3 8.314 10.000
1697.00 0.37082 9.75(13) 57.0 8.313 9.869
1698.00 0.37104 9.76(13) 57.0 8.311 9.760
1699.00 0.37125 9.65(13) 57.7 8.309 9.679
1700.00 0.37147 9.57(13) 58.1 8.307 9.631
1701.00 0.37169 9.67(13) 57.5 8.305 9.611
1702.00 0.37191 9.65(13) 57.6 8.303 9.613
1703.00 0.37213 9.72(13) 57.1 8.301 9.629
1704.00 0.37235 9.62(13) 57.7 8.299 9.651
1705.00 0.37257 9.53(13) 58.3 8.297 9.673
1706.00 0.37279 9.59(13) 57.9 8.296 9.691
1707.00 0.37301 9.66(13) 57.5 8.294 9.700
1708.00 0.37322 9.77(13) 56.8 8.292 9.695
1709.00 0.37344 9.69(13) 57.2 8.290 9.676
1710.00 0.37366 9.52(13) 58.3 8.288 9.642
1711.00 0.37388 9.69(13) 57.2 8.286 9.597
1712.00 0.37410 9.59(13) 57.8 8.284 9.545
1713.00 0.37432 9.69(13) 57.1 8.282 9.491
1714.00 0.37454 9.61(13) 57.7 8.281 9.439
1715.00 0.37476 9.52(13) 58.2 8.279 9.396
1716.00 0.37497 9.57(13) 57.8 8.277 9.370
1717.00 0.37519 9.34(13) 59.3 8.275 9.362
1718.00 0.37541 9.34(13) 59.3 8.273 9.371
1719.00 0.37563 9.33(13) 59.3 8.271 9.392
1720.00 0.37585 9.44(13) 58.5 8.269 9.419
1721.00 0.37607 9.53(13) 58.0 8.267 9.444
1722.00 0.37629 9.35(13) 59.2 8.266 9.461
1723.00 0.37651 9.22(13) 59.9 8.264 9.468
1724.00 0.37672 9.21(13) 60.0 8.262 9.468
1725.00 0.37694 9.35(13) 59.1 8.260 9.468
1726.00 0.37716 9.30(13) 59.4 8.258 9.479
1727.00 0.37738 9.32(13) 59.3 8.256 9.510
1728.00 0.37760 9.39(13) 58.8 8.254 9.568
1729.00 0.37782 9.48(13) 58.2 8.253 9.658
1730.00 0.37804 9.49(13) 58.2 8.251 9.781
1731.00 0.37826 9.64(13) 57.2 8.249 9.931
1732.00 0.37847 9.78(13) 56.4 8.247 10.100
1733.00 0.37869 9.97(13) 55.3 8.245 10.280
1734.00 0.37891 10.03(13) 55.0 8.243 10.459
1735.00 0.37913 10.21(14) 54.0 8.241 10.627
1736.00 0.37935 10.39(14) 53.0 8.240 10.771
1737.00 0.37957 10.47(14) 52.6 8.238 10.882
1738.00 0.37979 10.54(14) 52.2 8.236 10.957
1739.00 0.38001 10.57(14) 52.1 8.234 11.000
1740.00 0.38023 10.59(14) 52.0 8.232 11.018
1741.00 0.38044 10.60(14) 51.9 8.230 11.020
1742.00 0.38066 10.70(14) 51.4 8.228 11.013
1743.00 0.38088 10.77(14) 51.0 8.227 11.006
1744.00 0.38110 10.84(14) 50.7 8.225 11.009
1745.00 0.38132 10.89(14) 50.4 8.223 11.032
1746.00 0.38154 10.93(14) 50.2 8.221 11.075
1747.00 0.38176 11.19(14) 49.0 8.219 11.130
1748.00 0.38198 11.16(14) 49.2 8.217 11.178
1749.00 0.38219 10.94(14) 50.2 8.215 11.196
1750.00 0.38241 11.08(14) 49.5 8.214 11.161
1751.00 0.38263 11.14(14) 49.2 8.212 11.061
1752.00 0.38285 10.81(14) 50.7 8.210 10.893
1753.00 0.38307 10.92(14) 50.2 8.208 10.671
1754.00 0.38329 10.48(14) 52.4 8.206 10.416
1755.00 0.38351 10.35(14) 53.0 8.204 10.159
1756.00 0.38373 10.05(14) 54.5 8.203 9.921
1757.00 0.38394 9.91(13) 55.4 8.201 9.722
1758.00 0.38416 9.91(13) 55.4 8.199 9.572
1759.00 0.38438 9.62(13) 57.0 8.197 9.474
1760.00 0.38460 9.49(13) 57.7 8.195 9.427
1761.00 0.38482 9.54(13) 57.4 8.193 9.424
1762.00 0.38504 9.71(13) 56.4 8.192 9.456
1763.00 0.38526 9.73(13) 56.3 8.190 9.511
1764.00 0.38548 9.68(13) 56.5 8.188 9.577
1765.00 0.38569 9.65(13) 56.7 8.186 9.642
1766.00 0.38591 9.66(13) 56.6 8.184 9.695
1767.00 0.38613 9.80(13) 55.9 8.182 9.723
1768.00 0.38635 9.85(13) 55.5 8.181 9.724
1769.00 0.38657 9.70(13) 56.4 8.179 9.698
1770.00 0.38679 9.73(13) 56.2 8.177 9.651
1771.00 0.38701 9.67(13) 56.5 8.175 9.593
1772.00 0.38723 9.48(13) 57.7 8.173 9.534
1773.00 0.38745 9.44(13) 57.9 8.172 9.481
1774.00 0.38766 9.54(13) 57.3 8.170 9.443
1775.00 0.38788 9.57(13) 57.0 8.168 9.423
1776.00 0.38810 9.35(13) 58.4 8.166 9.421
1777.00 0.38832 9.35(13) 58.4 8.164 9.434
1778.00 0.38854 9.52(13) 57.4 8.162 9.456
1779.00 0.38876 9.53(13) 57.2 8.161 9.485
1780.00 0.38898 9.48(13) 57.6 8.159 9.519
1781.00 0.38920 9.33(13) 58.5 8.157 9.551
1782.00 0.38941 9.38(13) 58.2 8.155 9.578
1783.00 0.38963 9.43(13) 57.8 8.153 9.591
1784.00 0.38985 9.42(13) 57.9 8.152 9.588
1785.00 0.39007 9.35(13) 58.3 8.150 9.566
1786.00 0.39029 9.33(13) 58.4 8.148 9.529
1787.00 0.39051 9.44(13) 57.7 8.146 9.481
1788.00 0.39073 9.54(13) 57.1 8.144 9.431
1789.00 0.39095 9.42(13) 57.8 8.143 9.388
1790.00 0.39116 9.45(13) 57.6 8.141 9.359
1791.00 0.39138 9.52(13) 57.1 8.139 9.352
1792.00 0.39160 9.38(13) 58.0 8.137 9.369
1793.00 0.39182 9.33(13) 58.3 8.135 9.412
1794.00 0.39204 9.32(13) 58.4 8.134 9.476
1795.00 0.39226 9.54(13) 57.0 8.132 9.557
1796.00 0.39248 9.71(13) 55.9 8.130 9.646
1797.00 0.39270 9.73(13) 55.9 8.128 9.738
1798.00 0.39291 9.76(13) 55.6 8.126 9.826
1799.00 0.39313 9.89(14) 54.9 8.125 9.905
1800.00 0.39335 9.99(14) 54.3 8.123 9.969
1801.00 0.39357 10.06(14) 53.9 8.121 10.016
1802.00 0.39379 9.86(13) 55.0 8.119 10.049
1803.00 0.39401 9.84(13) 55.1 8.117 10.070
1804.00 0.39423 10.05(14) 54.0 8.116 10.088
1805.00 0.39445 10.11(14) 53.7 8.114 10.110
1806.00 0.39467 10.09(14) 53.7 8.112 10.141
1807.00 0.39488 10.19(14) 53.2 8.110 10.188
1808.00 0.39510 10.27(14) 52.7 8.108 10.254
1809.00 0.39532 10.27(14) 52.8 8.107 10.335
1810.00 0.39554 10.27(14) 52.7 8.105 10.424
1811.00 0.39576 10.48(14) 51.7 8.103 10.505
1812.00 0.39598 10.74(14) 50.4 8.101 10.562
1813.00 0.39620 10.66(14) 50.7 8.100 10.580
1814.00 0.39642 10.44(14) 51.8 8.098 10.548
1815.00 0.39663 10.36(14) 52.2 8.096 10.463
1816.00 0.39685 10.25(14) 52.8 8.094 10.335
1817.00 0.39707 10.22(14) 53.0 8.092 10.182
1818.00 0.39729 10.20(14) 53.0 8.091 10.022
1819.00 0.39751 10.03(14) 53.9 8.089 9.869
1820.00 0.39773 9.75(13) 55.4 8.087 9.733
1821.00 0.39795 9.66(13) 55.9 8.085 9.624
1822.00 0.39817 9.69(13) 55.8 8.084 9.546
1823.00 0.39838 9.43(13) 57.3 8.082 9.506
1824.00 0.39860 9.41(13) 57.5 8.080 9.507
1825.00 0.39882 9.43(13) 57.3 8.078 9.549
1826.00 0.39904 9.53(13) 56.7 8.076 9.632
1827.00 0.39926 9.55(13) 56.5 8.075 9.749
1828.00 0.39948 9.63(13) 56.0 8.073 9.892
1829.00 0.39970 9.81(13) 55.0 8.071 10.051
1830.00 0.39992 10.08(14) 53.5 8.069 10.213
1831.00 0.40013 10.28(14) 52.5 8.068 10.367
1832.00 0.40035 10.24(14) 52.7 8.066 10.498
1833.00 0.40057 10.48(14) 51.5 8.064 10.594
1834.00 0.40079 10.50(14) 51.3 8.062 10.649
1835.00 0.40101 10.46(14) 51.5 8.061 10.664
1836.00 0.40123 10.38(14) 51.9 8.059 10.646
1837.00 0.40145 10.57(14) 50.9 8.057 10.601
1838.00 0.40167 10.49(14) 51.3 8.055 10.534
1839.00 0.40189 10.41(14) 51.7 8.054 10.446
1840.00 0.40210 10.27(14) 52.4 8.052 10.335
1841.00 0.40232 10.19(14) 52.8 8.050 10.206
1842.00 0.40254 10.22(14) 52.7 8.048 10.069
1843.00 0.40276 10.07(14) 53.4 8.047 9.934
1844.00 0.40298 9.88(14) 54.5 8.045 9.811
1845.00 0.40320 9.85(14) 54.6 8.043 9.704
1846.00 0.40342 9.75(13) 55.2 8.041 9.614
1847.00 0.40364 9.79(14) 54.9 8.040 9.540
1848.00 0.40385 9.79(14) 54.9 8.038 9.479
1849.00 0.40407 9.67(13) 55.6 8.036 9.426
1850.00 0.40429 9.46(13) 56.9 8.034 9.378
1851.00 0.40451 9.36(13) 57.4 8.033 9.329
1852.00 0.40473 9.52(13) 56.4 8.031 9.278
1853.00 0.40495 9.48(13) 56.6 8.029 9.226
1854.00 0.40517 9.32(13) 57.7 8.027 9.176
1855.00 0.40539 9.40(13) 57.1 8.026 9.132
1856.00 0.40560 9.24(13) 58.1 8.024 9.099
1857.00 0.40582 9.29(13) 57.8 8.022 9.079
1858.00 0.40604 9.38(13) 57.2 8.020 9.074
1859.00 0.40626 9.35(13) 57.4 8.019 9.086
1860.00 0.40648 9.31(13) 57.6 8.017 9.115
1861.00 0.40670 9.25(13) 58.0 8.015 9.157
1862.00 0.40692 9.30(13) 57.7 8.013 9.209
1863.00 0.40714 9.33(13) 57.5 8.012 9.266
1864.00 0.40736 9.37(13) 57.2 8.010 9.324
1865.00 0.40757 9.34(13) 57.4 8.008 9.380
1866.00 0.40779 9.22(13) 58.1 8.006 9.433
1867.00 0.40801 9.50(13) 56.4 8.005 9.483
1868.00 0.40823 9.41(13) 57.0 8.003 9.529
1869.00 0.40845 9.55(13) 56.1 8.001 9.572
1870.00 0.40867 9.65(13) 55.4 8.000 9.614
1871.00 0.40889 9.76(14) 54.9 7.998 9.655
1872.00 0.40911 9.60(13) 55.7 7.996 9.696
1873.00 0.40932 9.67(13) 55.4 7.994 9.739
1874.00 0.40954 9.63(13) 55.5 7.993 9.784
1875.00 0.40976 9.55(13) 56.0 7.991 9.834
1876.00 0.40998 9.64(13) 55.4 7.989 9.891
1877.00 0.41020 9.76(14) 54.8 7.987 9.961
1878.00 0.41042 9.73(14) 54.9 7.986 10.051
1879.00 0.41064 9.96(14) 53.7 7.984 10.165
1880.00 0.41086 10.03(14) 53.3 7.982 10.305
1881.00 0.41107 10.21(14) 52.3 7.981 10.464
1882.00 0.41129 10.50(14) 50.8 7.979 10.629
1883.00 0.41151 10.58(14) 50.4 7.977 10.784
1884.00 0.41173 10.47(14) 50.9 7.975 10.905
1885.00 0.41195 10.61(14) 50.3 7.974 10.972
1886.00 0.41217 10.61(14) 50.3 7.972 10.969
1887.00 0.41239 10.58(14) 50.4 7.970 10.887
1888.00 0.41261 10.53(14) 50.6 7.969 10.734
1889.00 0.41282 10.60(14) 50.3 7.967 10.528
1890.00 0.41304 10.47(14) 50.9 7.965 10.292
1891.00 0.41326 9.99(14) 53.4 7.963 10.051
1892.00 0.41348 9.72(14) 54.8 7.962 9.825
1893.00 0.41370 9.65(13) 55.2 7.960 9.628
1894.00 0.41392 9.66(13) 55.1 7.958 9.469
1895.00 0.41414 9.64(13) 55.3 7.957 9.350
1896.00 0.41436 9.45(13) 56.4 7.955 9.273
1897.00 0.41458 9.46(13) 56.3 7.953 9.231
1898.00 0.41479 9.47(13) 56.2 7.951 9.225
1899.00 0.41501 9.30(13) 57.3 7.950 9.248
1900.00 0.41523 9.40(13) 56.6 7.948 9.296
1901.00 0.41545 9.51(13) 55.9 7.946 9.364
1902.00 0.41567 9.45(13) 56.3 7.945 9.445
1903.00 0.41589 9.47(13) 56.2 7.943 9.533
1904.00 0.41611 9.58(13) 55.5 7.941 9.622
1905.00 0.41633 9.78(14) 54.4 7.940 9.706
1906.00 0.41654 10.02(14) 53.0 7.938 9.776
1907.00 0.41676 9.72(14) 54.6 7.936 9.826
1908.00 0.41698 9.67(13) 55.0 7.935 9.849
1909.00 0.41720 9.67(13) 55.0 7.933 9.843
1910.00 0.41742 9.77(14) 54.4 7.931 9.810
1911.00 0.41764 9.83(14) 54.1 7.929 9.756
1912.00 0.41786 9.77(14) 54.4 7.928 9.686
1913.00 0.41808 9.51(13) 55.9 7.926 9.606
1914.00 0.41829 9.55(13) 55.6 7.924 9.519
1915.00 0.41851 9.59(13) 55.4 7.923 9.429
1916.00 0.41873 9.60(13) 55.3 7.921 9.343
1917.00 0.41895 9.46(13) 56.0 7.919 9.266
1918.00 0.41917 9.26(13) 57.3 7.918 9.205
1919.00 0.41939 9.08(13) 58.5 7.916 9.167
1920.00 0.41961 8.98(13) 59.1 7.914 9.155
1921.00 0.41983 8.88(13) 59.7 7.913 9.169
1922.00 0.42005 8.99(13) 59.0 7.911 9.209
1923.00 0.42026 9.16(13) 57.9 7.909 9.271
1924.00 0.42048 9.17(13) 57.8 7.908 9.347
1925.00 0.42070 9.22(13) 57.5 7.906 9.430
1926.00 0.42092 9.28(13) 57.1 7.904 9.510
1927.00 0.42114 9.34(13) 56.7 7.902 9.577
1928.00 0.42136 9.41(13) 56.3 7.901 9.622
1929.00 0.42158 9.58(13) 55.3 7.899 9.640
1930.00 0.42180 9.67(14) 54.7 7.897 9.631
1931.00 0.42201 9.50(13) 55.8 7.896 9.599
1932.00 0.42223 9.29(13) 57.0 7.894 9.549
1933.00 0.42245 9.10(13) 58.2 7.892 9.489
1934.00 0.42267 9.25(13) 57.2 7.891 9.427
1935.00 0.42289 9.20(13) 57.5 7.889 9.371
1936.00 0.42311 9.07(13) 58.4 7.887 9.328
1937.00 0.42333 9.07(13) 58.3 7.886 9.305
1938.00 0.42355 9.17(13) 57.7 7.884 9.306
1939.00 0.42376 9.25(13) 57.1 7.882 9.334
1940.00 0.42398 9.35(13) 56.5 7.881 9.389
1941.00 0.42420 9.32(13) 56.7 7.879 9.469
1942.00 0.42442 9.43(13) 56.0 7.877 9.570
1943.00 0.42464 9.61(13) 55.0 7.876 9.688
1944.00 0.42486 9.66(14) 54.7 7.874 9.817
1945.00 0.42508 9.73(14) 54.3 7.872 9.944
1946.00 0.42530 9.99(14) 52.8 7.871 10.057
1947.00 0.42551 10.11(14) 52.2 7.869 10.141
1948.00 0.42573 10.06(14) 52.4 7.867 10.184
1949.00 0.42595 10.04(14) 52.5 7.866 10.177
1950.00 0.42617 9.89(14) 53.4 7.864 10.125
1951.00 0.42639 9.85(14) 53.5 7.862 10.036
1952.00 0.42661 9.65(14) 54.6 7.861 9.925
1953.00 0.42683 9.55(13) 55.2 7.859 9.806
1954.00 0.42705 9.58(13) 55.0 7.858 9.694
1955.00 0.42727 9.56(13) 55.1 7.856 9.603
1956.00 0.42748 9.47(13) 55.6 7.854 9.543
1957.00 0.42770 9.23(13) 57.0 7.853 9.528
1958.00 0.42792 9.42(13) 55.9 7.851 9.561
1959.00 0.42814 9.47(13) 55.6 7.849 9.644
1960.00 0.42836 9.51(13) 55.4 7.848 9.775
1961.00 0.42858 9.67(14) 54.4 7.846 9.945
1962.00 0.42880 9.87(14) 53.4 7.844 10.143
1963.00 0.42902 10.15(14) 51.8 7.843 10.352
1964.00 0.42923 10.34(14) 50.9 7.841 10.555
1965.00 0.42945 10.64(14) 49.5 7.839 10.732
1966.00 0.42967 10.93(14) 48.1 7.838 10.865
1967.00 0.42989 10.91(14) 48.2 7.836 10.938
1968.00 0.43011 10.76(14) 48.8 7.834 10.945
1969.00 0.43033 10.65(14) 49.4 7.833 10.882
1970.00 0.43055 10.69(14) 49.1 7.831 10.758
1971.00 0.43077 10.61(14) 49.5 7.830 10.586
1972.00 0.43098 10.49(14) 50.1 7.828 10.383
1973.00 0.43120 10.22(14) 51.4 7.826 10.165
1974.00 0.43142 9.94(14) 52.8 7.825 9.944
1975.00 0.43164 9.78(14) 53.7 7.823 9.733
1976.00 0.43186 9.48(13) 55.4 7.821 9.536
1977.00 0.43208 9.25(13) 56.8 7.820 9.361
1978.00 0.43230 9.35(13) 56.2 7.818 9.207
1979.00 0.43252 9.15(13) 57.4 7.816 9.079
1980.00 0.43274 8.93(13) 58.8 7.815 8.977
1981.00 0.43295 8.85(13) 59.3 7.813 8.903
1982.00 0.43317 8.96(13) 58.6 7.812 8.856
1983.00 0.43339 8.96(13) 58.5 7.810 8.836
1984.00 0.43361 8.85(13) 59.4 7.808 8.842
1985.00 0.43383 8.82(13) 59.4 7.807 8.872
1986.00 0.43405 8.89(13) 59.0 7.805 8.924
1987.00 0.43427 9.07(13) 57.8 7.803 8.996
1988.00 0.43449 9.14(13) 57.3 7.802 9.084
1989.00 0.43470 9.32(13) 56.3 7.800 9.186
1990.00 0.43492 9.20(13) 57.0 7.799 9.295
1991.00 0.43514 9.35(13) 56.0 7.797 9.408
1992.00 0.43536 9.56(14) 54.8 7.795 9.519
1993.00 0.43558 9.61(14) 54.5 7.794 9.622
1994.00 0.43580 9.66(14) 54.1 7.792 9.711
1995.00 0.43602 9.65(14) 54.2 7.790 9.782
1996.00 0.43624 9.90(14) 52.9 7.789 9.830
1997.00 0.43645 9.77(14) 53.5 7.787 9.855
1998.00 0.43667 9.81(14) 53.4 7.786 9.856
1999.00 0.43689 9.70(14) 54.0 7.784 9.836
2000.00 0.43711 9.62(14) 54.4 7.782 9.797
2001.00 0.43733 9.67(14) 54.1 7.781 9.744
2002.00 0.43755 9.64(14) 54.3 7.779 9.684
2003.00 0.43777 9.66(14) 54.2 7.778 9.624
2004.00 0.43799 9.51(13) 55.1 7.776 9.570
2005.00 0.43821 9.53(13) 55.0 7.774 9.527
2006.00 0.43842 9.56(14) 54.8 7.773 9.495
2007.00 0.43864 9.61(14) 54.5 7.771 9.476
2008.00 0.43886 9.49(13) 55.3 7.769 9.468
2009.03 0.43909 9.79(14) 53.7 7.768 9.468
2010.03 0.43931 9.70(14) 54.1 7.766 9.475
2011.03 0.43952 9.42(13) 55.8 7.765 9.482
2012.03 0.43974 9.44(13) 55.7 7.763 9.483
2013.03 0.43996 9.46(13) 55.6 7.761 9.470
2014.03 0.44018 9.59(14) 54.8 7.760 9.435
2015.06 0.44041 9.37(13) 56.1 7.758 9.375
2016.06 0.44063 9.35(13) 56.3 7.757 9.296
2017.06 0.44084 9.34(13) 56.4 7.755 9.199
2018.06 0.44106 9.35(13) 56.3 7.753 9.098
2019.09 0.44129 9.18(13) 57.4 7.752 9.003
2020.09 0.44151 9.05(13) 58.3 7.750 8.925
2021.09 0.44173 9.02(13) 58.4 7.749 8.866
2022.13 0.44195 8.96(13) 58.9 7.747 8.834
2023.13 0.44217 8.97(13) 58.8 7.745 8.830
2024.13 0.44239 8.67(13) 60.9 7.744 8.856
2025.16 0.44262 8.93(13) 59.2 7.742 8.914
2026.16 0.44283 9.13(13) 57.8 7.740 9.005
2027.19 0.44306 9.05(13) 58.4 7.739 9.128
2028.19 0.44328 9.20(13) 57.4 7.737 9.285
2029.22 0.44350 9.42(13) 56.1 7.736 9.473
2030.22 0.44372 9.55(13) 55.4 7.734 9.687
2031.22 0.44394 9.92(14) 53.3 7.732 9.928
2032.25 0.44417 9.96(14) 53.1 7.731 10.186
2033.25 0.44439 10.33(14) 51.2 7.729 10.450
2034.28 0.44461 10.64(14) 49.8 7.728 10.714
2035.31 0.44484 10.69(14) 49.5 7.726 10.956
2036.31 0.44506 10.80(14) 49.1 7.724 11.163
2037.34 0.44528 10.92(14) 48.5 7.723 11.323
2038.34 0.44550 11.14(14) 47.6 7.721 11.425
2039.38 0.44573 11.28(15) 47.0 7.720 11.470
2040.41 0.44595 11.31(15) 46.9 7.718 11.467
2041.41 0.44617 11.00(14) 48.2 7.716 11.431
2042.44 0.44640 11.12(14) 47.8 7.715 11.376
2043.47 0.44662 11.35(15) 46.8 7.713 11.312
2044.47 0.44684 11.21(15) 47.4 7.712 11.242
2045.50 0.44707 11.28(15) 47.1 7.710 11.168
2046.53 0.44729 11.18(14) 47.6 7.708 11.087
2047.53 0.44751 10.91(14) 48.7 7.707 10.998
2048.56 0.44774 10.85(14) 49.0 7.705 10.907
2049.59 0.44796 10.88(14) 48.9 7.703 10.827
2050.63 0.44819 10.80(14) 49.3 7.702 10.773
2051.66 0.44841 10.69(14) 49.8 7.700 10.758
2052.66 0.44863 10.80(14) 49.3 7.699 10.785
2053.69 0.44886 10.94(14) 48.7 7.697 10.856
2054.72 0.44908 10.91(14) 48.9 7.695 10.961
2055.75 0.44931 11.17(14) 47.8 7.694 11.087
2056.78 0.44953 11.33(15) 47.1 7.692 11.216
2057.81 0.44976 11.39(15) 46.9 7.691 11.327
2058.84 0.44999 11.47(15) 46.6 7.689 11.399
2059.88 0.45021 11.43(15) 46.7 7.687 11.417
2060.91 0.45044 11.43(15) 46.8 7.686 11.376
2061.94 0.45066 11.31(15) 47.3 7.684 11.279
2062.97 0.45089 11.33(15) 47.2 7.683 11.136
2064.00 0.45111 11.27(15) 47.5 7.681 10.961
2065.03 0.45134 11.23(14) 47.6 7.679 10.764
2066.06 0.45157 10.93(14) 49.0 7.678 10.556
2067.09 0.45179 10.64(14) 50.4 7.676 10.344
2068.13 0.45202 10.32(14) 51.9 7.674 10.133
2069.16 0.45224 10.08(14) 53.2 7.673 9.930
2070.19 0.45247 10.04(14) 53.4 7.671 9.740
2071.22 0.45269 9.82(14) 54.6 7.670 9.571
2072.25 0.45292 9.62(13) 55.8 7.668 9.429
2073.28 0.45314 9.57(13) 56.1 7.666 9.319
2074.34 0.45338 9.63(13) 55.8 7.665 9.247
2075.38 0.45360 9.53(13) 56.4 7.663 9.212
2076.41 0.45383 9.57(13) 56.3 7.662 9.212
2077.44 0.45405 9.59(13) 56.2 7.660 9.244
2078.47 0.45428 9.47(13) 56.9 7.658 9.306
2079.53 0.45451 9.46(13) 56.9 7.657 9.389
2080.56 0.45474 9.52(13) 56.7 7.655 9.489
2081.59 0.45496 9.67(13) 55.8 7.654 9.604
2082.66 0.45520 9.90(14) 54.5 7.652 9.726
2083.69 0.45542 9.93(14) 54.3 7.650 9.844
2084.72 0.45565 9.96(14) 54.2 7.649 9.957
2085.78 0.45588 10.06(14) 53.6 7.647 10.053
2086.81 0.45611 9.96(14) 54.3 7.646 10.124
2087.84 0.45633 10.19(14) 53.0 7.644 10.167
2088.91 0.45656 10.33(14) 52.3 7.642 10.180
2089.94 0.45679 10.04(14) 53.8 7.641 10.167
2091.00 0.45702 10.06(14) 53.8 7.639 10.134
2092.03 0.45725 10.13(14) 53.5 7.638 10.086
2093.09 0.45748 10.12(14) 53.5 7.636 10.027
2094.13 0.45771 10.00(14) 54.2 7.634 9.956
2095.19 0.45794 10.04(14) 54.0 7.633 9.874
2096.22 0.45816 9.81(13) 55.3 7.631 9.779
2097.28 0.45840 9.76(13) 55.6 7.630 9.673
2098.31 0.45862 9.69(13) 56.0 7.628 9.559
2099.38 0.45885 9.42(13) 57.7 7.626 9.445
2100.41 0.45908 9.42(13) 57.7 7.625 9.341
2101.47 0.45931 9.32(13) 58.3 7.623 9.256
2102.53 0.45954 9.29(13) 58.5 7.622 9.204
2103.56 0.45977 9.07(13) 60.0 7.620 9.189
2104.63 0.46000 9.03(13) 60.3 7.618 9.218
2105.66 0.46023 9.29(13) 58.6 7.617 9.294
2106.72 0.46046 9.47(13) 57.5 7.615 9.417
2107.78 0.46069 9.53(13) 57.2 7.613 9.584
2108.84 0.46093 9.71(13) 56.2 7.612 9.781
2109.88 0.46115 9.87(13) 55.2 7.610 9.998
2110.94 0.46138 10.06(14) 54.2 7.609 10.225
2112.00 0.46162 10.21(14) 53.4 7.607 10.436
2113.06 0.46185 10.29(14) 53.0 7.605 10.608
2114.09 0.46207 10.41(14) 52.5 7.604 10.724
2115.16 0.46231 10.60(14) 51.5 7.602 10.772
2116.22 0.46254 10.72(14) 51.0 7.601 10.747
2117.28 0.46277 10.63(14) 51.4 7.599 10.654
2118.34 0.46300 10.51(14) 52.0 7.597 10.505
2119.41 0.46324 10.15(14) 53.9 7.596 10.316
2120.47 0.46347 10.09(14) 54.2 7.594 10.103
2121.53 0.46370 9.83(13) 55.8 7.593 9.881
2122.59 0.46393 9.64(13) 56.9 7.591 9.665
2123.66 0.46417 9.56(13) 57.4 7.589 9.465
2124.72 0.46440 9.52(13) 57.6 7.588 9.291
2125.75 0.46463 9.29(13) 59.1 7.586 9.143
2126.84 0.46486 9.10(13) 60.3 7.585 9.025
2127.91 0.46510 9.06(13) 60.6 7.583 8.942
2128.97 0.46533 8.88(13) 61.9 7.581 8.890
2130.03 0.46556 8.78(13) 62.6 7.580 8.868
2131.09 0.46579 8.80(13) 62.5 7.578 8.872
2132.16 0.46603 8.87(13) 62.0 7.577 8.900
2133.22 0.46626 8.99(13) 61.2 7.575 8.948
2134.28 0.46649 9.09(13) 60.6 7.573 9.015
2135.34 0.46672 9.20(13) 59.9 7.572 9.098
2136.41 0.46696 9.22(13) 59.7 7.570 9.191
2137.50 0.46720 9.44(13) 58.3 7.569 9.293
2138.56 0.46743 9.53(13) 57.8 7.567 9.394
2139.63 0.46766 9.72(13) 56.7 7.565 9.490
2140.69 0.46789 9.62(13) 57.4 7.564 9.576
2141.75 0.46813 9.57(13) 57.7 7.562 9.651
2142.84 0.46837 9.70(13) 56.9 7.561 9.711
2143.91 0.46860 9.78(13) 56.5 7.559 9.757
2144.97 0.46883 9.73(13) 56.8 7.557 9.795
2146.06 0.46907 9.79(13) 56.5 7.556 9.825
2147.13 0.46930 9.82(13) 56.4 7.554 9.848
2148.19 0.46953 9.96(13) 55.6 7.553 9.866
2149.28 0.46977 9.90(13) 55.9 7.551 9.878
2150.34 0.47001 9.82(13) 56.4 7.549 9.881
2151.44 0.47025 9.90(13) 56.0 7.548 9.873
2152.50 0.47048 9.81(13) 56.5 7.546 9.857
2153.56 0.47071 9.70(13) 57.1 7.545 9.837
2154.66 0.47095 9.65(13) 57.5 7.543 9.828
2155.72 0.47118 9.68(13) 57.3 7.541 9.844
2156.81 0.47142 9.73(13) 57.0 7.540 9.901
2157.88 0.47165 10.08(13) 55.1 7.538 10.008
2158.97 0.47189 10.05(13) 55.3 7.537 10.174
2160.03 0.47213 10.12(13) 54.9 7.535 10.396
2161.13 0.47237 10.55(14) 52.7 7.533 10.673
2162.22 0.47260 10.97(14) 50.7 7.532 10.985
2163.28 0.47284 11.32(14) 49.2 7.530 11.315
2164.38 0.47308 11.54(14) 48.2 7.529 11.638
2165.44 0.47331 11.68(14) 47.7 7.527 11.925
2166.53 0.47355 11.90(15) 46.8 7.526 12.152
2167.63 0.47379 12.18(15) 45.7 7.524 12.289
2168.69 0.47402 12.25(15) 45.5 7.522 12.326
2169.78 0.47426 12.09(15) 46.1 7.521 12.258
2170.88 0.47450 11.88(15) 46.9 7.519 12.095
2171.94 0.47473 11.97(15) 46.6 7.518 11.853
2173.03 0.47497 11.71(14) 47.7 7.516 11.554
2174.13 0.47521 11.34(14) 49.3 7.514 11.228
2175.22 0.47545 11.10(14) 50.4 7.513 10.898
2176.31 0.47569 10.79(14) 51.8 7.511 10.582
2177.38 0.47592 10.52(14) 53.2 7.510 10.284
2178.47 0.47616 10.14(13) 55.2 7.508 10.006
2179.56 0.47640 9.93(13) 56.4 7.506 9.755
2180.66 0.47664 9.66(13) 58.0 7.505 9.533
2181.75 0.47688 9.51(13) 58.9 7.503 9.341
2182.84 0.47712 9.17(13) 61.2 7.502 9.185
2183.94 0.47736 9.12(13) 61.5 7.500 9.059
2185.03 0.47760 9.18(13) 61.2 7.498 8.969
2186.13 0.47784 9.03(13) 62.2 7.497 8.914
2187.22 0.47807 9.02(13) 62.3 7.495 8.892
2188.31 0.47831 8.97(13) 62.6 7.494 8.902
2189.41 0.47855 8.98(13) 62.6 7.492 8.943
2190.50 0.47879 9.13(13) 61.7 7.490 9.013
2191.59 0.47903 9.26(13) 60.8 7.489 9.109
2192.69 0.47927 9.47(13) 59.5 7.487 9.227
2193.78 0.47951 9.49(13) 59.3 7.486 9.362
2194.88 0.47975 9.59(13) 58.7 7.484 9.508
2195.97 0.47999 9.66(13) 58.3 7.483 9.657
2197.06 0.48023 9.88(13) 57.1 7.481 9.800
2198.16 0.48047 10.15(13) 55.5 7.479 9.927
2199.25 0.48071 10.06(13) 56.1 7.478 10.032
2200.38 0.48095 9.97(13) 56.7 7.476 10.107
2201.47 0.48119 10.11(13) 55.9 7.475 10.156
2202.56 0.48143 10.33(14) 54.7 7.473 10.187
2203.66 0.48167 10.33(14) 54.7 7.471 10.205
2204.78 0.48192 10.23(13) 55.3 7.470 10.220
2205.88 0.48216 10.00(13) 56.6 7.468 10.231
2206.97 0.48240 10.26(13) 55.1 7.467 10.234
2208.06 0.48264 10.35(14) 54.7 7.465 10.225
2209.19 0.48288 10.24(13) 55.3 7.463 10.195
2210.28 0.48312 10.21(13) 55.5 7.462 10.131
2211.41 0.48337 9.88(13) 57.4 7.460 10.031
2212.50 0.48361 9.81(13) 57.9 7.459 9.897
2213.59 0.48385 9.75(13) 58.2 7.457 9.734
2214.72 0.48409 9.55(13) 59.4 7.455 9.558
2215.81 0.48433 9.42(13) 60.3 7.454 9.380
2216.94 0.48458 9.45(13) 60.1 7.452 9.210
2218.03 0.48482 9.22(13) 61.6 7.451 9.054
2219.16 0.48506 9.00(13) 63.2 7.449 8.916
2220.25 0.48530 8.81(12) 64.7 7.448 8.796
2221.38 0.48555 9.02(13) 63.2 7.446 8.695
2222.47 0.48579 8.77(12) 64.9 7.444 8.610
2223.59 0.48603 8.70(12) 65.5 7.443 8.542
2224.69 0.48627 8.71(12) 65.5 7.441 8.489
2225.81 0.48652 8.57(12) 66.6 7.440 8.451
2226.94 0.48677 8.69(12) 65.6 7.438 8.428
2228.03 0.48700 8.50(12) 67.1 7.436 8.418
2229.16 0.48725 8.43(12) 67.7 7.435 8.417
2230.25 0.48749 8.47(12) 67.4 7.433 8.421
2231.38 0.48774 8.62(12) 66.3 7.432 8.430
2232.50 0.48798 8.68(12) 65.9 7.430 8.438
2233.63 0.48823 8.70(12) 65.7 7.429 8.446
2234.72 0.48847 8.59(12) 66.7 7.427 8.450
2235.84 0.48871 8.45(12) 67.8 7.425 8.450
2236.97 0.48896 8.36(12) 68.5 7.424 8.445
2238.09 0.48921 8.52(12) 67.2 7.422 8.436
2239.19 0.48945 8.39(12) 68.3 7.421 8.425
2240.31 0.48969 8.28(12) 69.2 7.419 8.412
2241.44 0.48994 8.28(12) 69.3 7.417 8.401
2242.56 0.49018 8.27(12) 69.3 7.416 8.398
2243.69 0.49043 8.42(12) 68.2 7.414 8.407
2244.81 0.49068 8.45(12) 68.0 7.413 8.429
2245.94 0.49092 8.31(12) 69.1 7.411 8.465
2247.06 0.49117 8.36(12) 68.7 7.409 8.515
2248.19 0.49141 8.55(12) 67.3 7.408 8.578
2249.31 0.49166 8.53(12) 67.5 7.406 8.654
2250.44 0.49191 8.61(12) 66.8 7.405 8.741
2251.56 0.49215 8.73(12) 66.0 7.403 8.841
2252.69 0.49240 8.75(12) 65.9 7.402 8.958
2253.81 0.49265 8.90(12) 64.8 7.400 9.097
2254.94 0.49289 8.96(12) 64.3 7.398 9.257
2256.06 0.49314 9.06(13) 63.7 7.397 9.438
2257.19 0.49338 9.37(13) 61.5 7.395 9.635
2258.31 0.49363 9.58(13) 60.3 7.394 9.839
2259.44 0.49388 9.67(13) 59.7 7.392 10.036
2260.56 0.49412 9.62(13) 60.0 7.391 10.218
2261.69 0.49437 9.88(13) 58.5 7.389 10.371
2262.84 0.49462 9.86(13) 58.6 7.387 10.488
2263.97 0.49487 9.89(13) 58.5 7.386 10.571
2265.09 0.49511 10.20(13) 56.7 7.384 10.638
2266.22 0.49536 10.30(13) 56.2 7.383 10.706
2267.34 0.49561 10.23(13) 56.6 7.381 10.793
2268.50 0.49586 10.40(13) 55.7 7.379 10.907
2269.63 0.49611 10.67(14) 54.3 7.378 11.044
2270.75 0.49635 10.84(14) 53.5 7.376 11.197
2271.91 0.49660 11.05(14) 52.4 7.375 11.345
2273.03 0.49685 11.03(14) 52.5 7.373 11.460
2274.16 0.49710 11.08(14) 52.4 7.372 11.520
2275.31 0.49735 11.13(14) 52.1 7.370 11.504
2276.44 0.49760 10.97(14) 52.9 7.368 11.412
2277.59 0.49785 11.17(14) 52.0 7.367 11.252
2278.72 0.49810 10.92(14) 53.2 7.365 11.051
2279.88 0.49835 10.69(14) 54.4 7.364 10.834
2281.00 0.49859 10.60(14) 54.9 7.362 10.621
2282.16 0.49885 10.37(13) 56.1 7.361 10.428
2283.28 0.49909 10.17(13) 57.3 7.359 10.262
2284.44 0.49935 9.95(13) 58.6 7.357 10.124
2285.56 0.49959 10.12(13) 57.6 7.356 10.014
2286.72 0.49985 9.87(13) 59.1 7.354 9.928
2287.84 0.50009 9.70(13) 60.1 7.353 9.860
2289.00 0.50034 9.64(13) 60.6 7.351 9.804
2290.16 0.50060 9.70(13) 60.2 7.350 9.759
2291.28 0.50084 9.62(13) 60.8 7.348 9.716
2292.44 0.50110 9.71(13) 60.2 7.346 9.671
2293.56 0.50134 9.65(13) 60.6 7.345 9.622
2294.72 0.50160 9.63(13) 60.8 7.343 9.567
2295.88 0.50185 9.51(13) 61.5 7.342 9.507
2297.03 0.50210 9.39(13) 62.4 7.340 9.441
2298.16 0.50235 9.47(13) 61.9 7.339 9.368
2299.31 0.50260 9.25(13) 63.4 7.337 9.286
2300.47 0.50285 9.23(13) 63.5 7.335 9.192
2301.63 0.50311 9.15(12) 64.1 7.334 9.089
2302.78 0.50336 8.90(12) 66.0 7.332 8.981
2303.91 0.50361 8.79(12) 66.9 7.331 8.870
2305.06 0.50386 8.75(12) 67.2 7.329 8.760
2306.22 0.50411 8.75(12) 67.2 7.328 8.658
2307.38 0.50437 8.65(12) 68.0 7.326 8.567
2308.53 0.50462 8.50(12) 69.2 7.324 8.491
2309.69 0.50487 8.59(12) 68.6 7.323 8.434
2310.84 0.50512 8.40(12) 70.1 7.321 8.396
2312.00 0.50538 8.41(12) 70.1 7.320 8.378
2313.16 0.50563 8.33(12) 70.8 7.318 8.382
2314.31 0.50588 8.44(12) 69.9 7.317 8.407
2315.47 0.50614 8.44(12) 69.9 7.315 8.454
2316.63 0.50639 8.38(12) 70.4 7.313 8.518
2317.78 0.50664 8.48(12) 69.6 7.312 8.600
2318.94 0.50690 8.61(12) 68.6 7.310 8.699
2320.09 0.50715 8.65(12) 68.3 7.309 8.818
2321.25 0.50740 8.79(12) 67.2 7.307 8.959
2322.41 0.50765 8.92(12) 66.3 7.306 9.126
2323.59 0.50791 9.14(12) 64.7 7.304 9.317
2324.75 0.50817 9.36(13) 63.3 7.302 9.526
2325.91 0.50842 9.78(13) 60.5 7.301 9.750
2327.06 0.50867 9.86(13) 60.1 7.299 9.976
2328.22 0.50893 9.98(13) 59.4 7.298 10.194
2329.41 0.50919 10.17(13) 58.2 7.296 10.382
2330.56 0.50944 10.36(13) 57.2 7.295 10.519
2331.72 0.50969 10.36(13) 57.3 7.293 10.593
2332.91 0.50995 10.35(13) 57.3 7.291 10.600
2334.06 0.51020 10.32(13) 57.6 7.290 10.547
2335.22 0.51046 10.18(13) 58.4 7.288 10.443
2336.41 0.51072 10.31(13) 57.6 7.287 10.305
2337.56 0.51097 9.94(13) 59.8 7.285 10.146
2338.72 0.51122 9.90(13) 60.1 7.284 9.974
2339.91 0.51148 9.61(13) 62.0 7.282 9.796
2341.06 0.51174 9.59(13) 62.2 7.280 9.616
2342.25 0.51200 9.37(13) 63.7 7.279 9.439
2343.41 0.51225 9.25(12) 64.6 7.277 9.266
2344.59 0.51251 9.03(12) 66.1 7.276 9.100
2345.75 0.51276 8.80(12) 67.8 7.274 8.944
2346.94 0.51302 8.92(12) 67.0 7.273 8.801
2348.09 0.51327 8.82(12) 67.7 7.271 8.674
2349.28 0.51353 8.42(12) 71.0 7.270 8.568
2350.44 0.51379 8.23(12) 72.8 7.268 8.485
2351.63 0.51405 8.38(12) 71.4 7.266 8.421
2352.81 0.51431 8.23(12) 72.8 7.265 8.385
2353.97 0.51456 8.12(12) 73.7 7.263 8.377
2355.16 0.51482 8.22(12) 72.9 7.262 8.398
2356.34 0.51508 8.12(12) 73.9 7.260 8.454
2357.50 0.51533 8.35(12) 71.8 7.259 8.549
2358.69 0.51559 8.57(12) 70.0 7.257 8.688
2359.88 0.51585 8.73(12) 68.8 7.256 8.872
2361.06 0.51611 8.79(12) 68.3 7.254 9.095
2362.22 0.51637 9.09(12) 66.2 7.252 9.349
2363.41 0.51663 9.49(13) 63.3 7.251 9.626
2364.59 0.51689 9.58(13) 62.8 7.249 9.900
2365.78 0.51714 9.83(13) 61.2 7.248 10.155
2366.97 0.51740 9.89(13) 60.9 7.246 10.360
2368.13 0.51766 10.04(13) 59.9 7.245 10.500
2369.31 0.51792 10.21(13) 58.9 7.243 10.565
2370.50 0.51818 10.20(13) 59.1 7.242 10.554
2371.69 0.51844 9.95(13) 60.6 7.240 10.481
2372.88 0.51870 9.99(13) 60.4 7.238 10.359
2374.06 0.51896 9.94(13) 60.7 7.237 10.207
2375.25 0.51922 9.84(13) 61.4 7.235 10.036
2376.44 0.51948 9.80(13) 61.7 7.234 9.858
2377.63 0.51974 9.55(13) 63.3 7.232 9.677
2378.81 0.52000 9.35(12) 64.6 7.231 9.500
2380.00 0.52026 9.27(12) 65.3 7.229 9.329
2381.19 0.52052 8.99(12) 67.3 7.228 9.167
2382.38 0.52078 8.81(12) 68.8 7.226 9.018
2383.59 0.52104 8.73(12) 69.4 7.224 8.884
2384.78 0.52130 8.58(12) 70.7 7.223 8.771
2385.97 0.52156 8.53(12) 71.2 7.221 8.680
2387.16 0.52182 8.48(12) 71.6 7.220 8.611
2388.34 0.52208 8.32(12) 73.0 7.218 8.564
2389.53 0.52234 8.39(12) 72.4 7.217 8.538
2390.75 0.52261 8.29(12) 73.4 7.215 8.533
2391.94 0.52287 8.42(12) 72.3 7.214 8.548
2393.13 0.52313 8.39(12) 72.6 7.212 8.582
2394.31 0.52339 8.41(12) 72.4 7.210 8.638
2395.53 0.52365 8.33(12) 73.2 7.209 8.720
2396.72 0.52391 8.58(12) 71.0 7.207 8.829
2397.91 0.52417 8.73(12) 69.8 7.206 8.971
2399.13 0.52444 8.98(12) 68.0 7.204 9.138
2400.31 0.52470 9.26(12) 65.8 7.203 9.325
2401.53 0.52497 9.47(12) 64.5 7.201 9.523
2402.72 0.52523 9.71(13) 62.9 7.200 9.714
2403.91 0.52549 9.77(13) 62.5 7.198 9.887
2405.13 0.52575 9.92(13) 61.6 7.196 10.021
2406.31 0.52601 10.06(13) 60.7 7.195 10.102
2407.53 0.52628 10.02(13) 61.0 7.193 10.120
2408.72 0.52654 10.07(13) 60.8 7.192 10.076
2409.94 0.52681 9.99(13) 61.3 7.190 9.979
2411.16 0.52707 9.80(13) 62.5 7.189 9.842
2412.34 0.52733 9.78(13) 62.7 7.187 9.681
2413.56 0.52760 9.49(12) 64.6 7.186 9.507
2414.75 0.52786 9.15(12) 67.1 7.184 9.333
2415.97 0.52813 9.01(12) 68.2 7.183 9.155
2417.19 0.52839 8.87(12) 69.3 7.181 8.987
2418.38 0.52865 8.71(12) 70.5 7.179 8.829
2419.59 0.52892 8.65(12) 71.1 7.178 8.685
2420.81 0.52919 8.44(12) 73.0 7.176 8.562
2422.00 0.52945 8.33(12) 74.0 7.175 8.467
2423.22 0.52971 8.29(12) 74.4 7.173 8.400
2424.44 0.52998 8.21(12) 75.1 7.172 8.366
2425.66 0.53025 8.07(11) 76.4 7.170 8.367
2426.88 0.53051 8.14(11) 75.8 7.169 8.404
2428.06 0.53077 8.34(12) 74.1 7.167 8.474
2429.28 0.53104 8.52(12) 72.5 7.166 8.580
2430.50 0.53131 8.68(12) 71.1 7.164 8.718
2431.72 0.53157 8.71(12) 71.0 7.162 8.885
2432.94 0.53184 8.92(12) 69.4 7.161 9.076
2434.16 0.53211 9.25(12) 66.9 7.159 9.287
2435.38 0.53237 9.63(12) 64.3 7.158 9.510
2436.59 0.53264 9.63(12) 64.3 7.156 9.736
2437.81 0.53291 9.83(13) 63.0 7.155 9.949
2439.03 0.53317 10.08(13) 61.4 7.153 10.134
2440.25 0.53344 10.29(13) 60.3 7.152 10.275
2441.47 0.53371 10.29(13) 60.3 7.150 10.357
2442.69 0.53397 10.18(13) 61.0 7.149 10.371
2443.91 0.53424 10.06(13) 61.7 7.147 10.322
2445.13 0.53451 10.09(13) 61.6 7.146 10.218
2446.34 0.53477 10.25(13) 60.6 7.144 10.081
2447.56 0.53504 10.07(13) 61.7 7.142 9.929
2448.78 0.53531 9.90(13) 62.8 7.141 9.775
2450.03 0.53558 9.61(12) 64.7 7.139 9.629
2451.25 0.53585 9.60(12) 64.9 7.138 9.496
2452.47 0.53611 9.47(12) 65.8 7.136 9.373
2453.69 0.53638 9.30(12) 67.1 7.135 9.254
2454.94 0.53665 9.17(12) 68.1 7.133 9.137
2456.16 0.53692 9.02(12) 69.3 7.132 9.021
2457.38 0.53719 8.73(12) 71.6 7.130 8.900
2458.59 0.53745 8.58(12) 72.8 7.129 8.779
2459.84 0.53773 8.63(12) 72.5 7.127 8.658
2461.06 0.53799 8.51(12) 73.5 7.126 8.544
2462.31 0.53827 8.42(12) 74.4 7.124 8.439
2463.53 0.53853 8.42(12) 74.4 7.122 8.352
2464.75 0.53880 8.46(12) 74.1 7.121 8.284
2466.00 0.53907 8.35(12) 75.1 7.119 8.237
2467.22 0.53934 8.37(12) 74.9 7.118 8.212
2468.47 0.53961 8.41(12) 74.6 7.116 8.209
2469.69 0.53988 8.35(12) 75.1 7.115 8.224
2470.94 0.54015 8.32(12) 75.6 7.113 8.254
2472.16 0.54042 8.32(12) 75.6 7.112 8.294
2473.41 0.54069 8.36(12) 75.2 7.110 8.342
2474.63 0.54096 8.52(12) 73.8 7.109 8.395
2475.88 0.54123 8.61(12) 73.1 7.107 8.457
2477.13 0.54151 8.55(12) 73.7 7.106 8.532
2478.34 0.54177 8.69(12) 72.5 7.104 8.627
2479.59 0.54205 8.90(12) 70.9 7.103 8.749
2480.84 0.54232 9.07(12) 69.6 7.101 8.900
2482.06 0.54259 9.19(12) 68.6 7.099 9.083
2483.31 0.54286 9.43(12) 66.9 7.098 9.298
2484.56 0.54314 9.71(12) 65.1 7.096 9.533
2485.78 0.54340 9.90(13) 63.9 7.095 9.779
2487.03 0.54368 10.09(13) 62.7 7.093 10.026
2488.28 0.54395 10.28(13) 61.5 7.092 10.254
2489.53 0.54422 10.64(13) 59.5 7.090 10.451
2490.78 0.54450 10.77(13) 58.8 7.089 10.612
2492.03 0.54477 10.79(13) 58.7 7.087 10.740
2493.25 0.54504 10.81(13) 58.6 7.086 10.857
2494.50 0.54531 10.87(13) 58.3 7.084 10.986
2495.75 0.54558 11.21(13) 56.6 7.083 11.146
2497.00 0.54586 11.43(13) 55.5 7.081 11.351
2498.25 0.54613 11.58(14) 54.8 7.080 11.608
2499.50 0.54640 11.96(14) 53.1 7.078 11.907
2500.75 0.54668 12.14(14) 52.3 7.077 12.228
2502.00 0.54695 12.56(14) 50.6 7.075 12.541
2503.25 0.54722 12.76(14) 49.8 7.074 12.814
2504.50 0.54750 12.68(14) 50.2 7.072 13.010
2505.75 0.54777 12.87(14) 49.4 7.071 13.093
2507.00 0.54805 12.79(14) 49.8 7.069 13.039
2508.25 0.54832 12.63(14) 50.4 7.067 12.846
2509.53 0.54860 12.33(14) 51.7 7.066 12.538
2510.78 0.54887 12.10(14) 52.7 7.064 12.149
2512.03 0.54915 11.68(14) 54.6 7.063 11.720
2513.28 0.54942 11.42(13) 55.9 7.061 11.287
2514.53 0.54969 11.14(13) 57.4 7.060 10.870
2515.81 0.54997 10.64(13) 60.1 7.058 10.495
2517.06 0.55025 10.33(13) 62.0 7.057 10.174
2518.31 0.55052 10.18(13) 62.9 7.055 9.908
2519.56 0.55079 9.73(12) 65.9 7.054 9.697
2520.84 0.55107 9.64(12) 66.5 7.052 9.540
2522.09 0.55135 9.51(12) 67.5 7.051 9.440
2523.34 0.55162 9.58(12) 67.0 7.049 9.393
2524.63 0.55190 9.65(12) 66.6 7.048 9.400
2525.88 0.55218 9.74(12) 66.0 7.046 9.460
2527.16 0.55246 9.91(12) 64.9 7.045 9.570
2528.41 0.55273 9.84(12) 65.4 7.043 9.720
2529.66 0.55300 10.13(13) 63.6 7.042 9.900
2530.94 0.55328 10.17(13) 63.3 7.040 10.089
2532.19 0.55356 10.34(13) 62.2 7.039 10.263
2533.47 0.55384 10.41(13) 61.9 7.037 10.397
2534.72 0.55411 10.33(13) 62.4 7.036 10.466
2536.00 0.55439 10.28(13) 62.7 7.034 10.457
2537.28 0.55467 10.34(13) 62.4 7.033 10.370
2538.53 0.55494 10.36(13) 62.3 7.031 10.221
2539.81 0.55522 10.04(12) 64.4 7.030 10.029
2541.06 0.55550 9.84(12) 65.7 7.028 9.817
2542.34 0.55578 9.64(12) 67.1 7.026 9.599
2543.63 0.55606 9.32(12) 69.5 7.025 9.393
2544.88 0.55633 9.22(12) 70.3 7.023 9.204
2546.16 0.55661 9.06(12) 71.6 7.022 9.031
2547.44 0.55689 8.91(12) 72.9 7.020 8.876
2548.72 0.55717 8.83(12) 73.5 7.019 8.736
2549.97 0.55745 8.80(12) 73.8 7.017 8.609
2551.25 0.55773 8.55(11) 76.1 7.016 8.488
2552.53 0.55801 8.39(11) 77.5 7.014 8.374
2553.81 0.55829 8.36(11) 77.9 7.013 8.263
2555.09 0.55857 8.23(11) 79.2 7.011 8.159
2556.38 0.55885 8.15(11) 79.9 7.010 8.063
2557.66 0.55913 8.09(11) 80.6 7.008 7.980
2558.91 0.55940 8.04(11) 81.2 7.007 7.910
2560.19 0.55968 7.91(11) 82.5 7.005 7.854
2561.47 0.55996 7.96(11) 82.1 7.004 7.816
2562.75 0.56024 7.96(11) 82.1 7.002 7.797
2564.03 0.56052 7.88(11) 83.0 7.001 7.797
2565.31 0.56080 7.80(11) 83.9 6.999 7.817
2566.59 0.56109 7.77(11) 84.2 6.998 7.857
2567.88 0.56137 7.96(11) 82.3 6.996 7.921
2569.19 0.56165 8.11(11) 80.8 6.995 8.008
2570.47 0.56193 8.34(11) 78.6 6.993 8.117
2571.75 0.56221 8.33(11) 78.7 6.992 8.252
2573.03 0.56249 8.42(11) 78.0 6.990 8.416
2574.31 0.56277 8.72(12) 75.4 6.989 8.599
2575.59 0.56305 8.96(12) 73.3 6.987 8.805
2576.91 0.56334 9.32(12) 70.5 6.986 9.025
2578.19 0.56362 9.37(12) 70.2 6.984 9.246
2579.47 0.56390 9.48(12) 69.4 6.983 9.461
2580.75 0.56418 9.81(12) 67.1 6.981 9.661
2582.06 0.56447 9.83(12) 66.9 6.980 9.832
2583.34 0.56475 10.09(12) 65.3 6.978 9.965
2584.63 0.56503 10.02(12) 65.8 6.977 10.063
2585.94 0.56532 10.02(12) 65.8 6.975 10.133
2587.22 0.56560 10.20(12) 64.7 6.974 10.188
2588.50 0.56588 10.17(12) 64.8 6.972 10.240
2589.81 0.56617 10.39(13) 63.6 6.971 10.303
2591.09 0.56645 10.47(13) 63.1 6.969 10.389
2592.41 0.56673 10.61(13) 62.3 6.968 10.505
2593.69 0.56701 10.85(13) 60.9 6.966 10.652
2595.00 0.56730 10.95(13) 60.4 6.965 10.822
2596.28 0.56758 10.98(13) 60.3 6.963 11.000
2597.59 0.56787 11.11(13) 59.6 6.962 11.167
2598.88 0.56815 11.33(13) 58.5 6.960 11.299
2600.19 0.56844 11.38(13) 58.2 6.959 11.369
2601.47 0.56872 11.20(13) 59.3 6.957 11.360
2602.78 0.56900 11.40(13) 58.2 6.956 11.265
2604.09 0.56929 11.04(13) 60.2 6.954 11.101
2605.38 0.56957 10.75(13) 61.8 6.953 10.887
2606.69 0.56986 10.62(13) 62.6 6.951 10.647
2608.00 0.57015 10.48(13) 63.5 6.950 10.408
2609.28 0.57043 10.31(12) 64.6 6.948 10.187
2610.59 0.57071 9.99(12) 66.7 6.947 9.991
2611.91 0.57100 9.79(12) 68.1 6.945 9.831
2613.22 0.57129 9.73(12) 68.7 6.944 9.708
2614.53 0.57157 9.67(12) 69.0 6.942 9.628
2615.81 0.57185 9.57(12) 69.8 6.941 9.592
2617.13 0.57214 9.60(12) 69.6 6.939 9.605
2618.44 0.57243 9.69(12) 69.0 6.938 9.677
2619.75 0.57272 9.67(12) 69.2 6.936 9.806
2621.06 0.57300 9.98(12) 67.1 6.935 10.000
2622.38 0.57329 10.27(12) 65.2 6.933 10.249
2623.69 0.57358 10.64(13) 63.0 6.932 10.540
2625.00 0.57387 11.17(13) 60.0 6.931 10.854
2626.31 0.57415 11.61(13) 57.8 6.929 11.166
2627.63 0.57444 11.85(13) 56.6 6.928 11.450
2628.94 0.57473 11.96(13) 56.1 6.926 11.684
2630.25 0.57501 11.95(13) 56.2 6.925 11.845
2631.56 0.57530 11.88(13) 56.6 6.923 11.917
2632.88 0.57559 11.79(13) 57.0 6.922 11.887
2634.19 0.57588 11.78(13) 57.1 6.920 11.753
2635.50 0.57616 11.54(13) 58.4 6.919 11.527
2636.84 0.57646 11.34(13) 59.5 6.917 11.236
2638.16 0.57674 11.14(13) 60.5 6.916 10.912
2639.47 0.57703 10.57(13) 63.9 6.914 10.580
2640.78 0.57732 10.26(12) 65.8 6.913 10.257
2642.13 0.57761 10.03(12) 67.4 6.911 9.961
2643.44 0.57790 9.70(12) 69.8 6.910 9.702
2644.75 0.57819 9.72(12) 69.6 6.908 9.476
2646.06 0.57847 9.39(12) 72.1 6.907 9.278
2647.41 0.57877 9.05(12) 75.0 6.905 9.102
2648.72 0.57906 9.03(12) 75.2 6.904 8.949
2650.03 0.57934 9.03(12) 75.2 6.902 8.809
2651.38 0.57964 8.81(11) 77.1 6.901 8.677
2652.69 0.57992 8.86(11) 76.7 6.899 8.550
2654.03 0.58022 8.69(11) 78.2 6.898 8.428
2655.34 0.58051 8.42(11) 80.8 6.896 8.310
2656.69 0.58080 8.34(11) 81.7 6.895 8.201
2658.00 0.58109 8.23(11) 82.8 6.893 8.104
2659.34 0.58138 8.23(11) 82.8 6.892 8.022
2660.66 0.58167 8.06(11) 84.7 6.891 7.959
2662.00 0.58196 8.04(11) 85.0 6.889 7.916
2663.31 0.58225 7.96(11) 85.8 6.888 7.894
2664.66 0.58254 7.98(11) 85.6 6.886 7.894
2666.00 0.58284 7.99(11) 85.7 6.885 7.916
2667.31 0.58312 8.02(11) 85.3 6.883 7.960
2668.66 0.58342 8.11(11) 84.5 6.882 8.029
2670.00 0.58371 8.17(11) 83.9 6.880 8.124
2671.31 0.58400 8.23(11) 83.3 6.879 8.249
2672.66 0.58429 8.41(11) 81.6 6.877 8.414
2674.00 0.58459 8.73(11) 78.6 6.876 8.623
2675.34 0.58488 9.02(11) 76.1 6.874 8.885
2676.69 0.58518 9.10(12) 75.5 6.873 9.200
2678.00 0.58546 9.61(12) 71.4 6.871 9.573
2679.34 0.58576 10.08(12) 68.1 6.870 10.000
2680.69 0.58605 10.36(12) 66.3 6.868 10.460
2682.03 0.58634 10.93(13) 62.9 6.867 10.927
2683.38 0.58664 11.12(13) 61.8 6.865 11.368
2684.72 0.58693 11.64(13) 59.1 6.864 11.744
2686.06 0.58723 11.90(13) 57.8 6.863 12.017
2687.41 0.58752 11.87(13) 58.0 6.861 12.165
2688.75 0.58781 12.12(13) 56.9 6.860 12.182
2690.09 0.58811 11.98(13) 57.6 6.858 12.089
2691.44 0.58840 11.79(13) 58.5 6.857 11.905
2692.78 0.58870 11.58(13) 59.6 6.855 11.658
2694.13 0.58899 11.23(13) 61.5 6.854 11.376
2695.47 0.58929 11.01(13) 62.8 6.852 11.081
2696.81 0.58958 10.80(12) 64.1 6.851 10.795
2698.16 0.58987 10.52(12) 65.8 6.849 10.532
2699.50 0.59017 10.36(12) 66.9 6.848 10.297
2700.88 0.59047 9.99(12) 69.4 6.846 10.093
2702.22 0.59076 9.77(12) 71.1 6.845 9.922
2703.56 0.59106 9.71(12) 71.5 6.844 9.771
2704.91 0.59135 9.67(12) 71.8 6.842 9.631
2706.28 0.59165 9.32(12) 74.7 6.841 9.490
2707.63 0.59195 9.11(11) 76.3 6.839 9.340
2708.97 0.59224 9.12(11) 76.3 6.838 9.175
2710.34 0.59254 8.92(11) 78.1 6.836 8.998
2711.69 0.59283 8.70(11) 80.1 6.835 8.816
2713.03 0.59313 8.51(11) 82.0 6.833 8.633
2714.41 0.59343 8.59(11) 81.3 6.832 8.466
2715.75 0.59372 8.35(11) 83.7 6.830 8.313
2717.13 0.59402 8.26(11) 84.6 6.829 8.183
2718.47 0.59432 8.20(11) 85.3 6.827 8.078
2719.84 0.59462 8.06(11) 86.8 6.826 8.000
2721.19 0.59491 8.01(11) 87.4 6.825 7.948
2722.56 0.59521 7.97(11) 87.9 6.823 7.922
2723.91 0.59551 7.92(11) 88.6 6.822 7.919
2725.28 0.59581 7.90(11) 88.8 6.820 7.938
2726.63 0.59610 7.94(11) 88.5 6.819 7.979
2728.00 0.59640 7.98(11) 88.1 6.817 8.043
2729.38 0.59670 8.16(11) 86.1 6.816 8.131
2730.72 0.59700 8.29(11) 84.8 6.814 8.251
2732.09 0.59730 8.44(11) 83.4 6.813 8.411
2733.47 0.59760 8.48(11) 83.0 6.811 8.614
2734.84 0.59790 8.82(11) 79.8 6.810 8.860
2736.19 0.59820 9.10(11) 77.4 6.809 9.147
2737.56 0.59850 9.46(12) 74.4 6.807 9.466
2738.94 0.59880 9.56(12) 73.8 6.806 9.796
2740.31 0.59910 10.01(12) 70.5 6.804 10.113
2741.69 0.59940 10.20(12) 69.1 6.803 10.386
2743.03 0.59969 10.31(12) 68.4 6.801 10.594
2744.41 0.59999 10.43(12) 67.7 6.800 10.722
2745.78 0.60029 10.37(12) 68.1 6.798 10.762
2747.16 0.60060 10.53(12) 67.1 6.797 10.732
2748.53 0.60090 10.50(12) 67.3 6.796 10.644
2749.91 0.60120 10.31(12) 68.7 6.794 10.513
2751.28 0.60150 10.37(12) 68.3 6.793 10.353
2752.66 0.60180 10.24(12) 69.2 6.791 10.174
2754.03 0.60210 9.85(12) 72.0 6.790 9.984
2755.41 0.60240 9.45(12) 75.1 6.788 9.790
2756.78 0.60270 9.40(12) 75.5 6.787 9.588
2758.16 0.60300 9.33(11) 76.1 6.785 9.377
2759.56 0.60331 9.00(11) 79.0 6.784 9.163
2760.94 0.60361 8.94(11) 79.6 6.783 8.950
2762.31 0.60391 8.80(11) 80.9 6.781 8.740
2763.69 0.60421 8.62(11) 82.7 6.780 8.541
2765.06 0.60451 8.48(11) 84.1 6.778 8.353
2766.47 0.60482 8.14(11) 87.6 6.777 8.183
2767.84 0.60512 8.02(11) 89.1 6.775 8.036
2769.22 0.60542 7.97(11) 89.6 6.774 7.910
2770.59 0.60572 7.96(11) 89.8 6.772 7.805
2772.00 0.60603 7.99(11) 89.6 6.771 7.722
2773.38 0.60633 7.86(10) 91.0 6.770 7.659
2774.75 0.60663 7.72(10) 92.8 6.768 7.613
2776.16 0.60694 7.56(10) 94.8 6.767 7.584
2777.53 0.60724 7.62(10) 94.1 6.765 7.567
2778.94 0.60755 7.57(10) 94.7 6.764 7.562
2780.31 0.60785 7.66(10) 93.7 6.762 7.567
2781.72 0.60816 7.57(10) 95.0 6.761 7.580
2783.09 0.60846 7.61(10) 94.4 6.760 7.603
2784.50 0.60877 7.53(10) 95.5 6.758 7.639
2785.88 0.60907 7.62(10) 94.4 6.757 7.692
2787.28 0.60938 7.81(10) 92.1 6.755 7.769
2788.66 0.60968 7.96(11) 90.4 6.754 7.877
2790.06 0.60998 7.98(11) 90.3 6.752 8.028
2791.47 0.61029 8.19(11) 88.0 6.751 8.225
2792.84 0.61059 8.59(11) 83.9 6.750 8.477
2794.25 0.61090 8.74(11) 82.4 6.748 8.791
2795.66 0.61121 9.23(11) 78.2 6.747 9.155
2797.03 0.61151 9.74(12) 74.1 6.745 9.561
2798.44 0.61182 10.03(12) 71.9 6.744 9.991
2799.84 0.61212 10.45(12) 69.1 6.742 10.420
2801.25 0.61243 10.96(12) 65.8 6.741 10.812
2802.66 0.61274 11.21(12) 64.4 6.740 11.128
2804.03 0.61304 11.49(13) 62.8 6.738 11.346
2805.44 0.61335 11.45(13) 63.1 6.737 11.454
2806.84 0.61366 11.52(13) 62.8 6.735 11.458
2808.25 0.61396 11.33(13) 63.9 6.734 11.380
2809.66 0.61427 11.02(12) 65.7 6.732 11.250
2811.06 0.61458 10.99(12) 66.0 6.731 11.100
2812.47 0.61489 10.89(12) 66.5 6.730 10.959
2813.88 0.61519 10.67(12) 68.0 6.728 10.855
2815.28 0.61550 10.76(12) 67.5 6.727 10.814
2816.69 0.61581 10.79(12) 67.3 6.725 10.853
2818.09 0.61612 11.04(12) 65.8 6.724 10.980
2819.50 0.61643 11.18(12) 65.0 6.722 11.190
2820.91 0.61673 11.49(13) 63.3 6.721 11.471
2822.31 0.61704 11.91(13) 61.0 6.720 11.797
2823.75 0.61736 12.00(13) 60.6 6.718 12.128
2825.16 0.61766 12.41(13) 58.7 6.717 12.410
2826.56 0.61797 12.53(13) 58.1 6.715 12.603
2827.97 0.61828 12.47(13) 58.4 6.714 12.672
2829.38 0.61859 12.53(13) 58.2 6.713 12.604
2830.81 0.61890 12.27(13) 59.4 6.711 12.412
2832.22 0.61921 12.17(13) 60.0 6.710 12.132
2833.63 0.61952 11.80(13) 61.9 6.708 11.798
2835.06 0.61983 11.50(13) 63.6 6.707 11.447
2836.47 0.62014 11.16(12) 65.5 6.705 11.112
2837.88 0.62045 10.93(12) 67.0 6.704 10.802
2839.31 0.62076 10.55(12) 69.5 6.703 10.529
2840.72 0.62107 10.39(12) 70.6 6.701 10.293
2842.16 0.62138 10.13(12) 72.5 6.700 10.089
2843.56 0.62169 10.03(12) 73.2 6.698 9.908
2845.00 0.62201 9.95(12) 73.8 6.697 9.744
2846.41 0.62231 9.65(11) 76.3 6.696 9.597
2847.84 0.62263 9.38(11) 78.4 6.694 9.471
2849.25 0.62294 9.43(11) 78.1 6.693 9.374
2850.69 0.62325 9.40(11) 78.4 6.691 9.313
2852.09 0.62356 9.40(11) 78.4 6.690 9.302
2853.53 0.62387 9.40(11) 78.4 6.688 9.339
2854.97 0.62419 9.53(11) 77.4 6.687 9.438
2856.38 0.62450 9.71(11) 76.0 6.686 9.599
2857.81 0.62481 9.85(12) 75.0 6.684 9.832
2859.25 0.62512 10.22(12) 72.3 6.683 10.128
2860.69 0.62544 10.59(12) 69.7 6.681 10.469
2862.09 0.62575 10.97(12) 67.3 6.680 10.842
2863.53 0.62606 11.29(12) 65.5 6.679 11.227
2864.97 0.62638 11.61(13) 63.6 6.677 11.592
2866.41 0.62669 11.96(13) 61.8 6.676 11.901
2867.84 0.62700 12.10(13) 61.2 6.674 12.120
2869.28 0.62732 12.06(13) 61.4 6.673 12.221
2870.69 0.62763 12.35(13) 60.0 6.672 12.202
2872.13 0.62794 12.17(13) 60.9 6.670 12.072
2873.56 0.62826 11.96(13) 62.0 6.669 11.852
2875.00 0.62857 11.48(12) 64.7 6.667 11.570
2876.44 0.62889 11.14(12) 66.7 6.666 11.246
2877.88 0.62920 10.95(12) 67.9 6.665 10.900
2879.31 0.62951 10.67(12) 69.7 6.663 10.547
2880.75 0.62983 10.31(12) 72.2 6.662 10.195
2882.22 0.63015 9.95(12) 74.9 6.660 9.858
2883.66 0.63046 9.69(11) 76.9 6.659 9.543
2885.09 0.63078 9.38(11) 79.6 6.658 9.249
2886.53 0.63109 9.12(11) 81.8 6.656 8.978
2887.97 0.63141 8.98(11) 83.2 6.655 8.729
2889.41 0.63172 8.60(11) 87.0 6.653 8.501
2890.88 0.63204 8.36(11) 89.6 6.652 8.297
2892.31 0.63236 8.16(10) 91.8 6.651 8.118
2893.75 0.63267 8.13(10) 92.1 6.649 7.961
2895.19 0.63299 7.93(10) 94.6 6.648 7.826
2896.66 0.63331 7.82(10) 96.0 6.646 7.715
2898.09 0.63362 7.80(10) 96.3 6.645 7.626
2899.53 0.63394 7.65(10) 98.2 6.644 7.562
2901.00 0.63426 7.58(10) 99.1 6.642 7.516
2902.44 0.63457 7.69(10) 97.7 6.641 7.490
2903.91 0.63490 7.58(10) 99.2 6.640 7.481
2905.34 0.63521 7.58(10) 99.4 6.638 7.486
2906.81 0.63553 7.62(10) 98.8 6.637 7.500
2908.25 0.63585 7.61(10) 99.0 6.635 7.519
2909.72 0.63617 7.65(10) 98.6 6.634 7.538
2911.16 0.63648 7.72(10) 97.7 6.633 7.552
2912.63 0.63680 7.73(10) 97.6 6.631 7.560
2914.06 0.63712 7.67(10) 98.5 6.630 7.562
2915.53 0.63744 7.64(10) 98.9 6.628 7.564
2917.00 0.63776 7.68(10) 98.4 6.627 7.568
2918.44 0.63808 7.61(10) 99.4 6.626 7.589
2919.91 0.63840 7.71(10) 98.2 6.624 7.629
2921.38 0.63872 7.67(10) 98.8 6.623 7.698
2922.84 0.63904 7.66(10) 98.8 6.622 7.799
2924.28 0.63935 7.99(10) 94.9 6.620 7.939
2925.75 0.63968 8.16(10) 92.9 6.619 8.125
2927.22 0.64000 8.40(11) 90.3 6.617 8.356
2928.69 0.64032 8.59(11) 88.3 6.616 8.628
2930.16 0.64064 8.87(11) 85.5 6.615 8.933
2931.63 0.64096 9.35(11) 81.1 6.613 9.256
2933.06 0.64128 9.70(11) 78.3 6.612 9.583
2934.53 0.64160 9.85(11) 77.1 6.610 9.898
2936.00 0.64192 10.19(12) 74.6 6.609 10.172
2937.47 0.64224 10.23(12) 74.3 6.608 10.382
2938.94 0.64256 10.38(12) 73.3 6.606 10.516
2940.41 0.64288 10.46(12) 72.7 6.605 10.569
2941.88 0.64320 10.37(12) 73.3 6.604 10.569
2943.34 0.64353 10.27(12) 74.1 6.602 10.533
2944.84 0.64385 10.45(12) 72.9 6.601 10.490
2946.31 0.64418 10.39(12) 73.4 6.599 10.464
2947.78 0.64450 10.26(12) 74.4 6.598 10.476
2949.25 0.64482 10.30(12) 74.1 6.597 10.542
2950.72 0.64514 10.49(12) 72.7 6.595 10.670
2952.19 0.64546 10.68(12) 71.5 6.594 10.870
2953.69 0.64579 11.02(12) 69.3 6.593 11.137
2955.16 0.64611 11.42(12) 66.9 6.591 11.458
2956.63 0.64643 11.75(12) 65.1 6.590 11.818
2958.09 0.64675 12.16(13) 62.9 6.589 12.203
2959.59 0.64708 12.47(13) 61.3 6.587 12.584
2961.06 0.64740 12.86(13) 59.5 6.586 12.928
2962.53 0.64772 12.95(13) 59.1 6.584 13.208
2964.03 0.64805 13.01(13) 58.9 6.583 13.381
2965.50 0.64837 13.09(13) 58.5 6.582 13.415
2967.00 0.64870 13.10(13) 58.5 6.580 13.296
2968.47 0.64902 12.80(13) 59.9 6.579 13.035
2969.97 0.64935 12.48(13) 61.5 6.578 12.663
2971.44 0.64967 11.95(12) 64.3 6.576 12.221
2972.94 0.65000 11.65(12) 66.0 6.575 11.745
2974.41 0.65032 11.36(12) 67.7 6.574 11.272
2975.91 0.65065 10.89(12) 70.7 6.572 10.819
2977.41 0.65098 10.45(12) 73.7 6.571 10.412
2978.88 0.65130 10.00(11) 77.1 6.569 10.052
2980.38 0.65163 9.64(11) 80.1 6.568 9.739
2981.88 0.65196 9.31(11) 82.9 6.567 9.473
2983.34 0.65228 9.22(11) 83.9 6.565 9.247
2984.84 0.65261 9.18(11) 84.3 6.564 9.051
2986.34 0.65294 9.05(11) 85.5 6.563 8.884
2987.84 0.65326 8.82(11) 87.9 6.561 8.741
2989.31 0.65359 8.72(11) 88.9 6.560 8.618
2990.81 0.65391 8.71(11) 89.0 6.559 8.509
2992.31 0.65424 8.54(10) 90.8 6.557 8.415
2993.81 0.65457 8.51(10) 91.2 6.556 8.333
2995.31 0.65490 8.39(10) 92.6 6.555 8.267
2996.81 0.65523 8.23(10) 94.4 6.553 8.221
2998.31 0.65555 8.31(10) 93.5 6.552 8.205
2999.81 0.65588 8.25(10) 94.3 6.550 8.226
3001.31 0.65621 8.28(10) 93.9 6.549 8.291
3002.81 0.65654 8.49(10) 91.7 6.548 8.404
3004.31 0.65687 8.68(11) 89.7 6.546 8.561
3005.81 0.65720 8.90(11) 87.5 6.545 8.752
3007.31 0.65752 9.07(11) 85.9 6.544 8.969
3008.81 0.65785 9.38(11) 83.0 6.542 9.188
3010.31 0.65818 9.43(11) 82.7 6.541 9.385
3011.81 0.65851 9.68(11) 80.6 6.540 9.546
3013.31 0.65884 9.59(11) 81.4 6.538 9.634
3014.84 0.65917 9.63(11) 81.1 6.537 9.648
3016.34 0.65950 9.55(11) 81.8 6.536 9.596
3017.84 0.65983 9.67(11) 80.8 6.534 9.495
3019.34 0.66016 9.47(11) 82.6 6.533 9.361
3020.88 0.66049 9.21(11) 84.9 6.532 9.212
3022.38 0.66082 9.19(11) 85.2 6.530 9.066
3023.88 0.66115 8.94(11) 87.6 6.529 8.928
3025.41 0.66148 8.86(11) 88.6 6.528 8.804
3026.91 0.66181 8.71(11) 90.0 6.526 8.697
3028.44 0.66215 8.71(11) 90.1 6.525 8.604
3029.94 0.66248 8.53(10) 92.1 6.524 8.520
3031.47 0.66281 8.45(10) 92.9 6.522 8.439
3032.97 0.66314 8.49(10) 92.6 6.521 8.355
3034.50 0.66347 8.31(10) 94.6 6.520 8.264
3036.00 0.66380 8.16(10) 96.3 6.518 8.166
3037.53 0.66414 8.14(10) 96.7 6.517 8.064
3039.03 0.66447 7.99(10) 98.6 6.516 7.959
3040.56 0.66480 7.84(10) 100.6 6.514 7.854
3042.09 0.66514 7.76(10) 101.6 6.513 7.751
3043.59 0.66546 7.63(10) 103.5 6.512 7.652
3045.13 0.66580 7.52(10) 104.9 6.510 7.556
3046.66 0.66613 7.44(10) 106.1 6.509 7.468
3048.16 0.66646 7.35(10) 107.5 6.508 7.388
3049.69 0.66680 7.23(10) 109.4 6.506 7.319
3051.22 0.66713 7.18(10) 110.1 6.505 7.261
3052.75 0.66747 7.10(9) 111.5 6.504 7.218
3054.28 0.66780 7.18(10) 110.5 6.502 7.188
3055.81 0.66814 7.10(9) 111.6 6.501 7.171
3057.31 0.66847 7.04(9) 112.6 6.500 7.168
3058.84 0.66880 7.12(9) 111.4 6.498 7.175
3060.38 0.66914 7.17(10) 110.8 6.497 7.193
3061.91 0.66947 7.26(10) 109.4 6.496 7.217
3063.44 0.66981 7.19(10) 110.5 6.494 7.247
3064.97 0.67014 7.30(10) 109.0 6.493 7.280
3066.50 0.67048 7.29(10) 109.1 6.492 7.313
3068.03 0.67081 7.45(10) 106.8 6.490 7.345
3069.56 0.67115 7.36(10) 108.1 6.489 7.372
3071.13 0.67149 7.20(10) 110.6 6.488 7.391
3072.66 0.67182 7.26(10) 109.7 6.486 7.400
3074.19 0.67216 7.44(10) 107.0 6.485 7.396
3075.72 0.67249 7.18(9) 111.1 6.484 7.381
3077.25 0.67283 7.15(9) 111.5 6.482 7.363
3078.81 0.67317 7.18(9) 111.1 6.481 7.346
3080.34 0.67351 7.31(10) 109.2 6.480 7.336
3081.88 0.67384 7.41(10) 107.8 6.478 7.338
3083.41 0.67418 7.25(10) 110.1 6.477 7.356
3084.97 0.67452 7.27(10) 110.0 6.476 7.391
3086.50 0.67485 7.37(10) 108.5 6.474 7.443
3088.03 0.67519 7.44(10) 107.5 6.473 7.508
3089.59 0.67553 7.46(10) 107.3 6.472 7.582
3091.13 0.67587 7.70(10) 103.9 6.470 7.658
3092.69 0.67621 7.75(10) 103.4 6.469 7.729
3094.22 0.67654 7.71(10) 104.0 6.468 7.791
3095.78 0.67688 7.83(10) 102.3 6.467 7.842
3097.31 0.67722 7.83(10) 102.4 6.465 7.886
3098.88 0.67756 7.79(10) 103.1 6.464 7.929
3100.41 0.67790 7.88(10) 101.9 6.463 7.977
3101.97 0.67824 7.88(10) 101.9 6.461 8.041
3103.53 0.67858 8.03(10) 100.0 6.460 8.124
3105.06 0.67892 8.11(10) 99.0 6.459 8.246
3106.63 0.67926 8.24(10) 97.5 6.457 8.422
3108.19 0.67960 8.41(10) 95.6 6.456 8.668
3109.72 0.67993 8.85(10) 90.9 6.455 9.006
3111.28 0.68028 9.29(11) 86.5 6.453 9.464
3112.84 0.68062 9.84(11) 81.7 6.452 10.056
3114.41 0.68096 10.61(11) 75.9 6.451 10.790
3115.97 0.68130 11.66(12) 69.0 6.450 11.651
3117.50 0.68164 12.88(13) 62.4 6.448 12.622
3119.06 0.68198 13.77(13) 58.3 6.447 13.672
3120.63 0.68232 15.00(14) 53.5 6.446 14.727
3122.19 0.68266 15.73(14) 51.0 6.444 15.701
3123.75 0.68300 16.32(14) 49.2 6.443 16.500
3125.31 0.68335 17.04(15) 47.1 6.442 17.034
3126.88 0.68369 17.26(15) 46.5 6.440 17.244
3128.44 0.68403 17.05(15) 47.1 6.439 17.129
3130.00 0.68437 16.69(14) 48.2 6.438 16.731
3131.56 0.68471 16.33(14) 49.3 6.437 16.122
3133.13 0.68506 15.72(14) 51.2 6.435 15.373
3134.72 0.68540 14.82(14) 54.4 6.434 14.559
3136.28 0.68575 13.80(13) 58.5 6.433 13.749
3137.84 0.68609 12.86(13) 62.8 6.431 12.977
3139.41 0.68643 12.10(12) 66.9 6.430 12.258
3140.97 0.68677 11.49(12) 70.4 6.429 11.603
3142.56 0.68712 10.84(12) 74.8 6.427 11.024
3144.13 0.68746 10.31(11) 78.7 6.426 10.524
3145.69 0.68781 9.98(11) 81.4 6.425 10.092
3147.25 0.68815 9.73(11) 83.4 6.424 9.720
3148.84 0.68850 9.41(11) 86.4 6.422 9.409
3150.41 0.68884 9.27(11) 87.8 6.421 9.150
3152.00 0.68919 8.95(10) 91.0 6.420 8.943
3153.56 0.68953 8.85(10) 92.1 6.418 8.783
3155.16 0.68988 8.83(10) 92.3 6.417 8.666
3156.72 0.69022 8.71(10) 93.5 6.416 8.588
3158.31 0.69057 8.72(10) 93.5 6.415 8.545
3159.88 0.69091 8.70(10) 93.8 6.413 8.532
3161.47 0.69126 8.90(10) 91.7 6.412 8.547
3163.03 0.69160 8.94(10) 91.3 6.411 8.587
3164.63 0.69195 8.93(10) 91.4 6.409 8.647
3166.19 0.69229 8.99(10) 90.9 6.408 8.720
3167.78 0.69264 9.00(10) 90.8 6.407 8.799
3169.38 0.69299 9.13(11) 89.6 6.406 8.873
3170.94 0.69333 9.16(11) 89.4 6.404 8.935
3172.53 0.69368 9.09(11) 90.1 6.403 8.984
3174.13 0.69403 9.23(11) 88.7 6.402 9.016
3175.72 0.69438 9.19(11) 89.1 6.400 9.033
3177.31 0.69473 9.05(11) 90.6 6.399 9.036
3178.88 0.69507 9.01(10) 91.0 6.398 9.016
3180.47 0.69542 8.87(10) 92.5 6.397 8.970
3182.06 0.69577 8.98(10) 91.3 6.395 8.893
3183.66 0.69611 8.87(10) 92.5 6.394 8.784
3185.25 0.69646 8.72(10) 94.1 6.393 8.649
3186.84 0.69681 8.51(10) 96.5 6.392 8.497
3188.44 0.69716 8.38(10) 98.1 6.390 8.335
3190.03 0.69751 8.30(10) 99.1 6.389 8.171
3191.63 0.69786 8.02(10) 102.5 6.388 8.013
3193.22 0.69821 7.92(10) 104.0 6.386 7.865
3194.81 0.69856 7.71(10) 106.8 6.385 7.728
3196.41 0.69890 7.70(10) 107.0 6.384 7.606
3198.00 0.69925 7.57(10) 108.9 6.383 7.499
3199.63 0.69961 7.36(9) 112.0 6.381 7.407
3201.22 0.69996 7.26(9) 113.6 6.380 7.331
3202.81 0.70031 7.22(9) 114.3 6.379 7.271
3204.41 0.70065 7.21(9) 114.6 6.378 7.225
3206.03 0.70101 7.17(9) 115.3 6.376 7.192
3207.63 0.70136 7.26(9) 113.8 6.375 7.172
3209.22 0.70171 7.16(9) 115.5 6.374 7.161
3210.81 0.70206 7.07(9) 117.0 6.373 7.156
3212.44 0.70241 7.06(9) 117.4 6.371 7.156
3214.03 0.70276 7.02(9) 118.0 6.370 7.156
3215.66 0.70312 7.01(9) 118.2 6.369 7.152
3217.25 0.70347 7.06(9) 117.5 6.367 7.143
3218.88 0.70382 7.00(9) 118.5 6.366 7.129
3220.47 0.70417 6.99(9) 118.8 6.365 7.114
3222.09 0.70453 7.00(9) 118.5 6.364 7.102
3223.69 0.70487 7.05(9) 117.7 6.362 7.100
3225.31 0.70523 7.08(9) 117.2 6.361 7.113
3226.91 0.70558 7.12(9) 116.7 6.360 7.145
3228.53 0.70593 7.15(9) 116.1 6.359 7.202
3230.16 0.70629 7.19(9) 115.6 6.357 7.282
3231.75 0.70664 7.42(9) 112.1 6.356 7.383
3233.38 0.70699 7.48(9) 111.2 6.355 7.501
3235.00 0.70735 7.58(10) 109.8 6.354 7.626
3236.63 0.70771 7.67(10) 108.4 6.352 7.745
3238.22 0.70805 7.76(10) 107.3 6.351 7.847
3239.84 0.70841 7.74(10) 107.5 6.350 7.920
3241.47 0.70877 7.74(10) 107.5 6.349 7.956
3243.09 0.70912 7.78(10) 107.1 6.347 7.956
3244.72 0.70948 7.82(10) 106.6 6.346 7.925
3246.34 0.70983 7.82(10) 106.7 6.345 7.875
3247.97 0.71019 7.81(10) 106.9 6.344 7.815
3249.59 0.71054 7.66(10) 108.9 6.342 7.758
3251.22 0.71090 7.52(9) 111.1 6.341 7.712
3252.84 0.71125 7.45(9) 112.1 6.340 7.688
3254.47 0.71161 7.50(9) 111.5 6.339 7.696
3256.09 0.71197 7.44(9) 112.4 6.337 7.748
3257.72 0.71232 7.71(10) 108.5 6.336 7.858
3259.34 0.71268 7.87(10) 106.2 6.335 8.039
3260.97 0.71303 8.21(10) 101.9 6.334 8.308
3262.59 0.71339 8.60(10) 97.2 6.332 8.681
3264.22 0.71374 9.05(10) 92.4 6.331 9.167
3265.88 0.71411 9.62(11) 86.9 6.330 9.782
3267.50 0.71446 10.50(11) 79.5 6.329 10.503
3269.13 0.71482 11.47(12) 72.8 6.328 11.318
3270.78 0.71518 12.34(12) 67.6 6.326 12.179
3272.41 0.71554 13.13(13) 63.6 6.325 13.018
3274.03 0.71589 13.80(13) 60.5 6.324 13.778
3275.69 0.71625 14.40(13) 57.9 6.323 14.370
3277.31 0.71661 14.67(13) 56.9 6.321 14.727
3278.94 0.71697 14.72(13) 56.7 6.320 14.828
3280.59 0.71733 14.61(13) 57.2 6.319 14.681
3282.22 0.71768 14.26(13) 58.6 6.318 14.331
3283.88 0.71805 13.85(13) 60.3 6.316 13.839
3285.50 0.71840 13.31(13) 62.9 6.315 13.264
3287.16 0.71876 12.65(12) 66.2 6.314 12.654
3288.81 0.71913 11.87(12) 70.7 6.313 12.061
3290.44 0.71948 11.18(12) 75.0 6.312 11.508
3292.09 0.71984 10.80(11) 77.8 6.310 11.009
3293.75 0.72021 10.41(11) 80.7 6.309 10.585
3295.38 0.72056 9.90(11) 84.9 6.308 10.239
3297.03 0.72092 9.58(11) 87.9 6.307 9.974
3298.69 0.72129 9.36(11) 89.9 6.305 9.798
3300.34 0.72165 9.42(11) 89.4 6.304 9.716
3301.97 0.72201 9.46(11) 89.1 6.303 9.728
3303.63 0.72237 9.58(11) 88.0 6.302 9.834
3305.28 0.72273 9.88(11) 85.2 6.300 10.028
3306.94 0.72309 10.17(11) 82.8 6.299 10.294
3308.59 0.72346 10.53(11) 80.0 6.298 10.609
3310.25 0.72382 11.01(11) 76.5 6.297 10.940
3311.91 0.72418 11.19(12) 75.3 6.296 11.245
3313.56 0.72454 11.31(12) 74.6 6.294 11.480
3315.22 0.72490 11.55(12) 73.0 6.293 11.604
3316.88 0.72527 11.49(12) 73.4 6.292 11.597
3318.53 0.72563 11.38(12) 74.1 6.291 11.463
3320.19 0.72599 11.23(12) 75.1 6.290 11.221
3321.84 0.72635 10.91(11) 77.4 6.288 10.906
3323.50 0.72672 10.57(11) 80.0 6.287 10.550
3325.16 0.72708 10.28(11) 82.2 6.286 10.180
3326.84 0.72745 9.96(11) 84.9 6.285 9.823
3328.50 0.72781 9.47(11) 89.4 6.283 9.498
3330.16 0.72817 9.23(10) 91.8 6.282 9.209
3331.81 0.72854 8.88(10) 95.4 6.281 8.960
3333.50 0.72891 8.71(10) 97.3 6.280 8.751
3335.16 0.72927 8.66(10) 97.9 6.279 8.579
3336.81 0.72963 8.49(10) 99.9 6.277 8.436
3338.50 0.73000 8.28(10) 102.5 6.276 8.314
3340.16 0.73036 8.26(10) 102.8 6.275 8.207
3341.84 0.73073 8.21(10) 103.5 6.274 8.106
3343.50 0.73109 8.14(10) 104.3 6.273 8.009
3345.19 0.73146 7.85(10) 108.2 6.271 7.913
3346.84 0.73183 7.98(10) 106.5 6.270 7.819
3348.53 0.73220 7.84(10) 108.5 6.269 7.729
3350.19 0.73256 7.73(10) 110.0 6.268 7.641
3351.88 0.73293 7.58(9) 112.3 6.267 7.557
3353.53 0.73329 7.57(9) 112.5 6.265 7.475
3355.22 0.73366 7.42(9) 114.8 6.264 7.392
3356.91 0.73403 7.27(9) 117.2 6.263 7.309
3358.56 0.73439 7.30(9) 116.7 6.262 7.232
3360.25 0.73476 7.02(9) 121.5 6.261 7.150
3361.94 0.73513 7.03(9) 121.3 6.259 7.071
3363.63 0.73550 6.90(9) 123.7 6.258 6.998
3365.31 0.73587 6.92(9) 123.4 6.257 6.933
3366.97 0.73623 6.81(9) 125.4 6.256 6.876
3368.66 0.73660 6.73(9) 126.9 6.255 6.828
3370.34 0.73697 6.66(9) 128.3 6.253 6.791
3372.03 0.73734 6.72(9) 127.2 6.252 6.766
3373.72 0.73771 6.58(9) 129.8 6.251 6.754
3375.41 0.73808 6.66(9) 128.4 6.250 6.756
3377.09 0.73845 6.71(9) 127.4 6.249 6.774
3378.78 0.73881 6.76(9) 126.6 6.247 6.810
3380.47 0.73918 6.79(9) 125.9 6.246 6.867
3382.16 0.73955 6.87(9) 124.6 6.245 6.946
3383.84 0.73992 7.08(9) 120.9 6.244 7.050
3385.56 0.74030 7.03(9) 122.0 6.243 7.177
3387.25 0.74067 7.24(9) 118.2 6.242 7.321
3388.94 0.74104 7.49(9) 114.4 6.240 7.479
3390.63 0.74141 7.73(9) 110.8 6.239 7.639
3392.31 0.74178 7.92(10) 108.1 6.238 7.791
3394.03 0.74215 7.87(10) 108.9 6.237 7.918
3395.72 0.74252 7.81(10) 109.7 6.236 8.007
3397.41 0.74289 7.75(10) 110.6 6.234 8.053
3399.13 0.74327 7.93(10) 108.1 6.233 8.058
3400.81 0.74364 8.06(10) 106.4 6.232 8.028
3402.50 0.74401 7.91(10) 108.5 6.231 7.972
3404.22 0.74438 7.83(10) 109.6 6.230 7.901
3405.91 0.74475 7.68(9) 111.7 6.229 7.821
3407.63 0.74513 7.80(10) 110.1 6.227 7.738
3409.31 0.74550 7.61(9) 112.8 6.226 7.655
3411.03 0.74587 7.61(9) 112.9 6.225 7.572
3412.72 0.74624 7.39(9) 116.4 6.224 7.491
3414.44 0.74662 7.24(9) 118.8 6.223 7.405
3416.16 0.74699 7.19(9) 119.6 6.221 7.332
3417.84 0.74736 7.13(9) 120.8 6.220 7.265
3419.56 0.74774 6.98(9) 123.4 6.219 7.202
3421.28 0.74812 6.96(9) 123.8 6.218 7.142
3423.00 0.74849 6.76(9) 127.4 6.217 7.084
3424.69 0.74886 6.78(9) 127.0 6.216 7.027
3426.41 0.74924 6.74(9) 127.9 6.214 6.968
3428.13 0.74961 6.63(9) 130.1 6.213 6.908
3429.84 0.74999 6.58(9) 130.9 6.212 6.849
3431.56 0.75037 6.51(9) 132.5 6.211 6.793
3433.28 0.75074 6.53(9) 132.1 6.210 6.740
3434.97 0.75111 6.50(9) 132.9 6.209 6.691
3436.69 0.75149 6.42(9) 134.5 6.207 6.646
3438.41 0.75186 6.42(9) 134.5 6.206 6.608
3440.13 0.75224 6.38(9) 135.2 6.205 6.575
3441.84 0.75262 6.45(9) 134.0 6.204 6.548
3443.59 0.75300 6.43(9) 134.5 6.203 6.527
3445.31 0.75337 6.35(9) 136.2 6.202 6.513
3447.03 0.75375 6.36(9) 136.0 6.200 6.506
3448.75 0.75413 6.35(9) 136.2 6.199 6.508
3450.47 0.75450 6.45(9) 134.1 6.198 6.518
3452.19 0.75488 6.35(9) 136.1 6.197 6.538
3453.94 0.75526 6.38(9) 135.6 6.196 6.565
3455.66 0.75564 6.35(9) 136.3 6.195 6.607
3457.38 0.75601 6.50(9) 133.2 6.194 6.661
3459.09 0.75639 6.51(9) 133.1 6.192 6.724
3460.84 0.75677 6.56(9) 132.0 6.191 6.795
3462.56 0.75715 6.64(9) 130.3 6.190 6.870
3464.31 0.75753 6.78(9) 127.7 6.189 6.943
3466.03 0.75791 6.85(9) 126.5 6.188 7.010
3467.75 0.75829 6.91(9) 125.4 6.187 7.070
3469.50 0.75867 6.93(9) 124.9 6.186 7.123
3471.22 0.75904 7.00(9) 123.8 6.184 7.175
3472.97 0.75943 6.97(9) 124.4 6.183 7.236
3474.72 0.75981 7.03(9) 123.3 6.182 7.319
3476.44 0.76019 7.12(9) 121.8 6.181 7.440
3478.19 0.76057 7.43(9) 116.7 6.180 7.618
3479.91 0.76095 7.55(9) 114.8 6.179 7.873
3481.66 0.76133 7.98(10) 108.6 6.177 8.230
3483.41 0.76171 8.61(10) 100.7 6.176 8.698
3485.13 0.76209 9.18(10) 94.3 6.175 9.291
3486.88 0.76247 9.86(11) 87.9 6.174 10.022
3488.63 0.76285 10.76(11) 80.5 6.173 10.850
3490.38 0.76324 11.79(12) 73.4 6.172 11.744
3492.13 0.76362 12.63(12) 68.4 6.171 12.646
3493.88 0.76400 13.60(13) 63.5 6.170 13.473
3495.59 0.76438 14.19(13) 60.8 6.168 14.154
3497.34 0.76476 14.67(13) 58.9 6.167 14.619
3499.09 0.76514 14.92(13) 57.8 6.166 14.819
3500.84 0.76553 14.94(13) 57.8 6.165 14.760
3502.59 0.76591 14.67(13) 58.9 6.164 14.480
3504.34 0.76629 14.44(13) 59.8 6.163 14.038
3506.09 0.76668 13.78(13) 62.7 6.162 13.488
3507.9 0.76707 12.96(12) 66.7 6.160 12.890
3509.6 0.76745 12.23(12) 70.8 6.159 12.293
3511.4 0.76783 11.60(12) 74.7 6.158 11.720
3513.1 0.76822 11.01(11) 78.8 6.157 11.189
3514.9 0.76860 10.58(11) 82.0 6.156 10.710
3516.6 0.76898 10.08(11) 86.2 6.155 10.282
3518.4 0.76937 9.67(11) 89.8 6.154 9.908
3520.2 0.76975 9.30(10) 93.4 6.153 9.588
3521.9 0.77014 8.92(10) 97.4 6.151 9.309
3523.7 0.77053 8.75(10) 99.3 6.150 9.065
3525.4 0.77091 8.65(10) 100.5 6.149 8.848
3527.2 0.77130 8.46(10) 102.8 6.148 8.648
3529.0 0.77168 8.27(10) 105.2 6.147 8.459
3530.7 0.77207 8.10(10) 107.5 6.146 8.272
3532.5 0.77246 7.98(10) 109.0 6.145 8.090
3534.3 0.77284 7.93(10) 109.8 6.144 7.912
3536.0 0.77323 7.78(9) 111.9 6.142 7.740
3537.8 0.77362 7.54(9) 115.5 6.141 7.579
3539.6 0.77400 7.43(9) 117.3 6.140 7.429
3541.3 0.77439 7.24(9) 120.4 6.139 7.292
3543.1 0.77477 7.18(9) 121.5 6.138 7.169
3544.9 0.77516 7.10(9) 122.9 6.137 7.057
3546.7 0.77555 6.91(9) 126.1 6.136 6.957
3548.4 0.77594 6.84(9) 127.5 6.135 6.870
3550.2 0.77633 6.73(9) 129.5 6.134 6.793
3552.0 0.77672 6.65(9) 131.2 6.132 6.725
3553.8 0.77711 6.62(9) 131.9 6.131 6.666
3555.5 0.77750 6.44(9) 135.5 6.130 6.615
3557.3 0.77789 6.44(9) 135.5 6.129 6.572
3559.1 0.77828 6.41(9) 136.3 6.128 6.536
3560.9 0.77867 6.37(9) 137.0 6.127 6.505
3562.7 0.77906 6.43(9) 135.7 6.126 6.482
3564.4 0.77944 6.35(9) 137.5 6.125 6.466
3566.2 0.77983 6.31(8) 138.4 6.124 6.455
3568.0 0.78022 6.45(9) 135.4 6.122 6.449
3569.8 0.78061 6.42(9) 136.1 6.121 6.447
3571.6 0.78100 6.45(9) 135.4 6.120 6.449
3573.3 0.78139 6.46(9) 135.2 6.119 6.453
3575.1 0.78178 6.36(9) 137.3 6.118 6.460
3576.9 0.78217 6.38(9) 136.9 6.117 6.468
3578.7 0.78257 6.45(9) 135.5 6.116 6.478
3580.5 0.78296 6.44(9) 135.7 6.115 6.490
3582.3 0.78335 6.48(9) 134.8 6.114 6.506
3584.1 0.78375 6.52(9) 134.0 6.113 6.526
3585.9 0.78414 6.53(9) 134.0 6.112 6.550
3587.7 0.78453 6.49(9) 134.6 6.110 6.579
3589.5 0.78492 6.43(9) 136.1 6.109 6.613
3591.3 0.78531 6.52(9) 134.1 6.108 6.653
3593.1 0.78571 6.65(9) 131.6 6.107 6.701
3594.8 0.78610 6.67(9) 131.1 6.106 6.758
3596.7 0.78650 6.73(9) 129.9 6.105 6.831
3598.4 0.78689 6.79(9) 128.8 6.104 6.924
3600.3 0.78728 6.96(9) 125.7 6.103 7.046
3602.0 0.78767 7.13(9) 122.6 6.102 7.206
3603.8 0.78807 7.32(9) 119.4 6.101 7.419
3605.7 0.78847 7.60(9) 115.0 6.100 7.697
3607.4 0.78886 7.92(10) 110.4 6.098 8.058
3609.3 0.78925 8.37(10) 104.3 6.097 8.529
3611.1 0.78965 8.95(10) 97.5 6.096 9.122
3612.8 0.79004 9.85(11) 88.6 6.095 9.854
3614.7 0.79044 10.65(11) 81.8 6.094 10.737
3616.5 0.79083 11.77(12) 74.1 6.093 11.746
3618.3 0.79123 12.81(12) 67.9 6.092 12.842
3620.1 0.79163 14.02(13) 62.0 6.091 13.957
3621.9 0.79202 14.86(13) 58.5 6.090 15.005
3623.7 0.79242 15.75(13) 55.1 6.089 15.887
3625.5 0.79282 16.21(14) 53.5 6.088 16.516
3627.3 0.79321 16.50(14) 52.6 6.087 16.839
3629.2 0.79361 16.56(14) 52.4 6.085 16.861
3631.0 0.79401 16.63(14) 52.2 6.084 16.631
3632.8 0.79440 16.25(14) 53.4 6.083 16.208
3634.6 0.79480 15.61(13) 55.6 6.082 15.667
3636.4 0.79520 15.09(13) 57.6 6.081 15.069
3638.2 0.79559 14.37(13) 60.5 6.080 14.451
3640.1 0.79600 13.85(13) 62.8 6.079 13.848
3641.9 0.79639 13.26(12) 65.7 6.078 13.275
3643.7 0.79679 12.68(12) 68.7 6.077 12.732
3645.5 0.79719 12.07(12) 72.2 6.076 12.217
3647.3 0.79759 11.63(12) 75.0 6.075 11.740
3649.2 0.79799 11.23(11) 77.6 6.074 11.309
3651.0 0.79838 10.74(11) 81.3 6.073 10.917
3652.8 0.79879 10.51(11) 83.1 6.072 10.568
3654.6 0.79918 10.31(11) 84.7 6.071 10.259
3656.5 0.79959 10.05(11) 86.9 6.069 9.981
3658.3 0.79998 9.67(11) 90.3 6.068 9.726
3660.1 0.80039 9.61(10) 90.9 6.067 9.483
3661.9 0.80078 9.35(10) 93.6 6.066 9.257
3663.8 0.80119 9.08(10) 96.3 6.065 9.015
3665.6 0.80159 8.93(10) 98.0 6.064 8.787
3667.4 0.80199 8.63(10) 101.4 6.063 8.568
3669.3 0.80239 8.48(10) 103.2 6.062 8.359
3671.1 0.80279 8.47(10) 103.3 6.061 8.168
3672.9 0.80319 8.21(10) 106.6 6.060 7.992
3674.8 0.80359 7.94(10) 110.2 6.059 7.830
3676.6 0.80400 7.76(9) 112.8 6.058 7.680
3678.5 0.80440 7.64(9) 114.6 6.057 7.541
3680.3 0.80480 7.51(9) 116.7 6.056 7.410
3682.2 0.80521 7.33(9) 119.5 6.055 7.289
3684.0 0.80560 7.28(9) 120.3 6.054 7.177
3685.8 0.80601 7.29(9) 120.2 6.053 7.073
3687.7 0.80641 7.20(9) 121.6 6.052 6.979
3689.5 0.80681 7.24(9) 121.0 6.050 6.897
3691.3 0.80722 7.06(9) 124.1 6.049 6.829
3693.2 0.80762 7.11(9) 123.4 6.048 6.775
3695.1 0.80803 6.93(9) 126.5 6.047 6.739
3696.9 0.80844 6.96(9) 125.9 6.046 6.721
3698.8 0.80884 6.89(9) 127.2 6.045 6.723
3700.6 0.80924 6.94(9) 126.4 6.044 6.745
3702.4 0.80965 6.96(9) 125.9 6.043 6.787
3704.3 0.81005 7.05(9) 124.3 6.042 6.846
3706.2 0.81046 7.11(9) 123.4 6.041 6.918
3708.0 0.81086 7.11(9) 123.2 6.040 6.995
3709.8 0.81127 7.12(9) 123.1 6.039 7.073
3711.7 0.81168 7.18(9) 122.0 6.038 7.141
3713.6 0.81208 7.28(9) 120.4 6.037 7.194
3715.4 0.81249 7.15(9) 122.6 6.036 7.229
3717.3 0.81289 7.32(9) 119.7 6.035 7.247
3719.1 0.81330 7.27(9) 120.5 6.034 7.253
3721.0 0.81371 7.38(9) 118.6 6.033 7.252
3722.8 0.81411 7.43(9) 118.0 6.032 7.250
3724.7 0.81452 7.40(9) 118.4 6.031 7.249
3726.6 0.81493 7.34(9) 119.4 6.030 7.247
3728.4 0.81534 7.28(9) 120.4 6.029 7.243
3730.3 0.81575 7.28(9) 120.4 6.028 7.233
3732.2 0.81616 7.18(9) 122.0 6.027 7.212
3734.0 0.81656 7.15(9) 122.7 6.026 7.178
3735.9 0.81697 7.15(9) 122.5 6.025 7.134
3737.8 0.81738 7.21(9) 121.6 6.024 7.083
3739.7 0.81779 7.12(9) 123.1 6.023 7.032
3741.5 0.81820 7.04(9) 124.4 6.021 6.987
3743.4 0.81861 7.06(9) 124.1 6.020 6.956
3745.3 0.81902 6.92(9) 126.7 6.019 6.950
3747.1 0.81943 7.03(9) 124.6 6.018 6.979
3749.0 0.81984 7.18(9) 121.9 6.017 7.056
3750.9 0.82025 7.35(9) 119.1 6.016 7.195
3752.8 0.82066 7.47(9) 117.3 6.015 7.409
3754.6 0.82107 7.73(9) 113.2 6.014 7.710
3756.5 0.82148 8.14(10) 107.4 6.013 8.102
3758.4 0.82189 8.77(10) 99.7 6.012 8.583
3760.3 0.82230 9.47(10) 92.3 6.011 9.140
3762.2 0.82272 10.00(11) 87.3 6.010 9.741
3764.0 0.82313 10.71(11) 81.5 6.009 10.340
3765.9 0.82354 11.27(11) 77.4 6.008 10.896
3767.8 0.82395 11.57(12) 75.4 6.007 11.349
3769.7 0.82436 11.76(12) 74.1 6.006 11.656
3771.6 0.82477 12.05(12) 72.3 6.005 11.799
3773.4 0.82518 12.07(12) 72.2 6.004 11.790
3775.3 0.82560 11.98(12) 72.8 6.003 11.659
3777.2 0.82601 11.73(12) 74.3 6.002 11.446
3779.1 0.82642 11.59(12) 75.2 6.001 11.185
3781.0 0.82684 11.36(11) 76.8 6.000 10.907
3782.9 0.82725 10.88(11) 80.2 5.999 10.631
3784.8 0.82767 10.48(11) 83.2 5.998 10.363
3786.7 0.82808 10.03(11) 87.0 5.997 10.111
3788.6 0.82850 9.80(11) 89.1 5.996 9.868
3790.5 0.82891 9.55(10) 91.4 5.995 9.634
3792.3 0.82932 9.42(10) 92.7 5.994 9.402
3794.3 0.82974 9.15(10) 95.5 5.993 9.195
3796.2 0.83016 9.00(10) 97.0 5.992 9.015
3798.0 0.83057 8.80(10) 99.2 5.991 8.873
3799.9 0.83098 8.70(10) 100.3 5.990 8.781
3801.8 0.83140 8.76(10) 99.6 5.989 8.758
3803.8 0.83182 8.86(10) 98.5 5.988 8.823
3805.7 0.83224 8.97(10) 97.3 5.987 9.006
3807.6 0.83265 9.30(10) 93.7 5.986 9.339
3809.5 0.83307 9.91(11) 87.9 5.985 9.865
3811.4 0.83349 10.71(11) 81.3 5.984 10.617
3813.3 0.83390 11.79(12) 73.8 5.983 11.641
3815.2 0.83432 13.42(12) 64.7 5.982 12.956
3817.1 0.83474 15.01(13) 57.8 5.981 14.522
3819.0 0.83516 16.73(14) 51.7 5.980 16.289
3820.9 0.83557 18.51(15) 46.7 5.979 18.155
3822.8 0.83599 20.37(15) 42.4 5.978 19.980
3824.7 0.83641 21.52(16) 40.0 5.977 21.590
3826.6 0.83683 22.54(16) 38.2 5.976 22.814
3828.5 0.83724 23.57(17) 36.5 5.975 23.527
3830.5 0.83767 23.50(17) 36.6 5.974 23.672
3832.4 0.83808 23.49(17) 36.6 5.973 23.300
3834.3 0.83850 23.20(16) 37.1 5.972 22.508
3836.2 0.83893 21.94(16) 39.2 5.971 21.425
3838.1 0.83934 20.60(15) 41.8 5.970 20.185
3840.0 0.83976 19.33(15) 44.6 5.969 18.870
3842.0 0.84018 18.11(14) 47.6 5.969 17.571
3843.9 0.84060 16.70(14) 51.7 5.968 16.338
3845.8 0.84102 15.35(13) 56.4 5.967 15.203
3847.7 0.84144 14.23(13) 60.8 5.966 14.178
3849.7 0.84187 13.27(12) 65.2 5.965 13.259
3851.6 0.84229 12.48(12) 69.4 5.964 12.457
3853.5 0.84271 11.75(12) 73.8 5.963 11.758
3855.4 0.84313 11.25(11) 77.1 5.962 11.148
3857.4 0.84356 10.70(11) 81.1 5.961 10.626
3859.3 0.84397 10.35(11) 83.8 5.960 10.178
3861.2 0.84440 9.94(11) 87.3 5.959 9.790
3863.2 0.84482 9.49(10) 91.5 5.958 9.454
3865.1 0.84524 9.21(10) 94.2 5.957 9.160
3867.0 0.84566 9.07(10) 95.7 5.956 8.895
3868.9 0.84609 8.86(10) 97.9 5.955 8.647
3870.9 0.84651 8.66(10) 100.3 5.954 8.415
3872.8 0.84693 8.47(10) 102.5 5.953 8.194
3874.8 0.84736 8.26(10) 105.0 5.952 7.984
3876.7 0.84778 8.03(10) 108.0 5.951 7.788
3878.6 0.84821 7.82(9) 111.0 5.950 7.605
3880.6 0.84863 7.66(9) 113.3 5.949 7.438
3882.5 0.84905 7.58(9) 114.5 5.948 7.286
3884.4 0.84948 7.43(9) 116.9 5.947 7.149
3886.4 0.84991 7.25(9) 119.7 5.946 7.028
3888.3 0.85033 7.29(9) 119.0 5.945 6.922
3890.3 0.85076 7.03(9) 123.4 5.944 6.828
3892.2 0.85118 6.87(9) 126.3 5.943 6.748
3894.2 0.85161 6.96(9) 124.7 5.942 6.679
3896.1 0.85204 6.95(9) 124.8 5.942 6.621
3898.1 0.85246 6.92(9) 125.3 5.941 6.576
3900.0 0.85288 6.80(9) 127.4 5.940 6.544
3902.0 0.85331 6.79(9) 127.6 5.939 6.529
3903.9 0.85374 6.65(9) 130.3 5.938 6.536
3905.9 0.85417 6.66(9) 130.2 5.937 6.573
3907.8 0.85459 6.82(9) 127.0 5.936 6.650
3909.8 0.85502 6.94(9) 124.7 5.935 6.783
3911.7 0.85545 7.25(9) 119.5 5.934 6.987
3913.7 0.85588 7.55(9) 114.6 5.933 7.286
3915.7 0.85631 8.04(10) 107.5 5.932 7.690
3917.6 0.85673 8.53(10) 101.3 5.931 8.211
3919.6 0.85717 9.19(10) 94.0 5.930 8.854
3921.5 0.85760 10.03(11) 85.9 5.929 9.589
3923.5 0.85802 10.60(11) 81.3 5.928 10.389
3925.4 0.85845 11.44(12) 75.3 5.927 11.207
3927.4 0.85888 12.20(12) 70.5 5.926 11.968
3929.4 0.85931 12.73(12) 67.6 5.925 12.599
3931.3 0.85974 13.09(12) 65.6 5.925 13.032
3933.3 0.86017 13.42(12) 64.0 5.924 13.233
3935.3 0.86060 13.43(13) 63.9 5.923 13.202
3937.2 0.86103 13.32(12) 64.5 5.922 12.983
3939.2 0.86146 12.95(12) 66.3 5.921 12.619
3941.2 0.86189 12.59(12) 68.2 5.920 12.164
3943.1 0.86232 12.03(12) 71.5 5.919 11.662
3945.1 0.86276 11.46(12) 75.0 5.918 11.154
3947.1 0.86319 10.96(11) 78.4 5.917 10.671
3949.1 0.86362 10.58(11) 81.3 5.916 10.224
3951.0 0.86405 10.00(11) 86.0 5.915 9.828
3953.0 0.86448 9.50(11) 90.5 5.914 9.469
3955.0 0.86492 9.18(10) 93.7 5.913 9.158
3957.0 0.86535 8.98(10) 95.8 5.912 8.898
3958.9 0.86578 8.75(10) 98.4 5.912 8.689
3960.9 0.86621 8.44(10) 101.9 5.911 8.529
3962.9 0.86665 8.29(10) 103.7 5.910 8.420
3964.9 0.86708 8.45(10) 101.7 5.909 8.357
3966.9 0.86752 8.55(10) 100.6 5.908 8.332
3968.8 0.86795 8.55(10) 100.5 5.907 8.335
3970.8 0.86839 8.65(10) 99.4 5.906 8.349
3972.8 0.86882 8.56(10) 100.4 5.905 8.358
3974.8 0.86926 8.57(10) 100.3 5.904 8.347
3976.8 0.86969 8.46(10) 101.5 5.903 8.307
3978.8 0.87013 8.46(10) 101.5 5.902 8.235
3980.8 0.87056 8.42(10) 102.0 5.901 8.138
3982.8 0.87099 8.27(10) 103.8 5.901 8.025
3984.8 0.87143 8.03(10) 106.9 5.900 7.906
3986.8 0.87187 7.95(10) 107.9 5.899 7.791
3988.8 0.87231 7.96(10) 107.8 5.898 7.686
3990.7 0.87274 7.94(10) 108.1 5.897 7.592
3992.7 0.87318 7.76(10) 110.6 5.896 7.508
3994.7 0.87361 7.66(9) 112.0 5.895 7.414
3996.7 0.87405 7.55(9) 113.7 5.894 7.337
3998.7 0.87449 7.35(9) 116.6 5.893 7.256
4000.7 0.87493 7.14(9) 120.1 5.892 7.170
4002.7 0.87537 7.11(9) 120.5 5.891 7.078
4004.7 0.87580 7.09(9) 120.9 5.891 6.982
4006.7 0.87624 6.96(9) 123.0 5.890 6.886
4008.7 0.87668 6.90(9) 124.3 5.889 6.793
4010.7 0.87712 6.77(9) 126.5 5.888 6.703
4012.8 0.87756 6.70(9) 128.0 5.887 6.620
4014.8 0.87800 6.61(9) 129.6 5.886 6.546
4016.8 0.87844 6.53(9) 131.2 5.885 6.479
4018.8 0.87887 6.58(9) 130.1 5.884 6.421
4020.8 0.87932 6.57(9) 130.3 5.883 6.372
4022.8 0.87976 6.54(9) 130.9 5.882 6.331
4024.8 0.88019 6.42(9) 133.2 5.882 6.300
4026.8 0.88064 6.45(9) 132.6 5.881 6.303
4028.8 0.88108 6.40(9) 133.5 5.880 6.291
4030.8 0.88152 6.29(9) 135.8 5.879 6.289
4032.8 0.88196 6.27(9) 136.4 5.878 6.294
4034.9 0.88240 6.26(9) 136.6 5.877 6.306
4036.9 0.88284 6.42(9) 133.2 5.876 6.324
4038.9 0.88329 6.47(9) 132.1 5.875 6.343
4040.9 0.88372 6.53(9) 130.8 5.874 6.362
4042.9 0.88417 6.30(9) 135.7 5.874 6.377
4045.0 0.88461 6.28(9) 135.8 5.873 6.386
4047.0 0.88505 6.37(9) 134.1 5.872 6.388
4049.0 0.88549 6.29(9) 135.7 5.871 6.387
4051.0 0.88594 6.31(9) 135.2 5.870 6.383
4053.1 0.88638 6.43(9) 132.6 5.869 6.380
4055.1 0.88683 6.49(9) 131.4 5.868 6.380
4057.1 0.88727 6.35(9) 134.3 5.867 6.383
4059.1 0.88771 6.41(9) 133.0 5.867 6.391
4061.2 0.88816 6.31(9) 134.9 5.866 6.403
4063.2 0.88860 6.40(9) 133.0 5.865 6.417
4065.2 0.88904 6.44(9) 132.1 5.864 6.430
4067.3 0.88949 6.49(9) 131.1 5.863 6.441
4069.3 0.88993 6.42(9) 132.5 5.862 6.449
4071.3 0.89038 6.43(9) 132.3 5.861 6.455
4073.4 0.89083 6.40(9) 132.9 5.860 6.462
4075.4 0.89127 6.45(9) 131.8 5.860 6.472
4077.4 0.89172 6.47(9) 131.5 5.859 6.488
4079.5 0.89216 6.44(9) 131.9 5.858 6.515
4081.5 0.89261 6.60(9) 128.8 5.857 6.553
4083.6 0.89306 6.56(9) 129.5 5.856 6.606
4085.6 0.89350 6.76(9) 125.6 5.855 6.676
4087.7 0.89395 6.88(9) 123.5 5.854 6.768
4089.7 0.89440 6.87(9) 123.6 5.853 6.887
4091.7 0.89484 6.83(9) 124.3 5.853 7.047
4093.8 0.89530 7.29(9) 116.4 5.852 7.268
4095.8 0.89574 7.73(10) 109.7 5.851 7.573
4097.9 0.89619 8.17(10) 103.7 5.850 7.986
4099.9 0.89664 8.67(10) 97.6 5.849 8.546
4102.0 0.89709 9.53(11) 88.8 5.848 9.271
4104.0 0.89754 10.42(11) 81.1 5.847 10.151
4106.1 0.89798 11.41(12) 73.9 5.847 11.168
4108.1 0.89843 12.54(12) 67.2 5.846 12.287
4110.2 0.89889 13.66(13) 61.6 5.845 13.425
4112.3 0.89934 14.57(13) 57.7 5.844 14.478
4114.3 0.89978 15.48(14) 54.3 5.843 15.351
4116.3 0.90023 15.87(14) 52.9 5.842 15.959
4118.4 0.90069 16.38(14) 51.2 5.841 16.243
4120.5 0.90114 16.69(14) 50.2 5.841 16.212
4122.5 0.90159 16.44(14) 51.0 5.840 15.915
4124.6 0.90204 15.89(14) 52.7 5.839 15.425
4126.7 0.90249 15.40(14) 54.5 5.838 14.818
4128.7 0.90294 14.48(13) 58.0 5.837 14.162
4130.8 0.90339 13.75(13) 61.0 5.836 13.508
4132.8 0.90384 13.00(12) 64.6 5.836 12.889
4134.9 0.90430 12.42(12) 67.6 5.835 12.323
4137.0 0.90475 11.78(12) 71.3 5.834 11.812
4139.0 0.90520 11.34(12) 74.1 5.833 11.347
4141.1 0.90566 10.84(11) 77.4 5.832 10.919
4143.2 0.90611 10.44(11) 80.4 5.831 10.529
4145.3 0.90656 10.00(11) 84.0 5.830 10.163
4147.3 0.90702 9.76(11) 86.0 5.830 9.827
4149.4 0.90747 9.51(11) 88.3 5.829 9.527
4151.5 0.90792 9.32(11) 90.0 5.828 9.264
4153.6 0.90838 9.02(10) 93.1 5.827 9.046
4155.6 0.90883 8.80(10) 95.4 5.826 8.877
4157.7 0.90929 8.78(10) 95.5 5.825 8.762
4159.8 0.90974 8.75(10) 95.9 5.825 8.706
4161.9 0.91020 8.77(10) 95.5 5.824 8.720
4163.9 0.91065 8.81(10) 95.1 5.823 8.825
4166.0 0.91111 8.87(10) 94.4 5.822 9.042
4168.1 0.91157 9.44(11) 88.7 5.821 9.420
4170.2 0.91202 9.94(11) 84.2 5.821 10.024
4172.3 0.91248 10.91(11) 76.6 5.820 10.941
4174.4 0.91293 12.29(12) 67.8 5.819 12.255
4176.5 0.91339 14.48(13) 57.5 5.818 14.025
4178.5 0.91384 17.22(14) 48.2 5.817 16.299
4180.6 0.91430 20.09(16) 41.2 5.816 19.088
4182.7 0.91476 23.29(17) 35.4 5.816 22.290
4184.8 0.91522 26.72(18) 30.79 5.815 25.739
4186.9 0.91568 30.24(19) 27.11 5.814 29.191
4189.0 0.91614 32.79(20) 24.95 5.813 32.340
4191.1 0.91659 35.19(21) 23.19 5.812 34.860
4193.2 0.91705 36.84(21) 22.12 5.811 36.482
4195.3 0.91751 37.62(21) 21.64 5.811 37.086
4197.4 0.91797 37.54(21) 21.68 5.810 36.706
4199.5 0.91843 36.70(21) 22.18 5.809 35.501
4201.6 0.91889 34.92(21) 23.34 5.808 33.712
4203.7 0.91935 32.48(20) 25.13 5.807 31.558
4205.8 0.91981 30.19(19) 27.07 5.807 29.236
4207.9 0.92027 27.86(18) 29.39 5.806 26.882
4210.0 0.92073 25.25(18) 32.48 5.805 24.621
4212.1 0.92119 22.63(17) 36.3 5.804 22.519
4214.2 0.92166 20.70(16) 39.7 5.803 20.605
4216.3 0.92211 18.75(15) 43.9 5.803 18.899
4218.4 0.92257 17.23(14) 47.8 5.802 17.369
4220.5 0.92304 15.71(14) 52.5 5.801 16.015
4222.6 0.92350 14.59(13) 56.6 5.800 14.821
4224.8 0.92396 13.71(13) 60.2 5.799 13.762
4226.9 0.92443 12.49(12) 66.2 5.799 12.839
4229.0 0.92488 11.85(12) 69.7 5.798 12.029
4231.1 0.92535 11.30(12) 73.1 5.797 11.314
4233.2 0.92581 10.83(11) 76.3 5.796 10.694
4235.3 0.92627 10.24(11) 80.7 5.795 10.151
4237.4 0.92674 9.75(11) 84.7 5.795 9.674
4239.6 0.92720 9.42(11) 87.7 5.794 9.257
4241.7 0.92767 9.10(10) 90.8 5.793 8.893
4243.8 0.92813 8.79(10) 94.0 5.792 8.574
4245.9 0.92860 8.61(10) 95.9 5.791 8.296
4248.0 0.92906 8.32(10) 99.2 5.791 8.052
4250.2 0.92952 8.23(10) 100.3 5.790 7.839
4252.3 0.92999 8.16(10) 101.1 5.789 7.656
4254.4 0.93045 7.97(10) 103.4 5.788 7.504
4256.6 0.93092 7.75(10) 106.3 5.787 7.384
4258.7 0.93139 7.58(10) 108.7 5.787 7.295
4260.8 0.93185 7.71(10) 106.8 5.786 7.236
4262.9 0.93232 7.72(10) 106.6 5.785 7.203
4265.1 0.93278 7.59(10) 108.4 5.784 7.191
4267.2 0.93325 7.61(10) 108.1 5.783 7.193
4269.3 0.93372 7.50(10) 109.6 5.783 7.200
4271.5 0.93419 7.50(10) 109.6 5.782 7.201
4273.6 0.93465 7.62(10) 107.8 5.781 7.190
4275.8 0.93512 7.52(10) 109.3 5.780 7.160
4277.9 0.93559 7.54(10) 108.8 5.780 7.111
4280.0 0.93606 7.40(9) 111.0 5.779 7.048
4282.2 0.93652 7.25(9) 113.3 5.778 6.976
4284.3 0.93700 7.09(9) 115.6 5.777 6.900
4286.4 0.93746 7.11(9) 115.3 5.776 6.827
4288.6 0.93793 7.04(9) 116.5 5.776 6.760
4290.7 0.93840 6.86(9) 119.4 5.775 6.703
4292.9 0.93887 6.70(9) 122.4 5.774 6.657
4295.0 0.93934 6.71(9) 122.1 5.773 6.624
4297.2 0.93981 6.82(9) 120.0 5.773 6.603
4299.3 0.94028 6.74(9) 121.4 5.772 6.597
4301.5 0.94075 6.86(9) 119.2 5.771 6.611
4303.6 0.94122 6.85(9) 119.3 5.770 6.651
4305.8 0.94170 6.79(9) 120.4 5.769 6.729
4307.9 0.94216 7.01(9) 116.6 5.769 6.859
4310.1 0.94263 7.25(9) 112.6 5.768 7.062
4312.2 0.94310 7.55(10) 108.1 5.767 7.345
4314.4 0.94358 7.97(10) 102.3 5.766 7.738
4316.5 0.94405 8.39(10) 97.1 5.766 8.235
4318.7 0.94452 8.99(11) 90.5 5.765 8.833
4320.9 0.94500 9.69(11) 83.9 5.764 9.502
4323.0 0.94547 10.31(11) 78.8 5.763 10.196
4325.2 0.94594 10.91(12) 74.4 5.763 10.864
4327.3 0.94642 11.56(12) 70.1 5.762 11.440
4329.5 0.94689 12.02(12) 67.4 5.761 11.866
4331.7 0.94737 12.27(12) 66.0 5.760 12.095
4333.8 0.94784 12.21(12) 66.3 5.760 12.120
4336.0 0.94831 12.14(12) 66.7 5.759 11.966
4338.2 0.94879 11.87(12) 68.1 5.758 11.673
4340.3 0.94926 11.51(12) 70.3 5.757 11.292
4342.5 0.94973 11.04(12) 73.2 5.757 10.863
4344.7 0.95021 10.47(11) 77.3 5.756 10.425
4346.8 0.95068 10.14(11) 79.7 5.755 10.004
4349.0 0.95116 9.75(11) 82.9 5.754 9.615
4351.2 0.95164 9.19(11) 88.0 5.754 9.267
4353.4 0.95211 8.89(10) 90.9 5.753 8.959
4355.6 0.95259 8.56(10) 94.4 5.752 8.682
4357.8 0.95307 8.48(10) 95.3 5.751 8.433
4359.9 0.95354 8.25(10) 97.9 5.751 8.204
4362.1 0.95402 7.93(10) 101.8 5.750 7.985
4364.3 0.95450 7.64(10) 105.7 5.749 7.778
4366.5 0.95498 7.64(10) 105.7 5.748 7.582
4368.7 0.95546 7.40(10) 109.0 5.748 7.400
4370.8 0.95593 7.39(10) 109.2 5.747 7.231
4373.0 0.95641 7.16(9) 112.7 5.746 7.075
4375.2 0.95689 6.94(9) 116.2 5.745 6.935
4377.4 0.95737 6.93(9) 116.3 5.745 6.811
4379.6 0.95784 6.75(9) 119.3 5.744 6.701
4381.8 0.95832 6.54(9) 123.1 5.743 6.604
4384.0 0.95881 6.66(9) 120.8 5.742 6.518
4386.2 0.95929 6.50(9) 123.8 5.742 6.444
4388.3 0.95977 6.41(9) 125.5 5.741 6.353
4390.5 0.96025 6.28(9) 128.1 5.740 6.293
4392.7 0.96072 6.36(9) 126.3 5.740 6.239
4394.9 0.96121 6.21(9) 129.4 5.739 6.190
4397.1 0.96169 6.19(9) 129.8 5.738 6.146
4399.3 0.96217 6.21(9) 129.3 5.737 6.107
4401.5 0.96265 6.20(9) 129.5 5.737 6.073
4403.7 0.96313 6.10(9) 131.6 5.736 6.044
4405.9 0.96362 6.04(9) 132.8 5.735 6.021
4408.1 0.96410 6.11(9) 131.2 5.734 6.002
4410.3 0.96458 6.05(9) 132.4 5.734 5.987
4412.5 0.96506 6.08(9) 131.8 5.733 5.975
4414.8 0.96555 6.11(9) 130.9 5.732 5.964
4416.9 0.96603 5.97(9) 134.1 5.732 5.955
4419.2 0.96651 6.00(9) 133.3 5.731 5.946
4421.4 0.96700 5.91(9) 135.4 5.730 5.935
4423.6 0.96748 5.88(9) 135.9 5.729 5.923
4425.8 0.96796 5.87(9) 136.1 5.729 5.909
4428.0 0.96845 5.84(9) 136.8 5.728 5.895
4430.2 0.96893 5.86(9) 136.4 5.727 5.881
4432.4 0.96942 5.80(9) 137.5 5.727 5.866
4434.7 0.96990 6.01(9) 132.7 5.726 5.853
4436.9 0.97039 5.84(9) 136.7 5.725 5.840
4439.1 0.97087 5.88(9) 135.5 5.724 5.829
4441.3 0.97136 5.90(9) 134.9 5.724 5.818
4443.5 0.97185 5.83(9) 136.7 5.723 5.809
4445.8 0.97233 5.77(9) 138.1 5.722 5.801
4448.0 0.97282 5.72(8) 139.1 5.722 5.793
4450.2 0.97330 5.84(9) 136.2 5.721 5.787
4452.4 0.97379 5.72(8) 138.9 5.720 5.781
4454.7 0.97428 5.77(9) 137.8 5.719 5.776
4456.9 0.97477 5.81(9) 136.7 5.719 5.772
4459.1 0.97525 5.70(8) 139.4 5.718 5.768
4461.3 0.97574 5.68(8) 139.7 5.717 5.765
4463.6 0.97623 5.77(9) 137.5 5.717 5.762
4465.8 0.97672 5.69(8) 139.4 5.716 5.760
4468.0 0.97721 5.74(9) 138.1 5.715 5.759
4470.3 0.97769 5.75(9) 137.8 5.715 5.758
4472.5 0.97819 5.66(8) 140.0 5.714 5.758
4474.7 0.97867 5.63(8) 140.8 5.713 5.758
4477.0 0.97916 5.63(8) 140.5 5.712 5.760
4479.2 0.97966 5.66(8) 139.7 5.712 5.762
4481.4 0.98014 5.66(8) 139.8 5.711 5.766
4483.7 0.98064 5.70(8) 138.6 5.710 5.772
4485.9 0.98113 5.54(8) 142.8 5.710 5.781
4488.2 0.98161 5.62(8) 140.4 5.709 5.797
4490.4 0.98211 5.71(9) 138.2 5.708 5.827
4492.7 0.98260 5.73(9) 137.6 5.708 5.861
4494.9 0.98309 5.80(9) 135.9 5.707 5.909
4497.2 0.98358 5.88(9) 134.0 5.706 5.973
4499.4 0.98408 5.95(9) 132.3 5.706 6.055
4501.7 0.98457 6.08(9) 129.5 5.705 6.153
4503.9 0.98506 6.16(9) 127.7 5.704 6.265
4506.2 0.98555 6.32(9) 124.4 5.703 6.384
4508.4 0.98605 6.42(9) 122.5 5.703 6.502
4510.7 0.98654 6.51(9) 120.6 5.702 6.609
4512.9 0.98703 6.65(9) 118.1 5.701 6.693
4515.2 0.98753 6.69(9) 117.4 5.701 6.745
4517.4 0.98802 6.65(9) 117.9 5.700 6.762
4519.7 0.98851 6.61(9) 118.7 5.699 6.748
4521.9 0.98901 6.62(9) 118.3 5.699 6.706
4524.2 0.98951 6.52(9) 120.1 5.698 6.647
4526.5 0.99000 6.39(9) 122.5 5.697 6.571
4528.8 0.99050 6.39(9) 122.4 5.697 6.498
4531.0 0.99099 6.22(9) 125.8 5.696 6.426
4533.3 0.99149 6.13(9) 127.6 5.695 6.360
4535.5 0.99198 6.14(9) 127.3 5.695 6.301
4537.8 0.99248 6.05(9) 129.0 5.694 6.250
4540.1 0.99297 5.98(9) 130.6 5.693 6.205
4542.3 0.99347 5.98(9) 130.5 5.693 6.167
4544.6 0.99397 5.85(9) 133.4 5.692 6.133
4546.9 0.99447 5.87(9) 132.7 5.691 6.101
4549.2 0.99496 5.84(9) 133.4 5.691 6.071
4551.4 0.99546 5.88(9) 132.5 5.690 6.041
4553.7 0.99596 5.95(9) 130.7 5.689 6.012
4556.0 0.99646 5.82(9) 133.7 5.689 5.984
4558.3 0.99696 5.83(9) 133.4 5.688 5.957
4560.5 0.99745 5.83(9) 133.3 5.687 5.932
4562.8 0.99795 5.77(9) 134.5 5.687 5.908
4565.1 0.99845 5.67(9) 136.9 5.686 5.889
4567.4 0.99895 5.68(9) 136.6 5.685 5.870
4569.7 0.99945 5.72(9) 135.6 5.685 5.854
4572.0 0.99996 5.69(9) 136.3 5.684 5.840
4574.3 1.00046 5.60(9) 138.3 5.683 5.828
4576.5 1.00096 5.62(9) 137.8 5.683 5.819
4578.8 1.00146 5.56(8) 139.1 5.682 5.812
4581.1 1.00196 5.56(8) 139.2 5.681 5.807
4583.4 1.00246 5.65(9) 136.9 5.681 5.805
4585.7 1.00296 5.61(9) 137.8 5.680 5.808
4588.0 1.00346 5.57(8) 138.6 5.679 5.817
4590.3 1.00397 5.60(9) 137.8 5.679 5.834
4592.6 1.00447 5.61(9) 137.4 5.678 5.861
4594.9 1.00497 5.71(9) 134.9 5.678 5.902
4597.2 1.00547 5.71(9) 134.9 5.677 5.960
4599.5 1.00598 5.93(9) 129.7 5.676 6.035
4601.8 1.00648 5.98(9) 128.6 5.676 6.129
4604.1 1.00698 6.08(9) 126.4 5.675 6.240
4606.4 1.00749 6.31(9) 121.8 5.674 6.362
4608.7 1.00799 6.44(9) 119.2 5.674 6.487
4611.0 1.00849 6.53(9) 117.5 5.673 6.606
4613.3 1.00900 6.53(9) 117.4 5.672 6.706
4615.6 1.00951 6.68(9) 114.6 5.672 6.778
4617.9 1.01001 6.68(9) 114.6 5.671 6.815
4620.2 1.01051 6.64(9) 115.3 5.670 6.818
4622.5 1.01102 6.65(9) 115.0 5.670 6.793
4624.8 1.01152 6.74(9) 113.4 5.669 6.747
4627.1 1.01203 6.68(9) 114.3 5.669 6.690
4629.4 1.01254 6.63(9) 115.0 5.668 6.630
4631.8 1.01304 6.46(9) 118.1 5.667 6.575
4634.1 1.01355 6.34(9) 120.4 5.667 6.530
4636.4 1.01406 6.32(9) 120.6 5.666 6.498
4638.7 1.01457 6.44(9) 118.2 5.665 6.481
4641.0 1.01507 6.42(9) 118.4 5.665 6.478
4643.3 1.01558 6.38(9) 119.3 5.664 6.486
4645.7 1.01609 6.39(9) 119.0 5.664 6.502
4648.0 1.01660 6.37(9) 119.3 5.663 6.523
4650.3 1.01711 6.38(9) 118.9 5.662 6.547
4652.7 1.01762 6.46(9) 117.5 5.662 6.574
4655.0 1.01813 6.41(9) 118.3 5.661 6.613
4657.3 1.01864 6.51(9) 116.3 5.660 6.677
4659.6 1.01914 6.68(9) 113.3 5.660 6.785
4662.0 1.01966 6.87(10) 110.2 5.659 6.963
4664.3 1.02016 7.07(10) 106.9 5.659 7.242
4666.6 1.02068 7.54(10) 100.1 5.658 7.655
4669.0 1.02119 8.14(10) 92.7 5.657 8.224
4671.3 1.02170 8.99(11) 83.8 5.657 8.967
4673.6 1.02221 9.95(12) 75.6 5.656 9.889
4676.0 1.02272 11.09(12) 67.7 5.655 10.958
4678.3 1.02324 12.13(13) 61.9 5.655 12.111
4680.6 1.02374 13.19(13) 56.8 5.654 13.273
4683.0 1.02425 14.23(14) 52.6 5.654 14.349
4685.3 1.02477 14.94(14) 50.0 5.653 15.226
4687.7 1.02528 15.53(14) 48.1 5.652 15.796
4690.0 1.02579 15.83(15) 47.1 5.652 16.021
4692.3 1.02631 15.84(15) 47.0 5.651 15.911
4694.7 1.02682 15.56(14) 47.9 5.651 15.522
4697.0 1.02733 15.03(14) 49.5 5.650 14.920
4699.4 1.02785 14.26(14) 52.2 5.649 14.187
4701.8 1.02837 13.51(13) 55.1 5.649 13.399
4704.1 1.02888 12.64(13) 58.9 5.648 12.604
4706.4 1.02939 11.88(13) 62.7 5.648 11.835
4708.8 1.02991 11.06(12) 67.3 5.647 11.120
4711.2 1.03042 10.40(12) 71.6 5.646 10.475
4713.5 1.03094 9.76(11) 76.2 5.646 9.895
4715.9 1.03146 9.16(11) 81.2 5.645 9.381
4718.2 1.03197 8.80(11) 84.5 5.645 8.930
4720.6 1.03249 8.30(11) 89.6 5.644 8.534
4722.9 1.03300 8.02(10) 92.7 5.643 8.189
4725.3 1.03352 7.71(10) 96.4 5.643 7.890
4727.7 1.03404 7.41(10) 100.3 5.642 7.632
4730.0 1.03456 7.47(10) 99.4 5.642 7.411
4732.4 1.03508 7.26(10) 102.2 5.641 7.229
4734.8 1.03559 6.97(10) 106.4 5.640 7.085
4737.1 1.03611 6.73(10) 110.0 5.640 6.979
4739.5 1.03663 6.82(10) 108.7 5.639 6.917
4741.9 1.03715 6.95(10) 106.4 5.639 6.902
4744.3 1.03767 6.98(10) 105.9 5.638 6.936
4746.6 1.03819 7.14(10) 103.5 5.637 7.020
4749.0 1.03871 7.17(10) 103.0 5.637 7.150
4751.4 1.03923 7.43(10) 99.3 5.636 7.319
4753.8 1.03975 7.52(10) 98.1 5.636 7.510
4756.1 1.04027 7.71(10) 95.6 5.635 7.706
4758.5 1.04079 8.06(10) 91.3 5.635 7.881
4760.9 1.04131 8.04(10) 91.5 5.634 8.012
4763.3 1.04183 8.26(11) 89.0 5.633 8.081
4765.6 1.04235 8.14(11) 90.3 5.633 8.082
4768.0 1.04287 8.12(11) 90.4 5.632 8.017
4770.4 1.04339 8.08(10) 90.8 5.632 7.902
4772.8 1.04391 7.92(10) 92.6 5.631 7.751
4775.2 1.04443 7.65(10) 95.8 5.630 7.580
4777.6 1.04496 7.33(10) 99.9 5.630 7.405
4779.9 1.04548 7.27(10) 100.7 5.629 7.237
4782.3 1.04601 7.19(10) 101.8 5.629 7.083
4784.7 1.04653 7.01(10) 104.3 5.628 6.948
4787.1 1.04705 6.74(10) 108.5 5.628 6.833
4789.5 1.04757 6.57(9) 111.2 5.627 6.738
4791.9 1.04810 6.42(9) 113.7 5.626 6.660
4794.3 1.04863 6.42(9) 113.7 5.626 6.596
4796.7 1.04915 6.50(9) 112.2 5.625 6.542
4799.1 1.04967 6.42(9) 113.5 5.625 6.492
4801.5 1.05020 6.38(9) 114.1 5.624 6.443
4803.9 1.05073 6.27(9) 116.0 5.624 6.393
4806.3 1.05125 6.33(9) 114.9 5.623 6.340
4808.7 1.05178 6.16(9) 117.9 5.622 6.286
4811.1 1.05231 6.17(9) 117.7 5.622 6.230
4813.5 1.05283 6.04(9) 120.3 5.621 6.177
4815.9 1.05336 6.00(9) 120.9 5.621 6.127
4818.3 1.05389 5.94(9) 122.1 5.620 6.080
4820.8 1.05441 5.91(9) 122.7 5.620 6.038
4823.2 1.05494 6.06(9) 119.5 5.619 6.001
4825.6 1.05547 5.89(9) 122.8 5.619 5.969
4828.0 1.05599 5.74(9) 126.1 5.618 5.941
4830.4 1.05652 5.81(9) 124.3 5.617 5.918
4832.8 1.05705 5.80(9) 124.6 5.617 5.900
4835.2 1.05758 5.68(9) 127.1 5.616 5.886
4837.6 1.05811 5.78(9) 124.8 5.616 5.877
4840.1 1.05864 5.83(9) 123.5 5.615 5.874
4842.5 1.05917 5.79(9) 124.4 5.615 5.879
4844.9 1.05970 5.81(9) 123.9 5.614 5.894
4847.3 1.06023 5.77(9) 124.7 5.614 5.925
4849.8 1.06076 5.76(9) 124.8 5.613 5.980
4852.2 1.06129 5.97(9) 120.3 5.612 6.072
4854.6 1.06182 6.11(9) 117.6 5.612 6.217
4857.0 1.06235 6.36(9) 112.8 5.611 6.434
4859.4 1.06288 6.55(10) 109.3 5.611 6.746
4861.9 1.06341 7.07(10) 101.2 5.610 7.176
4864.3 1.06395 7.77(10) 92.0 5.610 7.739
4866.8 1.06448 8.52(11) 83.8 5.609 8.438
4869.2 1.06502 9.43(11) 75.6 5.609 9.256
4871.6 1.06555 10.46(12) 68.0 5.608 10.154
4874.0 1.06608 11.15(13) 63.8 5.608 11.079
4876.5 1.06661 11.91(13) 59.6 5.607 11.967
4878.9 1.06715 12.62(13) 56.2 5.607 12.718
4881.4 1.06768 13.02(14) 54.4 5.606 13.247
4883.8 1.06822 13.39(14) 52.9 5.605 13.503
4886.3 1.06875 13.47(14) 52.5 5.605 13.502
4888.7 1.06928 13.41(14) 52.7 5.604 13.267
4891.1 1.06982 13.01(14) 54.3 5.604 12.852
4893.6 1.07035 12.67(13) 55.7 5.603 12.314
4896.0 1.07089 11.94(13) 59.1 5.603 11.714
4898.5 1.07142 11.29(13) 62.5 5.602 11.101
4900.9 1.07196 10.54(12) 66.9 5.602 10.503
4903.4 1.07250 10.10(12) 69.8 5.601 9.947
4905.8 1.07303 9.50(12) 74.2 5.601 9.444
4908.3 1.07357 9.05(11) 77.9 5.600 8.998
4910.7 1.07411 8.63(11) 81.7 5.600 8.608
4913.2 1.07465 8.32(11) 84.7 5.599 8.267
4915.7 1.07519 7.92(11) 88.9 5.599 7.975
4918.1 1.07572 7.68(10) 91.6 5.598 7.721
4920.6 1.07626 7.45(10) 94.4 5.598 7.498
4923.0 1.07680 7.31(10) 96.1 5.597 7.303
4925.5 1.07733 7.15(10) 98.1 5.596 7.128
4927.9 1.07788 7.01(10) 100.1 5.596 6.969
4930.4 1.07842 6.78(10) 103.5 5.595 6.827
4932.9 1.07896 6.68(10) 104.8 5.595 6.701
4935.3 1.07950 6.57(10) 106.5 5.594 6.592
4937.8 1.08004 6.40(10) 109.3 5.594 6.501
4940.3 1.08058 6.41(10) 109.2 5.593 6.431
4942.8 1.08112 6.44(10) 108.5 5.593 6.385
4945.2 1.08166 6.39(10) 109.3 5.592 6.366
4947.7 1.08220 6.45(10) 108.1 5.592 6.375
4950.2 1.08274 6.46(10) 108.1 5.591 6.414
4952.6 1.08328 6.56(10) 106.2 5.591 6.480
4955.1 1.08383 6.68(10) 104.2 5.590 6.569
4957.6 1.08437 6.71(10) 103.6 5.590 6.670
4960.1 1.08491 6.70(10) 103.8 5.589 6.778
4962.6 1.08545 6.93(10) 100.2 5.589 6.875
4965.0 1.08599 7.11(10) 97.5 5.588 6.947
4967.5 1.08654 7.09(10) 97.7 5.588 6.985
4970.0 1.08708 7.15(10) 96.9 5.587 6.983
4972.5 1.08762 7.09(10) 97.6 5.587 6.944
4975.0 1.08817 6.99(10) 98.9 5.586 6.874
4977.5 1.08872 6.90(10) 100.1 5.586 6.784
4979.9 1.08926 6.72(10) 102.8 5.585 6.681
4982.4 1.08981 6.62(10) 104.3 5.585 6.574
4984.9 1.09035 6.51(10) 106.0 5.584 6.469
4987.4 1.09089 6.33(10) 108.9 5.584 6.370
4989.9 1.09144 6.30(10) 109.3 5.583 6.278
4992.4 1.09199 6.26(10) 110.0 5.583 6.196
4994.9 1.09253 6.10(9) 112.7 5.582 6.124
4997.4 1.09308 6.09(9) 112.9 5.582 6.061
4999.9 1.09363 6.07(9) 113.1 5.581 6.005
5002.4 1.09418 5.82(9) 117.9 5.581 5.957
5004.9 1.09472 5.79(9) 118.5 5.580 5.915
5007.4 1.09527 5.85(9) 117.0 5.580 5.879
5009.9 1.09582 5.76(9) 118.9 5.579 5.847
5012.4 1.09637 5.82(9) 117.5 5.579 5.818
5014.9 1.09691 5.84(9) 117.1 5.578 5.792
5017.4 1.09747 5.70(9) 119.9 5.578 5.769
5019.9 1.09801 5.75(9) 118.8 5.577 5.749
5022.4 1.09856 5.81(9) 117.4 5.577 5.731
5025.0 1.09911 5.77(9) 118.1 5.576 5.714
5027.5 1.09966 5.69(9) 119.7 5.576 5.700
5030.0 1.10021 5.69(9) 119.7 5.575 5.687
5032.5 1.10076 5.72(9) 119.0 5.575 5.676
5035.0 1.10131 5.65(9) 120.3 5.574 5.666
5037.5 1.10186 5.56(9) 122.1 5.574 5.657
5040.1 1.10242 5.65(9) 120.1 5.573 5.650
5042.6 1.10297 5.62(9) 120.6 5.573 5.643
5045.1 1.10352 5.68(9) 119.1 5.572 5.638
5047.6 1.10407 5.62(9) 120.4 5.572 5.633
5050.1 1.10462 5.65(9) 119.8 5.571 5.629
5052.7 1.10518 5.57(9) 121.3 5.571 5.646
5055.2 1.10573 5.63(9) 120.0 5.571 5.644
5057.7 1.10628 5.56(9) 121.4 5.570 5.642
5060.3 1.10684 5.58(9) 120.7 5.570 5.642
5062.8 1.10739 5.63(9) 119.6 5.569 5.643
5065.3 1.10795 5.60(9) 120.1 5.569 5.646
5067.8 1.10850 5.63(9) 119.5 5.568 5.652
5070.4 1.10905 5.53(9) 121.4 5.568 5.662
5072.9 1.10961 5.58(9) 120.3 5.567 5.678
5075.4 1.11016 5.64(9) 118.9 5.567 5.702
5078.0 1.11072 5.56(9) 120.5 5.566 5.739
5080.5 1.11128 5.64(9) 118.7 5.566 5.792
5083.1 1.11183 5.64(9) 118.6 5.565 5.861
5085.6 1.11239 5.88(9) 113.6 5.565 5.951
5088.2 1.11295 6.15(10) 108.6 5.564 6.059
5090.7 1.11350 6.19(10) 107.8 5.564 6.182
5093.3 1.11406 6.17(10) 108.0 5.563 6.314
5095.8 1.11462 6.40(10) 104.0 5.563 6.446
5098.3 1.11518 6.47(10) 102.8 5.563 6.564
5100.9 1.11573 6.40(10) 103.9 5.562 6.657
5103.4 1.11629 6.50(10) 102.3 5.562 6.716
5106.0 1.11685 6.56(10) 101.2 5.561 6.738
5108.5 1.11741 6.60(10) 100.4 5.561 6.722
5111.1 1.11797 6.65(10) 99.6 5.560 6.670
5113.7 1.11853 6.59(10) 100.4 5.560 6.605
5116.2 1.11908 6.46(10) 102.4 5.559 6.527
5118.8 1.11964 6.38(10) 103.6 5.559 6.446
5121.3 1.12020 6.17(10) 106.9 5.558 6.369
5123.9 1.12077 6.13(10) 107.6 5.558 6.301
5126.4 1.12133 6.05(10) 108.9 5.558 6.247
5129.0 1.12189 6.07(10) 108.6 5.557 6.208
5131.6 1.12245 5.95(10) 110.7 5.557 6.187
5134.1 1.12301 6.10(10) 107.7 5.556 6.184
5136.7 1.12357 6.13(10) 107.2 5.556 6.196
5139.3 1.12414 6.12(10) 107.2 5.555 6.222
5141.8 1.12470 6.24(10) 105.1 5.555 6.257
5144.4 1.12526 6.19(10) 105.8 5.554 6.294
5147.0 1.12582 6.07(10) 107.9 5.554 6.327
5149.6 1.12639 6.21(10) 105.2 5.553 6.349
5152.1 1.12695 6.21(10) 105.4 5.553 6.355
5154.7 1.12752 6.21(10) 105.1 5.553 6.343
5157.3 1.12808 6.23(10) 104.7 5.552 6.316
5159.9 1.12865 6.13(10) 106.4 5.552 6.278
5162.4 1.12921 6.08(10) 107.1 5.551 6.231
5165.0 1.12977 6.19(10) 105.1 5.551 6.181
5167.6 1.13034 6.03(10) 107.9 5.550 6.131
5170.2 1.13090 6.08(10) 106.9 5.550 6.083
5172.8 1.13147 6.01(10) 107.9 5.549 6.040
5175.4 1.13204 5.89(10) 110.0 5.549 6.002
5177.9 1.13260 5.79(9) 112.0 5.549 5.969
5180.5 1.13317 5.71(9) 113.5 5.548 5.942
5183.1 1.13374 5.94(10) 108.9 5.548 5.942
5185.7 1.13430 5.80(9) 111.4 5.547 5.926
5188.3 1.13487 5.75(9) 112.3 5.547 5.915
5190.9 1.13544 5.80(9) 111.4 5.546 5.908
5193.5 1.13601 5.92(10) 108.9 5.546 5.906
5196.1 1.13657 5.79(9) 111.3 5.546 5.908
5198.7 1.13714 5.74(9) 112.2 5.545 5.916
5201.3 1.13772 5.74(9) 112.0 5.545 5.931
5203.9 1.13828 5.75(9) 111.6 5.544 5.954
5206.5 1.13885 5.78(9) 111.0 5.544 5.989
5209.1 1.13942 5.84(10) 109.8 5.543 6.043
5211.7 1.13999 5.96(10) 107.6 5.543 6.127
5214.3 1.14056 6.04(10) 106.0 5.543 6.258
5216.9 1.14114 6.26(10) 102.2 5.542 6.465
5219.5 1.14170 6.48(10) 98.5 5.542 6.783
5222.1 1.14227 7.00(10) 91.2 5.541 7.266
5224.8 1.14285 7.95(11) 80.2 5.541 7.980
5227.4 1.14342 8.86(12) 71.8 5.540 8.982
5230.0 1.14399 10.32(13) 61.5 5.540 10.331
5232.6 1.14456 12.06(14) 52.6 5.540 12.073
5235.2 1.14514 14.35(15) 44.1 5.539 14.181
5237.8 1.14571 16.89(16) 37.3 5.539 16.604
5240.4 1.14628 19.68(18) 31.95 5.538 19.237
5243.1 1.14686 22.17(19) 28.29 5.538 21.878
5245.7 1.14743 24.56(20) 25.48 5.538 24.292
5248.3 1.14801 26.32(21) 23.74 5.537 26.228
5250.9 1.14858 27.37(21) 22.79 5.537 27.482
5253.6 1.14915 27.86(21) 22.36 5.536 27.958
5256.2 1.14973 27.84(21) 22.35 5.536 27.689
5258.8 1.15030 27.31(21) 22.78 5.535 26.794
5261.4 1.15088 25.95(20) 23.98 5.535 25.442
5264.1 1.15145 24.15(20) 25.77 5.535 23.796
5266.7 1.15203 22.38(19) 27.82 5.534 22.022
5269.3 1.15261 20.52(18) 30.32 5.534 20.256
5272.0 1.15318 18.83(17) 33.06 5.533 18.564
5274.6 1.15376 16.82(16) 37.0 5.533 17.013
5277.3 1.15434 15.22(16) 40.9 5.533 15.640
5279.9 1.15491 13.85(15) 44.9 5.532 14.436
5282.5 1.15550 12.82(14) 48.6 5.532 13.408
5285.2 1.15607 11.92(14) 52.2 5.531 12.545
5287.8 1.15665 11.23(13) 55.4 5.531 11.828
5290.5 1.15723 10.70(13) 58.1 5.531 11.244
5293.1 1.15781 10.42(13) 59.6 5.530 10.769
5295.8 1.15839 10.18(13) 61.0 5.530 10.374
5298.4 1.15897 9.81(13) 63.2 5.529 10.038
5301.0 1.15955 9.61(12) 64.5 5.529 9.735
5303.7 1.16013 9.42(12) 65.7 5.529 9.442
5306.3 1.16071 9.12(12) 67.8 5.528 9.151
5309.0 1.16129 8.91(12) 69.4 5.528 8.857
5311.7 1.16187 8.61(12) 71.8 5.527 8.564
5314.3 1.16245 8.52(12) 72.4 5.527 8.278
5317.0 1.16303 8.10(11) 76.1 5.527 8.005
5319.6 1.16362 7.70(11) 80.0 5.526 7.751
5322.3 1.16420 7.66(11) 80.4 5.526 7.523
5324.9 1.16478 7.56(11) 81.4 5.525 7.323
5327.6 1.16536 7.32(11) 84.0 5.525 7.152
5330.3 1.16595 7.06(11) 87.1 5.525 7.014
5332.9 1.16653 7.04(11) 87.2 5.524 6.911
5335.6 1.16711 6.92(11) 88.6 5.524 6.842
5338.3 1.16770 6.77(11) 90.5 5.523 6.806
5340.9 1.16828 6.90(11) 88.8 5.523 6.802
5343.6 1.16887 7.05(11) 86.7 5.523 6.826
5346.3 1.16945 7.09(11) 86.1 5.522 6.870
5349.0 1.17004 7.18(11) 85.0 5.522 6.926
5351.6 1.17062 7.32(11) 83.3 5.522 6.984
5354.3 1.17121 7.05(11) 86.4 5.521 7.032
5357.0 1.17179 7.14(11) 85.3 5.521 7.063
5359.7 1.17238 7.22(11) 84.2 5.520 7.074
5362.3 1.17297 7.14(11) 85.1 5.520 7.066
5365.0 1.17356 7.18(11) 84.5 5.520 7.048
5367.7 1.17414 6.99(11) 86.8 5.519 7.032
5370.4 1.17473 6.99(11) 86.7 5.519 7.036
5373.1 1.17531 7.18(11) 84.3 5.518 7.084
5375.8 1.17590 7.14(11) 84.7 5.518 7.210
5378.4 1.17649 7.15(11) 84.5 5.518 7.457
5381.1 1.17708 7.53(11) 80.1 5.517 7.890
5383.8 1.17767 8.45(12) 71.3 5.517 8.585
5386.5 1.17826 9.65(13) 62.3 5.517 9.622
5389.2 1.17885 10.99(14) 54.6 5.516 11.089
5391.9 1.17944 13.32(15) 45.0 5.516 13.052
5394.6 1.18003 16.07(16) 37.2 5.515 15.555
5397.3 1.18062 19.18(18) 31.06 5.515 18.550
5400.0 1.18121 22.42(19) 26.50 5.515 21.901
5402.7 1.18180 25.97(21) 22.81 5.514 25.445
5405.4 1.18239 29.16(22) 20.25 5.514 28.883
5408.1 1.18298 32.02(23) 18.39 5.514 31.880
5410.8 1.18358 34.19(24) 17.19 5.513 34.112
5413.5 1.18417 35.81(25) 16.38 5.513 35.355
5416.2 1.18476 36.14(25) 16.21 5.513 35.550
5418.9 1.18536 35.56(25) 16.47 5.512 34.792
5421.6 1.18594 34.18(24) 17.13 5.512 33.280
5424.3 1.18654 32.08(23) 18.26 5.511 31.233
5427.1 1.18713 29.26(22) 20.03 5.511 28.890
5429.8 1.18773 26.88(21) 21.81 5.511 26.446
5432.5 1.18832 24.36(20) 24.08 5.510 24.048
5435.2 1.18892 22.02(19) 26.65 5.510 21.793
5437.9 1.18952 19.75(18) 29.73 5.510 19.735
5440.7 1.19011 17.78(17) 33.02 5.509 17.894
5443.4 1.19071 15.91(16) 36.9 5.509 16.271
5446.1 1.19130 14.39(16) 40.8 5.509 14.851
5448.8 1.19190 13.21(15) 44.4 5.508 13.616
5451.5 1.19249 12.06(14) 48.7 5.508 12.545
5454.3 1.19309 11.12(14) 52.7 5.507 11.617
5457.0 1.19368 10.44(13) 56.2 5.507 10.810
5459.7 1.19428 9.91(13) 59.2 5.507 10.112
5462.4 1.19488 9.48(13) 61.8 5.506 9.509
5465.2 1.19548 9.03(12) 64.8 5.506 8.988
5467.9 1.19608 8.70(12) 67.2 5.506 8.540
5470.6 1.19667 8.35(12) 70.0 5.505 8.150
5473.4 1.19727 8.14(12) 71.7 5.505 7.810
5476.1 1.19787 7.86(12) 74.2 5.505 7.518
5478.8 1.19847 7.62(11) 76.5 5.504 7.246
5481.6 1.19907 7.49(11) 77.7 5.504 7.027
5484.3 1.19967 7.20(11) 80.8 5.504 6.838
5487.1 1.20027 6.97(11) 83.4 5.503 6.677
5489.8 1.20087 6.84(11) 84.9 5.503 6.535
5492.6 1.20147 6.77(11) 85.7 5.503 6.411
5495.3 1.20208 6.79(11) 85.3 5.502 6.305
5498.1 1.20268 6.67(11) 86.8 5.502 6.212
5500.8 1.20328 6.57(11) 88.1 5.502 6.132
5503.6 1.20388 6.35(10) 91.0 5.501 6.063
5506.3 1.20448 6.36(10) 90.7 5.501 6.004
5509.1 1.20509 6.22(10) 92.8 5.500 5.953
5511.8 1.20569 6.27(10) 91.9 5.500 5.910
5514.6 1.20629 6.23(10) 92.5 5.500 5.873
5517.3 1.20689 6.15(10) 93.5 5.499 5.842
5520.1 1.20750 6.01(10) 95.7 5.499 5.815
5522.8 1.20810 6.05(10) 95.0 5.499 5.792
5525.6 1.20870 6.04(10) 95.0 5.498 5.771
5528.4 1.20931 6.08(10) 94.3 5.498 5.752
5531.1 1.20992 6.07(10) 94.2 5.498 5.733
5533.9 1.21052 5.94(10) 96.3 5.497 5.716
5536.7 1.21113 5.98(10) 95.5 5.497 5.701
5539.4 1.21173 6.02(10) 94.9 5.497 5.686
5542.2 1.21234 5.94(10) 96.0 5.496 5.672
5545.0 1.21295 5.94(10) 95.9 5.496 5.659
5547.8 1.21355 5.74(10) 99.2 5.496 5.648
5550.5 1.21416 5.81(10) 97.9 5.495 5.638
5553.3 1.21477 5.94(10) 95.6 5.495 5.630
5556.1 1.21537 5.90(10) 96.2 5.495 5.625
5558.8 1.21598 5.98(10) 94.8 5.494 5.622
5561.6 1.21659 5.79(10) 97.9 5.494 5.622
5564.4 1.21720 5.90(10) 95.8 5.494 5.625
5567.2 1.21781 5.69(10) 99.4 5.493 5.633
5570.0 1.21842 5.74(10) 98.3 5.493 5.646
5572.8 1.21903 5.77(10) 97.7 5.493 5.663
5575.6 1.21964 5.85(10) 96.4 5.492 5.684
5578.3 1.22025 5.94(10) 94.8 5.492 5.707
5581.1 1.22086 5.88(10) 95.7 5.492 5.732
5583.9 1.22147 5.84(10) 96.2 5.491 5.754
5586.7 1.22209 5.82(10) 96.4 5.491 5.772
5589.5 1.22269 5.83(10) 96.2 5.491 5.783
5592.3 1.22331 5.83(10) 96.1 5.491 5.786
5595.1 1.22392 5.82(10) 96.2 5.490 5.782
5597.9 1.22453 5.81(10) 96.3 5.490 5.771
5600.7 1.22514 5.77(10) 96.7 5.490 5.755
5603.5 1.22576 5.65(10) 98.7 5.489 5.736
5606.3 1.22637 5.69(10) 97.9 5.489 5.716
5609.1 1.22698 5.70(10) 97.7 5.489 5.695
5611.9 1.22760 5.67(10) 98.1 5.488 5.676
5614.7 1.22821 5.67(10) 98.0 5.488 5.658
5617.5 1.22882 5.79(10) 95.8 5.488 5.643
5620.3 1.22944 5.60(10) 99.0 5.487 5.629
5623.1 1.23006 5.67(10) 97.7 5.487 5.617
5625.9 1.23067 5.66(10) 97.9 5.487 5.609
5628.8 1.23129 5.58(10) 99.2 5.486 5.601
5631.6 1.23190 5.46(10) 101.2 5.486 5.596
5634.4 1.23252 5.50(10) 100.3 5.486 5.592
5637.2 1.23314 5.48(10) 100.7 5.485 5.590
5640.0 1.23376 5.51(10) 99.9 5.485 5.561
5642.8 1.23437 5.49(10) 100.2 5.485 5.562
5645.7 1.23499 5.37(10) 102.3 5.485 5.564
5648.5 1.23561 5.45(10) 100.7 5.484 5.566
5651.3 1.23623 5.61(10) 97.7 5.484 5.567
5654.1 1.23684 5.69(10) 96.2 5.484 5.569
5657.0 1.23746 5.69(10) 96.2 5.483 5.569
5659.8 1.23808 5.66(10) 96.6 5.483 5.570
5662.6 1.23870 5.54(10) 98.7 5.483 5.570
5665.5 1.23933 5.43(10) 100.5 5.482 5.571
5668.3 1.23994 5.63(10) 96.8 5.482 5.573
5671.1 1.24056 5.60(10) 97.2 5.482 5.578
5674.0 1.24119 5.51(10) 98.7 5.481 5.586
5676.8 1.24180 5.51(10) 98.7 5.481 5.600
5679.6 1.24242 5.58(10) 97.3 5.481 5.624
5682.5 1.24305 5.51(10) 98.5 5.481 5.663
5685.3 1.24367 5.61(10) 96.6 5.480 5.724
5688.2 1.24429 5.73(10) 94.5 5.480 5.818
5691.0 1.24491 5.85(10) 92.4 5.480 5.954
5693.8 1.24554 5.98(11) 90.3 5.479 6.143
5696.7 1.24616 6.31(11) 85.5 5.479 6.395
5699.5 1.24678 6.72(11) 80.2 5.479 6.711
5702.4 1.24740 7.02(11) 76.7 5.478 7.090
5705.3 1.24803 7.53(12) 71.3 5.478 7.514
5708.1 1.24866 7.83(12) 68.5 5.478 7.956
5710.9 1.24928 8.16(12) 65.7 5.478 8.384
5713.8 1.24991 8.56(13) 62.6 5.477 8.754
5716.7 1.25053 8.93(13) 59.9 5.477 9.026
5719.5 1.25116 9.16(13) 58.3 5.477 9.173
5722.4 1.25178 9.02(13) 59.1 5.476 9.189
5725.3 1.25241 8.98(13) 59.3 5.476 9.086
5728.1 1.25303 8.83(13) 60.3 5.476 8.891
5731.0 1.25366 8.55(13) 62.2 5.476 8.630
5733.8 1.25429 8.28(12) 64.2 5.475 8.336
5736.7 1.25492 7.94(12) 66.9 5.475 8.032
5739.6 1.25555 7.77(12) 68.3 5.475 7.733
5742.4 1.25618 7.53(12) 70.4 5.474 7.455
5745.3 1.25680 7.28(12) 72.8 5.474 7.205
5748.2 1.25743 7.06(12) 74.9 5.474 6.986
5751.1 1.25806 6.80(11) 77.7 5.474 6.801
5753.9 1.25869 6.58(11) 80.2 5.473 6.649
5756.8 1.25932 6.51(11) 81.1 5.473 6.531
5759.7 1.25995 6.39(11) 82.5 5.473 6.447
5762.6 1.26058 6.36(11) 82.8 5.472 6.397
5765.4 1.26121 6.57(11) 80.0 5.472 6.381
5768.3 1.26185 6.55(11) 80.2 5.472 6.396
5771.2 1.26248 6.56(11) 80.0 5.472 6.439
5774.1 1.26311 6.64(11) 78.9 5.471 6.501
5777.0 1.26374 6.77(11) 77.4 5.471 6.573
5779.9 1.26437 6.84(11) 76.5 5.471 6.642
5782.8 1.26500 6.91(11) 75.7 5.470 6.695
5785.7 1.26564 6.92(12) 75.5 5.470 6.722
5788.6 1.26627 6.69(11) 78.0 5.470 6.717
5791.4 1.26690 6.67(11) 78.1 5.470 6.681
5794.3 1.26754 6.79(11) 76.6 5.469 6.617
5797.3 1.26817 6.76(11) 76.9 5.469 6.534
5800.1 1.26880 6.52(11) 79.7 5.469 6.440
5803.0 1.26944 6.47(11) 80.2 5.468 6.341
5805.9 1.27008 6.36(11) 81.5 5.468 6.244
5808.8 1.27071 6.20(11) 83.5 5.468 6.154
5811.8 1.27135 6.04(11) 85.6 5.468 6.073
5814.7 1.27199 6.14(11) 84.2 5.467 6.003
5817.6 1.27262 5.98(11) 86.3 5.467 5.945
5820.5 1.27326 5.91(11) 87.2 5.467 5.902
5823.4 1.27389 5.88(11) 87.6 5.467 5.873
5826.3 1.27453 5.99(11) 85.9 5.466 5.863
5829.2 1.27517 5.98(11) 85.9 5.466 5.873
5832.1 1.27581 6.13(11) 83.7 5.466 5.905
5835.0 1.27645 6.09(11) 84.3 5.465 5.961
5837.9 1.27708 6.01(11) 85.3 5.465 6.041
5840.9 1.27773 6.28(11) 81.4 5.465 6.141
5843.8 1.27836 6.40(11) 79.9 5.465 6.255
5846.7 1.27900 6.53(11) 78.2 5.464 6.373
5849.6 1.27964 6.68(11) 76.3 5.464 6.484
5852.6 1.28028 6.72(11) 75.8 5.464 6.574
5855.5 1.28092 6.65(11) 76.5 5.464 6.632
5858.4 1.28156 6.75(12) 75.3 5.463 6.652
5861.3 1.28221 6.77(12) 75.0 5.463 6.634
5864.3 1.28285 6.69(11) 75.8 5.463 6.584
5867.2 1.28349 6.70(11) 75.7 5.463 6.510
5870.1 1.28413 6.56(11) 77.2 5.462 6.421
5873.1 1.28477 6.38(11) 79.2 5.462 6.325
5876.0 1.28541 6.31(11) 80.0 5.462 6.229
5878.9 1.28606 6.07(11) 83.1 5.462 6.138
5881.9 1.28670 5.92(11) 85.1 5.461 6.054
5884.8 1.28734 5.83(11) 86.3 5.461 5.980
5887.8 1.28799 5.78(11) 87.0 5.461 5.917
5890.7 1.28864 5.69(11) 88.2 5.460 5.865
5893.7 1.28928 5.72(11) 87.7 5.460 5.825
5896.6 1.28992 5.72(11) 87.7 5.460 5.798
5899.6 1.29057 5.76(11) 86.9 5.460 5.786
5902.5 1.29122 5.77(11) 86.7 5.459 5.789
5905.5 1.29187 5.84(11) 85.5 5.459 5.809
5908.4 1.29251 5.85(11) 85.4 5.459 5.846
5911.4 1.29316 5.92(11) 84.2 5.459 5.899
5914.3 1.29380 6.02(11) 82.7 5.458 5.966
5917.3 1.29445 5.86(11) 84.9 5.458 6.040
5920.2 1.29510 6.06(11) 82.0 5.458 6.116
5923.2 1.29575 6.18(11) 80.3 5.458 6.185
5926.2 1.29640 6.30(11) 78.6 5.457 6.237
5929.1 1.29705 6.30(11) 78.6 5.457 6.266
5932.1 1.29770 6.32(11) 78.3 5.457 6.269
5935.1 1.29835 6.27(11) 78.9 5.457 6.247
5938.0 1.29900 6.24(11) 79.1 5.456 6.205
5941.0 1.29964 6.06(11) 81.4 5.456 6.149
5944.0 1.30029 6.06(11) 81.2 5.456 6.085
5946.9 1.30094 5.81(11) 84.6 5.456 6.014
5949.9 1.30159 5.79(11) 84.9 5.455 5.948
5952.9 1.30224 5.90(11) 83.2 5.455 5.886
5955.8 1.30289 5.91(11) 82.9 5.455 5.829
5958.8 1.30355 5.71(11) 85.8 5.455 5.778
5961.8 1.30420 5.68(11) 86.1 5.454 5.734
5964.8 1.30485 5.72(11) 85.5 5.454 5.695
5967.8 1.30551 5.71(11) 85.5 5.454 5.662
5970.8 1.30616 5.69(11) 85.7 5.454 5.633
5973.8 1.30681 5.72(11) 85.2 5.453 5.608
5976.7 1.30746 5.66(11) 85.9 5.453 5.587
5979.7 1.30812 5.61(11) 86.6 5.453 5.569
5982.7 1.30878 5.57(11) 87.2 5.453 5.553
5985.7 1.30943 5.56(11) 87.1 5.452 5.540
5988.7 1.31009 5.48(11) 88.3 5.452 5.528
5991.7 1.31074 5.67(11) 85.3 5.452 5.518
5994.7 1.31140 5.63(11) 85.8 5.452 5.509
5997.7 1.31206 5.61(11) 86.0 5.451 5.502
6000.7 1.31271 5.40(11) 89.3 5.451 5.495
6003.7 1.31337 5.35(11) 90.0 5.451 5.490
6006.7 1.31403 5.51(11) 87.3 5.451 5.485
6009.7 1.31468 5.38(11) 89.2 5.451 5.481
6012.7 1.31534 5.42(11) 88.6 5.450 5.477
6015.7 1.31600 5.46(11) 87.9 5.450 5.474
6018.7 1.31666 5.34(11) 89.6 5.450 5.471
6021.7 1.31732 5.23(10) 91.5 5.450 5.469
6024.7 1.31797 5.39(11) 88.7 5.449 5.467
6027.8 1.31864 5.35(11) 89.2 5.449 5.465
6030.8 1.31929 5.21(10) 91.6 5.449 5.463
6033.8 1.31995 5.30(11) 89.8 5.449 5.462
6036.8 1.32061 5.44(11) 87.4 5.448 5.461
6039.8 1.32128 5.37(11) 88.5 5.448 5.460
6042.8 1.32193 5.33(11) 89.0 5.448 5.459
6045.8 1.32260 5.48(11) 86.5 5.448 5.458
6048.9 1.32326 5.45(11) 86.8 5.447 5.457
6051.9 1.32392 5.54(11) 85.3 5.447 5.457
6054.9 1.32458 5.29(11) 89.2 5.447 5.458
6057.9 1.32525 5.34(11) 88.4 5.447 5.459
6061.0 1.32591 5.32(11) 88.6 5.447 5.460
6064.0 1.32657 5.40(11) 87.2 5.446 5.462
6067.0 1.32724 5.40(11) 87.0 5.446 5.464
6070.1 1.32790 5.54(11) 84.7 5.446 5.467
6073.1 1.32856 5.46(11) 85.9 5.446 5.496
6076.1 1.32923 5.35(11) 87.6 5.445 5.500
6079.2 1.32990 5.44(11) 85.9 5.445 5.502
6082.2 1.33056 5.50(11) 84.9 5.445 5.504
6085.3 1.33123 5.51(11) 84.6 5.445 5.505
6088.3 1.33190 5.56(11) 83.8 5.445 5.505
6091.3 1.33256 5.47(11) 85.0 5.444 5.504
6094.4 1.33322 5.27(11) 88.3 5.444 5.503
6097.4 1.33389 5.36(11) 86.8 5.444 5.502
6100.5 1.33456 5.34(11) 86.9 5.444 5.500
6103.5 1.33523 5.37(11) 86.3 5.443 5.498
6106.6 1.33590 5.41(11) 85.6 5.443 5.497
6109.7 1.33657 5.51(11) 84.0 5.443 5.496
6112.7 1.33723 5.32(11) 86.8 5.443 5.495
6115.8 1.33790 5.28(11) 87.3 5.443 5.494
6118.8 1.33857 5.45(11) 84.5 5.442 5.493
6121.9 1.33924 5.38(11) 85.6 5.442 5.493
6124.9 1.33991 5.28(11) 87.1 5.442 5.494
6128.0 1.34058 5.28(11) 86.9 5.442 5.495
6131.1 1.34126 5.40(11) 85.0 5.441 5.497
6134.1 1.34193 5.41(11) 84.6 5.441 5.500
6137.2 1.34260 5.41(11) 84.6 5.441 5.504
6140.3 1.34327 5.41(11) 84.5 5.441 5.510
6143.3 1.34394 5.31(11) 85.9 5.441 5.517
6146.4 1.34461 5.44(11) 83.7 5.440 5.525
6149.5 1.34529 5.47(11) 83.2 5.440 5.535
6152.6 1.34596 5.42(11) 83.9 5.440 5.545
6155.6 1.34663 5.33(11) 85.3 5.440 5.555
6158.7 1.34730 5.39(11) 84.2 5.439 5.564
6161.8 1.34798 5.37(11) 84.4 5.439 5.571
6164.9 1.34866 5.39(11) 84.0 5.439 5.577
6167.9 1.34933 5.45(11) 82.9 5.439 5.580
6171.0 1.35001 5.41(11) 83.4 5.439 5.580
6174.1 1.35068 5.54(11) 81.3 5.438 5.579
6177.2 1.35135 5.42(11) 83.1 5.438 5.576
6180.3 1.35203 5.38(11) 83.7 5.438 5.572
6183.4 1.35271 5.35(11) 83.9 5.438 5.569
6186.5 1.35339 5.47(11) 82.0 5.438 5.566
6189.6 1.35406 5.40(11) 83.0 5.437 5.562
6192.7 1.35474 5.27(11) 84.9 5.437 5.560
6195.8 1.35542 5.34(11) 83.7 5.437 5.560
6198.8 1.35610 5.30(11) 84.3 5.437 5.560
6202.0 1.35678 5.43(11) 82.1 5.436 5.561
6205.1 1.35746 5.48(11) 81.3 5.436 5.564
6208.2 1.35813 5.33(11) 83.4 5.436 5.568
6211.3 1.35881 5.36(11) 82.9 5.436 5.575
6214.4 1.35950 5.50(11) 80.6 5.436 5.584
6217.5 1.36017 5.29(11) 83.8 5.435 5.597
6220.6 1.36086 5.20(11) 85.2 5.435 5.615
6223.7 1.36153 5.32(11) 83.2 5.435 5.638
6226.8 1.36222 5.42(11) 81.4 5.435 5.668
6229.9 1.36290 5.40(11) 81.7 5.435 5.703
6233.0 1.36358 5.71(11) 77.1 5.434 5.744
6236.2 1.36426 5.63(11) 78.2 5.434 5.789
6239.3 1.36495 5.62(11) 78.2 5.434 5.835
6242.4 1.36563 5.56(11) 79.0 5.434 5.880
6245.5 1.36631 5.71(11) 76.8 5.434 5.919
6248.6 1.36699 5.55(11) 78.8 5.433 5.950
6251.8 1.36768 5.69(11) 76.9 5.433 5.971
6254.9 1.36836 5.65(11) 77.4 5.433 5.982
6258.0 1.36905 5.63(11) 77.5 5.433 5.987
6261.1 1.36973 5.66(11) 77.0 5.433 5.987
6264.3 1.37042 5.75(11) 75.6 5.432 5.984
6267.4 1.37111 5.72(11) 76.0 5.432 5.982
6270.5 1.37179 5.79(12) 74.9 5.432 5.983
6273.7 1.37247 5.81(12) 74.6 5.432 5.990
6276.8 1.37317 5.73(12) 75.6 5.432 6.006
6279.9 1.37385 5.77(12) 75.0 5.431 6.032
6283.1 1.37454 5.70(11) 75.7 5.431 6.075
6286.2 1.37522 5.71(12) 75.6 5.431 6.143
6289.4 1.37592 5.98(12) 72.0 5.431 6.250
6292.5 1.37660 6.13(12) 70.2 5.431 6.421
6295.7 1.37729 6.49(12) 66.2 5.430 6.696
6298.8 1.37798 6.73(13) 63.8 5.430 7.129
6302.0 1.37867 7.32(13) 58.6 5.430 7.795
6305.1 1.37936 8.52(14) 50.2 5.430 8.789
6308.3 1.38005 10.21(15) 41.8 5.430 10.225
6311.4 1.38074 12.46(17) 34.16 5.429 12.201
6314.6 1.38143 15.50(19) 27.40 5.429 14.789
6317.7 1.38212 19.29(21) 21.96 5.429 18.000
6320.9 1.38281 22.83(23) 18.50 5.429 21.786
6324.1 1.38351 26.65(25) 15.80 5.429 25.959
6327.2 1.38420 31.07(27) 13.51 5.428 30.218
6330.4 1.38489 34.65(29) 12.09 5.428 34.216
6333.5 1.38558 37.32(30) 11.19 5.428 37.557
6336.7 1.38628 39.66(31) 10.51 5.428 39.849
6339.9 1.38697 40.99(31) 10.15 5.428 40.876
6343.0 1.38766 40.60(31) 10.24 5.427 40.643
6346.2 1.38836 39.63(31) 10.48 5.427 39.305
6349.4 1.38905 38.03(30) 10.91 5.427 37.124
6352.6 1.38975 35.18(29) 11.80 5.427 34.381
6355.8 1.39045 31.91(28) 13.01 5.427 31.378
6358.9 1.39114 29.30(27) 14.16 5.426 28.330
6362.1 1.39184 26.23(25) 15.82 5.426 25.456
6365.3 1.39253 23.02(24) 18.03 5.426 22.744
6368.5 1.39323 19.96(22) 20.79 5.426 20.314
6371.7 1.39393 17.80(21) 23.30 5.426 18.180
6374.8 1.39463 15.81(20) 26.23 5.425 16.332
6378.0 1.39533 14.00(18) 29.60 5.425 14.746
6381.2 1.39602 12.83(18) 32.27 5.425 13.392
6384.4 1.39672 11.73(17) 35.3 5.425 12.241
6387.6 1.39742 11.07(16) 37.3 5.425 11.266
6390.8 1.39812 10.47(16) 39.4 5.424 10.440
6394.0 1.39882 9.92(16) 41.6 5.424 9.741
6397.2 1.39952 9.19(15) 44.8 5.424 9.155
6400.4 1.40022 8.71(15) 47.2 5.424 8.669
6403.6 1.40092 8.43(14) 48.7 5.424 8.267
6406.8 1.40162 8.19(14) 50.2 5.424 7.940
6410.0 1.40232 8.22(14) 49.9 5.423 7.678
6413.2 1.40302 7.93(14) 51.6 5.423 7.471
6416.4 1.40373 7.55(14) 54.2 5.423 7.311
6419.6 1.40443 7.69(14) 53.1 5.423 7.186
6422.8 1.40513 7.57(14) 53.9 5.423 7.085
6426.0 1.40584 7.54(14) 54.0 5.422 6.998
6429.2 1.40653 7.47(14) 54.5 5.422 6.916
6432.4 1.40724 7.26(13) 56.0 5.422 6.831
6435.7 1.40794 6.97(13) 58.3 5.422 6.742
6438.9 1.40865 6.93(13) 58.5 5.422 6.649
6442.1 1.40935 6.84(13) 59.2 5.421 6.553
6445.3 1.41006 6.85(13) 59.1 5.421 6.459
6448.5 1.41076 6.63(13) 60.9 5.421 6.368
6451.8 1.41147 6.32(13) 63.9 5.421 6.283
6455.0 1.41218 6.39(13) 63.0 5.421 6.207
6458.2 1.41288 6.30(13) 63.8 5.421 6.140
6461.4 1.41359 6.33(13) 63.5 5.420 6.081
6464.7 1.41430 5.96(12) 67.4 5.420 6.031
6467.9 1.41500 5.90(12) 67.9 5.420 5.989
6471.2 1.41572 6.09(12) 65.8 5.420 5.955
6474.4 1.41642 6.10(12) 65.5 5.420 5.927
6477.6 1.41713 5.90(12) 67.7 5.419 5.905
6480.9 1.41784 5.78(12) 68.9 5.419 5.891
6484.1 1.41855 5.74(12) 69.4 5.419 5.882
6487.3 1.41926 5.78(12) 68.8 5.419 5.882
6490.6 1.41997 5.91(12) 67.2 5.419 5.890
6493.8 1.42068 5.87(12) 67.6 5.419 5.909
6497.1 1.42139 5.86(12) 67.6 5.418 5.941
6500.3 1.42210 5.95(12) 66.4 5.418 5.988
6503.6 1.42281 6.05(12) 65.3 5.418 6.052
6506.8 1.42353 6.18(13) 63.8 5.418 6.132
6510.1 1.42424 6.28(13) 62.7 5.418 6.226
6513.3 1.42495 6.33(13) 62.1 5.417 6.329
6516.6 1.42566 6.19(13) 63.5 5.417 6.436
6519.8 1.42638 6.38(13) 61.5 5.417 6.537
6523.1 1.42709 6.52(13) 60.1 5.417 6.624
6526.4 1.42781 6.55(13) 59.8 5.417 6.689
6529.6 1.42852 6.49(13) 60.3 5.417 6.727
6532.9 1.42924 6.44(13) 60.7 5.416 6.741
6536.2 1.42995 6.41(13) 60.8 5.416 6.734
6539.4 1.43067 6.41(13) 60.7 5.416 6.712
6542.7 1.43138 6.41(13) 60.6 5.416 6.684
6546.0 1.43210 6.45(13) 60.2 5.416 6.655
6549.3 1.43281 6.49(13) 59.7 5.416 6.631
6552.5 1.43353 6.34(13) 61.0 5.415 6.616
6555.8 1.43425 6.30(13) 61.4 5.415 6.614
6559.1 1.43497 6.20(13) 62.3 5.415 6.628
6562.3 1.43568 6.20(13) 62.2 5.415 6.660
6565.6 1.43640 6.27(13) 61.4 5.415 6.716
6568.9 1.43712 6.15(13) 62.5 5.414 6.802
6572.2 1.43784 6.43(13) 59.7 5.414 6.931
6575.5 1.43856 6.44(13) 59.6 5.414 7.130
6578.8 1.43928 6.67(13) 57.5 5.414 7.439
6582.1 1.44000 7.04(14) 54.4 5.414 7.929
6585.4 1.44072 7.97(14) 47.9 5.414 8.706
6588.7 1.44144 9.14(15) 41.7 5.413 9.913
6591.9 1.44216 11.02(17) 34.51 5.413 11.758
6595.3 1.44289 13.79(19) 27.52 5.413 14.472
6598.5 1.44360 18.33(22) 20.64 5.413 18.267
6601.8 1.44433 23.86(25) 15.80 5.413 23.450
6605.2 1.44505 30.62(29) 12.27 5.413 30.050
6608.4 1.44577 38.67(32) 9.67 5.412 38.040
6611.8 1.44650 47.7(4) 7.80 5.41 47.20
6615.1 1.44722 57.5(4) 6.44 5.41 57.00
6618.4 1.44795 66.2(4) 5.57 5.41 66.69
6621.7 1.44867 73.7(4) 4.98 5.41 75.30
6625.0 1.44939 80.0(5) 4.57 5.41 81.95
6628.3 1.45012 83.5(5) 4.37 5.41 85.96
6631.6 1.45085 84.7(5) 4.30 5.41 86.95
6634.9 1.45157 83.8(5) 4.34 5.41 85.13
6638.3 1.45230 80.5(5) 4.52 5.41 81.01
6641.6 1.45303 75.5(5) 4.82 5.41 75.24
6644.9 1.45375 69.0(4) 5.28 5.41 68.47
6648.2 1.45448 61.5(4) 5.93 5.41 61.32
6651.5 1.45521 54.3(4) 6.72 5.41 54.30
6654.8 1.45593 47.2(4) 7.76 5.41 47.67
6658.2 1.45667 41.25(34) 8.88 5.410 41.660
6661.5 1.45739 36.17(31) 10.13 5.410 36.341
6664.8 1.45812 31.03(29) 11.81 5.409 31.699
6668.2 1.45885 27.20(27) 13.47 5.409 27.734
6671.5 1.45958 23.80(25) 15.40 5.409 24.356
6674.8 1.46031 20.98(24) 17.46 5.409 21.478
6678.2 1.46104 18.73(23) 19.55 5.409 19.046
6681.5 1.46178 17.11(22) 21.38 5.409 16.992
6684.9 1.46251 15.53(21) 23.55 5.408 15.259
6688.2 1.46324 14.64(20) 24.95 5.408 13.797
6691.6 1.46397 13.37(19) 27.30 5.408 12.562
6694.9 1.46470 12.33(18) 29.56 5.408 11.521
6698.3 1.46544 11.70(18) 31.11 5.408 10.640
6701.6 1.46617 10.96(17) 33.19 5.408 9.896
6704.9 1.46690 10.47(17) 34.72 5.407 9.266
6708.3 1.46763 9.88(17) 36.7 5.407 8.730
6711.7 1.46837 9.41(16) 38.5 5.407 8.276
6715.0 1.46910 9.10(16) 39.8 5.407 7.891
6718.4 1.46984 8.79(16) 41.1 5.407 7.564
6721.7 1.47058 8.46(15) 42.7 5.407 7.286
6725.1 1.47131 8.00(15) 45.0 5.406 7.050
6728.4 1.47205 7.86(15) 45.8 5.406 6.848
6731.8 1.47279 7.60(15) 47.3 5.406 6.675
6735.2 1.47352 7.51(14) 47.8 5.406 6.528
6738.5 1.47426 7.26(14) 49.4 5.406 6.402
6741.9 1.47500 7.17(14) 50.0 5.406 6.293
6745.3 1.47573 7.02(14) 50.9 5.405 6.200
6748.7 1.47647 6.94(14) 51.5 5.405 6.119
6752.0 1.47721 6.81(14) 52.4 5.405 6.049
6755.4 1.47795 6.68(14) 53.3 5.405 5.989
6758.8 1.47869 6.57(14) 54.2 5.405 5.936
6762.2 1.47943 6.48(14) 54.9 5.405 5.890
6765.5 1.48017 6.36(13) 55.8 5.404 5.850
6768.9 1.48091 6.36(13) 55.7 5.404 5.815
6772.3 1.48165 6.35(13) 55.7 5.404 5.784
6775.7 1.48239 6.20(13) 57.0 5.404 5.756
6779.1 1.48314 6.16(13) 57.2 5.404 5.732
6782.5 1.48388 6.18(13) 57.0 5.404 5.710
6785.9 1.48462 6.06(13) 58.1 5.403 5.691
6789.3 1.48536 6.03(13) 58.3 5.403 5.673
6792.7 1.48611 6.16(13) 56.9 5.403 5.657
6796.1 1.48685 5.96(13) 58.8 5.403 5.643
6799.4 1.48759 5.82(13) 60.1 5.403 5.631
6802.8 1.48834 5.69(13) 61.5 5.403 5.619
6806.3 1.48908 5.74(13) 60.8 5.402 5.609
6809.7 1.48983 6.01(13) 58.0 5.402 5.600
6813.1 1.49058 6.06(13) 57.4 5.402 5.592
6816.5 1.49132 5.80(13) 59.9 5.402 5.584
6819.9 1.49207 5.62(13) 61.7 5.402 5.578
6823.3 1.49281 5.57(13) 62.2 5.402 5.572
6826.7 1.49356 5.75(13) 60.2 5.401 5.568
6830.1 1.49430 5.75(13) 60.1 5.401 5.564
6833.5 1.49506 5.77(13) 59.8 5.401 5.560
6836.9 1.49580 5.66(13) 60.9 5.401 5.557
6840.3 1.49655 5.60(13) 61.4 5.401 5.553
6843.8 1.49730 5.58(13) 61.6 5.401 5.550
6847.2 1.49805 5.69(13) 60.3 5.400 5.546
6850.6 1.49880 5.83(13) 58.8 5.400 5.542
6854.1 1.49955 5.72(13) 59.8 5.400 5.538
6857.5 1.50030 5.54(13) 61.7 5.400 5.534
6860.9 1.50105 5.51(13) 62.0 5.400 5.530
6864.3 1.50180 5.62(13) 60.6 5.400 5.525
6867.8 1.50256 5.69(13) 59.8 5.399 5.521
6871.2 1.50330 5.50(13) 61.8 5.399 5.518
6874.6 1.50406 5.48(13) 62.0 5.399 5.514
6878.1 1.50481 5.48(13) 61.9 5.399 5.512
6881.5 1.50556 5.56(13) 60.9 5.399 5.509
6884.9 1.50631 5.53(13) 61.1 5.399 5.507
6888.4 1.50707 5.42(13) 62.3 5.398 5.422
6891.8 1.50783 5.43(13) 62.1 5.398 5.423
6895.3 1.50858 5.45(13) 61.7 5.398 5.425
6898.7 1.50933 5.52(13) 60.9 5.398 5.427
6902.2 1.51009 5.65(13) 59.4 5.398 5.430
6905.6 1.51084 5.66(13) 59.2 5.398 5.434
6909.1 1.51160 5.53(13) 60.5 5.397 5.440
6912.5 1.51235 5.48(13) 60.9 5.397 5.475
6916.0 1.51311 5.30(13) 62.9 5.397 5.491
6919.5 1.51387 5.62(13) 59.2 5.397 5.516
6922.9 1.51463 5.69(13) 58.5 5.397 5.554
6926.4 1.51539 5.76(13) 57.7 5.397 5.612
6929.8 1.51615 5.77(13) 57.4 5.396 5.693
6933.3 1.51691 6.10(14) 54.3 5.396 5.805
6936.8 1.51766 6.19(14) 53.5 5.396 5.951
6940.3 1.51842 6.26(14) 52.7 5.396 6.132
6943.7 1.51918 6.48(14) 50.9 5.396 6.342
6947.2 1.51994 6.89(14) 47.7 5.396 6.573
6950.7 1.52070 6.98(15) 47.1 5.395 6.808
6954.1 1.52146 6.87(14) 47.8 5.395 7.027
6957.6 1.52222 7.20(15) 45.5 5.395 7.207
6961.1 1.52299 7.26(15) 45.1 5.395 7.328
6964.6 1.52375 7.46(15) 43.8 5.395 7.379
6968.1 1.52451 7.35(15) 44.4 5.395 7.358
6971.5 1.52527 7.27(15) 44.8 5.394 7.277
6975.0 1.52604 7.27(15) 44.8 5.394 7.149
6978.5 1.52680 7.11(15) 45.7 5.394 6.993
6982.0 1.52757 6.94(15) 46.8 5.394 6.821
6985.5 1.52833 6.72(14) 48.2 5.394 6.649
6989.0 1.52909 6.72(14) 48.1 5.394 6.485
6992.5 1.52986 6.38(14) 50.6 5.393 6.335
6996.0 1.53062 6.14(14) 52.5 5.393 6.201
6999.5 1.53139 6.20(14) 51.9 5.393 6.085
7003.0 1.53216 5.99(14) 53.7 5.393 5.986
7006.5 1.53292 6.05(14) 53.1 5.393 5.902
7010.0 1.53369 5.98(14) 53.7 5.393 5.831
7013.5 1.53446 5.92(14) 54.1 5.392 5.773
7017.0 1.53522 5.80(13) 55.2 5.392 5.723
7020.5 1.53600 5.77(13) 55.4 5.392 5.682
7024.0 1.53676 5.76(13) 55.4 5.392 5.648
7027.5 1.53753 5.70(13) 55.9 5.392 5.620
7031.0 1.53830 5.81(14) 54.8 5.392 5.597
7034.5 1.53907 5.64(13) 56.3 5.391 5.578
7038.1 1.53984 5.56(13) 57.0 5.391 5.563
7041.6 1.54061 5.39(13) 58.8 5.391 5.550
7045.1 1.54138 5.59(13) 56.6 5.391 5.541
7048.6 1.54215 5.50(13) 57.4 5.391 5.535
7052.2 1.54293 5.50(13) 57.3 5.391 5.529
7055.7 1.54370 5.53(13) 56.9 5.390 5.524
7059.2 1.54447 5.57(13) 56.4 5.390 5.521
7062.7 1.54524 5.68(13) 55.2 5.390 5.520
7066.3 1.54601 5.73(14) 54.7 5.390 5.519
7069.8 1.54679 5.72(14) 54.7 5.390 5.520
7073.3 1.54757 5.45(13) 57.3 5.390 5.521
7076.9 1.54834 5.31(13) 58.8 5.389 5.523
7080.4 1.54911 5.51(13) 56.5 5.389 5.526
7083.9 1.54989 5.51(13) 56.5 5.389 5.530
7087.5 1.55067 5.55(13) 55.9 5.389 5.534
7091.0 1.55144 5.74(14) 54.1 5.389 5.539
7094.6 1.55221 5.58(13) 55.5 5.389 5.545
7098.1 1.55299 5.43(13) 57.0 5.388 5.552
7101.7 1.55377 5.68(14) 54.3 5.388 5.560
7105.2 1.55455 5.64(14) 54.7 5.388 5.568
7108.8 1.55533 5.48(13) 56.2 5.388 5.578
7112.3 1.55611 5.36(13) 57.3 5.388 5.589
7115.9 1.55688 5.53(13) 55.6 5.388 5.601
7119.4 1.55766 5.60(14) 54.7 5.387 5.614
7123.0 1.55844 5.45(13) 56.2 5.387 5.630
7126.6 1.55922 5.38(13) 56.8 5.387 5.646
7130.1 1.56000 5.62(14) 54.3 5.387 5.665
7133.7 1.56078 5.62(14) 54.3 5.387 5.687
7137.3 1.56156 5.75(14) 52.9 5.387 5.711
7140.8 1.56235 5.70(14) 53.3 5.386 5.740
7144.4 1.56313 5.58(14) 54.4 5.386 5.773
7148.0 1.56391 5.69(14) 53.3 5.386 5.813
7151.6 1.56469 5.64(14) 53.6 5.386 5.864
7155.1 1.56547 5.87(14) 51.4 5.386 5.932
7158.7 1.56625 6.01(14) 50.2 5.386 6.028
7162.3 1.56704 6.12(14) 49.2 5.385 6.172
7165.9 1.56783 6.35(15) 47.3 5.385 6.392
7169.4 1.56861 6.48(15) 46.3 5.385 6.736
7173.0 1.56940 6.82(15) 43.9 5.385 7.268
7176.6 1.57018 7.66(16) 39.1 5.385 8.070
7180.2 1.57097 9.06(17) 32.96 5.385 9.231
7183.8 1.57175 10.57(19) 28.21 5.384 10.849
7187.4 1.57254 13.06(21) 22.78 5.384 13.010
7191.0 1.57332 15.93(23) 18.63 5.384 15.742
7194.6 1.57411 19.29(26) 15.35 5.384 19.008
7198.2 1.57490 22.95(28) 12.87 5.384 22.701
7201.8 1.57569 26.24(30) 11.23 5.384 26.586
7205.4 1.57648 29.32(32) 10.02 5.383 30.333
7209.0 1.57726 32.49(33) 9.02 5.383 33.599
7212.6 1.57806 34.94(35) 8.37 5.383 36.002
7216.2 1.57884 35.89(35) 8.14 5.383 37.284
7219.8 1.57963 35.61(35) 8.19 5.383 37.383
7223.4 1.58043 35.55(35) 8.19 5.383 36.391
7227.0 1.58121 33.82(34) 8.60 5.382 34.528
7230.6 1.58201 31.71(33) 9.17 5.382 32.051
7234.3 1.58280 28.94(32) 10.04 5.382 29.239
7237.9 1.58359 25.90(30) 11.21 5.382 26.343
7241.5 1.58438 23.43(28) 12.38 5.382 23.529
7245.1 1.58517 20.80(27) 13.93 5.382 20.908
7248.7 1.58597 18.12(25) 15.98 5.381 18.558
7252.3 1.58676 16.04(24) 18.04 5.381 16.505
7256.0 1.58756 14.52(22) 19.91 5.381 14.741
7259.6 1.58835 13.00(21) 22.21 5.381 13.244
7263.2 1.58914 11.88(20) 24.29 5.381 11.980
7266.9 1.58994 10.75(19) 26.79 5.380 10.923
7270.5 1.59074 10.08(19) 28.55 5.380 10.044
7274.1 1.59153 9.38(18) 30.61 5.380 9.308
7277.8 1.59233 8.93(18) 32.12 5.380 8.695
7281.4 1.59313 8.40(17) 34.09 5.380 8.184
7285.1 1.59393 8.22(17) 34.81 5.380 7.760
7288.7 1.59472 7.89(17) 36.2 5.379 7.406
7292.3 1.59552 7.81(17) 36.5 5.379 7.113
7296.0 1.59631 7.66(16) 37.2 5.379 6.871
7299.6 1.59712 7.39(16) 38.5 5.379 6.673
7303.3 1.59792 6.99(16) 40.6 5.379 6.515
7306.9 1.59872 6.95(16) 40.8 5.379 6.395
7310.6 1.59952 6.75(15) 42.0 5.378 6.313
7314.3 1.60032 6.69(15) 42.3 5.378 6.272
7317.9 1.60112 6.86(16) 41.2 5.378 6.275
7321.6 1.60192 6.73(15) 41.9 5.378 6.325
7325.2 1.60272 6.80(16) 41.4 5.378 6.426
7328.9 1.60352 7.16(16) 39.3 5.378 6.576
7332.5 1.60432 7.23(16) 38.8 5.377 6.770
7336.2 1.60513 7.49(16) 37.4 5.377 6.997
7339.9 1.60593 7.61(16) 36.8 5.377 7.237
7343.6 1.60674 7.64(17) 36.6 5.377 7.465
7347.2 1.60754 7.72(17) 36.2 5.377 7.655
7350.9 1.60834 7.99(17) 34.87 5.376 7.782
7354.6 1.60915 7.96(17) 34.96 5.376 7.829
7358.3 1.60995 7.91(17) 35.1 5.376 7.795
7361.9 1.61076 8.09(17) 34.28 5.376 7.691
7365.6 1.61156 7.97(17) 34.72 5.376 7.532
7369.3 1.61237 7.55(17) 36.6 5.376 7.336
7373.0 1.61318 7.29(16) 37.8 5.375 7.124
7376.7 1.61398 6.88(16) 40.1 5.375 6.910
7380.3 1.61479 6.81(16) 40.4 5.375 6.706
7384.0 1.61560 6.81(16) 40.3 5.375 6.519
7387.7 1.61641 6.69(16) 41.0 5.375 6.352
7391.4 1.61722 6.45(15) 42.5 5.374 6.207
7395.1 1.61803 6.25(15) 43.7 5.374 6.083
7398.8 1.61883 6.05(15) 45.2 5.374 5.978
7402.5 1.61965 5.96(15) 45.8 5.374 5.890
7406.2 1.62046 5.93(15) 45.9 5.374 5.816
7409.9 1.62126 5.92(15) 46.0 5.374 5.754
7413.6 1.62208 5.78(15) 47.0 5.373 5.702
7417.3 1.62289 5.71(15) 47.5 5.373 5.658
7421.0 1.62370 5.64(14) 48.0 5.373 5.622
7424.8 1.62451 5.73(15) 47.2 5.373 5.591
7428.5 1.62533 5.67(14) 47.6 5.373 5.565
7432.2 1.62614 5.69(15) 47.4 5.373 5.544
7435.9 1.62696 5.65(14) 47.6 5.372 5.525
7439.6 1.62777 5.42(14) 49.6 5.372 5.510
7443.3 1.62859 5.46(14) 49.2 5.372 5.497
7447.1 1.62940 5.54(14) 48.4 5.372 5.487
7450.8 1.63021 5.36(14) 49.9 5.372 5.479
7454.5 1.63103 5.44(14) 49.1 5.371 5.473
7458.2 1.63184 5.57(14) 47.9 5.371 5.469
7462.0 1.63266 5.59(14) 47.6 5.371 5.468
7465.7 1.63348 5.44(14) 48.9 5.371 5.470
7469.4 1.63430 5.48(14) 48.5 5.371 5.474
7473.2 1.63511 5.41(14) 49.0 5.370 5.482
7476.9 1.63594 5.60(15) 47.2 5.370 5.493
7480.6 1.63675 5.64(15) 46.9 5.370 5.506
7484.4 1.63757 5.42(14) 48.7 5.370 5.519
7488.1 1.63839 5.33(14) 49.5 5.370 5.533
7491.9 1.63921 5.36(14) 49.1 5.370 5.544
7495.6 1.64003 5.32(14) 49.4 5.369 5.552
7499.3 1.64085 5.52(15) 47.6 5.369 5.555
7503.1 1.64167 5.48(14) 47.8 5.369 5.553
7506.8 1.64249 5.56(15) 47.1 5.369 5.546
7510.6 1.64331 5.56(15) 47.0 5.369 5.536
7514.4 1.64414 5.51(15) 47.4 5.368 5.495
7518.1 1.64496 5.38(14) 48.4 5.368 5.482
7521.9 1.64578 5.44(14) 47.8 5.368 5.469
7525.7 1.64661 5.57(15) 46.6 5.368 5.456
7529.4 1.64743 5.60(15) 46.3 5.368 5.445
7533.2 1.64825 5.29(14) 48.9 5.367 5.434
7536.9 1.64908 5.31(14) 48.7 5.367 5.425
7540.7 1.64991 5.31(14) 48.7 5.367 5.418
7544.5 1.65073 5.43(15) 47.5 5.367 5.411
7548.3 1.65156 5.45(15) 47.3 5.367 5.406
7552.0 1.65239 5.41(15) 47.5 5.367 5.401
7555.8 1.65321 5.38(14) 47.7 5.366 5.398
7559.6 1.65404 5.33(14) 48.0 5.366 5.395
7563.3 1.65486 5.38(14) 47.6 5.366 5.393
7567.1 1.65569 5.57(15) 45.9 5.366 5.391
7570.9 1.65652 5.37(15) 47.5 5.366 5.390
7574.7 1.65735 5.18(14) 49.1 5.365 5.389
7578.5 1.65818 5.40(15) 47.1 5.365 5.389
7582.3 1.65901 5.40(15) 47.0 5.365 5.389
7586.1 1.65984 5.27(14) 48.1 5.365 5.389
7589.9 1.66067 5.35(15) 47.4 5.365 5.391
7593.7 1.66150 5.40(15) 46.8 5.364 5.394
7597.5 1.66234 5.43(15) 46.5 5.364 5.398
7601.3 1.66316 5.30(14) 47.6 5.364 5.406
7605.1 1.66400 5.43(15) 46.4 5.364 5.418
7608.8 1.66483 5.40(15) 46.5 5.364 5.438
7612.7 1.66566 5.43(15) 46.2 5.363 5.467
7616.5 1.66650 5.57(15) 45.0 5.363 5.509
7620.3 1.66733 5.62(15) 44.5 5.363 5.567
7624.1 1.66817 5.56(15) 45.0 5.363 5.644
7627.9 1.66900 5.74(15) 43.5 5.363 5.739
7631.7 1.66984 5.70(15) 43.7 5.362 5.850
7635.5 1.67067 5.83(15) 42.7 5.362 5.973
7639.3 1.67151 5.93(15) 41.9 5.362 6.100
7643.2 1.67234 6.10(16) 40.6 5.362 6.219
7647.0 1.67318 6.19(16) 40.0 5.362 6.318
7650.8 1.67402 6.24(16) 39.6 5.361 6.383
7654.6 1.67485 6.23(16) 39.7 5.361 6.413
7658.5 1.67569 6.34(16) 38.9 5.361 6.403
7662.3 1.67653 6.34(16) 38.8 5.361 6.359
7666.1 1.67737 6.30(16) 39.0 5.361 6.289
7670.0 1.67821 6.14(16) 40.0 5.360 6.201
7673.8 1.67905 6.21(16) 39.4 5.360 6.106
7677.6 1.67989 5.87(15) 41.7 5.360 6.008
7681.5 1.68073 5.97(16) 41.0 5.360 5.916
7685.3 1.68157 5.96(16) 41.0 5.360 5.833
7689.2 1.68241 5.88(16) 41.5 5.359 5.758
7693.0 1.68326 5.65(15) 43.1 5.359 5.693
7696.8 1.68410 5.76(15) 42.2 5.359 5.638
7700.7 1.68494 5.68(15) 42.7 5.359 5.591
7704.5 1.68578 5.90(16) 41.1 5.359 5.553
7708.4 1.68663 5.63(15) 43.0 5.358 5.521
7712.3 1.68747 5.39(15) 44.9 5.358 5.494
7716.1 1.68831 5.44(15) 44.4 5.358 5.472
7720.0 1.68916 5.60(15) 43.0 5.358 5.454
7723.8 1.69000 5.67(15) 42.5 5.358 5.439
7727.7 1.69085 5.52(15) 43.5 5.357 5.426
7731.6 1.69170 5.49(15) 43.7 5.357 5.416
7735.4 1.69254 5.26(15) 45.6 5.357 5.407
7739.3 1.69339 5.18(15) 46.2 5.357 5.400
7743.2 1.69424 5.34(15) 44.7 5.357 5.394
7747.0 1.69509 5.49(15) 43.5 5.356 5.389
7750.9 1.69594 5.20(15) 45.8 5.356 5.385
7754.8 1.69679 5.22(15) 45.6 5.356 5.381
7758.7 1.69763 5.36(15) 44.3 5.356 5.378
7762.5 1.69848 5.26(15) 45.1 5.355 5.376
7766.4 1.69933 5.25(15) 45.1 5.355 5.374
7770.3 1.70018 5.48(15) 43.2 5.355 5.372
7774.2 1.70104 5.34(15) 44.3 5.355 5.370
7778.1 1.70188 5.09(15) 46.3 5.355 5.369
7782.0 1.70274 5.21(15) 45.2 5.354 5.368
7785.8 1.70359 5.29(15) 44.4 5.354 5.367
7789.8 1.70444 5.28(15) 44.5 5.354 5.366
7793.6 1.70529 5.15(15) 45.6 5.354 5.365
7797.5 1.70615 5.22(15) 44.9 5.354 5.365
7801.4 1.70700 5.18(15) 45.2 5.353 5.364
7805.3 1.70786 5.24(15) 44.6 5.353 5.364
7809.2 1.70871 5.21(15) 44.8 5.353 5.363
7813.1 1.70956 5.06(15) 46.1 5.353 5.363
7817.0 1.71042 5.09(15) 45.7 5.353 5.363
7820.9 1.71127 5.14(15) 45.2 5.352 5.362
7824.9 1.71213 5.27(15) 44.0 5.352 5.362
7828.8 1.71299 5.41(15) 42.8 5.352 5.362
7832.7 1.71385 5.20(15) 44.5 5.352 5.362
7836.6 1.71470 4.97(15) 46.5 5.351 5.362
7840.5 1.71556 4.99(15) 46.3 5.351 5.362
7844.4 1.71642 5.06(15) 45.5 5.351 5.362
7848.4 1.71728 5.35(15) 43.0 5.351 5.362
7852.3 1.71814 5.46(15) 42.1 5.351 5.362
7856.2 1.71900 5.57(16) 41.2 5.350 5.362
7860.2 1.71986 5.58(16) 41.1 5.350 5.362
7864.1 1.72072 5.41(15) 42.3 5.350 5.363
7868.0 1.72158 5.31(15) 43.0 5.350 5.363
7871.9 1.72244 5.18(15) 44.0 5.349 5.363
7875.9 1.72330 5.31(15) 42.9 5.349 5.364
7879.8 1.72417 5.21(15) 43.6 5.349 5.364
7883.8 1.72503 5.38(15) 42.2 5.349 5.365
7887.7 1.72589 5.35(15) 42.4 5.349 5.366
7891.7 1.72676 5.39(15) 42.1 5.348 5.367
7895.6 1.72762 5.15(15) 44.0 5.348 5.367
7899.5 1.72848 5.30(15) 42.6 5.348 5.369
7903.5 1.72935 5.11(15) 44.2 5.348 5.370
7907.4 1.73022 5.34(15) 42.2 5.347 5.371
7911.4 1.73108 5.36(15) 42.0 5.347 5.373
7915.3 1.73195 5.33(15) 42.1 5.347 5.375
7919.3 1.73282 5.28(15) 42.5 5.347 5.378
7923.3 1.73368 5.36(15) 41.8 5.346 5.382
7927.2 1.73455 5.27(15) 42.5 5.346 5.387
7931.2 1.73542 5.28(15) 42.4 5.346 5.394
7935.2 1.73629 5.34(15) 41.8 5.346 5.405
7939.1 1.73715 5.25(15) 42.5 5.346 5.423
7943.1 1.73802 5.16(15) 43.1 5.345 5.450
7947.1 1.73889 5.29(15) 42.1 5.345 5.492
7951.0 1.73976 5.43(16) 40.8 5.345 5.553
7955.0 1.74063 5.60(16) 39.6 5.345 5.642
7959.0 1.74151 5.64(16) 39.2 5.344 5.765
7963.0 1.74238 5.72(16) 38.7 5.344 5.924
7966.9 1.74325 5.94(16) 37.1 5.344 6.122
7970.9 1.74412 6.14(17) 35.9 5.344 6.353
7974.9 1.74499 6.46(17) 34.07 5.343 6.606
7978.9 1.74587 6.36(17) 34.58 5.343 6.866
7982.9 1.74674 6.55(17) 33.50 5.343 7.108
7986.9 1.74761 6.98(18) 31.42 5.343 7.306
7990.9 1.74849 7.20(18) 30.41 5.343 7.440
7994.9 1.74936 7.05(18) 31.00 5.342 7.494
7998.9 1.75024 7.08(18) 30.84 5.342 7.469
8002.9 1.75112 6.93(18) 31.45 5.342 7.373
8006.9 1.75199 6.94(18) 31.39 5.342 7.225
8010.9 1.75287 6.90(18) 31.49 5.341 7.042
8014.9 1.75374 6.94(18) 31.27 5.341 6.842
8018.9 1.75462 6.66(18) 32.57 5.341 6.641
8022.9 1.75550 6.45(17) 33.59 5.341 6.450
8026.9 1.75638 6.22(17) 34.78 5.340 6.276
8030.9 1.75726 6.09(17) 35.4 5.340 6.123
8034.9 1.75814 6.03(17) 35.8 5.340 5.991
8039.0 1.75902 5.91(17) 36.5 5.340 5.880
8043.0 1.75990 5.69(16) 37.8 5.339 5.787
8047.0 1.76078 5.56(16) 38.6 5.339 5.709
8051.0 1.76166 5.59(16) 38.4 5.339 5.646
8055.1 1.76254 5.26(16) 40.7 5.339 5.594
8059.1 1.76342 5.28(16) 40.5 5.338 5.551
8063.1 1.76430 5.43(16) 39.3 5.338 5.515
8067.1 1.76519 5.59(16) 38.2 5.338 5.486
8071.2 1.76607 5.37(16) 39.6 5.338 5.462
8075.2 1.76696 5.33(16) 39.9 5.337 5.443
8079.3 1.76784 5.51(16) 38.5 5.337 5.426
8083.3 1.76872 5.40(16) 39.3 5.337 5.413
8087.3 1.76961 5.44(16) 38.9 5.337 5.402
8091.4 1.77050 5.52(16) 38.3 5.336 5.393
8095.4 1.77138 5.36(16) 39.4 5.336 5.385
8099.5 1.77227 5.38(16) 39.2 5.336 5.379
8103.5 1.77315 5.37(16) 39.2 5.336 5.374
8107.6 1.77404 5.39(16) 39.0 5.335 5.369
8111.6 1.77493 5.37(16) 39.1 5.335 5.366
8115.7 1.77582 5.47(16) 38.3 5.335 5.363
8119.7 1.77670 5.31(16) 39.4 5.335 5.361
8123.8 1.77759 5.04(16) 41.5 5.334 5.360
8127.8 1.77848 5.30(16) 39.4 5.334 5.359
8131.9 1.77937 5.25(16) 39.7 5.334 5.360
8136.0 1.78026 5.25(16) 39.7 5.334 5.363
8140.1 1.78116 5.24(16) 39.7 5.333 5.368
8144.1 1.78205 5.27(16) 39.4 5.333 5.376
8148.2 1.78294 5.31(16) 39.1 5.333 5.387
8152.3 1.78384 5.28(16) 39.2 5.333 5.402
8156.3 1.78472 5.32(16) 38.9 5.332 5.420
8160.4 1.78561 5.23(16) 39.5 5.332 5.440
8164.5 1.78651 5.32(16) 38.7 5.332 5.462
8168.6 1.78741 5.37(16) 38.4 5.332 5.483
8172.7 1.78830 5.46(16) 37.6 5.331 5.502
8176.8 1.78919 5.38(16) 38.2 5.331 5.516
8180.8 1.79009 5.38(16) 38.1 5.331 5.523
8184.9 1.79099 5.29(16) 38.7 5.331 5.523
8189.0 1.79188 5.40(16) 37.9 5.330 5.517
8193.1 1.79278 5.42(16) 37.7 5.330 5.506
8197.2 1.79368 5.54(16) 36.8 5.330 5.490
8201.3 1.79457 5.52(16) 36.8 5.330 5.473
8205.4 1.79547 5.29(16) 38.4 5.329 5.455
8209.5 1.79637 5.10(16) 39.8 5.329 5.437
8213.6 1.79727 5.13(16) 39.5 5.329 5.421
8217.7 1.79817 5.24(16) 38.6 5.328 5.406
8221.8 1.79907 5.34(16) 37.8 5.328 5.393
8225.9 1.79997 5.32(16) 37.9 5.328 5.382
8230.1 1.80087 5.18(16) 38.9 5.328 5.373
8234.2 1.80177 5.20(16) 38.7 5.327 5.365
8238.3 1.80267 5.04(16) 39.8 5.327 5.359
8242.4 1.80357 5.28(16) 38.0 5.327 5.354
8246.5 1.80448 5.52(17) 36.3 5.327 5.349
8250.7 1.80538 5.61(17) 35.6 5.326 5.346
8254.8 1.80628 5.40(16) 37.0 5.326 5.351
8258.9 1.80719 5.41(16) 36.8 5.326 5.348
8263.0 1.80809 5.42(17) 36.7 5.326 5.346
8267.2 1.80900 5.30(16) 37.5 5.325 5.345
8271.3 1.80990 5.14(16) 38.6 5.325 5.343
8275.4 1.81081 5.07(16) 39.1 5.325 5.342
8279.6 1.81172 5.23(16) 37.8 5.324 5.341
8283.7 1.81262 5.28(16) 37.4 5.324 5.341
8287.9 1.81353 5.25(16) 37.5 5.324 5.340
8292.0 1.81443 5.10(16) 38.6 5.324 5.339
8296.2 1.81534 4.95(16) 39.7 5.323 5.339
8300.3 1.81625 5.16(16) 38.0 5.323 5.338
8304.4 1.81716 5.03(16) 39.0 5.323 5.338
8308.6 1.81807 5.16(16) 37.9 5.323 5.338
8312.8 1.81898 5.12(16) 38.2 5.322 5.338
8316.9 1.81989 5.08(16) 38.4 5.322 5.337
8321.1 1.82080 5.34(17) 36.4 5.322 5.337
8325.2 1.82171 5.40(17) 36.0 5.321 5.337
8329.4 1.82263 5.37(17) 36.1 5.321 5.335
8333.6 1.82354 5.14(16) 37.7 5.321 5.335
8337.7 1.82445 5.15(16) 37.6 5.321 5.335
8341.9 1.82536 5.25(16) 36.8 5.320 5.336
8346.1 1.82627 5.13(16) 37.6 5.320 5.336
8350.3 1.82719 5.09(16) 37.8 5.320 5.336
8354.4 1.82810 5.30(17) 36.3 5.319 5.336
8358.6 1.82902 5.22(16) 36.8 5.319 5.336
8362.8 1.82994 5.12(16) 37.4 5.319 5.337
8366.9 1.83085 5.16(16) 37.1 5.319 5.337
8371.1 1.83176 5.38(17) 35.5 5.318 5.337
8375.3 1.83268 5.24(17) 36.4 5.318 5.338
8379.5 1.83360 5.15(16) 37.0 5.318 5.338
8383.7 1.83451 5.28(17) 36.0 5.317 5.338
8387.9 1.83543 5.34(17) 35.5 5.317 5.339
8392.1 1.83636 5.38(17) 35.2 5.317 5.339
8396.3 1.83727 5.37(17) 35.2 5.317 5.340
8400.5 1.83819 5.33(17) 35.5 5.316 5.340
8404.7 1.83911 5.35(17) 35.2 5.316 5.341
8408.9 1.84003 5.31(17) 35.5 5.316 5.342
8413.1 1.84095 5.24(17) 35.9 5.315 5.343
8417.3 1.84187 5.37(17) 34.93 5.315 5.343
8421.5 1.84280 5.51(17) 33.99 5.315 5.344
8425.7 1.84372 5.25(17) 35.6 5.314 5.345
8429.9 1.84464 5.14(17) 36.3 5.314 5.347
8434.1 1.84556 5.19(17) 35.9 5.314 5.348
8438.3 1.84648 5.39(17) 34.51 5.314 5.349
8442.6 1.84741 5.24(17) 35.5 5.313 5.351
8446.8 1.84833 5.11(17) 36.3 5.313 5.352
8451.0 1.84926 5.12(17) 36.1 5.313 5.354
8455.3 1.85019 5.14(17) 36.0 5.312 5.356
8459.5 1.85111 5.03(17) 36.7 5.312 5.358
8463.7 1.85203 5.22(17) 35.3 5.312 5.361
8467.9 1.85297 5.07(17) 36.3 5.311 5.363
8472.2 1.85389 5.09(17) 36.1 5.311 5.366
8476.4 1.85482 5.32(17) 34.47 5.311 5.370
8480.7 1.85575 5.26(17) 34.79 5.311 5.373
8484.9 1.85668 5.37(17) 34.03 5.310 5.377
8489.1 1.85761 5.02(17) 36.3 5.310 5.383
8493.4 1.85854 5.09(17) 35.8 5.310 5.388
8497.6 1.85947 5.38(17) 33.79 5.309 5.393
8501.9 1.86040 5.32(17) 34.14 5.309 5.400
8506.1 1.86133 5.02(17) 36.1 5.309 5.407
8510.4 1.86226 5.35(17) 33.82 5.308 5.416
8514.6 1.86319 5.52(17) 32.69 5.308 5.426
8518.9 1.86412 5.23(17) 34.47 5.308 5.438
8523.1 1.86505 5.20(17) 34.59 5.308 5.453
8527.4 1.86599 5.18(17) 34.67 5.307 5.473
8531.7 1.86692 5.36(17) 33.46 5.307 5.502
8535.9 1.86786 5.55(18) 32.27 5.307 5.545
8540.2 1.86879 5.55(18) 32.19 5.306 5.610
8544.5 1.86973 5.49(18) 32.49 5.306 5.712
8548.8 1.87066 5.82(18) 30.62 5.306 5.869
8553.0 1.87160 5.87(18) 30.28 5.305 6.104
8557.3 1.87253 6.30(19) 28.19 5.305 6.446
8561.6 1.87347 6.69(19) 26.48 5.305 6.923
8565.8 1.87441 7.52(21) 23.52 5.304 7.558
8570.1 1.87535 8.32(22) 21.23 5.304 8.362
8574.4 1.87628 9.23(23) 19.08 5.304 9.330
8578.7 1.87723 10.05(24) 17.50 5.303 10.424
8583.0 1.87817 10.95(25) 16.03 5.303 11.576
8587.3 1.87910 12.69(27) 13.81 5.303 12.704
8591.6 1.88005 13.74(28) 12.73 5.302 13.694
8595.9 1.88099 14.17(28) 12.32 5.302 14.433
8600.2 1.88193 14.47(29) 12.05 5.302 14.841
8604.5 1.88287 14.04(28) 12.40 5.302 14.885
8608.8 1.88381 13.89(28) 12.50 5.301 14.587
8613.1 1.88476 13.47(28) 12.88 5.301 14.012
8617.4 1.88569 12.88(27) 13.44 5.301 13.240
8621.7 1.88664 12.40(27) 13.94 5.300 12.355
8626.0 1.88758 11.24(26) 15.36 5.300 11.433
8630.3 1.88853 10.21(24) 16.87 5.300 10.537
8634.6 1.88947 9.48(23) 18.14 5.299 9.706
8639.0 1.89042 8.40(22) 20.45 5.299 8.966
8643.3 1.89137 8.05(22) 21.30 5.299 8.329
8647.6 1.89231 7.66(21) 22.34 5.298 7.790
8651.9 1.89326 7.08(20) 24.12 5.298 7.341
8656.3 1.89421 6.73(20) 25.35 5.298 6.972
8660.6 1.89515 6.57(20) 25.90 5.297 6.670
8664.9 1.89610 6.46(19) 26.32 5.297 6.424
8669.3 1.89706 6.22(19) 27.28 5.297 6.225
8673.6 1.89800 6.06(19) 27.92 5.296 6.064
8677.9 1.89895 5.86(19) 28.86 5.296 5.933
8682.3 1.89990 5.92(19) 28.50 5.296 5.826
8686.6 1.90085 5.96(19) 28.27 5.295 5.740
8690.9 1.90181 5.81(19) 28.93 5.295 5.669
8695.3 1.90276 5.63(18) 29.81 5.295 5.612
8699.6 1.90371 5.42(18) 30.90 5.294 5.567
8704.0 1.90466 5.53(18) 30.27 5.294 5.528
8708.3 1.90561 5.62(18) 29.71 5.294 5.496
8712.7 1.90657 5.50(18) 30.32 5.293 5.470
8717.0 1.90752 5.30(18) 31.41 5.293 5.449
8721.4 1.90848 5.50(18) 30.22 5.293 5.431
8725.8 1.90943 5.31(18) 31.26 5.292 5.416
8730.1 1.91039 5.46(18) 30.31 5.292 5.403
8734.5 1.91134 5.45(18) 30.35 5.292 5.393
8738.8 1.91230 5.14(18) 32.09 5.291 5.385
8743.2 1.91326 5.36(18) 30.74 5.291 5.377
8747.6 1.91421 5.34(18) 30.78 5.291 5.372
8752.0 1.91517 5.42(18) 30.25 5.290 5.367
8756.3 1.91613 5.55(18) 29.49 5.290 5.363
8760.7 1.91709 5.55(18) 29.45 5.290 5.361
8765.1 1.91805 5.32(18) 30.71 5.289 5.359
8769.5 1.91901 5.10(18) 31.99 5.289 5.360
8773.9 1.91997 5.32(18) 30.57 5.288 5.363
8778.3 1.92093 5.45(18) 29.77 5.288 5.371
8782.7 1.92189 5.44(18) 29.83 5.288 5.383
8787.0 1.92285 5.31(18) 30.50 5.287 5.404
8791.4 1.92382 5.27(18) 30.65 5.287 5.436
8795.8 1.92478 5.55(19) 29.04 5.287 5.481
8800.2 1.92574 5.44(18) 29.60 5.286 5.542
8804.6 1.92671 5.43(18) 29.62 5.286 5.620
8809.0 1.92767 5.31(18) 30.24 5.286 5.713
8813.4 1.92864 5.65(19) 28.34 5.285 5.820
8817.8 1.92960 5.87(19) 27.24 5.285 5.932
8822.3 1.93057 6.03(19) 26.45 5.285 6.042
8826.7 1.93153 6.05(19) 26.32 5.284 6.138
8831.1 1.93250 6.19(20) 25.69 5.284 6.211
8835.5 1.93346 6.07(20) 26.15 5.284 6.250
8839.9 1.93443 6.09(20) 26.02 5.283 6.254
8844.3 1.93540 6.09(20) 26.00 5.283 6.224
8848.8 1.93637 6.08(20) 26.00 5.282 6.166
8853.2 1.93734 5.89(19) 26.76 5.282 6.088
8857.6 1.93831 5.89(19) 26.75 5.282 5.999
8862.0 1.93928 5.76(19) 27.30 5.281 5.907
8866.5 1.94025 5.71(19) 27.48 5.281 5.817
8870.9 1.94122 5.69(19) 27.55 5.281 5.734
8875.3 1.94219 5.72(19) 27.32 5.280 5.660
8879.8 1.94316 5.72(19) 27.30 5.280 5.596
8884.2 1.94413 5.51(19) 28.26 5.280 5.542
8888.7 1.94511 5.38(19) 28.92 5.279 5.497
8893.1 1.94608 5.21(18) 29.81 5.279 5.460
8897.5 1.94705 5.29(18) 29.29 5.279 5.430
8902.0 1.94803 5.32(19) 29.06 5.278 5.406
8906.4 1.94901 5.28(18) 29.24 5.278 5.386
8910.9 1.94998 5.30(19) 29.09 5.277 5.370
8915.3 1.95096 5.03(18) 30.64 5.277 5.357
8919.8 1.95193 5.24(18) 29.35 5.277 5.347
8924.3 1.95291 5.51(19) 27.86 5.276 5.338
8928.7 1.95389 5.44(19) 28.19 5.276 5.331
8933.2 1.95486 5.16(18) 29.65 5.276 5.326
8937.7 1.95584 5.12(18) 29.85 5.275 5.312
8942.1 1.95682 5.16(18) 29.55 5.275 5.308
8946.6 1.95780 5.25(19) 28.99 5.274 5.306
8951.1 1.95878 5.26(19) 28.86 5.274 5.304
8955.5 1.95976 5.61(19) 27.02 5.274 5.302
8960.0 1.96074 5.53(19) 27.36 5.273 5.301
8964.5 1.96172 5.15(18) 29.36 5.273 5.300
8969.0 1.96270 5.05(18) 29.90 5.273 5.300
8973.5 1.96369 5.09(18) 29.61 5.272 5.300
8977.9 1.96467 5.19(19) 28.99 5.272 5.300
8982.4 1.96565 4.97(18) 30.23 5.271 5.438
8986.9 1.96664 5.23(19) 28.65 5.271 5.442
8991.4 1.96762 5.28(19) 28.37 5.271 5.446
8995.9 1.96861 5.41(19) 27.63 5.270 5.451
9000.4 1.96959 5.29(19) 28.20 5.270 5.456
9004.9 1.97057 5.17(19) 28.80 5.270 5.463
9009.4 1.97156 5.36(19) 27.76 5.269 5.470
9013.9 1.97255 5.32(19) 27.89 5.269 5.479
9018.4 1.97354 5.25(19) 28.21 5.268 5.490
9022.9 1.97452 5.45(19) 27.16 5.268 5.504
9027.5 1.97551 5.50(19) 26.86 5.268 5.525
9032.0 1.97650 5.65(20) 26.13 5.267 5.555
9036.5 1.97749 5.91(20) 24.93 5.267 5.600
9041.0 1.97848 5.66(20) 25.96 5.266 5.665
9045.5 1.97947 5.60(20) 26.19 5.266 5.758
9050.0 1.98046 5.39(19) 27.20 5.266 5.886
9054.6 1.98145 5.63(20) 25.96 5.265 6.055
9059.1 1.98244 5.86(20) 24.92 5.265 6.270
9063.6 1.98343 6.17(21) 23.61 5.265 6.528
9068.2 1.98443 6.53(21) 22.30 5.264 6.820
9072.7 1.98542 7.13(22) 20.39 5.264 7.131
9077.2 1.98641 7.37(23) 19.68 5.263 7.439
9081.8 1.98741 7.58(23) 19.10 5.263 7.714
9086.3 1.98840 7.68(23) 18.83 5.263 7.925
9090.8 1.98940 7.50(23) 19.25 5.262 8.052
9095.4 1.99039 7.75(23) 18.59 5.262 8.081
9099.9 1.99139 7.82(23) 18.39 5.261 8.019
9104.5 1.99239 7.74(23) 18.57 5.261 7.880
9109.1 1.99339 7.34(23) 19.54 5.261 7.685
9113.6 1.99438 7.20(22) 19.90 5.260 7.459
9118.2 1.99538 7.00(22) 20.42 5.260 7.221
9122.7 1.99638 6.76(22) 21.12 5.259 6.988
9127.3 1.99738 6.51(21) 21.88 5.259 6.774
9131.8 1.99838 6.41(21) 22.19 5.259 6.585
9136.4 1.99937 6.03(21) 23.57 5.258 6.424
9141.0 2.00037 5.89(20) 24.09 5.258 6.291
9145.6 2.00138 5.64(20) 25.11 5.257 6.183
9150.1 2.00238 5.62(20) 25.15 5.257 6.100
9154.7 2.00338 5.42(20) 26.05 5.257 6.036
9159.3 2.00439 5.65(20) 24.93 5.256 5.989
9163.8 2.00538 5.69(20) 24.72 5.256 5.955
9168.4 2.00639 5.57(20) 25.20 5.255 5.933
9173.0 2.00740 5.36(20) 26.17 5.255 5.921
9177.6 2.00840 5.59(20) 25.06 5.255 5.917
9182.2 2.00940 5.51(20) 25.35 5.254 5.920
9186.8 2.01041 5.40(20) 25.85 5.254 5.928
9191.4 2.01142 5.15(19) 27.04 5.253 5.943
9196.0 2.01242 5.35(20) 25.99 5.253 5.962
9200.6 2.01343 5.50(20) 25.26 5.253 5.985
9205.2 2.01444 5.39(20) 25.71 5.252 6.013
9209.8 2.01545 5.41(20) 25.57 5.252 6.046
9214.4 2.01645 5.49(20) 25.18 5.251 6.082
9219.0 2.01747 5.36(20) 25.77 5.251 6.123
9223.6 2.01847 5.62(20) 24.53 5.250 6.170
9228.2 2.01948 6.00(21) 22.91 5.250 6.222
9232.8 2.02049 5.69(20) 24.12 5.250 6.279
9237.4 2.02150 5.69(20) 24.11 5.249 6.343
9242.1 2.02252 5.48(20) 24.98 5.249 6.414
9246.7 2.02353 5.83(21) 23.45 5.248 6.493
9251.3 2.02454 5.83(21) 23.41 5.248 6.581
9255.9 2.02556 5.78(21) 23.56 5.248 6.680
9260.6 2.02657 5.76(21) 23.60 5.247 6.791
9265.2 2.02758 5.61(20) 24.19 5.247 6.916
9269.8 2.02860 5.71(21) 23.74 5.246 7.060
9274.5 2.02962 5.99(21) 22.59 5.246 7.225
9279.1 2.03063 6.35(22) 21.30 5.245 7.421
9283.7 2.03164 6.51(22) 20.72 5.245 7.660
9288.4 2.03266 6.91(23) 19.49 5.245 7.968
9293.0 2.03368 7.09(23) 18.97 5.244 8.384
9297.7 2.03469 7.26(23) 18.49 5.244 8.981
9302.3 2.03571 8.30(25) 16.16 5.243 9.879
9307.0 2.03673 9.53(27) 14.05 5.243 11.259
9311.6 2.03775 10.97(29) 12.18 5.242 13.386
9316.3 2.03877 13.86(32) 9.62 5.242 16.618
9320.9 2.03979 18.5(4) 7.19 5.24 21.40
9325.6 2.04081 26.6(4) 4.99 5.24 28.21
9330.3 2.04183 36.8(5) 3.60 5.24 37.52
9334.9 2.04285 49.8(6) 2.647 5.24 49.70
9339.6 2.04388 65.2(7) 2.014 5.24 64.81
9344.3 2.04490 83.7(8) 1.564 5.24 82.54
9348.9 2.04593 103.1(9) 1.264 5.24 102.12
9353.6 2.04695 122.5(10) 1.060 5.24 122.31
9358.3 2.04797 138.7(10) 0.933 5.24 141.45
9363.0 2.04900 153.3(11) 0.841 5.24 157.46
9367.6 2.05002 161.5(11) 0.796 5.24 168.58
9372.3 2.05105 165.9(11) 0.773 5.24 173.63
9377.0 2.05207 164.4(11) 0.779 5.24 172.28
9381.7 2.05310 158.4(11) 0.808 5.24 165.18
9386.4 2.05413 147.3(11) 0.869 5.24 153.51
9391.1 2.05516 133.5(10) 0.959 5.24 138.79
9395.8 2.05619 118.3(10) 1.082 5.23 122.57
9400.5 2.05721 101.8(9) 1.258 5.23 106.05
9405.2 2.05825 86.6(8) 1.479 5.23 90.29
9409.9 2.05927 72.7(8) 1.764 5.23 75.94
9414.6 2.06031 59.7(7) 2.147 5.23 63.36
9419.3 2.06134 49.9(6) 2.570 5.23 52.64
9424.0 2.06237 41.2(6) 3.110 5.23 43.68
9428.7 2.06340 34.9(5) 3.67 5.23 36.34
9433.4 2.06444 29.8(5) 4.28 5.23 30.40
9438.2 2.06547 25.1(4) 5.09 5.23 25.62
9442.9 2.06650 21.9(4) 5.83 5.23 21.80
9447.6 2.06754 19.7(4) 6.45 5.23 18.74
9452.3 2.06857 17.4(4) 7.31 5.23 16.30
9457.0 2.06960 15.51(35) 8.19 5.229 14.349
9461.8 2.07064 14.53(34) 8.73 5.229 12.782
9466.5 2.07168 13.51(33) 9.37 5.228 11.525
9471.2 2.07271 12.52(31) 10.10 5.228 10.510
9476.0 2.07375 11.72(30) 10.77 5.227 9.693
9480.7 2.07479 11.16(30) 11.29 5.227 9.031
9485.4 2.07583 10.51(29) 11.97 5.226 8.491
9490.2 2.07687 10.19(28) 12.33 5.226 8.049
9494.9 2.07791 9.75(28) 12.86 5.225 7.686
9499.7 2.07895 9.01(27) 13.89 5.225 7.387
9504.4 2.07999 8.82(27) 14.18 5.225 7.138
9509.2 2.08103 8.69(26) 14.35 5.224 6.930
9513.9 2.08207 8.17(26) 15.25 5.224 6.755
9518.7 2.08311 7.96(25) 15.62 5.223 6.608
9523.4 2.08415 7.68(25) 16.18 5.223 6.481
9528.2 2.08520 7.54(25) 16.44 5.222 6.373
9533.0 2.08624 7.09(24) 17.45 5.222 6.279
9537.8 2.08729 6.86(24) 18.02 5.221 6.198
9542.5 2.08833 6.93(24) 17.80 5.221 6.126
9547.3 2.08937 7.10(24) 17.34 5.220 6.063
9552.1 2.09042 7.09(24) 17.35 5.220 6.007
9556.8 2.09147 6.85(24) 17.90 5.220 5.957
9561.6 2.09251 6.74(23) 18.19 5.219 5.913
9566.4 2.09356 6.51(23) 18.79 5.219 5.872
9571.2 2.09461 6.47(23) 18.89 5.218 5.836
9576.0 2.09566 6.18(23) 19.73 5.218 5.802
9580.8 2.09670 6.53(23) 18.65 5.217 5.772
9585.5 2.09775 6.22(23) 19.52 5.217 5.744
9590.3 2.09881 6.09(22) 19.92 5.216 5.718
9595.1 2.09985 6.26(23) 19.34 5.216 5.694
9599.9 2.10091 6.29(23) 19.23 5.215 5.672
9604.7 2.10195 6.15(23) 19.63 5.215 5.651
9609.5 2.10301 6.04(22) 19.96 5.214 5.632
9614.3 2.10406 5.90(22) 20.40 5.214 5.614
9619.1 2.10511 6.32(23) 18.99 5.214 5.597
9623.9 2.10616 6.27(23) 19.12 5.213 5.583
9628.8 2.10722 6.22(23) 19.22 5.213 5.568
9633.6 2.10827 6.43(23) 18.57 5.212 5.554
9638.4 2.10933 6.23(23) 19.15 5.212 5.540
9643.2 2.11039 6.31(23) 18.86 5.211 5.528
9648.0 2.11144 6.09(23) 19.52 5.211 5.516
9652.8 2.11250 5.90(22) 20.09 5.210 5.505
9657.7 2.11356 5.78(22) 20.50 5.210 5.494
9662.5 2.11461 5.95(22) 19.87 5.209 5.484
9667.3 2.11567 6.01(23) 19.66 5.209 5.474
9672.2 2.11673 5.74(22) 20.54 5.208 5.465
9677.0 2.11779 5.55(22) 21.19 5.208 5.456
9681.8 2.11885 5.79(22) 20.27 5.207 5.448
9686.7 2.11991 5.61(22) 20.91 5.207 5.440
9691.5 2.12097 5.66(22) 20.69 5.207 5.432
9696.4 2.12203 5.41(22) 21.61 5.206 5.425
9701.2 2.12309 5.56(22) 20.99 5.206 5.418
9706.1 2.12416 5.44(22) 21.42 5.205 5.411
9710.9 2.12522 5.34(21) 21.75 5.205 5.405
9715.8 2.12628 5.49(22) 21.14 5.204 5.399
9720.7 2.12735 5.64(22) 20.52 5.204 5.393
9725.5 2.12841 5.50(22) 21.02 5.203 5.387
9730.4 2.12948 5.39(22) 21.42 5.203 5.382
9735.2 2.13054 5.50(22) 20.94 5.202 5.377
9740.1 2.13161 5.49(22) 20.95 5.202 5.372
9745.0 2.13268 5.36(22) 21.41 5.201 5.367
9749.8 2.13374 5.29(21) 21.68 5.201 5.204
9754.7 2.13481 5.21(21) 21.96 5.200 5.203
9759.6 2.13588 5.31(22) 21.49 5.200 5.203
9764.5 2.13695 5.47(22) 20.85 5.199 5.202
9769.3 2.13802 5.56(22) 20.47 5.199 5.202
9774.3 2.13909 5.61(22) 20.24 5.198 5.202
9779.1 2.14016 5.70(22) 19.88 5.198 5.201
9784.0 2.14123 5.25(22) 21.58 5.197 5.201
9788.9 2.14230 5.38(22) 21.01 5.197 5.201
9793.8 2.14338 5.50(22) 20.53 5.196 5.200
9798.7 2.14444 5.52(22) 20.39 5.196 5.200
9803.6 2.14552 5.28(22) 21.29 5.195 5.200
9808.5 2.14659 5.49(22) 20.44 5.195 5.200
9813.4 2.14767 5.71(23) 19.62 5.195 5.199
9818.3 2.14874 5.53(22) 20.23 5.194 5.199
9823.2 2.14982 5.53(22) 20.20 5.194 5.199
9828.1 2.15089 5.47(22) 20.37 5.193 5.199
9833.1 2.15197 5.62(22) 19.79 5.193 5.198
9838.0 2.15305 5.70(23) 19.46 5.192 5.198
9842.9 2.15412 5.57(22) 19.90 5.192 5.198
9847.8 2.15520 5.27(22) 21.01 5.191 5.198
9852.7 2.15628 5.46(22) 20.23 5.191 5.198
9857.7 2.15736 5.46(22) 20.19 5.190 5.198
9862.6 2.15844 5.25(22) 20.97 5.190 5.198
9867.5 2.15952 5.45(22) 20.14 5.189 5.198
9872.4 2.16060 5.22(22) 21.02 5.189 5.198
9877.4 2.16168 5.06(22) 21.62 5.188 5.198
9882.3 2.16276 5.31(22) 20.59 5.188 5.198
9887.3 2.16385 5.09(22) 21.41 5.187 5.198
9892.2 2.16493 5.18(22) 21.02 5.187 5.199
9897.2 2.16601 5.20(22) 20.88 5.186 5.199
9902.1 2.16710 5.34(22) 20.31 5.186 5.200
9907.1 2.16818 5.20(22) 20.81 5.185 5.200
9912.0 2.16927 5.20(22) 20.78 5.185 5.201
9917.0 2.17035 5.17(22) 20.86 5.184 5.202
9921.9 2.17144 5.17(22) 20.82 5.184 5.204
9926.9 2.17252 5.63(23) 19.09 5.183 5.206
9931.8 2.17361 5.60(23) 19.16 5.183 5.209
9936.8 2.17470 5.48(23) 19.53 5.182 5.213
9941.8 2.17579 5.24(22) 20.38 5.182 5.219
9946.8 2.17688 5.47(23) 19.51 5.181 5.229
9951.7 2.17797 5.51(23) 19.34 5.181 5.244
9956.7 2.17905 5.51(23) 19.30 5.180 5.270
9961.7 2.18015 5.21(22) 20.35 5.180 5.306
9966.7 2.18124 5.42(23) 19.54 5.179 5.357
9971.7 2.18233 5.48(23) 19.29 5.179 5.429
9976.6 2.18342 5.62(23) 18.79 5.178 5.524
9981.6 2.18452 5.58(23) 18.88 5.178 5.644
9986.6 2.18561 5.86(24) 17.93 5.177 5.787
9991.6 2.18670 6.00(24) 17.48 5.177 5.948
9996.6 2.18780 6.32(25) 16.58 5.176 6.120
10001.6 2.18889 6.24(24) 16.75 5.176 6.288
10006.6 2.18999 6.18(24) 16.90 5.175 6.436
10011.6 2.19108 6.81(26) 15.30 5.175 6.548
10016.6 2.19218 6.88(26) 15.10 5.174 6.611
10021.6 2.19328 6.80(26) 15.26 5.174 6.619
10026.6 2.19438 6.79(26) 15.26 5.173 6.575
10031.6 2.19547 6.71(25) 15.41 5.173 6.487
10036.7 2.19657 6.76(26) 15.27 5.172 6.368
10041.7 2.19768 6.38(25) 16.15 5.172 6.230
10046.7 2.19877 6.51(25) 15.79 5.171 6.085
10051.7 2.19987 6.32(25) 16.24 5.171 5.944
10056.8 2.20097 6.62(25) 15.47 5.170 5.813
10061.8 2.20208 6.70(26) 15.25 5.170 5.697
10066.8 2.20318 6.54(25) 15.60 5.169 5.598
10071.8 2.20428 6.17(25) 16.49 5.169 5.515
10076.9 2.20538 6.33(25) 16.04 5.168 5.447
10081.9 2.20649 6.00(24) 16.91 5.168 5.391
10086.9 2.20759 5.97(24) 16.95 5.167 5.347
10092.0 2.20870 5.82(24) 17.35 5.167 5.312
10097.0 2.20980 5.62(24) 17.92 5.166 5.284
10102.1 2.21091 5.52(23) 18.22 5.166 5.262
10107.2 2.21202 5.72(24) 17.57 5.165 5.245
10112.2 2.21312 5.59(24) 17.92 5.165 5.231
10117.3 2.21423 5.38(23) 18.59 5.164 5.220
10122.3 2.21534 5.23(23) 19.07 5.164 5.211
10127.4 2.21645 5.50(23) 18.13 5.163 5.204
10132.4 2.21756 5.19(23) 19.18 5.163 5.198
10137.5 2.21866 5.48(23) 18.11 5.162 5.193
10142.6 2.21977 5.55(24) 17.84 5.162 5.189
10147.7 2.22089 5.19(23) 19.04 5.161 5.186
10152.7 2.22200 5.22(23) 18.91 5.161 5.183
10157.8 2.22311 5.14(23) 19.15 5.160 5.181
10162.9 2.22422 5.14(23) 19.12 5.160 5.179
10167.9 2.22533 5.19(23) 18.92 5.159 5.177
10173.0 2.22645 5.19(23) 18.86 5.158 5.176
10178.1 2.22756 5.30(23) 18.43 5.158 5.175
10183.2 2.22868 5.19(23) 18.80 5.157 5.174
10188.3 2.22980 5.30(23) 18.35 5.157 5.173
10193.4 2.23091 5.40(24) 17.98 5.156 5.172
10198.5 2.23203 5.09(23) 19.03 5.156 5.171
10203.6 2.23314 5.04(23) 19.21 5.155 5.170
10208.7 2.23426 5.14(23) 18.77 5.155 5.170
10213.8 2.23538 5.29(23) 18.21 5.154 5.169
10218.9 2.23650 5.14(23) 18.71 5.154 5.169
10224.0 2.23761 5.19(23) 18.51 5.153 5.169
10229.1 2.23874 5.09(23) 18.82 5.153 5.168
10234.3 2.23986 5.01(23) 19.08 5.152 5.168
10239.3 2.24097 4.86(23) 19.62 5.152 5.168
10244.5 2.24210 5.29(24) 18.00 5.151 5.168
10249.6 2.24322 5.48(24) 17.34 5.151 5.168
10254.7 2.24434 5.41(24) 17.53 5.150 5.169
10259.8 2.24547 5.39(24) 17.55 5.150 5.169
10265.0 2.24659 5.26(24) 17.96 5.149 5.169
10270.1 2.24772 5.16(23) 18.26 5.149 5.170
10275.3 2.24884 5.03(23) 18.72 5.148 5.171
10280.4 2.24996 5.48(24) 17.15 5.148 5.172
10285.5 2.25109 5.27(24) 17.78 5.147 5.173
10290.7 2.25222 5.26(24) 17.78 5.147 5.174
10295.8 2.25335 4.97(23) 18.80 5.146 5.176
10301.0 2.25448 5.00(23) 18.64 5.146 5.179
10306.1 2.25560 5.37(24) 17.32 5.145 5.183
10311.3 2.25673 5.43(24) 17.08 5.145 5.189
10316.4 2.25786 5.43(24) 17.06 5.144 5.197
10321.6 2.25899 5.14(24) 17.97 5.143 5.211
10326.8 2.26012 5.12(24) 18.02 5.143 5.232
10331.9 2.26125 5.31(24) 17.34 5.142 5.264
10337.1 2.26238 5.48(24) 16.76 5.142 5.312
10342.3 2.26352 5.63(25) 16.28 5.141 5.381
10347.4 2.26465 5.60(25) 16.34 5.141 5.477
10352.6 2.26578 5.73(25) 15.94 5.140 5.603
10357.8 2.26691 5.50(25) 16.56 5.140 5.763
10362.9 2.26805 5.56(25) 16.36 5.139 5.954
10368.1 2.26919 5.81(25) 15.62 5.139 6.169
10373.3 2.27032 6.33(26) 14.31 5.138 6.397
10378.5 2.27146 6.75(27) 13.40 5.138 6.621
10383.7 2.27260 6.94(28) 13.00 5.137 6.822
10388.9 2.27373 7.05(28) 12.77 5.137 6.972
10394.1 2.27487 7.15(28) 12.57 5.136 7.058
10399.3 2.27601 6.95(28) 12.90 5.136 7.070
10404.5 2.27715 6.78(28) 13.19 5.135 7.013
10409.7 2.27829 7.23(28) 12.35 5.135 6.896
10414.9 2.27943 6.93(28) 12.85 5.134 6.736
10420.1 2.28057 6.68(27) 13.32 5.134 6.551
10425.3 2.28171 6.45(27) 13.76 5.133 6.357
10430.5 2.28285 6.50(27) 13.62 5.132 6.167
10435.7 2.28400 5.73(25) 15.43 5.132 5.991
10440.9 2.28514 5.53(25) 15.97 5.131 5.833
10446.2 2.28628 5.33(25) 16.52 5.131 5.699
10451.4 2.28743 5.34(25) 16.45 5.130 5.587
10456.6 2.28857 5.74(26) 15.28 5.130 5.496
10461.8 2.28972 5.56(25) 15.74 5.129 5.422
10467.1 2.29086 5.25(25) 16.62 5.129 5.364
10472.3 2.29201 5.33(25) 16.34 5.128 5.318
10477.5 2.29316 5.51(25) 15.79 5.128 5.281
10482.8 2.29431 5.46(25) 15.90 5.127 5.253
10488.0 2.29545 5.30(25) 16.34 5.127 5.230
10493.3 2.29660 5.61(25) 15.41 5.126 5.212
10498.5 2.29775 5.45(25) 15.83 5.126 5.198
10503.8 2.29890 5.30(25) 16.24 5.125 5.187
10509.0 2.30005 5.43(25) 15.82 5.125 5.178
10514.3 2.30120 5.37(25) 15.97 5.124 5.171
10519.5 2.30236 5.56(25) 15.39 5.124 5.165
10524.8 2.30351 5.49(25) 15.56 5.123 5.160
10530.0 2.30466 5.38(25) 15.83 5.123 5.157
10535.3 2.30581 5.32(25) 15.98 5.122 5.153
10540.6 2.30696 5.66(26) 15.00 5.121 5.151
10545.8 2.30812 6.13(27) 13.82 5.121 5.148
10551.1 2.30928 5.85(26) 14.46 5.120 5.146
10556.4 2.31043 5.70(26) 14.80 5.120 5.145
10561.7 2.31159 5.80(26) 14.50 5.119 5.143
10566.9 2.31274 5.50(26) 15.28 5.119 5.142
10572.2 2.31390 5.37(25) 15.61 5.118 5.141
10577.5 2.31506 5.27(25) 15.86 5.118 5.140
10582.8 2.31622 5.20(25) 16.06 5.117 5.139
10588.1 2.31738 5.17(25) 16.11 5.117 5.139
10593.4 2.31854 5.47(26) 15.20 5.116 5.138
10598.7 2.31970 5.39(25) 15.39 5.116 5.138
10604.0 2.32086 5.48(26) 15.11 5.115 5.137
10609.3 2.32202 5.29(25) 15.61 5.115 5.137
10614.6 2.32318 4.98(25) 16.55 5.114 5.137
10619.9 2.32435 5.16(25) 15.94 5.114 5.137
10625.2 2.32551 5.34(26) 15.37 5.113 5.137
10630.5 2.32667 5.06(25) 16.20 5.113 5.137
10635.8 2.32784 4.99(25) 16.39 5.112 5.137
10641.2 2.32900 4.94(25) 16.54 5.111 5.137
10646.5 2.33017 5.28(25) 15.44 5.111 5.138
10651.8 2.33134 5.49(26) 14.81 5.110 5.138
10657.1 2.33250 5.31(26) 15.29 5.110 5.139
10662.5 2.33367 5.40(26) 15.00 5.109 5.140
10667.8 2.33484 5.46(26) 14.81 5.109 5.141
10673.1 2.33601 5.17(25) 15.61 5.108 5.142
10678.5 2.33718 5.13(25) 15.70 5.108 5.144
10683.8 2.33835 5.13(25) 15.66 5.107 5.146
10689.1 2.33951 5.09(25) 15.75 5.107 5.148
10694.5 2.34068 5.20(26) 15.37 5.106 5.150
10699.8 2.34186 5.11(25) 15.63 5.106 5.153
10705.2 2.34303 5.07(25) 15.72 5.105 5.156
10710.5 2.34420 5.17(25) 15.39 5.105 5.160
10715.9 2.34537 5.08(25) 15.62 5.104 5.165
10721.3 2.34655 5.07(25) 15.63 5.104 5.172
10726.6 2.34772 5.29(26) 14.94 5.103 5.181
10732.0 2.34890 4.93(25) 15.98 5.103 5.194
10737.3 2.35008 4.77(25) 16.49 5.102 5.213
10742.7 2.35125 5.29(26) 14.84 5.101 5.243
10748.1 2.35242 5.08(25) 15.42 5.101 5.289
10753.4 2.35360 5.28(26) 14.82 5.100 5.359
10758.8 2.35478 5.24(26) 14.88 5.100 5.463
10764.2 2.35596 5.61(27) 13.88 5.099 5.611
10769.6 2.35714 5.73(27) 13.58 5.099 5.814
10775.0 2.35832 5.99(28) 12.96 5.098 6.080
10780.4 2.35950 6.34(29) 12.21 5.098 6.414
10785.8 2.36068 6.83(30) 11.31 5.097 6.811
10791.2 2.36187 7.23(31) 10.67 5.097 7.256
10796.5 2.36304 7.89(32) 9.76 5.096 7.725
10801.9 2.36423 8.50(33) 9.04 5.096 8.183
10807.3 2.36541 8.60(33) 8.92 5.095 8.586
10812.8 2.36660 8.66(34) 8.84 5.095 8.913
10818.2 2.36778 8.95(34) 8.54 5.094 9.080
10823.6 2.36897 9.16(35) 8.32 5.094 9.098
10829.0 2.37015 8.81(34) 8.63 5.093 8.973
10834.4 2.37133 8.56(34) 8.87 5.093 8.726
10839.8 2.37253 8.54(34) 8.87 5.092 8.392
10845.2 2.37371 8.44(33) 8.96 5.092 8.008
10850.7 2.37490 7.59(32) 9.94 5.091 7.605
10856.1 2.37609 6.77(30) 11.13 5.090 7.213
10861.5 2.37728 6.49(29) 11.57 5.090 6.849
10866.9 2.37847 6.36(29) 11.78 5.089 6.527
10872.4 2.37966 6.40(29) 11.69 5.089 6.252
10877.8 2.38085 6.32(29) 11.81 5.088 6.024
10883.3 2.38204 5.67(28) 13.14 5.088 5.838
10888.7 2.38323 5.15(26) 14.42 5.087 5.690
10894.1 2.38442 5.26(27) 14.09 5.087 5.574
10899.6 2.38562 5.63(28) 13.16 5.086 5.482
10905.0 2.38681 5.56(27) 13.29 5.086 5.411
10910.5 2.38801 5.42(27) 13.62 5.085 5.356
10915.9 2.38920 5.16(26) 14.27 5.085 5.313
10921.4 2.39039 5.01(26) 14.66 5.084 5.280
10926.8 2.39159 5.30(27) 13.84 5.084 5.254
10932.3 2.39279 5.30(27) 13.80 5.083 5.234
10937.8 2.39399 5.10(26) 14.33 5.083 5.218
10943.3 2.39519 4.98(26) 14.64 5.082 5.205
10948.7 2.39639 4.95(26) 14.69 5.082 5.196
10954.2 2.39758 5.12(27) 14.16 5.081 5.188
10959.7 2.39878 4.91(26) 14.73 5.081 5.182
10965.2 2.39999 5.09(27) 14.20 5.080 5.178
10970.6 2.40119 5.19(27) 13.90 5.080 5.174
10976.1 2.40239 4.94(26) 14.58 5.079 5.171
10981.6 2.40359 5.26(27) 13.65 5.079 5.169
10987.1 2.40479 5.11(27) 14.03 5.078 5.168
10992.6 2.40600 5.31(27) 13.46 5.078 5.167
10998.1 2.40720 5.42(28) 13.18 5.077 5.167
11003.6 2.40841 5.25(27) 13.58 5.077 5.166
11009.1 2.40961 5.27(27) 13.49 5.076 5.167
11014.6 2.41082 5.16(27) 13.74 5.076 5.167
11020.1 2.41202 5.35(27) 13.23 5.075 5.168
11025.6 2.41323 5.37(28) 13.16 5.074 5.170
11031.1 2.41444 5.14(27) 13.72 5.074 5.171
11036.6 2.41565 5.20(27) 13.52 5.073 5.173
11042.2 2.41686 5.16(27) 13.61 5.073 5.175
11047.7 2.41807 4.96(27) 14.13 5.072 5.177
11053.2 2.41927 5.33(28) 13.13 5.072 5.180
11058.7 2.42049 5.59(28) 12.50 5.071 5.183
11064.3 2.42170 5.09(27) 13.69 5.071 5.186
11069.8 2.42291 4.92(27) 14.11 5.070 5.190
11075.3 2.42412 4.93(27) 14.07 5.070 5.194
11080.9 2.42534 4.99(27) 13.87 5.069 5.199
11086.4 2.42655 4.92(27) 14.05 5.069 5.204
11091.9 2.42776 4.78(26) 14.43 5.068 5.209
11097.5 2.42898 4.73(26) 14.54 5.068 5.215
11103.0 2.43020 4.98(27) 13.79 5.067 5.222
11108.6 2.43141 5.47(28) 12.53 5.067 5.229
11114.2 2.43263 5.33(28) 12.84 5.066 5.237
11119.7 2.43384 5.32(28) 12.84 5.066 5.246
11125.3 2.43506 5.28(28) 12.90 5.065 5.256
11130.8 2.43628 5.05(27) 13.45 5.065 5.267
11136.4 2.43750 4.74(26) 14.31 5.064 5.279
11142.0 2.43873 4.89(27) 13.83 5.064 5.292
11147.5 2.43994 5.19(28) 13.01 5.063 5.307
11153.1 2.44116 5.36(28) 12.58 5.063 5.323
11158.7 2.44239 5.37(28) 12.53 5.062 5.342
11164.3 2.44361 5.08(28) 13.22 5.062 5.363
11169.8 2.44483 5.29(28) 12.68 5.061 5.386
11175.4 2.44606 5.21(28) 12.83 5.061 5.413
11181.0 2.44728 5.03(27) 13.27 5.060 5.444
11186.6 2.44850 5.29(28) 12.59 5.060 5.481
11192.2 2.44973 5.62(29) 11.84 5.059 5.526
11197.8 2.45095 5.58(29) 11.88 5.059 5.585
11203.4 2.45219 5.66(29) 11.70 5.058 5.665
11209.0 2.45341 5.44(29) 12.13 5.058 5.778
11214.6 2.45464 5.42(29) 12.15 5.057 5.946
11220.2 2.45587 5.71(29) 11.51 5.057 6.203
11225.8 2.45710 5.86(30) 11.21 5.056 6.592
11231.4 2.45833 6.07(30) 10.79 5.056 7.175
11237.0 2.45955 6.87(32) 9.52 5.055 8.029
11242.7 2.46079 8.3(4) 7.85 5.05 9.23
11248.3 2.46202 10.3(4) 6.32 5.05 10.88
11253.9 2.46325 12.1(4) 5.39 5.05 13.01
11259.5 2.46448 14.5(5) 4.46 5.05 15.66
11265.2 2.46572 18.1(5) 3.58 5.05 18.78
11270.8 2.46695 21.5(6) 3.008 5.05 22.27
11276.4 2.46819 24.7(6) 2.615 5.05 25.90
11282.1 2.46942 28.6(7) 2.250 5.05 29.41
11287.7 2.47066 31.0(7) 2.068 5.05 32.45
11293.3 2.47189 32.5(7) 1.971 5.05 34.70
11299.0 2.47313 32.9(7) 1.943 5.05 35.90
11304.7 2.47437 33.2(7) 1.924 5.05 35.92
11310.3 2.47561 32.7(7) 1.947 5.05 34.84
11316.0 2.47685 31.4(7) 2.027 5.05 32.86
11321.6 2.47809 29.0(7) 2.190 5.05 30.20
11327.3 2.47933 25.6(6) 2.473 5.05 27.17
11332.9 2.48057 22.9(6) 2.764 5.05 24.02
11338.6 2.48181 19.8(6) 3.187 5.05 20.96
11344.3 2.48305 17.2(5) 3.65 5.05 18.14
11349.9 2.48429 15.7(5) 4.01 5.05 15.65
11355.6 2.48554 13.6(5) 4.62 5.05 13.53
11361.3 2.48679 12.1(4) 5.17 5.04 11.78
11367.0 2.48802 11.2(4) 5.56 5.04 10.36
11372.7 2.48927 9.9(4) 6.29 5.04 9.24
11378.3 2.49052 8.8(4) 7.02 5.04 8.35
11384.0 2.49176 8.4(4) 7.41 5.04 7.67
11389.7 2.49301 8.0(4) 7.77 5.04 7.13
11395.4 2.49426 7.39(35) 8.36 5.042 6.724
11401.1 2.49551 7.35(35) 8.39 5.041 6.407
11406.8 2.49675 7.07(34) 8.70 5.041 6.161
11412.5 2.49801 6.49(33) 9.45 5.041 5.969
11418.3 2.49926 6.44(32) 9.51 5.040 5.819
11423.9 2.50051 6.31(32) 9.68 5.040 5.700
11429.7 2.50176 5.92(31) 10.30 5.039 5.606
11435.4 2.50301 5.60(30) 10.87 5.039 5.531
11441.1 2.50427 6.03(32) 10.07 5.038 5.469
11446.8 2.50552 6.07(32) 9.99 5.038 5.420
11452.5 2.50677 5.79(31) 10.44 5.037 5.378
11458.3 2.50802 5.65(31) 10.68 5.037 5.344
11464.0 2.50928 5.81(31) 10.36 5.036 5.315
11469.7 2.51054 5.55(30) 10.83 5.036 5.290
11475.5 2.51180 5.23(30) 11.46 5.035 5.269
11481.2 2.51305 5.25(30) 11.41 5.035 5.251
11486.9 2.51431 5.44(30) 10.98 5.034 5.235
11492.7 2.51557 5.44(30) 10.96 5.034 5.221
11498.4 2.51683 5.06(29) 11.76 5.034 5.208
11504.2 2.51809 5.06(29) 11.73 5.033 5.197
11509.9 2.51935 5.33(30) 11.10 5.033 5.187
11515.7 2.52061 5.22(30) 11.32 5.032 5.177
11521.4 2.52187 4.99(29) 11.82 5.032 5.169
11527.2 2.52313 5.02(29) 11.73 5.031 5.161
11533.0 2.52440 5.25(30) 11.19 5.031 5.154
11538.7 2.52566 5.36(30) 10.93 5.030 5.148
11544.5 2.52692 5.21(30) 11.23 5.030 5.142
11550.3 2.52819 4.88(29) 11.95 5.030 5.136
11556.0 2.52945 5.16(30) 11.29 5.029 5.131
11561.8 2.53072 5.51(31) 10.55 5.029 5.126
11567.6 2.53198 5.29(30) 10.97 5.028 5.121
11573.4 2.53325 4.86(29) 11.92 5.028 5.117
11579.2 2.53452 5.16(30) 11.20 5.027 5.113
11585.0 2.53579 5.23(30) 11.02 5.027 5.109
11590.8 2.53706 4.83(29) 11.91 5.026 5.106
11596.6 2.53833 4.59(28) 12.50 5.026 5.103
11602.3 2.53960 4.81(29) 11.91 5.026 5.099
11608.2 2.54087 5.01(30) 11.40 5.025 5.097
11614.0 2.54215 5.05(30) 11.30 5.025 5.094
11619.8 2.54341 4.98(30) 11.42 5.024 5.091
11625.6 2.54469 5.32(31) 10.69 5.024 5.089
11631.4 2.54596 5.14(30) 11.04 5.023 5.086
11637.2 2.54723 5.00(30) 11.30 5.023 5.084
11643.0 2.54851 5.25(31) 10.75 5.022 5.082
11648.8 2.54979 5.47(31) 10.31 5.022 5.080
11654.7 2.55106 5.58(31) 10.08 5.022 5.078
11660.5 2.55234 5.67(32) 9.89 5.021 5.077
11666.3 2.55361 5.23(31) 10.70 5.021 5.075
11672.2 2.55489 4.89(30) 11.43 5.020 5.073
11678.0 2.55618 5.05(30) 11.05 5.020 5.072
11683.8 2.55746 5.48(31) 10.16 5.019 5.071
11689.7 2.55874 5.19(31) 10.70 5.019 5.070
11695.5 2.56002 5.17(31) 10.71 5.019 5.069
11701.4 2.56130 5.13(30) 10.76 5.018 5.068
11707.2 2.56258 5.34(31) 10.33 5.018 5.067
11713.1 2.56386 5.17(31) 10.64 5.017 5.066
11718.9 2.56515 4.96(30) 11.08 5.017 5.066
11724.8 2.56643 4.93(30) 11.11 5.017 5.066
11730.7 2.56771 5.03(30) 10.87 5.016 5.066
11736.5 2.56899 5.06(30) 10.78 5.016 5.066
11742.4 2.57028 5.50(32) 9.90 5.015 5.067
11748.3 2.57157 5.14(31) 10.57 5.015 5.069
11754.1 2.57286 5.14(31) 10.54 5.014 5.072
11760.0 2.57414 5.09(31) 10.64 5.014 5.077
11765.9 2.57543 5.31(31) 10.18 5.014 5.085
11771.8 2.57672 5.23(31) 10.31 5.013 5.070
11777.7 2.57801 5.06(31) 10.63 5.013 5.090
11783.5 2.57930 4.96(30) 10.82 5.012 5.121
11789.4 2.58059 5.26(31) 10.18 5.012 5.164
11795.3 2.58189 5.43(32) 9.85 5.012 5.223
11801.2 2.58317 5.75(33) 9.27 5.011 5.300
11807.1 2.58447 5.66(33) 9.40 5.011 5.396
11813.0 2.58576 5.51(32) 9.63 5.010 5.510
11818.9 2.58706 5.66(33) 9.36 5.010 5.637
11824.8 2.58835 5.72(33) 9.25 5.010 5.772
11830.8 2.58965 6.17(34) 8.56 5.009 5.905
11836.7 2.59095 6.29(35) 8.38 5.009 6.022
11842.6 2.59224 6.19(34) 8.49 5.008 6.112
11848.5 2.59354 6.06(34) 8.66 5.008 6.163
11854.4 2.59484 5.96(34) 8.77 5.008 6.172
11860.4 2.59614 5.97(34) 8.75 5.007 6.139
11866.3 2.59743 6.06(34) 8.60 5.007 6.070
11872.2 2.59873 5.73(33) 9.08 5.007 5.974
11878.2 2.60003 5.81(33) 8.93 5.006 5.861
11884.1 2.60133 5.79(33) 8.94 5.006 5.741
11890.0 2.60264 5.92(34) 8.72 5.005 5.623
11896.0 2.60394 5.49(33) 9.39 5.005 5.514
11901.9 2.60524 5.26(32) 9.77 5.005 5.417
11907.9 2.60655 5.39(32) 9.51 5.004 5.333
11913.8 2.60785 5.67(33) 9.03 5.004 5.264
11919.8 2.60916 5.66(33) 9.02 5.004 5.208
11925.8 2.61046 5.38(32) 9.48 5.003 5.163
11931.7 2.61177 5.06(32) 10.05 5.003 5.128
11937.7 2.61308 5.01(31) 10.13 5.002 5.101
11943.7 2.61439 5.11(32) 9.91 5.002 5.080
11949.6 2.61569 4.91(31) 10.29 5.002 5.064
11955.6 2.61700 4.83(31) 10.44 5.001 5.052
11961.6 2.61832 4.95(31) 10.17 5.001 5.043
11967.6 2.61962 5.07(32) 9.91 5.001 5.035
11973.6 2.62094 5.35(33) 9.37 5.000 5.029
11979.5 2.62225 5.26(32) 9.51 5.000 5.025
11985.5 2.62356 5.30(33) 9.42 5.000 5.021
11991.5 2.62488 5.43(33) 9.17 4.999 5.018
11997.5 2.62618 5.29(33) 9.38 4.999 5.015
12003.5 2.62750 5.23(32) 9.48 4.998 5.013
12009.5 2.62881 5.57(34) 8.88 4.998 5.011
12015.5 2.63014 5.30(33) 9.31 4.998 5.010
12021.5 2.63145 4.97(32) 9.91 4.997 5.008
12027.5 2.63277 4.83(31) 10.16 4.997 5.007
12033.6 2.63409 4.67(31) 10.50 4.997 5.006
12039.6 2.63540 4.93(32) 9.92 4.996 5.005
12045.6 2.63672 4.95(32) 9.85 4.996 5.004
12051.6 2.63805 4.86(32) 10.01 4.996 5.003
12057.6 2.63936 4.88(32) 9.96 4.995 5.002
12063.7 2.64068 5.08(32) 9.55 4.995 5.002
12069.7 2.64200 4.90(32) 9.87 4.995 5.001
12075.7 2.64333 4.85(32) 9.95 4.994 5.000
12081.8 2.64465 5.23(33) 9.21 4.994 5.000
12087.8 2.64598 5.02(32) 9.58 4.994 4.999
12093.8 2.64730 5.13(33) 9.34 4.993 4.998
12099.9 2.64863 4.97(32) 9.61 4.993 4.998
12105.9 2.64995 4.63(31) 10.30 4.993 4.997
12112.0 2.65128 5.00(32) 9.53 4.992 4.997
12118.1 2.65260 5.01(32) 9.48 4.992 4.996
12124.1 2.65393 4.88(32) 9.72 4.992 4.996
12130.2 2.65526 4.97(32) 9.52 4.991 4.995
12136.3 2.65659 4.88(32) 9.66 4.991 4.995
12142.3 2.65792 4.83(32) 9.76 4.991 4.995
12148.4 2.65925 5.32(34) 8.82 4.990 4.994
12154.5 2.66058 5.70(35) 8.22 4.990 4.994
12160.5 2.66191 6.0(4) 7.83 4.99 4.99
12166.6 2.66325 5.38(34) 8.67 4.990 4.993
12172.7 2.66457 5.26(34) 8.85 4.989 4.993
12178.8 2.66591 5.44(34) 8.55 4.989 4.992
12184.9 2.66724 5.34(34) 8.68 4.989 4.992
12191.0 2.66858 5.50(34) 8.42 4.988 4.992
12197.1 2.66992 5.32(34) 8.68 4.988 4.991
12203.2 2.67125 4.90(33) 9.40 4.988 4.991
12209.3 2.67259 5.03(33) 9.14 4.987 4.991
12215.4 2.67393 4.97(33) 9.22 4.987 4.990
12221.5 2.67526 5.19(34) 8.81 4.987 4.990
12227.6 2.67661 5.54(35) 8.23 4.987 4.990
12233.7 2.67794 5.45(35) 8.35 4.986 4.989
12239.8 2.67928 5.24(34) 8.66 4.986 4.989
12245.9 2.68063 4.30(31) 10.53 4.986 4.989
12252.1 2.68197 4.49(32) 10.07 4.985 4.988
12258.2 2.68331 5.12(34) 8.81 4.985 4.988
12264.3 2.68465 5.01(33) 8.98 4.985 4.988
12270.4 2.68599 5.24(34) 8.56 4.985 4.988
12276.6 2.68734 5.24(34) 8.55 4.984 4.987
12282.7 2.68869 4.67(32) 9.55 4.984 4.987
12288.9 2.69003 5.01(34) 8.90 4.984 4.987
12295.0 2.69138 5.47(35) 8.14 4.983 4.987
12301.2 2.69273 5.27(34) 8.42 4.983 4.987
12307.3 2.69408 5.01(34) 8.83 4.983 4.987
12313.5 2.69542 5.06(34) 8.73 4.983 4.986
12319.6 2.69677 5.05(34) 8.72 4.982 4.985
12325.8 2.69812 5.07(34) 8.67 4.982 4.985
12331.9 2.69947 5.04(34) 8.71 4.982 4.985
12338.1 2.70082 5.06(34) 8.65 4.982 4.985
12344.3 2.70218 5.12(34) 8.52 4.981 4.985
12350.4 2.70353 5.27(35) 8.26 4.981 4.985
12356.6 2.70488 5.4(4) 8.09 4.98 4.99
12362.8 2.70624 5.11(34) 8.49 4.981 4.985
12369.0 2.70759 4.97(34) 8.71 4.980 4.986
12375.2 2.70894 5.3(4) 8.09 4.98 4.99
12381.3 2.71030 5.28(35) 8.15 4.980 4.987
12387.5 2.71165 5.3(4) 8.04 4.98 4.99
12393.8 2.71302 5.24(35) 8.17 4.979 4.989
12399.9 2.71437 5.25(35) 8.14 4.979 4.992
12406.1 2.71573 5.3(4) 8.05 4.98 5.00
12412.3 2.71709 5.11(35) 8.32 4.979 5.001
12418.5 2.71845 4.92(34) 8.63 4.978 5.010
12424.8 2.71981 4.93(34) 8.58 4.978 5.022
12431.0 2.72117 4.69(33) 9.00 4.978 5.039
12437.2 2.72254 5.04(35) 8.36 4.978 5.061
12443.4 2.72390 5.4(4) 7.78 4.98 5.09
12449.6 2.72526 5.02(35) 8.36 4.977 5.121
12455.8 2.72662 5.3(4) 7.83 4.98 5.16
12462.1 2.72799 5.5(4) 7.53 4.98 5.20
12468.3 2.72936 5.7(4) 7.32 4.98 5.24
12474.5 2.73072 5.7(4) 7.32 4.98 5.27
12480.8 2.73209 5.4(4) 7.75 4.98 5.30
12487.0 2.73346 5.2(4) 8.01 4.98 5.32
12493.3 2.73482 5.01(35) 8.24 4.976 5.326
12499.5 2.73619 5.5(4) 7.53 4.98 5.32
12505.8 2.73756 5.5(4) 7.52 4.98 5.30
12512.0 2.73893 5.5(4) 7.47 4.98 5.27
12518.3 2.74030 5.4(4) 7.63 4.97 5.24
12524.5 2.74168 5.6(4) 7.27 4.97 5.20
12530.8 2.74305 5.2(4) 7.76 4.97 5.17
12537.1 2.74442 5.2(4) 7.85 4.97 5.13
12543.3 2.74579 4.81(34) 8.43 4.974 5.104
12549.6 2.74717 5.5(4) 7.38 4.97 5.08
12555.9 2.74855 5.5(4) 7.34 4.97 5.06
12562.2 2.74992 5.3(4) 7.61 4.97 5.04
12568.4 2.75130 5.2(4) 7.69 4.97 5.02
12574.7 2.75268 5.2(4) 7.65 4.97 5.01
12581.0 2.75405 5.2(4) 7.65 4.97 5.00
12587.3 2.75543 4.9(4) 8.07 4.97 5.00
12593.6 2.75681 5.1(4) 7.79 4.97 4.99
12599.9 2.75819 5.6(4) 7.13 4.97 4.99
12606.2 2.75957 5.4(4) 7.37 4.97 4.98
12612.5 2.76095 5.2(4) 7.55 4.97 4.98
12618.8 2.76233 4.9(4) 8.09 4.97 4.98
12625.1 2.76372 5.1(4) 7.79 4.97 4.98
12631.4 2.76510 5.5(4) 7.17 4.97 4.98
12637.7 2.76648 5.2(4) 7.50 4.97 4.98
12644.0 2.76787 5.0(4) 7.87 4.97 4.98
12650.4 2.76926 5.2(4) 7.56 4.97 4.98
12656.7 2.77064 5.0(4) 7.79 4.97 4.98
12663.0 2.77203 5.1(4) 7.56 4.97 4.98
12669.3 2.77341 4.9(4) 7.97 4.97 4.98
12675.7 2.77480 4.48(34) 8.61 4.971 4.975
12682.0 2.77619 5.0(4) 7.79 4.97 4.97
12688.4 2.77758 5.1(4) 7.51 4.97 4.97
12694.7 2.77897 5.1(4) 7.52 4.97 4.97
12701.1 2.78036 5.0(4) 7.64 4.97 4.97
12707.4 2.78175 5.0(4) 7.69 4.97 4.97
12713.8 2.78314 5.2(4) 7.27 4.97 4.97
12720.1 2.78454 5.1(4) 7.46 4.97 4.97
12726.5 2.78593 5.4(4) 7.04 4.97 4.97
12732.8 2.78733 5.5(4) 6.92 4.97 4.97
12739.2 2.78873 5.0(4) 7.50 4.97 4.97
12745.6 2.79012 4.9(4) 7.67 4.97 4.97
12751.9 2.79151 5.2(4) 7.31 4.97 4.97
12758.3 2.79291 5.1(4) 7.36 4.97 4.97
12764.7 2.79431 4.9(4) 7.60 4.97 4.97
12771.1 2.79571 5.1(4) 7.34 4.97 4.97
12777.5 2.79711 5.1(4) 7.38 4.97 4.97
12783.9 2.79851 4.9(4) 7.54 4.97 4.97
12790.3 2.79991 5.3(4) 7.09 4.97 4.97
12796.7 2.80131 5.7(4) 6.57 4.97 4.97
12803.0 2.80271 5.2(4) 7.16 4.97 4.97
12809.4 2.80411 4.7(4) 7.90 4.97 4.97
12815.8 2.80552 4.7(4) 7.90 4.97 4.97
12822.3 2.80692 4.9(4) 7.58 4.97 4.97
12828.7 2.80833 5.0(4) 7.30 4.97 4.97
12835.1 2.80974 5.6(4) 6.60 4.97 4.97
12841.5 2.81114 5.3(4) 6.94 4.97 4.97
12847.9 2.81255 5.2(4) 7.03 4.97 4.97
12854.3 2.81396 4.8(4) 7.65 4.97 4.97
12860.8 2.81537 4.9(4) 7.43 4.97 4.97
12867.2 2.81678 4.9(4) 7.36 4.97 4.97
12873.6 2.81818 4.7(4) 7.68 4.97 4.97
12880.1 2.81959 5.5(4) 6.62 4.97 4.97
12886.5 2.82101 5.5(4) 6.59 4.97 4.97
12893.0 2.82242 5.1(4) 7.14 4.97 4.97
12899.4 2.82383 5.2(4) 6.88 4.97 4.97
12905.8 2.82524 5.1(4) 6.99 4.97 4.97
12912.3 2.82666 5.4(4) 6.69 4.97 4.97
12918.8 2.82807 4.9(4) 7.26 4.97 4.97
12925.2 2.82949 4.5(4) 7.90 4.97 4.97
12931.7 2.83091 4.8(4) 7.42 4.97 4.97
12938.2 2.83232 4.8(4) 7.42 4.97 4.97
12944.6 2.83374 4.9(4) 7.31 4.97 4.97
12951.1 2.83516 4.9(4) 7.24 4.97 4.97
12957.6 2.83658 4.7(4) 7.58 4.97 4.97
12964.1 2.83800 4.7(4) 7.48 4.97 4.97
12970.5 2.83942 5.1(4) 6.92 4.97 4.97
12977.0 2.84084 5.3(4) 6.66 4.97 4.97
12983.5 2.84226 4.9(4) 7.17 4.97 4.97
12990.0 2.84369 4.7(4) 7.55 4.97 4.97
12996.5 2.84511 4.8(4) 7.31 4.97 4.97
13003.0 2.84653 5.4(4) 6.55 4.97 4.97
13009.5 2.84796 5.1(4) 6.90 4.97 4.97
13016.0 2.84938 4.4(4) 7.91 4.97 4.97
13022.5 2.85081 5.0(4) 7.02 4.97 4.97
13029.0 2.85223 5.8(4) 6.06 4.97 4.97
13035.5 2.85366 5.4(4) 6.48 4.97 4.97
13042.0 2.85509 5.0(4) 7.00 4.97 4.97
13048.6 2.85652 4.9(4) 7.04 4.97 4.97
13055.1 2.85795 4.8(4) 7.22 4.97 4.98
13061.6 2.85938 4.7(4) 7.38 4.97 4.98
13068.2 2.86081 5.1(4) 6.80 4.97 4.98
13074.7 2.86225 5.2(4) 6.64 4.97 4.98
13081.2 2.86368 5.2(4) 6.57 4.97 4.98
13087.8 2.86511 5.1(4) 6.80 4.97 4.98
13094.3 2.86655 5.8(4) 5.92 4.97 4.98
13100.8 2.86798 5.5(4) 6.26 4.97 4.98
13107.4 2.86942 5.3(4) 6.43 4.97 4.98
13114.0 2.87086 5.0(4) 6.90 4.97 4.98
13120.5 2.87229 5.0(4) 6.87 4.97 4.99
13127.1 2.87373 5.0(4) 6.77 4.97 4.99
13133.6 2.87516 4.6(4) 7.32 4.97 4.99
13140.2 2.87661 4.8(4) 7.04 4.97 5.00
13146.8 2.87805 5.2(4) 6.53 4.97 5.01
13153.3 2.87948 5.1(4) 6.67 4.97 5.02
13159.9 2.88093 4.6(4) 7.34 4.97 5.03
13166.5 2.88237 5.2(4) 6.53 4.97 5.06
13173.1 2.88381 5.1(4) 6.64 4.97 5.09
13179.7 2.88526 5.0(4) 6.71 4.97 5.14
13186.3 2.88670 5.3(4) 6.33 4.97 5.21
13192.8 2.88814 5.5(4) 6.06 4.97 5.29
13199.5 2.88959 5.6(4) 5.93 4.97 5.39
13206.1 2.89104 5.6(4) 6.02 4.97 5.51
13212.7 2.89248 5.7(4) 5.83 4.97 5.64
13219.3 2.89393 5.8(4) 5.73 4.97 5.77
13225.9 2.89538 6.0(4) 5.52 4.97 5.90
13232.5 2.89683 6.1(4) 5.43 4.97 6.01
13239.1 2.89828 6.3(4) 5.24 4.97 6.10
13245.7 2.89973 6.4(4) 5.22 4.97 6.14
13252.3 2.90118 6.5(4) 5.10 4.97 6.15
13259.0 2.90263 6.7(5) 4.92 4.97 6.11
13265.6 2.90409 6.6(4) 5.00 4.97 6.03
13272.2 2.90554 6.9(5) 4.80 4.97 5.93
13278.9 2.90700 7.0(5) 4.67 4.97 5.82
13285.5 2.90845 6.1(4) 5.35 4.97 5.70
13292.2 2.90991 5.9(4) 5.58 4.97 5.58
13298.8 2.91137 5.7(4) 5.71 4.97 5.47
13305.4 2.91282 6.0(4) 5.44 4.97 5.37
13312.1 2.91428 5.7(4) 5.69 4.97 5.29
13318.8 2.91574 6.0(4) 5.47 4.97 5.22
13325.4 2.91720 5.5(4) 5.88 4.97 5.16
13332.1 2.91865 5.6(4) 5.84 4.97 5.12
13338.8 2.92012 5.9(4) 5.49 4.97 5.09
13345.4 2.92158 5.2(4) 6.24 4.97 5.06
13352.1 2.92304 4.9(4) 6.58 4.97 5.04
13358.8 2.92450 5.0(4) 6.41 4.97 5.03
13365.4 2.92597 4.9(4) 6.52 4.97 5.02
13372.1 2.92744 5.2(4) 6.23 4.97 5.01
13378.8 2.92890 5.0(4) 6.39 4.97 5.00
13385.5 2.93037 5.2(4) 6.20 4.97 5.00
13392.2 2.93183 5.5(4) 5.80 4.97 4.99
13398.9 2.93330 5.3(4) 6.01 4.97 4.99
13405.6 2.93477 4.8(4) 6.65 4.97 4.99
13412.3 2.93624 4.8(4) 6.60 4.97 4.99
13419.0 2.93771 5.0(4) 6.40 4.97 4.99
13425.7 2.93918 5.0(4) 6.38 4.97 4.98
13432.4 2.94065 5.2(4) 6.11 4.97 4.98
13439.1 2.94212 5.1(4) 6.25 4.97 4.98
13445.8 2.94359 5.1(4) 6.23 4.97 4.98
13452.6 2.94507 5.3(4) 6.02 4.97 4.98
13459.3 2.94654 5.4(4) 5.89 4.97 4.98
13466.0 2.94802 5.2(4) 6.02 4.97 4.98
13472.8 2.94950 5.3(4) 5.96 4.97 4.98
13479.5 2.95097 5.1(4) 6.22 4.97 4.98
13486.3 2.95245 5.4(4) 5.76 4.97 4.98
13493.0 2.95393 5.0(4) 6.27 4.97 4.98
13499.7 2.95540 5.3(4) 5.92 4.97 4.98
13506.5 2.95688 4.9(4) 6.36 4.97 4.98
13513.3 2.95837 4.8(4) 6.57 4.97 4.98
13520.0 2.95985 5.4(4) 5.82 4.97 4.98
13526.8 2.96133 5.7(4) 5.43 4.97 4.98
13533.5 2.96281 5.4(4) 5.80 4.97 4.98
13540.3 2.96429 4.7(4) 6.63 4.98 4.98
13547.1 2.96578 4.9(4) 6.28 4.98 4.98
13553.8 2.96726 5.0(4) 6.21 4.98 4.98
13560.6 2.96874 4.5(4) 6.83 4.98 4.98
13567.4 2.97023 5.0(4) 6.18 4.98 4.98
13574.2 2.97172 4.9(4) 6.22 4.98 4.98
13581.0 2.97321 5.2(4) 5.94 4.98 4.98
13587.8 2.97470 4.9(4) 6.26 4.98 4.98
13594.5 2.97618 5.2(4) 5.88 4.98 4.98
13601.3 2.97767 5.4(4) 5.64 4.98 4.98
13608.1 2.97916 5.2(4) 5.85 4.98 4.98
13614.9 2.98065 4.7(4) 6.54 4.98 4.98
13621.8 2.98215 4.8(4) 6.30 4.98 4.98
13628.6 2.98364 5.0(4) 6.03 4.98 4.98
13635.4 2.98513 4.7(4) 6.40 4.98 4.98
13642.2 2.98663 5.6(4) 5.42 4.98 4.98
13649.0 2.98812 5.4(4) 5.60 4.98 4.98
13655.8 2.98962 5.0(4) 6.03 4.98 4.98
13662.7 2.99111 5.1(4) 5.96 4.98 4.98
13669.5 2.99261 4.9(4) 6.09 4.98 4.98
13676.3 2.99411 4.9(4) 6.18 4.98 4.98
13683.2 2.99561 4.8(4) 6.22 4.98 4.98
13690.0 2.99711 4.8(4) 6.19 4.98 4.98
13696.8 2.99861 4.8(4) 6.18 4.98 4.98
13703.7 3.00011 5.2(4) 5.69 4.98 4.98
13710.6 3.00161 5.6(4) 5.35 4.98 4.98
13717.4 3.00311 5.4(4) 5.47 4.98 4.98
13724.3 3.00462 5.4(4) 5.47 4.98 4.98
13731.1 3.00612 5.2(4) 5.68 4.98 4.98
13738.0 3.00763 5.0(4) 5.86 4.98 4.98
13744.9 3.00913 4.8(4) 6.10 4.98 4.98
13751.8 3.01064 5.0(4) 5.84 4.98 4.98
13758.6 3.01215 5.0(4) 5.84 4.98 4.99
13765.5 3.01366 4.9(4) 6.01 4.98 4.99
13772.4 3.01516 4.7(4) 6.18 4.98 4.99
13779.3 3.01667 5.2(4) 5.59 4.98 4.99
13786.2 3.01818 5.2(4) 5.61 4.99 4.99
13793.0 3.01969 5.2(4) 5.63 4.99 4.99
13799.9 3.02120 5.4(4) 5.44 4.99 4.99
13806.8 3.02272 5.6(4) 5.15 4.99 4.99
13813.8 3.02423 5.0(4) 5.76 4.99 4.99
13820.7 3.02574 5.4(4) 5.34 4.99 4.99
13827.6 3.02726 5.0(4) 5.84 4.99 4.99
13834.5 3.02877 4.5(4) 6.40 4.99 4.99
13841.4 3.03029 4.9(4) 5.93 4.99 4.99
13848.3 3.03181 4.8(4) 6.05 4.99 4.99
13855.3 3.03333 4.6(4) 6.21 4.99 4.99
13862.2 3.03484 4.7(4) 6.07 4.99 4.99
13869.1 3.03636 5.3(4) 5.44 4.99 4.99
13876.0 3.03788 5.4(4) 5.25 4.99 4.99
13883.0 3.03940 4.8(4) 5.96 4.99 4.99
13889.9 3.04092 4.7(4) 6.04 4.99 4.99
13896.8 3.04244 5.1(4) 5.57 4.99 4.99
13903.8 3.04397 4.9(4) 5.76 4.99 4.99
13910.8 3.04549 5.0(4) 5.67 4.99 4.99
13917.7 3.04702 4.9(4) 5.70 4.99 4.99
13924.7 3.04854 5.3(4) 5.28 4.99 4.99
13931.6 3.05007 5.0(4) 5.63 4.99 4.99
13938.6 3.05160 5.5(4) 5.14 4.99 4.99
13945.6 3.05312 4.9(4) 5.72 4.99 4.99
13952.5 3.05465 5.3(4) 5.33 4.99 4.99
13959.5 3.05619 5.7(5) 4.93 4.99 4.99
13966.5 3.05771 5.5(4) 5.11 5.00 5.00
13973.5 3.05924 5.3(4) 5.24 5.00 5.00
13980.5 3.06077 5.5(4) 5.03 5.00 5.00
13987.5 3.06231 5.4(4) 5.10 5.00 5.00
13994.4 3.06384 4.8(4) 5.76 5.00 5.00
14001.4 3.06537 4.4(4) 6.20 5.00 5.00
14008.4 3.06691 4.5(4) 6.06 5.00 5.00
14015.4 3.06844 5.1(4) 5.40 5.00 5.00
14022.5 3.06998 5.4(4) 5.04 5.00 5.00
14029.5 3.07152 5.5(4) 5.00 5.00 5.00
14036.5 3.07306 5.4(4) 5.11 5.00 5.00
14043.5 3.07459 4.6(4) 5.94 5.00 5.00
14050.5 3.07613 4.6(4) 5.95 5.00 5.00
14057.6 3.07767 4.8(4) 5.62 5.00 5.00
14064.6 3.07921 4.8(4) 5.70 5.00 5.00
14071.6 3.08076 5.1(4) 5.28 5.00 5.00
14078.7 3.08230 5.2(4) 5.24 5.00 5.00
14085.7 3.08384 4.4(4) 6.08 5.00 5.00
14092.7 3.08538 4.5(4) 5.99 5.00 5.00
14099.8 3.08693 5.0(4) 5.40 5.00 5.00
14106.8 3.08847 5.3(4) 5.02 5.00 5.00
14113.9 3.09002 5.5(5) 4.91 5.00 5.00
14120.9 3.09156 5.3(4) 5.05 5.01 5.01
14128.0 3.09311 5.0(4) 5.36 5.01 5.01
14135.1 3.09466 4.9(4) 5.44 5.01 5.01
14142.1 3.09621 5.2(4) 5.13 5.01 5.01
14149.2 3.09776 5.3(4) 5.03 5.01 5.01
14156.3 3.09931 4.7(4) 5.58 5.01 5.01
14163.3 3.10086 4.5(4) 5.89 5.01 5.01
14170.4 3.10242 4.4(4) 5.96 5.01 5.01
14177.5 3.10397 5.0(4) 5.24 5.01 5.01
14184.6 3.10552 5.0(4) 5.21 5.01 5.01
14191.7 3.10707 5.3(5) 4.92 5.01 5.01
14198.8 3.10863 5.1(4) 5.10 5.01 5.01
14205.9 3.11019 4.6(4) 5.71 5.01 5.01
14213.0 3.11174 4.7(4) 5.57 5.01 5.01
14220.1 3.11330 4.8(4) 5.40 5.01 5.01
14227.2 3.11486 4.9(4) 5.27 5.01 5.01
14234.3 3.11642 4.2(4) 6.14 5.01 5.01
14241.4 3.11798 4.6(4) 5.68 5.01 5.01
14248.6 3.11954 4.9(4) 5.27 5.01 5.01
14255.7 3.12110 4.7(4) 5.43 5.02 5.02
14262.8 3.12266 5.0(4) 5.17 5.02 5.02
14269.9 3.12423 5.0(4) 5.14 5.02 5.02
14277.1 3.12579 5.2(5) 4.94 5.02 5.02
14284.2 3.12736 5.2(5) 4.89 5.02 5.02
14291.4 3.12892 5.5(5) 4.60 5.02 5.02
14298.5 3.13049 5.5(5) 4.66 5.02 5.02
14305.7 3.13206 5.0(4) 5.08 5.02 5.02
14312.8 3.13362 4.7(4) 5.37 5.02 5.02
14320.0 3.13519 5.1(5) 4.94 5.02 5.02
14327.1 3.13676 5.2(5) 4.89 5.02 5.02
14334.3 3.13833 5.1(5) 4.91 5.02 5.02
14341.5 3.13991 5.4(5) 4.65 5.02 5.02
14348.6 3.14147 5.2(5) 4.78 5.02 5.02
14355.8 3.14305 5.0(4) 5.01 5.02 5.02
14363.0 3.14463 5.0(4) 5.00 5.02 5.02
14370.2 3.14619 4.8(4) 5.17 5.02 5.02
14377.3 3.14777 4.9(4) 5.03 5.03 5.03
14384.5 3.14935 5.1(5) 4.86 5.03 5.03
14391.7 3.15092 4.9(4) 5.10 5.03 5.03
14398.9 3.15250 4.5(4) 5.45 5.03 5.03
14406.1 3.15408 4.7(4) 5.26 5.03 5.03
14413.3 3.15566 4.9(4) 5.07 5.03 5.03
14420.5 3.15724 4.5(4) 5.46 5.03 5.03
14427.8 3.15882 4.6(4) 5.37 5.03 5.03
14435.0 3.16040 5.4(5) 4.56 5.03 5.03
14442.2 3.16198 5.0(5) 4.92 5.03 5.03
14449.4 3.16357 5.1(5) 4.79 5.03 5.03
14456.6 3.16515 5.3(5) 4.58 5.03 5.03
14463.8 3.16673 5.3(5) 4.62 5.03 5.03
14471.1 3.16832 5.0(5) 4.82 5.03 5.03
14478.3 3.16990 4.9(5) 4.89 5.03 5.03
14485.6 3.17149 5.2(5) 4.68 5.03 5.03
14492.8 3.17308 5.1(5) 4.72 5.04 5.04
14500.1 3.17467 5.0(5) 4.82 5.04 5.04
14507.3 3.17626 5.0(5) 4.81 5.04 5.04
14514.6 3.17785 5.1(5) 4.68 5.04 5.04
14521.8 3.17944 4.8(4) 5.02 5.04 5.04
14529.1 3.18103 5.2(5) 4.57 5.04 5.04
14536.3 3.18262 5.0(5) 4.79 5.04 5.04
14543.6 3.18421 5.1(5) 4.70 5.04 5.04
14550.9 3.18581 5.2(5) 4.53 5.04 5.04
14558.2 3.18741 5.0(5) 4.73 5.04 5.04
14565.4 3.18900 5.3(5) 4.48 5.04 5.04
14572.7 3.19060 5.0(5) 4.68 5.04 5.04
14580.0 3.19219 5.1(5) 4.65 5.04 5.04
14587.3 3.19379 5.6(5) 4.17 5.04 5.04
14594.6 3.19539 5.0(5) 4.66 5.04 5.04
14601.9 3.19699 5.0(5) 4.67 5.05 5.05
14609.2 3.19859 5.1(5) 4.54 5.05 5.05
14616.5 3.20020 5.2(5) 4.49 5.05 5.05
14623.8 3.20179 5.4(5) 4.27 5.05 5.05
14631.1 3.20339 5.3(5) 4.40 5.05 5.05
14638.4 3.20500 5.9(5) 3.96 5.05 5.05
14645.8 3.20661 5.2(5) 4.48 5.05 5.05
14653.1 3.20821 4.9(5) 4.70 5.05 5.05
14660.4 3.20981 5.0(5) 4.65 5.05 5.05
14667.7 3.21142 5.4(5) 4.28 5.05 5.05
14675.1 3.21303 5.3(5) 4.29 5.05 5.05
14682.4 3.21464 5.1(5) 4.51 5.05 5.05
14689.7 3.21625 5.3(5) 4.33 5.05 5.05
14697.1 3.21786 5.1(5) 4.44 5.05 5.05
14704.4 3.21947 5.2(5) 4.36 5.06 5.06
14711.8 3.22108 5.3(5) 4.30 5.06 5.06
14719.1 3.22269 5.3(5) 4.32 5.06 5.06
14726.5 3.22431 5.0(5) 4.54 5.06 5.06
14733.8 3.22592 4.9(5) 4.64 5.06 5.06
14741.2 3.22754 5.0(5) 4.50 5.06 5.06
14748.6 3.22915 5.0(5) 4.53 5.06 5.06
14756.0 3.23077 4.8(5) 4.64 5.06 5.06
14763.3 3.23239 5.0(5) 4.46 5.06 5.06
14770.7 3.23400 4.8(5) 4.68 5.06 5.06
14778.1 3.23563 4.8(5) 4.67 5.06 5.06
14785.5 3.23724 5.6(5) 3.97 5.06 5.06
14792.9 3.23887 5.0(5) 4.46 5.06 5.06
14800.3 3.24048 5.2(5) 4.24 5.07 5.07
14807.7 3.24211 5.5(5) 4.06 5.07 5.07
14815.1 3.24373 5.2(5) 4.22 5.07 5.07
14822.5 3.24535 5.4(5) 4.05 5.07 5.07
14829.9 3.24698 5.5(5) 4.02 5.07 5.07
14837.3 3.24861 5.3(5) 4.18 5.07 5.07
14844.8 3.25023 4.7(5) 4.70 5.07 5.07
14852.2 3.25186 5.2(5) 4.20 5.07 5.07
14859.6 3.25349 4.7(5) 4.62 5.07 5.07
14867.0 3.25512 5.0(5) 4.37 5.07 5.07
14874.5 3.25675 5.2(5) 4.17 5.07 5.07
14881.9 3.25838 4.7(5) 4.60 5.07 5.07
14889.3 3.26001 4.8(5) 4.53 5.07 5.07
14896.8 3.26164 4.8(5) 4.47 5.08 5.08
14904.2 3.26327 5.2(5) 4.17 5.08 5.08
14911.7 3.26491 5.2(5) 4.17 5.08 5.08
14919.1 3.26654 4.8(5) 4.49 5.08 5.08
14926.6 3.26817 4.6(5) 4.70 5.08 5.08
14934.1 3.26981 5.2(5) 4.11 5.08 5.08
14941.5 3.27145 5.3(5) 4.06 5.08 5.08
14949.0 3.27309 4.7(5) 4.59 5.08 5.08
14956.5 3.27472 5.1(5) 4.23 5.08 5.08
14963.9 3.27636 4.8(5) 4.45 5.08 5.08
14971.4 3.27801 5.0(5) 4.23 5.08 5.08
14978.9 3.27964 5.0(5) 4.26 5.08 5.08
14986.4 3.28129 4.8(5) 4.44 5.09 5.09
14993.9 3.28293 4.8(5) 4.38 5.09 5.09
15001.4 3.28458 5.0(5) 4.25 5.09 5.09
15008.9 3.28622 5.0(5) 4.20 5.09 5.09
15016.4 3.28786 5.4(5) 3.87 5.09 5.09
15023.9 3.28951 5.3(5) 3.97 5.09 5.09
15031.4 3.29116 4.5(5) 4.61 5.09 5.09
15038.9 3.29280 4.8(5) 4.35 5.09 5.09
15046.5 3.29445 4.8(5) 4.40 5.09 5.09
15054.0 3.29610 4.6(5) 4.53 5.09 5.09
15061.5 3.29775 4.6(5) 4.52 5.09 5.09
15069.0 3.29940 4.8(5) 4.35 5.09 5.09
15076.6 3.30105 5.2(5) 4.01 5.10 5.10
15084.1 3.30271 5.4(5) 3.81 5.10 5.10
15091.7 3.30436 5.3(5) 3.88 5.10 5.10
15099.2 3.30601 5.2(5) 3.97 5.10 5.10
15106.8 3.30767 5.4(5) 3.79 5.10 5.10
15114.3 3.30933 5.8(5) 3.54 5.10 5.10
15121.9 3.31099 4.7(5) 4.40 5.10 5.10
15129.4 3.31264 4.5(5) 4.55 5.10 5.10
15137.0 3.31430 5.0(5) 4.07 5.10 5.10
15144.6 3.31596 4.7(5) 4.31 5.10 5.10
15152.1 3.31762 4.8(5) 4.27 5.10 5.10
15159.7 3.31928 4.8(5) 4.23 5.11 5.11
15167.3 3.32094 4.1(4) 4.95 5.11 5.11
15174.9 3.32260 4.5(5) 4.48 5.11 5.11
15182.5 3.32427 5.5(5) 3.71 5.11 5.11
15190.0 3.32593 5.5(5) 3.67 5.11 5.11
15197.7 3.32760 5.3(5) 3.83 5.11 5.11
15205.3 3.32926 4.6(5) 4.35 5.11 5.11
15212.8 3.33093 4.8(5) 4.21 5.11 5.11
15220.4 3.33259 5.2(5) 3.91 5.11 5.11
15228.1 3.33427 5.4(5) 3.73 5.11 5.11
15235.7 3.33594 4.9(5) 4.07 5.11 5.11
15243.3 3.33760 4.4(5) 4.56 5.12 5.12
15250.9 3.33927 4.5(5) 4.45 5.12 5.12
15258.5 3.34095 4.6(5) 4.30 5.12 5.12
15266.2 3.34262 4.6(5) 4.31 5.12 5.12
15273.8 3.34430 4.9(5) 4.08 5.12 5.12
15281.4 3.34597 4.7(5) 4.27 5.12 5.12
15289.1 3.34765 5.3(5) 3.75 5.12 5.12
15296.7 3.34932 5.7(5) 3.499 5.12 5.12
15304.4 3.35100 4.7(5) 4.21 5.12 5.12
15312.0 3.35267 4.3(5) 4.54 5.12 5.12
15319.7 3.35435 4.6(5) 4.27 5.12 5.13
15327.3 3.35603 4.7(5) 4.20 5.13 5.13
15335.0 3.35771 5.1(5) 3.86 5.13 5.13
15342.7 3.35939 5.1(5) 3.84 5.13 5.13
15350.3 3.36107 5.0(5) 3.94 5.13 5.13
15358.0 3.36276 5.2(5) 3.79 5.13 5.13
15365.7 3.36444 4.9(5) 3.95 5.13 5.13
15373.4 3.36612 4.7(5) 4.17 5.13 5.13
15381.1 3.36781 4.6(5) 4.27 5.13 5.13
15388.8 3.36949 4.6(5) 4.19 5.13 5.13
15396.4 3.37118 4.6(5) 4.22 5.13 5.13
15404.2 3.37287 4.9(5) 3.93 5.13 5.13
15411.8 3.37456 4.9(5) 3.99 5.14 5.14
15419.6 3.37625 4.9(5) 3.98 5.14 5.14
15427.3 3.37794 5.6(5) 3.444 5.14 5.14
15435.0 3.37963 4.7(5) 4.12 5.14 5.14
15442.7 3.38132 4.7(5) 4.08 5.14 5.14
15450.4 3.38301 4.5(5) 4.23 5.14 5.14
15458.2 3.38471 4.9(5) 3.94 5.14 5.14
15465.9 3.38640 4.9(5) 3.91 5.14 5.14
15473.6 3.38810 4.6(5) 4.17 5.14 5.14
15481.3 3.38979 5.2(5) 3.68 5.14 5.14
15489.1 3.39149 4.7(5) 4.03 5.15 5.15
15496.8 3.39319 4.3(5) 4.45 5.15 5.15
15504.6 3.39489 4.7(5) 4.03 5.15 5.15
15512.3 3.39659 5.2(5) 3.63 5.15 5.15
15520.1 3.39829 5.0(5) 3.78 5.15 5.15
15527.8 3.39999 5.5(5) 3.413 5.15 5.15
15535.6 3.40169 5.5(5) 3.420 5.15 5.15
15543.4 3.40339 5.9(6) 3.193 5.15 5.15
15551.2 3.40510 5.3(5) 3.55 5.15 5.15
15558.9 3.40681 4.9(5) 3.83 5.15 5.15
15566.7 3.40851 5.2(5) 3.61 5.15 5.15
15574.5 3.41022 4.6(5) 4.05 5.16 5.16
15582.3 3.41193 5.3(5) 3.53 5.16 5.16
15590.1 3.41363 4.9(5) 3.84 5.16 5.16
15597.9 3.41534 4.9(5) 3.81 5.16 5.16
15605.7 3.41705 4.5(5) 4.09 5.16 5.16
15613.5 3.41876 5.0(5) 3.71 5.16 5.16
15621.3 3.42048 4.9(5) 3.78 5.16 5.16
15629.1 3.42219 4.8(5) 3.81 5.16 5.16
15636.9 3.42390 5.1(5) 3.65 5.16 5.16
15644.7 3.42561 5.6(6) 3.271 5.16 5.16
15652.5 3.42733 5.7(6) 3.198 5.16 5.16
15660.4 3.42905 5.6(6) 3.262 5.17 5.17
15668.2 3.43076 5.2(5) 3.491 5.17 5.17
15676.0 3.43248 4.4(5) 4.15 5.17 5.17
15683.9 3.43420 4.7(5) 3.88 5.17 5.17
15691.7 3.43592 4.7(5) 3.83 5.17 5.17
15699.6 3.43764 5.5(5) 3.320 5.17 5.17
15707.4 3.43936 5.4(5) 3.372 5.17 5.17
15715.3 3.44108 5.0(5) 3.63 5.17 5.17
15723.1 3.44281 5.2(5) 3.461 5.17 5.17
15731.0 3.44452 5.3(5) 3.415 5.17 5.17
15738.8 3.44625 4.9(5) 3.69 5.18 5.18
15746.7 3.44798 4.9(5) 3.64 5.18 5.18
15754.6 3.44970 5.0(5) 3.61 5.18 5.18
15762.5 3.45143 5.2(5) 3.461 5.18 5.18
15770.3 3.45316 5.4(6) 3.301 5.18 5.18
15778.2 3.45488 5.3(5) 3.354 5.18 5.18
15786.1 3.45662 5.3(5) 3.328 5.18 5.18
15794.0 3.45834 5.3(5) 3.374 5.18 5.18
15801.9 3.46008 5.4(6) 3.264 5.18 5.18
15809.8 3.46181 4.8(5) 3.71 5.18 5.18
15817.7 3.46354 4.4(5) 3.97 5.18 5.18
15825.6 3.46528 5.0(5) 3.507 5.19 5.19
15833.5 3.46701 5.5(6) 3.212 5.19 5.19
15841.4 3.46875 5.3(6) 3.294 5.19 5.19
15849.4 3.47049 4.8(5) 3.66 5.19 5.19
15857.3 3.47222 4.6(5) 3.82 5.19 5.19
15865.2 3.47396 4.5(5) 3.87 5.19 5.19
15873.2 3.47570 5.5(6) 3.130 5.19 5.19
15881.1 3.47744 5.8(6) 2.981 5.19 5.19
15889.0 3.47918 5.4(6) 3.228 5.19 5.19
15897.0 3.48092 5.6(6) 3.101 5.19 5.19
15904.9 3.48267 5.6(6) 3.068 5.20 5.20
15912.9 3.48441 5.8(6) 2.982 5.20 5.20
15920.8 3.48616 4.7(5) 3.67 5.20 5.20
15928.8 3.48790 5.2(6) 3.282 5.20 5.20
15936.8 3.48964 6.2(6) 2.744 5.20 5.20
15944.7 3.49139 5.7(6) 3.007 5.20 5.20
15952.7 3.49314 4.8(5) 3.53 5.20 5.20
15960.7 3.49489 5.1(5) 3.348 5.20 5.20
15968.7 3.49664 4.8(5) 3.51 5.20 5.20
15976.7 3.49839 4.9(5) 3.420 5.20 5.20
15984.6 3.50014 5.3(6) 3.189 5.20 5.20
15992.6 3.50189 5.1(6) 3.302 5.21 5.21
16000.6 3.50365 5.2(6) 3.195 5.21 5.21
16008.6 3.50540 5.3(6) 3.176 5.21 5.21
16016.6 3.50716 5.4(6) 3.092 5.21 5.21
16024.6 3.5089 5.6(6) 2.964 5.21 5.21
16032.7 3.5107 5.2(6) 3.205 5.21 5.21
16040.7 3.5124 4.6(5) 3.61 5.21 5.21
16048.7 3.5142 5.0(6) 3.275 5.21 5.21
16056.7 3.5159 5.5(6) 3.000 5.21 5.21
16064.7 3.5177 5.0(6) 3.267 5.21 5.21
16072.8 3.5195 5.0(6) 3.295 5.21 5.21
16080.8 3.5212 4.8(5) 3.402 5.22 5.22
16088.8 3.5230 5.6(6) 2.939 5.22 5.22
16096.9 3.5248 4.9(6) 3.304 5.22 5.22
16104.9 3.5265 4.9(5) 3.315 5.22 5.22
16113.0 3.5283 4.8(5) 3.353 5.22 5.22
16121.0 3.5300 4.9(5) 3.326 5.22 5.22
16129.1 3.5318 4.9(6) 3.266 5.22 5.22
16137.2 3.5336 5.1(6) 3.188 5.22 5.22
16145.3 3.5354 4.9(5) 3.307 5.22 5.22
16153.3 3.5371 5.6(6) 2.871 5.22 5.22
16161.4 3.5389 5.3(6) 3.005 5.22 5.22
16169.5 3.5407 5.0(6) 3.215 5.23 5.23
16177.6 3.5424 5.4(6) 2.968 5.23 5.23
16185.7 3.5442 5.3(6) 3.020 5.23 5.23
16193.7 3.5460 4.9(6) 3.251 5.23 5.23
16201.8 3.5478 4.8(5) 3.317 5.23 5.23
16209.9 3.5495 4.9(6) 3.225 5.23 5.23
16218.0 3.5513 4.9(6) 3.215 5.23 5.23
16226.2 3.5531 5.0(6) 3.166 5.23 5.23
16234.3 3.5549 4.9(6) 3.225 5.23 5.23
16242.4 3.5567 4.7(6) 3.302 5.23 5.23
16250.5 3.5584 5.3(6) 2.953 5.23 5.23
16258.6 3.5602 4.8(6) 3.221 5.23 5.24
16266.8 3.5620 5.3(6) 2.937 5.24 5.24
16274.9 3.5638 5.0(6) 3.071 5.24 5.24
16283.0 3.5656 5.1(6) 3.017 5.24 5.24
16291.2 3.5674 4.8(6) 3.227 5.24 5.24
16299.3 3.5691 5.4(6) 2.859 5.24 5.24
16307.5 3.5709 5.0(6) 3.102 5.24 5.24
16315.6 3.5727 5.2(6) 2.956 5.24 5.24
16323.8 3.5745 5.0(6) 3.036 5.24 5.24
16331.9 3.5763 5.3(6) 2.874 5.24 5.24
16340.1 3.5781 4.6(5) 3.308 5.24 5.24
16348.3 3.5799 4.4(5) 3.475 5.24 5.24
16356.4 3.5817 4.7(6) 3.231 5.24 5.24
16364.6 3.5835 5.0(6) 3.045 5.25 5.25
16372.8 3.5853 4.8(6) 3.108 5.25 5.25
16381.0 3.5871 5.5(6) 2.718 5.25 5.25
16389.2 3.5888 5.4(6) 2.771 5.25 5.25
16397.4 3.5906 4.7(6) 3.151 5.25 5.25
16405.6 3.5924 4.7(6) 3.165 5.25 5.25
16413.8 3.5942 4.7(6) 3.167 5.25 5.25
16422.0 3.5960 4.9(6) 3.049 5.25 5.25
16430.2 3.5978 5.0(6) 2.956 5.25 5.25
16438.4 3.5996 5.9(6) 2.520 5.25 5.25
16446.6 3.6014 5.4(6) 2.743 5.25 5.25
16454.8 3.6032 5.3(6) 2.764 5.25 5.25
16463.1 3.6051 4.8(6) 3.067 5.25 5.26
16471.3 3.6069 5.2(6) 2.804 5.26 5.26
16479.6 3.6087 5.2(6) 2.794 5.26 5.26
16487.8 3.6105 5.8(6) 2.526 5.26 5.26
16496.0 3.6123 5.7(6) 2.558 5.26 5.26
16504.3 3.6141 5.3(6) 2.733 5.26 5.26
16512.5 3.6159 5.2(6) 2.811 5.26 5.26
16520.8 3.6177 5.2(6) 2.762 5.26 5.26
16529.1 3.6195 5.1(6) 2.830 5.26 5.26
16537.3 3.6213 5.3(6) 2.717 5.26 5.26
16545.6 3.6231 5.4(6) 2.650 5.26 5.26
16553.8 3.6250 5.1(6) 2.811 5.26 5.26
16562.1 3.6268 5.5(6) 2.606 5.26 5.26
16570.4 3.6286 5.6(6) 2.555 5.26 5.27
16578.7 3.6304 5.3(6) 2.689 5.26 5.27
16587.0 3.6322 5.3(6) 2.661 5.26 5.27
16595.3 3.6340 5.5(6) 2.568 5.27 5.27
16603.6 3.6359 5.2(6) 2.742 5.27 5.27
16611.9 3.6377 4.8(6) 2.932 5.27 5.27
16620.2 3.6395 5.0(6) 2.793 5.27 5.27
16628.5 3.6413 5.5(6) 2.567 5.27 5.28
16636.8 3.6431 4.9(6) 2.876 5.27 5.28
16645.1 3.6450 5.1(6) 2.747 5.27 5.28
16653.4 3.6468 5.2(6) 2.675 5.27 5.29
16661.8 3.6486 4.7(6) 2.950 5.27 5.29
16670.1 3.6504 4.8(6) 2.894 5.27 5.30
16678.4 3.6523 5.4(6) 2.587 5.27 5.31
16686.8 3.6541 5.1(6) 2.715 5.27 5.33
16695.1 3.6559 6.0(7) 2.311 5.27 5.34
16703.5 3.6578 5.4(6) 2.571 5.27 5.35
16711.8 3.6596 5.0(6) 2.733 5.27 5.37
16720.2 3.6614 6.3(7) 2.174 5.27 5.38
16728.5 3.6633 6.1(7) 2.253 5.27 5.40
16736.9 3.6651 5.3(6) 2.577 5.28 5.41
16745.3 3.6669 4.8(6) 2.822 5.28 5.41
16753.7 3.6688 4.6(6) 2.937 5.28 5.42
16762.0 3.6706 4.8(6) 2.800 5.28 5.41
16770.4 3.6724 4.7(6) 2.849 5.28 5.41
16778.8 3.6743 4.9(6) 2.755 5.28 5.40
16787.2 3.6761 5.4(6) 2.498 5.28 5.39
16795.6 3.6780 5.1(6) 2.613 5.28 5.37
16804.0 3.6798 5.1(6) 2.631 5.28 5.36
16812.4 3.6816 5.2(6) 2.562 5.28 5.35
16820.8 3.6835 5.3(6) 2.534 5.28 5.33
16829.2 3.6853 5.3(6) 2.498 5.28 5.32
16837.6 3.6872 5.2(6) 2.564 5.28 5.31
16846.0 3.6890 5.5(6) 2.412 5.28 5.31
16854.4 3.6909 5.5(6) 2.384 5.28 5.30
16862.9 3.6927 5.3(6) 2.488 5.28 5.30
16871.3 3.6946 5.3(6) 2.474 5.28 5.29
16879.8 3.6964 5.4(6) 2.413 5.28 5.29
16888.2 3.6983 5.2(6) 2.508 5.28 5.29
16896.6 3.7001 5.4(6) 2.410 5.28 5.29
16905.1 3.7020 5.2(6) 2.505 5.28 5.29
16913.5 3.7038 5.5(7) 2.365 5.28 5.29
16922.0 3.7057 5.8(7) 2.226 5.28 5.29
16930.4 3.7075 5.5(7) 2.359 5.29 5.29
16938.9 3.7094 5.3(6) 2.429 5.29 5.29
16947.4 3.7112 5.5(7) 2.358 5.29 5.29
16955.8 3.7131 5.6(7) 2.296 5.29 5.29
16964.3 3.7150 5.9(7) 2.189 5.29 5.29
16972.8 3.7168 5.4(7) 2.365 5.29 5.29
16981.3 3.7187 5.2(6) 2.479 5.29 5.29
16989.8 3.7205 5.2(6) 2.459 5.29 5.29
16998.3 3.7224 5.0(6) 2.535 5.29 5.29
17006.8 3.7243 5.5(7) 2.291 5.29 5.29
17015.3 3.7261 5.6(7) 2.271 5.29 5.29
17023.8 3.7280 4.9(6) 2.604 5.29 5.29
17032.3 3.7299 4.9(6) 2.593 5.29 5.29
17040.8 3.7317 4.7(6) 2.675 5.29 5.29
17049.3 3.7336 5.3(6) 2.372 5.29 5.29
17057.9 3.7355 5.0(6) 2.510 5.29 5.29
17066.4 3.7374 4.3(6) 2.874 5.29 5.29
17074.9 3.7392 4.6(6) 2.717 5.29 5.29
17083.5 3.7411 4.7(6) 2.631 5.29 5.29
17092.0 3.7430 4.4(6) 2.846 5.29 5.29
17100.6 3.7448 4.2(6) 2.974 5.29 5.29
17109.1 3.7467 4.4(6) 2.822 5.29 5.29
17117.7 3.7486 5.3(7) 2.323 5.29 5.29
17126.2 3.7505 5.9(7) 2.074 5.29 5.29
17134.8 3.7523 5.8(7) 2.117 5.29 5.29
17143.3 3.7542 5.5(7) 2.220 5.29 5.29
17151.9 3.7561 6.0(7) 2.026 5.29 5.29
17160.5 3.7580 5.4(7) 2.277 5.29 5.29
17169.1 3.7599 5.3(7) 2.308 5.29 5.29
17177.7 3.7617 4.5(6) 2.718 5.29 5.29
17186.3 3.7636 3.9(6) 3.066 5.29 5.29
17194.8 3.7655 5.1(7) 2.348 5.29 5.29
17203.4 3.7674 6.2(7) 1.939 5.29 5.29
17212.0 3.7693 6.0(7) 2.014 5.29 5.29
17220.7 3.7712 5.1(7) 2.337 5.29 5.29
17229.3 3.7731 5.2(7) 2.287 5.29 5.29
17237.9 3.7750 5.0(6) 2.387 5.29 5.29
17246.5 3.7768 4.8(6) 2.492 5.29 5.29
17255.1 3.7787 5.2(7) 2.289 5.29 5.29
17263.8 3.7806 5.4(7) 2.203 5.29 5.29
17272.4 3.7825 5.7(7) 2.088 5.29 5.29
17281.0 3.7844 4.7(6) 2.513 5.29 5.29
17289.7 3.7863 4.3(6) 2.706 5.29 5.29
17298.3 3.7882 5.0(7) 2.333 5.29 5.29
17306.9 3.7901 5.5(7) 2.151 5.29 5.29
17315.6 3.7920 5.6(7) 2.093 5.29 5.29
17324.3 3.7939 4.9(6) 2.399 5.29 5.29
17332.9 3.7958 4.5(6) 2.561 5.29 5.29
17341.6 3.7977 4.4(6) 2.658 5.29 5.29
17350.3 3.7996 4.6(6) 2.494 5.29 5.29
17358.9 3.8015 5.3(7) 2.192 5.29 5.29
17367.6 3.8034 5.0(7) 2.289 5.29 5.29
17376.3 3.8053 5.0(7) 2.318 5.29 5.29
17385.0 3.8072 4.7(6) 2.443 5.29 5.29
17393.7 3.8091 4.8(6) 2.391 5.29 5.29
17402.4 3.8110 4.4(6) 2.570 5.29 5.29
17411.1 3.8129 5.4(7) 2.126 5.28 5.29
17419.8 3.8148 6.0(7) 1.901 5.28 5.28
17428.5 3.8168 5.6(7) 2.021 5.28 5.28
17437.2 3.8187 4.6(6) 2.464 5.28 5.28
17445.9 3.8206 4.2(6) 2.665 5.28 5.28
17454.7 3.8225 4.5(6) 2.502 5.28 5.28
17463.4 3.8244 4.5(6) 2.494 5.28 5.28
17472.1 3.8263 5.1(7) 2.178 5.28 5.28
17480.8 3.8282 5.5(7) 2.052 5.28 5.28
17489.6 3.8302 4.7(6) 2.369 5.28 5.28
17498.3 3.8321 4.7(7) 2.356 5.28 5.28
17507.1 3.8340 5.5(7) 2.023 5.28 5.28
17515.8 3.8359 5.7(7) 1.940 5.28 5.28
17524.6 3.8378 6.0(7) 1.837 5.28 5.28
17533.3 3.8398 4.9(7) 2.239 5.28 5.28
17542.1 3.8417 4.2(6) 2.592 5.28 5.28
17550.9 3.8436 4.7(7) 2.313 5.28 5.28
17559.7 3.8455 5.5(7) 1.985 5.28 5.28
17568.4 3.8475 5.0(7) 2.176 5.28 5.28
17577.2 3.8494 5.3(7) 2.050 5.27 5.27
17586.0 3.8513 4.8(7) 2.243 5.27 5.27
17594.8 3.8532 5.2(7) 2.089 5.27 5.27
17603.6 3.8552 5.6(7) 1.946 5.27 5.27
17612.4 3.8571 4.6(7) 2.353 5.27 5.27
17621.2 3.8590 4.2(6) 2.573 5.27 5.27
17630.0 3.8610 4.4(6) 2.408 5.27 5.27
17638.8 3.8629 4.9(7) 2.180 5.27 5.27
17647.7 3.8648 4.6(7) 2.302 5.27 5.27
17656.5 3.8668 4.9(7) 2.152 5.27 5.27
17665.3 3.8687 5.2(7) 2.036 5.27 5.27
17674.1 3.8706 5.5(7) 1.943 5.27 5.27
17683.0 3.8726 5.0(7) 2.123 5.26 5.26
17691.8 3.8745 5.0(7) 2.131 5.26 5.26
17700.7 3.8764 4.5(7) 2.329 5.26 5.26
17709.5 3.8784 4.8(7) 2.187 5.26 5.26
17718.4 3.8803 4.8(7) 2.171 5.26 5.26
17727.2 3.8823 5.1(7) 2.045 5.26 5.26
17736.1 3.8842 5.3(7) 1.978 5.26 5.26
17745.0 3.8862 5.7(7) 1.813 5.26 5.26
17753.8 3.8881 5.2(7) 1.993 5.26 5.26
17762.7 3.8901 5.6(7) 1.864 5.26 5.26
17771.6 3.8920 5.5(7) 1.875 5.25 5.25
17780.5 3.8940 5.5(7) 1.867 5.25 5.25
17789.4 3.8959 5.1(7) 2.016 5.25 5.25
17798.3 3.8979 4.6(7) 2.216 5.25 5.25
17807.2 3.8998 5.1(7) 1.989 5.25 5.25
17816.1 3.9018 5.3(7) 1.932 5.25 5.25
17825.0 3.9037 5.5(7) 1.871 5.25 5.25
17833.9 3.9057 5.1(7) 1.989 5.25 5.25
17842.8 3.9076 5.3(7) 1.934 5.24 5.24
17851.7 3.9096 5.1(7) 1.991 5.24 5.24
17860.7 3.9115 5.4(7) 1.861 5.24 5.24
17869.6 3.9135 5.3(7) 1.903 5.24 5.24
17878.5 3.9155 4.9(7) 2.040 5.24 5.24
17887.5 3.9174 6.2(8) 1.623 5.24 5.24
17896.4 3.9194 5.2(7) 1.932 5.24 5.24
17905.3 3.9213 5.3(7) 1.897 5.23 5.23
17914.3 3.9233 5.5(7) 1.817 5.23 5.23
17923.3 3.9253 4.8(7) 2.063 5.23 5.23
17932.2 3.9272 5.1(7) 1.941 5.23 5.23
17941.2 3.9292 4.1(6) 2.411 5.23 5.23
17950.2 3.9312 4.2(7) 2.344 5.23 5.23
17959.1 3.9331 5.2(7) 1.897 5.22 5.22
17968.1 3.9351 4.9(7) 2.006 5.22 5.22
17977.1 3.9371 5.2(7) 1.898 5.22 5.22
17986.1 3.9391 5.3(7) 1.848 5.22 5.22
17995.1 3.9410 5.4(7) 1.828 5.22 5.22
18004.1 3.9430 5.4(7) 1.807 5.22 5.22
18013.1 3.9450 5.6(8) 1.733 5.21 5.21
18022.1 3.9469 5.2(7) 1.855 5.21 5.21
18031.1 3.9489 4.9(7) 1.998 5.21 5.21
18040.1 3.9509 4.8(7) 2.020 5.21 5.21
18049.1 3.9529 4.7(7) 2.050 5.21 5.21
18058.2 3.9549 5.2(7) 1.847 5.20 5.20
18067.2 3.9568 5.3(7) 1.806 5.20 5.20
18076.2 3.9588 5.2(7) 1.865 5.20 5.20
18085.3 3.9608 6.0(8) 1.605 5.20 5.20
18094.3 3.9628 5.5(8) 1.732 5.20 5.20
18103.3 3.9648 4.4(7) 2.159 5.19 5.19
18112.4 3.9668 4.7(7) 2.038 5.19 5.19
18121.4 3.9687 5.9(8) 1.606 5.19 5.19
18130.5 3.9707 5.3(7) 1.778 5.19 5.19
18139.6 3.9727 5.3(7) 1.783 5.19 5.19
18148.7 3.9747 5.3(7) 1.796 5.18 5.18
18157.7 3.9767 5.7(8) 1.661 5.18 5.18
18166.8 3.9787 6.6(8) 1.428 5.18 5.18
18175.9 3.9807 6.3(8) 1.493 5.18 5.18
18185.0 3.9827 5.6(8) 1.671 5.17 5.17
18194.1 3.9847 5.4(8) 1.739 5.17 5.17
18203.2 3.9867 6.0(8) 1.554 5.17 5.17
18212.3 3.9887 5.6(8) 1.660 5.17 5.17
18221.4 3.9907 5.7(8) 1.645 5.16 5.16
18230.5 3.9926 5.8(8) 1.612 5.16 5.16
18239.6 3.9947 5.3(8) 1.738 5.16 5.16
18248.7 3.9967 4.8(7) 1.923 5.16 5.16
18257.8 3.9987 5.4(8) 1.722 5.15 5.15
18267.0 4.0007 5.0(7) 1.861 5.15 5.15
18276.1 4.0027 4.4(7) 2.091 5.15 5.15
18285.3 4.0047 4.0(7) 2.313 5.15 5.15
18294.4 4.0067 4.9(7) 1.866 5.14 5.14
18303.5 4.0087 6.1(8) 1.494 5.14 5.14
18312.7 4.0107 6.2(8) 1.468 5.14 5.14
18321.8 4.0127 5.0(7) 1.834 5.14 5.14
18331.0 4.0147 5.0(7) 1.829 5.13 5.13
18340.2 4.0167 5.5(8) 1.654 5.13 5.13
18349.3 4.0187 5.6(8) 1.617 5.13 5.13
18358.5 4.0207 5.4(8) 1.676 5.12 5.12
18367.7 4.0227 5.1(8) 1.754 5.12 5.12
18376.9 4.0248 6.1(8) 1.472 5.12 5.12
18386.1 4.0268 6.0(8) 1.510 5.11 5.11
18395.3 4.0288 5.9(8) 1.528 5.11 5.11
18404.4 4.0308 5.2(8) 1.730 5.11 5.11
18413.7 4.0328 5.2(8) 1.710 5.11 5.11
18422.8 4.0348 5.0(8) 1.763 5.10 5.10
18432.1 4.0369 4.9(7) 1.816 5.10 5.10
18441.3 4.0389 4.6(7) 1.939 5.10 5.10
18450.5 4.0409 4.4(7) 2.005 5.09 5.09
18459.7 4.0429 5.6(8) 1.588 5.09 5.09
18469.0 4.0450 4.9(7) 1.802 5.09 5.09
18478.2 4.0470 4.7(7) 1.851 5.08 5.08
18487.4 4.0490 5.4(8) 1.611 5.08 5.08
18496.7 4.0510 5.1(8) 1.702 5.08 5.08
18505.9 4.0531 5.1(8) 1.707 5.07 5.07
18515.2 4.0551 5.5(8) 1.570 5.07 5.07
18524.4 4.0571 5.9(8) 1.466 5.06 5.06
18533.7 4.0592 5.7(8) 1.526 5.06 5.06
18543.0 4.0612 4.6(7) 1.855 5.06 5.06
18552.3 4.0632 4.1(7) 2.090 5.05 5.05
18561.5 4.0653 5.0(8) 1.711 5.05 5.05
18570.8 4.0673 5.2(8) 1.643 5.05 5.05
18580.1 4.0693 5.2(8) 1.645 5.04 5.04
18589.4 4.0714 5.2(8) 1.637 5.04 5.04
18598.7 4.0734 5.4(8) 1.589 5.03 5.03
18608.0 4.0755 5.9(8) 1.437 5.03 5.03
18617.3 4.0775 6.5(9) 1.304 5.03 5.03
18626.6 4.0795 5.5(8) 1.523 5.02 5.02
18635.9 4.0816 5.5(8) 1.530 5.02 5.02
18645.2 4.0836 5.4(8) 1.544 5.01 5.01
18654.5 4.0857 5.3(8) 1.585 5.01 5.01
18663.8 4.0877 6.2(9) 1.342 5.01 5.01
18673.2 4.0898 6.5(9) 1.286 5.00 5.00
18682.5 4.0918 5.8(8) 1.434 5.00 5.00
18691.9 4.0939 5.4(8) 1.526 4.99 4.99
18701.2 4.0959 5.5(8) 1.508 4.99 4.99
18710.6 4.0980 5.4(8) 1.522 4.98 4.98
18719.9 4.1000 5.7(8) 1.445 4.98 4.98
18729.3 4.1021 5.8(8) 1.410 4.98 4.97
18738.7 4.1041 5.4(8) 1.529 4.97 4.97
18748.0 4.1062 4.7(8) 1.725 4.97 4.97
18757.4 4.1082 4.6(7) 1.782 4.96 4.96
18766.8 4.1103 4.6(8) 1.756 4.96 4.96
18776.2 4.1123 4.5(7) 1.787 4.95 4.95
18785.5 4.1144 5.8(8) 1.406 4.95 4.95
18794.9 4.1165 4.9(8) 1.650 4.94 4.94
18804.3 4.1185 5.3(8) 1.512 4.94 4.94
18813.7 4.1206 5.6(8) 1.442 4.93 4.93
18823.1 4.1226 4.7(8) 1.693 4.93 4.93
18832.6 4.1247 5.2(8) 1.521 4.92 4.92
18842.0 4.1268 5.5(8) 1.443 4.92 4.92
18851.4 4.1288 5.2(8) 1.522 4.91 4.91
18860.8 4.1309 5.2(8) 1.521 4.91 4.91
18870.3 4.1330 4.5(8) 1.742 4.90 4.90
18879.7 4.1351 4.0(7) 1.947 4.90 4.90
18889.1 4.1371 5.1(8) 1.538 4.89 4.89
18898.6 4.1392 5.8(9) 1.355 4.89 4.89
18908.0 4.1413 5.6(8) 1.398 4.88 4.88
18917.5 4.1433 5.0(8) 1.556 4.88 4.88
18926.9 4.1454 5.8(9) 1.349 4.87 4.87
18936.4 4.1475 6.2(9) 1.247 4.86 4.86
18945.8 4.1496 5.9(9) 1.310 4.86 4.86
18955.3 4.1516 5.6(8) 1.390 4.85 4.85
18964.8 4.1537 6.0(9) 1.296 4.85 4.85
18974.3 4.1558 5.7(9) 1.354 4.84 4.84
18983.8 4.1579 4.9(8) 1.558 4.84 4.84
18993.3 4.1600 4.7(8) 1.615 4.83 4.83
19002.8 4.1620 5.0(8) 1.523 4.82 4.82
19012.3 4.1641 4.8(8) 1.575 4.82 4.82
19021.8 4.1662 4.9(8) 1.549 4.81 4.81
19031.3 4.1683 5.8(9) 1.314 4.81 4.81
19040.8 4.1704 5.4(8) 1.407 4.80 4.80
19050.3 4.1725 4.7(8) 1.616 4.79 4.79
19059.8 4.1746 6.0(9) 1.257 4.79 4.79
19069.4 4.1767 6.3(9) 1.200 4.78 4.78
19078.9 4.1788 6.2(9) 1.220 4.77 4.77
19088.4 4.1808 5.5(9) 1.366 4.77 4.77
19098.0 4.1829 5.1(8) 1.453 4.76 4.76
19107.5 4.1850 5.8(9) 1.279 4.76 4.76
19117.1 4.1871 5.2(8) 1.429 4.75 4.75
19126.7 4.1892 5.5(9) 1.357 4.74 4.74
19136.2 4.1913 6.6(9) 1.129 4.74 4.74
19145.8 4.1934 6.3(9) 1.183 4.73 4.73
19155.3 4.1955 5.4(9) 1.368 4.72 4.72
19164.9 4.1976 4.4(8) 1.655 4.71 4.71
19174.5 4.1997 5.2(8) 1.404 4.71 4.71
19184.1 4.2018 7.2(10) 1.027 4.70 4.70
19193.7 . -0.0022(4) . . .
loop_
_refln_index_h
_refln_index_k
_refln_index_l
_refln_observed_status
_refln_F_squared_meas
_refln_F_squared_calc
_refln_phase_calc
_refln_d_spacing
_gsas_i100_meas
2 1 0 o 0.000 0.039 0.00 3.66648 0.00
2 1 1 o 0.000 0.000 0.00 3.34703 0.00
2 2 0 o 2.832 1.258 180.00 2.89861 2.27
2 2 1 o 0.729 0.222 -135.00 2.73284 0.92
3 1 0 o 1.237 0.863 90.00 2.59260 1.27
3 1 1 o 25.238 26.441 45.00 2.47194 21.44
2 2 2 o 11.659 11.639 90.00 2.36671 2.77
3 2 0 o 2.626 2.124 90.00 2.27386 1.60
3 2 1 o 1.710 0.890 -167.73 2.19114 1.79
4 0 0 o 996.413 1021.248 180.00 2.04963 100.00
4 1 0 o 2.480 3.088 180.00 1.98843 0.88
3 2 2 o 0.934 1.163 135.00 1.98843 0.33
3 3 0 o 2.636 3.456 -90.00 1.93241 0.42
4 1 1 o 0.000 0.000 -90.01 1.93241 0.00
3 3 1 o 17.090 19.048 135.00 1.88087 4.87
4 2 0 o 0.000 0.001 180.00 1.83324 0.00
4 2 1 o 0.000 0.217 -172.06 1.78906 0.00
3 3 2 o 3.802 5.388 0.00 1.74793 0.81
4 2 2 o 2.545 3.027 180.00 1.67351 0.45
4 3 0 o 0.300 0.427 180.00 1.63970 0.05
4 3 1 o 1.475 1.265 -93.68 1.60786 0.45
5 1 0 o 5.674 4.867 90.00 1.60786 0.86
5 1 1 o 110.309 111.618 -45.00 1.57780 15.55
3 3 3 o 0.027 0.027 -135.00 1.57780 0.00
5 2 0 o 1.265 1.126 -90.00 1.52242 0.15
4 3 2 o 3.645 3.245 -91.13 1.52242 0.89
5 2 1 o 0.058 0.033 173.12 1.49684 0.01
4 4 0 o 754.239 747.684 0.00 1.44931 37.85
4 4 1 o 3.141 3.776 45.00 1.42718 0.30
5 2 2 o 0.041 0.049 -135.00 1.42718 0.00
4 3 3 o 2.936 2.460 90.00 1.40603 0.26
5 3 0 o 0.397 0.333 -90.00 1.40603 0.04
5 3 1 o 94.236 94.140 -134.92 1.38580 15.81
4 4 2 o 0.752 1.723 90.00 1.36642 0.06
6 1 0 o 0.000 0.430 0.00 1.34783 0.00
5 3 2 o 0.000 0.045 -18.50 1.32997 0.00
6 1 1 o 0.000 0.069 180.00 1.32997 0.00
6 2 0 o 4.509 5.004 -180.00 1.29630 0.29
4 4 3 o 0.698 0.673 -45.00 1.28039 0.04
5 4 0 o 6.703 6.464 90.00 1.28039 0.41
6 2 1 o 0.286 0.276 -2.76 1.28039 0.03
5 4 1 o 4.134 3.728 -102.76 1.26506 0.48
5 3 3 o 26.995 27.525 -45.00 1.25026 1.50
6 2 2 o 0.203 0.254 -90.00 1.23597 0.01
6 3 0 o 0.933 0.779 180.00 1.22216 0.05
5 4 2 o 0.656 0.547 -170.65 1.22216 0.07
6 3 1 o 0.331 0.154 137.31 1.20880 0.03
4 4 4 o 822.757 799.276 180.00 1.18335 12.23
6 3 2 o 4.312 4.129 -71.09 1.17122 0.37
5 4 3 o 0.291 0.287 -21.54 1.15944 0.02
5 5 0 o 20.670 20.423 -90.00 1.15944 0.42
7 1 0 o 2.202 2.176 -90.00 1.15944 0.09
5 5 1 o 198.758 199.997 135.00 1.14802 7.85
7 1 1 o 19.405 19.526 -135.00 1.14802 0.77
6 4 0 o 0.005 0.007 -180.00 1.13693 0.00
6 4 1 o 0.025 0.030 40.19 1.12615 0.00
7 2 0 o 4.898 6.021 -90.00 1.12615 0.18
6 3 3 o 1.355 1.615 180.00 1.11568 0.05
7 2 1 o 4.386 5.226 7.16 1.11568 0.31
5 5 2 o 0.004 0.005 -180.00 1.11568 0.00
6 4 2 o 0.091 0.100 -162.91 1.09557 0.01
5 4 4 o 11.805 11.442 -135.00 1.08592 0.37
7 2 2 o 3.090 2.995 -45.00 1.08592 0.10
7 3 0 o 2.512 2.500 90.00 1.07652 0.08
5 5 3 o 98.162 97.997 45.00 1.06735 2.90
7 3 1 o 0.214 0.214 -40.12 1.06735 0.01
6 4 3 o 0.822 0.990 95.29 1.04971 0.05
6 5 0 o 1.570 1.890 -180.00 1.04971 0.04
6 5 1 o 0.047 0.047 -60.13 1.04121 0.00
7 3 2 o 14.450 14.549 -174.56 1.04121 0.77
8 0 0 o 570.326 581.511 0.00 1.02481 3.58
6 5 2 o 0.283 0.314 63.98 1.01690 0.01
8 1 0 o 5.165 5.740 0.00 1.01690 0.13
7 4 0 o 0.021 0.024 -90.00 1.01690 0.00
8 1 1 o 0.470 0.561 90.00 1.00917 0.01
7 4 1 o 1.312 1.566 -95.75 1.00917 0.06
5 5 4 o 10.262 12.247 90.00 1.00917 0.24
7 3 3 o 0.000 0.042 -135.00 1.00161 0.00
8 2 0 o 0.002 0.006 0.00 0.99422 0.00
6 4 4 o 0.590 1.687 -90.00 0.99422 0.01
7 4 2 o 4.471 6.290 -2.59 0.98698 0.19
8 2 1 o 1.426 2.007 -4.02 0.98698 0.06
6 5 3 o 0.000 0.087 -77.24 0.97991 0.00
8 2 2 o 0.646 0.658 -180.00 0.96620 0.01
6 6 0 o 1.651 1.683 0.00 0.96620 0.02
6 6 1 o 0.010 0.009 -135.00 0.95956 0.00
8 3 0 o 1.316 1.188 0.00 0.95956 0.03
8 3 1 o 1.840 1.781 83.91 0.95306 0.07
7 5 0 o 0.143 0.138 90.00 0.95306 0.00
7 4 3 o 2.893 2.800 -83.06 0.95306 0.11
7 5 1 o 26.894 26.072 45.09 0.94668 0.98
5 5 5 o 189.448 183.657 -45.00 0.94668 1.15
6 6 2 o 3.903 3.482 -90.00 0.94043 0.07
6 5 4 o 2.162 1.775 4.40 0.93431 0.07
8 3 2 o 7.277 5.974 94.61 0.93431 0.25
7 5 2 o 1.668 1.423 -24.89 0.92830 0.06
8 4 0 o 645.231 625.029 -180.00 0.91662 10.36
8 4 1 o 5.874 5.768 -111.31 0.91095 0.18
7 4 4 o 0.067 0.066 -45.00 0.91095 0.00
6 6 3 o 2.732 2.683 135.00 0.91095 0.04
8 3 3 o 2.303 2.292 -90.00 0.90537 0.04
9 1 0 o 18.771 18.685 -90.00 0.90537 0.29
7 5 3 o 22.203 21.679 134.27 0.89990 0.66
9 1 1 o 176.826 172.653 135.00 0.89990 2.64
8 4 2 o 4.791 4.682 -88.58 0.89453 0.14
9 2 0 o 2.426 2.442 90.00 0.88925 0.03
7 6 0 o 3.732 3.757 90.00 0.88925 0.05
7 6 1 o 3.210 3.166 -137.98 0.88407 0.09
9 2 1 o 0.203 0.200 134.68 0.88407 0.01
6 5 5 o 0.250 0.247 0.00 0.88407 0.00
6 6 4 o 13.984 12.513 -180.00 0.87396 0.19
8 5 0 o 18.839 17.166 -180.00 0.86904 0.24
8 4 3 o 0.280 0.255 78.10 0.86904 0.01
9 2 2 o 0.202 0.184 45.00 0.86904 0.00
7 6 2 o 9.967 9.082 163.99 0.86904 0.26
8 5 1 o 0.710 0.673 151.71 0.86420 0.02
7 5 4 o 0.386 0.365 -110.04 0.86420 0.01
9 3 0 o 4.996 4.736 90.00 0.86420 0.06
9 3 1 o 94.294 89.105 45.49 0.85944 2.34
8 5 2 o 0.021 0.017 -51.11 0.85015 0.00
7 6 3 o 7.892 6.945 -16.16 0.84561 0.18
9 3 2 o 0.123 0.108 -170.17 0.84561 0.00
8 4 4 o 477.197 463.274 0.00 0.83676 5.32
9 4 1 o 13.097 12.916 72.00 0.82817 0.28
7 7 0 o 3.089 3.047 -90.00 0.82817 0.02
8 5 3 o 0.863 0.851 146.39 0.82817 0.02
6 6 5 o 2.505 2.459 -135.00 0.83243 0.03
9 4 0 o 10.062 9.877 -90.00 0.83243 0.11
7 5 5 o 75.112 72.068 -135.00 0.82398 0.79
7 7 1 o 0.631 0.606 135.00 0.82398 0.01
9 3 3 o 83.007 79.643 135.00 0.82398 0.87
8 6 0 o 0.070 0.067 180.00 0.81985 0.00
8 6 1 o 0.374 0.354 -170.30 0.81578 0.01
7 6 4 o 5.061 4.795 -87.57 0.81578 0.10
9 4 2 o 2.621 2.483 0.58 0.81578 0.05
10 1 0 o 2.521 2.389 -180.00 0.81578 0.03
7 7 2 o 27.473 25.325 0.00 0.81177 0.27
10 1 1 o 0.392 0.361 0.00 0.81177 0.00
8 6 2 o 4.345 3.797 -174.13 0.80393 0.08
10 2 0 o 0.029 0.026 0.00 0.80393 0.00
8 5 4 o 16.063 15.097 24.61 0.80009 0.30
10 2 1 o 0.024 0.023 112.42 0.80009 0.00
9 5 0 o 33.476 33.000 90.00 0.79631 0.31
9 4 3 o 4.924 4.854 119.54 0.79631 0.09
9 5 1 o 157.876 158.795 -44.71 0.79258 2.83
7 7 3 o 4.127 4.151 -135.00 0.79258 0.04
6 6 6 o 13.527 14.071 90.00 0.78890 0.04
10 2 2 o 15.531 16.156 -90.00 0.78890 0.14
10 3 0 o 0.229 0.255 -180.00 0.78527 0.00
8 6 3 o 3.095 3.445 177.82 0.78527 0.05
10 3 1 o 0.564 0.645 -144.68 0.78170 0.01
7 6 5 o 0.666 0.762 52.73 0.78170 0.01
9 5 2 o 0.479 0.549 7.48 0.78170 0.01
10 3 2 o 2.689 2.895 91.11 0.77125 0.04
8 7 0 o 0.022 0.024 0.00 0.77125 0.00
9 4 4 o 14.546 15.661 45.00 0.77125 0.12
8 5 5 o 3.800 3.989 -90.00 0.76786 0.03
8 7 1 o 1.612 1.692 -79.32 0.76786 0.03
7 7 4 o 1.018 1.068 90.00 0.76786 0.01
9 5 3 o 144.045 147.203 -135.60 0.76451 2.24
10 4 0 o 0.020 0.021 0.00 0.76121 0.00
8 6 4 o 4.305 4.662 85.32 0.76121 0.07
8 7 2 o 6.218 7.722 -88.70 0.75795 0.09
9 6 0 o 2.477 3.076 -90.00 0.75795 0.02
10 4 1 o 1.755 2.179 -96.46 0.75795 0.03
9 6 1 o 0.390 0.584 -34.34 0.75473 0.01
10 3 3 o 0.038 0.057 -180.00 0.75473 0.00
10 4 2 o 3.168 4.647 175.06 0.74842 0.05
7 6 6 o 9.143 11.038 -45.00 0.74532 0.06
9 6 2 o 1.123 1.355 -151.23 0.74532 0.02
8 7 3 o 0.659 0.725 69.39 0.74226 0.01
11 1 0 o 0.752 0.828 90.00 0.74226 0.01
9 5 4 o 26.140 28.769 -82.59 0.74226 0.36
7 7 5 o 2.472 2.717 -45.00 0.73923 0.02
11 1 1 o 1.749 1.921 45.00 0.73923 0.01
10 4 3 o 0.014 0.015 -165.15 0.73330 0.00
10 5 0 o 5.104 5.333 0.00 0.73330 0.03
8 6 5 o 0.300 0.314 -147.84 0.73330 0.00
11 2 0 o 6.640 6.938 90.00 0.73330 0.04
10 5 1 o 0.025 0.025 43.73 0.73038 0.00
9 6 3 o 0.264 0.264 -121.68 0.73038 0.00
11 2 1 o 11.939 11.939 -164.89 0.73038 0.15
8 8 0 o 364.657 368.187 0.00 0.72465 1.14
11 2 2 o 3.093 3.209 135.00 0.72184 0.02
8 8 1 o 2.104 2.183 45.00 0.72184 0.01
8 7 4 o 0.340 0.353 112.80 0.72184 0.00
10 5 2 o 2.117 2.197 -119.42 0.72184 0.03
11 3 0 o 2.006 2.086 -90.00 0.71906 0.01
9 7 0 o 0.771 0.801 -90.00 0.71906 0.00
9 5 5 o 202.117 206.367 135.00 0.71631 1.21
11 3 1 o 1.572 1.605 141.35 0.71631 0.02
9 7 1 o 66.876 68.282 -134.43 0.71631 0.80
8 8 2 o 12.365 12.826 90.00 0.71359 0.07
10 4 4 o 1.547 1.605 90.00 0.71359 0.01
9 6 4 o 2.265 2.441 78.41 0.71090 0.03
9 7 2 o 0.445 0.480 -5.26 0.70824 0.01
11 3 2 o 20.770 22.391 6.93 0.70824 0.24
10 5 3 o 0.200 0.216 166.64 0.70824 0.00
7 7 6 o 11.252 12.130 -180.00 0.70824 0.06
8 6 6 o 2.070 2.261 0.00 0.70302 0.01
10 6 0 o 14.938 16.317 180.00 0.70302 0.08
11 4 0 o 0.020 0.021 -90.00 0.70045 0.00
10 6 1 o 1.444 1.521 -125.59 0.70045 0.02
8 8 3 o 0.045 0.047 135.00 0.70045 0.00
11 4 1 o 1.294 1.306 64.98 0.69790 0.01
8 7 5 o 0.860 0.868 65.47 0.69790 0.01
11 4 2 o 6.966 6.561 178.61 0.69044 0.07
10 5 4 o 3.586 3.377 -167.56 0.69044 0.04
11 3 3 o 1.553 1.529 -135.00 0.69539 0.01
9 7 3 o 30.245 29.770 -44.69 0.69539 0.32
9 6 5 o 1.822 1.769 161.12 0.68800 0.02
10 6 2 o 32.167 30.632 90.00 0.69290 0.34
12 0 0 o 385.766 384.420 180.00 0.68321 0.48
8 8 4 o 403.469 402.061 -180.00 0.68321 2.00
12 1 0 o 5.026 5.109 -180.00 0.68085 0.02
10 6 3 o 1.202 1.222 -20.72 0.68085 0.01
9 8 0 o 23.256 23.642 90.00 0.68085 0.11
9 7 4 o 0.962 1.005 36.70 0.67851 0.01
9 8 1 o 7.246 7.571 -130.60 0.67851 0.07
11 4 3 o 0.902 0.943 120.32 0.67851 0.01
12 1 1 o 2.558 2.672 -90.00 0.67851 0.01
11 5 0 o 0.229 0.240 -90.00 0.67851 0.00
7 7 7 o 0.488 0.514 45.00 0.67620 0.00
11 5 1 o 19.129 20.141 -134.01 0.67620 0.18
12 2 0 o 0.010 0.010 -180.00 0.67391 0.00
9 8 2 o 1.641 1.768 -170.54 0.67165 0.02
12 2 1 o 5.572 6.003 -174.18 0.67165 0.05
8 7 6 o 5.159 5.558 99.84 0.67165 0.05
10 7 0 o 1.589 1.712 -180.00 0.67165 0.01
11 5 2 o 3.789 4.030 166.68 0.66941 0.03
10 5 5 o 1.127 1.198 180.00 0.66941 0.01
10 7 1 o 1.518 1.615 87.82 0.66941 0.01
10 6 4 o 4.994 5.168 2.43 0.66499 0.04
12 2 2 o 1.357 1.404 180.00 0.66499 0.01
8 8 5 o 13.738 13.781 -135.00 0.66281 0.06
9 6 6 o 3.959 3.971 45.00 0.66281 0.02
10 7 2 o 10.345 10.377 -78.26 0.66281 0.09
11 4 4 o 0.090 0.090 135.00 0.66281 0.00
12 3 0 o 0.138 0.139 180.00 0.66281 0.00
12 3 1 o 2.538 2.509 -94.77 0.66065 0.02
9 8 3 o 3.884 3.839 -21.18 0.66065 0.03
9 7 5 o 67.505 66.108 46.03 0.65852 0.58
11 5 3 o 3.962 3.880 -51.55 0.65852 0.03
12 3 2 o 10.989 10.569 -88.94 0.65431 0.09
11 6 0 o 7.624 7.332 -90.00 0.65431 0.03
10 7 3 o 1.393 1.356 -115.85 0.65224 0.01
11 6 1 o 9.215 8.974 38.06 0.65224 0.08
12 4 0 o 284.121 288.082 0.00 0.64815 1.14
12 4 1 o 2.555 2.612 88.18 0.64613 0.02
11 6 2 o 11.816 12.078 -18.96 0.64613 0.09
9 8 4 o 25.121 25.679 -115.58 0.64613 0.20
10 6 5 o 6.029 6.163 43.14 0.64613 0.05
12 3 3 o 0.930 0.955 90.00 0.64414 0.00
11 5 4 o 0.174 0.178 109.16 0.64414 0.00
8 7 7 o 0.210 0.216 -90.00 0.64414 0.00
9 9 0 o 47.862 49.179 -90.00 0.64414 0.09
9 9 1 o 174.584 178.098 135.00 0.64216 0.68
10 8 0 o 0.216 0.217 -180.00 0.64020 0.00
12 4 2 o 5.371 5.384 91.91 0.64020 0.04
8 8 6 o 12.583 12.615 -90.00 0.64020 0.05
10 7 4 o 1.683 1.635 -5.10 0.63825 0.01
10 8 1 o 0.222 0.216 47.65 0.63825 0.00
11 6 3 o 15.684 14.586 151.08 0.63633 0.12
9 7 6 o 0.411 0.382 -129.36 0.63633 0.00
9 9 2 o 1.638 1.523 -180.00 0.63633 0.01
10 8 2 o 0.339 0.311 -49.38 0.63253 0.00
12 4 3 o 0.524 0.491 -153.09 0.63065 0.00
12 5 0 o 14.601 13.703 0.00 0.63065 0.05
12 5 1 o 1.456 1.402 50.82 0.62880 0.01
9 8 5 o 10.878 10.472 68.95 0.62880 0.08
13 1 0 o 27.082 26.072 90.00 0.62880 0.10
11 7 0 o 1.121 1.080 90.00 0.62880 0.00
11 7 1 o 0.375 0.366 117.73 0.62696 0.00
11 5 5 o 22.020 21.513 45.00 0.62696 0.08
9 9 3 o 121.541 118.744 45.00 0.62696 0.43
13 1 1 o 121.440 118.645 -45.00 0.62696 0.43
10 6 6 o 44.831 43.880 -90.00 0.62513 0.16
12 5 2 o 0.840 0.821 -82.61 0.62332 0.01
11 6 4 o 6.601 6.458 95.76 0.62332 0.05
13 2 0 o 2.331 2.281 -90.00 0.62332 0.01
10 8 3 o 0.339 0.332 99.33 0.62332 0.00
10 7 5 o 1.491 1.462 -105.29 0.62153 0.01
13 2 1 o 1.230 1.206 -12.73 0.62153 0.01
11 7 2 o 28.942 28.373 -175.40 0.62153 0.20
12 4 4 o 316.508 315.693 180.00 0.61799 1.05
13 2 2 o 0.166 0.166 -135.00 0.61624 0.00
8 8 7 o 2.895 2.903 -45.00 0.61624 0.01
12 5 3 o 2.607 2.619 -57.67 0.61450 0.02
9 9 4 o 33.625 33.792 90.00 0.61450 0.11
13 3 0 o 12.939 13.003 -90.00 0.61450 0.04
11 7 3 o 0.028 0.028 73.34 0.61279 0.00
9 7 7 o 27.631 27.548 135.00 0.61279 0.09
13 3 1 o 112.952 112.614 -133.98 0.61279 0.72
12 6 0 o 0.126 0.125 0.00 0.61108 0.00
10 8 4 o 4.503 4.463 -81.22 0.61108 0.03
12 6 1 o 3.229 3.198 2.70 0.60939 0.02
10 9 0 o 2.575 2.550 -180.00 0.60939 0.01
9 8 6 o 2.408 2.385 9.69 0.60939 0.02
11 6 5 o 5.134 4.997 -125.16 0.60771 0.03
10 9 1 o 1.689 1.644 -145.23 0.60771 0.01
13 3 2 o 1.233 1.200 -24.21 0.60771 0.01
12 6 2 o 0.113 0.109 69.34 0.60440 0.00
10 9 2 o 3.417 3.403 67.96 0.60277 0.02
10 7 6 o 6.290 6.265 116.16 0.60277 0.04
11 8 0 o 0.015 0.014 90.00 0.60277 0.00
12 5 4 o 13.052 12.999 -165.64 0.60277 0.08
13 4 0 o 8.863 8.826 90.00 0.60277 0.03
13 4 1 o 25.512 26.068 -109.87 0.60114 0.15
11 7 4 o 1.103 1.127 -106.44 0.60114 0.01
11 8 1 o 0.763 0.780 -144.71 0.60114 0.00
9 9 5 o 138.590 143.349 -45.00 0.59953 0.41
13 3 3 o 66.041 68.309 -45.00 0.59953 0.19
13 4 2 o 2.657 2.694 -174.41 0.59635 0.02
12 6 3 o 6.438 6.527 -11.66 0.59635 0.04
11 8 2 o 4.937 5.006 -6.33 0.59635 0.03
10 8 5 o 2.022 2.050 -105.04 0.59635 0.01
10 9 3 o 0.134 0.134 134.04 0.59478 0.00
8 8 8 o 250.057 253.314 0.00 0.59168 0.23
11 6 6 o 12.679 12.890 135.00 0.59014 0.03
12 7 0 o 0.070 0.072 -180.00 0.59014 0.00
13 4 3 o 11.687 11.890 -60.29 0.58862 0.06
13 5 0 o 42.879 43.623 -90.00 0.58862 0.12
11 8 3 o 0.790 0.804 -27.36 0.58862 0.00
12 7 1 o 0.846 0.861 101.17 0.58862 0.00
9 8 7 o 1.500 1.526 179.22 0.58862 0.01
12 5 5 o 0.061 0.062 -90.00 0.58862 0.00
13 5 1 o 148.869 151.136 135.90 0.58711 0.80
11 7 5 o 4.878 4.952 141.20 0.58711 0.03
12 6 4 o 5.372 5.386 -96.88 0.58561 0.03
12 7 2 o 8.747 8.575 96.53 0.58412 0.05
10 9 4 o 3.473 3.404 12.66 0.58412 0.02
14 1 0 o 8.816 8.643 0.00 0.58412 0.02
14 1 1 o 0.605 0.576 180.00 0.58264 0.00
9 9 6 o 4.007 3.816 0.00 0.58264 0.01
13 5 2 o 1.844 1.756 -163.23 0.58264 0.01
10 7 7 o 1.534 1.461 0.00 0.58264 0.00
14 2 0 o 3.439 3.187 180.00 0.57972 0.01
10 10 0 o 11.742 10.882 0.00 0.57972 0.02
10 8 6 o 15.637 14.490 176.53 0.57972 0.08
14 2 1 o 2.175 2.051 -150.72 0.57828 0.01
11 8 4 o 0.999 0.943 -38.20 0.57828 0.01
13 4 4 o 16.306 15.382 -135.00 0.57828 0.04
10 10 1 o 5.281 4.981 45.00 0.57828 0.01
12 6 5 o 0.092 0.090 -159.54 0.57261 0.00
13 6 0 o 1.235 1.210 90.00 0.57261 0.00
14 3 0 o 2.467 2.418 0.00 0.57261 0.01
12 7 3 o 0.159 0.153 -141.19 0.57684 0.00
11 9 0 o 0.160 0.154 -90.00 0.57684 0.00
14 3 1 o 2.066 2.044 13.70 0.57122 0.01
11 9 2 o 1.609 1.591 -28.08 0.57122 0.01
13 6 1 o 3.027 2.993 142.36 0.57122 0.01
11 7 6 o 15.991 15.814 14.32 0.57122 0.08
10 9 5 o 4.995 4.939 10.93 0.57122 0.02
13 5 3 o 106.222 102.850 42.95 0.57542 0.53
11 9 1 o 24.723 23.938 45.09 0.57542 0.12
14 2 2 o 70.673 68.600 90.00 0.57401 0.17
10 10 2 o 63.032 61.183 -90.00 0.57401 0.16
12 8 0 o 259.350 257.829 -180.00 0.56846 0.62
13 6 2 o 0.816 0.809 26.97 0.56710 0.00
12 8 1 o 0.795 0.788 -94.56 0.56710 0.00
10 10 3 o 0.187 0.185 -45.00 0.56710 0.00
9 8 8 o 22.738 22.521 45.00 0.56710 0.05
12 7 4 o 2.106 2.086 -55.05 0.56710 0.01
14 3 2 o 0.110 0.109 -98.33 0.56710 0.00
11 8 5 o 0.484 0.477 65.46 0.56575 0.00
13 5 4 o 33.305 32.838 104.25 0.56575 0.16
9 9 7 o 92.738 90.399 -135.00 0.56441 0.21
11 9 3 o 25.980 25.325 132.70 0.56441 0.12
12 8 2 o 15.494 14.834 -89.59 0.56308 0.07
14 4 0 o 0.041 0.039 -180.00 0.56308 0.00
10 8 7 o 3.303 3.120 -83.21 0.56175 0.01
14 4 1 o 5.886 5.559 78.69 0.56175 0.03
14 3 3 o 2.773 2.591 0.00 0.56044 0.01
13 6 3 o 1.594 1.489 30.41 0.56044 0.01
12 6 6 o 9.431 8.876 -180.00 0.55784 0.02
14 4 2 o 0.202 0.190 -22.34 0.55784 0.00
10 10 4 o 23.252 21.884 -180.00 0.55784 0.05
12 8 3 o 2.360 2.263 -30.42 0.55655 0.01
10 9 6 o 10.548 10.117 -133.65 0.55655 0.05
13 7 0 o 3.506 3.414 90.00 0.55527 0.01
12 7 5 o 1.649 1.606 -106.06 0.55527 0.01
11 9 4 o 0.159 0.155 147.67 0.55527 0.00
13 5 5 o 127.019 123.747 -45.00 0.55400 0.27
13 7 1 o 59.567 58.033 46.83 0.55400 0.26
11 7 7 o 0.409 0.398 -135.00 0.55400 0.00
11 10 0 o 6.310 6.024 90.00 0.55149 0.01
13 6 4 o 2.219 2.119 -101.10 0.55149 0.01
14 4 3 o 2.280 2.177 -80.64 0.55149 0.01
11 8 6 o 5.896 5.629 169.79 0.55149 0.02
14 5 0 o 7.266 6.937 -180.00 0.55149 0.02
13 7 2 o 1.203 1.158 -175.27 0.55025 0.01
11 10 1 o 7.689 7.397 -106.64 0.55025 0.03
14 5 1 o 0.153 0.148 -155.71 0.55025 0.00
12 8 4 o 201.964 201.163 0.00 0.54779 0.83
14 5 2 o 5.679 5.675 71.22 0.54657 0.02
10 10 5 o 15.792 15.781 -135.00 0.54657 0.03
12 9 0 o 24.663 24.645 -180.00 0.54657 0.05
11 10 2 o 13.591 13.581 171.50 0.54657 0.06
12 9 1 o 3.887 3.856 177.59 0.54536 0.02
15 1 0 o 0.281 0.279 -90.00 0.54536 0.00
9 9 8 o 16.409 16.282 -90.00 0.54536 0.03
15 1 1 o 5.727 5.606 -135.00 0.54415 0.01
13 7 3 o 60.711 59.422 134.76 0.54415 0.24
11 9 5 o 43.317 42.398 -136.02 0.54415 0.17
14 4 4 o 1.449 1.396 -90.00 0.54296 0.00
10 8 8 o 12.526 12.066 90.00 0.54296 0.02
12 9 2 o 0.910 0.866 -86.45 0.54177 0.00
12 7 6 o 7.374 7.010 -79.27 0.54177 0.03
15 2 0 o 5.374 5.109 -90.00 0.54177 0.01
15 2 1 o 14.463 13.625 13.76 0.54059 0.06
14 5 3 o 0.580 0.547 -19.59 0.54059 0.00
11 10 3 o 7.021 6.614 -58.30 0.54059 0.03
10 9 7 o 0.058 0.055 110.36 0.54059 0.00
13 6 5 o 4.206 3.962 -20.85 0.54059 0.02
14 6 0 o 5.116 4.907 0.00 0.53826 0.01
13 8 0 o 24.258 23.780 -90.00 0.53710 0.05
14 6 1 o 5.380 5.273 41.97 0.53710 0.02
15 2 2 o 2.576 2.526 -45.00 0.53710 0.00
12 8 5 o 6.593 6.463 61.34 0.53710 0.02
13 8 1 o 17.912 17.717 46.35 0.53595 0.07
13 7 4 o 4.683 4.632 -127.62 0.53595 0.02
12 9 3 o 3.711 3.670 168.48 0.53595 0.01
15 3 0 o 0.514 0.508 90.00 0.53595 0.00
11 8 7 o 0.280 0.277 -148.24 0.53595 0.00
15 3 1 o 0.546 0.545 -23.42 0.53481 0.00
10 10 6 o 67.512 68.380 90.00 0.53368 0.12
14 6 2 o 78.643 79.653 -90.00 0.53368 0.29
11 10 4 o 6.193 6.388 -85.43 0.53255 0.02
14 5 4 o 7.056 7.278 10.89 0.53255 0.03
13 8 2 o 4.097 4.226 2.18 0.53255 0.01
15 3 2 o 20.199 21.365 -166.75 0.53143 0.07
11 9 6 o 1.252 1.324 128.68 0.53143 0.00
13 6 6 o 3.047 3.247 -135.00 0.52811 0.01
12 9 4 o 19.594 20.885 16.63 0.52811 0.07
14 6 3 o 0.658 0.701 -64.97 0.52811 0.00
15 4 0 o 0.033 0.036 -90.00 0.52811 0.00
12 7 7 o 0.731 0.767 -90.00 0.52702 0.00
15 4 1 o 0.510 0.535 -165.78 0.52702 0.00
13 8 3 o 11.498 12.067 142.29 0.52702 0.04
11 11 0 o 1.732 1.817 -90.00 0.52702 0.00
13 7 5 o 76.735 80.511 -132.29 0.52593 0.27
11 11 1 o 0.483 0.507 135.00 0.52593 0.00
9 9 9 o 120.856 126.805 135.00 0.52593 0.07
15 3 3 o 0.912 0.957 -135.00 0.52593 0.00
12 10 0 o 0.456 0.488 180.00 0.52486 0.00
12 8 6 o 13.817 14.786 91.68 0.52486 0.05
14 7 0 o 0.007 0.007 0.00 0.52378 0.00
12 10 1 o 0.251 0.277 -165.79 0.52378 0.00
10 9 8 o 2.429 2.680 -153.19 0.52378 0.01
15 4 2 o 3.533 3.898 -3.90 0.52378 0.01
11 11 2 o 20.989 23.595 0.00 0.52272 0.04
14 5 5 o 2.917 3.279 0.00 0.52272 0.00
14 7 1 o 3.016 3.390 -135.64 0.52272 0.01
11 10 5 o 3.471 3.902 81.32 0.52272 0.01
12 10 2 o 3.077 3.418 -157.92 0.52061 0.01
14 6 4 o 10.667 11.852 -178.54 0.52061 0.04
10 10 7 o 2.374 2.623 -45.00 0.51956 0.00
11 8 8 o 2.327 2.571 135.00 0.51956 0.00
13 8 4 o 21.447 23.693 64.54 0.51956 0.07
14 7 2 o 2.577 2.847 90.21 0.51956 0.01
15 5 0 o 0.054 0.060 -90.00 0.51852 0.00
13 9 0 o 36.362 40.419 90.00 0.51852 0.06
12 9 5 o 2.220 2.467 -37.93 0.51852 0.01
15 4 3 o 0.997 1.108 -45.13 0.51852 0.00
11 9 7 o 10.258 11.518 -49.04 0.51749 0.03
11 11 3 o 0.039 0.043 -135.00 0.51749 0.00
13 9 1 o 98.660 110.781 -43.79 0.51749 0.32
15 5 1 o 6.024 6.764 48.46 0.51749 0.02
12 10 3 o 2.110 2.403 171.52 0.51544 0.01
14 7 3 o 2.029 2.287 143.89 0.51442 0.01
15 5 2 o 5.461 6.156 -24.59 0.51442 0.02
13 7 6 o 0.791 0.892 -24.03 0.51442 0.00
13 9 2 o 1.978 2.230 4.81 0.51442 0.01
16 0 0 o 139.889 149.510 0.00 0.51241 0.05
16 1 0 o 0.470 0.497 0.00 0.51141 0.00
12 8 7 o 4.954 5.244 144.84 0.51141 0.02
11 10 6 o 10.770 11.400 -29.96 0.51141 0.03
15 4 4 o 0.009 0.009 -45.00 0.51141 0.00
14 6 5 o 13.075 13.840 -137.67 0.51141 0.04
13 8 5 o 20.323 21.519 -119.98 0.51042 0.06
11 11 4 o 0.345 0.365 90.00 0.51042 0.00
16 1 1 o 3.876 4.104 90.00 0.51042 0.01
15 5 3 o 7.335 7.791 126.15 0.50943 0.02
13 9 3 o 107.574 114.259 -136.75 0.50943 0.33
16 2 0 o 0.002 0.002 0.00 0.50845 0.00
12 10 4 o 5.091 5.422 75.96 0.50845 0.02
14 8 0 o 0.403 0.429 0.00 0.50845 0.00
15 6 0 o 6.501 6.917 90.00 0.50747 0.01
14 7 4 o 0.205 0.218 -166.27 0.50747 0.00
16 2 1 o 10.479 11.149 1.48 0.50747 0.03
14 8 1 o 2.771 2.949 -107.90 0.50747 0.01
12 9 6 o 1.135 1.207 70.76 0.50747 0.00
15 6 1 o 14.507 15.227 -134.44 0.50651 0.04
10 9 9 o 8.191 8.598 180.00 0.50651 0.01
10 10 8 o 11.517 11.582 0.00 0.50458 0.02
16 2 2 o 0.065 0.066 180.00 0.50458 0.00
14 8 2 o 2.831 2.847 164.37 0.50458 0.01
16 3 0 o 0.060 0.060 -180.00 0.50363 0.00
12 11 0 o 0.267 0.267 0.00 0.50363 0.00
15 6 2 o 8.327 8.322 163.53 0.50363 0.02
13 9 4 o 35.903 35.916 -82.88 0.50268 0.10
11 9 8 o 0.352 0.352 12.85 0.50268 0.00
15 5 4 o 0.223 0.223 7.07 0.50268 0.00
16 3 1 o 2.270 2.271 83.85 0.50268 0.01
12 11 1 o 0.634 0.635 -21.43 0.50268 0.00
13 7 7 o 35.010 35.187 -45.00 0.50174 0.05
11 11 5 o 1.184 1.190 -45.00 0.50174 0.00
14 6 6 o 84.295 85.458 90.00 0.50080 0.12
14 8 3 o 0.320 0.327 130.80 0.49987 0.00
12 11 2 o 3.138 3.214 -82.94 0.49987 0.01
13 10 0 o 0.550 0.563 -90.00 0.49987 0.00
12 10 5 o 0.249 0.255 -134.68 0.49987 0.00
13 8 6 o 3.218 3.296 -161.61 0.49987 0.01
16 3 2 o 13.446 13.770 95.97 0.49987 0.04
11 10 7 o 3.875 4.015 137.75 0.49895 0.01
13 10 1 o 4.567 4.732 -28.84 0.49895 0.01
15 6 3 o 17.123 17.741 -35.57 0.49895 0.05
14 7 5 o 1.706 1.768 38.75 0.49895 0.00
16 4 0 o 153.094 165.412 -180.00 0.49711 0.21
12 8 8 o 180.122 194.614 -180.00 0.49711 0.25
13 10 2 o 2.057 2.283 -150.88 0.49620 0.01
16 4 1 o 0.586 0.650 -58.86 0.49620 0.00
12 9 7 o 2.078 2.363 -28.36 0.49529 0.01
12 11 3 o 0.847 0.964 -43.81 0.49529 0.00
16 3 3 o 0.325 0.370 -90.00 0.49529 0.00
15 7 0 o 1.517 1.725 -90.00 0.49529 0.00
15 5 5 o 14.295 16.480 -135.00 0.49439 0.02
15 7 1 o 1.578 1.819 154.79 0.49439 0.00
13 9 5 o 97.016 111.843 135.50 0.49439 0.26
14 8 4 o 3.537 4.070 103.17 0.49349 0.01
16 4 2 o 2.949 3.394 -89.13 0.49349 0.01
14 9 0 o 2.859 3.245 0.00 0.49260 0.00
15 6 4 o 5.259 5.968 -83.51 0.49260 0.01
13 10 3 o 2.012 2.235 -135.02 0.49171 0.01
14 9 1 o 2.404 2.671 16.58 0.49171 0.01
15 7 2 o 18.581 20.642 8.27 0.49171 0.05
11 11 6 o 10.425 11.582 -180.00 0.49171 0.01
12 10 6 o 5.812 6.079 9.22 0.48995 0.02
12 11 4 o 1.702 1.700 116.19 0.48908 0.00
10 10 9 o 17.820 17.798 45.00 0.48908 0.02
14 9 2 o 7.044 7.036 -113.45 0.48908 0.02
14 7 6 o 1.290 1.289 -72.67 0.48908 0.00
16 5 0 o 5.465 5.458 -180.00 0.48908 0.01
16 4 3 o 1.748 1.746 -31.99 0.48908 0.00
13 8 7 o 6.007 5.718 -23.98 0.48821 0.02
16 5 1 o 4.495 4.278 -107.89 0.48821 0.01
15 7 3 o 0.228 0.210 15.54 0.48735 0.00
11 9 9 o 38.270 35.239 45.00 0.48735 0.05
13 10 4 o 0.986 0.899 53.70 0.48564 0.00
16 5 2 o 3.584 3.266 82.19 0.48564 0.01
11 10 8 o 5.748 5.237 103.43 0.48564 0.01
14 8 5 o 4.206 3.833 63.83 0.48564 0.01
13 9 6 o 5.024 4.667 -168.73 0.48479 0.01
14 9 3 o 0.222 0.206 -61.65 0.48479 0.00
15 6 5 o 8.303 7.713 51.09 0.48479 0.02
12 12 0 o 141.825 137.704 0.00 0.48310 0.09
16 4 4 o 134.154 130.257 0.00 0.48310 0.17
15 8 0 o 0.033 0.033 90.00 0.48227 0.00
12 12 1 o 0.303 0.297 -135.00 0.48227 0.00
12 9 8 o 16.486 16.149 -147.93 0.48227 0.04
17 1 0 o 28.533 27.934 -90.00 0.48143 0.03
16 5 3 o 3.767 3.688 110.69 0.48143 0.01
12 11 5 o 0.479 0.469 108.54 0.48143 0.00
13 11 0 o 1.041 1.020 -90.00 0.48143 0.00
15 7 4 o 0.732 0.716 51.64 0.48143 0.00
15 8 1 o 1.369 1.340 5.16 0.48143 0.00
17 1 1 o 96.116 93.334 135.00 0.48061 0.12
11 11 7 o 2.436 2.366 -135.00 0.48061 0.00
13 11 1 o 43.178 41.928 -133.59 0.48061 0.10
16 6 0 o 0.059 0.057 180.00 0.47978 0.00
12 12 2 o 18.399 17.648 90.00 0.47978 0.02
17 2 0 o 0.961 0.912 90.00 0.47896 0.00
16 6 1 o 7.055 6.695 -166.54 0.47896 0.02
15 8 2 o 1.741 1.652 171.39 0.47896 0.00
12 10 7 o 4.116 3.906 -18.78 0.47896 0.01
14 9 4 o 2.907 2.759 -156.65 0.47896 0.01
13 11 2 o 1.205 1.137 1.24 0.47815 0.00
13 10 5 o 8.405 7.935 160.14 0.47815 0.02
14 7 7 o 1.088 1.027 0.00 0.47815 0.00
17 2 1 o 2.903 2.741 160.08 0.47815 0.01
16 6 2 o 1.915 1.817 -163.41 0.47653 0.00
14 10 0 o 18.368 17.433 -180.00 0.47653 0.02
14 8 6 o 5.811 5.515 -6.92 0.47653 0.01
17 2 2 o 0.007 0.007 45.00 0.47573 0.00
16 5 4 o 3.635 3.489 6.32 0.47573 0.01
14 10 1 o 13.990 13.428 -134.49 0.47573 0.03
13 8 8 o 24.661 23.669 -135.00 0.47573 0.03
15 6 6 o 10.621 10.194 -45.00 0.47573 0.01
12 12 3 o 4.476 4.296 135.00 0.47573 0.01
15 8 3 o 1.283 1.254 -171.76 0.47493 0.00
17 3 0 o 14.017 13.693 90.00 0.47493 0.02
13 11 3 o 30.659 30.550 -43.82 0.47413 0.07
13 9 7 o 65.814 65.579 42.43 0.47413 0.15
15 7 5 o 2.835 2.825 -24.63 0.47413 0.01
17 3 1 o 68.255 68.011 46.97 0.47413 0.16
14 10 2 o 95.580 96.782 90.00 0.47334 0.22
10 10 10 o 77.356 78.329 -90.00 0.47334 0.03
12 11 6 o 3.817 3.905 112.60 0.47255 0.01
16 6 3 o 9.420 9.639 169.28 0.47255 0.02
11 10 9 o 1.912 1.966 -93.29 0.47177 0.00
14 9 5 o 8.405 8.645 -172.70 0.47177 0.02
17 3 2 o 3.131 3.220 171.62 0.47177 0.01
12 10 8 o 14.384 14.062 -93.97 0.46715 0.03
16 6 4 o 3.530 3.451 84.58 0.46715 0.01
16 7 2 o 8.420 8.225 -85.30 0.46640 0.02
17 4 2 o 1.811 1.769 3.90 0.46640 0.00
14 8 7 o 0.545 0.532 91.58 0.46640 0.00
12 12 4 o 154.144 157.123 180.00 0.47022 0.17
15 9 2 o 1.721 1.683 157.85 0.46564 0.00
15 7 6 o 14.635 14.316 -149.09 0.46564 0.03
14 10 3 o 2.635 2.657 134.58 0.46945 0.01
16 7 0 o 1.011 1.019 0.00 0.46945 0.00
15 8 4 o 0.178 0.179 -173.56 0.46945 0.00
13 10 6 o 6.554 6.608 45.51 0.46945 0.01
17 4 0 o 5.589 5.635 -90.00 0.46945 0.01
11 11 8 o 0.014 0.014 90.00 0.46868 0.00
13 11 4 o 1.463 1.458 43.76 0.46868 0.00
15 9 0 o 0.397 0.396 90.00 0.46868 0.00
17 4 1 o 25.889 25.798 65.13 0.46868 0.06
12 9 9 o 1.684 1.678 90.00 0.46868 0.00
16 7 1 o 0.490 0.488 -82.69 0.46868 0.00
16 5 5 o 2.359 2.351 90.00 0.46868 0.00
14 10 4 o 10.489 10.345 0.06 0.46415 0.02
17 3 3 o 70.249 69.189 135.00 0.46791 0.08
15 9 1 o 19.380 19.088 -133.48 0.46791 0.04
12 12 5 o 2.563 2.566 -135.00 0.46341 0.00
14 9 6 o 14.519 14.536 47.13 0.46341 0.03
13 12 0 o 23.946 23.973 90.00 0.46341 0.03
13 9 8 o 15.440 15.720 108.38 0.46267 0.03
13 12 1 o 11.474 11.682 -154.40 0.46267 0.02
12 11 7 o 1.490 1.517 109.57 0.46267 0.00
16 7 3 o 0.364 0.371 -76.60 0.46267 0.00
15 8 5 o 0.492 0.501 171.11 0.46267 0.00
17 4 3 o 16.664 16.966 119.21 0.46267 0.03
17 5 0 o 30.864 31.422 90.00 0.46267 0.03
15 9 3 o 11.801 12.154 -51.90 0.46193 0.02
13 11 5 o 33.523 34.526 48.72 0.46193 0.07
17 5 1 o 77.728 80.053 -42.81 0.46193 0.16
13 12 2 o 4.989 5.103 -173.82 0.46047 0.01
16 6 5 o 1.531 1.567 6.43 0.46047 0.00
14 11 0 o 4.248 4.346 -180.00 0.46047 0.00
14 11 1 o 5.134 5.184 74.62 0.45975 0.01
17 5 2 o 1.946 1.965 13.15 0.45975 0.00
13 10 7 o 0.336 0.340 21.27 0.45975 0.00
16 8 0 o 113.370 111.922 0.00 0.45831 0.11
16 7 4 o 3.051 3.002 123.21 0.45760 0.01
11 10 10 o 4.868 4.790 135.00 0.45760 0.00
14 10 5 o 22.258 21.901 45.60 0.45760 0.04
17 4 4 o 9.265 9.117 45.00 0.45760 0.01
16 8 1 o 0.777 0.764 -171.55 0.45760 0.00
14 11 2 o 6.068 5.971 -81.16 0.45760 0.01
15 9 4 o 0.354 0.348 -88.71 0.45688 0.00
13 12 3 o 9.588 9.417 -14.09 0.45688 0.02
11 11 9 o 13.892 13.541 135.00 0.45618 0.01
17 5 3 o 84.480 82.347 -138.82 0.45618 0.17
15 7 7 o 3.395 3.310 -135.00 0.45618 0.00
12 12 6 o 18.211 17.447 -90.00 0.45547 0.02
16 8 2 o 10.059 9.637 89.78 0.45547 0.02
14 8 8 o 10.967 10.506 -90.00 0.45547 0.01
17 6 0 o 0.238 0.222 -90.00 0.45477 0.00
12 10 9 o 2.221 2.075 18.81 0.45477 0.00
18 1 0 o 12.431 11.614 -180.00 0.45477 0.01
15 10 0 o 10.691 9.988 -90.00 0.45477 0.01
15 8 6 o 3.486 3.257 -19.23 0.45477 0.01
13 11 6 o 1.057 0.963 -143.39 0.45407 0.00
15 10 1 o 14.288 13.020 65.95 0.45407 0.03
17 6 1 o 4.918 4.481 -30.22 0.45407 0.01
14 11 3 o 5.370 4.893 -73.91 0.45407 0.01
14 9 7 o 0.426 0.388 -35.79 0.45407 0.00
18 1 1 o 0.499 0.455 0.00 0.45407 0.00
16 6 6 o 3.098 2.784 0.00 0.45269 0.00
18 2 0 o 0.079 0.071 0.00 0.45269 0.00
17 6 2 o 0.117 0.107 -131.29 0.45200 0.00
13 12 4 o 25.090 22.806 -106.46 0.45200 0.05
12 11 8 o 6.842 6.219 -54.50 0.45200 0.01
15 10 2 o 11.704 10.639 -10.68 0.45200 0.02
18 2 1 o 8.605 7.822 12.61 0.45200 0.02
16 8 3 o 4.633 4.211 151.80 0.45200 0.01
17 5 4 o 34.406 31.819 -70.87 0.45131 0.06
16 7 5 o 2.097 1.939 73.81 0.45131 0.00
15 9 5 o 15.576 14.699 43.88 0.45063 0.03
13 9 9 o 68.897 65.021 -45.00 0.45063 0.06
18 2 2 o 120.508 115.904 -90.00 0.44995 0.11
14 10 6 o 96.307 92.628 -90.00 0.44995 0.18
14 11 4 o 4.000 3.905 -3.34 0.44928 0.01
13 10 8 o 2.589 2.527 -118.64 0.44928 0.00
18 3 0 o 8.059 7.868 -180.00 0.44928 0.01
17 6 3 o 4.381 4.329 -147.18 0.44860 0.01
15 10 3 o 14.044 13.875 116.54 0.44860 0.03
18 3 1 o 2.829 2.795 -169.81 0.44860 0.01
16 8 4 o 125.884 127.264 -179.99 0.44727 0.23
18 3 2 o 3.176 3.258 -73.93 0.44660 0.01
12 12 7 o 10.018 10.274 -45.00 0.44660 0.01
16 9 0 o 10.068 10.326 0.00 0.44660 0.01
13 12 5 o 8.780 9.127 32.44 0.44594 0.02
17 7 0 o 5.214 5.421 -90.00 0.44594 0.00
16 9 1 o 3.490 3.628 35.00 0.44594 0.01
13 13 0 o 30.579 31.788 -90.00 0.44594 0.01
15 8 7 o 0.625 0.650 -4.21 0.44594 0.00
13 11 7 o 32.619 34.148 136.96 0.44528 0.06
13 13 1 o 87.061 91.143 135.00 0.44528 0.08
17 5 5 o 79.161 82.873 135.00 0.44528 0.07
17 7 1 o 55.824 58.442 -132.21 0.44528 0.10
14 12 0 o 1.068 1.115 -180.00 0.44463 0.00
18 4 0 o 0.046 0.048 0.00 0.44463 0.00
16 9 2 o 0.063 0.065 68.23 0.44397 0.00
17 6 4 o 0.661 0.682 61.35 0.44397 0.00
16 7 6 o 6.555 6.763 109.54 0.44397 0.01
14 12 1 o 0.345 0.356 40.88 0.44397 0.00
14 9 8 o 3.331 3.437 29.60 0.44397 0.01
15 10 4 o 8.164 8.423 96.91 0.44397 0.01
18 4 1 o 10.533 10.868 -100.24 0.44397 0.02
14 11 5 o 4.058 4.107 -109.39 0.44332 0.01
13 13 2 o 2.014 2.038 180.00 0.44332 0.00
18 3 3 o 4.703 4.759 -180.00 0.44332 0.00
15 9 6 o 3.937 3.984 -63.18 0.44332 0.01
11 11 10 o 1.536 1.555 0.00 0.44332 0.00
17 7 2 o 3.443 3.485 -10.56 0.44332 0.01
12 10 10 o 18.413 17.757 180.00 0.44203 0.02
14 12 2 o 1.159 1.118 -54.44 0.44203 0.00
18 4 2 o 1.302 1.256 -179.51 0.44203 0.00
14 10 7 o 0.050 0.047 -78.98 0.44139 0.00
16 8 5 o 1.903 1.807 -104.04 0.44139 0.00
16 9 3 o 4.396 4.161 -40.05 0.44075 0.01
12 11 9 o 0.686 0.650 -130.09 0.44075 0.00
15 11 0 o 1.658 1.569 90.00 0.44075 0.00
15 11 1 o 0.970 0.923 -22.03 0.44012 0.00
13 13 3 o 82.283 78.289 45.00 0.44012 0.07
17 7 3 o 48.970 46.593 -45.64 0.44012 0.08
13 12 6 o 4.852 4.701 9.91 0.43886 0.01
14 12 3 o 0.078 0.076 86.00 0.43886 0.00
18 4 3 o 5.468 5.298 102.12 0.43886 0.01
18 5 0 o 10.124 9.809 0.00 0.43886 0.01
15 10 5 o 9.835 9.668 -106.54 0.43823 0.02
15 11 2 o 11.717 11.518 -173.68 0.43823 0.02
13 10 9 o 10.319 10.144 -7.54 0.43823 0.02
17 6 5 o 4.429 4.354 149.53 0.43823 0.01
18 5 1 o 0.456 0.449 0.42 0.43823 0.00
12 12 8 o 122.302 123.416 0.00 0.43698 0.10
17 8 0 o 14.544 14.717 90.00 0.43636 0.01
16 9 4 o 9.589 9.703 -167.51 0.43636 0.02
15 8 8 o 1.152 1.165 -45.00 0.43636 0.00
18 5 2 o 11.418 11.554 -107.95 0.43636 0.02
14 11 6 o 3.078 3.115 106.58 0.43636 0.01
16 7 7 o 2.419 2.439 90.00 0.43575 0.00
13 13 4 o 22.062 22.240 90.00 0.43575 0.02
13 11 8 o 2.007 2.023 -160.81 0.43575 0.00
17 8 1 o 25.696 25.903 -133.46 0.43575 0.04
17 7 4 o 6.943 6.999 51.30 0.43575 0.01
15 11 3 o 3.375 3.379 -142.58 0.43513 0.01
15 9 7 o 14.543 14.559 126.23 0.43513 0.02
16 8 6 o 9.659 9.602 -89.28 0.43452 0.02
16 10 0 o 0.398 0.395 0.00 0.43452 0.00
14 12 4 o 5.249 5.218 -67.57 0.43452 0.01
18 4 4 o 1.114 1.108 90.00 0.43452 0.00
17 8 2 o 4.458 4.412 -172.93 0.43391 0.01
16 10 1 o 2.199 2.176 13.83 0.43391 0.00
18 5 3 o 0.543 0.536 169.26 0.43330 0.00
14 9 9 o 15.470 15.289 0.00 0.43330 0.01
14 10 8 o 16.401 16.332 -178.94 0.43210 0.03
16 10 2 o 1.226 1.220 55.00 0.43210 0.00
18 6 0 o 5.185 5.164 -180.00 0.43210 0.00
18 6 1 o 13.059 13.105 -144.91 0.43150 0.02
15 10 6 o 7.364 7.390 153.37 0.43150 0.01
17 6 6 o 0.747 0.750 45.00 0.43150 0.00
17 8 3 o 18.144 18.403 -38.76 0.43090 0.03
13 12 7 o 4.922 4.992 172.99 0.43090 0.01
16 9 5 o 1.918 1.945 -137.90 0.43090 0.00
15 11 4 o 1.395 1.415 -101.91 0.43090 0.00
19 1 0 o 0.019 0.019 -90.00 0.43090 0.00
19 1 1 o 5.501 5.660 45.00 0.43031 0.00
13 13 5 o 59.497 61.214 -45.00 0.43031 0.05
17 7 5 o 49.588 51.018 50.54 0.43031 0.08
11 11 11 o 5.706 5.871 45.00 0.43031 0.00
18 6 2 o 111.401 116.574 90.00 0.42972 0.17
16 10 3 o 3.884 4.136 -22.30 0.42913 0.01
14 12 5 o 1.552 1.653 -117.60 0.42913 0.00
19 2 0 o 2.436 2.594 90.00 0.42913 0.00
12 11 10 o 4.034 4.296 -68.78 0.42913 0.01
14 13 0 o 0.000 0.000 0.00 0.42913 0.00
18 5 4 o 7.055 7.513 -164.90 0.42913 0.01
19 2 1 o 8.532 9.217 -156.83 0.42854 0.01
14 11 7 o 1.713 1.851 117.17 0.42854 0.00
14 13 1 o 5.579 6.027 -157.50 0.42854 0.01
17 8 4 o 13.850 15.072 -114.47 0.42680 0.02
13 10 10 o 12.447 13.545 -135.00 0.42680 0.01
15 12 0 o 0.133 0.144 -90.00 0.42680 0.00
14 13 2 o 3.417 3.719 64.06 0.42680 0.01
12 12 9 o 7.225 7.862 45.00 0.42680 0.01
16 8 7 o 7.938 8.638 -32.37 0.42680 0.01
18 6 3 o 4.525 4.924 152.25 0.42680 0.01
19 2 2 o 0.870 0.946 135.00 0.42680 0.00
19 3 0 o 0.807 0.875 -90.00 0.42622 0.00
15 12 1 o 1.116 1.211 159.91 0.42622 0.00
17 9 0 o 26.344 28.575 -90.00 0.42622 0.02
15 9 8 o 0.039 0.042 79.05 0.42622 0.00
15 11 5 o 4.148 4.488 147.03 0.42565 0.01
17 9 1 o 71.209 77.043 138.44 0.42565 0.11
13 11 9 o 36.507 39.498 -131.90 0.42565 0.05
19 3 1 o 6.139 6.642 143.20 0.42565 0.01
16 10 4 o 3.283 3.556 -105.83 0.42507 0.00
18 7 0 o 0.625 0.681 0.00 0.42450 0.00
15 12 2 o 0.216 0.235 -44.62 0.42450 0.00
16 9 6 o 0.302 0.329 -82.46 0.42450 0.00
17 9 2 o 1.370 1.507 -165.98 0.42393 0.00
14 13 3 o 1.530 1.683 146.89 0.42393 0.00
13 13 6 o 3.938 4.333 0.00 0.42393 0.00
18 5 5 o 4.370 4.808 -180.00 0.42393 0.00
17 7 6 o 2.591 2.851 165.01 0.42393 0.00
18 7 1 o 3.836 4.221 23.21 0.42393 0.01
15 10 7 o 7.056 7.763 -59.99 0.42393 0.01
19 3 2 o 10.660 11.729 16.72 0.42393 0.02
18 6 4 o 2.102 2.351 -2.55 0.42281 0.00
14 12 6 o 8.826 9.873 169.21 0.42281 0.01
14 10 9 o 22.381 25.042 -132.85 0.42224 0.03
19 4 0 o 0.244 0.273 90.00 0.42224 0.00
18 7 2 o 0.330 0.370 90.26 0.42224 0.00
13 12 8 o 14.703 16.452 58.17 0.42224 0.02
16 11 0 o 0.216 0.241 -180.00 0.42224 0.00
19 4 1 o 0.580 0.647 -1.44 0.42169 0.00
15 12 3 o 1.383 1.543 34.43 0.42169 0.00
17 8 5 o 20.987 23.406 50.07 0.42169 0.03
16 11 1 o 0.141 0.157 -155.46 0.42169 0.00
19 3 3 o 3.022 3.355 45.00 0.42113 0.00
17 9 3 o 59.749 66.328 39.89 0.42113 0.09
16 11 2 o 1.482 1.597 108.17 0.42002 0.00
19 4 2 o 1.504 1.621 174.75 0.42002 0.00
14 13 4 o 0.521 0.561 60.13 0.42002 0.00
14 11 8 o 3.893 4.196 172.85 0.42002 0.01
16 10 5 o 0.112 0.120 -142.67 0.42002 0.00
15 11 6 o 5.712 5.983 21.93 0.41947 0.01
18 7 3 o 5.116 5.359 -16.62 0.41947 0.01
16 8 8 o 99.845 100.050 0.00 0.41838 0.07
15 12 4 o 0.911 0.908 -3.40 0.41783 0.00
18 6 5 o 17.623 17.560 37.28 0.41783 0.02
19 5 0 o 0.605 0.601 90.00 0.41729 0.00
16 11 3 o 1.583 1.574 107.96 0.41729 0.00
12 11 11 o 2.345 2.331 -90.00 0.41729 0.00
16 9 7 o 2.530 2.515 129.87 0.41729 0.00
19 4 3 o 0.905 0.899 146.56 0.41729 0.00
17 9 4 o 22.440 22.305 105.74 0.41729 0.03
15 9 9 o 18.670 18.437 -135.00 0.41675 0.01
13 13 7 o 64.831 64.021 -135.00 0.41675 0.04
17 7 7 o 49.953 49.329 135.00 0.41675 0.03
19 5 1 o 11.522 11.378 -131.77 0.41675 0.02
12 12 10 o 17.204 16.778 90.00 0.41622 0.01
18 8 0 o 0.569 0.555 -180.00 0.41622 0.00
14 12 7 o 1.587 1.524 -80.73 0.41568 0.00
15 10 8 o 6.204 5.958 -74.67 0.41568 0.01
17 10 0 o 0.270 0.259 -90.00 0.41568 0.00
17 8 6 o 3.122 2.998 17.86 0.41568 0.00
18 8 1 o 5.538 5.318 65.19 0.41568 0.01
18 7 4 o 0.618 0.594 160.56 0.41568 0.00
19 5 2 o 4.030 3.821 154.74 0.41515 0.01
17 10 1 o 7.012 6.647 146.26 0.41515 0.01
14 13 5 o 12.814 12.147 10.07 0.41515 0.02
13 11 10 o 0.255 0.241 51.31 0.41515 0.00
14 14 0 o 10.087 9.628 0.00 0.41409 0.00
16 10 6 o 9.999 9.543 -170.13 0.41409 0.01
18 8 2 o 0.184 0.176 -27.87 0.41409 0.00
14 14 1 o 18.524 18.099 45.00 0.41356 0.01
17 10 2 o 0.351 0.343 49.17 0.41356 0.00
19 4 4 o 0.347 0.339 -45.00 0.41356 0.00
16 11 4 o 3.116 3.045 -60.60 0.41356 0.00
15 12 5 o 0.549 0.553 10.48 0.41303 0.00
15 13 0 o 0.831 0.837 -90.00 0.41303 0.00
13 12 9 o 4.889 4.923 -127.83 0.41303 0.01
19 5 3 o 7.042 7.306 -56.83 0.41251 0.01
17 9 5 o 51.661 53.604 -43.08 0.41251 0.07
15 11 7 o 5.774 5.991 42.77 0.41251 0.01
15 13 1 o 18.635 19.336 44.42 0.41251 0.02
14 10 10 o 80.045 85.114 90.00 0.41199 0.05
14 14 2 o 102.962 109.482 -90.00 0.41199 0.07
18 6 6 o 104.949 111.595 -90.00 0.41199 0.07
19 6 0 o 4.617 4.988 -90.00 0.41147 0.00
18 8 3 o 2.529 2.732 -66.74 0.41147 0.00
15 13 2 o 0.832 0.905 -33.15 0.41095 0.00
14 11 9 o 1.135 1.235 60.69 0.41095 0.00
19 6 1 o 12.033 13.089 50.25 0.41095 0.02
17 10 3 o 3.916 4.259 33.40 0.41095 0.01
18 7 5 o 2.197 2.390 -154.01 0.41095 0.00
16 12 0 o 86.990 93.491 -180.00 0.40993 0.06
20 0 0 o 77.694 83.500 180.00 0.40993 0.01
16 9 8 o 5.303 5.601 25.12 0.40941 0.01
16 12 1 o 1.295 1.368 31.67 0.40941 0.00
14 14 3 o 7.819 8.259 -45.00 0.40941 0.00
14 13 6 o 9.944 10.503 -138.30 0.40941 0.01
20 1 0 o 0.297 0.314 0.00 0.40941 0.00
19 6 2 o 3.308 3.494 -17.29 0.40941 0.00
20 1 1 o 3.547 3.669 -90.00 0.40890 0.00
13 13 8 o 10.692 11.059 -90.00 0.40890 0.01
19 5 4 o 0.989 1.023 -122.88 0.40890 0.00
16 11 5 o 0.613 0.634 -80.72 0.40890 0.00
17 8 7 o 9.829 10.166 146.22 0.40890 0.01
15 13 3 o 26.309 26.606 131.55 0.40840 0.03
14 12 8 o 12.781 12.595 97.00 0.40789 0.02
16 12 2 o 12.199 12.022 -90.52 0.40789 0.02
18 8 4 o 3.334 3.286 -73.07 0.40789 0.00
20 2 0 o 0.006 0.006 0.00 0.40789 0.00
16 10 7 o 4.481 4.281 156.23 0.40739 0.01
18 9 0 o 2.021 1.930 -180.00 0.40739 0.00
20 2 1 o 14.231 13.595 -174.23 0.40739 0.02
15 12 6 o 1.345 1.284 138.21 0.40739 0.00
17 10 4 o 0.304 0.291 177.94 0.40739 0.00
17 9 6 o 3.734 3.450 18.56 0.40689 0.00
15 10 9 o 4.159 3.843 77.47 0.40689 0.01
19 6 3 o 16.135 14.909 131.27 0.40689 0.02
18 9 1 o 3.562 3.292 -172.80 0.40689 0.00
20 2 2 o 0.384 0.339 180.00 0.40589 0.00
14 14 4 o 16.124 14.228 -180.00 0.40589 0.01
16 12 3 o 8.267 7.257 -37.36 0.40539 0.01
12 12 11 o 9.157 8.039 135.00 0.40539 0.01
18 9 2 o 11.040 9.692 71.64 0.40539 0.01
18 7 6 o 1.364 1.197 -63.98 0.40539 0.00
20 3 0 o 2.011 1.766 0.00 0.40539 0.00
20 3 1 o 1.703 1.502 -97.67 0.40490 0.00
15 11 8 o 0.137 0.121 2.09 0.40490 0.00
15 13 4 o 0.922 0.813 120.20 0.40490 0.00
17 11 0 o 1.503 1.325 90.00 0.40490 0.00
19 7 0 o 2.241 1.976 90.00 0.40490 0.00
13 11 11 o 27.237 24.281 -45.00 0.40440 0.02
17 11 1 o 36.536 32.571 47.88 0.40440 0.04
19 7 1 o 4.594 4.095 -24.62 0.40440 0.01
19 5 5 o 10.130 9.030 45.00 0.40440 0.01
18 8 5 o 6.222 5.749 -115.98 0.40342 0.01
19 6 4 o 3.932 3.633 100.00 0.40342 0.00
20 3 2 o 14.633 13.519 -86.15 0.40342 0.02
16 11 6 o 2.520 2.328 -57.54 0.40342 0.00
13 12 10 o 3.904 3.607 -152.93 0.40342 0.00
14 13 7 o 0.200 0.189 -70.18 0.40293 0.00
18 9 3 o 0.080 0.075 167.06 0.40293 0.00
19 7 2 o 9.179 8.692 -161.79 0.40293 0.01
17 11 2 o 2.761 2.614 -174.83 0.40293 0.00
17 10 5 o 7.861 7.444 -22.83 0.40293 0.01
16 12 4 o 83.111 82.994 0.01 0.40196 0.10
20 4 0 o 68.675 68.578 0.00 0.40196 0.04
20 4 1 o 1.021 1.043 -129.06 0.40148 0.00
17 8 8 o 13.294 13.585 45.00 0.40148 0.01
14 14 5 o 28.028 28.641 -135.00 0.40148 0.02
14 11 10 o 0.816 0.833 -56.02 0.40148 0.00
15 12 7 o 1.685 1.754 -119.60 0.40100 0.00
20 3 3 o 0.011 0.011 90.00 0.40100 0.00
16 9 9 o 0.172 0.179 90.00 0.40100 0.00
13 13 9 o 38.870 40.962 135.00 0.40052 0.02
17 9 7 o 52.330 55.146 -141.03 0.40052 0.06
19 7 3 o 6.076 6.403 -143.52 0.40052 0.01
17 11 3 o 39.141 41.248 135.46 0.40052 0.05
15 13 5 o 18.813 19.825 -138.99 0.40052 0.02
16 10 8 o 8.872 9.405 85.28 0.40005 0.01
20 4 2 o 1.037 1.099 85.12 0.40005 0.00
14 12 9 o 2.335 2.470 51.91 0.39957 0.00
15 14 0 o 9.569 10.125 90.00 0.39957 0.01
18 9 4 o 2.651 2.806 24.97 0.39957 0.00
19 6 5 o 8.525 8.931 -120.36 0.39910 0.01
18 7 7 o 4.499 4.714 -180.00 0.39910 0.00
15 14 1 o 9.470 9.922 -93.29 0.39910 0.01
18 8 6 o 4.822 4.893 178.41 0.39815 0.01
18 10 0 o 4.737 4.807 0.00 0.39815 0.00
16 12 5 o 0.141 0.141 74.96 0.39769 0.00
16 13 0 o 13.087 13.128 -180.00 0.39769 0.01
17 10 6 o 2.446 2.454 -125.73 0.39769 0.00
15 10 10 o 3.934 3.946 -45.00 0.39769 0.00
20 4 3 o 2.671 2.680 134.58 0.39769 0.00
20 5 0 o 0.029 0.029 0.00 0.39769 0.00
19 8 0 o 1.069 1.072 -90.00 0.39769 0.00
15 14 2 o 4.775 4.790 177.34 0.39769 0.01
18 10 1 o 17.358 17.412 41.56 0.39769 0.02
19 7 4 o 2.208 2.206 -114.72 0.39722 0.00
16 13 1 o 6.492 6.484 -179.27 0.39722 0.01
20 5 1 o 4.425 4.419 78.83 0.39722 0.01
19 8 1 o 1.557 1.555 163.93 0.39722 0.00
16 11 7 o 4.786 4.780 -85.51 0.39722 0.01
17 11 4 o 2.646 2.643 -135.23 0.39722 0.00
15 11 9 o 9.038 9.038 -36.71 0.39675 0.01
14 14 6 o 95.250 95.618 90.00 0.39629 0.05
18 10 2 o 114.676 115.119 -90.01 0.39629 0.13
19 8 2 o 0.189 0.190 -34.79 0.39583 0.00
16 13 2 o 4.230 4.266 -89.89 0.39583 0.00
20 5 2 o 6.034 6.085 -92.30 0.39583 0.01
14 13 8 o 1.697 1.711 -120.98 0.39583 0.00
15 13 6 o 1.166 1.182 124.36 0.39537 0.00
15 14 3 o 8.741 8.856 -88.35 0.39537 0.01
18 9 5 o 11.299 11.449 1.58 0.39537 0.01
20 4 4 o 74.943 76.482 180.00 0.39445 0.04
12 12 12 o 118.004 120.427 180.00 0.39445 0.02
19 6 6 o 3.082 3.148 135.00 0.39400 0.00
15 12 8 o 2.296 2.346 157.15 0.39400 0.00
17 12 0 o 16.318 16.667 -90.00 0.39400 0.01
18 10 3 o 8.991 9.183 -37.71 0.39400 0.01
17 12 1 o 18.962 19.337 29.58 0.39354 0.02
20 5 3 o 3.367 3.433 -73.31 0.39354 0.00
17 9 8 o 15.567 15.876 -57.63 0.39354 0.02
13 12 11 o 1.988 2.027 2.46 0.39354 0.00
19 8 3 o 1.483 1.512 -10.60 0.39354 0.00
16 13 3 o 5.310 5.415 177.09 0.39354 0.01
19 7 5 o 8.455 8.596 152.06 0.39309 0.01
17 11 5 o 33.694 34.258 -128.89 0.39309 0.04
20 6 0 o 0.006 0.007 180.00 0.39264 0.00
16 12 6 o 11.874 12.036 89.16 0.39264 0.01
15 14 4 o 9.574 9.683 -85.48 0.39219 0.01
16 10 9 o 0.786 0.795 -160.28 0.39219 0.00
17 12 2 o 8.007 8.098 2.73 0.39219 0.01
20 6 1 o 8.719 8.819 11.90 0.39219 0.01
18 8 7 o 0.149 0.151 176.11 0.39219 0.00
17 10 7 o 2.127 2.152 -146.89 0.39174 0.00
14 11 11 o 0.800 0.809 0.00 0.39174 0.00
13 13 10 o 8.643 8.743 -180.00 0.39174 0.00
18 10 4 o 7.615 7.822 177.41 0.39085 0.01
20 6 2 o 0.301 0.309 44.17 0.39085 0.00
14 12 10 o 10.151 10.427 -3.97 0.39085 0.01
20 5 4 o 0.048 0.050 166.94 0.39041 0.00
14 14 7 o 1.274 1.327 135.00 0.39041 0.00
18 9 6 o 16.967 17.666 -132.58 0.39041 0.02
16 13 4 o 10.555 10.990 12.00 0.39041 0.01
16 11 8 o 6.550 6.820 114.58 0.39041 0.01
19 8 4 o 0.438 0.456 85.53 0.39041 0.00
21 1 0 o 14.935 15.697 90.00 0.38996 0.01
17 12 3 o 15.222 15.999 151.65 0.38996 0.02
19 9 0 o 1.770 1.861 -90.00 0.38996 0.00
21 1 1 o 40.665 42.719 -45.00 0.38952 0.02
19 9 1 o 10.688 11.228 47.49 0.38952 0.01
15 13 7 o 21.791 22.892 -51.01 0.38952 0.02
18 11 0 o 1.200 1.227 0.00 0.38865 0.00
21 2 0 o 0.265 0.271 -90.00 0.38865 0.00
20 6 3 o 9.260 9.471 -17.14 0.38865 0.01
17 11 6 o 1.746 1.757 -2.28 0.38821 0.00
15 11 10 o 1.739 1.749 -110.75 0.38821 0.00
15 14 5 o 6.048 6.085 87.97 0.38821 0.01
19 9 2 o 1.232 1.240 -47.30 0.38821 0.00
14 13 9 o 15.363 15.458 -175.67 0.38821 0.02
18 11 1 o 4.613 4.641 -132.68 0.38821 0.00
21 2 1 o 2.608 2.624 -13.13 0.38821 0.00
19 7 6 o 9.129 9.186 48.20 0.38821 0.01
16 12 7 o 9.984 9.684 144.68 0.38691 0.01
17 12 4 o 14.828 14.383 75.88 0.38691 0.02
18 10 5 o 26.303 25.513 -134.15 0.38691 0.03
18 11 2 o 0.022 0.021 60.48 0.38691 0.00
21 2 2 o 0.059 0.057 45.00 0.38691 0.00
20 7 0 o 1.391 1.350 -180.00 0.38691 0.00
20 5 5 o 4.440 4.259 -90.00 0.38648 0.00
15 12 9 o 0.032 0.030 -87.80 0.38648 0.00
16 13 5 o 4.527 4.342 -2.84 0.38648 0.00
21 3 0 o 10.631 10.196 -90.00 0.38648 0.01
19 8 5 o 1.148 1.101 -31.96 0.38648 0.00
20 7 1 o 0.146 0.140 60.95 0.38648 0.00
15 15 0 o 3.434 3.293 -90.00 0.38648 0.00
17 9 9 o 39.967 37.874 135.00 0.38605 0.02
15 15 1 o 3.906 3.701 135.00 0.38605 0.00
21 3 1 o 46.663 44.219 -132.34 0.38605 0.05
19 9 3 o 16.114 15.270 127.27 0.38605 0.02
18 8 8 o 8.858 8.294 90.00 0.38563 0.00
16 14 0 o 1.347 1.262 180.00 0.38563 0.00
20 6 4 o 1.220 1.143 -83.21 0.38563 0.00
16 14 1 o 0.084 0.078 -154.01 0.38520 0.00
17 10 8 o 1.592 1.477 38.34 0.38520 0.00
20 7 2 o 6.662 6.179 99.44 0.38520 0.01
15 15 2 o 2.556 2.361 0.00 0.38478 0.00
21 3 2 o 5.497 5.077 -12.30 0.38478 0.01
18 11 3 o 5.185 4.789 139.48 0.38478 0.01
18 9 7 o 0.661 0.610 170.00 0.38478 0.00
14 14 8 o 10.574 9.903 0.00 0.38393 0.01
16 10 10 o 10.864 10.174 0.00 0.38393 0.01
16 14 2 o 3.170 2.968 -134.53 0.38393 0.00
15 14 6 o 2.980 2.840 -16.23 0.38351 0.00
21 4 0 o 2.287 2.179 90.00 0.38351 0.00
13 12 12 o 10.670 10.167 -135.00 0.38351 0.01
17 12 5 o 16.810 16.365 -146.38 0.38309 0.02
19 9 4 o 1.382 1.345 81.45 0.38309 0.00
21 4 1 o 20.119 19.587 -118.27 0.38309 0.02
17 13 0 o 13.734 13.371 90.00 0.38309 0.01
15 13 8 o 0.815 0.793 -32.09 0.38309 0.00
20 7 3 o 0.850 0.828 86.44 0.38309 0.00
16 11 9 o 1.218 1.186 64.10 0.38309 0.00
19 7 7 o 7.567 7.540 45.00 0.38267 0.00
17 13 1 o 50.243 50.061 -41.71 0.38267 0.05
15 15 3 o 5.133 5.114 45.00 0.38267 0.00
13 13 11 o 29.614 29.506 45.00 0.38267 0.01
17 11 7 o 38.005 37.868 -43.44 0.38267 0.04
21 3 3 o 37.136 37.002 -45.00 0.38267 0.02
18 10 6 o 100.326 102.303 89.98 0.38226 0.10
21 4 2 o 0.743 0.775 -170.21 0.38184 0.00
16 14 3 o 0.855 0.892 161.99 0.38184 0.00
14 12 11 o 3.174 3.311 108.64 0.38184 0.00
18 11 4 o 1.578 1.646 -176.88 0.38184 0.00
19 10 0 o 8.682 9.057 90.00 0.38184 0.00
20 6 5 o 3.293 3.435 -162.75 0.38184 0.00
19 8 6 o 1.368 1.427 150.14 0.38184 0.00
16 13 6 o 3.902 4.071 79.81 0.38184 0.00
19 10 1 o 15.188 16.213 -111.84 0.38143 0.01
17 13 2 o 0.995 1.063 5.03 0.38143 0.00
16 12 8 o 87.036 97.226 -179.99 0.38061 0.08
20 8 0 o 61.307 68.484 -180.00 0.38061 0.03
19 10 2 o 3.537 4.027 175.02 0.38020 0.00
20 7 4 o 3.543 4.034 -47.92 0.38020 0.00
14 13 10 o 14.778 16.825 40.69 0.38020 0.01
20 8 1 o 1.460 1.662 36.16 0.38020 0.00
21 5 0 o 15.993 18.470 -90.00 0.37979 0.01
21 4 3 o 10.896 12.584 -56.07 0.37979 0.01
15 15 4 o 1.427 1.648 90.00 0.37979 0.00
15 11 11 o 14.946 17.418 -135.00 0.37938 0.01
21 5 1 o 39.963 46.573 138.66 0.37938 0.04
17 13 3 o 51.359 59.853 -138.73 0.37938 0.05
19 9 5 o 9.701 11.306 -136.15 0.37938 0.01
16 14 4 o 3.317 3.881 60.76 0.37898 0.00
20 8 2 o 2.832 3.313 -93.61 0.37898 0.00
18 12 0 o 1.366 1.598 0.00 0.37898 0.00
18 9 8 o 2.422 2.830 -134.47 0.37857 0.00
18 12 1 o 1.687 1.971 -124.94 0.37857 0.00
17 12 6 o 5.322 6.217 -164.71 0.37857 0.00
15 12 10 o 2.696 3.150 -33.34 0.37857 0.00
15 14 7 o 4.886 5.672 78.79 0.37817 0.00
17 10 9 o 5.896 6.844 164.59 0.37817 0.01
18 11 5 o 2.367 2.748 43.13 0.37817 0.00
21 5 2 o 0.892 1.036 -153.48 0.37817 0.00
19 10 3 o 12.977 15.062 -67.81 0.37817 0.01
18 12 2 o 1.173 1.325 145.74 0.37737 0.00
20 6 6 o 3.752 4.236 -180.00 0.37737 0.00
18 10 7 o 2.223 2.456 152.39 0.37697 0.00
21 4 4 o 3.129 3.457 -135.00 0.37697 0.00
20 8 3 o 5.135 5.674 -34.95 0.37697 0.00
14 14 9 o 24.440 27.005 45.00 0.37697 0.01
17 11 8 o 4.133 4.447 25.83 0.37657 0.00
19 8 7 o 0.919 0.989 152.39 0.37657 0.00
16 13 7 o 3.093 3.328 -13.12 0.37657 0.00
20 7 5 o 1.610 1.733 -105.85 0.37657 0.00
17 13 4 o 11.126 11.972 -80.34 0.37657 0.01
21 5 3 o 38.523 40.244 38.44 0.37617 0.04
15 15 5 o 2.888 3.017 -45.00 0.37617 0.00
15 13 9 o 12.633 13.197 40.32 0.37617 0.01
16 14 5 o 0.200 0.198 -136.87 0.37538 0.00
19 10 4 o 7.789 7.720 -81.92 0.37538 0.01
21 6 0 o 0.022 0.022 -90.00 0.37538 0.00
18 12 3 o 0.531 0.526 145.19 0.37538 0.00
16 11 10 o 2.864 2.838 129.49 0.37538 0.00
19 9 6 o 3.681 3.590 112.02 0.37499 0.00
21 6 1 o 4.431 4.321 145.01 0.37499 0.00
20 8 4 o 62.539 60.809 0.02 0.37421 0.06
20 9 0 o 1.315 1.291 -180.00 0.37382 0.00
16 15 0 o 0.035 0.034 180.00 0.37382 0.00
16 12 9 o 2.908 2.856 -127.38 0.37382 0.00
21 6 2 o 0.211 0.207 -176.87 0.37382 0.00
18 11 6 o 0.041 0.041 78.59 0.37382 0.00
16 15 1 o 0.552 0.549 38.94 0.37343 0.00
13 13 12 o 1.402 1.393 90.00 0.37343 0.00
21 5 4 o 18.266 18.144 116.78 0.37343 0.02
17 12 7 o 9.440 9.377 -22.62 0.37343 0.01
19 11 0 o 4.185 4.157 -90.00 0.37343 0.00
20 9 1 o 3.686 3.661 -121.96 0.37343 0.00
19 11 1 o 5.936 5.954 153.75 0.37305 0.01
17 13 5 o 37.933 38.046 137.33 0.37305 0.03
14 12 12 o 14.408 14.544 -90.00 0.37266 0.01
18 12 4 o 4.595 4.638 119.43 0.37266 0.00
22 1 0 o 13.664 13.847 0.00 0.37228 0.01
15 14 8 o 7.035 7.129 101.72 0.37228 0.01
20 7 6 o 4.940 5.006 -68.08 0.37228 0.00
17 14 0 o 1.430 1.449 90.00 0.37228 0.00
16 15 2 o 0.319 0.323 56.67 0.37228 0.00
20 9 2 o 0.273 0.277 71.42 0.37228 0.00
21 6 3 o 5.248 5.337 23.27 0.37189 0.00
18 9 9 o 17.647 17.948 -180.00 0.37189 0.01
15 15 6 o 0.436 0.443 -180.00 0.37189 0.00
17 14 1 o 6.686 6.799 -21.01 0.37189 0.01
19 11 2 o 2.276 2.315 20.09 0.37189 0.00
14 13 11 o 0.220 0.224 -62.02 0.37189 0.00
22 1 1 o 0.133 0.135 180.00 0.37189 0.00
19 10 5 o 10.318 10.494 69.62 0.37189 0.01
18 10 8 o 5.005 5.155 -2.43 0.37113 0.00
16 14 6 o 5.636 5.804 21.52 0.37113 0.00
22 2 0 o 0.243 0.250 180.00 0.37113 0.00
17 10 10 o 5.203 5.405 45.00 0.37075 0.00
20 8 5 o 0.041 0.043 -139.71 0.37075 0.00
17 14 2 o 0.840 0.872 -132.10 0.37075 0.00
19 8 8 o 0.012 0.013 -45.00 0.37075 0.00
16 13 8 o 7.620 7.915 -155.58 0.37075 0.01
22 2 1 o 14.958 15.538 -169.22 0.37075 0.01
22 4 0 o 0.040 0.038 -180.00 0.36665 0.00
16 12 10 o 11.845 11.404 -89.51 0.36665 0.01
20 10 0 o 0.058 0.056 180.00 0.36665 0.00
20 8 6 o 3.592 3.458 83.21 0.36665 0.00
16 15 3 o 1.978 2.074 -72.40 0.37037 0.00
15 12 11 o 0.708 0.742 71.88 0.37037 0.00
21 7 0 o 3.275 3.433 90.00 0.37037 0.00
20 9 3 o 3.054 3.202 122.46 0.37037 0.00
22 4 1 o 11.255 10.595 77.87 0.36628 0.01
20 10 1 o 3.610 3.398 -152.88 0.36628 0.00
17 14 4 o 1.546 1.455 -54.43 0.36628 0.00
16 14 7 o 1.832 1.725 -29.23 0.36628 0.00
21 5 5 o 34.144 36.133 -45.00 0.36999 0.01
17 11 9 o 25.669 27.165 52.92 0.36999 0.02
19 9 7 o 11.308 11.967 -58.83 0.36999 0.01
21 7 1 o 30.548 32.328 48.79 0.36999 0.03
19 11 3 o 6.337 6.706 32.82 0.36999 0.01
22 3 3 o 4.378 4.065 0.00 0.36592 0.00
21 6 5 o 2.620 2.432 -36.26 0.36592 0.00
18 13 3 o 1.167 1.083 -22.32 0.36592 0.00
15 14 9 o 3.416 3.172 -86.23 0.36592 0.00
14 14 10 o 69.168 73.857 -90.00 0.36962 0.03
22 2 2 o 112.470 120.094 90.00 0.36962 0.05
21 6 4 o 0.194 0.208 -139.84 0.36924 0.00
22 3 0 o 9.296 9.998 0.00 0.36924 0.00
18 12 5 o 2.431 2.614 47.36 0.36924 0.00
18 13 0 o 0.075 0.081 -180.00 0.36924 0.00
18 12 6 o 3.087 2.843 -14.62 0.36519 0.00
20 10 2 o 2.272 2.092 -139.41 0.36519 0.00
22 4 2 o 0.088 0.081 80.13 0.36519 0.00
17 14 3 o 3.203 3.458 -146.21 0.36887 0.00
21 7 2 o 5.852 6.319 176.79 0.36887 0.00
17 13 6 o 2.189 2.363 -170.00 0.36887 0.00
22 3 1 o 1.783 1.925 7.37 0.36887 0.00
18 11 7 o 4.292 4.634 -24.35 0.36887 0.00
15 13 10 o 1.584 1.711 -77.87 0.36887 0.00
18 13 1 o 5.657 6.109 6.28 0.36887 0.00
21 8 0 o 6.657 6.121 -90.00 0.36483 0.00
18 10 9 o 25.372 23.329 49.05 0.36483 0.02
19 12 0 o 1.484 1.365 90.00 0.36483 0.00
21 8 1 o 24.198 22.174 41.84 0.36447 0.02
16 13 9 o 1.472 1.349 -171.97 0.36447 0.00
21 7 4 o 6.920 6.341 -129.37 0.36447 0.01
16 15 5 o 0.199 0.182 148.70 0.36447 0.00
19 9 8 o 0.836 0.766 -105.75 0.36447 0.00
19 12 1 o 1.466 1.343 -18.34 0.36447 0.00
20 9 5 o 2.885 2.643 66.70 0.36447 0.00
13 13 13 o 17.823 16.231 -45.00 0.36411 0.00
17 13 7 o 47.344 43.113 40.46 0.36411 0.04
19 11 5 o 5.955 5.423 -22.79 0.36411 0.00
19 10 6 o 2.294 2.409 -21.92 0.36775 0.00
17 12 8 o 9.845 10.334 -119.14 0.36775 0.01
16 15 4 o 1.403 1.473 83.15 0.36775 0.00
22 3 2 o 11.504 12.076 95.24 0.36775 0.01
20 9 4 o 0.878 0.922 18.09 0.36775 0.00
18 13 2 o 5.017 5.266 -115.42 0.36775 0.00
16 11 11 o 4.657 4.761 90.00 0.36738 0.00
20 7 7 o 4.110 4.202 -90.00 0.36738 0.00
19 11 4 o 2.499 2.555 77.32 0.36738 0.00
22 4 3 o 9.798 8.747 -79.42 0.36339 0.01
22 5 0 o 8.487 7.577 -180.00 0.36339 0.00
14 13 12 o 3.109 2.776 39.42 0.36339 0.00
20 10 3 o 4.957 4.426 154.13 0.36339 0.00
21 8 2 o 3.563 3.181 5.57 0.36339 0.00
18 11 8 o 1.998 1.783 -0.03 0.36339 0.00
19 12 2 o 0.663 0.592 22.31 0.36339 0.00
18 13 4 o 0.701 0.626 -69.30 0.36339 0.00
21 7 3 o 38.148 37.813 134.43 0.36702 0.03
15 15 7 o 15.037 14.905 -135.00 0.36702 0.01
19 10 7 o 11.131 9.819 103.62 0.36304 0.01
17 11 10 o 0.808 0.713 -173.46 0.36304 0.00
17 14 5 o 10.905 9.619 165.87 0.36304 0.01
22 5 1 o 0.802 0.707 172.92 0.36304 0.00
16 16 0 o 64.344 55.503 0.00 0.36233 0.01
14 14 11 o 0.189 0.162 -45.00 0.36197 0.00
15 12 12 o 4.852 4.149 -45.00 0.36197 0.00
22 5 2 o 17.552 15.009 77.98 0.36197 0.01
16 16 1 o 2.794 2.389 -135.00 0.36197 0.00
20 8 7 o 8.161 6.979 153.43 0.36197 0.01
21 6 6 o 0.004 0.003 45.00 0.36197 0.00
21 8 3 o 21.297 18.103 139.50 0.36162 0.02
17 12 9 o 9.336 7.936 32.53 0.36162 0.01
19 12 3 o 1.408 1.197 -154.23 0.36162 0.00
17 15 0 o 0.746 0.634 -90.00 0.36162 0.00
15 15 8 o 0.553 0.470 -90.00 0.36162 0.00
21 7 5 o 41.670 35.344 -127.43 0.36127 0.03
17 15 1 o 27.519 23.341 -133.07 0.36127 0.02
15 13 11 o 28.584 24.245 130.56 0.36127 0.02
16 14 8 o 9.984 8.490 -101.39 0.36092 0.01
16 16 2 o 10.774 9.162 90.00 0.36092 0.00
22 4 4 o 0.894 0.760 -90.00 0.36092 0.00
20 10 4 o 1.385 1.178 82.08 0.36092 0.00
20 9 6 o 0.035 0.030 -128.08 0.36057 0.00
18 12 7 o 0.229 0.196 66.15 0.36057 0.00
16 15 6 o 0.995 0.853 -177.30 0.36057 0.00
22 5 3 o 0.382 0.332 -26.21 0.36022 0.00
17 15 2 o 1.256 1.090 7.47 0.36022 0.00
19 11 6 o 3.146 2.731 -114.91 0.36022 0.00
18 13 5 o 15.394 13.365 -177.41 0.36022 0.01
18 14 0 o 7.890 7.115 -180.00 0.35953 0.00
22 6 0 o 0.306 0.276 0.00 0.35953 0.00
22 6 1 o 18.152 16.770 25.42 0.35918 0.01
18 14 1 o 22.432 20.724 -135.46 0.35918 0.02
17 14 6 o 4.481 4.139 59.25 0.35918 0.00
21 8 4 o 5.934 5.482 68.37 0.35918 0.00
16 16 3 o 6.333 5.851 135.00 0.35918 0.00
15 14 10 o 0.465 0.429 160.06 0.35918 0.00
16 12 11 o 9.496 8.773 -32.97 0.35918 0.01
19 12 4 o 1.316 1.216 -115.91 0.35918 0.00
20 11 0 o 0.666 0.615 0.00 0.35918 0.00
21 9 0 o 11.777 11.184 90.00 0.35884 0.00
20 11 1 o 0.086 0.082 111.39 0.35884 0.00
17 13 8 o 5.503 5.226 115.50 0.35884 0.00
17 15 3 o 28.008 27.384 -42.50 0.35850 0.02
21 9 1 o 37.608 36.771 -37.68 0.35850 0.03
19 9 9 o 6.715 6.566 45.00 0.35850 0.00
22 6 2 o 114.473 115.052 -90.01 0.35815 0.09
18 14 2 o 107.826 108.372 89.99 0.35815 0.08
18 10 10 o 81.316 81.727 -90.00 0.35815 0.03
22 5 4 o 7.165 7.370 15.05 0.35781 0.01
20 11 2 o 0.485 0.499 -64.95 0.35781 0.00
20 10 5 o 0.859 0.883 25.66 0.35781 0.00
16 13 10 o 3.687 3.792 -104.43 0.35781 0.00
19 10 8 o 4.278 4.400 111.35 0.35781 0.00
18 11 9 o 1.365 1.428 -145.47 0.35747 0.00
21 9 2 o 0.275 0.288 26.24 0.35747 0.00
21 7 6 o 5.170 5.409 -16.88 0.35747 0.00
16 16 4 o 62.858 66.680 -180.00 0.35679 0.02
20 8 8 o 64.621 68.549 180.00 0.35679 0.02
18 14 3 o 10.456 11.055 139.12 0.35646 0.01
22 6 3 o 12.235 12.937 -19.26 0.35646 0.01
18 13 6 o 10.421 11.018 41.70 0.35646 0.01
21 8 5 o 19.237 20.133 -135.33 0.35612 0.01
17 15 4 o 1.114 1.166 43.82 0.35612 0.00
16 15 7 o 2.812 2.943 97.55 0.35612 0.00
20 9 7 o 2.359 2.469 -62.46 0.35612 0.00
19 13 0 o 1.671 1.748 90.00 0.35612 0.00
19 12 5 o 0.729 0.763 153.60 0.35612 0.00
20 11 3 o 2.365 2.475 -95.26 0.35612 0.00
23 1 0 o 0.001 0.001 90.00 0.35612 0.00
19 11 7 o 14.251 14.674 -138.65 0.35578 0.01
21 9 3 o 41.396 42.624 -143.84 0.35578 0.03
23 1 1 o 13.310 13.705 -135.00 0.35578 0.00
17 11 11 o 39.757 40.937 135.00 0.35578 0.01
15 15 9 o 9.239 9.513 135.00 0.35578 0.00
19 13 1 o 14.969 15.413 -135.34 0.35578 0.01
18 12 8 o 9.779 9.866 -79.91 0.35545 0.01
23 2 0 o 1.353 1.336 -90.00 0.35512 0.00
17 12 10 o 4.064 4.015 27.04 0.35512 0.00
16 14 9 o 1.431 1.414 25.08 0.35512 0.00
22 7 0 o 3.346 3.305 -180.00 0.35512 0.00
22 5 5 o 5.426 5.264 0.00 0.35478 0.00
22 7 1 o 3.601 3.493 -165.17 0.35478 0.00
14 13 13 o 14.489 14.055 0.00 0.35478 0.01
17 14 7 o 0.945 0.916 35.58 0.35478 0.00
19 13 2 o 0.209 0.202 118.56 0.35478 0.00
23 2 1 o 2.560 2.483 34.68 0.35478 0.00
20 10 6 o 4.999 4.746 14.97 0.35412 0.00
18 14 4 o 5.388 5.115 -2.85 0.35412 0.00
22 6 4 o 1.068 1.014 161.76 0.35412 0.00
14 14 12 o 12.660 12.018 180.00 0.35412 0.00
23 2 2 o 0.167 0.158 -45.00 0.35379 0.00
16 16 5 o 0.014 0.013 45.00 0.35379 0.00
22 7 2 o 8.376 7.909 -85.18 0.35379 0.01
20 11 4 o 2.724 2.572 114.15 0.35379 0.00
15 13 12 o 0.534 0.502 179.71 0.35346 0.00
23 3 0 o 1.261 1.185 90.00 0.35346 0.00
21 9 4 o 13.042 12.253 -65.78 0.35346 0.01
19 13 3 o 19.192 17.909 -50.21 0.35313 0.01
23 3 1 o 11.221 10.472 -38.38 0.35313 0.01
21 7 7 o 38.341 35.779 -45.00 0.35313 0.01
17 15 5 o 15.979 14.911 52.67 0.35313 0.01
17 13 9 o 18.281 17.059 -43.69 0.35313 0.01
19 12 6 o 0.737 0.676 -92.76 0.35248 0.00
21 8 6 o 1.957 1.795 -151.77 0.35248 0.00
21 10 0 o 1.154 1.058 90.00 0.35248 0.00
21 10 1 o 5.613 5.117 -32.21 0.35216 0.00
19 10 9 o 6.449 5.879 -103.85 0.35216 0.00
15 14 11 o 2.870 2.616 -134.53 0.35216 0.00
23 3 2 o 3.438 3.134 -144.67 0.35216 0.00
18 13 7 o 0.048 0.044 39.58 0.35216 0.00
22 7 3 o 5.178 4.720 171.43 0.35216 0.00
20 12 0 o 53.994 49.123 0.00 0.35151 0.02
16 12 12 o 98.106 89.256 0.00 0.35151 0.03
20 12 1 o 2.618 2.383 -142.13 0.35119 0.00
20 9 8 o 0.840 0.764 -144.06 0.35119 0.00
17 16 0 o 10.570 9.621 90.00 0.35119 0.00
21 10 2 o 0.397 0.361 -22.18 0.35119 0.00
22 6 5 o 20.610 18.760 -146.64 0.35119 0.01
18 11 10 o 0.794 0.722 -65.50 0.35119 0.00
16 15 8 o 4.346 3.956 -77.48 0.35119 0.00
18 14 5 o 27.116 24.682 46.84 0.35119 0.02
23 4 0 o 0.908 0.826 -90.00 0.35119 0.00
19 11 8 o 1.386 1.258 -115.83 0.35086 0.00
17 16 1 o 12.040 10.932 -159.03 0.35086 0.01
19 13 4 o 1.731 1.572 -77.87 0.35086 0.00
16 13 11 o 1.455 1.321 152.82 0.35086 0.00
23 4 1 o 0.558 0.506 165.57 0.35086 0.00
20 11 5 o 0.671 0.609 74.15 0.35086 0.00
21 9 5 o 33.240 29.962 139.09 0.35054 0.02
23 3 3 o 12.772 11.513 -135.00 0.35054 0.00
20 12 2 o 5.337 4.753 86.86 0.35022 0.00
16 16 6 o 10.111 9.005 -90.00 0.35022 0.00
22 8 0 o 0.514 0.458 0.00 0.35022 0.00
17 16 2 o 10.479 9.197 -175.95 0.34990 0.01
18 12 9 o 2.891 2.538 -136.67 0.34990 0.00
22 7 4 o 2.500 2.194 -14.72 0.34990 0.00
18 15 0 o 8.361 7.338 -180.00 0.34990 0.00
22 8 1 o 7.519 6.599 -114.62 0.34990 0.01
20 10 7 o 3.672 3.223 -38.55 0.34990 0.00
17 14 8 o 1.374 1.206 -179.49 0.34990 0.00
23 4 2 o 0.750 0.658 -8.80 0.34990 0.00
18 15 1 o 5.190 4.491 74.42 0.34959 0.00
15 15 10 o 0.436 0.378 -180.00 0.34959 0.00
17 15 6 o 1.330 1.151 -142.47 0.34959 0.00
21 10 3 o 5.942 5.142 -147.42 0.34959 0.00
22 8 2 o 0.347 0.297 -151.50 0.34895 0.00
16 14 10 o 13.452 11.492 -173.44 0.34895 0.01
18 15 2 o 0.138 0.119 -86.61 0.34864 0.00
20 12 3 o 6.336 5.443 149.54 0.34864 0.00
23 5 0 o 1.855 1.616 -90.00 0.34832 0.00
19 12 7 o 0.570 0.496 14.26 0.34832 0.00
17 12 11 o 4.725 4.116 160.45 0.34832 0.00
23 4 3 o 1.963 1.710 -56.91 0.34832 0.00
17 16 3 o 10.552 9.192 -19.86 0.34832 0.01
21 8 7 o 11.905 10.370 -34.92 0.34832 0.01
19 13 5 o 9.413 8.363 39.25 0.34801 0.01
23 5 1 o 13.865 12.319 47.38 0.34801 0.01
22 6 6 o 116.788 106.060 90.00 0.34769 0.04
18 14 6 o 97.768 88.787 -90.03 0.34769 0.07
19 14 0 o 13.173 12.213 -90.00 0.34738 0.00
21 10 4 o 0.892 0.827 -51.21 0.34738 0.00
22 8 3 o 4.509 4.180 116.17 0.34738 0.00
20 11 6 o 1.351 1.253 145.65 0.34738 0.00
18 13 8 o 1.533 1.421 78.24 0.34738 0.00
22 7 5 o 1.936 1.825 15.20 0.34707 0.00
17 13 10 o 5.579 5.260 5.87 0.34707 0.00
21 9 6 o 1.313 1.237 -141.67 0.34707 0.00
23 5 2 o 1.282 1.208 -54.80 0.34707 0.00
19 14 1 o 12.103 11.409 77.11 0.34707 0.01
18 15 3 o 5.860 5.524 -65.75 0.34707 0.00
20 12 4 o 60.424 57.955 -179.94 0.34645 0.04
14 14 13 o 19.976 19.196 -135.00 0.34614 0.01
16 16 7 o 8.550 8.217 -45.00 0.34614 0.00
19 10 10 o 0.422 0.406 135.00 0.34614 0.00
23 4 4 o 1.083 1.041 135.00 0.34614 0.00
17 16 4 o 8.817 8.473 -97.79 0.34614 0.01
19 14 2 o 1.870 1.797 0.10 0.34614 0.00
20 9 9 o 1.881 1.806 -90.00 0.34583 0.00
16 15 9 o 0.425 0.408 -90.35 0.34583 0.00
21 11 0 o 0.903 0.867 -90.00 0.34583 0.00
19 11 9 o 12.044 11.549 149.25 0.34553 0.01
21 11 1 o 28.022 26.870 -132.13 0.34553 0.02
17 15 7 o 37.226 35.695 139.09 0.34553 0.02
15 13 13 o 13.084 12.546 -135.00 0.34553 0.00
23 5 3 o 14.411 13.818 127.04 0.34553 0.01
20 10 8 o 3.514 3.364 -88.58 0.34522 0.00
22 8 4 o 2.415 2.312 108.54 0.34522 0.00
15 14 12 o 4.802 4.589 -68.64 0.34491 0.00
22 9 0 o 1.595 1.524 0.00 0.34491 0.00
23 6 0 o 3.056 2.920 90.00 0.34491 0.00
18 15 4 o 7.040 6.728 -2.82 0.34491 0.00
17 14 9 o 10.935 10.437 -5.93 0.34461 0.01
19 14 3 o 12.526 11.956 95.85 0.34461 0.01
18 11 11 o 4.542 4.335 180.00 0.34461 0.00
21 10 5 o 4.280 4.085 147.71 0.34461 0.00
23 6 1 o 8.527 8.139 -113.90 0.34461 0.01
22 9 1 o 3.553 3.391 -7.11 0.34461 0.00
19 13 6 o 1.878 1.792 -79.52 0.34461 0.00
21 11 2 o 5.480 5.231 -2.55 0.34461 0.00
18 12 10 o 7.060 6.749 177.16 0.34400 0.00
20 12 5 o 0.089 0.085 52.55 0.34370 0.00
16 13 12 o 4.248 4.078 36.57 0.34370 0.00
23 6 2 o 0.466 0.447 170.89 0.34370 0.00
22 7 6 o 8.110 7.787 98.99 0.34370 0.01
19 12 8 o 0.619 0.594 14.97 0.34370 0.00
20 13 0 o 2.507 2.407 0.00 0.34370 0.00
21 8 8 o 4.546 4.365 -135.00 0.34370 0.00
22 9 2 o 11.725 11.257 -106.77 0.34370 0.01
18 14 7 o 5.298 5.086 -36.98 0.34370 0.00
17 16 5 o 8.902 8.606 15.49 0.34340 0.01
20 11 7 o 5.642 5.454 87.14 0.34340 0.00
20 13 1 o 2.794 2.701 19.67 0.34340 0.00
23 5 4 o 1.459 1.411 65.26 0.34340 0.00
21 11 3 o 30.865 30.101 -44.15 0.34310 0.02
21 9 7 o 32.633 31.825 34.47 0.34310 0.02
15 15 11 o 23.196 22.622 45.00 0.34310 0.01
20 13 2 o 1.923 1.902 86.43 0.34250 0.00
19 14 4 o 10.735 10.618 96.16 0.34250 0.01
22 8 5 o 4.630 4.579 56.03 0.34250 0.00
16 14 11 o 2.342 2.316 148.37 0.34250 0.00
18 15 5 o 3.093 3.062 -106.66 0.34220 0.00
18 13 9 o 18.309 18.125 -0.12 0.34220 0.01
23 6 3 o 7.759 7.681 -65.33 0.34220 0.00
22 9 3 o 0.104 0.103 33.87 0.34220 0.00
24 0 0 o 45.949 44.981 0.00 0.34160 0.00
16 16 8 o 73.602 72.051 0.00 0.34160 0.02
17 12 12 o 5.839 5.669 45.00 0.34131 0.00
21 10 6 o 0.324 0.315 95.31 0.34131 0.00
24 1 0 o 2.811 2.729 -180.00 0.34131 0.00
20 13 3 o 2.562 2.470 -23.27 0.34101 0.00
21 11 4 o 2.369 2.285 38.72 0.34101 0.00
24 1 1 o 1.947 1.877 90.00 0.34101 0.00
23 7 0 o 5.110 4.927 -90.00 0.34101 0.00
17 17 0 o 4.290 4.137 -90.00 0.34101 0.00
17 15 8 o 1.958 1.888 -152.40 0.34101 0.00
17 17 1 o 37.503 36.018 135.00 0.34072 0.01
19 13 7 o 23.097 22.183 126.55 0.34072 0.01
23 7 1 o 11.184 10.742 149.07 0.34072 0.01
23 5 5 o 12.969 12.456 -135.00 0.34072 0.00
17 13 11 o 27.846 26.743 -140.27 0.34072 0.02
20 12 6 o 5.008 4.809 -96.97 0.34042 0.00
24 2 0 o 0.048 0.046 180.00 0.34042 0.00
18 16 0 o 2.294 2.202 -180.00 0.34042 0.00
24 2 1 o 12.354 11.904 3.56 0.34013 0.01
23 6 4 o 2.099 2.022 -77.30 0.34013 0.00
17 16 6 o 8.243 7.943 8.45 0.34013 0.01
18 16 1 o 0.311 0.300 28.03 0.34013 0.00
16 15 10 o 1.667 1.606 -30.24 0.34013 0.00
20 10 9 o 0.221 0.213 -19.99 0.34013 0.00
22 9 4 o 1.580 1.522 -144.71 0.34013 0.00
19 14 5 o 8.646 8.390 -103.29 0.33984 0.01
17 17 2 o 0.581 0.564 -180.00 0.33984 0.00
22 7 7 o 5.470 5.308 0.00 0.33984 0.00
23 7 2 o 1.384 1.343 42.12 0.33984 0.00
19 11 10 o 3.946 3.829 101.11 0.33984 0.00
22 8 6 o 0.532 0.528 28.72 0.33926 0.00
18 16 2 o 1.565 1.555 -67.67 0.33926 0.00
18 14 8 o 6.808 6.765 176.95 0.33926 0.00
24 2 2 o 0.002 0.002 0.00 0.33926 0.00
22 10 0 o 1.538 1.529 180.00 0.33926 0.00
17 14 10 o 8.014 8.086 -126.15 0.33897 0.00
20 13 4 o 2.314 2.335 -166.39 0.33897 0.00
24 3 0 o 2.453 2.475 -180.00 0.33897 0.00
21 12 0 o 7.113 7.177 90.00 0.33897 0.00
20 11 8 o 6.199 6.255 -71.16 0.33897 0.00
18 15 6 o 0.050 0.051 -3.81 0.33897 0.00
22 10 1 o 18.214 18.378 -143.04 0.33897 0.01
19 15 0 o 4.102 4.209 90.00 0.33868 0.00
21 9 8 o 10.594 10.871 137.55 0.33868 0.01
19 12 9 o 0.130 0.133 -46.78 0.33868 0.00
24 3 1 o 0.647 0.663 73.20 0.33868 0.00
21 12 1 o 20.120 20.645 -146.42 0.33868 0.01
21 11 5 o 20.057 20.944 53.43 0.33839 0.01
17 17 3 o 38.483 40.185 45.00 0.33839 0.01
23 7 3 o 9.612 10.037 36.75 0.33839 0.01
19 15 1 o 4.534 4.735 -31.35 0.33839 0.00
22 10 2 o 99.161 105.366 89.97 0.33810 0.06
14 14 14 o 50.083 53.217 90.00 0.33810 0.00
21 12 2 o 6.552 7.075 -174.32 0.33781 0.00
24 3 2 o 9.064 9.787 96.60 0.33781 0.01
18 12 11 o 1.831 1.977 -83.99 0.33781 0.00
18 16 3 o 0.026 0.028 30.23 0.33781 0.00
15 14 13 o 0.725 0.792 99.15 0.33753 0.00
19 15 2 o 0.213 0.233 -29.71 0.33753 0.00
22 9 5 o 9.461 10.348 177.29 0.33753 0.01
21 10 7 o 3.214 3.515 20.60 0.33753 0.00
23 6 5 o 4.508 4.931 71.32 0.33753 0.00
24 4 0 o 43.380 47.854 180.00 0.33696 0.01
23 8 0 o 2.200 2.407 90.00 0.33667 0.00
20 12 7 o 6.917 7.571 -26.10 0.33667 0.00
24 4 1 o 2.087 2.284 71.84 0.33667 0.00
18 13 10 o 15.052 16.474 -143.67 0.33667 0.01
19 14 6 o 0.647 0.708 -163.99 0.33667 0.00
16 16 9 o 0.711 0.778 45.00 0.33667 0.00
22 10 3 o 11.406 12.483 153.05 0.33667 0.01
19 13 8 o 0.775 0.834 115.50 0.33639 0.00
21 12 3 o 16.156 17.397 -32.93 0.33639 0.01
17 16 7 o 4.830 5.201 160.99 0.33639 0.00
24 3 3 o 0.017 0.018 90.00 0.33639 0.00
15 15 12 o 0.110 0.118 -90.00 0.33639 0.00
17 17 4 o 2.351 2.532 90.00 0.33639 0.00
20 13 5 o 2.171 2.338 -150.53 0.33639 0.00
16 13 13 o 0.040 0.043 90.00 0.33639 0.00
23 8 1 o 1.015 1.093 -5.63 0.33639 0.00
23 7 4 o 3.556 3.830 73.54 0.33639 0.00
17 15 9 o 12.239 12.883 -125.10 0.33611 0.01
19 15 3 o 9.643 10.150 -142.23 0.33611 0.01
20 14 0 o 0.613 0.629 0.00 0.33582 0.00
16 14 12 o 9.778 10.025 86.62 0.33582 0.01
24 4 2 o 0.121 0.124 -129.11 0.33582 0.00
18 16 4 o 3.872 3.969 -49.20 0.33582 0.00
22 8 7 o 1.008 1.007 -56.13 0.33554 0.00
23 8 2 o 0.053 0.053 70.35 0.33554 0.00
20 14 1 o 0.566 0.566 37.43 0.33554 0.00
18 15 7 o 5.049 4.931 132.49 0.33526 0.00
21 11 6 o 3.931 3.839 179.97 0.33526 0.00
20 10 10 o 9.995 9.544 180.00 0.33470 0.00
20 14 2 o 2.361 2.255 64.71 0.33470 0.00
22 10 4 o 1.038 0.992 -19.91 0.33470 0.00
21 12 4 o 6.208 5.933 -98.09 0.33442 0.00
23 6 6 o 0.202 0.193 -45.00 0.33442 0.00
22 9 6 o 15.701 15.005 51.23 0.33442 0.01
18 14 9 o 24.169 23.097 -130.87 0.33442 0.01
24 5 0 o 1.476 1.410 0.00 0.33442 0.00
24 4 3 o 3.455 3.302 -59.36 0.33442 0.00
20 11 9 o 1.613 1.552 -106.34 0.33415 0.00
24 5 1 o 2.750 2.645 -99.01 0.33415 0.00
16 15 11 o 2.832 2.724 -89.25 0.33415 0.00
19 15 4 o 3.996 3.844 -93.74 0.33415 0.00
17 13 12 o 1.966 1.891 -37.15 0.33415 0.00
23 8 3 o 1.482 1.426 147.90 0.33415 0.00
17 17 5 o 20.239 19.670 -45.00 0.33387 0.01
21 9 9 o 16.746 16.275 -45.00 0.33387 0.00
23 7 5 o 10.617 10.319 -28.51 0.33387 0.01
19 11 11 o 20.693 20.112 45.00 0.33387 0.01
19 12 10 o 1.990 1.982 134.37 0.33332 0.00
20 13 6 o 2.246 2.237 -91.68 0.33332 0.00
21 10 8 o 0.921 0.917 -158.45 0.33332 0.00
24 5 2 o 7.148 7.120 84.42 0.33332 0.00
20 14 3 o 1.213 1.209 -44.05 0.33332 0.00
18 16 5 o 0.852 0.849 -134.58 0.33332 0.00
22 11 0 o 0.019 0.019 180.00 0.33332 0.00
22 11 1 o 2.785 2.808 25.36 0.33304 0.00
19 14 7 o 8.074 8.143 -98.08 0.33304 0.00
17 14 11 o 0.069 0.070 -153.76 0.33304 0.00
20 12 8 o 59.396 61.191 0.06 0.33249 0.03
24 4 4 o 41.558 42.814 0.00 0.33249 0.01
22 11 2 o 4.247 4.406 89.99 0.33222 0.00
17 16 8 o 5.030 5.217 72.78 0.33222 0.00
22 10 5 o 19.103 19.815 43.62 0.33222 0.01
23 8 4 o 1.869 1.939 -75.25 0.33222 0.00
23 9 0 o 3.162 3.290 90.00 0.33195 0.00
21 13 0 o 4.085 4.250 -90.00 0.33195 0.00
24 5 3 o 1.890 1.967 106.57 0.33195 0.00
21 12 5 o 16.072 16.721 30.11 0.33195 0.01
21 13 1 o 30.435 31.636 143.29 0.33168 0.02
23 9 1 o 13.030 13.544 -134.20 0.33168 0.01
19 15 5 o 4.959 5.155 148.96 0.33168 0.00
19 13 9 o 5.479 5.696 -141.50 0.33168 0.00
21 11 7 o 37.382 38.859 136.58 0.33168 0.02
18 12 12 o 10.874 11.260 90.00 0.33141 0.00
16 16 10 o 8.229 8.521 90.00 0.33141 0.00
20 14 4 o 1.436 1.487 -123.09 0.33141 0.00
22 8 8 o 5.408 5.600 -90.00 0.33141 0.00
24 6 0 o 0.208 0.215 0.00 0.33141 0.00
18 15 8 o 5.753 5.929 173.53 0.33113 0.00
18 17 0 o 3.238 3.337 0.00 0.33113 0.00
24 6 1 o 7.358 7.583 -163.91 0.33113 0.00
18 17 1 o 5.594 5.746 -173.16 0.33086 0.00
21 13 2 o 0.130 0.134 -154.13 0.33086 0.00
23 9 2 o 0.306 0.314 80.59 0.33086 0.00
22 11 3 o 3.808 3.911 -21.83 0.33086 0.00
17 15 10 o 0.581 0.597 49.81 0.33086 0.00
17 17 6 o 1.298 1.333 0.00 0.33086 0.00
23 7 6 o 5.006 5.141 -102.04 0.33086 0.00
22 9 7 o 0.699 0.718 -16.67 0.33086 0.00
18 13 11 o 0.460 0.473 172.59 0.33086 0.00
24 6 2 o 0.555 0.573 -156.35 0.33033 0.00
18 16 6 o 3.996 4.126 154.83 0.33033 0.00
19 16 0 o 1.520 1.587 -90.00 0.33006 0.00
18 17 2 o 1.306 1.364 51.65 0.33006 0.00
15 14 14 o 0.053 0.056 135.00 0.33006 0.00
24 5 4 o 1.398 1.460 -178.77 0.33006 0.00
19 16 1 o 0.434 0.461 132.51 0.32979 0.00
20 13 7 o 1.454 1.543 144.69 0.32979 0.00
23 8 5 o 1.248 1.325 128.71 0.32979 0.00
21 13 3 o 32.067 34.743 35.71 0.32953 0.02
15 15 13 o 16.254 17.610 -45.00 0.32953 0.00
23 9 3 o 12.845 13.917 -51.62 0.32953 0.01
18 14 10 o 55.299 61.292 89.97 0.32926 0.03
22 10 6 o 81.840 90.709 -90.05 0.32926 0.04
20 11 10 o 1.398 1.584 -30.92 0.32899 0.00
16 14 13 o 2.536 2.875 -148.77 0.32899 0.00
19 16 2 o 2.278 2.581 -167.55 0.32899 0.00
20 14 5 o 0.054 0.061 -84.78 0.32899 0.00
19 14 8 o 6.616 7.498 -76.00 0.32899 0.00
21 12 6 o 4.604 5.217 15.49 0.32899 0.00
22 11 4 o 0.060 0.068 35.28 0.32899 0.00
24 6 3 o 5.743 6.508 162.69 0.32899 0.00
19 15 6 o 0.994 1.149 145.50 0.32873 0.00
18 17 3 o 1.625 1.878 165.35 0.32873 0.00
21 10 9 o 2.272 2.625 -22.43 0.32873 0.00
20 15 0 o 0.036 0.043 0.00 0.32794 0.00
24 7 0 o 1.567 1.869 0.00 0.32794 0.00
20 12 9 o 0.312 0.372 33.71 0.32794 0.00
16 15 12 o 3.213 3.832 113.89 0.32794 0.00
21 13 4 o 2.964 3.543 116.64 0.32768 0.00
25 1 0 o 5.243 6.267 -90.00 0.32768 0.00
23 9 4 o 2.466 2.948 -94.74 0.32768 0.00
24 5 5 o 2.067 2.471 90.00 0.32768 0.00
20 15 1 o 0.277 0.331 -71.69 0.32768 0.00
17 16 9 o 3.426 4.095 -171.05 0.32768 0.00
19 16 3 o 0.550 0.658 65.14 0.32768 0.00
21 11 8 o 4.067 4.861 -148.88 0.32768 0.00
19 12 11 o 0.076 0.090 168.20 0.32768 0.00
24 7 1 o 0.172 0.206 -160.47 0.32768 0.00
17 17 7 o 31.171 37.204 -135.00 0.32742 0.01
17 13 13 o 6.792 8.106 135.00 0.32742 0.00
23 7 7 o 11.513 13.742 -135.00 0.32742 0.00
25 1 1 o 17.768 21.206 135.00 0.32742 0.00
24 6 4 o 0.284 0.337 147.68 0.32716 0.00
22 12 0 o 1.199 1.424 -180.00 0.32716 0.00
24 7 2 o 2.885 3.400 -81.74 0.32690 0.00
17 14 12 o 2.028 2.390 36.10 0.32690 0.00
22 9 8 o 1.786 2.105 52.45 0.32690 0.00
22 12 1 o 2.171 2.559 44.00 0.32690 0.00
18 17 4 o 2.107 2.484 154.13 0.32690 0.00
20 15 2 o 1.008 1.188 -108.47 0.32690 0.00
23 8 6 o 0.541 0.638 -47.55 0.32690 0.00
25 2 0 o 0.124 0.146 90.00 0.32690 0.00
23 10 0 o 5.231 6.164 -90.00 0.32690 0.00
18 16 7 o 0.354 0.417 -81.60 0.32690 0.00
19 13 10 o 1.813 2.115 99.92 0.32664 0.00
25 2 1 o 1.309 1.527 160.25 0.32664 0.00
23 10 1 o 9.645 11.255 73.23 0.32664 0.00
18 15 9 o 1.029 1.200 60.91 0.32664 0.00
22 11 5 o 1.760 2.054 -156.47 0.32664 0.00
20 14 6 o 5.284 6.016 -155.74 0.32612 0.00
22 12 2 o 0.041 0.046 -40.46 0.32612 0.00
20 13 8 o 1.430 1.606 28.44 0.32586 0.00
16 16 11 o 4.819 5.410 135.00 0.32586 0.00
22 10 7 o 7.178 8.059 -18.51 0.32586 0.00
19 16 4 o 1.429 1.605 49.35 0.32586 0.00
25 2 2 o 0.202 0.227 -135.00 0.32586 0.00
23 10 2 o 0.432 0.485 5.49 0.32586 0.00
20 15 3 o 1.868 2.066 79.21 0.32560 0.00
24 7 3 o 0.984 1.089 -105.82 0.32560 0.00
25 3 0 o 3.090 3.419 90.00 0.32560 0.00
21 12 7 o 9.886 10.938 146.44 0.32560 0.01
21 13 5 o 16.861 18.377 -37.73 0.32535 0.01
17 15 11 o 30.453 33.192 -41.77 0.32535 0.02
23 9 5 o 7.613 8.298 42.80 0.32535 0.00
19 15 7 o 15.118 16.478 41.61 0.32535 0.01
25 3 1 o 17.004 18.533 48.20 0.32535 0.01
22 12 3 o 1.437 1.518 -45.33 0.32484 0.00
21 14 0 o 3.597 3.800 -90.00 0.32484 0.00
18 13 12 o 1.945 2.055 -113.88 0.32484 0.00
24 6 5 o 3.934 4.156 12.97 0.32484 0.00
19 14 9 o 3.626 3.768 77.97 0.32458 0.00
21 14 1 o 4.460 4.635 156.37 0.32458 0.00
18 17 5 o 9.823 10.209 0.08 0.32458 0.00
23 10 3 o 11.343 11.788 101.21 0.32458 0.01
25 3 2 o 4.542 4.720 173.12 0.32458 0.00
24 8 0 o 39.431 39.541 0.00 0.32407 0.01
24 8 1 o 2.218 2.179 -122.48 0.32382 0.00
21 10 10 o 1.088 1.069 -135.00 0.32382 0.00
24 7 4 o 2.652 2.605 133.89 0.32382 0.00
22 11 6 o 4.712 4.629 -82.94 0.32382 0.00
25 4 0 o 0.490 0.482 -90.00 0.32382 0.00
21 14 2 o 0.364 0.357 136.40 0.32382 0.00
20 15 4 o 1.563 1.535 -92.42 0.32382 0.00
18 14 11 o 1.755 1.724 148.14 0.32382 0.00
19 16 5 o 0.178 0.171 -2.48 0.32357 0.00
23 8 7 o 2.896 2.784 -62.34 0.32357 0.00
17 17 8 o 1.006 0.967 -90.00 0.32357 0.00
20 11 11 o 6.411 6.161 -90.00 0.32357 0.00
25 4 1 o 8.876 8.530 53.59 0.32357 0.00
21 11 9 o 22.724 21.372 -123.60 0.32332 0.01
25 3 3 o 21.286 20.019 135.00 0.32332 0.01
24 8 2 o 0.419 0.387 68.07 0.32307 0.00
22 12 4 o 3.660 3.380 -56.69 0.32307 0.00
20 12 10 o 5.023 4.639 84.68 0.32307 0.00
18 16 8 o 7.624 7.040 108.63 0.32307 0.00
23 10 4 o 5.394 4.923 100.36 0.32282 0.00
25 4 2 o 0.511 0.466 8.95 0.32282 0.00
20 14 7 o 1.484 1.354 133.34 0.32282 0.00
17 16 10 o 6.274 5.725 -160.09 0.32282 0.00
15 15 14 o 3.848 3.501 0.00 0.32257 0.00
21 14 3 o 3.708 3.374 25.82 0.32257 0.00
23 9 6 o 3.072 2.795 -86.02 0.32257 0.00
22 9 9 o 17.714 16.117 0.00 0.32257 0.00
21 13 6 o 0.659 0.600 23.41 0.32257 0.00
16 14 14 o 8.450 7.846 0.00 0.32207 0.00
24 6 6 o 1.845 1.714 0.00 0.32207 0.00
22 10 8 o 1.904 1.768 160.65 0.32207 0.00
18 18 0 o 3.530 3.278 0.00 0.32207 0.00
18 17 6 o 5.466 5.171 -150.08 0.32182 0.00
18 15 10 o 0.346 0.328 125.82 0.32182 0.00
21 12 8 o 3.300 3.122 69.71 0.32182 0.00
24 8 3 o 3.554 3.362 143.03 0.32182 0.00
18 18 1 o 17.767 16.808 45.00 0.32182 0.00
19 12 12 o 0.548 0.519 135.00 0.32182 0.00
19 15 8 o 1.569 1.514 82.73 0.32157 0.00
24 7 5 o 1.328 1.281 63.21 0.32157 0.00
16 15 13 o 0.558 0.538 39.89 0.32157 0.00
19 17 0 o 0.978 0.944 -90.00 0.32157 0.00
23 11 0 o 6.755 6.519 90.00 0.32157 0.00
20 15 5 o 0.203 0.196 -101.37 0.32157 0.00
25 4 3 o 6.662 6.430 128.60 0.32157 0.00
25 5 0 o 5.893 5.687 90.00 0.32157 0.00
20 13 9 o 1.308 1.262 49.28 0.32157 0.00
19 17 1 o 13.735 13.503 42.82 0.32132 0.01
25 5 1 o 20.113 19.773 -39.50 0.32132 0.01
23 11 1 o 8.224 8.086 -23.75 0.32132 0.00
19 13 11 o 18.358 18.048 -54.69 0.32132 0.01
18 18 2 o 94.609 94.465 -90.00 0.32108 0.02
22 13 0 o 0.452 0.457 0.00 0.32083 0.00
21 14 4 o 2.589 2.616 113.48 0.32083 0.00
22 12 5 o 2.580 2.607 -139.48 0.32083 0.00
19 16 6 o 1.577 1.593 43.15 0.32083 0.00
25 5 2 o 0.126 0.128 54.99 0.32059 0.00
19 17 2 o 0.198 0.202 -58.16 0.32059 0.00
23 11 2 o 0.484 0.494 -56.61 0.32059 0.00
23 10 5 o 8.191 8.350 -105.74 0.32059 0.00
22 11 7 o 4.487 4.574 168.19 0.32059 0.00
22 13 1 o 4.934 5.030 171.78 0.32059 0.00
17 14 13 o 7.774 7.925 178.21 0.32059 0.00
20 16 0 o 40.168 41.394 180.00 0.32010 0.01
16 16 12 o 86.703 89.348 -180.00 0.32010 0.02
24 8 4 o 42.519 43.816 -179.95 0.32010 0.02
24 9 0 o 0.509 0.526 180.00 0.31985 0.00
23 8 8 o 0.810 0.838 135.00 0.31985 0.00
18 18 3 o 11.620 12.017 -45.00 0.31985 0.00
25 4 4 o 0.602 0.623 45.00 0.31985 0.00
20 16 1 o 1.417 1.465 38.72 0.31985 0.00
22 13 2 o 5.602 5.793 70.13 0.31985 0.00
19 14 10 o 0.124 0.128 77.24 0.31985 0.00
24 9 1 o 1.748 1.812 69.05 0.31961 0.00
17 15 12 o 1.711 1.773 17.39 0.31961 0.00
25 5 3 o 20.673 21.431 -143.10 0.31937 0.01
19 17 3 o 21.992 22.799 131.68 0.31937 0.01
21 13 7 o 31.044 32.183 -144.60 0.31937 0.01
23 11 3 o 11.243 11.655 -147.96 0.31937 0.01
23 9 7 o 13.838 14.346 122.51 0.31937 0.01
17 17 9 o 9.255 9.594 135.00 0.31937 0.00
20 14 8 o 3.068 3.170 78.30 0.31913 0.00
20 16 2 o 4.420 4.566 -92.14 0.31913 0.00
25 6 0 o 0.029 0.030 90.00 0.31888 0.00
20 15 6 o 1.112 1.139 38.84 0.31888 0.00
24 7 6 o 2.600 2.663 120.92 0.31888 0.00
18 16 9 o 1.437 1.472 40.32 0.31888 0.00
24 9 2 o 1.263 1.294 -92.31 0.31888 0.00
21 11 10 o 1.889 1.908 -6.63 0.31864 0.00
18 13 13 o 15.141 15.290 -180.00 0.31864 0.00
21 14 5 o 4.733 4.780 -14.27 0.31864 0.00
18 17 7 o 0.220 0.223 -51.06 0.31864 0.00
22 13 3 o 0.693 0.700 -163.94 0.31864 0.00
25 6 1 o 2.240 2.262 -35.04 0.31864 0.00
22 12 6 o 0.910 0.879 -178.74 0.31816 0.00
18 14 12 o 4.937 4.769 -1.28 0.31816 0.00
18 18 4 o 4.354 4.206 -180.00 0.31816 0.00
23 10 6 o 0.153 0.144 -123.26 0.31792 0.00
24 8 5 o 0.907 0.852 89.20 0.31792 0.00
22 10 9 o 18.882 17.726 -129.87 0.31792 0.01
25 6 2 o 0.896 0.841 11.98 0.31792 0.00
20 12 11 o 5.970 5.604 163.86 0.31792 0.00
20 16 3 o 3.838 3.603 -34.19 0.31792 0.00
23 11 4 o 6.759 6.151 -97.86 0.31769 0.00
19 16 7 o 0.768 0.699 -94.57 0.31769 0.00
25 5 4 o 9.040 8.226 -55.97 0.31769 0.00
19 17 4 o 1.213 1.104 120.36 0.31769 0.00
17 16 11 o 2.510 2.284 -11.94 0.31769 0.00
21 12 9 o 10.087 9.179 -153.20 0.31769 0.00
21 15 0 o 0.187 0.171 90.00 0.31769 0.00
24 9 3 o 2.110 1.920 -66.27 0.31769 0.00
21 15 1 o 19.597 17.278 46.64 0.31745 0.01
19 15 9 o 7.987 7.042 -33.92 0.31745 0.00
22 13 4 o 0.770 0.642 126.07 0.31697 0.00
22 11 8 o 0.475 0.397 -159.08 0.31697 0.00
20 13 10 o 2.876 2.399 78.51 0.31697 0.00
18 15 11 o 6.553 5.359 -21.83 0.31674 0.00
25 6 3 o 5.728 4.685 -157.37 0.31674 0.00
21 15 2 o 3.087 2.525 -172.35 0.31674 0.00
20 16 4 o 53.824 43.142 0.07 0.31626 0.02
24 9 4 o 0.579 0.463 -24.45 0.31603 0.00
23 12 0 o 4.733 3.789 -90.00 0.31603 0.00
21 14 6 o 1.551 1.241 -91.19 0.31603 0.00
18 18 5 o 23.999 19.211 -135.00 0.31603 0.01
25 7 0 o 1.557 1.250 -90.00 0.31579 0.00
23 12 1 o 0.895 0.719 166.15 0.31579 0.00
23 9 8 o 1.879 1.509 79.76 0.31579 0.00
20 15 7 o 4.928 3.959 -100.09 0.31579 0.00
21 13 8 o 4.282 3.440 -39.58 0.31579 0.00
24 7 7 o 4.140 3.325 90.00 0.31579 0.00
19 13 12 o 0.368 0.296 -36.37 0.31579 0.00
19 17 5 o 10.251 8.295 -144.33 0.31556 0.00
25 7 1 o 22.667 18.342 -131.89 0.31556 0.01
21 15 3 o 33.767 27.324 137.77 0.31556 0.02
25 5 5 o 23.292 18.848 135.00 0.31556 0.01
23 11 5 o 10.896 8.817 156.69 0.31556 0.00
15 15 15 o 37.330 30.207 -135.00 0.31556 0.00
24 8 6 o 0.823 0.673 -131.05 0.31533 0.00
24 10 0 o 0.107 0.087 180.00 0.31533 0.00
20 14 9 o 0.640 0.531 -164.65 0.31509 0.00
22 12 7 o 0.369 0.307 172.87 0.31509 0.00
24 10 1 o 3.451 2.867 29.32 0.31509 0.00
16 15 14 o 2.830 2.352 131.02 0.31509 0.00
26 1 0 o 12.171 10.112 -180.00 0.31509 0.00
23 12 2 o 1.524 1.266 -164.83 0.31509 0.00
25 6 4 o 0.155 0.128 15.07 0.31509 0.00
18 17 8 o 2.342 1.946 -58.42 0.31509 0.00
19 14 11 o 6.624 5.609 52.76 0.31486 0.00
17 17 10 o 3.340 2.829 180.00 0.31486 0.00
22 13 5 o 14.003 11.857 -6.71 0.31486 0.01
25 7 2 o 8.932 7.564 -4.81 0.31486 0.00
23 10 7 o 9.493 8.039 -91.54 0.31486 0.00
26 1 1 o 0.005 0.004 0.00 0.31486 0.00
26 2 0 o 0.044 0.039 180.00 0.31440 0.00
18 16 10 o 5.000 4.446 -12.14 0.31440 0.00
22 14 0 o 1.419 1.262 0.00 0.31440 0.00
24 10 2 o 1.023 0.910 52.64 0.31440 0.00
16 16 13 o 2.170 1.985 -135.00 0.31417 0.00
17 14 14 o 9.922 9.078 45.00 0.31417 0.00
22 14 1 o 16.956 15.512 42.06 0.31417 0.01
19 16 8 o 1.909 1.746 -156.23 0.31417 0.00
26 2 1 o 19.569 17.902 5.85 0.31417 0.01
20 16 5 o 0.177 0.162 -124.93 0.31417 0.00
21 15 4 o 0.974 0.918 -147.54 0.31394 0.00
24 9 5 o 1.785 1.683 -103.55 0.31394 0.00
23 12 3 o 0.767 0.723 -24.18 0.31394 0.00
25 7 3 o 19.676 19.087 -44.82 0.31371 0.01
17 15 13 o 9.866 9.571 52.55 0.31371 0.00
21 11 11 o 40.503 39.290 -45.00 0.31371 0.01
22 10 10 o 69.245 68.958 90.00 0.31348 0.02
18 18 6 o 73.611 73.306 90.00 0.31348 0.02
26 2 2 o 87.861 87.497 -90.00 0.31348 0.02
22 14 2 o 92.014 91.633 -90.05 0.31348 0.04
24 10 3 o 2.853 2.903 -37.81 0.31325 0.00
21 12 10 o 2.938 2.990 -143.58 0.31325 0.00
26 3 0 o 10.187 10.367 -180.00 0.31325 0.00
19 18 0 o 10.149 10.328 90.00 0.31325 0.00
19 17 6 o 0.622 0.643 108.43 0.31302 0.00
21 14 7 o 1.654 1.710 -151.89 0.31302 0.00
19 18 1 o 5.106 5.278 -94.64 0.31302 0.00
25 6 5 o 0.842 0.870 116.89 0.31302 0.00
26 3 1 o 0.758 0.784 -168.81 0.31302 0.00
19 15 10 o 3.247 3.357 -26.85 0.31302 0.00
22 11 9 o 1.311 1.355 11.22 0.31302 0.00
23 11 6 o 2.606 2.694 114.69 0.31302 0.00
20 12 12 o 70.513 73.624 -180.00 0.31257 0.02
25 8 0 o 1.373 1.426 90.00 0.31234 0.00
20 15 8 o 3.445 3.577 88.77 0.31234 0.00
23 12 4 o 2.512 2.608 85.66 0.31234 0.00
20 17 0 o 2.715 2.819 -180.00 0.31234 0.00
22 13 6 o 9.300 9.656 -136.23 0.31234 0.00
24 8 7 o 4.086 4.243 -24.47 0.31234 0.00
22 14 3 o 11.496 11.937 -34.77 0.31234 0.00
26 3 2 o 17.838 18.522 -85.96 0.31234 0.01
18 14 13 o 14.351 14.901 51.52 0.31234 0.01
19 18 2 o 0.075 0.078 -105.73 0.31234 0.00
17 16 12 o 2.664 2.767 -120.33 0.31234 0.00
25 7 4 o 2.948 3.025 42.98 0.31211 0.00
20 17 1 o 3.877 3.979 164.84 0.31211 0.00
25 8 1 o 13.271 13.621 -141.22 0.31211 0.01
20 13 11 o 1.118 1.147 -53.84 0.31211 0.00
23 9 9 o 5.201 5.252 -135.00 0.31189 0.00
21 13 9 o 9.802 9.898 139.27 0.31189 0.00
21 15 5 o 12.778 12.904 -126.61 0.31189 0.01
22 12 8 o 6.793 6.730 102.09 0.31166 0.00
24 10 4 o 0.248 0.246 -44.62 0.31166 0.00
26 4 0 o 0.017 0.017 0.00 0.31166 0.00
20 16 6 o 4.536 4.494 84.83 0.31166 0.00
26 4 1 o 8.991 8.732 -101.39 0.31144 0.00
23 10 8 o 2.716 2.638 -62.99 0.31144 0.00
24 9 6 o 0.537 0.521 66.57 0.31144 0.00
25 8 2 o 1.901 1.846 -170.99 0.31144 0.00
20 17 2 o 6.673 6.481 -91.27 0.31144 0.00
18 15 12 o 4.202 4.081 -14.13 0.31144 0.00
26 3 3 o 1.844 1.756 -180.00 0.31121 0.00
19 18 3 o 5.954 5.673 -97.08 0.31121 0.00
18 17 9 o 11.832 11.272 177.71 0.31121 0.01
26 4 2 o 0.295 0.273 -93.90 0.31076 0.00
20 14 10 o 7.313 6.758 10.55 0.31076 0.00
22 14 4 o 2.065 1.908 167.55 0.31076 0.00
25 6 6 o 0.595 0.545 -135.00 0.31054 0.00
21 16 0 o 5.517 5.048 -90.00 0.31054 0.00
24 11 0 o 0.460 0.421 -180.00 0.31054 0.00
18 18 7 o 6.583 6.024 135.00 0.31054 0.00
19 16 9 o 0.063 0.057 -104.57 0.31032 0.00
23 12 5 o 0.658 0.599 -36.72 0.31032 0.00
24 11 1 o 0.550 0.500 -23.91 0.31032 0.00
23 13 0 o 3.779 3.437 -90.00 0.31032 0.00
25 8 3 o 12.088 10.994 -37.33 0.31032 0.01
20 17 3 o 3.478 3.163 -159.66 0.31032 0.00
21 16 1 o 14.327 13.031 29.58 0.31032 0.01
17 17 11 o 23.651 21.453 45.00 0.31010 0.00
23 13 1 o 12.219 11.084 42.55 0.31010 0.01
25 7 5 o 18.945 17.185 53.86 0.31010 0.01
19 13 13 o 3.206 2.908 45.00 0.31010 0.00
23 11 7 o 16.273 14.762 39.42 0.31010 0.01
19 17 7 o 29.294 26.573 -51.30 0.31010 0.01
19 18 4 o 10.632 9.660 -85.69 0.30965 0.00
19 14 12 o 4.515 4.102 117.59 0.30965 0.00
26 5 0 o 6.069 5.514 0.00 0.30965 0.00
24 10 5 o 1.422 1.292 -145.59 0.30965 0.00
21 14 8 o 1.716 1.559 -27.05 0.30965 0.00
24 11 2 o 0.123 0.112 155.84 0.30965 0.00
21 16 2 o 10.213 9.279 2.82 0.30965 0.00
26 4 3 o 8.699 7.903 100.27 0.30965 0.00
18 16 11 o 1.414 1.284 112.50 0.30965 0.00
22 13 7 o 0.178 0.162 172.35 0.30943 0.00
23 13 2 o 0.559 0.508 -138.36 0.30943 0.00
21 15 6 o 2.073 1.886 14.05 0.30943 0.00
26 5 1 o 0.876 0.797 -16.97 0.30943 0.00
24 8 8 o 47.054 42.745 0.00 0.30899 0.01
20 17 4 o 2.596 2.350 3.91 0.30877 0.00
20 16 7 o 3.989 3.611 152.16 0.30877 0.00
25 8 4 o 1.127 1.020 -102.78 0.30877 0.00
26 5 2 o 16.446 14.888 -100.04 0.30877 0.01
22 11 10 o 4.940 4.472 100.62 0.30877 0.00
22 14 5 o 19.086 17.279 -131.41 0.30877 0.01
21 16 3 o 12.756 11.501 145.23 0.30855 0.01
24 11 3 o 2.401 2.165 66.49 0.30855 0.00
20 15 9 o 1.016 0.916 78.48 0.30855 0.00
16 15 15 o 0.750 0.676 90.00 0.30855 0.00
24 9 7 o 1.962 1.769 111.36 0.30855 0.00
21 12 11 o 6.006 5.415 -31.13 0.30855 0.00
25 9 0 o 3.743 3.374 -90.00 0.30855 0.00
25 9 1 o 23.055 20.725 145.64 0.30834 0.01
23 13 3 o 18.615 16.734 131.51 0.30834 0.01
19 15 11 o 28.267 25.410 -136.00 0.30834 0.01
16 16 14 o 7.897 7.098 -90.00 0.30812 0.00
26 4 4 o 0.511 0.459 90.00 0.30812 0.00
22 15 0 o 2.854 2.574 0.00 0.30790 0.00
23 12 6 o 0.844 0.762 59.92 0.30790 0.00
22 12 9 o 2.158 1.947 21.42 0.30790 0.00
25 7 6 o 6.673 6.067 170.67 0.30768 0.00
25 9 2 o 0.217 0.197 -35.79 0.30768 0.00
23 10 9 o 4.365 3.968 77.58 0.30768 0.00
19 18 5 o 3.439 3.127 79.42 0.30768 0.00
21 13 10 o 1.726 1.569 -167.02 0.30768 0.00
22 15 1 o 1.747 1.589 -129.98 0.30768 0.00
17 15 14 o 0.298 0.271 -94.39 0.30768 0.00
26 5 3 o 0.213 0.194 128.67 0.30768 0.00
26 6 0 o 0.005 0.005 0.00 0.30725 0.00
24 10 6 o 4.187 3.898 -166.48 0.30725 0.00
18 18 8 o 3.361 3.129 0.00 0.30725 0.00
20 13 12 o 1.292 1.218 -138.13 0.30704 0.00
24 11 4 o 1.897 1.789 -62.06 0.30704 0.00
26 6 1 o 17.463 16.471 -160.86 0.30704 0.01
21 16 4 o 4.319 4.074 92.29 0.30704 0.00
18 17 10 o 8.515 8.032 29.75 0.30704 0.00
22 15 2 o 2.627 2.478 -84.41 0.30704 0.00
25 8 5 o 11.840 11.309 36.19 0.30682 0.00
17 16 13 o 1.079 1.030 -20.16 0.30682 0.00
19 17 8 o 1.370 1.309 -40.02 0.30682 0.00
23 13 4 o 2.929 2.797 96.93 0.30682 0.00
23 11 8 o 3.605 3.443 76.92 0.30682 0.00
20 17 5 o 3.354 3.203 -6.60 0.30682 0.00
25 9 3 o 22.317 21.555 32.27 0.30661 0.01
21 15 7 o 34.872 33.681 -41.00 0.30661 0.01
26 6 2 o 86.034 83.861 89.99 0.30639 0.03
18 14 14 o 38.308 37.341 -90.00 0.30639 0.01
22 14 6 o 75.407 73.503 89.88 0.30639 0.03
19 16 10 o 1.325 1.300 -87.55 0.30618 0.00
26 5 4 o 4.383 4.301 -162.93 0.30618 0.00
22 13 8 o 1.378 1.353 -74.88 0.30618 0.00
20 14 11 o 1.343 1.318 -60.15 0.30618 0.00
21 14 9 o 3.928 3.869 172.75 0.30597 0.00
22 15 3 o 2.364 2.328 138.59 0.30597 0.00
18 15 13 o 0.572 0.564 -138.25 0.30597 0.00
20 16 8 o 60.363 59.386 -179.92 0.30554 0.02
24 12 0 o 36.772 36.177 -180.00 0.30554 0.01
24 9 8 o 0.541 0.530 139.25 0.30533 0.00
26 6 3 o 16.398 16.055 170.14 0.30533 0.01
24 12 1 o 1.197 1.172 43.96 0.30533 0.00
19 18 6 o 0.390 0.382 107.72 0.30533 0.00
21 16 5 o 10.837 10.537 -155.65 0.30512 0.00
23 12 7 o 0.846 0.822 121.80 0.30512 0.00
17 17 12 o 0.000 0.000 89.98 0.30512 0.00
19 19 0 o 5.143 5.000 -90.00 0.30512 0.00
24 11 5 o 0.858 0.834 -126.09 0.30512 0.00
25 9 4 o 4.302 4.183 127.81 0.30512 0.00
19 19 1 o 5.725 5.522 135.00 0.30491 0.00
23 13 5 o 6.861 6.619 -142.67 0.30491 0.00
25 7 7 o 25.020 24.135 135.00 0.30491 0.00
20 18 0 o 1.767 1.691 -180.00 0.30470 0.00
18 16 12 o 7.853 7.518 -82.85 0.30470 0.00
24 12 2 o 0.910 0.871 -103.69 0.30470 0.00
20 17 6 o 6.285 5.982 81.75 0.30448 0.00
26 7 0 o 5.063 4.820 0.00 0.30448 0.00
24 10 7 o 1.665 1.585 127.57 0.30448 0.00
22 15 4 o 2.890 2.751 179.03 0.30448 0.00
20 15 10 o 1.324 1.260 -173.14 0.30448 0.00
25 8 6 o 1.065 1.014 32.18 0.30448 0.00
25 10 0 o 1.187 1.130 -90.00 0.30448 0.00
23 14 0 o 9.153 8.712 90.00 0.30448 0.00
20 18 1 o 0.008 0.008 -41.12 0.30448 0.00
26 7 1 o 1.678 1.593 9.87 0.30428 0.00
19 14 13 o 1.689 1.603 -96.43 0.30428 0.00
26 5 5 o 4.023 3.818 -180.00 0.30428 0.00
19 19 2 o 4.506 4.277 -180.00 0.30428 0.00
23 14 1 o 10.159 9.643 -103.55 0.30428 0.00
25 10 1 o 2.785 2.644 142.16 0.30428 0.00
22 11 11 o 5.566 5.284 0.00 0.30428 0.00
26 6 4 o 0.358 0.342 -113.82 0.30386 0.00
20 18 2 o 2.558 2.442 -113.82 0.30386 0.00
22 12 10 o 1.122 1.071 12.53 0.30386 0.00
18 18 9 o 15.898 15.307 45.00 0.30365 0.00
26 7 2 o 16.870 16.242 90.44 0.30365 0.01
24 12 3 o 2.865 2.758 -24.89 0.30365 0.00
23 14 2 o 0.205 0.198 -131.18 0.30365 0.00
21 12 12 o 1.334 1.285 -135.00 0.30365 0.00
25 10 2 o 1.430 1.377 178.88 0.30365 0.00
23 10 10 o 0.457 0.440 135.00 0.30365 0.00
22 14 7 o 7.391 7.116 154.64 0.30365 0.00
21 17 0 o 0.157 0.153 90.00 0.30344 0.00
27 1 0 o 0.019 0.019 90.00 0.30344 0.00
19 15 12 o 0.440 0.428 -94.94 0.30344 0.00
21 15 8 o 2.262 2.201 26.72 0.30344 0.00
21 17 1 o 21.735 21.414 -38.72 0.30323 0.01
19 17 9 o 4.032 3.972 29.23 0.30323 0.00
21 13 11 o 19.587 19.298 34.01 0.30323 0.01
19 19 3 o 9.609 9.467 45.00 0.30323 0.00
23 11 9 o 10.188 10.037 -26.73 0.30323 0.00
27 1 1 o 16.210 15.971 45.00 0.30323 0.00
25 9 5 o 14.547 14.332 -38.07 0.30323 0.01
27 2 0 o 1.104 1.110 90.00 0.30282 0.00
20 18 3 o 0.079 0.079 126.69 0.30282 0.00
24 11 6 o 0.521 0.524 -6.52 0.30282 0.00
21 16 6 o 7.519 7.558 -167.86 0.30282 0.00
19 18 7 o 5.591 5.646 61.28 0.30261 0.00
21 17 2 o 0.157 0.159 5.49 0.30261 0.00
23 14 3 o 9.539 9.633 -85.35 0.30261 0.00
22 13 9 o 14.812 14.959 175.97 0.30261 0.01
26 7 3 o 2.218 2.240 -4.73 0.30261 0.00
27 2 1 o 0.664 0.671 -64.58 0.30261 0.00
18 17 11 o 0.099 0.100 11.91 0.30261 0.00
22 15 5 o 0.876 0.885 42.37 0.30261 0.00
25 10 3 o 3.682 3.719 25.45 0.30261 0.00
23 13 6 o 1.137 1.148 75.71 0.30261 0.00
24 12 4 o 36.514 36.669 0.15 0.30220 0.01
26 6 5 o 14.328 14.257 26.36 0.30200 0.01
21 14 10 o 2.403 2.391 63.62 0.30200 0.00
27 2 2 o 0.003 0.003 -45.00 0.30200 0.00
20 16 9 o 0.261 0.260 -150.72 0.30200 0.00
23 12 8 o 0.941 0.936 -93.91 0.30200 0.00
16 16 15 o 2.409 2.397 -45.00 0.30200 0.00
24 9 9 o 1.152 1.133 90.00 0.30179 0.00
20 13 13 o 0.976 0.960 -90.00 0.30179 0.00
25 8 7 o 6.841 6.731 143.03 0.30179 0.00
20 17 7 o 1.732 1.704 14.94 0.30179 0.00
19 19 4 o 3.916 3.853 90.00 0.30179 0.00
19 16 11 o 0.180 0.177 105.10 0.30179 0.00
27 3 0 o 2.823 2.778 -90.00 0.30179 0.00
27 3 1 o 15.661 15.240 139.11 0.30159 0.01
17 15 15 o 30.990 30.158 135.00 0.30159 0.01
21 17 3 o 30.077 29.269 -140.93 0.30159 0.01
20 18 4 o 2.218 2.140 38.01 0.30138 0.00
26 8 0 o 0.220 0.212 -180.00 0.30138 0.00
24 10 8 o 0.700 0.675 125.32 0.30138 0.00
22 16 0 o 2.321 2.238 0.00 0.30138 0.00
20 14 12 o 4.033 3.890 -91.71 0.30138 0.00
22 16 1 o 0.856 0.822 -155.07 0.30118 0.00
23 14 4 o 7.949 7.630 -82.50 0.30118 0.00
25 10 4 o 0.771 0.740 124.99 0.30118 0.00
26 8 1 o 4.727 4.537 61.86 0.30118 0.00
26 7 4 o 4.102 3.937 170.44 0.30118 0.00
17 16 14 o 3.874 3.719 31.20 0.30118 0.00
25 9 6 o 0.284 0.272 96.11 0.30098 0.00
27 3 2 o 0.609 0.584 116.14 0.30098 0.00
26 8 2 o 0.520 0.505 100.58 0.30057 0.00
22 14 8 o 1.516 1.472 -20.62 0.30057 0.00
22 16 2 o 0.675 0.656 117.24 0.30057 0.00
27 4 0 o 1.085 1.062 90.00 0.30037 0.00
24 13 0 o 0.011 0.011 0.00 0.30037 0.00
24 12 5 o 0.467 0.457 -90.55 0.30037 0.00
18 15 14 o 1.349 1.321 -52.03 0.30037 0.00
22 15 6 o 2.653 2.598 100.00 0.30037 0.00
24 11 7 o 4.527 4.469 -100.37 0.30017 0.00
21 17 4 o 0.241 0.238 -49.64 0.30017 0.00
21 16 7 o 7.463 7.367 -36.25 0.30017 0.00
24 13 1 o 0.743 0.733 -143.61 0.30017 0.00
27 4 1 o 0.319 0.315 23.04 0.30017 0.00
20 15 11 o 3.010 2.971 81.74 0.30017 0.00
25 11 0 o 0.137 0.136 90.00 0.30017 0.00
25 11 1 o 14.945 14.837 46.03 0.29997 0.01
17 17 13 o 3.075 3.052 -45.00 0.29997 0.00
21 15 9 o 9.534 9.465 59.20 0.29997 0.00
27 3 3 o 13.160 13.065 45.00 0.29997 0.00
23 13 7 o 16.931 16.808 -53.88 0.29997 0.01
19 19 5 o 3.520 3.494 -45.00 0.29997 0.00
18 18 10 o 44.791 44.584 -90.00 0.29977 0.01
26 6 6 o 77.732 77.372 -90.00 0.29977 0.01
18 16 13 o 2.009 1.999 -137.08 0.29957 0.00
26 8 3 o 4.299 4.277 -66.50 0.29957 0.00
22 16 3 o 0.411 0.408 168.08 0.29957 0.00
19 18 8 o 7.417 7.379 100.05 0.29957 0.00
22 12 11 o 0.618 0.615 80.62 0.29957 0.00
24 13 2 o 0.238 0.237 -85.46 0.29957 0.00
27 4 2 o 0.584 0.581 172.12 0.29957 0.00
20 18 5 o 0.141 0.140 -139.67 0.29957 0.00
19 17 10 o 1.078 1.069 -77.72 0.29937 0.00
23 14 5 o 6.508 6.456 70.67 0.29937 0.00
26 7 5 o 1.065 1.057 -161.85 0.29937 0.00
25 11 2 o 7.222 7.163 -179.14 0.29937 0.00
23 11 10 o 5.521 5.476 -60.00 0.29937 0.00
25 10 5 o 1.200 1.190 -44.50 0.29937 0.00
25 8 8 o 0.383 0.375 45.00 0.29877 0.00
19 14 14 o 0.922 0.902 -45.00 0.29877 0.00
22 13 10 o 11.732 11.474 34.06 0.29877 0.00
20 17 8 o 1.709 1.672 -168.92 0.29877 0.00
21 13 12 o 2.855 2.783 167.80 0.29857 0.00
23 12 9 o 0.446 0.435 100.52 0.29857 0.00
23 15 0 o 6.963 6.787 -90.00 0.29857 0.00
27 4 3 o 2.592 2.527 109.64 0.29857 0.00
27 5 0 o 1.310 1.277 90.00 0.29857 0.00
24 13 3 o 0.691 0.673 138.51 0.29857 0.00
19 15 13 o 14.843 14.437 141.56 0.29837 0.01
21 17 5 o 13.290 12.927 141.11 0.29837 0.00
27 5 1 o 16.892 16.430 -134.47 0.29837 0.01
25 11 3 o 21.431 20.845 137.47 0.29837 0.01
23 15 1 o 7.361 7.159 155.25 0.29837 0.00
25 9 7 o 20.570 20.007 -147.73 0.29837 0.01
26 8 4 o 1.373 1.333 -73.29 0.29818 0.00
24 12 6 o 1.187 1.152 60.06 0.29818 0.00
22 16 4 o 3.378 3.280 137.37 0.29818 0.00
20 16 10 o 4.165 4.043 -95.41 0.29818 0.00
18 17 12 o 1.788 1.732 78.49 0.29798 0.00
26 9 0 o 0.583 0.564 180.00 0.29798 0.00
24 10 9 o 0.044 0.043 80.37 0.29798 0.00
22 15 7 o 3.834 3.700 -26.33 0.29778 0.00
19 19 6 o 5.271 5.088 0.00 0.29778 0.00
21 14 11 o 0.507 0.489 6.21 0.29778 0.00
27 5 2 o 0.751 0.725 39.23 0.29778 0.00
23 15 2 o 3.641 3.514 171.35 0.29778 0.00
26 9 1 o 2.678 2.585 160.16 0.29778 0.00
20 18 6 o 3.166 3.023 40.58 0.29739 0.00
24 11 8 o 3.559 3.372 97.26 0.29720 0.00
22 14 9 o 14.702 13.933 53.71 0.29720 0.01
19 16 12 o 1.236 1.172 -5.05 0.29720 0.00
24 13 4 o 0.112 0.106 112.07 0.29720 0.00
23 14 6 o 0.690 0.654 95.99 0.29720 0.00
21 16 8 o 2.364 2.240 -88.14 0.29720 0.00
20 19 0 o 0.951 0.902 -180.00 0.29720 0.00
27 4 4 o 1.734 1.643 -45.00 0.29720 0.00
25 10 6 o 0.498 0.472 -5.26 0.29720 0.00
26 9 2 o 10.722 10.161 77.95 0.29720 0.00
26 7 6 o 15.046 14.259 -85.77 0.29720 0.01
23 13 8 o 1.799 1.691 -73.93 0.29700 0.00
20 19 1 o 0.224 0.211 131.48 0.29700 0.00
25 11 4 o 1.228 1.154 -147.06 0.29700 0.00
23 15 3 o 10.865 10.121 31.02 0.29681 0.00
27 5 3 o 15.715 14.638 -49.76 0.29681 0.01
20 14 13 o 2.437 2.229 18.02 0.29642 0.00
21 18 0 o 5.687 5.202 90.00 0.29642 0.00
20 19 2 o 4.311 3.943 81.72 0.29642 0.00
27 6 0 o 2.094 1.915 -90.00 0.29642 0.00
22 16 5 o 1.255 1.148 18.99 0.29642 0.00
26 8 5 o 3.158 2.888 -126.74 0.29642 0.00
21 17 6 o 0.469 0.426 -171.39 0.29622 0.00
21 15 10 o 1.150 1.043 -151.41 0.29622 0.00
26 9 3 o 0.397 0.360 -113.89 0.29622 0.00
27 6 1 o 3.691 3.348 96.19 0.29622 0.00
19 18 9 o 1.569 1.423 -96.89 0.29622 0.00
21 18 1 o 3.994 3.622 -0.93 0.29622 0.00
16 16 16 o 99.177 88.803 0.00 0.29584 0.01
27 6 2 o 0.039 0.035 133.53 0.29565 0.00
24 12 7 o 3.743 3.342 171.14 0.29565 0.00
21 18 2 o 0.317 0.283 -81.18 0.29565 0.00
25 12 0 o 2.241 2.000 -90.00 0.29565 0.00
20 15 12 o 3.604 3.217 -86.49 0.29565 0.00
18 18 11 o 3.602 3.216 -45.00 0.29565 0.00
23 15 4 o 6.173 5.508 86.59 0.29545 0.00
25 12 1 o 16.060 14.332 33.06 0.29545 0.01
25 9 8 o 7.203 6.428 -33.17 0.29545 0.00
20 19 3 o 1.128 1.007 -120.69 0.29545 0.00
17 16 15 o 0.946 0.844 175.38 0.29545 0.00
20 17 9 o 2.117 1.889 -163.72 0.29545 0.00
27 5 4 o 1.415 1.263 -107.00 0.29545 0.00
24 13 5 o 0.742 0.663 45.23 0.29545 0.00
25 11 5 o 15.245 13.635 -127.60 0.29526 0.01
23 11 11 o 21.657 19.370 -135.00 0.29526 0.00
19 17 11 o 31.073 27.791 128.59 0.29526 0.01
19 19 7 o 19.284 17.246 -135.00 0.29526 0.00
24 14 0 o 0.062 0.055 -180.00 0.29507 0.00
22 12 12 o 8.096 7.272 -90.00 0.29507 0.00
25 12 2 o 4.614 4.172 5.24 0.29488 0.00
24 14 1 o 0.758 0.686 -115.18 0.29488 0.00
23 12 10 o 1.375 1.243 -61.83 0.29488 0.00
26 9 4 o 0.900 0.814 37.76 0.29488 0.00
22 17 0 o 3.652 3.302 -180.00 0.29488 0.00
22 15 8 o 2.913 2.634 -3.66 0.29488 0.00
20 18 7 o 0.335 0.303 -57.84 0.29488 0.00
22 13 11 o 1.023 0.932 -3.16 0.29469 0.00
23 14 7 o 8.786 8.011 77.34 0.29469 0.00
27 6 3 o 4.274 3.897 80.26 0.29469 0.00
25 10 7 o 4.189 3.820 -164.08 0.29469 0.00
17 17 14 o 4.895 4.464 0.00 0.29469 0.00
18 15 15 o 6.891 6.283 180.00 0.29469 0.00
21 18 3 o 1.874 1.709 -168.90 0.29469 0.00
22 17 1 o 5.174 4.718 -14.27 0.29469 0.00
26 7 7 o 2.710 2.471 180.00 0.29469 0.00
26 8 6 o 0.597 0.557 -90.68 0.29431 0.00
24 10 10 o 5.233 4.882 0.00 0.29431 0.00
22 16 6 o 0.746 0.697 -36.86 0.29431 0.00
26 10 0 o 0.021 0.019 180.00 0.29431 0.00
24 14 2 o 1.934 1.805 -121.46 0.29431 0.00
18 16 14 o 4.756 4.438 177.06 0.29431 0.00
20 16 11 o 2.634 2.493 -20.76 0.29412 0.00
20 19 4 o 1.710 1.618 42.91 0.29412 0.00
22 17 2 o 2.125 2.011 -118.87 0.29412 0.00
26 10 1 o 13.748 13.010 28.97 0.29412 0.00
24 11 9 o 1.714 1.647 69.76 0.29393 0.00
21 16 9 o 5.974 5.740 12.23 0.29393 0.00
27 7 0 o 7.401 7.110 90.00 0.29393 0.00
25 12 3 o 13.208 12.689 142.59 0.29393 0.00
27 7 1 o 11.698 11.407 -33.31 0.29374 0.00
27 5 5 o 13.501 13.166 45.00 0.29374 0.00
21 17 7 o 27.176 26.501 38.99 0.29374 0.01
21 13 13 o 4.019 3.919 -45.00 0.29374 0.00
23 13 9 o 2.415 2.355 34.82 0.29374 0.00
23 15 5 o 5.500 5.363 -20.99 0.29374 0.00
22 14 10 o 48.665 48.101 -90.11 0.29355 0.02
26 10 2 o 77.693 76.791 -90.05 0.29355 0.03
21 18 4 o 4.427 4.424 -71.91 0.29337 0.00
21 14 12 o 1.836 1.835 -152.42 0.29337 0.00
24 14 3 o 0.864 0.864 113.11 0.29337 0.00
27 6 4 o 1.294 1.293 104.03 0.29337 0.00
24 13 6 o 0.474 0.473 84.23 0.29337 0.00
26 9 5 o 7.179 7.226 -7.93 0.29318 0.00
18 17 13 o 8.823 8.882 -3.14 0.29318 0.00
19 15 14 o 5.674 5.711 160.37 0.29318 0.00
25 11 6 o 5.280 5.315 -1.18 0.29318 0.00
22 17 3 o 1.012 1.019 15.07 0.29318 0.00
27 7 2 o 1.006 1.013 -39.63 0.29318 0.00
28 0 0 o 40.349 40.727 -180.00 0.29280 0.00
24 12 8 o 45.487 45.913 -179.86 0.29280 0.02
26 10 3 o 12.600 12.664 -18.13 0.29262 0.00
19 18 10 o 1.232 1.238 -55.93 0.29262 0.00
23 16 0 o 3.368 3.385 90.00 0.29262 0.00
25 12 4 o 1.431 1.438 98.45 0.29262 0.00
28 1 0 o 2.751 2.765 0.00 0.29262 0.00
19 16 13 o 0.179 0.178 141.73 0.29243 0.00
28 1 1 o 0.597 0.595 -90.00 0.29243 0.00
23 16 1 o 0.065 0.065 -22.33 0.29243 0.00
19 19 8 o 2.639 2.633 -90.00 0.29243 0.00
20 19 5 o 0.090 0.090 49.55 0.29243 0.00
25 9 9 o 10.177 10.058 135.00 0.29225 0.00
21 15 11 o 38.991 38.534 137.66 0.29225 0.01
27 7 3 o 12.441 12.295 -141.98 0.29225 0.00
20 18 8 o 2.927 2.859 -117.58 0.29206 0.00
28 2 0 o 0.095 0.093 0.00 0.29206 0.00
24 14 4 o 0.155 0.152 68.14 0.29206 0.00
26 8 7 o 1.751 1.689 115.56 0.29187 0.00
22 17 4 o 3.211 3.096 -20.07 0.29187 0.00
23 14 8 o 5.207 5.021 107.91 0.29187 0.00
28 2 1 o 7.827 7.547 -175.11 0.29187 0.00
25 10 8 o 0.747 0.720 3.31 0.29187 0.00
23 16 2 o 3.451 3.328 9.39 0.29187 0.00
20 17 10 o 5.250 5.062 -102.92 0.29187 0.00
22 16 7 o 0.131 0.126 37.15 0.29187 0.00
23 15 6 o 4.868 4.630 -21.94 0.29169 0.00
27 6 5 o 2.680 2.549 -76.65 0.29169 0.00
21 18 5 o 5.015 4.770 -175.46 0.29169 0.00
22 15 9 o 0.778 0.740 -157.14 0.29169 0.00
28 2 2 o 0.057 0.053 180.00 0.29132 0.00
26 10 4 o 0.303 0.281 94.58 0.29132 0.00
20 14 14 o 6.642 6.158 -180.00 0.29132 0.00
18 18 12 o 3.463 3.211 -180.00 0.29132 0.00
28 3 0 o 2.366 2.171 0.00 0.29114 0.00
27 8 0 o 3.637 3.338 -90.00 0.29114 0.00
26 9 6 o 11.884 10.908 -124.01 0.29114 0.00
19 17 12 o 1.054 0.961 154.24 0.29095 0.00
20 15 13 o 0.957 0.873 -110.18 0.29095 0.00
27 7 4 o 7.558 6.888 -99.41 0.29095 0.00
23 16 3 o 0.005 0.004 178.55 0.29095 0.00
28 3 1 o 0.318 0.290 -124.05 0.29095 0.00
25 13 0 o 0.497 0.453 90.00 0.29095 0.00
21 17 8 o 0.328 0.299 -179.16 0.29095 0.00
24 13 7 o 0.928 0.846 -57.33 0.29095 0.00
25 12 5 o 13.119 11.957 -150.48 0.29095 0.00
27 8 1 o 0.598 0.545 -165.48 0.29095 0.00
23 12 11 o 1.767 1.610 -82.28 0.29095 0.00
25 13 1 o 19.552 17.760 -30.91 0.29077 0.01
25 11 7 o 28.786 26.148 -42.69 0.29077 0.01
20 19 6 o 2.946 2.691 -119.37 0.29041 0.00
24 11 10 o 1.069 0.976 -178.32 0.29041 0.00
22 13 12 o 1.689 1.543 85.95 0.29041 0.00
27 8 2 o 0.042 0.038 -86.91 0.29041 0.00
26 11 0 o 0.787 0.719 180.00 0.29041 0.00
21 16 10 o 5.734 5.238 21.44 0.29041 0.00
28 3 2 o 5.588 5.105 -85.07 0.29041 0.00
24 14 5 o 0.198 0.181 77.68 0.29041 0.00
22 17 5 o 9.254 8.526 167.28 0.29022 0.00
23 13 10 o 1.996 1.839 -85.64 0.29022 0.00
26 11 1 o 1.391 1.282 -169.46 0.29022 0.00
25 13 2 o 0.162 0.149 163.61 0.29022 0.00
28 4 0 o 39.261 37.075 0.00 0.28986 0.01
20 20 0 o 30.566 28.864 0.00 0.28986 0.00
20 16 12 o 76.020 71.788 0.04 0.28986 0.02
28 4 1 o 2.484 2.380 -95.62 0.28968 0.00
24 12 9 o 0.456 0.437 153.47 0.28968 0.00
27 6 6 o 0.375 0.360 -45.00 0.28968 0.00
24 15 0 o 0.000 0.000 0.00 0.28968 0.00
23 16 4 o 3.127 2.996 -104.56 0.28968 0.00
26 10 5 o 13.085 12.537 -139.90 0.28968 0.00
21 18 6 o 1.915 1.835 82.13 0.28968 0.00
22 14 11 o 4.607 4.414 -20.71 0.28968 0.00
26 11 2 o 12.864 12.325 -89.43 0.28968 0.00
17 16 16 o 1.413 1.354 45.00 0.28968 0.00
20 20 1 o 0.548 0.525 -135.00 0.28968 0.00
24 15 1 o 0.794 0.772 157.72 0.28950 0.00
28 3 3 o 0.036 0.035 -90.00 0.28950 0.00
21 19 0 o 0.197 0.192 -90.00 0.28950 0.00
27 8 3 o 2.387 2.321 -60.89 0.28950 0.00
23 15 7 o 16.107 15.897 -142.22 0.28932 0.01
27 7 5 o 12.381 12.220 146.66 0.28932 0.00
25 13 3 o 22.872 22.574 -148.87 0.28932 0.01
21 19 1 o 12.862 12.694 -133.53 0.28932 0.00
19 19 9 o 5.353 5.283 135.00 0.28932 0.00
17 17 15 o 9.669 9.543 -135.00 0.28932 0.00
22 16 8 o 4.859 4.865 -65.57 0.28914 0.00
26 8 8 o 3.279 3.283 90.00 0.28914 0.00
20 20 2 o 3.422 3.427 90.00 0.28914 0.00
28 4 2 o 0.146 0.147 -36.50 0.28914 0.00
18 16 15 o 2.260 2.295 -64.28 0.28896 0.00
24 15 2 o 1.606 1.631 79.58 0.28896 0.00
25 12 6 o 2.911 2.957 -158.83 0.28896 0.00
20 18 9 o 0.656 0.666 33.60 0.28896 0.00
21 14 13 o 2.670 2.751 0.89 0.28878 0.00
25 10 9 o 0.366 0.377 127.51 0.28878 0.00
21 19 2 o 0.405 0.417 17.82 0.28878 0.00
19 18 11 o 5.627 5.796 -144.68 0.28878 0.00
23 14 9 o 3.341 3.441 -110.06 0.28878 0.00
26 11 3 o 1.558 1.605 172.32 0.28878 0.00
26 9 7 o 0.627 0.645 154.53 0.28878 0.00
22 18 0 o 1.660 1.759 180.00 0.28842 0.00
24 14 6 o 2.996 3.175 29.28 0.28842 0.00
22 18 1 o 10.518 11.305 -135.26 0.28824 0.00
28 5 0 o 2.822 3.033 180.00 0.28824 0.00
22 17 6 o 4.167 4.479 34.67 0.28824 0.00
27 8 4 o 2.549 2.740 108.88 0.28824 0.00
28 4 3 o 1.566 1.683 112.59 0.28824 0.00
24 13 8 o 0.293 0.315 -88.50 0.28824 0.00
18 17 14 o 7.054 7.581 -144.71 0.28824 0.00
20 20 3 o 0.764 0.821 135.00 0.28824 0.00
22 15 10 o 2.705 2.907 -71.52 0.28824 0.00
25 13 4 o 0.978 1.065 -41.13 0.28807 0.00
20 17 11 o 0.567 0.617 179.19 0.28807 0.00
20 19 7 o 1.096 1.193 56.22 0.28807 0.00
27 9 0 o 3.551 3.867 -90.00 0.28807 0.00
24 15 3 o 2.096 2.282 -127.12 0.28807 0.00
21 15 12 o 2.266 2.468 -149.26 0.28807 0.00
23 16 5 o 0.041 0.045 143.02 0.28807 0.00
28 5 1 o 0.703 0.766 78.39 0.28807 0.00
25 11 8 o 2.910 3.169 33.45 0.28807 0.00
27 9 1 o 11.883 13.082 42.96 0.28789 0.00
19 15 15 o 23.537 25.911 45.00 0.28789 0.00
21 17 9 o 4.766 5.246 -39.42 0.28789 0.00
21 19 3 o 18.514 20.382 -41.39 0.28789 0.01
22 18 2 o 68.029 75.470 89.95 0.28771 0.02
26 10 6 o 60.039 66.605 89.90 0.28771 0.02
28 5 2 o 5.180 5.767 -92.56 0.28753 0.00
26 11 4 o 0.372 0.414 -12.82 0.28753 0.00
19 16 14 o 1.811 2.016 131.65 0.28753 0.00
21 18 7 o 0.372 0.414 18.43 0.28736 0.00
27 7 6 o 3.013 3.348 116.76 0.28736 0.00
27 9 2 o 1.105 1.228 -156.34 0.28736 0.00
28 4 4 o 34.419 37.554 -180.00 0.28701 0.01
20 20 4 o 32.357 35.304 180.00 0.28701 0.00
22 18 3 o 8.353 8.974 140.16 0.28683 0.00
23 12 12 o 0.027 0.029 135.00 0.28683 0.00
18 18 13 o 8.998 9.668 -135.00 0.28683 0.00
24 15 4 o 0.897 0.963 82.55 0.28683 0.00
23 17 0 o 1.692 1.785 90.00 0.28665 0.00
21 16 11 o 3.441 3.630 142.08 0.28665 0.00
23 15 8 o 3.763 3.970 -94.13 0.28665 0.00
24 11 11 o 3.895 4.110 90.00 0.28665 0.00
21 19 4 o 0.564 0.595 38.72 0.28665 0.00
28 5 3 o 0.832 0.878 -62.78 0.28665 0.00
25 12 7 o 7.922 8.358 -39.62 0.28665 0.00
27 8 5 o 0.704 0.742 -57.15 0.28665 0.00
23 13 11 o 14.508 15.007 122.95 0.28648 0.00
23 17 1 o 10.018 10.363 -139.62 0.28648 0.00
19 17 13 o 2.702 2.795 -146.90 0.28648 0.00
25 13 5 o 11.653 12.054 147.23 0.28648 0.00
27 9 3 o 14.402 14.897 132.60 0.28648 0.00
28 6 0 o 0.525 0.532 -180.00 0.28630 0.00
26 12 0 o 0.701 0.710 0.00 0.28630 0.00
24 12 10 o 1.131 1.146 -120.78 0.28630 0.00
24 14 7 o 0.929 0.923 -82.99 0.28613 0.00
20 15 14 o 1.197 1.189 -20.44 0.28613 0.00
28 6 1 o 4.430 4.401 14.00 0.28613 0.00
25 14 0 o 2.997 2.978 90.00 0.28613 0.00
22 16 9 o 1.269 1.261 -161.18 0.28613 0.00
23 16 6 o 2.087 2.074 -145.65 0.28613 0.00
26 12 1 o 1.979 1.966 -142.05 0.28613 0.00
26 9 8 o 1.066 1.059 -109.74 0.28613 0.00
25 14 1 o 2.040 1.988 -20.73 0.28596 0.00
19 19 10 o 6.381 6.217 -180.00 0.28596 0.00
26 11 5 o 1.170 1.140 8.38 0.28596 0.00
22 13 13 o 12.932 12.600 0.00 0.28596 0.00
22 17 7 o 0.012 0.011 -55.61 0.28596 0.00
23 17 2 o 0.375 0.365 24.02 0.28596 0.00
26 12 2 o 0.187 0.176 -97.47 0.28561 0.00
20 18 10 o 4.093 3.840 -159.98 0.28561 0.00
28 6 2 o 0.152 0.142 25.24 0.28561 0.00
22 18 4 o 1.481 1.389 -8.44 0.28561 0.00
22 14 12 o 1.663 1.560 165.02 0.28561 0.00
25 10 10 o 0.007 0.006 45.00 0.28544 0.00
25 14 2 o 1.331 1.225 -11.94 0.28544 0.00
20 20 5 o 0.021 0.019 45.00 0.28544 0.00
23 14 10 o 2.001 1.842 -58.81 0.28544 0.00
20 19 8 o 2.380 2.191 -116.36 0.28544 0.00
20 16 13 o 0.913 0.840 40.46 0.28544 0.00
28 5 4 o 2.597 2.390 -8.08 0.28544 0.00
26 10 7 o 11.711 10.779 172.80 0.28544 0.00
27 9 4 o 3.404 3.073 88.29 0.28526 0.00
24 13 9 o 0.799 0.721 -113.12 0.28526 0.00
24 15 5 o 0.768 0.693 40.71 0.28526 0.00
23 17 3 o 18.104 16.028 -46.78 0.28509 0.01
25 11 9 o 14.984 13.266 57.94 0.28509 0.00
27 7 7 o 13.332 11.803 45.00 0.28509 0.00
21 19 5 o 7.137 6.318 55.34 0.28509 0.00
28 6 3 o 3.546 3.024 -21.01 0.28475 0.00
27 8 6 o 0.496 0.423 128.89 0.28475 0.00
27 10 0 o 3.863 3.294 90.00 0.28475 0.00
19 18 12 o 5.650 4.817 -72.19 0.28475 0.00
26 12 3 o 1.748 1.490 139.67 0.28475 0.00
21 18 8 o 2.703 2.305 135.86 0.28475 0.00
25 13 6 o 0.109 0.091 -66.65 0.28457 0.00
25 14 3 o 2.688 2.253 -157.85 0.28457 0.00
27 10 1 o 6.921 5.799 -90.64 0.28457 0.00
22 15 11 o 6.115 5.124 168.50 0.28457 0.00
21 17 10 o 1.238 1.037 2.36 0.28457 0.00
24 16 0 o 33.846 27.500 0.00 0.28423 0.01
26 11 6 o 13.412 10.759 89.93 0.28406 0.00
21 14 14 o 4.003 3.212 -135.00 0.28406 0.00
24 16 1 o 0.514 0.412 -147.12 0.28406 0.00
28 7 0 o 1.230 0.987 -180.00 0.28406 0.00
22 18 5 o 13.005 10.433 48.77 0.28406 0.00
25 12 8 o 0.546 0.438 -72.01 0.28406 0.00
20 17 12 o 1.285 1.031 23.57 0.28406 0.00
27 10 2 o 0.229 0.183 -49.88 0.28406 0.00
28 7 1 o 0.580 0.461 7.92 0.28389 0.00
17 17 16 o 0.442 0.351 90.00 0.28389 0.00
28 5 5 o 0.744 0.591 -90.00 0.28389 0.00
23 16 7 o 0.202 0.160 -111.71 0.28389 0.00
23 17 4 o 2.245 1.783 -70.28 0.28389 0.00
23 15 9 o 8.724 6.881 153.81 0.28372 0.00
21 15 13 o 11.825 9.326 -121.84 0.28372 0.00
27 9 5 o 12.289 9.692 -138.35 0.28372 0.00
24 16 2 o 1.973 1.552 82.12 0.28355 0.00
26 12 4 o 2.396 1.885 121.67 0.28355 0.00
20 20 6 o 4.023 3.165 -90.00 0.28355 0.00
18 16 16 o 6.501 5.114 90.00 0.28355 0.00
24 14 8 o 0.542 0.426 -84.13 0.28355 0.00
28 6 4 o 0.743 0.584 13.98 0.28355 0.00
22 17 8 o 2.532 1.996 133.85 0.28338 0.00
25 14 4 o 3.122 2.462 -67.89 0.28338 0.00
24 15 6 o 1.891 1.491 -123.59 0.28338 0.00
28 7 2 o 1.610 1.269 101.83 0.28338 0.00
21 19 6 o 0.918 0.729 -131.03 0.28321 0.00
26 9 9 o 12.903 10.248 -180.00 0.28321 0.00
18 17 15 o 0.276 0.219 161.60 0.28321 0.00
27 10 3 o 7.825 6.214 -96.68 0.28321 0.00
26 10 8 o 0.738 0.603 -92.41 0.28288 0.00
22 16 10 o 1.367 1.117 169.85 0.28288 0.00
21 16 12 o 0.901 0.749 82.28 0.28271 0.00
24 16 3 o 1.167 0.971 172.27 0.28271 0.00
21 20 0 o 2.473 2.058 90.00 0.28271 0.00
24 12 11 o 3.620 3.013 3.85 0.28271 0.00
28 7 3 o 0.802 0.681 58.85 0.28254 0.00
21 20 1 o 6.768 5.747 -143.66 0.28254 0.00
29 1 0 o 1.076 0.914 90.00 0.28254 0.00
27 8 7 o 5.653 4.799 104.35 0.28254 0.00
23 13 12 o 0.635 0.539 122.63 0.28254 0.00
19 16 15 o 0.042 0.036 42.21 0.28254 0.00
20 19 9 o 0.585 0.497 -102.68 0.28254 0.00
19 19 11 o 24.750 21.440 45.00 0.28237 0.00
29 1 1 o 10.117 8.764 -45.00 0.28237 0.00
25 13 7 o 23.379 20.252 31.15 0.28237 0.01
23 17 5 o 5.145 4.457 31.20 0.28237 0.00
22 18 6 o 64.681 57.131 -90.13 0.28220 0.02
18 18 14 o 25.712 22.711 90.00 0.28220 0.00
26 13 0 o 0.474 0.426 -180.00 0.28204 0.00
20 18 11 o 0.683 0.614 128.72 0.28204 0.00
29 2 0 o 0.426 0.384 -90.00 0.28204 0.00
22 19 0 o 5.961 5.361 -180.00 0.28204 0.00
26 12 5 o 1.815 1.632 22.38 0.28204 0.00
28 6 5 o 3.590 3.228 -167.11 0.28204 0.00
24 13 10 o 1.033 0.929 -95.48 0.28204 0.00
27 10 4 o 2.912 2.619 -77.68 0.28204 0.00
21 20 2 o 8.235 7.407 -176.52 0.28204 0.00
29 2 1 o 0.466 0.426 -21.76 0.28187 0.00
25 11 10 o 3.096 2.830 -178.71 0.28187 0.00
27 9 6 o 1.575 1.440 59.25 0.28187 0.00
23 14 11 o 6.821 6.236 -128.27 0.28187 0.00
22 19 1 o 1.040 0.951 89.30 0.28187 0.00
26 13 1 o 4.209 3.847 -25.60 0.28187 0.00
25 14 5 o 1.318 1.205 162.61 0.28187 0.00
26 11 7 o 2.483 2.270 -4.18 0.28187 0.00
19 17 14 o 0.585 0.535 95.57 0.28187 0.00
21 18 9 o 5.118 4.679 10.22 0.28187 0.00
28 8 0 o 36.132 33.870 -180.00 0.28154 0.01
24 16 4 o 34.845 32.664 -179.77 0.28154 0.01
28 8 1 o 1.061 1.003 78.28 0.28137 0.00
28 7 4 o 1.304 1.232 -40.46 0.28137 0.00
20 20 7 o 0.698 0.660 -45.00 0.28137 0.00
22 14 13 o 9.644 9.114 -121.39 0.28137 0.00
22 19 2 o 1.619 1.530 100.79 0.28137 0.00
26 13 2 o 6.092 5.758 -105.58 0.28137 0.00
23 16 8 o 1.655 1.564 59.52 0.28137 0.00
29 2 2 o 0.322 0.304 45.00 0.28137 0.00
20 15 15 o 1.039 0.987 -90.00 0.28121 0.00
25 15 0 o 0.001 0.001 -90.00 0.28121 0.00
27 11 0 o 10.343 9.825 -90.00 0.28121 0.00
24 15 7 o 3.228 3.066 63.75 0.28121 0.00
21 20 3 o 5.511 5.235 -42.67 0.28121 0.00
25 12 9 o 7.095 6.739 21.39 0.28121 0.00
29 3 0 o 0.513 0.487 -90.00 0.28121 0.00
21 17 11 o 19.846 18.890 -141.24 0.28104 0.01
27 11 1 o 9.609 9.146 154.35 0.28104 0.00
25 15 1 o 13.581 12.928 -136.32 0.28104 0.00
21 19 7 o 30.275 28.817 140.43 0.28104 0.01
29 3 1 o 9.049 8.613 -132.86 0.28104 0.00
28 8 2 o 0.159 0.152 141.98 0.28088 0.00
20 16 14 o 3.389 3.225 87.53 0.28088 0.00
24 14 9 o 0.253 0.240 -13.37 0.28071 0.00
23 18 0 o 8.478 8.050 -90.00 0.28071 0.00
22 15 12 o 2.416 2.294 172.16 0.28071 0.00
25 15 2 o 4.234 4.010 3.05 0.28055 0.00
22 19 3 o 1.697 1.607 -66.49 0.28055 0.00
27 10 5 o 3.775 3.575 87.06 0.28055 0.00
23 17 6 o 0.723 0.684 -113.12 0.28055 0.00
23 15 10 o 6.162 5.836 153.79 0.28055 0.00
29 3 2 o 3.211 3.040 -8.13 0.28055 0.00
26 13 3 o 0.788 0.746 51.63 0.28055 0.00
19 18 13 o 0.402 0.380 97.52 0.28055 0.00
22 17 9 o 10.194 9.654 -11.37 0.28055 0.00
27 11 2 o 2.815 2.666 165.35 0.28055 0.00
23 18 1 o 4.584 4.341 74.06 0.28055 0.00
28 6 6 o 1.330 1.255 -180.00 0.28022 0.00
26 12 6 o 0.287 0.270 97.06 0.28022 0.00
25 14 6 o 0.792 0.747 137.45 0.28006 0.00
23 18 2 o 0.297 0.280 131.10 0.28006 0.00
27 8 8 o 2.099 1.980 -45.00 0.28006 0.00
28 8 3 o 1.183 1.116 -42.12 0.28006 0.00
24 16 5 o 0.082 0.077 110.73 0.28006 0.00
21 20 4 o 2.017 1.903 -78.69 0.28006 0.00
29 4 0 o 0.046 0.044 90.00 0.28006 0.00
26 10 9 o 10.335 9.747 48.19 0.28006 0.00
22 18 7 o 6.664 6.285 -35.12 0.28006 0.00
29 4 1 o 2.674 2.525 -137.39 0.27989 0.00
20 17 13 o 1.047 0.989 49.71 0.27989 0.00
25 13 8 o 2.109 1.991 162.30 0.27989 0.00
28 7 5 o 1.076 1.015 -131.43 0.27989 0.00
29 3 3 o 8.410 7.952 -45.00 0.27973 0.00
25 15 3 o 20.255 19.151 -40.17 0.27973 0.01
27 9 7 o 12.768 12.072 -54.10 0.27973 0.00
27 11 3 o 10.686 10.103 30.44 0.27973 0.00
22 19 4 o 5.317 5.044 -3.86 0.27940 0.00
20 19 10 o 1.504 1.427 29.03 0.27940 0.00
26 13 4 o 0.721 0.684 -36.33 0.27940 0.00
22 16 11 o 0.574 0.544 -87.15 0.27940 0.00
29 4 2 o 0.591 0.561 -172.06 0.27940 0.00
26 11 8 o 0.109 0.103 136.58 0.27940 0.00
21 15 14 o 0.221 0.210 42.05 0.27924 0.00
23 18 3 o 5.228 4.965 88.94 0.27924 0.00
24 12 12 o 53.974 51.319 0.00 0.27892 0.01
20 20 8 o 49.542 47.105 0.00 0.27892 0.01
28 8 4 o 34.370 32.679 0.08 0.27892 0.01
21 18 10 o 3.362 3.199 -109.05 0.27876 0.00
24 15 8 o 2.431 2.314 -100.16 0.27876 0.00
27 10 6 o 1.122 1.067 126.35 0.27876 0.00
28 9 0 o 2.209 2.103 0.00 0.27876 0.00
24 17 0 o 0.123 0.117 0.00 0.27876 0.00
24 17 1 o 0.854 0.815 -31.17 0.27860 0.00
27 11 4 o 8.946 8.529 85.10 0.27860 0.00
29 5 0 o 1.136 1.083 -90.00 0.27860 0.00
24 13 11 o 1.159 1.105 107.92 0.27860 0.00
21 16 13 o 2.193 2.091 174.27 0.27860 0.00
29 4 3 o 1.788 1.705 -37.13 0.27860 0.00
21 19 8 o 1.335 1.273 -148.94 0.27860 0.00
21 20 5 o 4.631 4.415 23.78 0.27860 0.00
19 19 12 o 1.230 1.173 90.00 0.27860 0.00
28 9 1 o 0.440 0.419 -110.03 0.27860 0.00
25 15 4 o 0.445 0.425 17.19 0.27860 0.00
23 16 9 o 0.003 0.002 -162.25 0.27860 0.00
23 17 7 o 21.486 20.550 129.01 0.27844 0.01
29 5 1 o 10.912 10.436 140.64 0.27844 0.00
25 11 11 o 33.488 32.028 135.00 0.27844 0.00
23 13 13 o 0.965 0.923 -135.00 0.27844 0.00
17 17 17 o 1.808 1.729 135.00 0.27844 0.00
24 16 6 o 1.680 1.614 -109.69 0.27828 0.00
20 18 12 o 3.046 2.926 77.59 0.27828 0.00
18 17 16 o 2.315 2.237 -127.85 0.27812 0.00
25 12 10 o 1.814 1.754 43.09 0.27812 0.00
28 7 6 o 0.833 0.805 -52.61 0.27812 0.00
23 18 4 o 7.504 7.252 95.72 0.27812 0.00
28 9 2 o 2.116 2.045 86.66 0.27812 0.00
23 14 12 o 2.826 2.731 -56.02 0.27812 0.00
26 12 7 o 0.558 0.539 -36.23 0.27812 0.00
24 17 2 o 2.567 2.481 86.11 0.27812 0.00
25 14 7 o 1.751 1.705 13.21 0.27796 0.00
26 13 5 o 8.059 7.844 164.44 0.27796 0.00
22 19 5 o 0.496 0.482 -84.24 0.27796 0.00
29 5 2 o 0.258 0.251 -32.24 0.27796 0.00
24 14 10 o 4.583 4.531 -168.24 0.27764 0.00
26 14 0 o 0.097 0.096 180.00 0.27764 0.00
22 18 8 o 1.540 1.522 167.67 0.27764 0.00
18 18 15 o 1.940 1.932 135.00 0.27748 0.00
28 8 5 o 1.470 1.464 -71.65 0.27748 0.00
27 12 0 o 4.605 4.587 90.00 0.27748 0.00
19 16 16 o 0.335 0.334 135.00 0.27748 0.00
22 17 10 o 6.107 6.083 -152.94 0.27748 0.00
29 4 4 o 0.024 0.024 -135.00 0.27748 0.00
26 14 1 o 9.365 9.328 -142.11 0.27748 0.00
27 9 8 o 1.743 1.747 -90.99 0.27732 0.00
28 9 3 o 0.706 0.708 115.31 0.27732 0.00
21 17 12 o 0.478 0.479 23.78 0.27732 0.00
27 12 1 o 0.330 0.331 28.67 0.27732 0.00
24 17 3 o 0.620 0.621 32.73 0.27732 0.00
27 11 5 o 7.974 8.027 -24.48 0.27716 0.00
29 5 3 o 9.664 9.728 37.25 0.27716 0.00
19 17 15 o 21.155 21.296 -49.38 0.27716 0.01
25 15 5 o 8.462 8.518 51.08 0.27716 0.00
25 13 9 o 6.168 6.209 -36.98 0.27716 0.00
23 15 11 o 18.428 18.550 42.19 0.27716 0.00
26 14 2 o 66.389 66.961 89.89 0.27700 0.02
26 10 10 o 50.638 51.074 -90.00 0.27700 0.01
22 14 14 o 27.296 27.531 90.00 0.27700 0.00
29 6 0 o 0.020 0.020 90.00 0.27684 0.00
21 20 6 o 6.520 6.572 8.62 0.27684 0.00
27 12 2 o 0.709 0.714 17.00 0.27684 0.00
22 15 13 o 0.769 0.773 1.47 0.27669 0.00
27 10 7 o 5.672 5.701 67.80 0.27669 0.00
29 6 1 o 0.828 0.832 132.89 0.27669 0.00
23 18 5 o 3.068 3.084 -115.88 0.27669 0.00
26 11 9 o 1.181 1.187 -172.82 0.27669 0.00
26 14 3 o 8.773 8.607 155.07 0.27621 0.00
19 18 14 o 1.865 1.829 132.83 0.27621 0.00
22 19 6 o 2.140 2.099 -59.91 0.27621 0.00
20 16 15 o 0.907 0.890 178.67 0.27621 0.00
29 6 2 o 1.175 1.152 -165.66 0.27621 0.00
26 13 6 o 6.750 6.622 50.64 0.27621 0.00
24 17 4 o 0.151 0.148 -166.79 0.27621 0.00
24 16 7 o 1.366 1.340 7.70 0.27621 0.00
20 20 9 o 0.184 0.181 45.00 0.27621 0.00
28 9 4 o 2.063 2.024 162.29 0.27621 0.00
25 16 0 o 1.855 1.820 90.00 0.27621 0.00
25 16 1 o 11.017 10.676 -143.68 0.27606 0.00
21 21 0 o 0.427 0.414 90.00 0.27606 0.00
29 5 4 o 2.292 2.221 138.16 0.27606 0.00
20 19 11 o 0.712 0.690 -132.67 0.27606 0.00
28 7 7 o 1.756 1.702 -90.00 0.27606 0.00
23 17 8 o 1.539 1.491 126.73 0.27606 0.00
24 15 9 o 1.434 1.390 -109.29 0.27606 0.00
27 12 3 o 1.198 1.161 114.78 0.27606 0.00
21 19 9 o 4.184 4.000 -116.55 0.27590 0.00
21 21 1 o 16.200 15.486 135.00 0.27590 0.00
28 10 0 o 0.538 0.507 0.00 0.27575 0.00
26 12 8 o 3.995 3.765 -78.07 0.27575 0.00
28 8 6 o 0.639 0.602 -13.32 0.27575 0.00
22 20 0 o 2.285 2.154 180.00 0.27575 0.00
22 16 12 o 5.079 4.788 100.72 0.27575 0.00
23 16 10 o 1.257 1.169 77.45 0.27559 0.00
20 17 14 o 3.910 3.635 66.40 0.27559 0.00
25 14 8 o 1.430 1.330 147.75 0.27559 0.00
25 16 2 o 5.913 5.498 -175.19 0.27559 0.00
22 20 1 o 0.204 0.190 9.62 0.27559 0.00
28 10 1 o 1.499 1.393 -142.30 0.27559 0.00
27 11 6 o 4.320 3.966 -36.13 0.27543 0.00
21 18 11 o 0.014 0.012 -116.38 0.27543 0.00
21 21 2 o 0.278 0.255 -180.00 0.27543 0.00
29 6 3 o 2.955 2.714 17.78 0.27543 0.00
25 15 6 o 3.358 3.084 -167.02 0.27543 0.00
26 14 4 o 0.286 0.258 -65.75 0.27512 0.00
28 10 2 o 0.539 0.486 -143.40 0.27512 0.00
22 20 2 o 1.498 1.348 -81.44 0.27512 0.00
23 18 6 o 1.840 1.645 -63.56 0.27497 0.00
24 13 12 o 0.581 0.519 82.61 0.27497 0.00
27 12 4 o 4.124 3.687 -86.13 0.27497 0.00
22 18 9 o 8.734 7.809 -127.54 0.27497 0.00
29 7 0 o 0.065 0.058 90.00 0.27481 0.00
24 17 5 o 0.703 0.626 169.82 0.27481 0.00
23 19 0 o 5.209 4.633 90.00 0.27481 0.00
25 12 11 o 5.078 4.516 136.79 0.27481 0.00
25 16 3 o 11.116 9.887 -42.40 0.27481 0.00
21 20 7 o 3.801 3.380 132.22 0.27481 0.00
28 9 5 o 0.247 0.220 79.43 0.27481 0.00
27 9 9 o 5.426 4.809 45.00 0.27466 0.00
21 21 3 o 23.175 20.538 45.00 0.27466 0.00
21 15 15 o 38.180 33.836 -45.00 0.27466 0.00
29 7 1 o 9.048 8.018 45.14 0.27466 0.00
29 5 5 o 10.849 9.614 -45.00 0.27466 0.00
19 19 13 o 9.926 8.797 -45.00 0.27466 0.00
23 19 1 o 5.634 4.993 -31.57 0.27466 0.00
22 20 3 o 0.051 0.045 -18.28 0.27435 0.00
21 16 14 o 3.669 3.242 -142.21 0.27435 0.00
28 10 3 o 1.177 1.040 130.96 0.27435 0.00
27 10 8 o 1.552 1.371 123.45 0.27435 0.00
24 14 11 o 0.959 0.847 82.71 0.27435 0.00
20 18 13 o 1.719 1.519 -143.30 0.27435 0.00
29 6 4 o 0.189 0.167 -132.15 0.27435 0.00
22 19 7 o 2.956 2.615 139.04 0.27420 0.00
23 19 2 o 10.483 9.271 -1.80 0.27420 0.00
25 13 10 o 0.110 0.097 28.14 0.27420 0.00
29 7 2 o 6.981 6.174 178.23 0.27420 0.00
26 13 7 o 0.476 0.421 -39.27 0.27420 0.00
22 17 11 o 0.590 0.522 -174.27 0.27420 0.00
23 14 13 o 1.425 1.260 70.48 0.27420 0.00
24 16 8 o 46.626 41.558 0.28 0.27389 0.01
26 14 5 o 9.388 8.432 48.73 0.27374 0.00
26 11 10 o 9.335 8.384 -86.83 0.27374 0.00
28 8 7 o 1.406 1.263 167.72 0.27374 0.00
25 16 4 o 1.834 1.647 -68.26 0.27374 0.00
27 12 5 o 0.250 0.227 127.64 0.27359 0.00
23 15 12 o 2.250 2.042 91.84 0.27359 0.00
27 13 0 o 4.480 4.066 90.00 0.27359 0.00
21 21 4 o 0.522 0.474 -90.00 0.27359 0.00
23 17 9 o 1.902 1.750 -157.59 0.27344 0.00
23 19 3 o 9.720 8.945 -143.88 0.27344 0.00
21 17 13 o 2.735 2.517 137.87 0.27344 0.00
25 15 7 o 29.995 27.602 139.67 0.27344 0.01
27 13 1 o 11.493 10.576 -141.07 0.27344 0.00
27 11 7 o 13.158 12.108 -141.96 0.27344 0.00
29 7 3 o 10.334 9.510 137.07 0.27344 0.00
24 18 0 o 0.740 0.693 0.00 0.27328 0.00
28 10 4 o 0.609 0.570 -170.92 0.27328 0.00
22 20 4 o 2.424 2.268 -27.69 0.27328 0.00
20 20 10 o 2.842 2.660 90.00 0.27328 0.00
28 9 6 o 0.997 0.952 -96.54 0.27313 0.00
24 15 10 o 1.220 1.164 35.54 0.27313 0.00
26 12 9 o 1.298 1.239 -176.60 0.27313 0.00
26 15 0 o 0.191 0.182 -180.00 0.27313 0.00
24 17 6 o 2.745 2.619 -97.46 0.27313 0.00
30 1 0 o 6.587 6.284 0.00 0.27313 0.00
24 18 1 o 0.177 0.169 123.70 0.27313 0.00
26 15 1 o 0.357 0.348 10.22 0.27298 0.00
18 17 17 o 4.669 4.551 180.00 0.27298 0.00
29 6 5 o 0.384 0.375 -114.52 0.27298 0.00
25 14 9 o 0.628 0.612 -1.14 0.27298 0.00
21 19 10 o 0.683 0.666 59.25 0.27298 0.00
23 18 7 o 4.922 4.798 -113.41 0.27298 0.00
27 13 2 o 1.503 1.465 10.81 0.27298 0.00
30 1 1 o 0.008 0.007 0.00 0.27298 0.00
18 18 16 o 1.876 1.912 0.00 0.27268 0.00
24 18 2 o 1.780 1.815 74.86 0.27268 0.00
30 2 0 o 0.044 0.045 0.00 0.27268 0.00
29 8 0 o 0.166 0.172 -90.00 0.27253 0.00
22 15 14 o 2.563 2.669 113.64 0.27253 0.00
21 20 8 o 1.290 1.344 108.00 0.27253 0.00
26 15 2 o 7.659 7.976 90.49 0.27253 0.00
30 2 1 o 13.757 14.327 -176.04 0.27253 0.00
20 19 12 o 1.442 1.501 66.69 0.27253 0.00
28 11 0 o 0.315 0.328 0.00 0.27253 0.00
28 11 1 o 0.932 0.989 175.09 0.27238 0.00
23 19 4 o 4.162 4.418 -90.75 0.27238 0.00
19 17 16 o 0.459 0.487 -2.40 0.27238 0.00
29 7 4 o 0.781 0.829 -148.44 0.27238 0.00
25 16 5 o 8.047 8.542 27.56 0.27238 0.00
29 8 1 o 5.018 5.327 31.10 0.27238 0.00
23 16 11 o 0.586 0.623 65.35 0.27238 0.00
21 21 5 o 7.655 8.258 -45.00 0.27223 0.00
27 13 3 o 12.149 13.106 -44.34 0.27223 0.00
22 18 10 o 30.424 33.224 89.83 0.27208 0.01
26 14 6 o 49.600 54.164 -90.26 0.27208 0.01
30 2 2 o 44.526 48.623 90.00 0.27208 0.01
29 8 2 o 1.016 1.118 8.18 0.27193 0.00
28 10 5 o 0.758 0.835 29.43 0.27193 0.00
27 12 6 o 0.523 0.576 -119.86 0.27193 0.00
22 16 13 o 1.263 1.390 14.75 0.27193 0.00
26 13 8 o 0.860 0.947 119.77 0.27193 0.00
28 11 2 o 0.069 0.076 54.45 0.27193 0.00
30 3 0 o 6.423 7.071 0.00 0.27193 0.00
22 19 8 o 3.985 4.387 171.89 0.27193 0.00
22 20 5 o 0.314 0.346 -165.91 0.27193 0.00
24 18 3 o 0.333 0.367 -116.91 0.27193 0.00
21 18 12 o 1.478 1.628 -1.77 0.27193 0.00
26 15 3 o 0.625 0.691 -13.17 0.27178 0.00
19 18 15 o 6.317 6.981 13.78 0.27178 0.00
30 3 1 o 0.185 0.204 25.35 0.27178 0.00
27 10 9 o 1.620 1.790 -89.25 0.27178 0.00
28 8 8 o 30.776 33.868 -180.00 0.27148 0.00
20 16 16 o 73.677 81.080 -180.00 0.27148 0.01
29 6 6 o 0.918 1.003 45.00 0.27133 0.00
24 16 9 o 0.314 0.343 -4.93 0.27133 0.00
25 12 12 o 0.002 0.002 -135.00 0.27133 0.00
30 3 2 o 15.243 16.655 90.62 0.27133 0.00
20 17 15 o 0.332 0.359 -30.17 0.27118 0.00
25 15 8 o 1.303 1.410 -147.71 0.27118 0.00
24 17 7 o 0.206 0.222 -163.29 0.27118 0.00
24 13 13 o 0.600 0.649 90.00 0.27118 0.00
25 17 0 o 0.108 0.116 90.00 0.27118 0.00
27 13 4 o 3.270 3.537 -82.67 0.27118 0.00
29 8 3 o 4.040 4.371 145.67 0.27118 0.00
27 11 8 o 6.079 6.577 -96.19 0.27118 0.00
28 11 3 o 1.488 1.610 -133.89 0.27118 0.00
28 9 7 o 1.078 1.166 -61.62 0.27118 0.00
29 7 5 o 8.636 9.230 -128.95 0.27103 0.00
25 17 1 o 13.992 14.954 148.16 0.27103 0.00
23 19 5 o 3.417 3.652 150.43 0.27103 0.00
25 13 11 o 13.938 14.896 -148.69 0.27103 0.00
24 14 12 o 0.745 0.785 107.26 0.27089 0.00
24 18 4 o 0.587 0.619 -156.82 0.27089 0.00
30 4 0 o 0.002 0.002 180.00 0.27089 0.00
23 18 8 o 5.278 5.477 -77.32 0.27074 0.00
25 16 6 o 4.278 4.439 13.71 0.27074 0.00
22 17 12 o 1.493 1.549 -76.76 0.27074 0.00
26 15 4 o 0.221 0.230 -3.65 0.27074 0.00
30 4 1 o 4.562 4.734 79.32 0.27074 0.00
21 21 6 o 0.411 0.419 0.00 0.27059 0.00
19 19 14 o 7.086 7.238 0.00 0.27059 0.00
30 3 3 o 0.382 0.390 0.00 0.27059 0.00
23 17 10 o 0.700 0.715 89.14 0.27059 0.00
25 17 2 o 0.003 0.003 -119.35 0.27059 0.00
26 11 11 o 2.685 2.743 180.00 0.27059 0.00
22 20 6 o 1.250 1.239 124.62 0.27030 0.00
28 10 6 o 1.710 1.696 11.47 0.27030 0.00
26 12 10 o 0.414 0.410 -100.50 0.27030 0.00
20 18 14 o 2.458 2.437 9.02 0.27030 0.00
30 4 2 o 0.479 0.475 115.06 0.27030 0.00
28 11 4 o 0.662 0.648 114.22 0.27015 0.00
25 14 10 o 0.553 0.541 -93.72 0.27015 0.00
26 14 7 o 7.747 7.585 -14.43 0.27015 0.00
23 14 14 o 2.925 2.864 135.00 0.27015 0.00
29 8 4 o 0.086 0.085 119.61 0.27015 0.00
20 20 11 o 0.104 0.102 135.00 0.27015 0.00
24 15 11 o 2.209 2.140 -107.95 0.27000 0.00
21 20 9 o 2.575 2.494 -173.20 0.27000 0.00
21 16 15 o 1.686 1.633 -34.98 0.27000 0.00
27 12 7 o 2.964 2.872 -81.56 0.27000 0.00
29 9 0 o 0.462 0.447 90.00 0.27000 0.00
21 19 11 o 31.228 29.997 -39.82 0.26986 0.01
23 15 13 o 10.062 9.666 -32.04 0.26986 0.00
27 13 5 o 5.877 5.645 34.57 0.26986 0.00
25 17 3 o 19.727 18.949 32.75 0.26986 0.00
29 9 1 o 11.702 11.240 -32.86 0.26986 0.00
22 21 0 o 5.221 4.960 0.00 0.26957 0.00
30 4 3 o 6.027 5.726 -82.13 0.26957 0.00
24 18 5 o 0.140 0.133 -22.79 0.26957 0.00
30 5 0 o 2.744 2.607 -180.00 0.26957 0.00
27 14 0 o 4.437 4.215 -90.00 0.26957 0.00
26 15 5 o 0.442 0.419 -177.73 0.26942 0.00
29 9 2 o 0.972 0.921 170.59 0.26942 0.00
22 19 9 o 0.114 0.108 70.70 0.26942 0.00
22 21 1 o 3.183 3.014 156.88 0.26942 0.00
30 5 1 o 0.561 0.531 151.23 0.26942 0.00
27 14 1 o 5.076 4.807 82.81 0.26942 0.00
29 7 6 o 5.058 4.790 -7.10 0.26942 0.00
23 19 6 o 9.278 8.785 175.17 0.26942 0.00
21 17 14 o 1.640 1.553 176.15 0.26942 0.00
26 13 9 o 10.123 9.585 -8.37 0.26942 0.00
28 12 0 o 28.075 26.473 0.00 0.26913 0.00
27 10 10 o 2.850 2.683 -45.00 0.26898 0.00
27 14 2 o 0.436 0.411 135.69 0.26898 0.00
22 21 2 o 0.410 0.386 40.20 0.26898 0.00
24 17 8 o 0.222 0.209 29.00 0.26898 0.00
28 9 8 o 1.626 1.531 -38.28 0.26898 0.00
30 5 2 o 11.668 10.985 83.85 0.26898 0.00
22 18 11 o 3.848 3.623 148.89 0.26898 0.00
28 12 1 o 0.179 0.169 -110.46 0.26898 0.00
23 16 12 o 0.445 0.419 -131.47 0.26898 0.00
23 20 0 o 2.491 2.345 -90.00 0.26898 0.00
20 19 13 o 0.648 0.610 68.95 0.26884 0.00
29 8 5 o 4.987 4.688 -150.33 0.26884 0.00
23 20 1 o 0.289 0.272 3.42 0.26884 0.00
25 17 4 o 0.283 0.266 -132.90 0.26884 0.00
28 11 5 o 1.329 1.249 37.73 0.26884 0.00
25 16 7 o 7.669 7.210 130.89 0.26884 0.00
29 9 3 o 13.348 12.531 -147.76 0.26870 0.00
21 21 7 o 23.012 21.604 -135.00 0.26870 0.00
27 11 9 o 9.452 8.873 151.21 0.26870 0.00
25 15 9 o 8.303 7.795 -122.02 0.26870 0.00
28 12 2 o 0.090 0.085 12.23 0.26855 0.00
26 16 0 o 1.334 1.251 -180.00 0.26855 0.00
30 4 4 o 0.255 0.239 -90.00 0.26855 0.00
24 16 10 o 1.559 1.462 66.57 0.26855 0.00
26 16 1 o 1.026 0.961 2.07 0.26841 0.00
22 20 7 o 0.009 0.008 -87.82 0.26841 0.00
28 10 7 o 0.649 0.608 -83.47 0.26841 0.00
23 20 2 o 4.416 4.135 -172.38 0.26841 0.00
27 13 6 o 1.132 1.059 -138.50 0.26826 0.00
21 18 13 o 3.378 3.160 -167.38 0.26826 0.00
22 21 3 o 1.139 1.066 -155.37 0.26826 0.00
23 18 9 o 1.526 1.427 56.32 0.26826 0.00
30 5 3 o 0.277 0.259 -75.71 0.26826 0.00
27 14 3 o 6.140 5.743 84.18 0.26826 0.00
22 15 15 o 6.752 6.316 0.00 0.26826 0.00
26 14 8 o 0.637 0.596 113.14 0.26798 0.00
26 16 2 o 0.027 0.026 -105.88 0.26798 0.00
22 16 14 o 0.869 0.813 3.52 0.26798 0.00
30 6 0 o 0.491 0.460 -180.00 0.26798 0.00
24 18 6 o 2.467 2.308 -135.45 0.26798 0.00
24 19 0 o 0.460 0.431 0.00 0.26783 0.00
26 15 6 o 7.527 7.051 -86.28 0.26783 0.00
18 18 17 o 4.865 4.558 45.00 0.26783 0.00
27 12 8 o 1.718 1.609 102.72 0.26783 0.00
30 6 1 o 12.160 11.392 10.88 0.26783 0.00
28 12 3 o 0.521 0.488 -177.88 0.26783 0.00
29 9 4 o 1.325 1.244 -39.79 0.26769 0.00
24 19 1 o 1.072 1.007 -9.76 0.26769 0.00
23 20 3 o 0.532 0.499 176.37 0.26769 0.00
25 13 12 o 2.667 2.504 -10.06 0.26769 0.00
25 17 5 o 9.252 8.712 -31.05 0.26755 0.00
19 17 17 o 2.531 2.384 45.00 0.26755 0.00
29 7 7 o 12.566 11.833 -45.00 0.26755 0.00
23 19 7 o 13.528 12.740 39.49 0.26755 0.00
23 17 11 o 19.896 18.736 -53.39 0.26755 0.00
30 6 2 o 51.140 48.316 -90.02 0.26741 0.01
27 14 4 o 3.800 3.603 99.56 0.26726 0.00
24 19 2 o 3.923 3.719 -96.60 0.26726 0.00
30 5 4 o 2.284 2.165 15.66 0.26726 0.00
28 11 6 o 0.371 0.352 -145.85 0.26726 0.00
19 18 16 o 2.695 2.555 120.76 0.26726 0.00
26 16 3 o 0.632 0.600 -8.23 0.26726 0.00
29 8 6 o 0.666 0.632 -144.13 0.26726 0.00
24 14 13 o 1.204 1.142 -164.40 0.26726 0.00
26 12 11 o 0.097 0.092 -138.43 0.26726 0.00
29 10 0 o 0.284 0.269 90.00 0.26726 0.00
21 20 10 o 5.414 5.132 -162.73 0.26726 0.00
22 21 4 o 4.146 3.930 164.41 0.26726 0.00
29 10 1 o 0.860 0.818 -43.17 0.26712 0.00
22 17 13 o 7.237 6.885 172.15 0.26712 0.00
25 14 11 o 0.959 0.912 178.96 0.26712 0.00
28 12 4 o 30.187 28.897 -179.74 0.26684 0.01
20 20 12 o 67.754 64.858 -180.00 0.26684 0.01
22 19 10 o 2.515 2.413 126.47 0.26670 0.00
26 13 10 o 6.719 6.446 -144.77 0.26670 0.00
29 10 2 o 1.914 1.837 3.06 0.26670 0.00
24 15 12 o 2.135 2.049 65.82 0.26670 0.00
23 20 4 o 2.280 2.187 68.28 0.26670 0.00
25 16 8 o 1.125 1.079 131.71 0.26670 0.00
30 6 3 o 14.106 13.534 -3.60 0.26670 0.00
20 17 16 o 0.937 0.899 -141.82 0.26670 0.00
24 19 3 o 1.740 1.672 28.19 0.26656 0.00
24 17 9 o 0.463 0.445 25.48 0.26656 0.00
28 9 9 o 0.120 0.115 -90.00 0.26656 0.00
21 19 12 o 1.483 1.424 30.47 0.26656 0.00
21 21 8 o 0.364 0.350 90.00 0.26656 0.00
27 13 7 o 13.866 13.319 129.66 0.26642 0.00
19 19 15 o 22.089 21.217 -135.00 0.26642 0.00
29 9 5 o 9.851 9.462 142.78 0.26642 0.00
26 16 4 o 1.906 1.828 -41.64 0.26628 0.00
28 10 8 o 0.691 0.663 7.19 0.26628 0.00
22 20 8 o 2.411 2.312 130.44 0.26628 0.00
30 7 0 o 5.225 4.989 -180.00 0.26613 0.00
20 18 15 o 1.033 0.987 -50.83 0.26613 0.00
24 18 7 o 0.472 0.451 66.17 0.26613 0.00
25 18 0 o 4.302 4.108 -90.00 0.26613 0.00
27 11 10 o 5.286 5.015 135.95 0.26599 0.00
29 10 3 o 2.088 1.981 -156.65 0.26599 0.00
25 18 1 o 1.601 1.519 -172.49 0.26599 0.00
26 15 7 o 1.601 1.519 171.58 0.26599 0.00
22 21 5 o 4.909 4.657 -24.34 0.26599 0.00
25 17 6 o 0.042 0.039 18.01 0.26599 0.00
30 5 5 o 2.056 1.951 0.00 0.26599 0.00
25 15 10 o 1.708 1.620 19.61 0.26599 0.00
30 7 1 o 0.477 0.452 -163.76 0.26599 0.00
27 14 5 o 3.417 3.242 -106.28 0.26599 0.00
23 15 14 o 6.838 6.487 -25.41 0.26599 0.00
22 18 12 o 1.018 0.947 -14.00 0.26572 0.00
30 6 4 o 0.760 0.706 48.09 0.26572 0.00
24 19 4 o 0.976 0.894 -132.36 0.26558 0.00
23 18 10 o 3.163 2.898 120.57 0.26558 0.00
28 12 5 o 0.608 0.557 132.11 0.26558 0.00
28 13 0 o 1.089 0.998 180.00 0.26558 0.00
25 18 2 o 0.621 0.569 154.15 0.26558 0.00
21 16 16 o 0.345 0.316 -135.00 0.26558 0.00
30 7 2 o 18.457 16.913 -90.66 0.26558 0.00
26 14 9 o 7.264 6.656 -122.26 0.26558 0.00
24 16 11 o 1.311 1.201 -148.87 0.26558 0.00
27 12 9 o 0.530 0.478 -96.60 0.26544 0.00
23 20 5 o 0.181 0.163 147.67 0.26544 0.00
27 15 0 o 8.656 7.803 90.00 0.26544 0.00
28 13 1 o 0.026 0.023 11.49 0.26544 0.00
23 19 8 o 3.505 3.160 89.92 0.26544 0.00
23 16 13 o 0.175 0.158 1.24 0.26544 0.00
28 11 7 o 2.381 2.147 69.66 0.26544 0.00
29 8 7 o 2.845 2.564 -36.22 0.26544 0.00
27 15 1 o 7.248 6.420 -20.32 0.26530 0.00
21 17 15 o 10.102 8.948 37.50 0.26530 0.00
20 19 14 o 1.332 1.138 168.25 0.26502 0.00
29 10 4 o 0.366 0.313 -41.35 0.26502 0.00
26 16 5 o 1.276 1.090 176.04 0.26502 0.00
28 13 2 o 0.107 0.092 -79.35 0.26502 0.00
27 15 2 o 7.467 6.282 -5.28 0.26488 0.00
25 18 3 o 1.352 1.137 -1.61 0.26488 0.00
29 9 6 o 0.818 0.688 -28.39 0.26488 0.00
30 7 3 o 0.517 0.435 176.83 0.26488 0.00
21 18 14 o 3.662 2.997 59.12 0.26447 0.00
22 21 6 o 2.172 1.778 -159.94 0.26447 0.00
30 6 5 o 10.999 9.000 -160.24 0.26447 0.00
27 14 6 o 2.597 2.125 -58.68 0.26447 0.00
29 11 0 o 0.004 0.003 90.00 0.26433 0.00
31 1 0 o 0.396 0.324 -90.00 0.26433 0.00
23 17 12 o 1.203 0.983 -36.19 0.26433 0.00
24 19 5 o 0.854 0.698 -146.18 0.26433 0.00
25 16 9 o 6.152 5.029 -161.64 0.26433 0.00
21 20 11 o 1.901 1.554 -46.85 0.26433 0.00
28 13 3 o 0.145 0.119 -50.21 0.26433 0.00
27 13 8 o 2.528 2.066 106.67 0.26433 0.00
27 15 3 o 10.719 8.793 -153.40 0.26419 0.00
21 21 9 o 5.098 4.182 135.00 0.26419 0.00
29 11 1 o 10.367 8.504 -138.75 0.26419 0.00
25 17 7 o 23.728 19.463 -146.19 0.26419 0.01
31 1 1 o 19.183 15.735 -135.00 0.26419 0.00
25 13 13 o 4.634 3.801 135.00 0.26419 0.00
26 12 12 o 4.788 3.957 90.00 0.26406 0.00
28 12 6 o 0.630 0.521 -172.79 0.26406 0.00
24 18 8 o 0.608 0.502 50.44 0.26406 0.00
30 8 0 o 0.038 0.031 0.00 0.26406 0.00
27 14 8 o 2.735 2.349 -67.14 0.26070 0.00
27 16 2 o 2.177 1.870 -168.99 0.26070 0.00
29 12 2 o 2.059 1.769 -172.20 0.26070 0.00
22 19 12 o 3.718 3.193 -14.14 0.26070 0.00
28 14 3 o 0.777 0.667 -108.07 0.26070 0.00
22 21 8 o 2.813 2.416 -37.23 0.26070 0.00
28 13 6 o 0.008 0.007 159.94 0.26070 0.00
30 8 5 o 1.257 1.080 46.63 0.26070 0.00
26 13 12 o 1.387 1.192 -70.91 0.26070 0.00
25 18 4 o 3.892 3.251 108.33 0.26392 0.00
28 10 9 o 0.128 0.107 -147.54 0.26392 0.00
24 17 10 o 3.141 2.624 75.35 0.26392 0.00
31 2 0 o 1.788 1.494 -90.00 0.26392 0.00
22 16 15 o 1.653 1.381 107.38 0.26392 0.00
26 15 8 o 0.517 0.432 174.59 0.26392 0.00
22 20 9 o 0.732 0.611 17.31 0.26392 0.00
23 20 6 o 3.277 2.738 25.49 0.26392 0.00
26 17 0 o 3.132 2.616 0.00 0.26392 0.00
30 8 1 o 2.810 2.347 -117.28 0.26392 0.00
25 14 12 o 1.612 1.346 14.86 0.26392 0.00
30 7 4 o 4.510 3.768 -5.83 0.26392 0.00
31 5 2 o 3.310 2.836 -169.06 0.26057 0.00
27 15 6 o 7.139 6.117 165.84 0.26057 0.00
25 14 13 o 0.426 0.365 -163.32 0.26057 0.00
23 19 10 o 9.333 7.997 -7.22 0.26057 0.00
30 9 3 o 0.711 0.609 81.36 0.26057 0.00
26 17 5 o 7.196 6.166 -25.75 0.26057 0.00
25 19 2 o 1.264 1.083 -167.22 0.26057 0.00
21 18 15 o 0.077 0.066 -143.75 0.26057 0.00
29 10 7 o 3.293 2.822 7.34 0.26057 0.00
29 10 5 o 0.339 0.287 90.07 0.26378 0.00
22 19 11 o 5.323 4.507 -21.49 0.26378 0.00
29 11 2 o 7.898 6.687 0.26 0.26378 0.00
26 13 11 o 1.328 1.124 176.02 0.26378 0.00
31 2 1 o 3.147 2.665 166.48 0.26378 0.00
26 17 1 o 4.247 3.596 146.81 0.26378 0.00
24 20 4 o 29.214 25.030 0.22 0.26030 0.01
28 12 8 o 37.038 31.734 0.27 0.26030 0.01
26 16 6 o 0.003 0.002 175.03 0.26351 0.00
22 22 0 o 1.468 1.282 0.00 0.26351 0.00
30 8 2 o 1.010 0.882 -79.36 0.26351 0.00
24 14 14 o 3.427 2.992 0.00 0.26351 0.00
31 4 4 o 1.743 1.497 135.00 0.26017 0.00
23 20 8 o 2.168 1.862 -125.29 0.26017 0.00
26 14 11 o 6.587 5.657 172.59 0.26017 0.00
22 22 5 o 5.649 4.852 -135.00 0.26017 0.00
29 8 8 o 0.055 0.049 45.00 0.26337 0.00
20 20 13 o 0.872 0.773 -135.00 0.26337 0.00
28 11 8 o 1.425 1.263 -95.95 0.26337 0.00
26 17 2 o 2.887 2.560 72.21 0.26337 0.00
28 13 4 o 1.066 0.945 -26.31 0.26337 0.00
22 17 14 o 5.147 4.563 26.43 0.26337 0.00
31 2 2 o 0.060 0.053 135.00 0.26337 0.00
22 22 1 o 6.863 6.085 45.00 0.26337 0.00
29 12 3 o 6.960 6.002 -39.06 0.26004 0.00
25 15 12 o 2.607 2.248 44.44 0.26004 0.00
27 12 11 o 4.585 3.954 89.62 0.26004 0.00
27 16 3 o 0.682 0.589 -101.77 0.26004 0.00
31 3 0 o 4.057 3.649 90.00 0.26324 0.00
23 21 0 o 0.528 0.475 -90.00 0.26324 0.00
27 15 4 o 8.220 7.393 -91.92 0.26324 0.00
24 15 13 o 1.446 1.300 76.50 0.26324 0.00
23 21 5 o 4.398 3.814 -148.95 0.25991 0.00
25 17 9 o 5.583 4.842 146.87 0.25991 0.00
25 19 3 o 19.551 16.955 140.35 0.25991 0.00
31 5 3 o 15.692 13.609 134.22 0.25991 0.00
29 9 7 o 12.145 11.062 33.33 0.26310 0.00
31 3 1 o 14.223 12.955 -42.94 0.26310 0.00
29 11 3 o 12.020 10.949 -39.28 0.26310 0.00
23 21 1 o 9.106 8.294 40.89 0.26310 0.00
23 19 9 o 4.011 3.654 -31.40 0.26310 0.00
21 19 13 o 3.233 2.944 64.38 0.26310 0.00
25 15 11 o 34.550 31.470 -42.27 0.26310 0.01
27 11 11 o 13.411 12.215 45.00 0.26310 0.00
26 16 8 o 3.040 2.655 116.33 0.25978 0.00
22 16 16 o 3.321 2.900 -90.00 0.25978 0.00
28 14 4 o 0.134 0.117 12.41 0.25978 0.00
20 20 14 o 2.131 1.861 -90.00 0.25978 0.00
18 18 18 o 12.081 11.118 -90.00 0.26297 0.00
30 6 6 o 50.176 46.179 90.00 0.26297 0.01
26 14 10 o 39.551 36.400 89.75 0.26297 0.01
22 22 2 o 63.639 58.569 -90.00 0.26297 0.01
31 6 0 o 1.815 1.598 90.00 0.25965 0.00
24 15 14 o 0.996 0.876 -163.74 0.25965 0.00
30 9 4 o 0.255 0.225 -132.87 0.25965 0.00
23 18 12 o 3.932 3.461 112.64 0.25965 0.00
30 8 3 o 2.813 2.609 111.21 0.26283 0.00
24 19 6 o 2.825 2.620 69.02 0.26283 0.00
27 12 10 o 0.853 0.792 108.04 0.26283 0.00
22 17 15 o 0.793 0.704 3.70 0.25952 0.00
29 11 6 o 5.608 4.980 -176.86 0.25952 0.00
30 7 7 o 0.503 0.447 0.00 0.25952 0.00
25 18 7 o 0.565 0.501 -177.47 0.25952 0.00
21 19 14 o 0.436 0.387 -105.12 0.25952 0.00
31 6 1 o 3.276 2.909 -39.36 0.25952 0.00
27 13 10 o 0.690 0.613 79.73 0.25952 0.00
27 14 7 o 5.723 5.334 -113.03 0.26270 0.00
26 17 3 o 1.144 1.066 -128.67 0.26270 0.00
22 21 7 o 0.052 0.049 40.82 0.26270 0.00
31 3 2 o 2.913 2.715 -15.68 0.26270 0.00
23 18 11 o 5.674 5.289 41.50 0.26270 0.00
25 18 5 o 1.678 1.563 19.01 0.26270 0.00
19 18 17 o 0.194 0.181 -60.34 0.26270 0.00
30 7 5 o 0.570 0.531 31.31 0.26270 0.00
23 21 2 o 0.138 0.129 -138.54 0.26270 0.00
26 18 0 o 0.445 0.402 0.00 0.25926 0.00
30 10 0 o 0.420 0.379 0.00 0.25926 0.00
24 18 10 o 2.221 2.007 28.90 0.25926 0.00
30 8 6 o 1.318 1.191 120.26 0.25926 0.00
24 16 12 o 58.568 54.672 -179.85 0.26243 0.01
24 20 0 o 23.621 22.050 180.00 0.26243 0.00
24 19 8 o 1.759 1.602 53.79 0.25913 0.00
26 15 10 o 5.906 5.377 95.60 0.25913 0.00
30 10 1 o 8.201 7.466 -160.05 0.25913 0.00
26 18 1 o 5.893 5.365 43.31 0.25913 0.00
24 20 5 o 0.060 0.054 20.85 0.25913 0.00
31 6 2 o 0.300 0.273 -28.71 0.25913 0.00
26 17 6 o 3.713 3.380 -134.76 0.25913 0.00
27 16 4 o 3.729 3.394 83.95 0.25913 0.00
29 12 4 o 0.425 0.387 -45.34 0.25913 0.00
24 16 13 o 0.792 0.721 -158.79 0.25913 0.00
31 4 0 o 1.053 0.981 -90.00 0.26229 0.00
28 12 7 o 1.254 1.167 21.55 0.26229 0.00
22 18 13 o 4.626 4.307 55.97 0.26229 0.00
24 20 1 o 0.016 0.015 -58.55 0.26229 0.00
29 10 6 o 0.954 0.888 -167.99 0.26229 0.00
22 22 3 o 6.580 6.126 -45.00 0.26229 0.00
25 19 4 o 0.247 0.226 -161.64 0.25900 0.00
31 5 4 o 0.500 0.458 74.21 0.25900 0.00
28 13 7 o 0.495 0.453 112.82 0.25900 0.00
25 16 11 o 4.668 4.274 -53.46 0.25900 0.00
19 19 16 o 0.731 0.677 -90.00 0.26216 0.00
20 17 17 o 0.868 0.805 -90.00 0.26216 0.00
28 13 5 o 0.013 0.012 -166.30 0.26216 0.00
25 17 8 o 0.496 0.460 24.43 0.26216 0.00
29 11 4 o 0.299 0.277 16.44 0.26216 0.00
31 4 1 o 0.447 0.414 -121.19 0.26216 0.00
23 20 7 o 0.790 0.732 8.57 0.26216 0.00
29 9 9 o 7.587 6.972 -45.00 0.25887 0.00
27 15 7 o 11.410 10.484 33.29 0.25887 0.00
21 21 11 o 17.408 15.996 45.00 0.25887 0.00
23 15 15 o 19.430 17.898 -135.00 0.26203 0.00
27 13 9 o 2.437 2.245 -145.82 0.26203 0.00
23 21 3 o 16.584 15.277 133.13 0.26203 0.00
31 3 3 o 12.503 11.518 -135.00 0.26203 0.00
27 15 5 o 5.915 5.449 160.82 0.26203 0.00
30 10 2 o 51.036 46.957 89.91 0.25874 0.01
22 22 6 o 47.241 43.465 90.00 0.25874 0.00
22 18 14 o 16.825 15.480 -90.12 0.25874 0.00
26 18 2 o 60.012 55.215 -90.14 0.25874 0.01
30 8 4 o 0.705 0.645 99.28 0.26189 0.00
24 20 2 o 2.432 2.225 -93.39 0.26189 0.00
20 18 16 o 2.256 2.064 -93.21 0.26189 0.00
28 14 0 o 0.083 0.076 -180.00 0.26189 0.00
28 11 10 o 0.722 0.663 37.11 0.25861 0.00
28 14 5 o 0.207 0.190 -79.92 0.25861 0.00
22 20 11 o 0.180 0.165 129.01 0.25861 0.00
29 10 8 o 0.514 0.472 -173.87 0.25861 0.00
24 18 9 o 0.357 0.324 -161.88 0.26176 0.00
31 4 2 o 1.087 0.987 -4.81 0.26176 0.00
26 17 4 o 2.387 2.167 163.68 0.26176 0.00
26 16 7 o 0.261 0.237 -173.40 0.26176 0.00
23 16 14 o 1.639 1.487 -58.18 0.26176 0.00
30 9 0 o 0.254 0.231 0.00 0.26176 0.00
25 16 10 o 3.362 3.052 -151.97 0.26176 0.00
28 14 1 o 0.449 0.408 95.11 0.26176 0.00
22 21 9 o 4.734 4.336 155.12 0.25849 0.00
23 21 6 o 0.326 0.298 76.48 0.25849 0.00
27 14 9 o 1.629 1.492 64.75 0.25849 0.00
30 9 5 o 3.890 3.563 166.01 0.25849 0.00
31 6 3 o 3.601 3.298 -141.44 0.25849 0.00
21 21 10 o 0.728 0.655 180.00 0.26162 0.00
26 15 9 o 0.821 0.739 -6.29 0.26162 0.00
30 9 1 o 1.845 1.661 -35.63 0.26162 0.00
30 10 3 o 9.957 8.948 173.38 0.25810 0.00
28 15 0 o 0.005 0.005 180.00 0.25810 0.00
26 18 3 o 6.292 5.654 -32.86 0.25810 0.00
28 12 9 o 1.251 1.124 -29.75 0.25810 0.00
19 18 18 o 2.411 2.166 -45.00 0.25810 0.00
24 17 12 o 0.480 0.431 -139.71 0.25810 0.00
28 10 10 o 3.144 2.784 180.00 0.26136 0.00
22 22 4 o 1.517 1.344 -180.00 0.26136 0.00
28 14 2 o 0.680 0.603 58.49 0.26136 0.00
22 20 10 o 0.897 0.795 -38.74 0.26136 0.00
28 15 1 o 1.705 1.521 -3.81 0.25797 0.00
31 7 0 o 9.552 8.518 -90.00 0.25797 0.00
23 16 15 o 1.505 1.342 -107.15 0.25797 0.00
23 20 9 o 0.310 0.276 -54.67 0.25797 0.00
29 12 5 o 6.450 5.752 26.60 0.25797 0.00
21 20 13 o 1.368 1.219 -22.07 0.25797 0.00
29 13 0 o 0.027 0.024 -90.00 0.25797 0.00
27 16 5 o 0.006 0.006 172.76 0.25797 0.00
24 20 3 o 0.131 0.115 49.50 0.26123 0.00
27 16 0 o 4.881 4.289 -90.00 0.26123 0.00
25 18 6 o 1.019 0.895 -66.50 0.26123 0.00
29 12 0 o 0.421 0.370 90.00 0.26123 0.00
30 7 6 o 16.012 14.069 87.29 0.26123 0.00
30 9 2 o 8.823 7.752 -99.02 0.26123 0.00
21 20 12 o 0.854 0.750 -78.57 0.26123 0.00
25 19 5 o 6.194 5.482 -129.19 0.25785 0.00
29 13 1 o 13.460 11.912 151.30 0.25785 0.00
23 19 11 o 16.920 14.974 -137.90 0.25785 0.00
29 11 7 o 17.712 15.675 138.48 0.25785 0.00
31 5 5 o 15.348 13.583 -135.00 0.25785 0.00
19 19 17 o 16.609 14.699 135.00 0.25785 0.00
31 7 1 o 10.924 9.667 142.81 0.25785 0.00
21 17 16 o 0.762 0.665 -135.90 0.26109 0.00
29 12 1 o 7.839 6.838 -146.92 0.26109 0.00
25 19 0 o 0.000 0.000 90.00 0.26109 0.00
23 21 4 o 0.830 0.724 125.87 0.26109 0.00
31 4 3 o 4.216 3.678 -78.86 0.26109 0.00
31 5 0 o 0.708 0.618 -90.00 0.26109 0.00
29 9 8 o 3.027 2.640 155.97 0.26109 0.00
24 17 11 o 0.207 0.181 -44.11 0.26109 0.00
24 19 7 o 2.009 1.753 -147.04 0.26109 0.00
20 19 15 o 0.128 0.112 -11.25 0.26109 0.00
27 16 1 o 0.092 0.080 -79.11 0.26109 0.00
28 11 9 o 1.763 1.538 -118.60 0.26109 0.00
24 20 6 o 2.280 2.003 80.81 0.25772 0.00
25 19 1 o 11.066 9.592 43.11 0.26096 0.00
29 11 5 o 8.664 7.510 47.71 0.26096 0.00
23 17 13 o 0.620 0.537 20.89 0.26096 0.00
31 5 1 o 17.260 14.962 43.75 0.26096 0.00
20 18 17 o 2.623 2.289 35.34 0.25759 0.00
25 18 8 o 2.290 1.998 -45.90 0.25759 0.00
31 6 4 o 1.325 1.156 -78.41 0.25759 0.00
28 15 2 o 1.741 1.520 -96.83 0.25759 0.00
30 8 7 o 2.021 1.764 -74.90 0.25759 0.00
23 22 0 o 5.069 4.423 90.00 0.25759 0.00
26 16 9 o 1.332 1.162 -11.30 0.25759 0.00
26 13 13 o 8.557 7.423 -180.00 0.25746 0.00
31 7 2 o 3.607 3.129 168.51 0.25746 0.00
23 22 1 o 1.125 0.976 -116.13 0.25746 0.00
22 19 13 o 0.181 0.157 -166.96 0.25746 0.00
23 17 14 o 0.628 0.545 -75.85 0.25746 0.00
29 13 2 o 0.801 0.694 -6.41 0.25746 0.00
25 17 10 o 0.182 0.158 176.16 0.25746 0.00
26 17 7 o 0.306 0.265 125.65 0.25746 0.00
26 14 12 o 0.526 0.452 -73.92 0.25721 0.00
26 18 4 o 0.648 0.558 154.02 0.25721 0.00
28 14 6 o 1.912 1.645 -156.12 0.25721 0.00
30 10 4 o 0.909 0.782 -137.09 0.25721 0.00
20 19 16 o 0.388 0.333 -124.93 0.25708 0.00
30 9 6 o 7.541 6.470 64.27 0.25708 0.00
28 13 8 o 1.123 0.964 128.09 0.25708 0.00
27 12 12 o 0.573 0.492 -45.00 0.25708 0.00
23 22 2 o 1.411 1.210 -23.53 0.25708 0.00
25 14 14 o 1.002 0.860 45.00 0.25708 0.00
22 22 7 o 5.342 4.583 135.00 0.25708 0.00
24 21 0 o 0.561 0.482 -180.00 0.25708 0.00
24 21 1 o 2.422 2.076 123.38 0.25696 0.00
24 19 9 o 1.216 1.042 64.31 0.25696 0.00
28 15 3 o 2.316 1.985 29.85 0.25696 0.00
27 17 0 o 2.876 2.465 -90.00 0.25696 0.00
27 15 8 o 6.488 5.561 88.97 0.25696 0.00
27 13 11 o 11.671 10.010 -56.32 0.25683 0.00
23 21 7 o 23.388 20.059 -50.08 0.25683 0.00
31 7 3 o 10.258 8.797 39.12 0.25683 0.00
29 13 3 o 15.832 13.579 29.24 0.25683 0.00
27 17 1 o 8.863 7.601 35.61 0.25683 0.00
21 17 17 o 1.920 1.647 -45.00 0.25683 0.00
25 15 13 o 9.213 7.902 60.05 0.25683 0.00
29 12 6 o 1.468 1.265 25.40 0.25658 0.00
24 21 2 o 4.054 3.493 -92.90 0.25658 0.00
24 18 11 o 0.611 0.526 -106.42 0.25658 0.00
21 18 16 o 2.373 2.045 -144.20 0.25658 0.00
27 16 6 o 1.541 1.328 36.92 0.25658 0.00
30 11 0 o 2.156 1.858 0.00 0.25658 0.00
26 15 11 o 3.329 2.877 -4.07 0.25645 0.00
29 10 9 o 0.239 0.206 -144.40 0.25645 0.00
31 6 5 o 2.547 2.202 148.73 0.25645 0.00
25 19 6 o 1.224 1.058 30.44 0.25645 0.00
27 17 2 o 1.458 1.260 -170.99 0.25645 0.00
30 11 1 o 0.345 0.298 -0.10 0.25645 0.00
23 22 3 o 1.315 1.136 -94.65 0.25645 0.00
23 18 13 o 0.582 0.503 -123.10 0.25645 0.00
32 0 0 o 42.886 37.310 0.00 0.25620 0.00
30 11 2 o 16.597 14.475 87.96 0.25608 0.00
26 18 5 o 5.104 4.451 -126.17 0.25608 0.00
30 10 5 o 6.730 5.869 32.55 0.25608 0.00
27 14 10 o 4.552 3.970 126.40 0.25608 0.00
25 20 0 o 1.473 1.284 -90.00 0.25608 0.00
24 20 7 o 0.398 0.347 -101.96 0.25608 0.00
32 1 0 o 1.426 1.244 180.00 0.25608 0.00
31 8 0 o 3.293 2.872 90.00 0.25608 0.00
25 16 12 o 0.417 0.364 -30.19 0.25608 0.00
22 21 10 o 3.011 2.626 18.59 0.25608 0.00
28 15 4 o 0.421 0.367 -94.08 0.25608 0.00
20 20 15 o 0.025 0.022 135.00 0.25608 0.00
31 7 4 o 8.830 7.715 83.98 0.25595 0.00
24 15 15 o 0.495 0.432 90.00 0.25595 0.00
28 11 11 o 2.013 1.759 -90.00 0.25595 0.00
31 8 1 o 0.665 0.581 54.40 0.25595 0.00
29 13 4 o 0.327 0.286 164.51 0.25595 0.00
24 21 3 o 2.378 2.078 -115.33 0.25595 0.00
29 11 8 o 1.402 1.225 -138.04 0.25595 0.00
25 20 1 o 6.674 5.831 45.70 0.25595 0.00
21 21 12 o 0.377 0.329 -90.00 0.25595 0.00
32 1 1 o 0.154 0.135 90.00 0.25595 0.00
21 19 15 o 29.976 26.218 138.18 0.25583 0.01
27 17 3 o 13.654 11.943 137.60 0.25583 0.00
30 8 8 o 1.865 1.632 -90.00 0.25570 0.00
32 2 0 o 0.109 0.096 180.00 0.25570 0.00
22 20 12 o 2.093 1.832 -65.53 0.25570 0.00
24 16 14 o 1.095 0.958 -109.14 0.25570 0.00
28 12 10 o 0.777 0.680 8.61 0.25570 0.00
22 17 16 o 1.601 1.401 72.03 0.25558 0.00
25 20 2 o 5.128 4.487 3.19 0.25558 0.00
31 8 2 o 0.225 0.197 159.81 0.25558 0.00
28 14 7 o 0.912 0.798 56.85 0.25558 0.00
23 22 4 o 4.781 4.184 -84.87 0.25558 0.00
23 20 10 o 1.586 1.388 -124.87 0.25558 0.00
26 17 8 o 1.845 1.615 -36.05 0.25558 0.00
32 2 1 o 3.828 3.349 2.51 0.25558 0.00
30 9 7 o 0.776 0.679 -43.63 0.25546 0.00
25 18 9 o 1.385 1.212 -149.79 0.25546 0.00
30 11 3 o 0.313 0.274 6.91 0.25546 0.00
22 22 8 o 1.036 0.906 0.00 0.25521 0.00
26 16 10 o 0.047 0.041 86.20 0.25521 0.00
32 2 2 o 0.007 0.006 0.00 0.25521 0.00
31 6 6 o 1.003 0.878 135.00 0.25508 0.00
24 21 4 o 0.616 0.539 -19.28 0.25508 0.00
32 3 0 o 0.717 0.628 -180.00 0.25508 0.00
22 18 15 o 2.690 2.355 -32.95 0.25508 0.00
28 13 9 o 0.020 0.018 66.11 0.25496 0.00
25 20 3 o 6.854 6.007 125.01 0.25496 0.00
28 15 5 o 1.572 1.378 -147.06 0.25496 0.00
27 17 4 o 2.575 2.257 106.29 0.25496 0.00
31 8 3 o 3.396 2.977 105.89 0.25496 0.00
27 16 7 o 1.766 1.548 73.67 0.25496 0.00
23 19 12 o 2.648 2.320 -86.76 0.25496 0.00
24 17 13 o 0.639 0.560 -115.46 0.25496 0.00
32 3 1 o 0.261 0.229 40.38 0.25496 0.00
23 21 8 o 1.307 1.145 -39.03 0.25496 0.00
29 12 7 o 4.880 4.277 132.12 0.25496 0.00
25 19 7 o 26.759 23.499 -39.06 0.25484 0.01
25 17 11 o 16.524 14.511 33.96 0.25484 0.00
29 13 5 o 9.542 8.379 -30.05 0.25484 0.00
31 7 5 o 10.811 9.494 -38.62 0.25484 0.00
27 15 9 o 5.959 5.233 -22.74 0.25484 0.00
30 10 6 o 47.811 42.095 -90.17 0.25472 0.01
26 18 6 o 48.247 42.479 89.61 0.25472 0.01
21 20 14 o 4.114 3.632 25.86 0.25459 0.00
30 11 4 o 1.637 1.445 178.35 0.25459 0.00
29 14 0 o 1.315 1.161 -90.00 0.25459 0.00
26 19 0 o 1.297 1.145 0.00 0.25459 0.00
32 3 2 o 2.039 1.800 95.34 0.25459 0.00
24 19 10 o 1.614 1.425 -132.82 0.25459 0.00
29 14 1 o 0.588 0.521 158.95 0.25447 0.00
26 19 1 o 0.002 0.002 -105.11 0.25447 0.00
23 22 5 o 0.785 0.695 42.12 0.25447 0.00
24 20 8 o 40.463 35.923 -179.73 0.25422 0.01
32 4 0 o 40.013 35.523 180.00 0.25422 0.00
28 16 0 o 23.660 21.006 180.00 0.25422 0.00
26 14 13 o 4.575 4.063 64.29 0.25410 0.00
29 14 2 o 1.804 1.602 175.19 0.25410 0.00
32 4 1 o 0.938 0.833 101.77 0.25410 0.00
26 19 2 o 5.058 4.492 -84.48 0.25410 0.00
29 10 10 o 0.146 0.129 45.00 0.25410 0.00
31 8 4 o 2.929 2.601 -69.30 0.25410 0.00
22 19 14 o 2.704 2.401 -50.44 0.25410 0.00
23 16 16 o 0.000 0.000 135.01 0.25410 0.00
25 20 4 o 1.646 1.461 119.19 0.25410 0.00
28 16 1 o 0.066 0.059 -106.75 0.25410 0.00
24 21 5 o 1.509 1.339 -43.18 0.25398 0.00
31 9 0 o 2.894 2.568 90.00 0.25398 0.00
32 3 3 o 0.000 0.000 -90.00 0.25398 0.00
27 13 12 o 0.964 0.856 -56.48 0.25398 0.00
23 17 15 o 16.113 14.280 126.65 0.25386 0.00
29 11 9 o 9.910 8.783 -125.66 0.25386 0.00
31 9 1 o 14.147 12.538 -139.96 0.25386 0.00
27 17 5 o 4.152 3.680 -152.35 0.25386 0.00
32 4 2 o 0.297 0.263 127.16 0.25374 0.00
28 16 2 o 0.461 0.408 -110.97 0.25374 0.00
28 14 8 o 0.248 0.219 -173.99 0.25374 0.00
30 12 0 o 0.136 0.120 180.00 0.25374 0.00
24 18 12 o 0.510 0.451 -102.98 0.25374 0.00
30 9 8 o 0.441 0.389 84.23 0.25362 0.00
30 12 1 o 0.998 0.882 24.04 0.25362 0.00
28 15 6 o 1.480 1.308 70.72 0.25362 0.00
26 15 12 o 0.612 0.541 -8.86 0.25362 0.00
31 7 6 o 4.165 3.680 -31.43 0.25349 0.00
25 15 14 o 0.588 0.519 -146.21 0.25349 0.00
31 9 2 o 3.166 2.797 5.28 0.25349 0.00
26 17 9 o 6.983 6.169 160.06 0.25349 0.00
29 13 6 o 0.485 0.428 166.53 0.25349 0.00
27 14 11 o 5.663 5.003 45.28 0.25349 0.00
30 11 5 o 0.591 0.522 -170.44 0.25349 0.00
29 14 3 o 1.213 1.072 12.86 0.25349 0.00
26 19 3 o 0.133 0.117 153.81 0.25349 0.00
19 19 18 o 7.982 7.051 -180.00 0.25349 0.00
22 21 11 o 0.184 0.163 -2.10 0.25349 0.00
20 18 18 o 1.267 1.124 -180.00 0.25325 0.00
30 12 2 o 0.709 0.629 104.47 0.25325 0.00
28 12 11 o 1.655 1.474 -141.52 0.25313 0.00
27 16 8 o 2.012 1.792 -100.12 0.25313 0.00
26 18 7 o 5.427 4.834 157.10 0.25313 0.00
32 4 3 o 0.435 0.387 -80.69 0.25313 0.00
22 22 9 o 3.077 2.740 45.00 0.25313 0.00
32 5 0 o 1.834 1.634 0.00 0.25313 0.00
29 12 8 o 0.450 0.400 178.27 0.25313 0.00
28 16 3 o 0.525 0.468 61.08 0.25313 0.00
25 18 10 o 1.318 1.174 86.08 0.25313 0.00
23 22 6 o 2.540 2.262 132.82 0.25313 0.00
30 10 7 o 11.084 9.871 1.85 0.25313 0.00
23 18 14 o 3.825 3.406 -52.48 0.25313 0.00
20 19 17 o 0.348 0.312 -135.40 0.25301 0.00
25 16 13 o 2.325 2.085 3.69 0.25301 0.00
25 19 8 o 0.874 0.784 32.12 0.25301 0.00
25 20 5 o 4.916 4.408 -144.95 0.25301 0.00
32 5 1 o 0.130 0.116 -124.04 0.25301 0.00
23 20 11 o 1.057 0.948 -146.35 0.25301 0.00
31 8 5 o 0.238 0.213 117.74 0.25301 0.00
23 21 9 o 1.696 1.534 17.82 0.25289 0.00
21 21 13 o 2.483 2.245 -45.00 0.25289 0.00
31 9 3 o 13.363 12.084 -42.47 0.25289 0.00
32 5 2 o 3.490 3.225 87.94 0.25265 0.00
30 12 3 o 0.900 0.831 -40.30 0.25265 0.00
26 16 11 o 0.132 0.122 68.08 0.25265 0.00
28 13 10 o 0.152 0.141 61.46 0.25265 0.00
22 20 13 o 1.010 0.933 -150.88 0.25265 0.00
29 14 4 o 1.088 1.006 118.76 0.25265 0.00
24 21 6 o 3.644 3.367 79.31 0.25265 0.00
26 19 4 o 1.300 1.201 173.14 0.25265 0.00
27 18 0 o 3.866 3.572 90.00 0.25265 0.00
21 18 17 o 1.753 1.639 11.08 0.25253 0.00
27 17 6 o 0.740 0.692 27.25 0.25253 0.00
27 15 10 o 6.136 5.738 -21.07 0.25253 0.00
27 18 1 o 2.622 2.452 -105.36 0.25253 0.00
20 20 16 o 75.904 72.627 0.00 0.25229 0.01
32 4 4 o 34.381 32.897 0.00 0.25229 0.00
28 16 4 o 23.765 22.739 0.49 0.25229 0.00
24 16 15 o 1.046 1.010 53.96 0.25217 0.00
27 18 2 o 0.771 0.745 -39.47 0.25217 0.00
30 11 6 o 12.726 12.299 -94.47 0.25217 0.00
24 20 9 o 0.401 0.388 -154.35 0.25217 0.00
25 17 12 o 0.645 0.629 -161.45 0.25205 0.00
32 5 3 o 0.473 0.461 137.10 0.25205 0.00
21 19 16 o 0.878 0.856 -149.24 0.25205 0.00
28 15 7 o 1.955 1.906 -134.52 0.25205 0.00
31 9 4 o 2.199 2.144 -88.21 0.25205 0.00
24 19 11 o 0.867 0.845 23.41 0.25205 0.00
23 23 0 o 3.149 3.070 -90.00 0.25205 0.00
23 23 1 o 4.239 4.161 135.00 0.25193 0.00
23 19 13 o 5.889 5.781 143.86 0.25193 0.00
29 13 7 o 13.486 13.239 -149.03 0.25193 0.00
31 7 7 o 8.188 8.038 -135.00 0.25193 0.00
24 22 0 o 1.369 1.351 -180.00 0.25182 0.00
32 6 0 o 0.598 0.590 0.00 0.25182 0.00
30 12 4 o 0.765 0.756 -69.55 0.25182 0.00
32 6 1 o 1.653 1.640 -167.37 0.25170 0.00
25 20 6 o 3.961 3.928 -168.27 0.25170 0.00
28 14 9 o 0.081 0.081 164.65 0.25170 0.00
31 10 0 o 1.638 1.625 -90.00 0.25170 0.00
24 17 14 o 2.303 2.284 -110.03 0.25170 0.00
24 22 1 o 0.090 0.089 6.61 0.25170 0.00
31 8 6 o 0.445 0.441 -36.95 0.25170 0.00
27 18 3 o 2.910 2.896 -94.82 0.25158 0.00
22 17 17 o 3.388 3.373 0.00 0.25158 0.00
23 22 7 o 1.923 1.914 51.44 0.25158 0.00
30 9 9 o 4.950 4.928 0.00 0.25158 0.00
31 10 1 o 2.625 2.613 122.54 0.25158 0.00
29 14 5 o 0.084 0.083 -16.27 0.25158 0.00
23 23 2 o 12.854 12.795 -180.00 0.25158 0.00
29 11 10 o 2.671 2.659 5.19 0.25158 0.00
26 19 5 o 0.014 0.014 -69.35 0.25158 0.00
30 10 8 o 1.131 1.133 61.32 0.25134 0.00
22 18 16 o 0.580 0.581 171.29 0.25134 0.00
32 6 2 o 0.095 0.095 -177.82 0.25134 0.00
26 18 8 o 0.543 0.544 -44.75 0.25134 0.00
24 22 2 o 1.424 1.427 -98.23 0.25134 0.00
26 17 10 o 3.334 3.351 30.65 0.25122 0.00
31 10 2 o 0.551 0.554 150.84 0.25122 0.00
32 5 4 o 1.495 1.503 157.95 0.25122 0.00
28 16 5 o 0.298 0.300 -4.52 0.25122 0.00
29 15 0 o 0.044 0.045 -90.00 0.25111 0.00
27 16 9 o 0.090 0.091 26.66 0.25111 0.00
21 20 15 o 0.553 0.558 140.22 0.25111 0.00
24 21 7 o 1.220 1.230 66.45 0.25111 0.00
25 21 0 o 1.173 1.182 -90.00 0.25111 0.00
29 12 9 o 3.436 3.464 -157.96 0.25111 0.00
27 13 13 o 0.517 0.523 45.00 0.25099 0.00
25 21 1 o 10.248 10.372 -36.52 0.25099 0.00
25 19 9 o 3.576 3.619 60.09 0.25099 0.00
31 9 5 o 9.249 9.360 40.53 0.25099 0.00
27 17 7 o 13.115 13.273 -47.95 0.25099 0.00
29 15 1 o 8.017 8.114 38.34 0.25099 0.00
23 23 3 o 6.518 6.597 45.00 0.25099 0.00
22 22 10 o 23.596 23.972 -90.00 0.25087 0.00
26 14 14 o 21.183 21.521 -90.00 0.25087 0.00
30 12 5 o 0.741 0.756 -175.72 0.25075 0.00
27 18 4 o 3.158 3.221 -82.71 0.25075 0.00
30 13 0 o 0.373 0.380 0.00 0.25075 0.00
22 21 12 o 1.323 1.349 106.77 0.25075 0.00
24 22 3 o 0.159 0.162 15.48 0.25075 0.00
32 6 3 o 0.766 0.782 160.50 0.25075 0.00
24 18 13 o 0.913 0.931 26.22 0.25075 0.00
27 14 12 o 1.330 1.356 133.67 0.25075 0.00
29 15 2 o 4.181 4.281 -175.50 0.25064 0.00
25 21 2 o 0.307 0.314 -0.02 0.25064 0.00
30 13 1 o 2.415 2.473 137.87 0.25064 0.00
31 10 3 o 3.556 3.641 53.09 0.25064 0.00
25 18 11 o 0.112 0.115 -15.96 0.25064 0.00
26 15 13 o 1.085 1.111 172.79 0.25064 0.00
30 11 7 o 0.365 0.374 -173.91 0.25064 0.00
23 21 10 o 0.458 0.469 -86.11 0.25064 0.00
22 19 15 o 5.760 5.898 171.24 0.25064 0.00
28 12 12 o 34.614 35.734 -180.00 0.25040 0.00
23 20 12 o 0.926 0.959 49.84 0.25029 0.00
28 15 8 o 0.942 0.977 62.15 0.25029 0.00
32 7 0 o 0.282 0.292 0.00 0.25029 0.00
28 17 0 o 0.130 0.135 0.00 0.25029 0.00
29 14 6 o 0.779 0.807 -18.30 0.25029 0.00
26 19 6 o 3.916 4.060 103.82 0.25029 0.00
30 13 2 o 4.814 4.991 80.23 0.25029 0.00
23 23 4 o 2.659 2.767 90.00 0.25017 0.00
29 13 8 o 0.852 0.886 -15.15 0.25017 0.00
32 5 5 o 0.001 0.001 90.00 0.25017 0.00
32 7 1 o 0.633 0.658 -164.69 0.25017 0.00
28 17 1 o 0.372 0.388 96.80 0.25017 0.00
25 20 7 o 4.538 4.724 -61.06 0.25017 0.00
28 13 11 o 1.006 1.047 -72.09 0.25017 0.00
23 17 16 o 0.415 0.432 170.15 0.25017 0.00
31 8 7 o 5.989 6.234 -82.03 0.25017 0.00
29 15 3 o 12.002 12.535 142.95 0.25005 0.00
25 21 3 o 13.808 14.421 -142.19 0.25005 0.00
25 15 15 o 29.416 30.722 135.00 0.25005 0.00
27 15 11 o 10.672 11.146 -140.24 0.25005 0.00
24 22 4 o 1.119 1.172 11.24 0.24994 0.00
24 20 10 o 1.456 1.524 -102.61 0.24994 0.00
26 16 12 o 2.279 2.386 -76.94 0.24994 0.00
32 6 4 o 0.696 0.729 -154.98 0.24994 0.00
28 16 6 o 0.638 0.668 44.04 0.24994 0.00
26 20 0 o 1.358 1.422 0.00 0.24994 0.00
23 22 8 o 3.287 3.445 101.01 0.24982 0.00
31 10 4 o 1.231 1.290 103.57 0.24982 0.00
28 17 2 o 0.292 0.306 -98.20 0.24982 0.00
26 20 1 o 0.453 0.475 162.95 0.24982 0.00
25 16 14 o 1.966 2.061 43.91 0.24982 0.00
32 7 2 o 0.221 0.231 -79.88 0.24982 0.00
21 21 14 o 0.769 0.805 0.00 0.24970 0.00
30 13 3 o 0.980 1.026 -105.84 0.24970 0.00
23 18 15 o 5.526 5.785 -158.57 0.24970 0.00
31 9 6 o 1.612 1.688 -159.44 0.24970 0.00
27 18 5 o 1.633 1.710 55.76 0.24970 0.00
30 12 6 o 0.808 0.839 -64.26 0.24947 0.00
28 14 10 o 1.859 1.930 11.43 0.24947 0.00
22 20 14 o 0.475 0.493 161.41 0.24947 0.00
26 20 2 o 0.439 0.455 90.80 0.24947 0.00
24 21 8 o 0.604 0.622 157.60 0.24936 0.00
30 10 9 o 4.338 4.469 -137.46 0.24936 0.00
26 18 9 o 2.765 2.848 63.33 0.24936 0.00
24 19 12 o 1.327 1.367 -134.24 0.24936 0.00
25 21 4 o 0.882 0.900 85.06 0.24924 0.00
28 17 3 o 0.208 0.213 -97.07 0.24924 0.00
29 15 4 o 0.087 0.089 -176.02 0.24924 0.00
31 11 0 o 9.753 9.955 90.00 0.24924 0.00
27 17 8 o 1.746 1.782 -57.67 0.24924 0.00
32 7 3 o 0.303 0.309 -150.48 0.24924 0.00
19 19 19 o 14.689 14.841 45.00 0.24913 0.00
23 23 5 o 2.510 2.535 -45.00 0.24913 0.00
29 11 11 o 19.375 19.575 -45.00 0.24913 0.00
25 17 13 o 2.776 2.804 -38.60 0.24913 0.00
31 11 1 o 6.363 6.429 -28.32 0.24913 0.00
24 22 5 o 0.096 0.095 -131.17 0.24890 0.00
30 11 8 o 0.557 0.552 -5.79 0.24890 0.00
30 13 4 o 0.403 0.399 154.62 0.24890 0.00
32 6 5 o 1.638 1.623 5.43 0.24890 0.00
27 16 10 o 0.914 0.906 -106.20 0.24890 0.00
29 12 10 o 0.876 0.868 -125.13 0.24890 0.00
20 19 18 o 1.206 1.196 -40.24 0.24890 0.00
26 20 3 o 0.257 0.255 -169.95 0.24890 0.00
29 14 7 o 1.250 1.230 -175.82 0.24878 0.00
26 17 11 o 0.841 0.827 -5.59 0.24878 0.00
26 19 7 o 0.883 0.869 -14.71 0.24878 0.00
31 10 5 o 1.485 1.461 -56.44 0.24878 0.00
25 19 10 o 0.889 0.874 -133.23 0.24878 0.00
31 11 2 o 4.292 4.222 -6.83 0.24878 0.00
23 19 14 o 6.905 6.792 171.74 0.24878 0.00
32 8 0 o 29.361 28.651 0.00 0.24855 0.00
24 16 16 o 61.032 59.557 0.00 0.24855 0.01
31 8 8 o 2.017 1.967 135.00 0.24844 0.00
28 16 7 o 1.257 1.226 -114.70 0.24844 0.00
27 18 6 o 2.720 2.653 120.17 0.24844 0.00
22 22 11 o 3.115 3.039 -45.00 0.24844 0.00
32 8 1 o 0.305 0.298 -50.96 0.24844 0.00
25 20 8 o 1.560 1.522 -45.18 0.24844 0.00
28 17 4 o 0.138 0.135 143.08 0.24844 0.00
21 18 18 o 1.960 1.912 -135.00 0.24844 0.00
20 20 17 o 1.023 0.998 45.00 0.24844 0.00
32 7 4 o 0.172 0.167 136.30 0.24844 0.00
27 19 0 o 4.691 4.583 -90.00 0.24833 0.00
24 17 15 o 0.431 0.421 108.09 0.24833 0.00
28 15 9 o 1.679 1.640 59.42 0.24833 0.00
33 1 0 o 0.006 0.006 -90.00 0.24833 0.00
31 9 7 o 9.676 9.481 132.24 0.24821 0.00
29 13 9 o 5.866 5.748 144.19 0.24821 0.00
29 15 5 o 6.276 6.150 -135.45 0.24821 0.00
25 21 5 o 6.666 6.532 144.33 0.24821 0.00
21 19 17 o 3.278 3.212 -124.91 0.24821 0.00
31 11 3 o 7.127 6.983 -149.07 0.24821 0.00
23 21 11 o 21.401 20.970 128.71 0.24821 0.00
27 19 1 o 4.891 4.793 156.99 0.24821 0.00
33 1 1 o 5.027 4.926 135.00 0.24821 0.00
26 20 4 o 1.471 1.447 156.70 0.24810 0.00
32 8 2 o 0.392 0.386 -60.68 0.24810 0.00
30 12 7 o 0.450 0.445 130.03 0.24798 0.00
25 18 12 o 1.305 1.290 174.55 0.24798 0.00
33 2 0 o 0.957 0.945 90.00 0.24798 0.00
27 14 13 o 0.583 0.579 -120.86 0.24787 0.00
33 2 1 o 0.061 0.061 127.31 0.24787 0.00
23 22 9 o 0.295 0.293 -148.46 0.24787 0.00
30 13 5 o 4.240 4.211 -25.36 0.24787 0.00
22 21 13 o 2.814 2.794 -24.25 0.24787 0.00
23 23 6 o 11.069 10.994 0.00 0.24787 0.00
27 19 2 o 10.175 10.105 178.86 0.24787 0.00
24 18 14 o 1.271 1.276 -165.10 0.24764 0.00
30 14 0 o 0.092 0.093 180.00 0.24764 0.00
32 6 6 o 0.497 0.499 0.00 0.24764 0.00
24 22 6 o 1.111 1.115 71.19 0.24764 0.00
29 16 0 o 0.596 0.602 -90.00 0.24753 0.00
21 20 16 o 0.482 0.487 72.85 0.24753 0.00
33 2 2 o 0.252 0.255 -135.00 0.24753 0.00
24 20 11 o 0.701 0.708 95.97 0.24753 0.00
32 8 3 o 0.014 0.014 157.43 0.24753 0.00
30 14 1 o 3.975 4.012 29.11 0.24753 0.00
31 10 6 o 1.803 1.820 -47.39 0.24753 0.00
22 18 17 o 1.984 2.003 -120.84 0.24753 0.00
26 15 14 o 3.679 3.713 -79.30 0.24753 0.00
28 13 12 o 0.995 1.005 -78.17 0.24753 0.00
32 7 5 o 1.024 1.040 35.36 0.24742 0.00
28 17 5 o 0.243 0.247 -79.89 0.24742 0.00
29 16 1 o 5.858 5.946 39.26 0.24742 0.00
23 20 13 o 0.362 0.368 123.83 0.24742 0.00
27 15 12 o 3.995 4.055 -84.89 0.24742 0.00
24 21 9 o 0.614 0.623 167.07 0.24742 0.00
33 3 0 o 0.017 0.017 -90.00 0.24742 0.00
31 11 4 o 9.255 9.394 -92.98 0.24742 0.00
27 19 3 o 6.518 6.653 27.52 0.24731 0.00
27 17 9 o 1.095 1.117 17.44 0.24731 0.00
33 3 1 o 3.977 4.059 44.25 0.24731 0.00
30 14 2 o 42.399 43.500 -90.19 0.24719 0.01
26 18 10 o 24.838 25.484 -90.51 0.24719 0.00
30 10 10 o 33.598 34.471 90.00 0.24719 0.00
29 14 8 o 0.840 0.865 -28.16 0.24708 0.00
28 14 11 o 0.880 0.907 -132.99 0.24708 0.00
26 19 8 o 1.171 1.206 -12.74 0.24708 0.00
29 16 2 o 1.878 1.935 5.39 0.24708 0.00
26 20 5 o 0.692 0.713 -22.24 0.24708 0.00
22 19 16 o 1.875 1.932 157.44 0.24708 0.00
26 16 13 o 0.994 1.024 170.84 0.24708 0.00
25 21 6 o 0.356 0.368 178.93 0.24697 0.00
29 15 6 o 3.129 3.234 11.88 0.24697 0.00
33 3 2 o 1.314 1.358 173.80 0.24697 0.00
30 11 9 o 0.822 0.849 12.92 0.24697 0.00
27 18 7 o 3.252 3.360 62.66 0.24697 0.00
28 16 8 o 28.164 29.142 -179.41 0.24675 0.00
32 8 4 o 27.392 28.344 -179.89 0.24675 0.00
24 23 0 o 0.947 0.978 -180.00 0.24663 0.00
33 4 0 o 0.004 0.004 -90.00 0.24663 0.00
31 12 0 o 3.844 3.971 -90.00 0.24663 0.00
32 9 0 o 1.575 1.628 -180.00 0.24663 0.00
30 13 6 o 4.157 4.295 -119.25 0.24663 0.00
30 14 3 o 5.006 5.171 -13.23 0.24663 0.00
24 23 1 o 1.103 1.137 -173.51 0.24652 0.00
32 9 1 o 0.028 0.029 1.17 0.24652 0.00
25 20 9 o 2.489 2.565 19.91 0.24652 0.00
33 4 1 o 0.411 0.424 12.94 0.24652 0.00
31 12 1 o 0.415 0.428 -109.96 0.24652 0.00
31 9 8 o 1.037 1.068 96.80 0.24652 0.00
24 19 13 o 1.083 1.116 -103.88 0.24652 0.00
27 19 4 o 4.046 4.169 90.13 0.24652 0.00
29 16 3 o 5.719 5.892 130.66 0.24652 0.00
27 16 11 o 2.606 2.685 -107.12 0.24652 0.00
29 12 11 o 2.547 2.624 -56.55 0.24652 0.00
25 16 15 o 2.219 2.286 123.69 0.24652 0.00
21 21 15 o 8.923 9.162 -135.00 0.24641 0.00
25 19 11 o 26.199 26.899 139.75 0.24641 0.00
33 3 3 o 3.630 3.727 135.00 0.24641 0.00
23 17 17 o 0.416 0.427 -135.00 0.24641 0.00
31 11 5 o 6.013 6.174 149.82 0.24641 0.00
23 23 7 o 8.914 9.152 -135.00 0.24641 0.00
28 18 0 o 0.099 0.101 180.00 0.24630 0.00
30 12 8 o 1.710 1.749 97.86 0.24630 0.00
23 18 16 o 1.937 1.973 -54.01 0.24619 0.00
32 9 2 o 1.746 1.779 -88.50 0.24619 0.00
33 4 2 o 0.901 0.918 4.31 0.24619 0.00
31 12 2 o 0.079 0.081 -135.96 0.24619 0.00
28 17 6 o 0.495 0.504 66.81 0.24619 0.00
28 15 10 o 1.020 1.039 -123.09 0.24619 0.00
22 20 15 o 0.549 0.560 -53.15 0.24619 0.00
25 22 0 o 3.107 3.165 90.00 0.24619 0.00
24 22 7 o 0.232 0.236 -146.91 0.24619 0.00
24 23 2 o 3.166 3.225 84.12 0.24619 0.00
26 17 12 o 1.048 1.068 117.15 0.24619 0.00
32 7 6 o 0.096 0.098 152.78 0.24619 0.00
28 18 1 o 0.595 0.606 -35.13 0.24619 0.00
29 13 10 o 0.122 0.124 -5.14 0.24608 0.00
25 17 14 o 0.359 0.365 -23.37 0.24608 0.00
25 22 1 o 1.756 1.782 37.14 0.24608 0.00
31 10 7 o 3.793 3.849 -137.45 0.24608 0.00
26 20 6 o 0.263 0.265 -97.37 0.24586 0.00
30 14 4 o 0.337 0.340 64.63 0.24586 0.00
22 22 12 o 0.597 0.602 180.00 0.24586 0.00
28 18 2 o 0.729 0.735 -109.36 0.24586 0.00
25 22 2 o 0.116 0.117 -72.19 0.24575 0.00
29 16 4 o 0.847 0.851 135.01 0.24575 0.00
32 8 5 o 1.104 1.109 139.78 0.24575 0.00
23 22 10 o 3.160 3.175 -54.60 0.24575 0.00
33 4 3 o 0.267 0.267 174.86 0.24564 0.00
23 21 12 o 1.116 1.119 147.21 0.24564 0.00
32 9 3 o 0.282 0.283 -39.85 0.24564 0.00
31 12 3 o 2.062 2.066 -81.07 0.24564 0.00
33 5 0 o 0.037 0.037 90.00 0.24564 0.00
24 23 3 o 1.602 1.606 179.71 0.24564 0.00
25 21 7 o 15.210 15.206 38.66 0.24553 0.00
23 19 15 o 12.572 12.568 43.89 0.24553 0.00
29 15 7 o 17.454 17.449 -38.88 0.24553 0.00
33 5 1 o 6.084 6.082 -41.29 0.24553 0.00
27 19 5 o 3.351 3.351 -20.32 0.24553 0.00
27 18 8 o 2.396 2.386 106.63 0.24531 0.00
26 21 0 o 3.000 2.988 -180.00 0.24531 0.00
28 18 3 o 0.924 0.920 35.11 0.24531 0.00
24 21 10 o 3.059 3.046 -106.52 0.24531 0.00
31 11 6 o 4.154 4.132 161.58 0.24520 0.00
25 22 3 o 0.863 0.858 145.73 0.24520 0.00
30 13 7 o 0.708 0.704 129.06 0.24520 0.00
25 18 13 o 0.870 0.865 39.41 0.24520 0.00
26 19 9 o 0.149 0.148 150.24 0.24520 0.00
29 14 9 o 0.015 0.015 -77.52 0.24520 0.00
33 5 2 o 0.545 0.542 167.33 0.24520 0.00
26 21 1 o 2.814 2.800 -43.20 0.24520 0.00
27 17 10 o 0.276 0.275 -112.47 0.24520 0.00
24 20 12 o 47.861 47.666 0.19 0.24498 0.01
26 21 2 o 0.911 0.910 -111.81 0.24487 0.00
26 18 11 o 3.676 3.672 -17.28 0.24487 0.00
27 14 14 o 4.937 4.932 -45.00 0.24487 0.00
31 12 4 o 3.142 3.139 96.76 0.24487 0.00
32 9 4 o 1.629 1.627 -28.83 0.24487 0.00
24 17 16 o 0.790 0.789 45.75 0.24487 0.00
30 14 5 o 3.195 3.191 -133.74 0.24487 0.00
22 21 14 o 2.050 2.048 -158.32 0.24487 0.00
28 16 9 o 0.867 0.866 177.34 0.24487 0.00
30 11 10 o 8.863 8.854 83.71 0.24487 0.00
24 23 4 o 1.184 1.183 23.63 0.24487 0.00
33 4 4 o 0.000 0.000 -135.00 0.24487 0.00
20 19 19 o 0.510 0.513 90.00 0.24476 0.00
29 16 5 o 4.867 4.887 -148.87 0.24476 0.00
23 23 8 o 2.440 2.451 -90.00 0.24476 0.00
32 7 7 o 0.366 0.368 90.00 0.24476 0.00
28 13 13 o 0.058 0.058 -90.00 0.24476 0.00
28 17 7 o 0.008 0.008 17.45 0.24476 0.00
31 9 9 o 5.433 5.499 -135.00 0.24465 0.00
33 5 3 o 5.569 5.636 -138.25 0.24465 0.00
27 15 13 o 6.517 6.595 150.42 0.24465 0.00
32 10 0 o 0.696 0.712 -180.00 0.24454 0.00
24 22 8 o 0.745 0.762 -156.44 0.24454 0.00
32 8 6 o 0.804 0.822 148.19 0.24454 0.00
28 18 4 o 0.062 0.063 -14.53 0.24454 0.00
28 14 12 o 0.327 0.334 -10.28 0.24454 0.00
20 20 18 o 1.017 1.040 90.00 0.24454 0.00
24 18 15 o 0.503 0.521 88.62 0.24443 0.00
25 22 4 o 2.622 2.716 -73.45 0.24443 0.00
32 10 1 o 0.253 0.262 44.66 0.24443 0.00
30 15 0 o 0.289 0.300 -180.00 0.24443 0.00
23 20 14 o 0.939 0.973 97.54 0.24443 0.00
26 20 7 o 0.062 0.064 7.25 0.24443 0.00
30 12 9 o 0.701 0.726 -21.17 0.24443 0.00
25 20 10 o 3.000 3.107 20.23 0.24443 0.00
31 10 8 o 0.683 0.707 -53.62 0.24443 0.00
33 6 0 o 0.376 0.390 -90.00 0.24443 0.00
27 19 6 o 8.269 8.695 -3.81 0.24432 0.00
21 19 18 o 0.099 0.104 124.64 0.24432 0.00
33 6 1 o 0.196 0.206 -68.50 0.24432 0.00
26 21 3 o 1.014 1.067 53.80 0.24432 0.00
26 15 15 o 3.608 3.793 -180.00 0.24432 0.00
30 15 1 o 0.105 0.110 135.79 0.24432 0.00
26 16 14 o 0.121 0.132 -110.45 0.24411 0.00
32 10 2 o 0.098 0.107 7.73 0.24411 0.00
29 12 12 o 0.399 0.443 45.00 0.24400 0.00
33 6 2 o 0.863 0.957 15.16 0.24400 0.00
27 20 0 o 2.386 2.645 90.00 0.24400 0.00
30 15 2 o 9.202 10.199 -90.80 0.24400 0.00
27 16 12 o 0.411 0.456 81.60 0.24400 0.00
28 15 11 o 0.746 0.841 56.23 0.24389 0.00
31 12 5 o 0.007 0.007 -49.33 0.24389 0.00
29 15 8 o 0.487 0.550 47.87 0.24389 0.00
25 19 12 o 1.120 1.263 -135.32 0.24389 0.00
27 20 1 o 0.458 0.517 153.16 0.24389 0.00
32 9 5 o 0.055 0.062 96.46 0.24389 0.00
21 20 17 o 0.484 0.546 126.72 0.24389 0.00
24 23 5 o 0.674 0.760 26.72 0.24389 0.00
25 21 8 o 0.452 0.510 -102.51 0.24389 0.00
29 17 0 o 0.183 0.207 -90.00 0.24389 0.00
31 13 0 o 2.915 3.289 -90.00 0.24389 0.00
33 5 4 o 0.391 0.442 -23.94 0.24389 0.00
31 13 1 o 7.685 8.813 34.99 0.24378 0.00
29 13 11 o 8.807 10.100 32.30 0.24378 0.00
31 11 7 o 5.941 6.813 36.83 0.24378 0.00
29 17 1 o 8.842 10.140 -27.16 0.24378 0.00
30 14 6 o 31.462 36.596 89.54 0.24368 0.01
22 18 18 o 5.967 6.940 90.00 0.24368 0.00
32 10 3 o 0.170 0.199 -84.49 0.24357 0.00
26 21 4 o 2.174 2.558 -13.03 0.24357 0.00
28 18 5 o 0.249 0.293 156.59 0.24357 0.00
24 19 14 o 0.653 0.768 15.96 0.24357 0.00
27 20 2 o 1.778 2.093 8.95 0.24357 0.00
30 13 8 o 0.488 0.574 -42.35 0.24357 0.00
29 16 6 o 1.329 1.563 -160.38 0.24357 0.00
26 17 13 o 3.450 4.092 -12.86 0.24346 0.00
27 18 9 o 0.864 1.025 -139.03 0.24346 0.00
30 15 3 o 0.099 0.117 -136.20 0.24346 0.00
29 17 2 o 0.041 0.048 176.97 0.24346 0.00
23 22 11 o 2.740 3.250 -150.82 0.24346 0.00
22 19 17 o 0.255 0.302 -4.39 0.24346 0.00
25 22 5 o 1.808 2.145 -137.99 0.24346 0.00
33 6 3 o 0.975 1.157 -161.58 0.24346 0.00
31 13 2 o 2.047 2.429 -177.20 0.24346 0.00
32 8 7 o 0.177 0.211 29.45 0.24314 0.00
26 19 10 o 2.774 3.306 -68.59 0.24314 0.00
22 22 13 o 1.012 1.206 -135.00 0.24314 0.00
29 14 10 o 0.154 0.183 121.70 0.24314 0.00
25 16 16 o 0.004 0.005 -135.00 0.24314 0.00
28 17 8 o 0.172 0.205 -83.04 0.24314 0.00
33 7 0 o 0.047 0.055 90.00 0.24303 0.00
24 21 11 o 0.330 0.391 -117.35 0.24303 0.00
21 21 16 o 0.187 0.222 90.00 0.24303 0.00
27 20 3 o 0.822 0.976 33.58 0.24303 0.00
25 17 15 o 7.290 8.597 -146.63 0.24293 0.00
29 17 3 o 10.763 12.691 -150.66 0.24293 0.00
23 21 13 o 0.757 0.892 -164.91 0.24293 0.00
31 13 3 o 8.714 10.275 141.18 0.24293 0.00
27 19 7 o 7.111 8.385 -147.33 0.24293 0.00
27 17 11 o 10.079 11.885 127.63 0.24293 0.00
23 23 9 o 2.060 2.429 135.00 0.24293 0.00
33 5 5 o 5.718 6.743 135.00 0.24293 0.00
33 7 1 o 3.555 4.191 -140.52 0.24293 0.00
26 20 8 o 1.138 1.330 -41.13 0.24282 0.00
22 20 16 o 0.893 1.044 101.42 0.24282 0.00
32 10 4 o 0.709 0.828 18.60 0.24282 0.00
28 16 10 o 0.630 0.737 -145.10 0.24282 0.00
24 22 9 o 0.207 0.239 55.37 0.24271 0.00
31 12 6 o 0.234 0.271 85.24 0.24271 0.00
32 9 6 o 0.751 0.868 92.46 0.24271 0.00
24 23 6 o 1.913 2.212 -110.33 0.24271 0.00
33 6 4 o 0.370 0.428 70.87 0.24271 0.00
30 15 4 o 0.175 0.203 12.71 0.24271 0.00
30 11 11 o 0.532 0.608 0.00 0.24261 0.00
31 10 9 o 0.469 0.536 134.60 0.24261 0.00
26 21 5 o 3.323 3.797 140.69 0.24261 0.00
23 18 17 o 0.113 0.130 66.40 0.24261 0.00
33 7 2 o 3.145 3.593 -1.83 0.24261 0.00
28 18 6 o 0.806 0.896 46.88 0.24239 0.00
26 18 12 o 0.389 0.433 129.09 0.24239 0.00
30 12 10 o 0.891 0.991 118.57 0.24239 0.00
25 22 6 o 0.644 0.706 89.17 0.24229 0.00
32 11 0 o 0.074 0.081 -180.00 0.24229 0.00
30 14 7 o 5.396 5.915 178.85 0.24229 0.00
27 20 4 o 2.189 2.400 -101.69 0.24229 0.00
25 18 14 o 1.057 1.159 -116.02 0.24229 0.00
24 20 13 o 0.783 0.859 33.83 0.24229 0.00
28 19 0 o 0.065 0.071 -180.00 0.24229 0.00
29 16 7 o 4.518 4.882 -58.68 0.24218 0.00
31 11 8 o 6.762 7.308 87.15 0.24218 0.00
31 13 4 o 2.541 2.746 99.06 0.24218 0.00
32 11 1 o 1.211 1.308 8.04 0.24218 0.00
28 19 1 o 1.588 1.717 -176.69 0.24218 0.00
25 20 11 o 2.746 2.967 114.47 0.24218 0.00
23 19 16 o 1.571 1.698 99.29 0.24218 0.00
29 17 4 o 0.146 0.157 60.08 0.24218 0.00
25 21 9 o 3.580 3.816 -36.10 0.24208 0.00
29 15 9 o 5.384 5.738 52.48 0.24208 0.00
33 7 3 o 3.968 4.230 -39.89 0.24208 0.00
28 14 13 o 0.384 0.399 20.65 0.24187 0.00
32 11 2 o 0.187 0.195 -99.22 0.24187 0.00
32 10 5 o 0.237 0.247 -156.22 0.24187 0.00
28 19 2 o 2.440 2.537 86.18 0.24187 0.00
27 15 14 o 4.699 4.835 155.61 0.24176 0.00
30 15 5 o 0.241 0.248 -22.86 0.24176 0.00
22 21 15 o 0.400 0.412 -175.28 0.24176 0.00
33 6 5 o 0.496 0.511 34.32 0.24176 0.00
30 13 9 o 4.409 4.536 167.04 0.24176 0.00
24 24 0 o 15.747 15.954 0.00 0.24155 0.00
32 8 8 o 25.312 25.645 0.00 0.24155 0.00
26 21 6 o 1.390 1.401 40.42 0.24145 0.00
33 8 0 o 0.031 0.031 90.00 0.24145 0.00
27 18 10 o 4.441 4.478 -60.17 0.24145 0.00
28 15 12 o 1.271 1.281 -142.72 0.24145 0.00
24 24 1 o 0.325 0.328 45.00 0.24145 0.00
33 7 4 o 0.103 0.104 -9.67 0.24134 0.00
33 8 1 o 1.341 1.348 -158.68 0.24134 0.00
23 20 15 o 1.228 1.234 56.30 0.24134 0.00
24 23 7 o 1.651 1.659 -8.32 0.24134 0.00
31 12 7 o 4.031 4.052 91.91 0.24134 0.00
32 9 7 o 0.853 0.857 133.22 0.24134 0.00
32 11 3 o 0.978 0.984 20.53 0.24134 0.00
25 23 0 o 0.033 0.034 -90.00 0.24134 0.00
28 19 3 o 2.066 2.077 -168.80 0.24134 0.00
28 17 9 o 0.028 0.028 129.25 0.24134 0.00
29 13 12 o 1.325 1.332 164.48 0.24134 0.00
24 17 17 o 0.523 0.525 90.00 0.24134 0.00
27 19 8 o 3.593 3.612 -87.88 0.24134 0.00
27 16 13 o 0.272 0.273 -162.75 0.24134 0.00
27 20 5 o 0.310 0.312 -24.99 0.24134 0.00
25 23 1 o 7.002 7.031 -134.59 0.24124 0.00
25 19 13 o 3.517 3.532 -117.16 0.24124 0.00
29 17 5 o 7.190 7.220 153.31 0.24124 0.00
31 13 5 o 5.702 5.725 -146.63 0.24124 0.00
24 24 2 o 2.604 2.616 90.00 0.24113 0.00
30 16 0 o 0.256 0.258 0.00 0.24113 0.00
24 18 16 o 0.447 0.449 94.07 0.24113 0.00
33 8 2 o 0.794 0.800 -172.07 0.24103 0.00
26 16 15 o 0.428 0.431 -75.45 0.24103 0.00
31 14 0 o 1.341 1.350 90.00 0.24103 0.00
34 1 0 o 2.761 2.780 -180.00 0.24103 0.00
28 18 7 o 1.085 1.092 -144.61 0.24103 0.00
26 20 9 o 0.737 0.742 163.12 0.24103 0.00
23 22 12 o 2.496 2.513 -71.91 0.24103 0.00
30 16 1 o 0.766 0.771 160.53 0.24103 0.00
31 14 1 o 1.821 1.839 -72.28 0.24092 0.00
23 23 10 o 8.172 8.252 -180.00 0.24092 0.00
26 19 11 o 2.312 2.335 171.57 0.24092 0.00
25 22 7 o 0.188 0.190 -41.56 0.24092 0.00
29 14 11 o 0.981 0.991 -12.66 0.24092 0.00
34 1 1 o 0.000 0.000 -180.00 0.24092 0.00
25 23 2 o 0.038 0.038 62.69 0.24092 0.00
26 22 0 o 1.069 1.088 -180.00 0.24072 0.00
34 2 0 o 0.088 0.089 -180.00 0.24072 0.00
32 10 6 o 0.806 0.820 -177.82 0.24072 0.00
24 22 10 o 0.664 0.676 -121.76 0.24072 0.00
30 16 2 o 0.098 0.099 -67.04 0.24072 0.00
30 14 8 o 0.766 0.779 -108.02 0.24072 0.00
26 17 14 o 2.045 2.090 -158.47 0.24061 0.00
24 21 12 o 0.603 0.616 -7.78 0.24061 0.00
26 22 1 o 2.681 2.739 -134.01 0.24061 0.00
31 10 10 o 3.289 3.360 135.00 0.24061 0.00
24 24 3 o 0.632 0.645 -45.00 0.24061 0.00
29 16 8 o 1.054 1.077 -19.25 0.24061 0.00
31 14 2 o 0.755 0.771 -33.55 0.24061 0.00
33 6 6 o 0.887 0.907 -135.00 0.24061 0.00
28 16 11 o 1.609 1.644 73.35 0.24061 0.00
32 11 4 o 0.116 0.119 -71.15 0.24061 0.00
20 20 19 o 0.272 0.278 -45.00 0.24061 0.00
30 15 6 o 8.419 8.601 86.89 0.24061 0.00
28 19 4 o 0.306 0.312 45.81 0.24061 0.00
34 2 1 o 8.057 8.232 0.70 0.24061 0.00
24 19 15 o 0.226 0.232 154.86 0.24051 0.00
27 17 12 o 1.041 1.067 139.62 0.24051 0.00
33 8 3 o 0.922 0.945 -25.57 0.24051 0.00
25 23 3 o 12.020 12.361 -41.39 0.24041 0.00
31 11 9 o 5.790 5.954 -34.41 0.24041 0.00
33 7 5 o 4.907 5.046 44.40 0.24041 0.00
21 19 19 o 17.549 18.046 -45.00 0.24041 0.00
34 2 2 o 21.923 22.583 -90.00 0.24030 0.00
26 22 2 o 41.630 42.882 89.88 0.24030 0.01
22 22 14 o 10.019 10.321 90.00 0.24030 0.00
34 3 0 o 3.756 3.870 -180.00 0.24020 0.00
21 20 18 o 2.293 2.363 -141.56 0.24020 0.00
27 20 6 o 1.482 1.526 -150.27 0.24020 0.00
29 18 0 o 1.444 1.488 90.00 0.24020 0.00
30 16 3 o 0.455 0.469 -171.36 0.24020 0.00
30 12 11 o 0.089 0.092 -70.26 0.24020 0.00
23 21 14 o 0.288 0.296 102.39 0.24010 0.00
29 15 10 o 1.769 1.820 -157.99 0.24010 0.00
25 21 10 o 0.423 0.435 -5.99 0.24010 0.00
34 3 1 o 0.093 0.095 -129.11 0.24010 0.00
31 13 6 o 1.197 1.231 7.36 0.24010 0.00
29 17 6 o 0.015 0.015 -1.26 0.24010 0.00
26 21 7 o 0.210 0.216 -80.27 0.24010 0.00
29 18 1 o 0.560 0.576 25.44 0.24010 0.00
31 14 3 o 2.702 2.780 -119.19 0.24010 0.00
24 24 4 o 18.670 19.039 -180.00 0.23989 0.00
32 12 0 o 21.219 21.637 180.00 0.23989 0.00
33 8 4 o 0.044 0.044 -14.82 0.23979 0.00
26 22 3 o 3.295 3.336 140.59 0.23979 0.00
24 23 8 o 1.241 1.257 -146.00 0.23979 0.00
30 13 10 o 2.855 2.890 43.38 0.23979 0.00
25 20 12 o 0.924 0.935 136.63 0.23979 0.00
34 3 2 o 10.011 10.136 -91.37 0.23979 0.00
26 18 13 o 1.495 1.514 -108.67 0.23979 0.00
31 12 8 o 1.607 1.627 -71.64 0.23979 0.00
22 19 18 o 1.722 1.743 130.72 0.23979 0.00
32 9 8 o 1.690 1.711 125.66 0.23979 0.00
32 12 1 o 0.262 0.266 -156.84 0.23979 0.00
29 18 2 o 0.749 0.758 -13.97 0.23979 0.00
33 9 0 o 0.062 0.063 -90.00 0.23969 0.00
25 23 4 o 0.218 0.219 34.84 0.23969 0.00
27 21 0 o 0.805 0.808 90.00 0.23969 0.00
25 17 16 o 0.566 0.569 11.66 0.23969 0.00
28 19 5 o 1.350 1.355 28.84 0.23969 0.00
32 11 5 o 1.547 1.553 -148.01 0.23969 0.00
27 19 9 o 3.153 3.136 156.59 0.23958 0.00
21 21 17 o 2.255 2.242 135.00 0.23958 0.00
27 21 1 o 5.924 5.890 -144.06 0.23958 0.00
33 9 1 o 7.611 7.569 144.14 0.23958 0.00
34 4 0 o 0.001 0.001 180.00 0.23948 0.00
32 12 2 o 0.158 0.155 135.11 0.23948 0.00
28 18 8 o 0.008 0.008 131.23 0.23948 0.00
24 20 14 o 0.942 0.927 77.39 0.23948 0.00
30 16 4 o 0.588 0.579 128.35 0.23948 0.00
22 20 17 o 1.356 1.323 35.30 0.23938 0.00
31 14 4 o 1.172 1.143 -77.48 0.23938 0.00
34 4 1 o 2.165 2.112 -97.54 0.23938 0.00
32 10 7 o 0.291 0.283 46.21 0.23938 0.00
28 17 10 o 0.785 0.765 -115.74 0.23938 0.00
25 22 8 o 1.668 1.626 129.98 0.23938 0.00
34 3 3 o 0.034 0.033 -180.00 0.23928 0.00
27 18 11 o 3.775 3.647 -138.35 0.23928 0.00
30 15 7 o 0.309 0.298 17.99 0.23928 0.00
33 7 6 o 2.780 2.686 176.79 0.23928 0.00
29 18 3 o 0.631 0.610 166.33 0.23928 0.00
27 21 2 o 0.737 0.712 6.83 0.23928 0.00
33 9 2 o 1.283 1.239 -6.43 0.23928 0.00
25 18 15 o 0.047 0.045 99.83 0.23928 0.00
26 20 10 o 0.073 0.069 79.69 0.23907 0.00
26 22 4 o 0.969 0.921 -9.24 0.23907 0.00
34 4 2 o 0.395 0.376 -65.86 0.23907 0.00
28 14 14 o 1.397 1.328 180.00 0.23907 0.00
24 24 5 o 0.352 0.332 -135.00 0.23897 0.00
30 14 9 o 2.422 2.286 58.51 0.23897 0.00
32 12 3 o 0.357 0.337 90.46 0.23897 0.00
23 18 18 o 2.858 2.697 135.00 0.23897 0.00
29 16 9 o 3.244 3.044 23.40 0.23887 0.00
27 20 7 o 1.824 1.711 -135.40 0.23887 0.00
28 15 13 o 1.522 1.428 -105.51 0.23887 0.00
33 8 5 o 1.353 1.269 19.99 0.23887 0.00
23 19 17 o 9.151 8.547 -39.26 0.23877 0.00
25 23 5 o 3.491 3.261 53.37 0.23877 0.00
27 21 3 o 10.570 9.872 -42.52 0.23877 0.00
29 17 7 o 13.581 12.685 31.25 0.23877 0.00
31 13 7 o 9.454 8.830 -44.22 0.23877 0.00
33 9 3 o 7.943 7.419 36.51 0.23877 0.00
27 15 15 o 9.794 9.147 45.00 0.23877 0.00
29 13 13 o 4.334 4.048 -45.00 0.23877 0.00
23 23 11 o 9.884 9.232 45.00 0.23877 0.00
26 19 12 o 1.168 1.087 162.40 0.23857 0.00
29 14 12 o 0.909 0.845 -172.34 0.23857 0.00
26 21 8 o 1.580 1.470 147.60 0.23857 0.00
22 21 16 o 1.457 1.355 -108.71 0.23857 0.00
32 11 6 o 0.350 0.325 71.57 0.23857 0.00
27 16 14 o 0.999 0.929 111.76 0.23857 0.00
24 22 11 o 0.217 0.202 58.22 0.23857 0.00
28 19 6 o 1.972 1.834 -103.52 0.23857 0.00
29 18 4 o 1.483 1.380 -66.13 0.23857 0.00
34 5 0 o 1.172 1.090 0.00 0.23857 0.00
30 16 5 o 1.094 1.018 -29.50 0.23857 0.00
34 4 3 o 3.108 2.891 94.66 0.23857 0.00
31 11 10 o 4.142 3.857 -27.84 0.23847 0.00
34 5 1 o 0.253 0.236 -51.92 0.23847 0.00
31 14 5 o 0.826 0.769 94.66 0.23847 0.00
25 19 14 o 0.422 0.393 61.39 0.23847 0.00
23 22 13 o 0.034 0.031 20.93 0.23847 0.00
32 12 4 o 23.069 21.665 0.38 0.23826 0.00
28 20 0 o 16.408 15.409 0.00 0.23826 0.00
28 16 12 o 37.443 35.164 0.35 0.23826 0.01
28 20 1 o 0.514 0.486 61.54 0.23816 0.00
26 22 5 o 1.681 1.590 53.88 0.23816 0.00
34 5 2 o 6.788 6.420 -93.69 0.23816 0.00
23 20 16 o 0.309 0.293 -103.77 0.23816 0.00
24 21 13 o 0.410 0.391 27.98 0.23806 0.00
32 9 9 o 0.188 0.180 -90.00 0.23806 0.00
33 9 4 o 0.281 0.268 149.64 0.23806 0.00
31 15 0 o 8.091 7.719 -90.00 0.23806 0.00
27 21 4 o 1.007 0.961 -62.22 0.23806 0.00
24 23 9 o 0.748 0.714 -125.57 0.23806 0.00
31 12 9 o 0.349 0.333 63.97 0.23806 0.00
27 17 13 o 0.261 0.252 -166.26 0.23796 0.00
25 21 11 o 13.278 12.794 -140.88 0.23796 0.00
33 7 7 o 5.911 5.695 135.00 0.23796 0.00
29 15 11 o 22.307 21.493 138.02 0.23796 0.00
31 15 1 o 4.912 4.733 158.95 0.23796 0.00
34 4 4 o 0.114 0.111 90.00 0.23786 0.00
24 24 6 o 2.242 2.183 -90.00 0.23786 0.00
26 16 16 o 1.300 1.266 90.00 0.23786 0.00
28 20 2 o 1.437 1.400 82.87 0.23786 0.00
32 10 8 o 0.964 0.939 -156.89 0.23786 0.00
30 12 12 o 1.792 1.745 -90.00 0.23786 0.00
30 15 8 o 0.077 0.075 -143.75 0.23776 0.00
24 18 17 o 1.629 1.604 -149.07 0.23776 0.00
28 18 9 o 0.252 0.248 4.50 0.23776 0.00
30 17 0 o 1.389 1.368 -180.00 0.23776 0.00
33 10 0 o 0.012 0.012 90.00 0.23776 0.00
33 8 6 o 0.496 0.489 29.07 0.23776 0.00
27 19 10 o 6.569 6.541 173.44 0.23766 0.00
30 17 1 o 2.606 2.595 -48.92 0.23766 0.00
31 15 2 o 5.808 5.783 177.93 0.23766 0.00
33 10 1 o 0.208 0.207 116.02 0.23766 0.00
25 22 9 o 1.887 1.879 48.11 0.23766 0.00
30 13 11 o 1.045 1.041 -14.83 0.23766 0.00
34 5 3 o 0.344 0.343 104.01 0.23766 0.00
25 23 6 o 0.267 0.266 -105.41 0.23766 0.00
29 18 5 o 0.443 0.441 -133.21 0.23766 0.00
26 17 15 o 1.150 1.145 -171.44 0.23766 0.00
34 6 0 o 0.454 0.462 0.00 0.23746 0.00
30 16 6 o 0.284 0.290 134.23 0.23746 0.00
31 14 6 o 2.418 2.489 126.81 0.23736 0.00
33 10 2 o 1.431 1.473 -175.39 0.23736 0.00
32 12 5 o 0.910 0.937 -9.25 0.23736 0.00
32 13 0 o 0.909 0.936 0.00 0.23736 0.00
27 20 8 o 1.529 1.574 68.79 0.23736 0.00
28 20 3 o 1.004 1.034 -77.87 0.23736 0.00
22 22 15 o 1.698 1.748 135.00 0.23736 0.00
30 17 2 o 2.866 2.951 -100.07 0.23736 0.00
34 6 1 o 5.972 6.148 -176.65 0.23736 0.00
24 19 16 o 0.903 0.930 13.37 0.23736 0.00
32 13 1 o 0.151 0.157 92.57 0.23726 0.00
28 17 11 o 0.209 0.217 102.50 0.23726 0.00
29 17 8 o 0.159 0.165 -157.95 0.23726 0.00
25 20 13 o 1.140 1.186 -175.68 0.23726 0.00
28 19 7 o 1.592 1.656 13.39 0.23726 0.00
31 13 8 o 1.626 1.691 -69.09 0.23726 0.00
32 11 7 o 0.649 0.675 -128.47 0.23726 0.00
33 9 5 o 6.517 6.845 -38.56 0.23717 0.00
31 15 3 o 5.228 5.492 23.76 0.23717 0.00
23 21 15 o 15.779 16.574 -50.97 0.23717 0.00
27 21 5 o 2.392 2.513 25.74 0.23717 0.00
26 22 6 o 30.500 32.319 -90.33 0.23707 0.00
26 18 14 o 12.029 12.746 89.60 0.23707 0.00
30 14 10 o 25.024 26.516 -90.44 0.23707 0.00
34 6 2 o 22.668 24.020 89.97 0.23707 0.00
32 13 2 o 0.466 0.497 96.24 0.23697 0.00
29 16 10 o 1.089 1.162 36.64 0.23697 0.00
34 5 4 o 0.686 0.732 -167.31 0.23697 0.00
26 20 11 o 0.020 0.021 -90.72 0.23697 0.00
27 18 12 o 1.475 1.574 -60.60 0.23697 0.00
26 21 9 o 3.094 3.321 -37.28 0.23687 0.00
33 10 3 o 0.701 0.752 19.92 0.23687 0.00
30 17 3 o 1.076 1.155 71.45 0.23687 0.00
20 20 20 o 62.952 67.811 -180.00 0.23667 0.00
28 20 4 o 16.610 17.892 -179.41 0.23667 0.00
34 6 3 o 7.471 8.028 -175.57 0.23657 0.00
24 20 15 o 1.076 1.157 -71.11 0.23657 0.00
29 18 6 o 0.571 0.614 134.95 0.23657 0.00
25 24 0 o 0.725 0.779 90.00 0.23657 0.00
24 24 7 o 1.143 1.228 135.00 0.23657 0.00
29 19 0 o 0.022 0.024 90.00 0.23647 0.00
25 24 1 o 2.773 2.965 -114.53 0.23647 0.00
32 13 3 o 0.027 0.029 -168.43 0.23647 0.00
21 20 19 o 0.250 0.267 -20.29 0.23647 0.00
33 8 7 o 0.466 0.498 138.84 0.23647 0.00
23 23 12 o 1.855 1.983 90.00 0.23647 0.00
31 15 4 o 6.635 7.094 89.36 0.23647 0.00
25 23 7 o 16.418 17.417 140.20 0.23638 0.00
29 19 1 o 6.956 7.379 -141.82 0.23638 0.00
31 11 11 o 6.012 6.378 -135.00 0.23638 0.00
25 17 17 o 2.497 2.649 135.00 0.23638 0.00
32 12 6 o 0.547 0.574 -18.26 0.23628 0.00
24 22 12 o 0.365 0.384 39.54 0.23628 0.00
24 23 10 o 1.066 1.107 46.78 0.23618 0.00
26 23 0 o 1.110 1.153 -180.00 0.23618 0.00
33 10 4 o 0.116 0.120 -155.77 0.23618 0.00
25 18 16 o 1.465 1.521 29.04 0.23618 0.00
31 12 10 o 0.457 0.474 -73.50 0.23618 0.00
28 15 14 o 0.723 0.751 45.64 0.23618 0.00
34 7 0 o 3.231 3.356 0.00 0.23618 0.00
32 10 9 o 0.113 0.117 -12.99 0.23618 0.00
30 17 4 o 1.181 1.227 -10.98 0.23618 0.00
25 24 2 o 2.105 2.187 -175.61 0.23618 0.00
30 16 7 o 0.162 0.169 -4.01 0.23618 0.00
33 9 6 o 0.901 0.924 165.34 0.23608 0.00
22 19 19 o 5.675 5.822 0.00 0.23608 0.00
26 19 13 o 0.476 0.489 -20.87 0.23608 0.00
30 15 9 o 0.630 0.646 171.32 0.23608 0.00
31 14 7 o 3.206 3.289 48.16 0.23608 0.00
29 14 13 o 0.092 0.094 102.18 0.23608 0.00
26 23 1 o 0.126 0.130 -175.73 0.23608 0.00
34 5 5 o 0.543 0.557 180.00 0.23608 0.00
27 21 6 o 0.400 0.411 -152.06 0.23608 0.00
34 7 1 o 0.123 0.126 45.13 0.23608 0.00
29 19 2 o 1.415 1.451 8.68 0.23608 0.00
21 21 18 o 0.626 0.642 -180.00 0.23608 0.00
22 20 18 o 0.150 0.150 -4.26 0.23589 0.00
34 6 4 o 0.768 0.768 -140.53 0.23589 0.00
28 18 10 o 0.856 0.857 -148.61 0.23589 0.00
32 11 8 o 0.377 0.373 46.75 0.23579 0.00
32 13 4 o 1.088 1.076 146.08 0.23579 0.00
28 20 5 o 0.482 0.477 -147.74 0.23579 0.00
26 22 7 o 3.265 3.228 -34.21 0.23579 0.00
23 22 14 o 2.786 2.755 125.54 0.23579 0.00
28 16 13 o 1.097 1.084 9.24 0.23579 0.00
25 22 10 o 1.143 1.130 -99.90 0.23579 0.00
26 23 2 o 2.266 2.241 102.44 0.23579 0.00
34 7 2 o 11.326 11.198 86.63 0.23579 0.00
28 19 8 o 0.699 0.691 -138.08 0.23579 0.00
33 11 0 o 0.076 0.074 -90.00 0.23569 0.00
25 24 3 o 3.351 3.279 -72.00 0.23569 0.00
29 15 12 o 1.627 1.592 -115.20 0.23569 0.00
25 21 12 o 0.161 0.158 58.50 0.23569 0.00
27 20 9 o 0.268 0.262 147.16 0.23569 0.00
27 16 15 o 3.041 2.976 73.10 0.23569 0.00
31 15 5 o 4.001 3.880 -21.76 0.23559 0.00
25 19 15 o 24.652 23.909 -42.34 0.23559 0.00
31 13 9 o 2.572 2.495 35.02 0.23559 0.00
33 11 1 o 4.836 4.690 34.58 0.23559 0.00
29 19 3 o 12.134 11.769 -36.91 0.23559 0.00
27 19 11 o 8.330 8.079 37.15 0.23559 0.00
29 17 9 o 4.861 4.714 -29.46 0.23559 0.00
24 21 14 o 2.592 2.482 65.47 0.23540 0.00
27 22 0 o 1.905 1.824 -90.00 0.23540 0.00
30 13 12 o 0.709 0.679 125.52 0.23540 0.00
26 23 3 o 0.020 0.019 -82.04 0.23530 0.00
23 19 18 o 5.785 5.519 -8.12 0.23530 0.00
27 17 14 o 0.194 0.185 124.38 0.23530 0.00
30 17 5 o 3.727 3.555 142.87 0.23530 0.00
34 7 3 o 0.014 0.013 -30.47 0.23530 0.00
29 18 7 o 0.488 0.466 -14.63 0.23530 0.00
22 21 17 o 1.203 1.148 160.89 0.23530 0.00
33 10 5 o 0.244 0.233 -138.26 0.23530 0.00
27 22 1 o 0.651 0.621 54.80 0.23530 0.00
33 11 2 o 4.613 4.400 -178.16 0.23530 0.00
24 24 8 o 27.803 26.422 0.00 0.23511 0.00
34 6 5 o 4.864 4.620 10.98 0.23501 0.00
25 24 4 o 1.118 1.062 -59.86 0.23501 0.00
27 22 2 o 1.017 0.966 149.00 0.23501 0.00
31 16 0 o 3.582 3.403 90.00 0.23501 0.00
30 14 11 o 5.811 5.520 3.77 0.23501 0.00
26 21 10 o 1.609 1.528 -152.60 0.23501 0.00
32 12 7 o 0.918 0.872 -105.98 0.23501 0.00
33 8 8 o 0.139 0.132 -135.00 0.23501 0.00
28 17 12 o 0.527 0.501 70.09 0.23501 0.00
29 16 11 o 3.811 3.622 112.48 0.23492 0.00
29 19 4 o 0.042 0.040 5.28 0.23492 0.00
23 20 17 o 0.303 0.288 -36.14 0.23492 0.00
32 13 5 o 0.339 0.322 -96.80 0.23492 0.00
31 16 1 o 0.429 0.408 108.72 0.23492 0.00
25 23 8 o 0.655 0.623 -143.96 0.23492 0.00
33 9 7 o 7.215 6.864 -140.48 0.23482 0.00
27 21 7 o 13.365 12.715 132.91 0.23482 0.00
33 11 3 o 6.126 5.828 144.64 0.23482 0.00
28 20 6 o 1.361 1.297 -109.71 0.23472 0.00
32 14 0 o 0.298 0.284 0.00 0.23472 0.00
34 8 0 o 0.006 0.005 0.00 0.23472 0.00
26 20 12 o 0.943 0.898 125.59 0.23472 0.00
30 16 8 o 1.075 1.024 -68.76 0.23472 0.00
25 20 14 o 2.429 2.319 -148.23 0.23463 0.00
34 7 4 o 2.793 2.666 178.88 0.23463 0.00
32 14 1 o 0.394 0.376 -39.94 0.23463 0.00
26 23 4 o 1.191 1.137 -8.26 0.23463 0.00
34 8 1 o 0.796 0.760 65.31 0.23463 0.00
31 16 2 o 0.413 0.394 19.24 0.23463 0.00
31 14 8 o 0.786 0.750 120.86 0.23463 0.00
26 17 16 o 0.960 0.916 -87.78 0.23463 0.00
27 18 13 o 0.500 0.478 27.08 0.23453 0.00
31 15 6 o 5.264 5.035 -6.94 0.23453 0.00
27 22 3 o 0.770 0.737 85.84 0.23453 0.00
22 22 16 o 0.207 0.199 0.00 0.23434 0.00
24 18 18 o 0.336 0.323 0.00 0.23434 0.00
32 14 2 o 0.104 0.100 -161.06 0.23434 0.00
34 8 2 o 0.842 0.809 105.87 0.23434 0.00
26 22 8 o 0.746 0.716 162.73 0.23434 0.00
32 10 10 o 1.147 1.102 0.00 0.23434 0.00
30 18 0 o 0.103 0.099 180.00 0.23434 0.00
28 21 0 o 0.057 0.054 0.00 0.23424 0.00
26 18 15 o 2.339 2.252 162.48 0.23424 0.00
30 15 10 o 6.414 6.174 -93.48 0.23424 0.00
30 18 1 o 2.096 2.018 -140.62 0.23424 0.00
33 10 6 o 0.826 0.796 16.47 0.23424 0.00
30 17 6 o 2.589 2.492 61.41 0.23424 0.00
31 16 3 o 1.356 1.308 75.66 0.23415 0.00
28 19 9 o 1.394 1.344 -123.24 0.23415 0.00
31 12 11 o 5.400 5.209 -93.11 0.23415 0.00
32 11 9 o 1.515 1.461 49.09 0.23415 0.00
28 21 1 o 1.363 1.314 -88.81 0.23415 0.00
24 23 11 o 1.518 1.465 153.91 0.23415 0.00
24 19 17 o 0.586 0.565 73.97 0.23415 0.00
33 11 4 o 0.017 0.016 159.57 0.23415 0.00
35 1 0 o 0.692 0.667 90.00 0.23415 0.00
25 24 5 o 1.975 1.905 53.43 0.23415 0.00
23 21 16 o 0.698 0.674 -25.90 0.23415 0.00
23 23 13 o 3.307 3.195 -45.00 0.23405 0.00
29 19 5 o 4.642 4.485 43.46 0.23405 0.00
35 1 1 o 11.330 10.947 45.00 0.23405 0.00
34 6 6 o 25.189 24.372 -90.00 0.23396 0.00
30 18 2 o 38.796 37.536 89.73 0.23396 0.01
29 18 8 o 1.095 1.060 141.83 0.23386 0.00
27 22 4 o 1.763 1.707 96.47 0.23386 0.00
34 8 3 o 1.249 1.209 -76.07 0.23386 0.00
35 2 0 o 2.071 2.005 90.00 0.23386 0.00
28 21 2 o 0.790 0.765 81.69 0.23386 0.00
28 18 11 o 0.897 0.868 38.83 0.23386 0.00
32 13 6 o 0.275 0.267 -61.66 0.23386 0.00
24 22 13 o 0.574 0.556 -127.76 0.23386 0.00
27 20 10 o 0.971 0.940 58.71 0.23386 0.00
32 14 3 o 0.718 0.695 33.46 0.23386 0.00
31 13 10 o 0.204 0.198 -156.97 0.23377 0.00
29 17 10 o 0.019 0.018 -79.15 0.23377 0.00
25 22 11 o 0.024 0.023 44.13 0.23377 0.00
34 7 5 o 0.440 0.426 -128.67 0.23377 0.00
35 2 1 o 4.828 4.676 -4.37 0.23377 0.00
26 23 5 o 0.177 0.172 20.57 0.23377 0.00
24 20 16 o 56.765 54.876 -179.92 0.23358 0.01
32 12 8 o 23.347 22.569 -179.60 0.23358 0.00
29 14 14 o 0.262 0.253 -135.00 0.23348 0.00
31 16 4 o 2.897 2.795 -92.23 0.23348 0.00
24 24 9 o 0.564 0.544 45.00 0.23348 0.00
26 19 14 o 2.293 2.212 115.49 0.23348 0.00
33 12 0 o 0.130 0.126 -90.00 0.23348 0.00
30 18 3 o 2.873 2.772 158.14 0.23348 0.00
35 2 2 o 0.040 0.039 -45.00 0.23348 0.00
28 20 7 o 1.842 1.777 100.23 0.23348 0.00
28 21 3 o 1.181 1.137 90.44 0.23339 0.00
35 3 0 o 3.882 3.735 -90.00 0.23339 0.00
27 21 8 o 1.190 1.145 135.25 0.23339 0.00
28 15 15 o 0.046 0.044 -90.00 0.23339 0.00
33 12 1 o 2.160 2.078 29.97 0.23339 0.00
27 19 12 o 2.976 2.863 97.26 0.23339 0.00
33 9 8 o 0.803 0.773 -25.21 0.23339 0.00
29 15 13 o 6.834 6.553 -123.11 0.23329 0.00
25 21 13 o 3.106 2.978 140.63 0.23329 0.00
25 23 9 o 1.845 1.769 -116.34 0.23329 0.00
35 3 1 o 9.161 8.785 134.69 0.23329 0.00
31 15 7 o 6.163 5.910 -150.45 0.23329 0.00
33 11 5 o 5.036 4.830 -140.25 0.23329 0.00
32 14 4 o 0.393 0.376 -158.57 0.23320 0.00
34 8 4 o 0.297 0.284 -95.33 0.23320 0.00
28 16 14 o 0.463 0.442 33.29 0.23320 0.00
30 16 9 o 1.014 0.965 147.22 0.23310 0.00
34 9 0 o 0.051 0.049 180.00 0.23310 0.00
25 24 6 o 2.206 2.099 11.73 0.23310 0.00
33 12 2 o 0.615 0.585 8.87 0.23310 0.00
34 9 1 o 0.899 0.852 124.56 0.23301 0.00
27 22 5 o 0.683 0.647 -150.79 0.23301 0.00
30 17 7 o 0.607 0.576 -59.95 0.23301 0.00
35 3 2 o 4.712 4.466 175.16 0.23301 0.00
31 14 9 o 0.227 0.215 -106.87 0.23301 0.00
30 13 13 o 3.582 3.395 0.00 0.23301 0.00
25 18 17 o 0.536 0.508 -140.33 0.23301 0.00
33 10 7 o 1.569 1.487 -176.74 0.23301 0.00
29 19 6 o 1.383 1.311 -153.29 0.23301 0.00
26 21 11 o 0.427 0.405 171.49 0.23301 0.00
23 22 15 o 4.618 4.377 15.82 0.23301 0.00
30 18 4 o 0.238 0.223 -56.45 0.23282 0.00
30 14 12 o 0.807 0.759 73.62 0.23282 0.00
34 7 6 o 10.034 9.400 -98.75 0.23273 0.00
27 16 16 o 0.084 0.079 -45.00 0.23273 0.00
28 21 4 o 0.106 0.099 165.52 0.23273 0.00
29 20 0 o 0.858 0.804 90.00 0.23273 0.00
35 4 0 o 0.706 0.661 90.00 0.23273 0.00
29 16 12 o 0.735 0.689 -178.67 0.23273 0.00
26 22 9 o 0.732 0.685 -115.77 0.23273 0.00
21 20 20 o 0.844 0.791 -135.00 0.23273 0.00
34 9 2 o 5.342 5.005 84.92 0.23273 0.00
26 23 6 o 2.756 2.582 -56.70 0.23273 0.00
35 4 1 o 0.811 0.758 75.81 0.23263 0.00
33 12 3 o 1.921 1.795 137.50 0.23263 0.00
28 17 13 o 0.049 0.046 68.25 0.23263 0.00
31 16 5 o 0.101 0.095 -35.14 0.23263 0.00
32 13 7 o 0.328 0.307 -52.16 0.23263 0.00
25 19 16 o 1.339 1.251 53.38 0.23263 0.00
29 20 1 o 4.402 4.112 -128.39 0.23263 0.00
24 21 15 o 0.069 0.064 23.65 0.23263 0.00
21 21 19 o 4.087 3.809 45.00 0.23254 0.00
27 17 15 o 8.807 8.208 -55.39 0.23254 0.00
35 3 3 o 7.453 6.946 45.00 0.23254 0.00
22 20 19 o 0.986 0.918 127.38 0.23235 0.00
32 11 10 o 0.638 0.594 -112.73 0.23235 0.00
32 14 5 o 0.117 0.109 146.33 0.23235 0.00
35 4 2 o 1.671 1.555 177.21 0.23235 0.00
26 20 13 o 0.800 0.744 -3.38 0.23235 0.00
29 20 2 o 1.487 1.384 -174.88 0.23235 0.00
28 19 10 o 1.062 0.988 62.15 0.23235 0.00
34 8 5 o 0.287 0.267 -133.78 0.23235 0.00
33 11 6 o 3.448 3.212 4.88 0.23226 0.00
34 9 3 o 0.800 0.745 -86.44 0.23226 0.00
29 18 9 o 0.481 0.448 70.18 0.23226 0.00
30 15 11 o 0.854 0.796 -175.08 0.23226 0.00
28 20 8 o 25.160 23.617 0.77 0.23207 0.00
22 21 18 o 0.914 0.864 28.89 0.23198 0.00
31 12 12 o 0.611 0.577 135.00 0.23198 0.00
32 15 0 o 0.018 0.017 0.00 0.23198 0.00
32 12 9 o 1.758 1.661 167.50 0.23198 0.00
27 18 14 o 4.636 4.382 125.48 0.23198 0.00
33 12 4 o 0.247 0.234 151.81 0.23198 0.00
27 22 6 o 2.738 2.588 -57.91 0.23198 0.00
30 18 5 o 1.411 1.334 58.79 0.23198 0.00
24 23 12 o 1.069 1.010 26.58 0.23198 0.00
35 4 3 o 3.691 3.520 97.55 0.23189 0.00
35 5 0 o 0.077 0.073 90.00 0.23189 0.00
31 15 8 o 6.229 5.939 -88.87 0.23189 0.00
32 15 1 o 1.808 1.724 -171.70 0.23189 0.00
25 20 15 o 1.610 1.535 -65.03 0.23189 0.00
25 24 7 o 2.761 2.633 104.03 0.23189 0.00
25 25 0 o 1.501 1.431 90.00 0.23189 0.00
28 21 5 o 0.817 0.779 96.78 0.23189 0.00
29 20 3 o 4.770 4.548 -61.22 0.23189 0.00
31 17 0 o 2.269 2.164 90.00 0.23189 0.00
27 20 11 o 2.510 2.394 53.34 0.23189 0.00
29 17 11 o 10.908 10.516 -147.38 0.23180 0.00
23 19 19 o 8.353 8.053 -135.00 0.23180 0.00
27 21 9 o 0.968 0.933 -167.41 0.23180 0.00
29 19 7 o 17.270 16.649 141.90 0.23180 0.00
31 13 11 o 6.599 6.362 129.03 0.23180 0.00
31 17 1 o 6.225 6.002 -148.98 0.23180 0.00
35 5 1 o 11.751 11.329 -137.87 0.23180 0.00
33 9 9 o 6.292 6.066 135.00 0.23180 0.00
25 25 1 o 7.113 6.857 135.00 0.23180 0.00
26 24 0 o 1.165 1.137 -180.00 0.23170 0.00
24 24 10 o 1.542 1.506 90.00 0.23170 0.00
28 18 12 o 0.019 0.018 170.19 0.23170 0.00
34 9 4 o 0.041 0.041 43.58 0.23161 0.00
32 15 2 o 1.118 1.108 88.42 0.23161 0.00
25 22 12 o 1.088 1.079 -15.19 0.23161 0.00
31 16 6 o 0.482 0.478 -127.28 0.23161 0.00
23 20 18 o 1.094 1.084 -52.54 0.23161 0.00
30 17 8 o 0.804 0.797 153.02 0.23161 0.00
26 24 1 o 0.124 0.123 -4.32 0.23161 0.00
33 10 8 o 0.316 0.313 20.77 0.23161 0.00
23 23 14 o 5.725 5.764 0.00 0.23152 0.00
25 25 2 o 0.912 0.918 180.00 0.23152 0.00
31 17 2 o 1.743 1.754 -0.30 0.23152 0.00
34 7 7 o 0.000 0.000 0.00 0.23152 0.00
25 23 10 o 0.376 0.379 73.68 0.23152 0.00
26 17 17 o 1.721 1.732 -180.00 0.23152 0.00
35 5 2 o 4.330 4.359 1.87 0.23152 0.00
26 23 7 o 0.440 0.442 157.60 0.23152 0.00
34 8 6 o 1.038 1.081 -57.19 0.23133 0.00
24 22 14 o 0.211 0.220 54.01 0.23133 0.00
34 10 0 o 0.551 0.574 -180.00 0.23133 0.00
26 24 2 o 0.736 0.767 -94.05 0.23133 0.00
26 18 16 o 0.134 0.140 -62.96 0.23133 0.00
32 14 6 o 0.496 0.516 7.94 0.23133 0.00
30 16 10 o 0.405 0.422 -51.34 0.23133 0.00
29 20 4 o 1.151 1.220 -49.57 0.23124 0.00
34 10 1 o 3.220 3.414 6.81 0.23124 0.00
22 22 17 o 0.396 0.419 45.00 0.23124 0.00
32 13 8 o 1.258 1.334 -62.10 0.23124 0.00
35 4 4 o 0.987 1.046 -45.00 0.23124 0.00
31 14 10 o 4.093 4.338 -52.23 0.23124 0.00
33 13 0 o 0.016 0.017 90.00 0.23115 0.00
33 12 5 o 1.762 1.900 -154.79 0.23115 0.00
32 15 3 o 1.428 1.539 -170.02 0.23115 0.00
27 23 0 o 1.739 1.875 90.00 0.23115 0.00
33 13 1 o 7.232 7.925 -30.78 0.23106 0.00
23 21 17 o 0.761 0.833 29.22 0.23106 0.00
27 23 1 o 3.261 3.573 -32.65 0.23106 0.00
27 19 13 o 3.357 3.678 -29.09 0.23106 0.00
31 17 3 o 7.251 7.945 -36.41 0.23106 0.00
35 5 3 o 8.468 9.279 -41.73 0.23106 0.00
25 25 3 o 8.378 9.181 45.00 0.23106 0.00
33 11 7 o 7.174 7.860 -40.03 0.23106 0.00
34 10 2 o 23.223 25.827 -90.14 0.23097 0.00
30 18 6 o 27.092 30.131 -90.74 0.23097 0.00
26 22 10 o 16.758 18.638 89.50 0.23097 0.00
26 21 12 o 0.770 0.867 -64.09 0.23088 0.00
26 24 3 o 0.067 0.075 -45.80 0.23088 0.00
30 19 0 o 0.000 0.000 0.00 0.23088 0.00
24 19 18 o 0.513 0.578 166.86 0.23088 0.00
35 6 0 o 1.352 1.524 -90.00 0.23088 0.00
28 21 6 o 0.801 0.903 -109.54 0.23088 0.00
25 21 14 o 0.364 0.415 166.42 0.23078 0.00
33 13 2 o 0.716 0.816 177.22 0.23078 0.00
27 23 2 o 10.159 11.581 0.06 0.23078 0.00
35 6 1 o 3.302 3.764 167.78 0.23078 0.00
27 22 7 o 1.121 1.278 -126.77 0.23078 0.00
26 19 15 o 3.280 3.739 -4.15 0.23078 0.00
30 19 1 o 0.165 0.188 -103.82 0.23078 0.00
29 15 14 o 0.572 0.652 33.23 0.23078 0.00
34 9 5 o 1.113 1.268 -22.82 0.23078 0.00
28 16 15 o 1.450 1.689 -95.04 0.23051 0.00
24 20 17 o 1.070 1.246 -136.45 0.23051 0.00
34 10 3 o 4.362 5.079 5.05 0.23051 0.00
30 14 13 o 1.212 1.411 -115.75 0.23051 0.00
25 24 8 o 1.195 1.391 129.79 0.23051 0.00
32 15 4 o 0.055 0.064 78.06 0.23051 0.00
29 18 10 o 0.451 0.525 -81.55 0.23051 0.00
28 20 9 o 0.664 0.773 20.48 0.23051 0.00
30 19 2 o 4.978 5.797 91.45 0.23051 0.00
35 6 2 o 0.157 0.183 152.46 0.23051 0.00
32 11 11 o 0.278 0.324 90.00 0.23042 0.00
28 19 11 o 0.677 0.791 -178.98 0.23042 0.00
29 16 13 o 1.183 1.380 -159.26 0.23042 0.00
35 5 4 o 0.042 0.049 -113.65 0.23042 0.00
31 16 7 o 2.303 2.688 -104.51 0.23042 0.00
29 19 8 o 0.277 0.324 -125.92 0.23042 0.00
25 25 4 o 0.943 1.101 -90.00 0.23042 0.00
29 20 5 o 2.669 3.116 40.42 0.23042 0.00
31 17 4 o 1.710 1.996 -73.74 0.23042 0.00
33 13 3 o 7.409 8.651 -147.47 0.23033 0.00
31 15 9 o 3.165 3.696 153.39 0.23033 0.00
27 23 3 o 4.322 5.046 -145.37 0.23033 0.00
26 24 4 o 0.868 1.011 -4.77 0.23024 0.00
28 22 0 o 0.475 0.554 0.00 0.23024 0.00
32 12 10 o 0.676 0.787 167.76 0.23024 0.00
26 23 8 o 0.939 1.091 164.46 0.23015 0.00
34 8 7 o 1.017 1.181 94.50 0.23015 0.00
23 22 16 o 1.376 1.598 117.50 0.23015 0.00
28 22 1 o 0.411 0.477 167.82 0.23015 0.00
32 14 7 o 0.813 0.944 -152.55 0.23015 0.00
30 15 12 o 0.025 0.029 91.76 0.23015 0.00
33 12 6 o 0.377 0.438 -146.99 0.23015 0.00
28 17 14 o 0.774 0.899 60.00 0.23015 0.00
35 6 3 o 3.467 4.005 14.81 0.23006 0.00
33 10 9 o 0.375 0.433 13.26 0.23006 0.00
30 19 3 o 0.113 0.130 88.11 0.23006 0.00
27 21 10 o 0.125 0.144 62.80 0.23006 0.00
30 17 9 o 2.763 3.192 -28.02 0.23006 0.00
28 22 2 o 0.582 0.664 86.56 0.22987 0.00
26 20 14 o 0.007 0.008 -158.51 0.22987 0.00
34 10 4 o 0.679 0.774 37.29 0.22987 0.00
34 9 6 o 3.190 3.607 -106.55 0.22978 0.00
24 21 16 o 0.717 0.811 -162.00 0.22978 0.00
30 18 7 o 2.974 3.363 -10.13 0.22978 0.00
25 18 18 o 0.759 0.859 45.00 0.22978 0.00
27 20 12 o 0.654 0.739 -112.26 0.22978 0.00
24 24 11 o 1.766 1.997 -45.00 0.22978 0.00
35 7 0 o 6.227 6.985 90.00 0.22969 0.00
27 23 4 o 1.669 1.872 -88.90 0.22969 0.00
28 21 7 o 0.435 0.488 -89.49 0.22969 0.00
32 13 9 o 0.245 0.275 83.77 0.22969 0.00
33 11 8 o 0.251 0.281 67.20 0.22969 0.00
27 17 16 o 0.454 0.510 -16.48 0.22969 0.00
31 13 12 o 0.656 0.736 130.50 0.22969 0.00
33 13 4 o 0.074 0.084 -42.97 0.22969 0.00
29 17 12 o 0.245 0.275 -13.92 0.22969 0.00
32 15 5 o 1.538 1.725 29.73 0.22969 0.00
24 23 13 o 0.638 0.715 68.06 0.22969 0.00
31 17 5 o 2.878 3.203 25.57 0.22960 0.00
25 19 17 o 3.489 3.883 58.72 0.22960 0.00
25 23 11 o 16.655 18.533 -39.57 0.22960 0.00
35 7 1 o 5.184 5.769 -41.97 0.22960 0.00
25 25 5 o 4.093 4.554 -45.00 0.22960 0.00
35 5 5 o 9.517 10.590 45.00 0.22960 0.00
30 16 11 o 0.012 0.013 176.23 0.22942 0.00
35 6 4 o 1.096 1.201 98.10 0.22942 0.00
29 20 6 o 1.130 1.238 14.95 0.22942 0.00
28 22 3 o 0.776 0.850 -162.14 0.22942 0.00
27 22 8 o 1.303 1.428 -76.00 0.22942 0.00
30 19 4 o 0.028 0.030 -84.58 0.22942 0.00
34 11 0 o 1.952 2.138 -180.00 0.22942 0.00
28 18 13 o 0.411 0.450 -151.39 0.22942 0.00
26 24 5 o 0.227 0.249 159.64 0.22942 0.00
25 22 13 o 1.060 1.153 -126.40 0.22933 0.00
27 18 15 o 3.428 3.728 24.59 0.22933 0.00
31 14 11 o 2.881 3.132 -146.74 0.22933 0.00
34 11 1 o 0.025 0.027 -155.30 0.22933 0.00
35 7 2 o 3.711 4.035 -4.48 0.22933 0.00
32 16 0 o 14.023 15.041 0.00 0.22916 0.00
31 16 8 o 1.319 1.406 86.63 0.22907 0.00
26 22 11 o 2.200 2.346 149.70 0.22907 0.00
34 10 5 o 2.259 2.409 -158.65 0.22907 0.00
25 20 16 o 0.281 0.300 -71.56 0.22907 0.00
32 16 1 o 0.743 0.792 51.06 0.22907 0.00
34 11 2 o 9.831 10.483 -93.57 0.22907 0.00
25 24 9 o 0.917 0.973 -144.49 0.22898 0.00
21 21 20 o 0.151 0.161 -90.00 0.22898 0.00
33 12 7 o 1.351 1.433 -59.76 0.22898 0.00
29 21 0 o 0.606 0.644 90.00 0.22898 0.00
27 23 5 o 2.372 2.508 148.32 0.22889 0.00
23 23 15 o 6.641 7.023 -135.00 0.22889 0.00
29 21 1 o 6.889 7.285 150.64 0.22889 0.00
29 19 9 o 3.339 3.531 -128.37 0.22889 0.00
33 13 5 o 6.293 6.655 148.22 0.22889 0.00
35 7 3 o 4.755 5.028 -138.70 0.22889 0.00
34 8 8 o 0.675 0.712 90.00 0.22880 0.00
28 22 4 o 0.439 0.463 171.85 0.22880 0.00
32 16 2 o 0.131 0.138 52.20 0.22880 0.00
22 20 20 o 0.361 0.381 -90.00 0.22880 0.00
28 20 10 o 0.962 1.016 61.64 0.22880 0.00
32 14 8 o 0.486 0.513 24.87 0.22880 0.00
33 14 0 o 0.078 0.082 90.00 0.22871 0.00
24 22 15 o 0.231 0.244 -86.12 0.22871 0.00
31 18 0 o 0.742 0.783 -90.00 0.22871 0.00
32 15 6 o 0.903 0.952 -96.51 0.22871 0.00
35 6 5 o 2.932 3.096 -6.77 0.22862 0.00
22 21 19 o 0.270 0.285 1.98 0.22862 0.00
27 19 14 o 4.341 4.583 -9.65 0.22862 0.00
33 14 1 o 0.078 0.082 -17.89 0.22862 0.00
34 9 7 o 0.712 0.751 125.55 0.22862 0.00
26 21 13 o 1.715 1.811 145.03 0.22862 0.00
34 11 3 o 0.006 0.006 -56.36 0.22862 0.00
30 19 5 o 0.157 0.166 103.76 0.22862 0.00
31 18 1 o 0.745 0.787 93.76 0.22862 0.00
29 18 11 o 0.214 0.226 153.49 0.22862 0.00
31 17 6 o 0.813 0.858 -179.62 0.22862 0.00
31 15 10 o 3.661 3.865 167.95 0.22862 0.00
29 21 2 o 0.267 0.282 178.43 0.22862 0.00
25 25 6 o 0.827 0.873 0.00 0.22862 0.00
26 23 9 o 0.073 0.077 -124.53 0.22862 0.00
30 18 8 o 0.430 0.458 107.92 0.22844 0.00
26 24 6 o 0.536 0.570 79.96 0.22844 0.00
26 18 17 o 0.604 0.646 76.53 0.22835 0.00
35 8 0 o 1.806 1.933 -90.00 0.22835 0.00
30 17 10 o 1.526 1.634 -135.48 0.22835 0.00
32 12 11 o 1.005 1.076 74.37 0.22835 0.00
28 19 12 o 0.932 0.997 20.37 0.22835 0.00
33 10 10 o 0.173 0.185 -135.00 0.22835 0.00
33 14 2 o 1.140 1.221 -2.64 0.22835 0.00
28 21 8 o 0.215 0.230 -4.71 0.22835 0.00
32 16 3 o 1.213 1.299 -78.01 0.22835 0.00
31 18 2 o 0.740 0.792 144.05 0.22835 0.00
29 20 7 o 3.970 4.283 110.49 0.22827 0.00
35 8 1 o 0.724 0.781 -107.28 0.22827 0.00
35 7 4 o 6.126 6.609 -94.37 0.22827 0.00
23 20 19 o 1.477 1.594 -104.17 0.22827 0.00
33 11 9 o 5.215 5.675 46.97 0.22818 0.00
25 21 15 o 7.541 8.206 38.98 0.22818 0.00
29 15 15 o 19.658 21.393 -45.00 0.22818 0.00
29 21 3 o 8.398 9.139 31.83 0.22818 0.00
27 21 11 o 11.191 12.179 -50.29 0.22818 0.00
34 10 6 o 22.266 24.459 89.75 0.22809 0.00
30 14 14 o 16.012 17.589 90.00 0.22809 0.00
22 22 18 o 3.758 4.128 -90.00 0.22809 0.00
34 11 4 o 1.542 1.711 3.91 0.22800 0.00
28 22 5 o 0.194 0.215 1.96 0.22800 0.00
35 8 2 o 0.623 0.691 -7.71 0.22800 0.00
29 16 14 o 0.880 0.976 -123.37 0.22800 0.00
26 19 16 o 0.673 0.746 -24.54 0.22800 0.00
32 13 10 o 0.093 0.103 164.49 0.22800 0.00
33 14 3 o 0.345 0.387 -172.54 0.22791 0.00
31 18 3 o 1.316 1.474 64.47 0.22791 0.00
33 13 6 o 0.522 0.584 -6.07 0.22791 0.00
23 21 18 o 0.070 0.078 -88.47 0.22791 0.00
27 22 9 o 0.443 0.496 11.99 0.22791 0.00
27 23 6 o 8.294 9.289 -179.89 0.22791 0.00
30 15 13 o 0.974 1.091 -4.97 0.22791 0.00
28 16 16 o 33.328 38.023 180.00 0.22774 0.00
24 24 12 o 31.553 35.998 180.00 0.22774 0.00
32 16 4 o 14.184 16.183 -179.23 0.22774 0.00
36 0 0 o 28.662 32.700 180.00 0.22774 0.00
36 1 0 o 0.042 0.049 0.00 0.22765 0.00
33 12 8 o 0.342 0.393 8.64 0.22765 0.00
30 19 6 o 4.203 4.837 -85.01 0.22765 0.00
35 6 6 o 0.510 0.587 -45.00 0.22765 0.00
24 19 19 o 0.572 0.664 -90.00 0.22756 0.00
29 21 4 o 0.395 0.458 -90.27 0.22756 0.00
31 16 9 o 0.130 0.150 -172.12 0.22756 0.00
35 8 3 o 2.609 3.026 -79.84 0.22756 0.00
25 23 12 o 0.779 0.903 41.59 0.22756 0.00
28 17 15 o 0.566 0.656 -80.32 0.22756 0.00
32 15 7 o 0.808 0.937 21.69 0.22756 0.00
36 1 1 o 0.057 0.066 -90.00 0.22756 0.00
27 20 13 o 0.240 0.279 -32.73 0.22756 0.00
25 25 7 o 8.930 10.434 -135.00 0.22747 0.00
35 7 5 o 5.333 6.231 134.52 0.22747 0.00
29 17 13 o 3.102 3.624 143.00 0.22747 0.00
31 17 7 o 7.015 8.196 137.86 0.22747 0.00
31 13 13 o 0.709 0.828 -135.00 0.22747 0.00
34 12 0 o 0.009 0.011 -180.00 0.22739 0.00
36 2 0 o 0.047 0.055 0.00 0.22739 0.00
30 20 0 o 0.318 0.374 -180.00 0.22739 0.00
24 20 18 o 0.325 0.383 -98.04 0.22739 0.00
30 16 12 o 0.769 0.904 102.17 0.22739 0.00
26 20 15 o 0.136 0.161 124.77 0.22730 0.00
34 9 8 o 0.079 0.093 -69.33 0.22730 0.00
31 14 12 o 0.445 0.526 -32.81 0.22730 0.00
24 23 14 o 0.535 0.632 -169.72 0.22730 0.00
26 24 7 o 0.081 0.096 96.05 0.22730 0.00
26 25 0 o 1.414 1.672 0.00 0.22730 0.00
32 14 9 o 0.037 0.044 19.07 0.22730 0.00
34 12 1 o 0.205 0.243 -171.88 0.22730 0.00
25 24 10 o 1.624 1.921 -159.63 0.22730 0.00
33 14 4 o 0.171 0.203 -33.80 0.22730 0.00
36 2 1 o 0.778 0.920 -179.41 0.22730 0.00
30 20 1 o 0.658 0.778 -38.92 0.22730 0.00
31 18 4 o 0.589 0.697 100.42 0.22730 0.00
23 22 17 o 0.010 0.012 1.26 0.22721 0.00
26 25 1 o 1.605 1.908 127.29 0.22721 0.00
29 19 10 o 0.770 0.915 40.81 0.22721 0.00
34 11 5 o 0.212 0.252 29.37 0.22721 0.00
34 12 2 o 0.573 0.684 -77.50 0.22704 0.00
26 22 12 o 0.293 0.350 -26.22 0.22704 0.00
30 20 2 o 0.058 0.070 -122.50 0.22704 0.00
28 22 6 o 0.460 0.550 -101.44 0.22704 0.00
28 18 14 o 0.304 0.364 22.61 0.22704 0.00
36 2 2 o 0.006 0.007 -180.00 0.22704 0.00
36 3 0 o 0.004 0.005 0.00 0.22695 0.00
26 23 10 o 2.078 2.485 134.54 0.22695 0.00
30 18 9 o 0.705 0.843 -104.11 0.22695 0.00
26 25 2 o 0.220 0.263 63.07 0.22695 0.00
35 8 4 o 1.459 1.745 111.45 0.22695 0.00
25 22 14 o 0.787 0.941 71.06 0.22695 0.00
34 10 7 o 5.523 6.604 -167.41 0.22695 0.00
29 20 8 o 1.392 1.664 147.27 0.22695 0.00
27 24 0 o 1.010 1.208 -90.00 0.22695 0.00
32 16 5 o 0.835 0.998 -160.75 0.22695 0.00
28 20 11 o 2.007 2.400 -75.38 0.22695 0.00
36 3 1 o 0.235 0.281 -134.96 0.22686 0.00
24 21 17 o 0.253 0.303 -119.76 0.22686 0.00
35 9 0 o 0.910 1.087 -90.00 0.22686 0.00
28 21 9 o 0.175 0.209 -68.27 0.22686 0.00
27 24 1 o 0.998 1.193 -16.73 0.22686 0.00
27 23 7 o 4.773 5.689 36.53 0.22678 0.00
33 13 7 o 6.794 8.098 35.16 0.22678 0.00
35 9 1 o 7.892 9.407 37.53 0.22678 0.00
29 21 5 o 4.356 5.193 -27.66 0.22678 0.00
27 17 17 o 0.071 0.085 45.00 0.22678 0.00
31 15 11 o 4.420 5.268 36.79 0.22678 0.00
29 18 12 o 0.773 0.914 -7.33 0.22660 0.00
27 18 16 o 0.876 1.035 135.06 0.22660 0.00
27 24 2 o 1.154 1.364 -172.16 0.22660 0.00
36 3 2 o 0.289 0.341 -89.20 0.22660 0.00
30 20 3 o 0.314 0.370 29.20 0.22660 0.00
34 12 3 o 0.198 0.234 140.14 0.22660 0.00
35 7 6 o 3.171 3.721 167.61 0.22652 0.00
35 9 2 o 3.022 3.546 179.70 0.22652 0.00
30 19 7 o 0.186 0.218 -148.09 0.22652 0.00
26 25 3 o 0.834 0.979 -124.53 0.22652 0.00
33 14 5 o 0.009 0.010 -2.64 0.22652 0.00
31 18 5 o 0.351 0.412 -118.58 0.22652 0.00
30 17 11 o 0.726 0.853 165.34 0.22652 0.00
33 11 10 o 1.457 1.710 -169.21 0.22652 0.00
25 19 18 o 0.087 0.102 -77.57 0.22652 0.00
32 12 12 o 19.278 22.249 0.00 0.22634 0.00
36 4 0 o 25.788 29.761 0.00 0.22634 0.00
32 15 8 o 0.267 0.306 -145.47 0.22626 0.00
36 4 1 o 0.144 0.164 -13.19 0.22626 0.00
32 17 0 o 0.187 0.214 180.00 0.22626 0.00
28 23 0 o 0.238 0.272 0.00 0.22626 0.00
27 22 10 o 3.227 3.688 116.18 0.22626 0.00
26 21 14 o 0.821 0.938 20.59 0.22626 0.00
34 11 6 o 7.934 9.066 79.44 0.22626 0.00
31 17 8 o 1.322 1.494 122.97 0.22617 0.00
32 17 1 o 0.599 0.677 -101.68 0.22617 0.00
25 20 17 o 0.347 0.392 -8.56 0.22617 0.00
27 21 12 o 0.910 1.028 -33.90 0.22617 0.00
28 19 13 o 1.143 1.292 73.35 0.22617 0.00
28 23 1 o 1.468 1.660 9.89 0.22617 0.00
33 12 9 o 1.071 1.211 26.15 0.22617 0.00
32 13 11 o 0.793 0.896 117.97 0.22617 0.00
33 15 0 o 0.031 0.035 90.00 0.22617 0.00
35 8 5 o 0.006 0.007 7.84 0.22617 0.00
23 23 16 o 1.596 1.804 -90.00 0.22617 0.00
36 3 3 o 0.074 0.084 90.00 0.22617 0.00
27 24 3 o 1.518 1.716 -159.01 0.22617 0.00
25 25 8 o 0.329 0.372 90.00 0.22617 0.00
27 19 15 o 5.444 6.083 -138.67 0.22609 0.00
35 9 3 o 7.705 8.610 142.43 0.22609 0.00
33 15 1 o 4.824 5.390 -147.22 0.22609 0.00
24 22 16 o 0.149 0.165 -119.92 0.22600 0.00
26 24 8 o 0.632 0.698 171.30 0.22600 0.00
34 12 4 o 0.259 0.286 81.35 0.22600 0.00
30 20 4 o 0.375 0.414 -24.31 0.22600 0.00
36 4 2 o 0.165 0.182 -56.45 0.22600 0.00
32 16 6 o 0.389 0.429 -155.34 0.22600 0.00
31 16 10 o 0.492 0.537 78.69 0.22591 0.00
28 22 7 o 0.865 0.943 21.55 0.22591 0.00
26 25 4 o 1.241 1.354 164.59 0.22591 0.00
32 17 2 o 0.047 0.051 -52.10 0.22591 0.00
28 23 2 o 1.667 1.818 -93.96 0.22591 0.00
29 21 6 o 0.274 0.295 -7.38 0.22583 0.00
33 15 2 o 2.874 3.094 4.24 0.22583 0.00
34 9 9 o 1.550 1.669 -180.00 0.22583 0.00
34 10 8 o 1.079 1.134 -126.63 0.22566 0.00
32 14 10 o 0.695 0.730 -175.19 0.22566 0.00
36 4 3 o 0.039 0.040 -31.12 0.22557 0.00
24 24 13 o 0.983 1.021 -135.00 0.22557 0.00
27 24 4 o 1.108 1.152 75.88 0.22557 0.00
31 18 6 o 2.560 2.660 -59.04 0.22557 0.00
33 14 6 o 0.582 0.605 169.30 0.22557 0.00
36 5 0 o 0.173 0.179 -180.00 0.22557 0.00
30 15 14 o 3.648 3.791 87.51 0.22557 0.00
32 17 3 o 0.240 0.247 97.48 0.22549 0.00
31 19 0 o 3.749 3.858 90.00 0.22549 0.00
28 23 3 o 1.953 2.010 -6.79 0.22549 0.00
35 9 4 o 0.801 0.825 95.22 0.22549 0.00
33 13 8 o 0.256 0.264 142.84 0.22549 0.00
29 16 15 o 2.341 2.409 -72.43 0.22549 0.00
29 20 9 o 1.960 2.018 -148.67 0.22549 0.00
25 21 16 o 0.060 0.061 -161.56 0.22549 0.00
27 23 8 o 1.664 1.712 93.05 0.22549 0.00
25 24 11 o 1.452 1.495 -75.82 0.22549 0.00
36 5 1 o 0.051 0.052 7.61 0.22549 0.00
35 7 7 o 3.910 3.991 45.00 0.22540 0.00
25 23 13 o 1.345 1.373 67.95 0.22540 0.00
21 21 21 o 2.874 2.934 -45.00 0.22540 0.00
31 19 1 o 3.573 3.647 -19.84 0.22540 0.00
29 19 11 o 18.548 18.933 -40.20 0.22540 0.00
33 15 3 o 7.105 7.252 -33.64 0.22540 0.00
26 18 18 o 6.146 6.235 -90.00 0.22532 0.00
30 18 10 o 19.659 19.943 89.04 0.22532 0.00
30 19 8 o 0.095 0.096 110.95 0.22523 0.00
34 13 0 o 0.190 0.192 -180.00 0.22523 0.00
35 8 6 o 0.585 0.592 158.05 0.22523 0.00
22 21 20 o 1.473 1.488 50.26 0.22523 0.00
29 22 0 o 1.016 1.027 -90.00 0.22523 0.00
27 20 14 o 0.722 0.730 -85.97 0.22523 0.00
35 10 0 o 0.827 0.836 90.00 0.22523 0.00
28 21 10 o 1.051 1.062 62.06 0.22523 0.00
34 12 5 o 0.288 0.291 -22.60 0.22523 0.00
36 5 2 o 1.128 1.140 -87.84 0.22523 0.00
30 16 13 o 0.736 0.744 -29.25 0.22523 0.00
30 20 5 o 1.006 1.017 137.99 0.22523 0.00
26 25 5 o 2.280 2.301 -54.42 0.22515 0.00
34 13 1 o 1.401 1.413 -58.06 0.22515 0.00
29 17 14 o 0.135 0.136 111.48 0.22515 0.00
29 22 1 o 1.018 1.027 -130.05 0.22515 0.00
34 11 7 o 0.012 0.012 127.47 0.22515 0.00
26 23 11 o 1.612 1.627 -13.98 0.22515 0.00
35 10 1 o 2.441 2.464 -20.76 0.22515 0.00
26 19 17 o 0.734 0.741 164.34 0.22515 0.00
31 14 13 o 0.055 0.055 22.22 0.22515 0.00
31 19 2 o 7.101 7.167 0.27 0.22515 0.00
36 4 4 o 27.306 27.689 180.00 0.22498 0.00
28 20 12 o 30.355 30.781 -179.41 0.22498 0.00
28 23 4 o 0.353 0.360 -158.06 0.22489 0.00
35 10 2 o 0.366 0.373 -29.09 0.22489 0.00
32 16 7 o 1.896 1.933 93.22 0.22489 0.00
34 13 2 o 3.824 3.900 -95.60 0.22489 0.00
29 22 2 o 0.126 0.128 142.58 0.22489 0.00
32 17 4 o 0.268 0.273 -46.37 0.22489 0.00
26 22 13 o 0.195 0.199 79.52 0.22489 0.00
28 17 16 o 0.979 0.999 -122.77 0.22489 0.00
22 22 19 o 1.114 1.136 -45.00 0.22489 0.00
23 20 20 o 0.357 0.364 135.00 0.22489 0.00
32 15 9 o 1.566 1.608 -129.62 0.22481 0.00
33 15 4 o 0.000 0.000 130.87 0.22481 0.00
36 5 3 o 0.413 0.424 -30.70 0.22481 0.00
31 15 12 o 4.351 4.469 97.22 0.22481 0.00
24 23 15 o 1.387 1.424 -51.86 0.22481 0.00
27 24 5 o 0.710 0.729 156.09 0.22481 0.00
33 11 11 o 10.195 10.554 135.00 0.22472 0.00
35 9 5 o 7.721 7.993 -140.06 0.22472 0.00
31 17 9 o 1.187 1.229 -158.65 0.22472 0.00
23 21 19 o 10.537 10.909 131.13 0.22472 0.00
31 19 3 o 4.404 4.560 -157.80 0.22472 0.00
25 25 9 o 3.300 3.416 135.00 0.22472 0.00
29 21 7 o 9.586 9.924 -145.97 0.22472 0.00
26 20 16 o 0.342 0.357 -66.52 0.22464 0.00
28 22 8 o 0.251 0.261 -16.16 0.22464 0.00
36 6 0 o 0.340 0.355 -180.00 0.22464 0.00
26 24 9 o 0.347 0.365 -16.00 0.22455 0.00
36 6 1 o 0.288 0.303 1.21 0.22455 0.00
33 12 10 o 0.357 0.376 64.19 0.22455 0.00
30 17 12 o 0.524 0.551 -50.52 0.22455 0.00
28 18 15 o 0.504 0.530 -128.81 0.22455 0.00
35 10 3 o 2.950 3.120 -157.32 0.22447 0.00
34 13 3 o 0.947 1.002 87.70 0.22447 0.00
29 18 13 o 0.411 0.435 -99.38 0.22447 0.00
29 22 3 o 0.647 0.685 -42.99 0.22447 0.00
27 22 11 o 2.014 2.131 33.63 0.22447 0.00
25 22 15 o 0.126 0.134 -172.92 0.22447 0.00
31 18 7 o 1.924 2.035 -131.32 0.22447 0.00
33 14 7 o 0.610 0.645 -5.37 0.22447 0.00
34 12 6 o 0.886 0.943 119.84 0.22430 0.00
36 6 2 o 0.037 0.040 -28.27 0.22430 0.00
30 20 6 o 0.118 0.126 18.55 0.22430 0.00
34 10 9 o 1.711 1.820 30.02 0.22422 0.00
32 13 12 o 1.458 1.550 96.87 0.22422 0.00
23 22 18 o 1.646 1.751 -50.69 0.22422 0.00
36 5 4 o 0.421 0.448 -63.90 0.22422 0.00
24 20 19 o 1.142 1.214 115.79 0.22422 0.00
26 25 6 o 0.510 0.543 -144.98 0.22422 0.00
32 17 5 o 0.665 0.705 77.70 0.22413 0.00
31 19 4 o 3.526 3.737 -88.59 0.22413 0.00
28 23 5 o 1.061 1.125 -154.27 0.22413 0.00
31 16 11 o 3.393 3.596 73.98 0.22413 0.00
35 8 7 o 4.965 5.263 95.38 0.22413 0.00
27 21 13 o 0.344 0.363 5.13 0.22405 0.00
33 13 9 o 4.876 5.141 -36.58 0.22405 0.00
27 23 9 o 1.908 2.011 -32.43 0.22405 0.00
33 15 5 o 4.188 4.414 36.84 0.22405 0.00
34 13 4 o 0.200 0.208 -10.46 0.22388 0.00
34 11 8 o 0.873 0.906 -172.30 0.22388 0.00
35 10 4 o 0.650 0.675 -77.10 0.22388 0.00
24 21 18 o 1.744 1.809 -122.44 0.22388 0.00
29 22 4 o 0.888 0.921 113.90 0.22388 0.00
36 6 3 o 0.052 0.054 -13.61 0.22388 0.00
28 19 14 o 0.480 0.498 -141.06 0.22388 0.00
29 20 10 o 1.021 1.059 -151.94 0.22388 0.00
27 24 6 o 0.959 0.995 26.09 0.22388 0.00
30 21 0 o 1.360 1.411 0.00 0.22388 0.00
32 14 11 o 0.848 0.879 22.57 0.22388 0.00
26 21 15 o 0.741 0.762 8.01 0.22380 0.00
27 18 17 o 0.177 0.182 -157.15 0.22380 0.00
35 9 6 o 2.175 2.236 -2.27 0.22380 0.00
30 19 9 o 0.321 0.330 -36.36 0.22380 0.00
30 21 1 o 2.036 2.093 124.77 0.22380 0.00
32 16 8 o 18.188 18.376 1.00 0.22363 0.00
33 16 0 o 0.332 0.333 90.00 0.22355 0.00
30 18 11 o 3.096 3.105 176.67 0.22355 0.00
25 24 12 o 1.213 1.216 -58.04 0.22355 0.00
30 21 2 o 1.563 1.568 81.09 0.22355 0.00
36 7 0 o 0.000 0.000 0.00 0.22355 0.00
35 11 0 o 7.876 7.854 -90.00 0.22347 0.00
29 21 8 o 0.091 0.091 83.28 0.22347 0.00
27 19 16 o 2.497 2.490 -75.96 0.22347 0.00
29 19 12 o 0.991 0.989 67.09 0.22347 0.00
36 5 5 o 0.094 0.093 90.00 0.22347 0.00
33 16 1 o 2.285 2.279 -138.43 0.22347 0.00
28 21 11 o 0.038 0.038 76.69 0.22347 0.00
36 7 1 o 0.757 0.755 27.77 0.22347 0.00
23 23 17 o 4.853 4.821 135.00 0.22338 0.00
35 11 1 o 3.710 3.685 145.36 0.22338 0.00
25 19 19 o 17.751 17.632 135.00 0.22338 0.00
31 19 5 o 2.869 2.850 159.71 0.22338 0.00
32 18 0 o 0.001 0.001 -180.00 0.22330 0.00
36 6 4 o 0.461 0.457 27.46 0.22330 0.00
24 24 14 o 0.813 0.806 -90.00 0.22330 0.00
28 23 6 o 1.238 1.228 76.21 0.22322 0.00
25 20 18 o 1.731 1.718 42.22 0.22322 0.00
34 12 7 o 0.257 0.255 -72.39 0.22322 0.00
32 15 10 o 0.743 0.737 77.02 0.22322 0.00
26 23 12 o 0.942 0.935 -22.27 0.22322 0.00
33 14 8 o 0.403 0.399 168.53 0.22322 0.00
31 18 8 o 0.527 0.522 -65.28 0.22322 0.00
33 16 2 o 0.323 0.321 -170.14 0.22322 0.00
32 18 1 o 0.986 0.978 162.08 0.22322 0.00
32 17 6 o 0.124 0.123 171.91 0.22322 0.00
30 20 7 o 0.110 0.109 -166.11 0.22322 0.00
28 22 9 o 0.167 0.166 -146.91 0.22322 0.00
24 22 17 o 0.972 0.965 45.41 0.22322 0.00
36 7 2 o 0.001 0.001 101.75 0.22322 0.00
25 25 10 o 0.746 0.743 180.00 0.22314 0.00
35 11 2 o 3.699 3.680 178.10 0.22314 0.00
33 15 6 o 2.349 2.337 -165.96 0.22314 0.00
31 17 10 o 0.108 0.107 -5.85 0.22314 0.00
30 21 3 o 1.066 1.060 -111.94 0.22314 0.00
34 13 5 o 1.758 1.749 144.04 0.22314 0.00
30 15 15 o 1.459 1.452 0.00 0.22314 0.00
26 25 7 o 0.214 0.213 74.76 0.22314 0.00
35 10 5 o 1.497 1.489 168.54 0.22314 0.00
25 23 14 o 0.281 0.280 -104.01 0.22314 0.00
29 22 5 o 1.180 1.174 60.44 0.22314 0.00
32 18 2 o 0.050 0.050 52.45 0.22297 0.00
26 24 10 o 0.331 0.333 -113.50 0.22297 0.00
26 26 0 o 1.408 1.418 0.00 0.22297 0.00
34 14 0 o 0.162 0.163 0.00 0.22297 0.00
30 16 14 o 0.415 0.418 119.08 0.22297 0.00
34 14 1 o 1.470 1.492 -165.18 0.22289 0.00
35 8 8 o 1.371 1.391 -45.00 0.22289 0.00
26 26 1 o 1.173 1.190 45.00 0.22289 0.00
29 16 16 o 0.160 0.163 45.00 0.22289 0.00
31 14 14 o 4.701 4.772 135.00 0.22289 0.00
28 20 13 o 1.130 1.147 -153.84 0.22289 0.00
27 24 7 o 2.113 2.164 30.84 0.22281 0.00
27 20 15 o 2.594 2.657 -117.89 0.22281 0.00
33 12 11 o 1.258 1.289 102.06 0.22281 0.00
27 25 0 o 0.131 0.134 -90.00 0.22281 0.00
36 7 3 o 0.220 0.226 -21.42 0.22281 0.00
33 16 3 o 2.306 2.362 -55.00 0.22281 0.00
35 9 7 o 5.849 6.049 -40.18 0.22272 0.00
35 11 3 o 3.426 3.543 33.41 0.22272 0.00
29 17 15 o 6.740 6.971 32.88 0.22272 0.00
31 15 13 o 3.811 3.941 -32.15 0.22272 0.00
25 21 17 o 3.005 3.108 -43.10 0.22272 0.00
27 25 1 o 4.447 4.599 39.82 0.22272 0.00
34 10 10 o 21.029 21.954 -90.00 0.22264 0.00
26 26 2 o 29.883 31.198 -90.00 0.22264 0.00
26 22 14 o 8.318 8.684 -90.53 0.22264 0.00
34 14 2 o 25.200 26.309 89.72 0.22264 0.00
32 18 3 o 1.391 1.465 -160.38 0.22256 0.00
27 22 12 o 1.036 1.091 113.39 0.22256 0.00
36 6 5 o 0.454 0.478 173.69 0.22256 0.00
30 21 4 o 1.059 1.115 170.83 0.22256 0.00
27 23 10 o 5.796 6.148 -0.37 0.22248 0.00
31 19 6 o 5.452 5.783 -179.44 0.22248 0.00
34 11 9 o 0.609 0.646 -150.99 0.22248 0.00
30 17 13 o 1.725 1.830 162.29 0.22248 0.00
33 13 10 o 0.258 0.273 -173.93 0.22248 0.00
27 25 2 o 0.261 0.277 -168.12 0.22248 0.00
28 24 0 o 10.846 11.613 180.00 0.22231 0.00
36 8 0 o 21.800 23.343 180.00 0.22231 0.00
34 14 3 o 2.459 2.638 -177.43 0.22223 0.00
36 8 1 o 0.515 0.553 -158.24 0.22223 0.00
28 24 1 o 0.937 1.005 -127.15 0.22223 0.00
30 19 10 o 3.119 3.346 97.30 0.22223 0.00
35 10 6 o 1.066 1.143 132.95 0.22223 0.00
34 13 6 o 2.602 2.792 73.20 0.22223 0.00
26 19 18 o 1.223 1.312 -60.51 0.22223 0.00
29 22 6 o 0.327 0.351 -76.10 0.22223 0.00
36 7 4 o 0.025 0.027 175.42 0.22223 0.00
29 18 14 o 0.515 0.553 66.12 0.22223 0.00
33 16 4 o 0.542 0.581 -39.32 0.22223 0.00
32 16 9 o 1.366 1.466 6.64 0.22223 0.00
26 26 3 o 1.847 1.982 -45.00 0.22223 0.00
31 16 12 o 0.368 0.395 -87.62 0.22223 0.00
24 23 16 o 0.675 0.725 -178.71 0.22223 0.00
31 20 0 o 1.960 2.103 -90.00 0.22223 0.00
32 13 13 o 0.147 0.158 -90.00 0.22215 0.00
32 17 7 o 0.004 0.004 178.30 0.22215 0.00
28 23 7 o 1.760 1.889 166.41 0.22215 0.00
29 20 11 o 3.124 3.352 -74.58 0.22215 0.00
28 17 17 o 0.114 0.123 -90.00 0.22215 0.00
31 20 1 o 0.642 0.689 -37.91 0.22215 0.00
35 11 4 o 6.758 7.253 88.02 0.22215 0.00
29 21 9 o 3.666 3.930 150.66 0.22207 0.00
33 15 7 o 9.256 9.921 142.51 0.22207 0.00
27 25 3 o 7.521 8.062 135.56 0.22207 0.00
32 14 12 o 0.477 0.510 -167.00 0.22199 0.00
34 12 8 o 0.645 0.690 -91.97 0.22199 0.00
32 18 4 o 0.041 0.043 65.12 0.22199 0.00
30 20 8 o 0.394 0.421 141.43 0.22199 0.00
28 18 16 o 0.085 0.091 -36.70 0.22199 0.00
28 24 2 o 2.347 2.510 -92.25 0.22199 0.00
36 8 2 o 0.261 0.279 116.01 0.22199 0.00
31 20 2 o 0.411 0.439 -164.17 0.22191 0.00
25 22 16 o 1.047 1.117 -160.27 0.22191 0.00
26 20 17 o 0.746 0.795 -163.82 0.22191 0.00
26 25 8 o 0.795 0.848 -38.40 0.22191 0.00
22 21 21 o 0.336 0.358 0.00 0.22182 0.00
30 21 5 o 2.375 2.526 -49.51 0.22182 0.00
31 18 9 o 0.292 0.311 22.94 0.22182 0.00
33 14 9 o 0.120 0.128 150.26 0.22182 0.00
27 21 14 o 0.090 0.095 -65.50 0.22182 0.00
36 6 6 o 0.217 0.230 180.00 0.22166 0.00
34 14 4 o 0.361 0.382 -131.11 0.22166 0.00
26 26 4 o 1.204 1.276 -180.00 0.22166 0.00
30 18 12 o 0.432 0.458 -84.59 0.22166 0.00
28 22 10 o 0.312 0.331 80.47 0.22166 0.00
22 22 20 o 0.022 0.023 -180.00 0.22166 0.00
35 12 0 o 2.375 2.518 90.00 0.22158 0.00
28 21 12 o 0.499 0.529 -167.02 0.22158 0.00
28 24 3 o 1.591 1.687 122.52 0.22158 0.00
36 8 3 o 0.331 0.351 123.51 0.22158 0.00
27 24 8 o 0.951 1.008 -111.22 0.22158 0.00
37 1 0 o 0.057 0.061 -90.00 0.22150 0.00
25 24 13 o 0.438 0.466 11.64 0.22150 0.00
35 9 8 o 0.352 0.374 -72.86 0.22150 0.00
36 7 5 o 0.997 1.059 -147.96 0.22150 0.00
23 21 20 o 0.209 0.222 173.35 0.22150 0.00
28 19 15 o 0.372 0.396 -47.47 0.22150 0.00
27 25 4 o 0.267 0.284 130.97 0.22150 0.00
32 15 11 o 0.227 0.241 -155.78 0.22150 0.00
33 16 5 o 1.843 1.958 32.40 0.22150 0.00
35 12 1 o 0.656 0.697 83.42 0.22150 0.00
29 23 0 o 0.000 0.000 -90.00 0.22150 0.00
31 20 3 o 1.248 1.326 -132.42 0.22150 0.00
29 23 1 o 5.318 5.673 40.58 0.22142 0.00
25 25 11 o 8.776 9.361 45.00 0.22142 0.00
31 19 7 o 4.434 4.730 25.82 0.22142 0.00
29 19 13 o 3.340 3.563 57.24 0.22142 0.00
35 11 5 o 3.403 3.630 -38.96 0.22142 0.00
31 17 11 o 6.161 6.572 -48.02 0.22142 0.00
37 1 1 o 3.152 3.362 -45.00 0.22142 0.00
26 21 16 o 0.749 0.812 80.29 0.22126 0.00
37 2 0 o 1.327 1.437 -90.00 0.22126 0.00
35 12 2 o 0.141 0.152 158.21 0.22126 0.00
32 18 5 o 0.441 0.477 -11.23 0.22126 0.00
26 24 11 o 0.078 0.084 -118.09 0.22126 0.00
34 13 7 o 0.767 0.840 -57.71 0.22118 0.00
29 22 7 o 0.240 0.263 137.97 0.22118 0.00
35 10 7 o 2.881 3.155 19.75 0.22118 0.00
29 23 2 o 0.129 0.141 -152.30 0.22118 0.00
26 23 13 o 0.078 0.086 127.78 0.22118 0.00
23 22 19 o 3.755 4.113 -173.12 0.22118 0.00
37 2 1 o 0.019 0.021 -120.85 0.22118 0.00
24 20 20 o 44.521 50.219 0.00 0.22102 0.00
36 8 4 o 19.424 21.910 0.13 0.22102 0.00
28 24 4 o 11.676 13.171 0.46 0.22102 0.00
34 14 5 o 0.793 0.910 36.08 0.22094 0.00
26 26 5 o 0.376 0.432 -135.00 0.22094 0.00
32 17 8 o 0.435 0.499 99.06 0.22094 0.00
28 23 8 o 0.488 0.560 21.87 0.22094 0.00
24 24 15 o 2.009 2.307 135.00 0.22094 0.00
30 21 6 o 1.144 1.314 -115.72 0.22094 0.00
33 12 12 o 0.387 0.444 -135.00 0.22094 0.00
37 2 2 o 0.139 0.160 45.00 0.22094 0.00
27 18 18 o 2.721 3.124 -45.00 0.22094 0.00
31 20 4 o 1.549 1.778 81.83 0.22094 0.00
34 11 10 o 5.841 6.706 -104.60 0.22094 0.00
36 9 0 o 0.227 0.260 0.00 0.22094 0.00
33 15 8 o 0.233 0.273 -89.21 0.22086 0.00
37 3 0 o 0.108 0.127 90.00 0.22086 0.00
36 9 1 o 0.119 0.140 131.94 0.22086 0.00
33 17 0 o 0.001 0.001 90.00 0.22086 0.00
24 21 19 o 0.067 0.078 141.61 0.22086 0.00
35 12 3 o 1.803 2.110 94.15 0.22086 0.00
25 23 15 o 13.210 15.785 139.60 0.22078 0.00
33 17 1 o 5.803 6.935 152.59 0.22078 0.00
27 25 5 o 1.805 2.157 -147.63 0.22078 0.00
27 19 17 o 4.142 4.949 145.65 0.22078 0.00
29 23 3 o 7.878 9.414 140.86 0.22078 0.00
37 3 1 o 2.245 2.683 -139.06 0.22078 0.00
27 23 11 o 4.184 4.999 -141.52 0.22078 0.00
33 13 11 o 5.631 6.729 -142.32 0.22078 0.00
28 20 14 o 0.468 0.572 -122.91 0.22070 0.00
32 16 10 o 0.497 0.607 17.02 0.22070 0.00
36 9 2 o 0.711 0.887 94.80 0.22062 0.00
36 7 6 o 0.032 0.039 85.79 0.22062 0.00
33 16 6 o 0.223 0.279 31.34 0.22062 0.00
34 15 0 o 0.831 1.036 0.00 0.22062 0.00
34 12 9 o 0.255 0.318 138.24 0.22062 0.00
30 20 9 o 0.761 0.949 -38.58 0.22062 0.00
30 16 15 o 0.023 0.029 151.73 0.22062 0.00
30 19 11 o 0.658 0.838 6.75 0.22054 0.00
29 21 10 o 0.237 0.302 163.19 0.22054 0.00
35 11 6 o 2.594 3.306 -6.48 0.22054 0.00
33 17 2 o 0.058 0.075 0.90 0.22054 0.00
37 3 2 o 0.343 0.437 -8.48 0.22054 0.00
34 15 1 o 0.035 0.044 -99.37 0.22054 0.00
31 15 14 o 2.175 2.772 -17.90 0.22054 0.00
26 25 9 o 1.436 1.830 121.53 0.22054 0.00
27 22 13 o 0.185 0.236 -178.28 0.22054 0.00
23 23 18 o 3.075 3.920 -180.00 0.22054 0.00
32 18 6 o 0.125 0.165 -153.00 0.22038 0.00
24 22 18 o 0.017 0.023 -119.33 0.22038 0.00
30 22 0 o 0.528 0.700 0.00 0.22038 0.00
35 12 4 o 1.521 2.053 -81.87 0.22030 0.00
34 15 2 o 5.924 7.993 86.86 0.22030 0.00
26 22 15 o 1.047 1.412 -29.83 0.22030 0.00
31 18 10 o 3.101 4.184 119.41 0.22030 0.00
36 8 5 o 0.785 1.059 -0.01 0.22030 0.00
30 17 14 o 0.509 0.687 28.14 0.22030 0.00
33 14 10 o 0.076 0.102 -41.77 0.22030 0.00
27 20 16 o 0.173 0.234 88.09 0.22030 0.00
37 4 0 o 0.016 0.021 90.00 0.22030 0.00
30 22 1 o 0.725 0.978 46.66 0.22030 0.00
32 19 0 o 0.001 0.001 0.00 0.22030 0.00
28 24 5 o 0.515 0.694 43.57 0.22030 0.00
29 20 12 o 0.866 1.169 -29.40 0.22030 0.00
29 23 4 o 0.031 0.042 -147.20 0.22022 0.00
31 19 8 o 2.379 3.256 94.62 0.22022 0.00
25 20 19 o 0.542 0.742 120.71 0.22022 0.00
27 24 9 o 0.358 0.490 -39.98 0.22022 0.00
37 4 1 o 0.064 0.088 146.02 0.22022 0.00
31 20 5 o 0.284 0.389 150.37 0.22022 0.00
32 19 1 o 1.258 1.722 10.79 0.22022 0.00
29 17 16 o 0.324 0.444 150.79 0.22022 0.00
31 16 13 o 0.241 0.330 15.70 0.22022 0.00
36 9 3 o 0.206 0.281 165.71 0.22022 0.00
35 9 9 o 3.709 5.134 45.00 0.22014 0.00
33 17 3 o 5.621 7.780 30.13 0.22014 0.00
37 3 3 o 1.505 2.084 -45.00 0.22014 0.00
34 14 6 o 16.741 23.347 -90.68 0.22006 0.00
26 26 6 o 17.157 23.926 90.00 0.22006 0.00
30 22 2 o 21.246 29.630 -90.29 0.22006 0.00
28 22 11 o 0.493 0.690 -150.12 0.21998 0.00
32 19 2 o 1.031 1.443 -90.74 0.21998 0.00
32 14 13 o 0.114 0.160 -122.08 0.21998 0.00
29 22 8 o 0.562 0.787 -39.02 0.21998 0.00
37 4 2 o 0.844 1.182 -177.19 0.21998 0.00
35 10 8 o 0.279 0.391 123.63 0.21998 0.00
34 13 8 o 0.154 0.215 156.04 0.21998 0.00
25 21 18 o 0.231 0.323 -24.05 0.21990 0.00
30 21 7 o 0.251 0.351 106.27 0.21990 0.00
27 25 6 o 0.133 0.186 36.76 0.21990 0.00
34 15 3 o 0.074 0.103 121.26 0.21990 0.00
29 18 15 o 0.089 0.124 -58.03 0.21990 0.00
32 15 12 o 0.686 0.937 6.93 0.21966 0.00
36 9 4 o 0.488 0.666 120.89 0.21966 0.00
30 18 13 o 0.301 0.411 86.99 0.21966 0.00
30 22 3 o 1.222 1.670 -32.64 0.21966 0.00
35 12 5 o 0.038 0.052 -76.27 0.21959 0.00
35 13 0 o 1.241 1.674 90.00 0.21959 0.00
31 17 12 o 0.687 0.926 -38.80 0.21959 0.00
37 4 3 o 0.064 0.086 59.23 0.21959 0.00
25 25 12 o 0.011 0.015 -90.00 0.21959 0.00
37 5 0 o 0.000 0.000 90.00 0.21959 0.00
33 16 7 o 1.802 2.430 110.06 0.21959 0.00
36 7 7 o 0.000 0.000 -90.00 0.21959 0.00
32 17 9 o 0.281 0.379 -101.54 0.21959 0.00
24 23 17 o 0.329 0.444 -110.49 0.21959 0.00
28 21 13 o 0.027 0.036 -174.68 0.21959 0.00
33 17 4 o 0.001 0.002 88.64 0.21959 0.00
28 23 9 o 0.648 0.874 49.89 0.21959 0.00
32 19 3 o 1.251 1.687 -2.35 0.21959 0.00
27 21 15 o 7.063 9.378 127.84 0.21951 0.00
35 13 1 o 5.073 6.735 -147.70 0.21951 0.00
35 11 7 o 2.456 3.262 -143.03 0.21951 0.00
29 23 5 o 2.408 3.197 -134.99 0.21951 0.00
33 15 9 o 3.355 4.454 -135.68 0.21951 0.00
37 5 1 o 3.397 4.510 135.43 0.21951 0.00
26 24 12 o 0.268 0.351 -10.39 0.21943 0.00
36 10 0 o 0.361 0.472 0.00 0.21943 0.00
28 24 6 o 1.591 2.078 83.43 0.21943 0.00
36 8 6 o 0.403 0.526 -34.58 0.21943 0.00
31 20 6 o 0.374 0.480 44.81 0.21935 0.00
36 10 1 o 0.008 0.011 -30.84 0.21935 0.00
34 15 4 o 0.712 0.915 -168.74 0.21935 0.00
28 18 17 o 0.599 0.769 34.88 0.21935 0.00
25 24 14 o 1.296 1.665 27.87 0.21935 0.00
32 18 7 o 1.161 1.492 19.65 0.21935 0.00
26 19 19 o 3.057 3.863 -180.00 0.21927 0.00
34 11 11 o 0.002 0.002 -180.00 0.21927 0.00
29 19 14 o 0.352 0.444 -123.48 0.21927 0.00
35 13 2 o 1.980 2.502 -3.41 0.21927 0.00
25 22 17 o 0.421 0.532 53.55 0.21927 0.00
37 5 2 o 0.359 0.454 -10.77 0.21927 0.00
26 20 18 o 0.008 0.010 -59.99 0.21911 0.00
34 12 10 o 0.829 1.017 -58.82 0.21911 0.00
30 22 4 o 0.556 0.682 163.65 0.21911 0.00
30 20 10 o 0.163 0.200 173.62 0.21911 0.00
36 10 2 o 0.084 0.103 134.81 0.21911 0.00
34 14 7 o 3.234 3.916 11.35 0.21904 0.00
26 25 10 o 0.552 0.669 26.01 0.21904 0.00
32 19 4 o 0.030 0.036 -139.78 0.21904 0.00
32 16 11 o 1.790 2.168 -85.41 0.21904 0.00
26 26 7 o 1.789 2.166 135.00 0.21904 0.00
28 19 16 o 1.116 1.351 174.63 0.21904 0.00
26 23 14 o 1.498 1.814 -40.01 0.21904 0.00
37 4 4 o 0.012 0.015 -135.00 0.21904 0.00
33 13 12 o 0.462 0.554 -40.45 0.21896 0.00
36 9 5 o 0.324 0.388 -84.64 0.21896 0.00
27 23 12 o 1.373 1.644 -84.17 0.21896 0.00
31 21 0 o 0.709 0.849 -90.00 0.21896 0.00
31 21 1 o 3.346 3.974 30.37 0.21888 0.00
29 21 11 o 7.353 8.732 35.25 0.21888 0.00
35 13 3 o 5.787 6.872 -33.47 0.21888 0.00
31 19 9 o 2.025 2.405 -23.46 0.21888 0.00
37 5 3 o 3.213 3.815 47.75 0.21888 0.00
27 25 7 o 8.938 10.614 -47.30 0.21888 0.00
33 17 5 o 4.675 5.552 -26.38 0.21888 0.00
