#------------------------------------------------------------------------------
#$Date: 2016-02-16 22:30:59 +0200 (Tue, 16 Feb 2016) $
#$Revision: 176467 $
#$URL: svn://www.crystallography.net/cod/cif/4/00/07/4000791.cif $
#------------------------------------------------------------------------------
#
# This file is available in the Crystallography Open Database (COD),
# http://www.crystallography.net/
#
# All data on this site have been placed in the public domain by the
# contributors.
#
data_4000791
loop_
_publ_author_name
'Reeves-McLaren, Nik'
'Smith, Ronald I.'
'West, Anthony R.'
_publ_section_title
;
 Lithium-Ion Conduction Pathways in Complex Lithium Spinels Li2MGe3O8(M =
 Ni or Zn)
;
_journal_issue                   15
_journal_name_full               'Chemistry of Materials'
_journal_page_first              3556
_journal_paper_doi               10.1021/cm201429f
_journal_volume                  23
_journal_year                    2011
_chemical_formula_sum            'Ge3 Li1.99 O8 Zn'
_chemical_formula_weight         424.98
_chemical_name_systematic        ' ?'
_space_group_IT_number           212
_symmetry_cell_setting           cubic
_symmetry_space_group_name_Hall  'P 4acd 2ab 3'
_symmetry_space_group_name_H-M   'P 43 3 2'
_audit_creation_date             2011-07-04T15:58
_audit_creation_method           'from EXP file using GSAS2CIF'
_audit_update_record
' 2011-07-04T15:58  Initial CIF as created by GSAS2CIF'
_cell_angle_alpha                90.0
_cell_angle_beta                 90.0
_cell_angle_gamma                90.0
_cell_formula_units_Z            4
_cell_length_a                   8.28823(17)
_cell_length_b                   8.28823
_cell_length_c                   8.28823
_cell_volume                     569.358(12)
_computing_structure_refinement  GSAS
_diffrn_radiation_probe          neutron
_exptl_absorpt_correction_T_max  1.00000
_exptl_absorpt_correction_T_min  1.00000
_exptl_absorpt_process_details
;   GSAS Absorption/surface roughness correction: function number 0
 No correction is applied.
;
_pd_block_id                     2011-07-04T15:58|LZG-850-ASINPAPER|nik|polaris
_pd_calc_method                  'Rietveld Refinement'
_pd_instr_location               ' ?'
_pd_meas_2theta_fixed            90.00
_pd_meas_number_of_points        5525
_pd_phase_name                   LZG
_pd_proc_info_datetime           2011-07-04T15:58:30
_pd_proc_info_excluded_regions   ' ?'
_pd_proc_ls_background_function
;   GSAS Background function number 1 with  6 terms.
 Shifted Chebyshev function of 1st kind
      1:   0.624974     2:  -5.355500E-02 3:   7.694920E-02 4:  -2.872910E-02
      5:   2.143050E-02 6:  -4.301710E-03
;
_pd_proc_ls_peak_cutoff          0.00100
_pd_proc_ls_profile_function
;
 TOF Profile function number 3 with  21 terms
 Profile coefficients for exponential pseudovoigt
  convolution Von Dreele, 1990 (unpublished)
 Peak tails are ignored  where the intensity is below 0.0010 times the peak
   Aniso. broadening axis   0.0   0.0   1.0
;
_pd_proc_ls_prof_R_factor        0.0383
_pd_proc_ls_prof_wR_expected     0.0176
_pd_proc_ls_prof_wR_factor       0.0252
_pd_proc_number_of_points        5525
_pd_spec_mounting                ' ?'
_refine_ls_goodness_of_fit_all   1.43
_refine_ls_matrix_type           full
_refine_ls_number_parameters     0
_refine_ls_number_restraints     0
_refine_ls_R_Fsqd_factor         0.11522
_refine_ls_shift/su_max          0.06
_refine_ls_shift/su_mean         0.01
_reflns_d_resolution_high        0.500
_reflns_d_resolution_low         3.707
_reflns_limit_h_max              17
_reflns_limit_h_min              1
_reflns_limit_k_max              12
_reflns_limit_k_min              0
_reflns_limit_l_max              10
_reflns_limit_l_min              0
_reflns_number_total             529
_cod_data_source_file            cm201429f_si_004.cif
_cod_data_source_block           LZG-850-ASINPAPER_publ
_cod_original_cell_volume        569.358(35)
_cod_original_formula_sum        'Ge3 Li1.99 O8 Zn1.00'
_cod_database_code               4000791
#BEGIN Tags that were not found in dictionaries:
_gsas_exptl_extinct_corr_t_min   1.00000
_gsas_exptl_extinct_corr_t_max   1.00000
#END Tags that were not found in dictionaries
loop_
_symmetry_equiv_pos_site_id
_symmetry_equiv_pos_as_xyz
1 +x,+y,+z
2 +z,+x,+y
3 +y,+z,+x
4 -y+3/4,+x+1/4,+z+3/4
5 +z+3/4,-y+3/4,+x+1/4
6 +x+1/4,+z+3/4,-y+3/4
7 -x+1/2,-y,+z+1/2
8 -z,+x+1/2,-y+1/2
9 -y+1/2,-z,+x+1/2
10 +x+1/2,-y+1/2,-z
11 +z+1/2,-x+1/2,-y
12 -y,+z+1/2,-x+1/2
13 +y+3/4,-x+3/4,+z+1/4
14 +z+1/4,+y+3/4,-x+3/4
15 -x+3/4,+z+1/4,+y+3/4
16 -x+1/4,-z+1/4,-y+1/4
17 -y+1/4,-x+1/4,-z+1/4
18 -z+1/4,-y+1/4,-x+1/4
19 +y+1/2,-z+1/2,-x
20 +y+1/4,+x+3/4,-z+3/4
21 -z+3/4,+y+1/4,+x+3/4
22 +x+3/4,-z+3/4,+y+1/4
23 -x,+y+1/2,-z+1/2
24 -z+1/2,-x,+y+1/2
loop_
_atom_site_type_symbol
_atom_site_label
_atom_site_fract_x
_atom_site_fract_y
_atom_site_fract_z
_atom_site_occupancy
_atom_site_thermal_displace_type
_atom_site_U_iso_or_equiv
_atom_site_symmetry_multiplicity
Li LI1 0.00492 0.00492 0.00492 0.5 Uiso 0.0108 8
Zn ZN2 0.00492 0.00492 0.00492 0.5 Uiso 0.0108 8
Li LI3 0.125 0.125 0.125 0.13168 Uiso 0.005 4
Ge GE4 0.125 0.37622 0.87378 1.0 Uiso 0.01038 12
O- O5 0.38738 0.38738 0.38738 1.0 Uiso 0.01416 8
O- O6 0.09689 0.1334 0.3942 1.0 Uiso 0.01342 24
Li LI7 0.625 0.625 0.625 0.61834 Uiso 0.005 4
Li LI8 0.98478 0.18012 0.01096 0.04069 Uiso 0.005 24
loop_
_atom_type_symbol
_atom_type_number_in_cell
_atom_type_scat_length_neutron
_atom_type_scat_source
Li+1 4.527 -0.1900 International_Tables_Vol_C
Zn+2 4.0 0.5680 International_Tables_Vol_C
Ge+4 12.0 0.8185 International_Tables_Vol_C
O-2 32.0 0.5805 International_Tables_Vol_C
Li 3.45 -0.1900 International_Tables_Vol_C
loop_
_pd_meas_time_of_flight
_pd_proc_d_spacing
_pd_meas_intensity_total
_pd_proc_ls_weight
_pd_proc_intensity_bkg_calc
_pd_calc_intensity_total
1000.00 . 0.876(12) . . .
1001.00 . 0.870(12) . . .
1002.00 . 0.869(12) . . .
1003.00 . 0.882(12) . . .
1004.00 . 0.884(12) . . .
1005.00 . 0.880(12) . . .
1006.00 . 0.883(12) . . .
1007.00 . 0.877(12) . . .
1008.00 . 0.877(12) . . .
1009.00 . 0.892(12) . . .
1010.00 . 0.898(12) . . .
1011.00 . 0.888(12) . . .
1012.00 . 0.889(12) . . .
1013.00 . 0.885(12) . . .
1014.00 . 0.874(12) . . .
1015.00 . 0.868(12) . . .
1016.00 . 0.866(12) . . .
1017.00 . 0.862(12) . . .
1018.00 . 0.871(12) . . .
1019.00 . 0.879(12) . . .
1020.00 . 0.875(12) . . .
1021.00 . 0.882(12) . . .
1022.00 . 0.898(12) . . .
1023.00 . 0.891(12) . . .
1024.00 . 0.885(12) . . .
1025.00 . 0.876(12) . . .
1026.00 . 0.885(12) . . .
1027.00 . 0.897(12) . . .
1028.00 . 0.886(12) . . .
1029.00 . 0.880(12) . . .
1030.00 . 0.881(12) . . .
1031.00 . 0.891(12) . . .
1032.00 . 0.897(12) . . .
1033.00 . 0.879(12) . . .
1034.00 . 0.882(12) . . .
1035.00 . 0.871(12) . . .
1036.00 . 0.876(12) . . .
1037.00 . 0.876(12) . . .
1038.00 . 0.892(12) . . .
1039.00 . 0.895(12) . . .
1040.00 . 0.882(12) . . .
1041.00 . 0.871(12) . . .
1042.00 . 0.877(12) . . .
1043.00 . 0.882(12) . . .
1044.00 . 0.877(12) . . .
1045.00 . 0.870(12) . . .
1046.00 . 0.872(12) . . .
1047.00 . 0.884(12) . . .
1048.00 . 0.888(12) . . .
1049.00 . 0.889(12) . . .
1050.00 . 0.897(12) . . .
1051.00 . 0.892(12) . . .
1052.00 . 0.883(12) . . .
1053.00 . 0.881(12) . . .
1054.00 . 0.869(12) . . .
1055.00 . 0.872(12) . . .
1056.00 . 0.879(12) . . .
1057.00 . 0.880(12) . . .
1058.00 . 0.886(12) . . .
1059.00 . 0.894(12) . . .
1060.00 . 0.890(12) . . .
1061.00 . 0.895(12) . . .
1062.00 . 0.884(12) . . .
1063.00 . 0.885(12) . . .
1064.00 . 0.887(12) . . .
1065.00 . 0.889(12) . . .
1066.00 . 0.877(12) . . .
1067.00 . 0.872(12) . . .
1068.00 . 0.859(12) . . .
1069.00 . 0.879(12) . . .
1070.00 . 0.869(12) . . .
1071.00 . 0.879(12) . . .
1072.00 . 0.888(12) . . .
1073.00 . 0.885(12) . . .
1074.00 . 0.894(12) . . .
1075.00 . 0.876(12) . . .
1076.00 . 0.875(12) . . .
1077.00 . 0.878(12) . . .
1078.00 . 0.877(12) . . .
1079.00 . 0.866(12) . . .
1080.00 . 0.868(12) . . .
1081.00 . 0.888(12) . . .
1082.00 . 0.887(12) . . .
1083.00 . 0.884(12) . . .
1084.00 . 0.879(12) . . .
1085.00 . 0.890(12) . . .
1086.00 . 0.891(12) . . .
1087.00 . 0.880(12) . . .
1088.00 . 0.877(12) . . .
1089.00 . 0.871(12) . . .
1090.00 . 0.868(12) . . .
1091.00 . 0.870(12) . . .
1092.00 . 0.870(12) . . .
1093.00 . 0.879(12) . . .
1094.00 . 0.876(12) . . .
1095.00 . 0.878(12) . . .
1096.00 . 0.898(12) . . .
1097.00 . 0.897(12) . . .
1098.00 . 0.883(12) . . .
1099.00 . 0.884(12) . . .
1100.00 . 0.873(12) . . .
1101.00 . 0.882(12) . . .
1102.00 . 0.873(12) . . .
1103.00 . 0.876(12) . . .
1104.00 . 0.888(12) . . .
1105.00 . 0.891(12) . . .
1106.00 . 0.872(12) . . .
1107.00 . 0.872(12) . . .
1108.00 . 0.858(12) . . .
1109.00 . 0.882(12) . . .
1110.00 . 0.873(12) . . .
1111.00 . 0.880(12) . . .
1112.00 . 0.872(12) . . .
1113.00 . 0.877(12) . . .
1114.00 . 0.866(12) . . .
1115.00 . 0.867(12) . . .
1116.00 . 0.883(12) . . .
1117.00 . 0.878(12) . . .
1118.00 . 0.875(12) . . .
1119.00 . 0.876(12) . . .
1120.00 . 0.882(12) . . .
1121.00 . 0.880(12) . . .
1122.00 . 0.879(12) . . .
1123.00 . 0.875(12) . . .
1124.00 . 0.873(12) . . .
1125.00 . 0.882(12) . . .
1126.00 . 0.881(12) . . .
1127.00 . 0.881(12) . . .
1128.00 . 0.875(12) . . .
1129.00 . 0.871(12) . . .
1130.00 . 0.874(12) . . .
1131.00 . 0.880(12) . . .
1132.00 . 0.879(12) . . .
1133.00 . 0.874(12) . . .
1134.00 . 0.878(12) . . .
1135.00 . 0.880(12) . . .
1136.00 . 0.885(12) . . .
1137.00 . 0.881(12) . . .
1138.00 . 0.878(12) . . .
1139.00 . 0.873(12) . . .
1140.00 . 0.879(12) . . .
1141.00 . 0.888(12) . . .
1142.00 . 0.890(12) . . .
1143.00 . 0.897(12) . . .
1144.00 . 0.886(12) . . .
1145.00 . 0.897(12) . . .
1146.00 . 0.898(12) . . .
1147.00 . 0.868(12) . . .
1148.00 . 0.872(12) . . .
1149.00 . 0.876(12) . . .
1150.00 . 0.876(12) . . .
1151.00 . 0.864(12) . . .
1152.00 . 0.869(12) . . .
1153.00 . 0.887(12) . . .
1154.00 . 0.890(12) . . .
1155.00 . 0.890(12) . . .
1156.00 . 0.887(12) . . .
1157.00 . 0.893(12) . . .
1158.00 . 0.890(12) . . .
1159.00 . 0.879(12) . . .
1160.00 . 0.876(12) . . .
1161.00 . 0.887(12) . . .
1162.00 . 0.878(12) . . .
1163.00 . 0.870(12) . . .
1164.00 . 0.879(12) . . .
1165.00 . 0.879(12) . . .
1166.00 . 0.870(12) . . .
1167.00 . 0.870(12) . . .
1168.00 . 0.875(12) . . .
1169.00 . 0.882(12) . . .
1170.00 . 0.879(12) . . .
1171.00 . 0.880(12) . . .
1172.00 . 0.872(12) . . .
1173.00 . 0.869(12) . . .
1174.00 . 0.865(12) . . .
1175.00 . 0.869(12) . . .
1176.00 . 0.873(12) . . .
1177.00 . 0.883(12) . . .
1178.00 . 0.872(12) . . .
1179.00 . 0.874(12) . . .
1180.00 . 0.867(12) . . .
1181.00 . 0.860(12) . . .
1182.00 . 0.875(12) . . .
1183.00 . 0.889(12) . . .
1184.00 . 0.890(12) . . .
1185.00 . 0.890(12) . . .
1186.00 . 0.888(12) . . .
1187.00 . 0.873(12) . . .
1188.00 . 0.878(12) . . .
1189.00 . 0.863(12) . . .
1190.00 . 0.876(12) . . .
1191.00 . 0.879(12) . . .
1192.00 . 0.872(12) . . .
1193.00 . 0.873(12) . . .
1194.00 . 0.867(12) . . .
1195.00 . 0.871(12) . . .
1196.00 . 0.874(12) . . .
1197.00 . 0.872(12) . . .
1198.00 . 0.865(12) . . .
1199.00 . 0.869(12) . . .
1200.00 . 0.878(12) . . .
1201.00 . 0.889(12) . . .
1202.00 . 0.884(12) . . .
1203.00 . 0.869(12) . . .
1204.00 . 0.863(12) . . .
1205.00 . 0.870(12) . . .
1206.00 . 0.878(12) . . .
1207.00 . 0.886(12) . . .
1208.00 . 0.883(12) . . .
1209.00 . 0.880(12) . . .
1210.00 . 0.873(12) . . .
1211.00 . 0.867(12) . . .
1212.00 . 0.868(12) . . .
1213.00 . 0.885(12) . . .
1214.00 . 0.879(12) . . .
1215.00 . 0.871(12) . . .
1216.00 . 0.895(12) . . .
1217.00 . 0.886(12) . . .
1218.00 . 0.878(12) . . .
1219.00 . 0.876(12) . . .
1220.00 . 0.882(12) . . .
1221.00 . 0.884(12) . . .
1222.00 . 0.884(12) . . .
1223.00 . 0.870(12) . . .
1224.00 . 0.873(12) . . .
1225.00 . 0.874(12) . . .
1226.00 . 0.865(12) . . .
1227.00 . 0.869(12) . . .
1228.00 . 0.868(12) . . .
1229.00 . 0.869(12) . . .
1230.00 . 0.876(12) . . .
1231.00 . 0.870(12) . . .
1232.00 . 0.877(12) . . .
1233.00 . 0.869(12) . . .
1234.00 . 0.870(12) . . .
1235.00 . 0.888(12) . . .
1236.00 . 0.874(12) . . .
1237.00 . 0.867(12) . . .
1238.00 . 0.875(12) . . .
1239.00 . 0.870(12) . . .
1240.00 . 0.871(12) . . .
1241.00 . 0.881(12) . . .
1242.00 . 0.873(12) . . .
1243.00 . 0.871(12) . . .
1244.00 . 0.876(12) . . .
1245.00 . 0.869(12) . . .
1246.00 . 0.875(12) . . .
1247.00 . 0.892(12) . . .
1248.00 . 0.883(12) . . .
1249.00 . 0.872(12) . . .
1250.00 . 0.865(12) . . .
1251.00 . 0.872(12) . . .
1252.00 . 0.868(12) . . .
1253.00 . 0.876(12) . . .
1254.00 . 0.876(12) . . .
1255.00 . 0.881(12) . . .
1256.00 . 0.887(12) . . .
1257.00 . 0.877(12) . . .
1258.00 . 0.869(12) . . .
1259.00 . 0.873(12) . . .
1260.00 . 0.879(12) . . .
1261.00 . 0.868(12) . . .
1262.00 . 0.886(12) . . .
1263.00 . 0.874(12) . . .
1264.00 . 0.861(12) . . .
1265.00 . 0.864(12) . . .
1266.00 . 0.878(12) . . .
1267.00 . 0.875(12) . . .
1268.00 . 0.874(12) . . .
1269.00 . 0.871(12) . . .
1270.00 . 0.873(12) . . .
1271.00 . 0.878(12) . . .
1272.00 . 0.882(12) . . .
1273.00 . 0.863(12) . . .
1274.00 . 0.864(12) . . .
1275.00 . 0.880(12) . . .
1276.00 . 0.882(12) . . .
1277.00 . 0.871(12) . . .
1278.00 . 0.877(12) . . .
1279.00 . 0.886(12) . . .
1280.00 . 0.877(12) . . .
1281.00 . 0.867(12) . . .
1282.00 . 0.872(12) . . .
1283.00 . 0.869(12) . . .
1284.00 . 0.870(12) . . .
1285.00 . 0.876(12) . . .
1286.00 . 0.869(12) . . .
1287.00 . 0.865(12) . . .
1288.00 . 0.878(12) . . .
1289.00 . 0.881(12) . . .
1290.00 . 0.884(12) . . .
1291.00 . 0.887(12) . . .
1292.00 . 0.875(12) . . .
1293.00 . 0.878(12) . . .
1294.00 . 0.872(12) . . .
1295.00 . 0.865(12) . . .
1296.00 . 0.873(12) . . .
1297.00 . 0.877(12) . . .
1298.00 . 0.860(12) . . .
1299.00 . 0.860(12) . . .
1300.00 . 0.865(12) . . .
1301.00 . 0.865(12) . . .
1302.00 . 0.876(12) . . .
1303.00 . 0.860(12) . . .
1304.00 . 0.871(12) . . .
1305.00 . 0.860(12) . . .
1306.00 . 0.866(12) . . .
1307.00 . 0.864(12) . . .
1308.00 . 0.854(12) . . .
1309.00 . 0.864(12) . . .
1310.00 . 0.873(12) . . .
1311.00 . 0.873(12) . . .
1312.00 . 0.878(12) . . .
1313.00 . 0.880(12) . . .
1314.00 . 0.870(12) . . .
1315.00 . 0.870(12) . . .
1316.00 . 0.877(12) . . .
1317.00 . 0.878(12) . . .
1318.00 . 0.884(12) . . .
1319.00 . 0.882(12) . . .
1320.00 . 0.883(12) . . .
1321.00 . 0.876(12) . . .
1322.00 . 0.869(12) . . .
1323.00 . 0.861(12) . . .
1324.00 . 0.864(12) . . .
1325.00 . 0.858(12) . . .
1326.00 . 0.867(12) . . .
1327.00 . 0.863(12) . . .
1328.00 . 0.868(12) . . .
1329.00 . 0.879(12) . . .
1330.00 . 0.869(12) . . .
1331.00 . 0.868(12) . . .
1332.00 . 0.865(12) . . .
1333.00 . 0.871(12) . . .
1334.00 . 0.882(12) . . .
1335.00 . 0.861(12) . . .
1336.00 . 0.867(12) . . .
1337.00 . 0.876(12) . . .
1338.00 . 0.885(12) . . .
1339.00 . 0.881(12) . . .
1340.00 . 0.893(12) . . .
1341.00 . 0.880(12) . . .
1342.00 . 0.868(12) . . .
1343.00 . 0.873(12) . . .
1344.00 . 0.880(12) . . .
1345.00 . 0.876(12) . . .
1346.00 . 0.871(12) . . .
1347.00 . 0.871(12) . . .
1348.00 . 0.875(12) . . .
1349.00 . 0.873(12) . . .
1350.00 . 0.872(12) . . .
1351.00 . 0.876(12) . . .
1352.00 . 0.870(12) . . .
1353.00 . 0.869(12) . . .
1354.00 . 0.866(12) . . .
1355.00 . 0.866(12) . . .
1356.00 . 0.875(12) . . .
1357.00 . 0.880(12) . . .
1358.00 . 0.879(12) . . .
1359.00 . 0.887(12) . . .
1360.00 . 0.888(12) . . .
1361.00 . 0.882(12) . . .
1362.00 . 0.859(12) . . .
1363.00 . 0.878(12) . . .
1364.00 . 0.874(12) . . .
1365.00 . 0.879(12) . . .
1366.00 . 0.893(12) . . .
1367.00 . 0.888(12) . . .
1368.00 . 0.871(12) . . .
1369.00 . 0.868(12) . . .
1370.00 . 0.867(12) . . .
1371.00 . 0.873(12) . . .
1372.00 . 0.872(12) . . .
1373.00 . 0.882(12) . . .
1374.00 . 0.882(12) . . .
1375.00 . 0.889(12) . . .
1376.00 . 0.870(12) . . .
1377.00 . 0.873(12) . . .
1378.00 . 0.875(12) . . .
1379.00 . 0.871(12) . . .
1380.00 . 0.876(12) . . .
1381.00 . 0.865(12) . . .
1382.00 . 0.858(12) . . .
1383.00 . 0.853(12) . . .
1384.00 . 0.868(12) . . .
1385.00 . 0.868(12) . . .
1386.00 . 0.866(12) . . .
1387.00 . 0.859(12) . . .
1388.00 . 0.863(12) . . .
1389.00 . 0.879(12) . . .
1390.00 . 0.880(12) . . .
1391.00 . 0.875(12) . . .
1392.00 . 0.875(12) . . .
1393.00 . 0.871(12) . . .
1394.00 . 0.859(12) . . .
1395.00 . 0.860(12) . . .
1396.00 . 0.865(12) . . .
1397.00 . 0.876(12) . . .
1398.00 . 0.893(12) . . .
1399.00 . 0.896(12) . . .
1400.00 . 0.886(12) . . .
1401.00 . 0.886(12) . . .
1402.00 . 0.875(12) . . .
1403.00 . 0.879(12) . . .
1404.00 . 0.870(12) . . .
1405.00 . 0.864(12) . . .
1406.00 . 0.871(12) . . .
1407.00 . 0.870(12) . . .
1408.00 . 0.900(12) . . .
1409.00 . 0.898(12) . . .
1410.00 . 0.891(12) . . .
1411.00 . 0.881(12) . . .
1412.00 . 0.859(12) . . .
1413.00 . 0.879(12) . . .
1414.00 . 0.879(12) . . .
1415.00 . 0.864(12) . . .
1416.00 . 0.873(12) . . .
1417.00 . 0.873(12) . . .
1418.00 . 0.879(12) . . .
1419.00 . 0.877(12) . . .
1420.00 . 0.879(12) . . .
1421.00 . 0.872(12) . . .
1422.00 . 0.874(12) . . .
1423.00 . 0.873(12) . . .
1424.00 . 0.875(12) . . .
1425.00 . 0.880(12) . . .
1426.00 . 0.876(12) . . .
1427.00 . 0.865(12) . . .
1428.00 . 0.870(12) . . .
1429.00 . 0.889(12) . . .
1430.00 . 0.881(12) . . .
1431.00 . 0.864(12) . . .
1432.00 . 0.866(12) . . .
1433.00 . 0.876(12) . . .
1434.00 . 0.876(12) . . .
1435.00 . 0.871(12) . . .
1436.00 . 0.870(12) . . .
1437.00 . 0.862(12) . . .
1438.00 . 0.865(12) . . .
1439.00 . 0.865(12) . . .
1440.00 . 0.859(12) . . .
1441.00 . 0.863(12) . . .
1442.00 . 0.868(12) . . .
1443.00 . 0.867(12) . . .
1444.00 . 0.847(12) . . .
1445.00 . 0.866(12) . . .
1446.00 . 0.877(12) . . .
1447.00 . 0.862(12) . . .
1448.00 . 0.864(12) . . .
1449.00 . 0.885(12) . . .
1450.00 . 0.883(12) . . .
1451.00 . 0.875(12) . . .
1452.00 . 0.882(12) . . .
1453.00 . 0.872(12) . . .
1454.00 . 0.859(12) . . .
1455.00 . 0.860(12) . . .
1456.00 . 0.869(12) . . .
1457.00 . 0.871(12) . . .
1458.00 . 0.869(12) . . .
1459.00 . 0.874(12) . . .
1460.00 . 0.867(12) . . .
1461.00 . 0.860(12) . . .
1462.00 . 0.852(12) . . .
1463.00 . 0.859(12) . . .
1464.00 . 0.867(12) . . .
1465.00 . 0.877(12) . . .
1466.00 . 0.871(12) . . .
1467.00 . 0.855(12) . . .
1468.00 . 0.861(12) . . .
1469.00 . 0.865(12) . . .
1470.00 . 0.854(12) . . .
1471.00 . 0.853(12) . . .
1472.00 . 0.853(12) . . .
1473.00 . 0.862(12) . . .
1474.00 . 0.869(12) . . .
1475.00 . 0.873(12) . . .
1476.00 . 0.873(12) . . .
1477.00 . 0.877(12) . . .
1478.00 . 0.871(12) . . .
1479.00 . 0.868(12) . . .
1480.00 . 0.874(12) . . .
1481.00 . 0.864(12) . . .
1482.00 . 0.864(12) . . .
1483.00 . 0.857(12) . . .
1484.00 . 0.846(12) . . .
1485.00 . 0.853(12) . . .
1486.00 . 0.876(12) . . .
1487.00 . 0.863(12) . . .
1488.00 . 0.847(12) . . .
1489.00 . 0.851(12) . . .
1490.00 . 0.856(12) . . .
1491.00 . 0.859(12) . . .
1492.00 . 0.869(12) . . .
1493.00 . 0.862(12) . . .
1494.00 . 0.862(12) . . .
1495.00 . 0.854(12) . . .
1496.00 . 0.856(12) . . .
1497.00 . 0.858(12) . . .
1498.00 . 0.855(12) . . .
1499.00 . 0.855(12) . . .
1500.00 . 0.866(12) . . .
1501.00 . 0.878(12) . . .
1502.00 . 0.868(12) . . .
1503.00 . 0.864(12) . . .
1504.00 . 0.866(12) . . .
1505.00 . 0.874(12) . . .
1506.00 . 0.870(12) . . .
1507.00 . 0.854(12) . . .
1508.00 . 0.855(12) . . .
1509.00 . 0.859(12) . . .
1510.00 . 0.858(12) . . .
1511.00 . 0.857(12) . . .
1512.00 . 0.848(12) . . .
1513.00 . 0.850(12) . . .
1514.00 . 0.856(12) . . .
1515.00 . 0.864(12) . . .
1516.00 . 0.853(12) . . .
1517.00 . 0.865(12) . . .
1518.00 . 0.873(12) . . .
1519.00 . 0.871(12) . . .
1520.00 . 0.853(12) . . .
1521.00 . 0.849(12) . . .
1522.00 . 0.858(12) . . .
1523.00 . 0.859(12) . . .
1524.00 . 0.857(12) . . .
1525.00 . 0.869(12) . . .
1526.00 . 0.858(12) . . .
1527.00 . 0.870(12) . . .
1528.00 . 0.873(12) . . .
1529.00 . 0.858(12) . . .
1530.00 . 0.862(12) . . .
1531.00 . 0.858(12) . . .
1532.00 . 0.866(12) . . .
1533.00 . 0.865(12) . . .
1534.00 . 0.860(12) . . .
1535.00 . 0.867(12) . . .
1536.00 . 0.868(12) . . .
1537.00 . 0.866(12) . . .
1538.00 . 0.860(12) . . .
1539.00 . 0.855(12) . . .
1540.00 . 0.865(12) . . .
1541.00 . 0.862(12) . . .
1542.00 . 0.852(12) . . .
1543.00 . 0.859(12) . . .
1544.00 . 0.854(12) . . .
1545.00 . 0.847(12) . . .
1546.00 . 0.856(12) . . .
1547.00 . 0.862(12) . . .
1548.00 . 0.862(12) . . .
1549.00 . 0.860(12) . . .
1550.00 . 0.862(12) . . .
1551.00 . 0.878(13) . . .
1552.00 . 0.873(12) . . .
1553.00 . 0.871(12) . . .
1554.00 . 0.870(12) . . .
1555.00 . 0.867(12) . . .
1556.00 . 0.869(12) . . .
1557.00 . 0.867(12) . . .
1558.00 . 0.866(12) . . .
1559.00 . 0.854(12) . . .
1560.00 . 0.868(12) . . .
1561.00 . 0.875(13) . . .
1562.00 . 0.857(12) . . .
1563.00 . 0.844(12) . . .
1564.00 . 0.866(12) . . .
1565.00 . 0.875(13) . . .
1566.00 . 0.874(13) . . .
1567.00 . 0.863(12) . . .
1568.00 . 0.869(12) . . .
1569.00 . 0.869(12) . . .
1570.00 . 0.865(12) . . .
1571.00 . 0.863(12) . . .
1572.00 . 0.865(12) . . .
1573.00 . 0.862(12) . . .
1574.00 . 0.849(12) . . .
1575.00 . 0.864(12) . . .
1576.00 . 0.862(12) . . .
1577.00 . 0.867(12) . . .
1578.00 . 0.862(12) . . .
1579.00 . 0.872(13) . . .
1580.00 . 0.868(12) . . .
1581.00 . 0.854(12) . . .
1582.00 . 0.865(12) . . .
1583.00 . 0.874(13) . . .
1584.00 . 0.871(13) . . .
1585.00 . 0.854(12) . . .
1586.00 . 0.855(12) . . .
1587.00 . 0.855(12) . . .
1588.00 . 0.859(12) . . .
1589.00 . 0.867(13) . . .
1590.00 . 0.862(12) . . .
1591.00 . 0.865(12) . . .
1592.00 . 0.876(13) . . .
1593.00 . 0.878(13) . . .
1594.00 . 0.878(13) . . .
1595.00 . 0.861(12) . . .
1596.00 . 0.873(13) . . .
1597.00 . 0.867(13) . . .
1598.00 . 0.870(13) . . .
1599.00 . 0.868(13) . . .
1600.00 . 0.877(13) . . .
1601.00 . 0.863(13) . . .
1602.00 . 0.861(12) . . .
1603.00 . 0.869(13) . . .
1604.00 . 0.850(12) . . .
1605.00 . 0.855(12) . . .
1606.00 . 0.870(13) . . .
1607.00 . 0.869(13) . . .
1608.00 . 0.872(13) . . .
1609.00 . 0.867(13) . . .
1610.00 . 0.858(12) . . .
1611.00 . 0.861(13) . . .
1612.00 . 0.858(12) . . .
1613.00 . 0.863(13) . . .
1614.00 . 0.873(13) . . .
1615.00 . 0.887(13) . . .
1616.00 . 0.880(13) . . .
1617.00 . 0.863(13) . . .
1618.00 . 0.872(13) . . .
1619.00 . 0.878(13) . . .
1620.00 . 0.866(13) . . .
1621.00 . 0.872(13) . . .
1622.00 . 0.878(13) . . .
1623.00 . 0.875(13) . . .
1624.00 . 0.861(13) . . .
1625.00 . 0.856(13) . . .
1626.00 . 0.875(13) . . .
1627.00 . 0.875(13) . . .
1628.00 . 0.857(13) . . .
1629.00 . 0.854(12) . . .
1630.00 . 0.869(13) . . .
1631.00 . 0.873(13) . . .
1632.00 . 0.870(13) . . .
1633.00 . 0.870(13) . . .
1634.00 . 0.856(13) . . .
1635.00 . 0.866(13) . . .
1636.00 . 0.868(13) . . .
1637.00 . 0.860(13) . . .
1638.00 . 0.867(13) . . .
1639.00 . 0.888(13) . . .
1640.00 . 0.879(13) . . .
1641.00 . 0.858(13) . . .
1642.00 . 0.867(13) . . .
1643.00 . 0.872(13) . . .
1644.00 . 0.868(13) . . .
1645.00 . 0.876(13) . . .
1646.00 . 0.893(13) . . .
1647.00 . 0.887(13) . . .
1648.00 . 0.893(13) . . .
1649.00 . 0.886(13) . . .
1650.00 . 0.873(13) . . .
1651.00 . 0.865(13) . . .
1652.00 . 0.869(13) . . .
1653.00 . 0.865(13) . . .
1654.00 . 0.874(13) . . .
1655.00 . 0.884(13) . . .
1656.00 . 0.879(13) . . .
1657.00 . 0.870(13) . . .
1658.00 . 0.878(13) . . .
1659.00 . 0.877(13) . . .
1660.00 . 0.874(13) . . .
1661.00 . 0.870(13) . . .
1662.00 . 0.867(13) . . .
1663.00 . 0.867(13) . . .
1664.00 . 0.871(13) . . .
1665.00 . 0.885(13) . . .
1666.00 . 0.881(13) . . .
1667.00 . 0.859(13) . . .
1668.00 . 0.869(13) . . .
1669.00 . 0.868(13) . . .
1670.00 . 0.872(13) . . .
1671.00 . 0.873(13) . . .
1672.00 . 0.859(13) . . .
1673.00 . 0.858(13) . . .
1674.00 . 0.852(13) . . .
1675.00 . 0.855(13) . . .
1676.00 . 0.876(13) . . .
1677.00 . 0.870(13) . . .
1678.00 . 0.879(13) . . .
1679.00 . 0.868(13) . . .
1680.00 . 0.863(13) . . .
1681.00 . 0.877(13) . . .
1682.00 . 0.865(13) . . .
1683.00 . 0.847(13) . . .
1684.00 . 0.862(13) . . .
1685.00 . 0.865(13) . . .
1686.00 . 0.879(13) . . .
1687.00 . 0.874(13) . . .
1688.00 . 0.859(13) . . .
1689.00 . 0.853(13) . . .
1690.00 . 0.854(13) . . .
1691.00 . 0.869(13) . . .
1692.00 . 0.866(13) . . .
1693.00 . 0.869(13) . . .
1694.00 . 0.864(13) . . .
1695.00 . 0.858(13) . . .
1696.00 . 0.861(13) . . .
1697.00 . 0.878(13) . . .
1698.00 . 0.883(13) . . .
1699.00 . 0.871(13) . . .
1700.00 . 0.866(13) . . .
1701.00 . 0.880(13) . . .
1702.00 . 0.878(13) . . .
1703.00 . 0.864(13) . . .
1704.00 . 0.850(13) . . .
1705.00 . 0.850(13) . . .
1706.00 . 0.873(13) . . .
1707.00 . 0.882(13) . . .
1708.00 . 0.878(13) . . .
1709.00 . 0.866(13) . . .
1710.00 . 0.863(13) . . .
1711.00 . 0.856(13) . . .
1712.00 . 0.851(13) . . .
1713.00 . 0.854(13) . . .
1714.00 . 0.860(13) . . .
1715.00 . 0.867(13) . . .
1716.00 . 0.856(13) . . .
1717.00 . 0.858(13) . . .
1718.00 . 0.878(13) . . .
1719.00 . 0.878(13) . . .
1720.00 . 0.862(13) . . .
1721.00 . 0.862(13) . . .
1722.00 . 0.854(13) . . .
1723.00 . 0.859(13) . . .
1724.00 . 0.869(13) . . .
1725.00 . 0.858(13) . . .
1726.00 . 0.858(13) . . .
1727.00 . 0.857(13) . . .
1728.00 . 0.854(13) . . .
1729.00 . 0.856(13) . . .
1730.00 . 0.865(13) . . .
1731.00 . 0.865(13) . . .
1732.00 . 0.859(13) . . .
1733.00 . 0.852(13) . . .
1734.00 . 0.852(13) . . .
1735.00 . 0.856(13) . . .
1736.00 . 0.862(13) . . .
1737.00 . 0.863(13) . . .
1738.00 . 0.863(13) . . .
1739.00 . 0.862(13) . . .
1740.00 . 0.852(13) . . .
1741.00 . 0.855(13) . . .
1742.00 . 0.856(13) . . .
1743.00 . 0.862(13) . . .
1744.00 . 0.856(13) . . .
1745.00 . 0.853(13) . . .
1746.00 . 0.864(13) . . .
1747.00 . 0.859(13) . . .
1748.00 . 0.866(13) . . .
1749.00 . 0.858(13) . . .
1750.00 . 0.830(13) . . .
1751.00 . 0.836(13) . . .
1752.00 . 0.852(13) . . .
1753.00 . 0.847(13) . . .
1754.00 . 0.859(13) . . .
1755.00 . 0.859(13) . . .
1756.00 . 0.848(13) . . .
1757.00 . 0.860(13) . . .
1758.00 . 0.874(13) . . .
1759.00 . 0.859(13) . . .
1760.00 . 0.855(13) . . .
1761.00 . 0.862(13) . . .
1762.00 . 0.856(13) . . .
1763.00 . 0.854(13) . . .
1764.00 . 0.843(13) . . .
1765.00 . 0.856(13) . . .
1766.00 . 0.859(13) . . .
1767.00 . 0.862(13) . . .
1768.00 . 0.860(13) . . .
1769.00 . 0.861(13) . . .
1770.00 . 0.863(13) . . .
1771.00 . 0.863(13) . . .
1772.00 . 0.851(13) . . .
1773.00 . 0.842(13) . . .
1774.00 . 0.845(13) . . .
1775.00 . 0.848(13) . . .
1776.00 . 0.862(13) . . .
1777.00 . 0.868(13) . . .
1778.00 . 0.866(13) . . .
1779.00 . 0.867(13) . . .
1780.00 . 0.857(13) . . .
1781.00 . 0.853(13) . . .
1782.00 . 0.853(13) . . .
1783.00 . 0.846(13) . . .
1784.00 . 0.849(13) . . .
1785.00 . 0.850(13) . . .
1786.00 . 0.845(13) . . .
1787.00 . 0.840(13) . . .
1788.00 . 0.849(13) . . .
1789.00 . 0.853(13) . . .
1790.00 . 0.844(13) . . .
1791.00 . 0.838(13) . . .
1792.00 . 0.848(13) . . .
1793.00 . 0.842(13) . . .
1794.00 . 0.844(13) . . .
1795.00 . 0.842(13) . . .
1796.00 . 0.851(13) . . .
1797.00 . 0.849(13) . . .
1798.00 . 0.858(13) . . .
1799.00 . 0.854(13) . . .
1800.00 . 0.852(13) . . .
1801.00 . 0.841(13) . . .
1802.00 . 0.840(13) . . .
1803.00 . 0.859(13) . . .
1804.00 . 0.863(13) . . .
1805.00 . 0.855(13) . . .
1806.00 . 0.847(13) . . .
1807.00 . 0.841(13) . . .
1808.00 . 0.844(13) . . .
1809.00 . 0.838(13) . . .
1810.00 . 0.844(13) . . .
1811.00 . 0.854(13) . . .
1812.00 . 0.848(13) . . .
1813.00 . 0.856(13) . . .
1814.00 . 0.856(13) . . .
1815.00 . 0.852(13) . . .
1816.00 . 0.849(13) . . .
1817.00 . 0.847(13) . . .
1818.00 . 0.848(13) . . .
1819.00 . 0.845(13) . . .
1820.00 . 0.851(13) . . .
1821.00 . 0.839(13) . . .
1822.00 . 0.860(13) . . .
1823.00 . 0.866(13) . . .
1824.00 . 0.858(13) . . .
1825.00 . 0.839(13) . . .
1826.00 . 0.844(13) . . .
1827.00 . 0.844(13) . . .
1828.00 . 0.867(13) . . .
1829.00 . 0.846(13) . . .
1830.00 . 0.855(13) . . .
1831.00 . 0.861(13) . . .
1832.00 . 0.865(13) . . .
1833.00 . 0.849(13) . . .
1834.00 . 0.848(13) . . .
1835.00 . 0.851(13) . . .
1836.00 . 0.859(13) . . .
1837.00 . 0.855(13) . . .
1838.00 . 0.862(13) . . .
1839.00 . 0.842(13) . . .
1840.00 . 0.855(13) . . .
1841.00 . 0.848(13) . . .
1842.00 . 0.851(13) . . .
1843.00 . 0.864(13) . . .
1844.00 . 0.862(13) . . .
1845.00 . 0.859(13) . . .
1846.00 . 0.854(13) . . .
1847.00 . 0.853(13) . . .
1848.00 . 0.851(13) . . .
1849.00 . 0.856(13) . . .
1850.00 . 0.859(13) . . .
1851.00 . 0.869(13) . . .
1852.00 . 0.872(13) . . .
1853.00 . 0.860(13) . . .
1854.00 . 0.841(13) . . .
1855.00 . 0.843(13) . . .
1856.00 . 0.859(13) . . .
1857.00 . 0.862(13) . . .
1858.00 . 0.855(13) . . .
1859.00 . 0.859(13) . . .
1860.00 . 0.848(13) . . .
1861.00 . 0.841(13) . . .
1862.00 . 0.855(13) . . .
1863.00 . 0.862(13) . . .
1864.00 . 0.853(13) . . .
1865.00 . 0.851(13) . . .
1866.00 . 0.846(13) . . .
1867.00 . 0.854(13) . . .
1868.00 . 0.850(13) . . .
1869.00 . 0.860(13) . . .
1870.00 . 0.869(13) . . .
1871.00 . 0.857(13) . . .
1872.00 . 0.840(13) . . .
1873.00 . 0.832(13) . . .
1874.00 . 0.857(13) . . .
1875.00 . 0.856(13) . . .
1876.00 . 0.849(13) . . .
1877.00 . 0.861(13) . . .
1878.00 . 0.850(13) . . .
1879.00 . 0.846(13) . . .
1880.00 . 0.850(13) . . .
1881.00 . 0.849(13) . . .
1882.00 . 0.860(13) . . .
1883.00 . 0.859(13) . . .
1884.00 . 0.849(13) . . .
1885.00 . 0.848(13) . . .
1886.00 . 0.860(13) . . .
1887.00 . 0.866(13) . . .
1888.00 . 0.866(13) . . .
1889.00 . 0.864(13) . . .
1890.00 . 0.844(13) . . .
1891.00 . 0.839(13) . . .
1892.00 . 0.854(13) . . .
1893.00 . 0.858(13) . . .
1894.00 . 0.852(13) . . .
1895.00 . 0.849(13) . . .
1896.00 . 0.853(13) . . .
1897.00 . 0.842(13) . . .
1898.00 . 0.839(13) . . .
1899.00 . 0.850(13) . . .
1900.00 . 0.856(13) . . .
1901.00 . 0.862(13) . . .
1902.00 . 0.859(13) . . .
1903.00 . 0.844(13) . . .
1904.00 . 0.842(13) . . .
1905.00 . 0.842(13) . . .
1906.00 . 0.839(13) . . .
1907.00 . 0.848(13) . . .
1908.00 . 0.862(13) . . .
1909.00 . 0.858(13) . . .
1910.00 . 0.851(13) . . .
1911.00 . 0.841(13) . . .
1912.00 . 0.846(13) . . .
1913.00 . 0.858(13) . . .
1914.00 . 0.868(13) . . .
1915.00 . 0.854(13) . . .
1916.00 . 0.834(13) . . .
1917.00 . 0.844(13) . . .
1918.00 . 0.864(13) . . .
1919.00 . 0.860(13) . . .
1920.00 . 0.853(13) . . .
1921.00 . 0.860(13) . . .
1922.00 . 0.854(13) . . .
1923.00 . 0.850(13) . . .
1924.00 . 0.855(13) . . .
1925.00 . 0.849(13) . . .
1926.00 . 0.849(13) . . .
1927.00 . 0.851(13) . . .
1928.00 . 0.855(13) . . .
1929.00 . 0.859(13) . . .
1930.00 . 0.863(13) . . .
1931.00 . 0.858(13) . . .
1932.00 . 0.855(13) . . .
1933.00 . 0.853(13) . . .
1934.00 . 0.876(13) . . .
1935.00 . 0.872(13) . . .
1936.00 . 0.867(13) . . .
1937.00 . 0.859(13) . . .
1938.00 . 0.857(13) . . .
1939.00 . 0.861(13) . . .
1940.00 . 0.836(13) . . .
1941.00 . 0.832(13) . . .
1942.00 . 0.834(13) . . .
1943.00 . 0.866(13) . . .
1944.00 . 0.873(13) . . .
1945.00 . 0.842(13) . . .
1946.00 . 0.852(13) . . .
1947.00 . 0.862(13) . . .
1948.00 . 0.849(13) . . .
1949.00 . 0.845(13) . . .
1950.00 . 0.852(13) . . .
1951.00 . 0.846(13) . . .
1952.00 . 0.835(13) . . .
1953.00 . 0.863(13) . . .
1954.00 . 0.859(13) . . .
1955.00 . 0.845(13) . . .
1956.00 . 0.846(13) . . .
1957.00 . 0.857(13) . . .
1958.00 . 0.862(13) . . .
1959.00 . 0.854(13) . . .
1960.00 . 0.855(13) . . .
1961.00 . 0.855(13) . . .
1962.00 . 0.852(13) . . .
1963.00 . 0.855(13) . . .
1964.00 . 0.863(13) . . .
1965.00 . 0.866(13) . . .
1966.00 . 0.859(13) . . .
1967.00 . 0.858(13) . . .
1968.00 . 0.859(13) . . .
1969.00 . 0.860(13) . . .
1970.00 . 0.866(13) . . .
1971.00 . 0.860(13) . . .
1972.00 . 0.857(13) . . .
1973.00 . 0.868(13) . . .
1974.00 . 0.871(13) . . .
1975.00 . 0.850(13) . . .
1976.00 . 0.860(13) . . .
1977.00 . 0.855(13) . . .
1978.00 . 0.864(13) . . .
1979.00 . 0.862(13) . . .
1980.00 . 0.855(13) . . .
1981.00 . 0.867(13) . . .
1982.00 . 0.867(13) . . .
1983.00 . 0.872(13) . . .
1984.00 . 0.874(13) . . .
1985.00 . 0.859(13) . . .
1986.00 . 0.858(13) . . .
1987.00 . 0.859(13) . . .
1988.00 . 0.844(13) . . .
1989.00 . 0.867(13) . . .
1990.00 . 0.861(13) . . .
1991.00 . 0.864(13) . . .
1992.00 . 0.877(13) . . .
1993.00 . 0.862(13) . . .
1994.00 . 0.868(13) . . .
1995.00 . 0.865(13) . . .
1996.00 . 0.848(13) . . .
1997.00 . 0.856(13) . . .
1998.00 . 0.871(13) . . .
1999.00 . 0.868(13) . . .
2000.00 . 0.856(13) . . .
2001.00 . 0.864(13) . . .
2002.00 . 0.861(13) . . .
2003.00 . 0.844(13) . . .
2004.00 . 0.847(13) . . .
2005.00 . 0.852(13) . . .
2006.00 . 0.856(13) . . .
2007.00 . 0.851(13) . . .
2008.00 . 0.853(13) . . .
2009.03 . 0.856(13) . . .
2010.03 . 0.864(13) . . .
2011.03 . 0.859(13) . . .
2012.03 . 0.859(13) . . .
2013.03 . 0.861(13) . . .
2014.03 . 0.852(13) . . .
2015.06 . 0.871(13) . . .
2016.06 . 0.859(13) . . .
2017.06 . 0.858(13) . . .
2018.06 . 0.850(13) . . .
2019.09 . 0.864(13) . . .
2020.09 . 0.871(13) . . .
2021.09 . 0.851(13) . . .
2022.13 . 0.881(13) . . .
2023.13 . 0.879(13) . . .
2024.13 . 0.870(13) . . .
2025.16 . 0.867(13) . . .
2026.16 . 0.867(13) . . .
2027.19 . 0.865(13) . . .
2028.19 . 0.860(13) . . .
2029.22 . 0.869(13) . . .
2030.22 . 0.882(13) . . .
2031.22 . 0.871(13) . . .
2032.25 . 0.873(13) . . .
2033.25 . 0.849(13) . . .
2034.28 . 0.864(13) . . .
2035.31 . 0.877(13) . . .
2036.31 . 0.871(13) . . .
2037.34 . 0.869(13) . . .
2038.34 . 0.869(13) . . .
2039.38 . 0.849(13) . . .
2040.41 . 0.863(13) . . .
2041.41 . 0.869(13) . . .
2042.44 . 0.844(13) . . .
2043.47 . 0.861(13) . . .
2044.47 . 0.854(13) . . .
2045.50 . 0.851(13) . . .
2046.53 . 0.854(13) . . .
2047.53 . 0.844(13) . . .
2048.56 . 0.847(13) . . .
2049.59 . 0.854(13) . . .
2050.63 . 0.854(13) . . .
2051.66 . 0.830(13) . . .
2052.66 . 0.841(13) . . .
2053.69 . 0.839(13) . . .
2054.72 . 0.863(13) . . .
2055.75 . 0.867(13) . . .
2056.78 . 0.859(13) . . .
2057.81 . 0.858(13) . . .
2058.84 . 0.857(13) . . .
2059.88 . 0.864(13) . . .
2060.91 . 0.857(13) . . .
2061.94 . 0.866(13) . . .
2062.97 . 0.861(13) . . .
2064.00 . 0.863(13) . . .
2065.03 . 0.861(13) . . .
2066.06 . 0.869(13) . . .
2067.09 . 0.873(13) . . .
2068.13 . 0.868(13) . . .
2069.16 . 0.856(13) . . .
2070.19 . 0.860(13) . . .
2071.22 . 0.863(13) . . .
2072.25 . 0.863(13) . . .
2073.28 . 0.864(13) . . .
2074.34 . 0.872(13) . . .
2075.38 . 0.878(13) . . .
2076.41 . 0.876(13) . . .
2077.44 . 0.880(13) . . .
2078.47 . 0.873(13) . . .
2079.53 . 0.878(13) . . .
2080.56 . 0.867(13) . . .
2081.59 . 0.889(13) . . .
2082.66 . 0.872(13) . . .
2083.69 . 0.881(13) . . .
2084.72 . 0.877(13) . . .
2085.78 . 0.876(13) . . .
2086.81 . 0.871(13) . . .
2087.84 . 0.878(13) . . .
2088.91 . 0.857(13) . . .
2089.94 . 0.869(13) . . .
2091.00 . 0.873(13) . . .
2092.03 . 0.858(13) . . .
2093.09 . 0.853(13) . . .
2094.13 . 0.851(13) . . .
2095.19 . 0.866(13) . . .
2096.22 . 0.869(13) . . .
2097.28 . 0.863(13) . . .
2098.31 . 0.858(13) . . .
2099.38 . 0.853(13) . . .
2100.41 . 0.845(13) . . .
2101.47 . 0.854(13) . . .
2102.53 . 0.874(13) . . .
2103.56 . 0.891(13) . . .
2104.63 . 0.897(13) . . .
2105.66 . 0.864(13) . . .
2106.72 . 0.886(13) . . .
2107.78 . 0.872(13) . . .
2108.84 . 0.865(13) . . .
2109.88 . 0.864(13) . . .
2110.94 . 0.867(13) . . .
2112.00 . 0.865(13) . . .
2113.06 . 0.876(13) . . .
2114.09 . 0.858(13) . . .
2115.16 . 0.845(13) . . .
2116.22 . 0.869(13) . . .
2117.28 . 0.858(13) . . .
2118.34 . 0.859(13) . . .
2119.41 . 0.877(13) . . .
2120.47 . 0.864(13) . . .
2121.53 . 0.844(13) . . .
2122.59 . 0.845(13) . . .
2123.66 . 0.853(13) . . .
2124.72 . 0.842(13) . . .
2125.75 . 0.847(13) . . .
2126.84 . 0.860(13) . . .
2127.91 . 0.858(13) . . .
2128.97 . 0.847(13) . . .
2130.03 . 0.860(13) . . .
2131.09 . 0.860(13) . . .
2132.16 . 0.863(13) . . .
2133.22 . 0.852(13) . . .
2134.28 . 0.880(13) . . .
2135.34 . 0.869(13) . . .
2136.41 . 0.860(13) . . .
2137.50 . 0.857(13) . . .
2138.56 . 0.873(13) . . .
2139.63 . 0.883(13) . . .
2140.69 . 0.882(13) . . .
2141.75 . 0.861(13) . . .
2142.84 . 0.870(13) . . .
2143.91 . 0.871(13) . . .
2144.97 . 0.860(13) . . .
2146.06 . 0.848(13) . . .
2147.13 . 0.864(13) . . .
2148.19 . 0.850(13) . . .
2149.28 . 0.855(13) . . .
2150.34 . 0.857(13) . . .
2151.44 . 0.850(13) . . .
2152.50 . 0.825(12) . . .
2153.56 . 0.841(12) . . .
2154.66 . 0.863(13) . . .
2155.72 . 0.847(13) . . .
2156.81 . 0.852(13) . . .
2157.88 . 0.848(13) . . .
2158.97 . 0.828(12) . . .
2160.03 . 0.852(13) . . .
2161.13 . 0.843(12) . . .
2162.22 . 0.847(13) . . .
2163.28 . 0.841(12) . . .
2164.38 . 0.855(13) . . .
2165.44 . 0.862(13) . . .
2166.53 . 0.866(13) . . .
2167.63 . 0.861(13) . . .
2168.69 . 0.864(13) . . .
2169.78 . 0.840(12) . . .
2170.88 . 0.852(13) . . .
2171.94 . 0.872(13) . . .
2173.03 . 0.864(13) . . .
2174.13 . 0.866(13) . . .
2175.22 . 0.861(13) . . .
2176.31 . 0.856(13) . . .
2177.38 . 0.855(13) . . .
2178.47 . 0.852(13) . . .
2179.56 . 0.839(12) . . .
2180.66 . 0.828(12) . . .
2181.75 . 0.827(12) . . .
2182.84 . 0.845(12) . . .
2183.94 . 0.846(12) . . .
2185.03 . 0.855(13) . . .
2186.13 . 0.879(13) . . .
2187.22 . 0.850(12) . . .
2188.31 . 0.861(13) . . .
2189.41 . 0.870(13) . . .
2190.50 . 0.884(13) . . .
2191.59 . 0.872(13) . . .
2192.69 . 0.881(13) . . .
2193.78 . 0.885(13) . . .
2194.88 . 0.880(13) . . .
2195.97 . 0.874(13) . . .
2197.06 . 0.878(13) . . .
2198.16 . 0.870(13) . . .
2199.25 . 0.863(13) . . .
2200.38 . 0.855(12) . . .
2201.47 . 0.846(12) . . .
2202.56 . 0.844(12) . . .
2203.66 . 0.843(12) . . .
2204.78 . 0.831(12) . . .
2205.88 . 0.832(12) . . .
2206.97 . 0.844(12) . . .
2208.06 . 0.858(12) . . .
2209.19 . 0.848(12) . . .
2210.28 . 0.850(12) . . .
2211.41 . 0.844(12) . . .
2212.50 . 0.835(12) . . .
2213.59 . 0.848(12) . . .
2214.72 . 0.844(12) . . .
2215.81 . 0.842(12) . . .
2216.94 . 0.832(12) . . .
2218.03 . 0.833(12) . . .
2219.16 . 0.838(12) . . .
2220.25 . 0.842(12) . . .
2221.38 . 0.848(12) . . .
2222.47 . 0.858(12) . . .
2223.59 . 0.834(12) . . .
2224.69 . 0.842(12) . . .
2225.81 . 0.846(12) . . .
2226.94 . 0.835(12) . . .
2228.03 . 0.835(12) . . .
2229.16 . 0.821(12) . . .
2230.25 . 0.839(12) . . .
2231.38 . 0.839(12) . . .
2232.50 . 0.845(12) . . .
2233.63 . 0.843(12) . . .
2234.72 . 0.846(12) . . .
2235.84 . 0.840(12) . . .
2236.97 . 0.844(12) . . .
2238.09 . 0.829(12) . . .
2239.19 . 0.827(12) . . .
2240.31 . 0.818(12) . . .
2241.44 . 0.818(12) . . .
2242.56 . 0.833(12) . . .
2243.69 . 0.821(12) . . .
2244.81 . 0.811(12) . . .
2245.94 . 0.818(12) . . .
2247.06 . 0.838(12) . . .
2248.19 . 0.819(12) . . .
2249.31 . 0.801(12) . . .
2250.44 . 0.820(12) . . .
2251.56 . 0.830(12) . . .
2252.69 . 0.828(12) . . .
2253.81 . 0.819(12) . . .
2254.94 . 0.823(12) . . .
2256.06 . 0.834(12) . . .
2257.19 . 0.840(12) . . .
2258.31 . 0.828(12) . . .
2259.44 . 0.827(12) . . .
2260.56 . 0.833(12) . . .
2261.69 . 0.826(12) . . .
2262.84 . 0.820(12) . . .
2263.97 . 0.823(12) . . .
2265.09 . 0.822(12) . . .
2266.22 . 0.832(12) . . .
2267.34 . 0.833(12) . . .
2268.50 . 0.828(12) . . .
2269.63 . 0.826(12) . . .
2270.75 . 0.811(12) . . .
2271.91 . 0.792(12) . . .
2273.03 . 0.811(12) . . .
2274.16 . 0.835(12) . . .
2275.31 . 0.822(12) . . .
2276.44 . 0.806(12) . . .
2277.59 . 0.809(12) . . .
2278.72 . 0.807(12) . . .
2279.88 . 0.827(12) . . .
2281.00 . 0.831(12) . . .
2282.16 . 0.797(12) . . .
2283.28 . 0.826(12) . . .
2284.44 . 0.817(12) . . .
2285.56 . 0.821(12) . . .
2286.72 0.49984 0.816(12) 6944. 0.8099 0.8356
2287.84 0.50008 0.798(12) 7123. 0.8098 0.8365
2289.00 0.50033 0.816(12) 7020. 0.8096 0.8371
2290.16 0.50059 0.800(12) 7155. 0.8095 0.8376
2291.28 0.50083 0.828(12) 6919. 0.8094 0.8380
2292.44 0.50109 0.826(12) 6944. 0.8092 0.8384
2293.56 0.50133 0.822(12) 6919. 0.8091 0.8389
2294.72 0.50159 0.825(12) 6919. 0.8089 0.8395
2295.88 0.50184 0.820(12) 6919. 0.8088 0.8402
2297.03 0.50209 0.828(12) 6944. 0.8086 0.8411
2298.16 0.50234 0.845(12) 6725. 0.8085 0.8420
2299.31 0.50259 0.831(12) 6919. 0.8083 0.8429
2300.47 0.50284 0.827(12) 6919. 0.8082 0.8439
2301.63 0.50310 0.819(12) 7020. 0.8081 0.8448
2302.78 0.50335 0.821(12) 6944. 0.8079 0.8458
2303.91 0.50360 0.812(12) 7020. 0.8078 0.8470
2305.06 0.50385 0.816(12) 7020. 0.8076 0.8485
2306.22 0.50410 0.808(12) 7123. 0.8075 0.8503
2307.38 0.50435 0.807(12) 7123. 0.8073 0.8523
2308.53 0.50461 0.813(12) 7020. 0.8072 0.8543
2309.69 0.50486 0.825(12) 6919. 0.8070 0.8561
2310.84 0.50511 0.817(12) 7020. 0.8069 0.8576
2312.00 0.50537 0.817(12) 7020. 0.8068 0.8587
2313.16 0.50562 0.816(12) 7020. 0.8066 0.8591
2314.31 0.50587 0.814(12) 7020. 0.8065 0.8590
2315.47 0.50613 0.818(12) 7020. 0.8063 0.8584
2316.63 0.50638 0.835(12) 6919. 0.8062 0.8574
2317.78 0.50663 0.826(12) 7020. 0.8060 0.8561
2318.94 0.50688 0.823(12) 7020. 0.8059 0.8548
2320.09 0.50714 0.828(12) 6919. 0.8057 0.8535
2321.25 0.50739 0.829(12) 6919. 0.8056 0.8523
2322.41 0.50764 0.828(12) 6993. 0.8054 0.8511
2323.59 0.50790 0.834(12) 6919. 0.8053 0.8499
2324.75 0.50816 0.826(12) 7020. 0.8052 0.8486
2325.91 0.50841 0.828(12) 7020. 0.8050 0.8471
2327.06 0.50866 0.814(12) 7123. 0.8049 0.8454
2328.22 0.50892 0.830(12) 6993. 0.8047 0.8433
2329.41 0.50918 0.816(12) 7123. 0.8046 0.8411
2330.56 0.50943 0.813(12) 7123. 0.8044 0.8388
2331.72 0.50968 0.820(12) 7093. 0.8043 0.8365
2332.91 0.50994 0.824(12) 7020. 0.8041 0.8343
2334.06 0.51019 0.796(12) 7336. 0.8040 0.8323
2335.22 0.51045 0.815(12) 7093. 0.8039 0.8307
2336.41 0.51071 0.811(12) 7123. 0.8037 0.8294
2337.56 0.51096 0.799(12) 7228. 0.8036 0.8285
2338.72 0.51121 0.811(12) 7195. 0.8034 0.8282
2339.91 0.51147 0.822(12) 7020. 0.8033 0.8284
2341.06 0.51173 0.825(12) 7093. 0.8031 0.8291
2342.25 0.51199 0.818(12) 7123. 0.8030 0.8302
2343.41 0.51224 0.810(12) 7195. 0.8028 0.8317
2344.59 0.51250 0.820(12) 7123. 0.8027 0.8335
2345.75 0.51275 0.816(12) 7093. 0.8025 0.8355
2346.94 0.51301 0.824(12) 7123. 0.8024 0.8375
2348.09 0.51326 0.824(12) 7093. 0.8023 0.8395
2349.28 0.51352 0.813(12) 7123. 0.8021 0.8415
2350.44 0.51378 0.811(12) 7195. 0.8020 0.8435
2351.63 0.51404 0.819(12) 7093. 0.8018 0.8455
2352.81 0.51430 0.845(12) 6919. 0.8017 0.8476
2353.97 0.51455 0.841(12) 6993. 0.8015 0.8496
2355.16 0.51481 0.827(12) 7093. 0.8014 0.8515
2356.34 0.51507 0.831(12) 7020. 0.8012 0.8530
2357.50 0.51532 0.838(12) 6993. 0.8011 0.8539
2358.69 0.51558 0.829(12) 7093. 0.8009 0.8543
2359.88 0.51584 0.835(12) 6993. 0.8008 0.8540
2361.06 0.51610 0.846(12) 6919. 0.8007 0.8532
2362.22 0.51635 0.844(12) 6896. 0.8005 0.8519
2363.41 0.51661 0.832(12) 7093. 0.8004 0.8502
2364.59 0.51687 0.829(12) 7093. 0.8002 0.8480
2365.78 0.51713 0.828(12) 7093. 0.8001 0.8456
2366.97 0.51739 0.824(12) 7123. 0.7999 0.8430
2368.13 0.51765 0.825(12) 7093. 0.7998 0.8403
2369.31 0.51791 0.824(12) 7093. 0.7996 0.8375
2370.50 0.51817 0.813(12) 7195. 0.7995 0.8349
2371.69 0.51843 0.809(12) 7299. 0.7994 0.8326
2372.88 0.51869 0.803(12) 7299. 0.7992 0.8307
2374.06 0.51895 0.815(12) 7195. 0.7991 0.8292
2375.25 0.51921 0.825(12) 7195. 0.7989 0.8281
2376.44 0.51947 0.831(12) 7093. 0.7988 0.8274
2377.63 0.51973 0.836(12) 7093. 0.7986 0.8271
2378.81 0.51999 0.828(12) 7093. 0.7985 0.8271
2380.00 0.52024 0.819(12) 7195. 0.7983 0.8273
2381.19 0.52050 0.819(12) 7195. 0.7982 0.8278
2382.38 0.52076 0.829(12) 7163. 0.7980 0.8287
2383.59 0.52103 0.821(12) 7195. 0.7979 0.8300
2384.78 0.52129 0.832(12) 7093. 0.7978 0.8320
2385.97 0.52155 0.834(12) 7093. 0.7976 0.8347
2387.16 0.52181 0.833(12) 7093. 0.7975 0.8382
2388.34 0.52207 0.834(12) 7093. 0.7973 0.8424
2389.53 0.52233 0.835(12) 7065. 0.7972 0.8471
2390.75 0.52260 0.837(12) 7093. 0.7970 0.8521
2391.94 0.52286 0.840(12) 7093. 0.7969 0.8567
2393.13 0.52312 0.842(12) 7093. 0.7967 0.8608
2394.31 0.52338 0.841(12) 7065. 0.7966 0.8637
2395.53 0.52364 0.846(12) 6993. 0.7964 0.8652
2396.72 0.52390 0.843(12) 7093. 0.7963 0.8654
2397.91 0.52416 0.838(12) 7065. 0.7962 0.8644
2399.13 0.52443 0.841(12) 7093. 0.7960 0.8623
2400.31 0.52469 0.841(12) 7065. 0.7959 0.8595
2401.53 0.52496 0.819(12) 7299. 0.7957 0.8561
2402.72 0.52522 0.830(12) 7195. 0.7956 0.8525
2403.91 0.52548 0.832(12) 7163. 0.7954 0.8486
2405.13 0.52574 0.836(12) 7093. 0.7953 0.8446
2406.31 0.52600 0.831(12) 7163. 0.7951 0.8408
2407.53 0.52627 0.849(12) 6993. 0.7950 0.8374
2408.72 0.52653 0.824(12) 7264. 0.7948 0.8345
2409.94 0.52680 0.814(12) 7366. 0.7947 0.8322
2411.16 0.52706 0.816(12) 7299. 0.7946 0.8306
2412.34 0.52732 0.820(12) 7264. 0.7944 0.8298
2413.56 0.52759 0.817(12) 7299. 0.7943 0.8297
2414.75 0.52785 0.828(12) 7264. 0.7941 0.8302
2415.97 0.52811 0.831(12) 7163. 0.7940 0.8311
2417.19 0.52838 0.829(12) 7195. 0.7938 0.8323
2418.38 0.52864 0.834(12) 7163. 0.7937 0.8335
2419.59 0.52891 0.817(12) 7366. 0.7935 0.8347
2420.81 0.52917 0.806(12) 7405. 0.7934 0.8357
2422.00 0.52943 0.833(12) 7163. 0.7933 0.8366
2423.22 0.52970 0.832(12) 7264. 0.7931 0.8373
2424.44 0.52997 0.835(12) 7163. 0.7930 0.8379
2425.66 0.53023 0.842(12) 7163. 0.7928 0.8387
2426.88 0.53050 0.840(12) 7195. 0.7927 0.8396
2428.06 0.53076 0.838(12) 7163. 0.7925 0.8407
2429.28 0.53103 0.842(12) 7163. 0.7924 0.8420
2430.50 0.53129 0.835(12) 7264. 0.7922 0.8435
2431.72 0.53156 0.836(12) 7264. 0.7921 0.8449
2432.94 0.53183 0.848(12) 7163. 0.7919 0.8460
2434.16 0.53209 0.843(12) 7163. 0.7918 0.8467
2435.38 0.53236 0.827(12) 7264. 0.7917 0.8467
2436.59 0.53263 0.843(12) 7163. 0.7915 0.8462
2437.81 0.53289 0.857(12) 7065. 0.7914 0.8450
2439.03 0.53316 0.845(12) 7163. 0.7912 0.8432
2440.25 0.53343 0.834(12) 7264. 0.7911 0.8409
2441.47 0.53369 0.832(12) 7264. 0.7909 0.8383
2442.69 0.53396 0.840(12) 7163. 0.7908 0.8353
2443.91 0.53423 0.845(12) 7163. 0.7906 0.8321
2445.13 0.53449 0.838(12) 7264. 0.7905 0.8289
2446.34 0.53476 0.828(12) 7366. 0.7903 0.8259
2447.56 0.53503 0.811(12) 7471. 0.7902 0.8233
2448.78 0.53529 0.831(12) 7330. 0.7901 0.8212
2450.03 0.53557 0.846(12) 7163. 0.7899 0.8197
2451.25 0.53583 0.828(12) 7366. 0.7898 0.8191
2452.47 0.53610 0.820(12) 7366. 0.7896 0.8194
2453.69 0.53637 0.817(12) 7432. 0.7895 0.8206
2454.94 0.53664 0.837(12) 7264. 0.7893 0.8229
2456.16 0.53691 0.842(12) 7264. 0.7892 0.8262
2457.38 0.53717 0.831(12) 7366. 0.7890 0.8304
2458.59 0.53744 0.851(12) 7133. 0.7889 0.8354
2459.84 0.53771 0.849(12) 7163. 0.7887 0.8411
2461.06 0.53798 0.841(12) 7231. 0.7886 0.8472
2462.31 0.53825 0.860(12) 7065. 0.7885 0.8533
2463.53 0.53852 0.862(12) 7065. 0.7883 0.8591
2464.75 0.53879 0.842(12) 7231. 0.7882 0.8644
2466.00 0.53906 0.852(12) 7163. 0.7880 0.8688
2467.22 0.53933 0.879(12) 6944. 0.7879 0.8721
2468.47 0.53960 0.857(12) 7163. 0.7877 0.8743
2469.69 0.53987 0.866(12) 7038. 0.7876 0.8753
2470.94 0.54014 0.868(12) 7065. 0.7874 0.8752
2472.16 0.54041 0.862(12) 7133. 0.7873 0.8745
2473.41 0.54068 0.868(12) 7065. 0.7871 0.8735
2474.63 0.54095 0.869(12) 7038. 0.7870 0.8724
2475.88 0.54122 0.852(12) 7231. 0.7869 0.8713
2477.13 0.54150 0.857(12) 7163. 0.7867 0.8702
2478.34 0.54176 0.851(12) 7231. 0.7866 0.8687
2479.59 0.54204 0.867(12) 7133. 0.7864 0.8666
2480.84 0.54231 0.855(12) 7163. 0.7863 0.8637
2482.06 0.54258 0.847(12) 7231. 0.7861 0.8600
2483.31 0.54285 0.851(12) 7231. 0.7860 0.8556
2484.56 0.54312 0.859(12) 7163. 0.7858 0.8509
2485.78 0.54339 0.870(12) 7133. 0.7857 0.8459
2487.03 0.54366 0.858(12) 7231. 0.7855 0.8410
2488.28 0.54394 0.846(12) 7330. 0.7854 0.8364
2489.53 0.54421 0.837(12) 7432. 0.7853 0.8323
2490.78 0.54448 0.828(12) 7432. 0.7851 0.8291
2492.03 0.54476 0.847(12) 7264. 0.7850 0.8267
2493.25 0.54502 0.834(12) 7432. 0.7848 0.8251
2494.50 0.54530 0.816(12) 7535. 0.7847 0.8244
2495.75 0.54557 0.829(12) 7432. 0.7845 0.8244
2497.00 0.54584 0.822(12) 7535. 0.7844 0.8250
2498.25 0.54612 0.834(12) 7432. 0.7842 0.8260
2499.50 0.54639 0.852(12) 7330. 0.7841 0.8270
2500.75 0.54667 0.841(12) 7432. 0.7839 0.8280
2502.00 0.54694 0.841(12) 7432. 0.7838 0.8286
2503.25 0.54721 0.848(12) 7330. 0.7837 0.8288
2504.50 0.54749 0.847(12) 7330. 0.7835 0.8288
2505.75 0.54776 0.837(12) 7432. 0.7834 0.8285
2507.00 0.54803 0.840(12) 7432. 0.7832 0.8282
2508.25 0.54831 0.837(12) 7394. 0.7831 0.8280
2509.53 0.54859 0.845(12) 7330. 0.7829 0.8281
2510.78 0.54886 0.854(12) 7330. 0.7828 0.8285
2512.03 0.54913 0.841(12) 7432. 0.7826 0.8295
2513.28 0.54941 0.837(12) 7432. 0.7825 0.8308
2514.53 0.54968 0.839(12) 7495. 0.7823 0.8327
2515.81 0.54996 0.855(12) 7330. 0.7822 0.8350
2517.06 0.55023 0.865(12) 7231. 0.7821 0.8374
2518.31 0.55051 0.858(12) 7330. 0.7819 0.8401
2519.56 0.55078 0.862(12) 7296. 0.7818 0.8432
2520.84 0.55106 0.856(12) 7330. 0.7816 0.8466
2522.09 0.55134 0.858(12) 7330. 0.7815 0.8506
2523.34 0.55161 0.865(12) 7296. 0.7813 0.8553
2524.63 0.55189 0.862(12) 7231. 0.7812 0.8606
2525.88 0.55216 0.865(12) 7296. 0.7810 0.8665
2527.16 0.55244 0.854(12) 7330. 0.7809 0.8726
2528.41 0.55272 0.866(12) 7231. 0.7807 0.8785
2529.66 0.55299 0.880(12) 7105. 0.7806 0.8838
2530.94 0.55327 0.904(12) 6944. 0.7805 0.8881
2532.19 0.55354 0.899(12) 7013. 0.7803 0.8910
2533.47 0.55382 0.887(12) 7133. 0.7802 0.8919
2534.72 0.55410 0.891(12) 7105. 0.7800 0.8908
2536.00 0.55438 0.903(12) 7013. 0.7799 0.8876
2537.28 0.55466 0.890(12) 7133. 0.7797 0.8830
2538.53 0.55493 0.876(12) 7200. 0.7796 0.8776
2539.81 0.55521 0.885(12) 7133. 0.7794 0.8721
2541.06 0.55549 0.869(12) 7296. 0.7793 0.8672
2542.34 0.55577 0.874(12) 7200. 0.7791 0.8630
2543.63 0.55605 0.866(12) 7330. 0.7790 0.8598
2544.88 0.55632 0.881(12) 7200. 0.7789 0.8576
2546.16 0.55660 0.875(12) 7200. 0.7787 0.8561
2547.44 0.55688 0.864(12) 7296. 0.7786 0.8553
2548.72 0.55716 0.866(12) 7330. 0.7784 0.8550
2549.97 0.55743 0.857(12) 7394. 0.7783 0.8549
2551.25 0.55771 0.863(12) 7394. 0.7781 0.8550
2552.53 0.55800 0.864(12) 7296. 0.7780 0.8552
2553.81 0.55828 0.852(12) 7495. 0.7778 0.8556
2555.09 0.55856 0.854(12) 7394. 0.7777 0.8565
2556.38 0.55884 0.884(12) 7200. 0.7776 0.8580
2557.66 0.55912 0.867(12) 7330. 0.7774 0.8600
2558.91 0.55939 0.859(12) 7394. 0.7773 0.8623
2560.19 0.55967 0.879(12) 7296. 0.7771 0.8647
2561.47 0.55995 0.879(12) 7200. 0.7770 0.8666
2562.75 0.56023 0.874(12) 7296. 0.7768 0.8674
2564.03 0.56051 0.879(12) 7296. 0.7767 0.8668
2565.31 0.56079 0.877(12) 7296. 0.7765 0.8647
2566.59 0.56107 0.878(12) 7296. 0.7764 0.8614
2567.88 0.56135 0.874(12) 7264. 0.7762 0.8571
2569.19 0.56164 0.868(12) 7394. 0.7761 0.8521
2570.47 0.56192 0.871(12) 7296. 0.7760 0.8468
2571.75 0.56220 0.843(11) 7597. 0.7758 0.8413
2573.03 0.56248 0.849(12) 7495. 0.7757 0.8360
2574.31 0.56276 0.860(12) 7495. 0.7755 0.8309
2575.59 0.56304 0.861(12) 7456. 0.7754 0.8259
2576.91 0.56333 0.859(12) 7495. 0.7752 0.8213
2578.19 0.56361 0.844(11) 7597. 0.7751 0.8172
2579.47 0.56389 0.847(11) 7597. 0.7749 0.8134
2580.75 0.56417 0.841(11) 7656. 0.7748 0.8102
2582.06 0.56446 0.846(11) 7597. 0.7746 0.8074
2583.34 0.56474 0.837(11) 7701. 0.7745 0.8052
2584.63 0.56502 0.838(11) 7656. 0.7744 0.8037
2585.94 0.56530 0.842(11) 7701. 0.7742 0.8027
2587.22 0.56558 0.829(11) 7808. 0.7741 0.8024
2588.50 0.56587 0.823(11) 7865. 0.7739 0.8027
2589.81 0.56615 0.815(11) 7917. 0.7738 0.8034
2591.09 0.56643 0.832(11) 7759. 0.7736 0.8045
2592.41 0.56672 0.839(11) 7701. 0.7735 0.8058
2593.69 0.56700 0.826(11) 7865. 0.7733 0.8072
2595.00 0.56729 0.818(11) 7917. 0.7732 0.8086
2596.28 0.56757 0.838(11) 7759. 0.7730 0.8099
2597.59 0.56785 0.838(11) 7701. 0.7729 0.8111
2598.88 0.56814 0.828(11) 7865. 0.7728 0.8121
2600.19 0.56842 0.848(11) 7597. 0.7726 0.8130
2601.47 0.56870 0.851(11) 7656. 0.7725 0.8139
2602.78 0.56899 0.839(11) 7759. 0.7723 0.8152
2604.09 0.56928 0.832(11) 7808. 0.7722 0.8169
2605.38 0.56956 0.835(11) 7759. 0.7720 0.8192
2606.69 0.56984 0.846(11) 7656. 0.7719 0.8222
2608.00 0.57013 0.829(11) 7808. 0.7717 0.8259
2609.28 0.57041 0.843(11) 7759. 0.7716 0.8300
2610.59 0.57070 0.856(11) 7656. 0.7715 0.8343
2611.91 0.57099 0.857(11) 7656. 0.7713 0.8387
2613.22 0.57127 0.851(11) 7656. 0.7712 0.8427
2614.53 0.57156 0.859(11) 7597. 0.7710 0.8463
2615.81 0.57184 0.845(11) 7759. 0.7709 0.8491
2617.13 0.57213 0.860(12) 7555. 0.7707 0.8511
2618.44 0.57242 0.854(11) 7656. 0.7706 0.8520
2619.75 0.57270 0.867(12) 7555. 0.7704 0.8521
2621.06 0.57299 0.839(11) 7759. 0.7703 0.8514
2622.38 0.57328 0.831(11) 7865. 0.7701 0.8503
2623.69 0.57356 0.846(11) 7759. 0.7700 0.8488
2625.00 0.57385 0.858(11) 7656. 0.7699 0.8470
2626.31 0.57414 0.865(12) 7555. 0.7697 0.8451
2627.63 0.57443 0.869(12) 7555. 0.7696 0.8430
2628.94 0.57471 0.863(11) 7656. 0.7694 0.8406
2630.25 0.57500 0.858(11) 7656. 0.7693 0.8379
2631.56 0.57529 0.855(11) 7656. 0.7691 0.8350
2632.88 0.57557 0.860(11) 7656. 0.7690 0.8322
2634.19 0.57586 0.840(11) 7865. 0.7688 0.8297
2635.50 0.57615 0.845(11) 7815. 0.7687 0.8277
2636.84 0.57644 0.843(11) 7865. 0.7686 0.8264
2638.16 0.57673 0.851(11) 7759. 0.7684 0.8260
2639.47 0.57702 0.859(11) 7656. 0.7683 0.8266
2640.78 0.57730 0.833(11) 7919. 0.7681 0.8279
2642.13 0.57760 0.844(11) 7865. 0.7680 0.8301
2643.44 0.57789 0.856(11) 7759. 0.7678 0.8329
2644.75 0.57817 0.858(11) 7759. 0.7677 0.8363
2646.06 0.57846 0.857(11) 7714. 0.7675 0.8404
2647.41 0.57875 0.851(11) 7759. 0.7674 0.8453
2648.72 0.57904 0.861(11) 7656. 0.7672 0.8509
2650.03 0.57933 0.867(11) 7614. 0.7671 0.8572
2651.38 0.57962 0.875(12) 7555. 0.7670 0.8641
2652.69 0.57991 0.893(12) 7420. 0.7668 0.8715
2654.03 0.58020 0.886(12) 7456. 0.7667 0.8792
2655.34 0.58049 0.885(12) 7516. 0.7665 0.8866
2656.69 0.58079 0.908(12) 7359. 0.7664 0.8934
2658.00 0.58107 0.911(12) 7326. 0.7662 0.8992
2659.34 0.58137 0.911(12) 7264. 0.7661 0.9033
2660.66 0.58165 0.925(12) 7233. 0.7659 0.9053
2662.00 0.58195 0.927(12) 7170. 0.7658 0.9047
2663.31 0.58223 0.915(12) 7326. 0.7657 0.9014
2664.66 0.58253 0.914(12) 7326. 0.7655 0.8957
2666.00 0.58282 0.901(12) 7456. 0.7654 0.8883
2667.31 0.58311 0.883(12) 7516. 0.7652 0.8799
2668.66 0.58340 0.888(12) 7516. 0.7651 0.8709
2670.00 0.58370 0.873(11) 7656. 0.7649 0.8622
2671.31 0.58399 0.869(11) 7714. 0.7648 0.8539
2672.66 0.58428 0.867(11) 7714. 0.7646 0.8461
2674.00 0.58457 0.855(11) 7815. 0.7645 0.8388
2675.34 0.58487 0.855(11) 7815. 0.7643 0.8321
2676.69 0.58516 0.858(11) 7865. 0.7642 0.8260
2678.00 0.58545 0.861(11) 7815. 0.7641 0.8203
2679.34 0.58574 0.842(11) 8025. 0.7639 0.8150
2680.69 0.58604 0.841(11) 8025. 0.7638 0.8102
2682.03 0.58633 0.825(11) 8133. 0.7636 0.8060
2683.38 0.58662 0.818(11) 8244. 0.7635 0.8023
2684.72 0.58692 0.828(11) 8133. 0.7633 0.7993
2686.06 0.58721 0.829(11) 8133. 0.7632 0.7970
2687.41 0.58751 0.831(11) 8133. 0.7630 0.7953
2688.75 0.58780 0.827(11) 8133. 0.7629 0.7944
2690.09 0.58809 0.810(11) 8356. 0.7628 0.7942
2691.44 0.58839 0.816(11) 8244. 0.7626 0.7947
2692.78 0.58868 0.822(11) 8244. 0.7625 0.7958
2694.13 0.58898 0.813(11) 8356. 0.7623 0.7975
2695.47 0.58927 0.819(11) 8244. 0.7622 0.7995
2696.81 0.58956 0.819(11) 8244. 0.7620 0.8018
2698.16 0.58986 0.825(11) 8244. 0.7619 0.8043
2699.50 0.59015 0.846(11) 7972. 0.7617 0.8068
2700.88 0.59045 0.850(11) 7919. 0.7616 0.8093
2702.22 0.59075 0.840(11) 8025. 0.7615 0.8117
2703.56 0.59104 0.823(11) 8244. 0.7613 0.8142
2704.91 0.59134 0.827(11) 8183. 0.7612 0.8169
2706.28 0.59164 0.832(11) 8133. 0.7610 0.8203
2707.63 0.59193 0.862(11) 7919. 0.7609 0.8245
2708.97 0.59222 0.847(11) 8076. 0.7607 0.8298
2710.34 0.59253 0.861(11) 7919. 0.7606 0.8363
2711.69 0.59282 0.854(11) 8025. 0.7604 0.8437
2713.03 0.59311 0.870(11) 7869. 0.7603 0.8520
2714.41 0.59341 0.860(11) 7919. 0.7602 0.8605
2715.75 0.59371 0.871(11) 7869. 0.7600 0.8686
2717.13 0.59401 0.876(11) 7815. 0.7599 0.8759
2718.47 0.59430 0.876(11) 7769. 0.7597 0.8818
2719.84 0.59460 0.885(11) 7714. 0.7596 0.8863
2721.19 0.59490 0.876(11) 7769. 0.7594 0.8889
2722.56 0.59520 0.890(11) 7714. 0.7593 0.8894
2723.91 0.59549 0.883(11) 7769. 0.7591 0.8878
2725.28 0.59579 0.883(11) 7714. 0.7590 0.8843
2726.63 0.59609 0.882(11) 7769. 0.7589 0.8793
2728.00 0.59639 0.868(11) 7869. 0.7587 0.8735
2729.38 0.59669 0.858(11) 8025. 0.7586 0.8672
2730.72 0.59698 0.860(11) 7972. 0.7584 0.8609
2732.09 0.59728 0.851(11) 8076. 0.7583 0.8547
2733.47 0.59759 0.853(11) 8076. 0.7581 0.8488
2734.84 0.59789 0.844(11) 8133. 0.7580 0.8432
2736.19 0.59818 0.844(11) 8183. 0.7578 0.8377
2737.56 0.59848 0.840(11) 8183. 0.7577 0.8322
2738.94 0.59878 0.848(11) 8076. 0.7576 0.8268
2740.31 0.59908 0.840(11) 8183. 0.7574 0.8216
2741.69 0.59938 0.835(11) 8244. 0.7573 0.8169
2743.03 0.59968 0.845(11) 8183. 0.7571 0.8128
2744.41 0.59998 0.844(11) 8183. 0.7570 0.8095
2745.78 0.60028 0.837(11) 8292. 0.7568 0.8072
2747.16 0.60058 0.834(11) 8292. 0.7567 0.8060
2748.53 0.60088 0.831(11) 8292. 0.7565 0.8060
2749.91 0.60118 0.817(11) 8516. 0.7564 0.8071
2751.28 0.60148 0.824(11) 8403. 0.7563 0.8092
2752.66 0.60178 0.842(11) 8183. 0.7561 0.8120
2754.03 0.60208 0.832(11) 8292. 0.7560 0.8153
2755.41 0.60239 0.840(11) 8292. 0.7558 0.8189
2756.78 0.60269 0.832(11) 8292. 0.7557 0.8222
2758.16 0.60299 0.836(11) 8338. 0.7555 0.8252
2759.56 0.60330 0.831(11) 8403. 0.7554 0.8276
2760.94 0.60360 0.840(11) 8292. 0.7552 0.8295
2762.31 0.60390 0.830(11) 8403. 0.7551 0.8314
2763.69 0.60420 0.835(11) 8292. 0.7550 0.8336
2765.06 0.60450 0.848(11) 8231. 0.7548 0.8368
2766.47 0.60481 0.853(11) 8183. 0.7547 0.8410
2767.84 0.60511 0.861(11) 8076. 0.7545 0.8463
2769.22 0.60541 0.854(11) 8183. 0.7544 0.8527
2770.59 0.60571 0.855(11) 8126. 0.7542 0.8596
2772.00 0.60602 0.866(11) 8076. 0.7541 0.8666
2773.38 0.60632 0.880(11) 7972. 0.7539 0.8727
2774.75 0.60662 0.871(11) 8023. 0.7538 0.8778
2776.16 0.60693 0.896(11) 7769. 0.7537 0.8816
2777.53 0.60723 0.887(11) 7922. 0.7535 0.8842
2778.94 0.60753 0.884(11) 7869. 0.7534 0.8854
2780.31 0.60784 0.888(11) 7922. 0.7532 0.8853
2781.72 0.60814 0.875(11) 7972. 0.7531 0.8838
2783.09 0.60844 0.873(11) 8023. 0.7529 0.8810
2784.50 0.60875 0.884(11) 7972. 0.7528 0.8771
2785.88 0.60905 0.888(11) 7922. 0.7527 0.8723
2787.28 0.60936 0.885(11) 7972. 0.7525 0.8666
2788.66 0.60966 0.865(11) 8126. 0.7524 0.8602
2790.06 0.60997 0.866(11) 8126. 0.7522 0.8530
2791.47 0.61028 0.852(11) 8292. 0.7521 0.8454
2792.84 0.61058 0.842(11) 8338. 0.7519 0.8377
2794.25 0.61089 0.837(11) 8448. 0.7518 0.8300
2795.66 0.61119 0.827(11) 8516. 0.7516 0.8228
2797.03 0.61149 0.819(11) 8559. 0.7515 0.8162
2798.44 0.61180 0.822(11) 8559. 0.7514 0.8103
2799.84 0.61211 0.804(11) 8789. 0.7512 0.8051
2801.25 0.61242 0.808(11) 8789. 0.7511 0.8010
2802.66 0.61272 0.818(11) 8631. 0.7509 0.7979
2804.03 0.61303 0.806(11) 8789. 0.7508 0.7959
2805.44 0.61333 0.813(11) 8673. 0.7506 0.7949
2806.84 0.61364 0.815(11) 8673. 0.7505 0.7950
2808.25 0.61395 0.798(11) 8907. 0.7503 0.7960
2809.66 0.61426 0.821(11) 8673. 0.7502 0.7979
2811.06 0.61456 0.835(11) 8448. 0.7501 0.8004
2812.47 0.61487 0.832(11) 8559. 0.7499 0.8034
2813.88 0.61518 0.831(11) 8559. 0.7498 0.8066
2815.28 0.61549 0.816(11) 8673. 0.7496 0.8097
2816.69 0.61579 0.808(11) 8789. 0.7495 0.8127
2818.09 0.61610 0.815(11) 8673. 0.7493 0.8150
2819.50 0.61641 0.832(11) 8559. 0.7492 0.8167
2820.91 0.61672 0.818(11) 8673. 0.7491 0.8177
2822.31 0.61703 0.829(11) 8601. 0.7489 0.8183
2823.75 0.61734 0.826(11) 8673. 0.7488 0.8190
2825.16 0.61765 0.811(11) 8789. 0.7486 0.8201
2826.56 0.61796 0.846(11) 8448. 0.7485 0.8219
2827.97 0.61826 0.846(11) 8448. 0.7483 0.8245
2829.38 0.61857 0.851(11) 8383. 0.7482 0.8280
2830.81 0.61889 0.868(11) 8231. 0.7481 0.8323
2832.22 0.61919 0.856(11) 8338. 0.7479 0.8371
2833.63 0.61950 0.859(11) 8383. 0.7478 0.8417
2835.06 0.61982 0.855(11) 8338. 0.7476 0.8459
2836.47 0.62012 0.861(11) 8338. 0.7475 0.8493
2837.88 0.62043 0.868(11) 8278. 0.7473 0.8517
2839.31 0.62075 0.877(11) 8126. 0.7472 0.8531
2840.72 0.62105 0.871(11) 8278. 0.7470 0.8535
2842.16 0.62137 0.862(11) 8338. 0.7469 0.8527
2843.56 0.62168 0.874(11) 8174. 0.7468 0.8507
2845.00 0.62199 0.862(11) 8338. 0.7466 0.8479
2846.41 0.62230 0.859(11) 8383. 0.7465 0.8447
2847.84 0.62261 0.858(11) 8338. 0.7463 0.8416
2849.25 0.62292 0.845(11) 8491. 0.7462 0.8390
2850.69 0.62323 0.855(11) 8448. 0.7460 0.8373
2852.09 0.62354 0.852(11) 8491. 0.7459 0.8363
2853.53 0.62386 0.850(11) 8491. 0.7458 0.8359
2854.97 0.62417 0.859(11) 8448. 0.7456 0.8360
2856.38 0.62448 0.852(11) 8491. 0.7455 0.8359
2857.81 0.62479 0.840(11) 8601. 0.7453 0.8353
2859.25 0.62511 0.840(11) 8601. 0.7452 0.8338
2860.69 0.62542 0.838(11) 8673. 0.7450 0.8312
2862.09 0.62573 0.846(11) 8491. 0.7449 0.8278
2863.53 0.62604 0.839(11) 8601. 0.7448 0.8240
2864.97 0.62636 0.826(11) 8827. 0.7446 0.8203
2866.41 0.62667 0.820(11) 8827. 0.7445 0.8171
2867.84 0.62699 0.818(11) 8827. 0.7443 0.8147
2869.28 0.62730 0.824(11) 8789. 0.7442 0.8131
2870.69 0.62761 0.831(11) 8713. 0.7440 0.8125
2872.13 0.62793 0.821(11) 8827. 0.7439 0.8127
2873.56 0.62824 0.825(11) 8827. 0.7438 0.8135
2875.00 0.62855 0.830(11) 8713. 0.7436 0.8146
2876.44 0.62887 0.818(11) 8944. 0.7435 0.8160
2877.88 0.62918 0.815(11) 8944. 0.7433 0.8175
2879.31 0.62950 0.810(11) 8944. 0.7432 0.8191
2880.75 0.62981 0.813(11) 8979. 0.7430 0.8210
2882.22 0.63013 0.813(11) 8944. 0.7429 0.8232
2883.66 0.63045 0.834(11) 8713. 0.7427 0.8257
2885.09 0.63076 0.842(11) 8713. 0.7426 0.8289
2886.53 0.63108 0.828(11) 8827. 0.7425 0.8332
2887.97 0.63139 0.840(11) 8713. 0.7423 0.8389
2889.41 0.63171 0.841(11) 8641. 0.7422 0.8464
2890.88 0.63203 0.849(11) 8601. 0.7420 0.8559
2892.31 0.63234 0.863(11) 8491. 0.7419 0.8671
2893.75 0.63266 0.878(11) 8383. 0.7417 0.8798
2895.19 0.63297 0.890(11) 8220. 0.7416 0.8936
2896.66 0.63329 0.894(11) 8174. 0.7415 0.9075
2898.09 0.63361 0.913(11) 8072. 0.7413 0.9203
2899.53 0.63392 0.905(11) 8119. 0.7412 0.9309
2901.00 0.63424 0.929(11) 7874. 0.7410 0.9382
2902.44 0.63456 0.918(11) 8021. 0.7409 0.9419
2903.91 0.63488 0.927(11) 7874. 0.7407 0.9421
2905.34 0.63519 0.914(11) 8021. 0.7406 0.9395
2906.81 0.63552 0.931(11) 7874. 0.7405 0.9343
2908.25 0.63583 0.915(11) 8021. 0.7403 0.9269
2909.72 0.63615 0.904(11) 8174. 0.7402 0.9175
2911.16 0.63647 0.881(11) 8322. 0.7400 0.9066
2912.63 0.63679 0.864(11) 8491. 0.7399 0.8949
2914.06 0.63710 0.869(11) 8427. 0.7397 0.8828
2915.53 0.63742 0.873(11) 8427. 0.7396 0.8707
2917.00 0.63774 0.856(11) 8601. 0.7395 0.8592
2918.44 0.63806 0.843(11) 8752. 0.7393 0.8483
2919.91 0.63838 0.834(11) 8864. 0.7392 0.8380
2921.38 0.63870 0.815(10) 9096. 0.7390 0.8286
2922.84 0.63902 0.813(11) 9063. 0.7389 0.8201
2924.28 0.63934 0.821(11) 8979. 0.7388 0.8125
2925.75 0.63966 0.818(10) 9096. 0.7386 0.8054
2927.22 0.63998 0.803(10) 9215. 0.7385 0.7992
2928.69 0.64030 0.807(10) 9215. 0.7383 0.7936
2930.16 0.64062 0.808(10) 9215. 0.7382 0.7887
2931.63 0.64094 0.789(10) 9434. 0.7380 0.7847
2933.06 0.64126 0.773(10) 9588. 0.7379 0.7813
2934.53 0.64158 0.781(10) 9461. 0.7378 0.7788
2936.00 0.64190 0.796(10) 9337. 0.7376 0.7769
2937.47 0.64222 0.793(10) 9337. 0.7375 0.7758
2938.94 0.64254 0.795(10) 9337. 0.7373 0.7753
2940.41 0.64287 0.790(10) 9461. 0.7372 0.7752
2941.88 0.64319 0.784(10) 9461. 0.7370 0.7755
2943.34 0.64351 0.789(10) 9487. 0.7369 0.7759
2944.84 0.64384 0.803(10) 9337. 0.7368 0.7763
2946.31 0.64416 0.792(10) 9461. 0.7366 0.7768
2947.78 0.64448 0.791(10) 9461. 0.7365 0.7772
2949.25 0.64480 0.780(10) 9588. 0.7363 0.7776
2950.72 0.64512 0.778(10) 9588. 0.7362 0.7779
2952.19 0.64544 0.779(10) 9612. 0.7360 0.7782
2953.69 0.64577 0.784(10) 9588. 0.7359 0.7785
2955.16 0.64609 0.777(10) 9588. 0.7358 0.7789
2956.63 0.64641 0.785(10) 9588. 0.7356 0.7797
2958.09 0.64674 0.790(10) 9487. 0.7355 0.7811
2959.59 0.64706 0.790(10) 9461. 0.7353 0.7832
2961.06 0.64739 0.803(10) 9337. 0.7352 0.7861
2962.53 0.64771 0.797(10) 9365. 0.7351 0.7898
2964.03 0.64804 0.810(10) 9215. 0.7349 0.7942
2965.50 0.64836 0.815(10) 9246. 0.7348 0.7992
2967.00 0.64869 0.808(10) 9337. 0.7346 0.8044
2968.47 0.64901 0.820(10) 9128. 0.7345 0.8095
2969.97 0.64933 0.822(10) 9215. 0.7343 0.8141
2971.44 0.64966 0.821(10) 9128. 0.7342 0.8180
2972.94 0.64998 0.826(10) 9096. 0.7341 0.8212
2974.41 0.65031 0.819(10) 9246. 0.7339 0.8241
2975.91 0.65063 0.816(10) 9246. 0.7338 0.8272
2977.41 0.65096 0.819(10) 9215. 0.7336 0.8307
2978.88 0.65128 0.822(10) 9128. 0.7335 0.8348
2980.38 0.65161 0.831(10) 9128. 0.7333 0.8399
2981.88 0.65194 0.830(10) 9096. 0.7332 0.8459
2983.34 0.65226 0.838(11) 9013. 0.7331 0.8530
2984.84 0.65259 0.841(11) 9013. 0.7329 0.8612
2986.34 0.65292 0.852(11) 8900. 0.7328 0.8701
2987.84 0.65325 0.860(11) 8752. 0.7326 0.8792
2989.31 0.65357 0.847(11) 8900. 0.7325 0.8879
2990.81 0.65390 0.877(11) 8680. 0.7324 0.8960
2992.31 0.65422 0.879(11) 8573. 0.7322 0.9030
2993.81 0.65455 0.885(11) 8573. 0.7321 0.9086
2995.31 0.65488 0.887(11) 8573. 0.7319 0.9122
2996.81 0.65521 0.881(11) 8573. 0.7318 0.9133
2998.31 0.65554 0.882(11) 8573. 0.7316 0.9111
2999.81 0.65587 0.878(11) 8680. 0.7315 0.9057
3001.31 0.65619 0.869(11) 8789. 0.7314 0.8974
3002.81 0.65652 0.866(11) 8789. 0.7312 0.8870
3004.31 0.65685 0.849(11) 9013. 0.7311 0.8757
3005.81 0.65718 0.857(11) 8900. 0.7309 0.8642
3007.31 0.65751 0.831(10) 9128. 0.7308 0.8532
3008.81 0.65783 0.831(10) 9128. 0.7307 0.8432
3010.31 0.65816 0.818(10) 9365. 0.7305 0.8343
3011.81 0.65849 0.800(10) 9487. 0.7304 0.8266
3013.31 0.65882 0.790(10) 9635. 0.7302 0.8199
3014.84 0.65915 0.795(10) 9612. 0.7301 0.8139
3016.34 0.65948 0.807(10) 9487. 0.7299 0.8083
3017.84 0.65981 0.802(10) 9487. 0.7298 0.8030
3019.34 0.66014 0.799(10) 9635. 0.7297 0.7977
3020.88 0.66047 0.788(10) 9739. 0.7295 0.7927
3022.38 0.66080 0.786(10) 9739. 0.7294 0.7878
3023.88 0.66113 0.783(10) 9760. 0.7292 0.7834
3025.41 0.66147 0.777(10) 9868. 0.7291 0.7796
3026.91 0.66179 0.769(10) 10016. 0.7290 0.7767
3028.44 0.66213 0.775(10) 9868. 0.7288 0.7749
3029.94 0.66246 0.780(10) 9887. 0.7287 0.7745
3031.47 0.66279 0.781(10) 9868. 0.7285 0.7756
3032.97 0.66312 0.778(10) 9887. 0.7284 0.7787
3034.50 0.66346 0.782(10) 9868. 0.7283 0.7837
3036.00 0.66378 0.803(10) 9635. 0.7281 0.7908
3037.53 0.66412 0.793(10) 9739. 0.7280 0.7996
3039.03 0.66445 0.802(10) 9635. 0.7278 0.8101
3040.56 0.66478 0.832(10) 9275. 0.7277 0.8217
3042.09 0.66512 0.836(10) 9246. 0.7275 0.8334
3043.59 0.66545 0.840(10) 9159. 0.7274 0.8441
3045.13 0.66578 0.839(10) 9159. 0.7273 0.8530
3046.66 0.66612 0.857(11) 9013. 0.7271 0.8588
3048.16 0.66644 0.870(11) 8825. 0.7270 0.8616
3049.69 0.66678 0.866(11) 8934. 0.7268 0.8618
3051.22 0.66711 0.859(11) 9046. 0.7267 0.8598
3052.75 0.66745 0.845(10) 9159. 0.7266 0.8565
3054.28 0.66778 0.835(10) 9275. 0.7264 0.8527
3055.81 0.66812 0.837(10) 9246. 0.7263 0.8485
3057.31 0.66845 0.829(10) 9392. 0.7261 0.8445
3058.84 0.66878 0.823(10) 9392. 0.7260 0.8407
3060.38 0.66912 0.830(10) 9392. 0.7259 0.8372
3061.91 0.66945 0.827(10) 9392. 0.7257 0.8340
3063.44 0.66979 0.826(10) 9392. 0.7256 0.8308
3064.97 0.67012 0.810(10) 9635. 0.7254 0.8275
3066.50 0.67046 0.808(10) 9635. 0.7253 0.8238
3068.03 0.67079 0.820(10) 9512. 0.7252 0.8194
3069.56 0.67113 0.793(10) 9780. 0.7250 0.8145
3071.13 0.67147 0.793(10) 9760. 0.7249 0.8093
3072.66 0.67180 0.788(10) 9887. 0.7247 0.8040
3074.19 0.67214 0.786(10) 9887. 0.7246 0.7987
3075.72 0.67247 0.800(10) 9760. 0.7245 0.7934
3077.25 0.67281 0.787(10) 9905. 0.7243 0.7883
3078.81 0.67315 0.774(10) 10016. 0.7242 0.7834
3080.34 0.67349 0.780(10) 10016. 0.7240 0.7790
3081.88 0.67382 0.780(10) 10016. 0.7239 0.7751
3083.41 0.67416 0.778(10) 10032. 0.7238 0.7720
3084.97 0.67450 0.762(10) 10283. 0.7236 0.7697
3086.50 0.67483 0.766(10) 10149. 0.7235 0.7683
3088.03 0.67517 0.765(10) 10162. 0.7233 0.7680
3089.59 0.67551 0.760(10) 10283. 0.7232 0.7685
3091.13 0.67585 0.767(10) 10162. 0.7231 0.7700
3092.69 0.67619 0.753(10) 10421. 0.7229 0.7722
3094.22 0.67652 0.751(10) 10429. 0.7228 0.7749
3095.78 0.67686 0.761(10) 10283. 0.7226 0.7779
3097.31 0.67720 0.747(10) 10429. 0.7225 0.7811
3098.88 0.67754 0.763(10) 10283. 0.7224 0.7841
3100.41 0.67788 0.771(10) 10162. 0.7222 0.7870
3101.97 0.67822 0.775(10) 10162. 0.7221 0.7895
3103.53 0.67856 0.772(10) 10149. 0.7219 0.7915
3105.06 0.67890 0.785(10) 10032. 0.7218 0.7926
3106.63 0.67924 0.773(10) 10162. 0.7216 0.7924
3108.19 0.67958 0.789(10) 10016. 0.7215 0.7909
3109.72 0.67991 0.771(10) 10162. 0.7214 0.7883
3111.28 0.68026 0.765(10) 10294. 0.7212 0.7847
3112.84 0.68060 0.775(10) 10162. 0.7211 0.7806
3114.41 0.68094 0.766(10) 10294. 0.7209 0.7764
3115.97 0.68128 0.768(10) 10283. 0.7208 0.7724
3117.50 0.68162 0.775(10) 10162. 0.7207 0.7689
3119.06 0.68196 0.759(10) 10429. 0.7205 0.7661
3120.63 0.68230 0.752(10) 10567. 0.7204 0.7641
3122.19 0.68264 0.759(10) 10429. 0.7203 0.7632
3123.75 0.68299 0.748(10) 10567. 0.7201 0.7633
3125.31 0.68333 0.757(10) 10429. 0.7200 0.7645
3126.88 0.68367 0.745(10) 10567. 0.7198 0.7667
3128.44 0.68401 0.764(10) 10294. 0.7197 0.7700
3130.00 0.68435 0.753(10) 10567. 0.7196 0.7742
3131.56 0.68469 0.748(10) 10567. 0.7194 0.7793
3133.13 0.68504 0.766(10) 10305. 0.7193 0.7850
3134.72 0.68539 0.765(10) 10294. 0.7191 0.7910
3136.28 0.68573 0.774(10) 10294. 0.7190 0.7968
3137.84 0.68607 0.803(10) 9905. 0.7189 0.8020
3139.41 0.68641 0.793(10) 10032. 0.7187 0.8065
3140.97 0.68675 0.794(10) 10047. 0.7186 0.8104
3142.56 0.68710 0.798(10) 9905. 0.7184 0.8141
3144.13 0.68744 0.794(10) 10032. 0.7183 0.8182
3145.69 0.68779 0.807(10) 9905. 0.7182 0.8230
3147.25 0.68813 0.805(10) 9922. 0.7180 0.8294
3148.84 0.68848 0.822(10) 9657. 0.7179 0.8371
3150.41 0.68882 0.822(10) 9679. 0.7177 0.8462
3152.00 0.68917 0.846(10) 9419. 0.7176 0.8567
3153.56 0.68951 0.850(10) 9330. 0.7175 0.8679
3155.16 0.68986 0.857(10) 9303. 0.7173 0.8793
3156.72 0.69020 0.871(10) 9108. 0.7172 0.8896
3158.31 0.69055 0.887(11) 8968. 0.7170 0.8974
3159.88 0.69089 0.883(11) 9000. 0.7169 0.9014
3161.47 0.69124 0.886(11) 8968. 0.7168 0.9008
3163.03 0.69158 0.886(11) 9000. 0.7166 0.8957
3164.63 0.69193 0.885(10) 9077. 0.7165 0.8869
3166.19 0.69227 0.860(10) 9330. 0.7164 0.8755
3167.78 0.69262 0.838(10) 9560. 0.7162 0.8627
3169.38 0.69297 0.830(10) 9657. 0.7161 0.8496
3170.94 0.69331 0.829(10) 9679. 0.7159 0.8369
3172.53 0.69366 0.807(10) 9922. 0.7158 0.8251
3174.13 0.69401 0.803(10) 9922. 0.7157 0.8145
3175.72 0.69436 0.799(10) 10047. 0.7155 0.8055
3177.31 0.69471 0.782(10) 10294. 0.7154 0.7982
3178.88 0.69505 0.781(10) 10305. 0.7152 0.7924
3180.47 0.69540 0.781(10) 10305. 0.7151 0.7882
3182.06 0.69575 0.774(10) 10437. 0.7150 0.7855
3183.66 0.69609 0.769(10) 10437. 0.7148 0.7842
3185.25 0.69644 0.774(10) 10437. 0.7147 0.7844
3186.84 0.69679 0.776(10) 10305. 0.7145 0.7856
3188.44 0.69714 0.778(10) 10305. 0.7144 0.7876
3190.03 0.69749 0.786(10) 10305. 0.7143 0.7901
3191.63 0.69784 0.782(10) 10305. 0.7141 0.7926
3193.22 0.69819 0.788(10) 10175. 0.7140 0.7946
3194.81 0.69854 0.795(10) 10175. 0.7139 0.7959
3196.41 0.69888 0.767(10) 10572. 0.7137 0.7965
3198.00 0.69923 0.782(10) 10315. 0.7136 0.7966
3199.63 0.69959 0.793(10) 10175. 0.7134 0.7963
3201.22 0.69994 0.790(10) 10175. 0.7133 0.7959
3202.81 0.70029 0.778(10) 10305. 0.7132 0.7955
3204.41 0.70063 0.781(10) 10315. 0.7130 0.7952
3206.03 0.70099 0.784(10) 10305. 0.7129 0.7948
3207.63 0.70134 0.790(10) 10175. 0.7127 0.7944
3209.22 0.70169 0.786(10) 10305. 0.7126 0.7940
3210.81 0.70204 0.784(10) 10315. 0.7125 0.7936
3212.44 0.70239 0.781(10) 10305. 0.7123 0.7932
3214.03 0.70274 0.789(10) 10315. 0.7122 0.7925
3215.66 0.70310 0.776(10) 10437. 0.7121 0.7912
3217.25 0.70344 0.790(10) 10315. 0.7119 0.7891
3218.88 0.70380 0.775(10) 10437. 0.7118 0.7862
3220.47 0.70415 0.766(10) 10578. 0.7116 0.7825
3222.09 0.70450 0.759(10) 10710. 0.7115 0.7784
3223.69 0.70485 0.775(10) 10445. 0.7114 0.7740
3225.31 0.70521 0.763(10) 10572. 0.7112 0.7697
3226.91 0.70556 0.762(10) 10713. 0.7111 0.7654
3228.53 0.70591 0.751(10) 10851. 0.7110 0.7612
3230.16 0.70627 0.756(10) 10710. 0.7108 0.7573
3231.75 0.70662 0.763(10) 10713. 0.7107 0.7536
3233.38 0.70697 0.741(10) 10991. 0.7105 0.7502
3235.00 0.70733 0.732(9) 11134. 0.7104 0.7472
3236.63 0.70768 0.744(10) 10994. 0.7103 0.7446
3238.22 0.70803 0.748(10) 10851. 0.7101 0.7424
3239.84 0.70839 0.741(10) 10991. 0.7100 0.7405
3241.47 0.70874 0.735(9) 11134. 0.7098 0.7389
3243.09 0.70910 0.719(9) 11280. 0.7097 0.7377
3244.72 0.70946 0.722(9) 11280. 0.7096 0.7368
3246.34 0.70981 0.731(9) 11134. 0.7094 0.7360
3247.97 0.71017 0.734(9) 11134. 0.7093 0.7354
3249.59 0.71052 0.736(9) 11134. 0.7092 0.7349
3251.22 0.71088 0.726(9) 11280. 0.7090 0.7344
3252.84 0.71123 0.725(9) 11280. 0.7089 0.7338
3254.47 0.71159 0.727(9) 11280. 0.7087 0.7331
3256.09 0.71194 0.732(9) 11134. 0.7086 0.7326
3257.72 0.71230 0.735(9) 11134. 0.7085 0.7324
3259.34 0.71266 0.728(9) 11280. 0.7083 0.7326
3260.97 0.71301 0.724(9) 11280. 0.7082 0.7334
3262.59 0.71337 0.726(9) 11280. 0.7081 0.7350
3264.22 0.71372 0.729(9) 11272. 0.7079 0.7376
3265.88 0.71409 0.742(10) 10991. 0.7078 0.7411
3267.50 0.71444 0.740(9) 11134. 0.7077 0.7458
3269.13 0.71480 0.739(9) 11129. 0.7075 0.7512
3270.78 0.71516 0.744(10) 10991. 0.7074 0.7574
3272.41 0.71551 0.752(10) 10851. 0.7072 0.7638
3274.03 0.71587 0.762(10) 10715. 0.7071 0.7705
3275.69 0.71623 0.766(10) 10713. 0.7070 0.7768
3277.31 0.71659 0.773(10) 10578. 0.7068 0.7825
3278.94 0.71694 0.773(10) 10583. 0.7067 0.7877
3280.59 0.71731 0.783(10) 10445. 0.7066 0.7924
3282.22 0.71766 0.796(10) 10325. 0.7064 0.7966
3283.88 0.71802 0.784(10) 10445. 0.7063 0.8002
3285.50 0.71838 0.781(10) 10583. 0.7061 0.8030
3287.16 0.71874 0.775(10) 10583. 0.7060 0.8046
3288.81 0.71910 0.788(10) 10445. 0.7059 0.8047
3290.44 0.71946 0.774(10) 10583. 0.7057 0.8035
3292.09 0.71982 0.782(10) 10583. 0.7056 0.8014
3293.75 0.72019 0.793(10) 10445. 0.7055 0.7990
3295.38 0.72054 0.780(10) 10583. 0.7053 0.7970
3297.03 0.72090 0.770(10) 10715. 0.7052 0.7962
3298.69 0.72127 0.778(10) 10583. 0.7051 0.7972
3300.34 0.72163 0.802(10) 10315. 0.7049 0.8005
3301.97 0.72198 0.789(10) 10453. 0.7048 0.8062
3303.63 0.72235 0.795(10) 10325. 0.7046 0.8144
3305.28 0.72271 0.812(10) 10199. 0.7045 0.8248
3306.94 0.72307 0.831(10) 9955. 0.7044 0.8365
3308.59 0.72343 0.854(10) 9719. 0.7042 0.8487
3310.25 0.72380 0.851(10) 9719. 0.7041 0.8598
3311.91 0.72416 0.870(10) 9492. 0.7040 0.8683
3313.56 0.72452 0.869(10) 9492. 0.7038 0.8732
3315.22 0.72488 0.854(10) 9719. 0.7037 0.8738
3316.88 0.72525 0.868(10) 9492. 0.7036 0.8705
3318.53 0.72561 0.844(10) 9836. 0.7034 0.8643
3320.19 0.72597 0.840(10) 9836. 0.7033 0.8563
3321.84 0.72633 0.847(10) 9719. 0.7031 0.8473
3323.50 0.72670 0.844(10) 9836. 0.7030 0.8383
3325.16 0.72706 0.829(10) 9970. 0.7029 0.8296
3326.84 0.72743 0.812(10) 10199. 0.7027 0.8218
3328.50 0.72779 0.808(10) 10199. 0.7026 0.8154
3330.16 0.72815 0.809(10) 10199. 0.7025 0.8104
3331.81 0.72851 0.796(10) 10460. 0.7023 0.8069
3333.50 0.72888 0.798(10) 10453. 0.7022 0.8053
3335.16 0.72925 0.795(10) 10453. 0.7021 0.8054
3336.81 0.72961 0.799(10) 10334. 0.7019 0.8075
3338.50 0.72998 0.801(10) 10325. 0.7018 0.8114
3340.16 0.73034 0.801(10) 10334. 0.7017 0.8171
3341.84 0.73071 0.809(10) 10325. 0.7015 0.8244
3343.50 0.73107 0.823(10) 10089. 0.7014 0.8332
3345.19 0.73144 0.833(10) 9955. 0.7012 0.8428
3346.84 0.73180 0.837(10) 9970. 0.7011 0.8525
3348.53 0.73217 0.843(10) 9836. 0.7010 0.8612
3350.19 0.73254 0.847(10) 9853. 0.7008 0.8676
3351.88 0.73290 0.856(10) 9719. 0.7007 0.8704
3353.53 0.73327 0.857(10) 9739. 0.7006 0.8692
3355.22 0.73364 0.863(10) 9626. 0.7004 0.8641
3356.91 0.73401 0.848(10) 9836. 0.7003 0.8561
3358.56 0.73437 0.835(10) 9970. 0.7002 0.8463
3360.25 0.73474 0.823(10) 10089. 0.7000 0.8356
3361.94 0.73511 0.818(10) 10211. 0.6999 0.8251
3363.63 0.73548 0.799(10) 10460. 0.6998 0.8155
3365.31 0.73584 0.793(10) 10583. 0.6996 0.8074
3366.97 0.73621 0.794(10) 10460. 0.6995 0.8010
3368.66 0.73658 0.792(10) 10588. 0.6994 0.7964
3370.34 0.73695 0.779(10) 10718. 0.6992 0.7937
3372.03 0.73732 0.776(10) 10718. 0.6991 0.7926
3373.72 0.73768 0.797(10) 10460. 0.6989 0.7929
3375.41 0.73805 0.790(10) 10588. 0.6988 0.7944
3377.09 0.73842 0.786(10) 10588. 0.6987 0.7967
3378.78 0.73879 0.775(10) 10851. 0.6985 0.7995
3380.47 0.73916 0.782(10) 10718. 0.6984 0.8026
3382.16 0.73953 0.798(10) 10460. 0.6983 0.8061
3383.84 0.73990 0.794(10) 10592. 0.6981 0.8100
3385.56 0.74028 0.786(10) 10718. 0.6980 0.8141
3387.25 0.74065 0.802(10) 10460. 0.6979 0.8178
3388.94 0.74101 0.805(10) 10460. 0.6977 0.8207
3390.63 0.74138 0.799(10) 10460. 0.6976 0.8219
3392.31 0.74175 0.792(10) 10592. 0.6975 0.8208
3394.03 0.74213 0.790(10) 10588. 0.6973 0.8173
3395.72 0.74250 0.784(10) 10718. 0.6972 0.8118
3397.41 0.74287 0.771(10) 10851. 0.6971 0.8046
3399.13 0.74324 0.772(10) 10851. 0.6969 0.7964
3400.81 0.74361 0.780(10) 10718. 0.6968 0.7881
3402.50 0.74398 0.767(10) 10983. 0.6967 0.7798
3404.22 0.74436 0.761(10) 10986. 0.6965 0.7721
3405.91 0.74473 0.755(9) 11119. 0.6964 0.7652
3407.63 0.74510 0.746(9) 11264. 0.6963 0.7592
3409.31 0.74547 0.739(9) 11397. 0.6961 0.7543
3411.03 0.74585 0.718(9) 11701. 0.6960 0.7506
3412.72 0.74622 0.730(9) 11539. 0.6959 0.7481
3414.44 0.74659 0.741(9) 11397. 0.6957 0.7470
3416.16 0.74697 0.731(9) 11553. 0.6956 0.7474
3417.84 0.74734 0.742(9) 11397. 0.6954 0.7494
3419.56 0.74772 0.736(9) 11397. 0.6953 0.7532
3421.28 0.74809 0.756(9) 11119. 0.6952 0.7589
3423.00 0.74847 0.752(9) 11264. 0.6950 0.7663
3424.69 0.74884 0.760(9) 11119. 0.6949 0.7753
3426.41 0.74921 0.777(10) 10851. 0.6948 0.7854
3428.13 0.74959 0.785(10) 10720. 0.6946 0.7958
3429.84 0.74997 0.794(10) 10592. 0.6945 0.8057
3431.56 0.75034 0.804(10) 10467. 0.6944 0.8139
3433.28 0.75072 0.806(10) 10460. 0.6942 0.8194
3434.97 0.75109 0.798(10) 10592. 0.6941 0.8219
3436.69 0.75146 0.803(10) 10467. 0.6940 0.8216
3438.41 0.75184 0.800(10) 10592. 0.6938 0.8190
3440.13 0.75222 0.791(10) 10720. 0.6937 0.8148
3441.84 0.75259 0.793(10) 10597. 0.6936 0.8096
3443.59 0.75298 0.783(10) 10851. 0.6934 0.8038
3445.31 0.75335 0.773(10) 10983. 0.6933 0.7977
3447.03 0.75373 0.766(10) 10983. 0.6932 0.7913
3448.75 0.75410 0.769(10) 10983. 0.6930 0.7846
3450.47 0.75448 0.755(9) 11256. 0.6929 0.7777
3452.19 0.75486 0.753(9) 11249. 0.6928 0.7707
3453.94 0.75524 0.761(9) 11119. 0.6926 0.7638
3455.66 0.75561 0.759(9) 11119. 0.6925 0.7572
3457.38 0.75599 0.736(9) 11539. 0.6924 0.7511
3459.09 0.75637 0.728(9) 11669. 0.6922 0.7454
3460.84 0.75675 0.725(9) 11685. 0.6921 0.7401
3462.56 0.75713 0.727(9) 11669. 0.6920 0.7354
3464.31 0.75751 0.721(9) 11685. 0.6918 0.7312
3466.03 0.75789 0.715(9) 11833. 0.6917 0.7275
3467.75 0.75826 0.725(9) 11669. 0.6916 0.7242
3469.50 0.75864 0.718(9) 11833. 0.6914 0.7215
3471.22 0.75902 0.706(9) 11963. 0.6913 0.7193
3472.97 0.75940 0.719(9) 11815. 0.6912 0.7177
3474.72 0.75979 0.712(9) 11985. 0.6910 0.7167
3476.44 0.76016 0.711(9) 11963. 0.6909 0.7164
3478.19 0.76055 0.711(9) 11985. 0.6908 0.7167
3479.91 0.76092 0.718(9) 11815. 0.6906 0.7179
3481.66 0.76130 0.717(9) 11815. 0.6905 0.7198
3483.41 0.76169 0.727(9) 11685. 0.6904 0.7225
3485.13 0.76206 0.714(9) 11963. 0.6903 0.7259
3486.88 0.76245 0.725(9) 11669. 0.6901 0.7298
3488.63 0.76283 0.730(9) 11669. 0.6900 0.7342
3490.38 0.76321 0.727(9) 11669. 0.6899 0.7390
3492.13 0.76360 0.721(9) 11815. 0.6897 0.7442
3493.88 0.76398 0.726(9) 11685. 0.6896 0.7497
3495.59 0.76435 0.729(9) 11669. 0.6895 0.7557
3497.34 0.76474 0.746(9) 11386. 0.6893 0.7622
3499.09 0.76512 0.745(9) 11386. 0.6892 0.7693
3500.84 0.76550 0.751(9) 11386. 0.6891 0.7760
3502.59 0.76589 0.761(9) 11114. 0.6889 0.7819
3504.34 0.76627 0.764(9) 11114. 0.6888 0.7864
3506.09 0.76665 0.769(9) 11109. 0.6887 0.7889
3507.9 0.76704 0.766(9) 11114. 0.6885 0.7893
3509.6 0.76742 0.761(9) 11114. 0.6884 0.7878
3511.4 0.76781 0.768(9) 11114. 0.6883 0.7851
3513.1 0.76819 0.764(9) 11114. 0.6881 0.7820
3514.9 0.76857 0.767(9) 11114. 0.6880 0.7794
3516.6 0.76896 0.754(9) 11242. 0.6879 0.7781
3518.4 0.76935 0.762(9) 11114. 0.6877 0.7788
3520.2 0.76973 0.772(10) 10981. 0.6876 0.7820
3521.9 0.77011 0.784(10) 10851. 0.6875 0.7884
3523.7 0.77050 0.794(10) 10723. 0.6873 0.7981
3525.4 0.77089 0.814(10) 10480. 0.6872 0.8112
3527.2 0.77127 0.828(10) 10233. 0.6871 0.8273
3529.0 0.77166 0.826(10) 10352. 0.6870 0.8452
3530.7 0.77204 0.847(10) 10014. 0.6868 0.8640
3532.5 0.77243 0.875(10) 9775. 0.6867 0.8816
3534.3 0.77281 0.892(10) 9579. 0.6866 0.8959
3536.0 0.77320 0.895(10) 9474. 0.6864 0.9050
3537.8 0.77359 0.909(10) 9348. 0.6863 0.9080
3539.6 0.77398 0.914(10) 9271. 0.6862 0.9052
3541.3 0.77437 0.904(10) 9452. 0.6860 0.8978
3543.1 0.77475 0.897(10) 9474. 0.6859 0.8871
3544.9 0.77514 0.883(10) 9685. 0.6858 0.8747
3546.7 0.77553 0.883(10) 9685. 0.6856 0.8616
3548.4 0.77592 0.861(10) 9887. 0.6855 0.8490
3550.2 0.77630 0.847(10) 10014. 0.6854 0.8373
3552.0 0.77669 0.830(10) 10243. 0.6852 0.8266
3553.8 0.77708 0.819(10) 10360. 0.6851 0.8173
3555.5 0.77747 0.817(10) 10480. 0.6850 0.8095
3557.3 0.77786 0.808(10) 10601. 0.6849 0.8031
3559.1 0.77825 0.792(10) 10725. 0.6847 0.7981
3560.9 0.77864 0.800(10) 10725. 0.6846 0.7942
3562.7 0.77903 0.802(10) 10601. 0.6845 0.7910
3564.4 0.77942 0.795(10) 10725. 0.6843 0.7880
3566.2 0.77981 0.801(10) 10725. 0.6842 0.7847
3568.0 0.78020 0.802(10) 10601. 0.6841 0.7805
3569.8 0.78059 0.795(10) 10725. 0.6839 0.7754
3571.6 0.78098 0.762(9) 11242. 0.6838 0.7695
3573.3 0.78137 0.784(10) 10851. 0.6837 0.7631
3575.1 0.78176 0.776(10) 10979. 0.6835 0.7564
3576.9 0.78215 0.763(9) 11235. 0.6834 0.7497
3578.7 0.78254 0.753(9) 11377. 0.6833 0.7433
3580.5 0.78293 0.758(9) 11242. 0.6832 0.7374
3582.3 0.78332 0.752(9) 11367. 0.6830 0.7319
3584.1 0.78372 0.752(9) 11377. 0.6829 0.7270
3585.9 0.78411 0.718(9) 11942. 0.6828 0.7227
3587.7 0.78450 0.726(9) 11779. 0.6826 0.7190
3589.5 0.78490 0.736(9) 11654. 0.6825 0.7159
3591.3 0.78529 0.729(9) 11779. 0.6824 0.7133
3593.1 0.78568 0.723(9) 11797. 0.6822 0.7114
3594.8 0.78607 0.726(9) 11779. 0.6821 0.7102
3596.7 0.78647 0.729(9) 11797. 0.6820 0.7099
3598.4 0.78686 0.740(9) 11502. 0.6819 0.7104
3600.3 0.78726 0.738(9) 11654. 0.6817 0.7122
3602.0 0.78765 0.740(9) 11502. 0.6816 0.7150
3603.8 0.78804 0.729(9) 11779. 0.6815 0.7191
3605.7 0.78844 0.732(9) 11654. 0.6813 0.7243
3607.4 0.78883 0.731(9) 11640. 0.6812 0.7305
3609.3 0.78923 0.733(9) 11640. 0.6811 0.7371
3611.1 0.78962 0.733(9) 11654. 0.6809 0.7435
3612.8 0.79001 0.734(9) 11640. 0.6808 0.7493
3614.7 0.79041 0.747(9) 11502. 0.6807 0.7538
3616.5 0.79081 0.748(9) 11502. 0.6806 0.7565
3618.3 0.79120 0.747(9) 11502. 0.6804 0.7574
3620.1 0.79160 0.746(9) 11502. 0.6803 0.7568
3621.9 0.79200 0.745(9) 11502. 0.6802 0.7550
3623.7 0.79239 0.738(9) 11640. 0.6800 0.7526
3625.5 0.79279 0.741(9) 11502. 0.6799 0.7500
3627.3 0.79319 0.745(9) 11502. 0.6798 0.7473
3629.2 0.79358 0.755(9) 11367. 0.6797 0.7447
3631.0 0.79398 0.751(9) 11367. 0.6795 0.7423
3632.8 0.79438 0.756(9) 11367. 0.6794 0.7402
3634.6 0.79477 0.752(9) 11367. 0.6793 0.7383
3636.4 0.79517 0.743(9) 11502. 0.6791 0.7369
3638.2 0.79557 0.736(9) 11626. 0.6790 0.7363
3640.1 0.79597 0.762(9) 11235. 0.6789 0.7370
3641.9 0.79637 0.750(9) 11367. 0.6788 0.7393
3643.7 0.79676 0.755(9) 11367. 0.6786 0.7440
3645.5 0.79716 0.766(9) 11228. 0.6785 0.7520
3647.3 0.79756 0.768(9) 11105. 0.6784 0.7640
3649.2 0.79796 0.800(10) 10727. 0.6782 0.7808
3651.0 0.79836 0.816(10) 10492. 0.6781 0.8038
3652.8 0.79876 0.844(10) 10139. 0.6780 0.8334
3654.6 0.79916 0.896(10) 9517. 0.6779 0.8697
3656.5 0.79956 0.919(10) 9295. 0.6777 0.9120
3658.3 0.79996 0.952(11) 9032. 0.6776 0.9586
3660.1 0.80036 1.015(11) 8465. 0.6775 1.0069
3661.9 0.80076 1.052(11) 8169. 0.6773 1.0533
3663.8 0.80116 1.086(11) 7857. 0.6772 1.0940
3665.6 0.80156 1.105(11) 7741. 0.6771 1.1245
3667.4 0.80196 1.131(11) 7564. 0.6770 1.1434
3669.3 0.80236 1.139(12) 7493. 0.6768 1.1516
3671.1 0.80277 1.143(12) 7449. 0.6767 1.1512
3672.9 0.80316 1.138(12) 7493. 0.6766 1.1456
3674.8 0.80357 1.125(11) 7636. 0.6764 1.1370
3676.6 0.80397 1.107(11) 7708. 0.6763 1.1272
3678.5 0.80437 1.091(11) 7857. 0.6762 1.1170
3680.3 0.80478 1.072(11) 8011. 0.6761 1.1058
3682.2 0.80518 1.067(11) 8051. 0.6759 1.0927
3684.0 0.80558 1.044(11) 8169. 0.6758 1.0770
3685.8 0.80598 1.018(11) 8414. 0.6757 1.0583
3687.7 0.80638 0.998(11) 8584. 0.6755 1.0374
3689.5 0.80679 1.004(11) 8499. 0.6754 1.0157
3691.3 0.80719 0.988(11) 8671. 0.6753 0.9940
3693.2 0.80759 0.974(11) 8789. 0.6752 0.9731
3695.1 0.80801 0.951(11) 9032. 0.6750 0.9535
3696.9 0.80841 0.941(10) 9126. 0.6749 0.9353
3698.8 0.80881 0.907(10) 9417. 0.6748 0.9181
3700.6 0.80922 0.890(10) 9618. 0.6747 0.9013
3702.4 0.80962 0.886(10) 9721. 0.6745 0.8847
3704.3 0.81002 0.873(10) 9842. 0.6744 0.8687
3706.2 0.81043 0.849(10) 10151. 0.6743 0.8524
3708.0 0.81084 0.846(10) 10151. 0.6741 0.8369
3709.8 0.81124 0.837(10) 10272. 0.6740 0.8221
3711.7 0.81165 0.829(10) 10376. 0.6739 0.8084
3713.6 0.81205 0.814(10) 10498. 0.6738 0.7959
3715.4 0.81246 0.812(10) 10610. 0.6736 0.7845
3717.3 0.81287 0.802(10) 10729. 0.6735 0.7742
3719.1 0.81327 0.805(10) 10614. 0.6734 0.7647
3721.0 0.81368 0.792(10) 10851. 0.6733 0.7561
3722.8 0.81408 0.776(9) 11096. 0.6731 0.7482
3724.7 0.81450 0.770(9) 11096. 0.6730 0.7410
3726.6 0.81491 0.763(9) 11228. 0.6729 0.7346
3728.4 0.81531 0.743(9) 11612. 0.6728 0.7289
3730.3 0.81572 0.753(9) 11350. 0.6726 0.7239
3732.2 0.81613 0.758(9) 11358. 0.6725 0.7197
3734.0 0.81653 0.742(9) 11612. 0.6724 0.7163
3735.9 0.81694 0.743(9) 11612. 0.6722 0.7139
3737.8 0.81735 0.745(9) 11480. 0.6721 0.7124
3739.7 0.81776 0.738(9) 11626. 0.6720 0.7118
3741.5 0.81817 0.748(9) 11480. 0.6719 0.7124
3743.4 0.81858 0.760(9) 11350. 0.6717 0.7139
3745.3 0.81899 0.740(9) 11612. 0.6716 0.7166
3747.1 0.81940 0.752(9) 11350. 0.6715 0.7202
3749.0 0.81981 0.752(9) 11350. 0.6714 0.7248
3750.9 0.82022 0.760(9) 11350. 0.6712 0.7303
3752.8 0.82063 0.769(9) 11096. 0.6711 0.7366
3754.6 0.82104 0.761(9) 11222. 0.6710 0.7439
3756.5 0.82145 0.779(10) 10972. 0.6709 0.7524
3758.4 0.82186 0.793(10) 10851. 0.6707 0.7626
3760.3 0.82227 0.803(10) 10617. 0.6706 0.7750
3762.2 0.82269 0.812(10) 10498. 0.6705 0.7896
3764.0 0.82310 0.814(10) 10498. 0.6704 0.8060
3765.9 0.82351 0.829(10) 10384. 0.6702 0.8237
3767.8 0.82392 0.844(10) 10173. 0.6701 0.8415
3769.7 0.82434 0.878(10) 9739. 0.6700 0.8574
3771.6 0.82475 0.873(10) 9842. 0.6699 0.8695
3773.4 0.82516 0.880(10) 9755. 0.6697 0.8762
3775.3 0.82557 0.874(10) 9842. 0.6696 0.8769
3777.2 0.82598 0.857(10) 9947. 0.6695 0.8721
3779.1 0.82639 0.850(10) 10066. 0.6694 0.8633
3781.0 0.82681 0.842(10) 10162. 0.6692 0.8513
3782.9 0.82722 0.832(10) 10281. 0.6691 0.8379
3784.8 0.82764 0.830(10) 10281. 0.6690 0.8240
3786.7 0.82806 0.814(10) 10498. 0.6689 0.8110
3788.6 0.82847 0.798(10) 10733. 0.6687 0.7994
3790.5 0.82888 0.790(10) 10851. 0.6686 0.7897
3792.3 0.82929 0.796(10) 10733. 0.6685 0.7823
3794.3 0.82971 0.791(10) 10851. 0.6684 0.7774
3796.2 0.83013 0.788(10) 10851. 0.6682 0.7753
3798.0 0.83054 0.811(10) 10503. 0.6681 0.7760
3799.9 0.83096 0.807(10) 10617. 0.6680 0.7796
3801.8 0.83137 0.827(10) 10391. 0.6679 0.7856
3803.8 0.83179 0.831(10) 10281. 0.6677 0.7935
3805.7 0.83221 0.833(10) 10281. 0.6676 0.8027
3807.6 0.83262 0.855(10) 9961. 0.6675 0.8123
3809.5 0.83304 0.846(10) 10066. 0.6674 0.8213
3811.4 0.83346 0.850(10) 10054. 0.6672 0.8291
3813.3 0.83387 0.887(10) 9673. 0.6671 0.8360
3815.2 0.83429 0.877(10) 9755. 0.6670 0.8425
3817.1 0.83471 0.883(10) 9655. 0.6669 0.8494
3819.0 0.83513 0.902(10) 9459. 0.6667 0.8577
3820.9 0.83554 0.902(10) 9459. 0.6666 0.8674
3822.8 0.83596 0.899(10) 9459. 0.6665 0.8787
3824.7 0.83638 0.914(10) 9363. 0.6664 0.8903
3826.6 0.83680 0.932(10) 9176. 0.6662 0.9011
3828.5 0.83721 0.932(10) 9109. 0.6661 0.9092
3830.5 0.83764 0.929(10) 9176. 0.6660 0.9131
3832.4 0.83805 0.935(10) 9084. 0.6659 0.9121
3834.3 0.83847 0.939(10) 9109. 0.6658 0.9067
3836.2 0.83890 0.910(10) 9363. 0.6656 0.8980
3838.1 0.83931 0.908(10) 9363. 0.6655 0.8876
3840.0 0.83973 0.897(10) 9479. 0.6654 0.8768
3842.0 0.84015 0.885(10) 9655. 0.6653 0.8671
3843.9 0.84057 0.876(10) 9772. 0.6651 0.8598
3845.8 0.84100 0.869(10) 9857. 0.6650 0.8560
3847.7 0.84141 0.859(10) 9872. 0.6649 0.8568
3849.7 0.84184 0.866(10) 9872. 0.6648 0.8637
3851.6 0.84226 0.888(10) 9556. 0.6646 0.8780
3853.5 0.84268 0.900(10) 9479. 0.6645 0.9014
3855.4 0.84310 0.939(11) 9020. 0.6644 0.9354
3857.4 0.84353 0.990(11) 8563. 0.6643 0.9802
3859.3 0.84394 1.038(11) 8197. 0.6641 1.0352
3861.2 0.84437 1.107(11) 7686. 0.6640 1.0987
3863.2 0.84479 1.169(12) 7285. 0.6639 1.1669
3865.1 0.84521 1.247(12) 6810. 0.6638 1.2333
3867.0 0.84563 1.282(12) 6627. 0.6637 1.2914
3868.9 0.84606 1.317(12) 6410. 0.6635 1.3345
3870.9 0.84648 1.356(13) 6254. 0.6634 1.3567
3872.8 0.84690 1.363(13) 6203. 0.6633 1.3569
3874.8 0.84733 1.336(13) 6357. 0.6632 1.3374
3876.7 0.84775 1.317(12) 6410. 0.6630 1.3029
3878.6 0.84818 1.283(12) 6627. 0.6629 1.2584
3880.6 0.84860 1.232(12) 6856. 0.6628 1.2088
3882.5 0.84902 1.188(12) 7158. 0.6627 1.1579
3884.4 0.84945 1.122(12) 7522. 0.6626 1.1078
3886.4 0.84988 1.074(11) 7899. 0.6624 1.0608
3888.3 0.85030 1.035(11) 8197. 0.6623 1.0183
3890.3 0.85073 0.997(11) 8512. 0.6622 0.9801
3892.2 0.85115 0.958(11) 8846. 0.6621 0.9465
3894.2 0.85157 0.940(11) 9046. 0.6619 0.9168
3896.1 0.85201 0.915(10) 9292. 0.6618 0.8912
3898.1 0.85243 0.896(10) 9479. 0.6617 0.8696
3900.0 0.85285 0.884(10) 9594. 0.6616 0.8513
3902.0 0.85328 0.866(10) 9772. 0.6615 0.8360
3903.9 0.85371 0.843(10) 10089. 0.6613 0.8232
3905.9 0.85414 0.835(10) 10183. 0.6612 0.8126
3907.8 0.85456 0.820(10) 10299. 0.6611 0.8035
3909.8 0.85499 0.829(10) 10183. 0.6610 0.7956
3911.7 0.85542 0.815(10) 10406. 0.6608 0.7886
3913.7 0.85585 0.820(10) 10299. 0.6607 0.7822
3915.7 0.85628 0.815(10) 10399. 0.6606 0.7769
3917.6 0.85670 0.818(10) 10406. 0.6605 0.7727
3919.6 0.85713 0.814(10) 10406. 0.6604 0.7698
3921.5 0.85757 0.803(10) 10509. 0.6602 0.7683
3923.5 0.85799 0.809(10) 10514. 0.6601 0.7680
3925.4 0.85842 0.813(10) 10406. 0.6600 0.7686
3927.4 0.85885 0.812(10) 10406. 0.6599 0.7695
3929.4 0.85928 0.805(10) 10514. 0.6598 0.7700
3931.3 0.85971 0.806(10) 10514. 0.6596 0.7694
3933.3 0.86014 0.812(10) 10399. 0.6595 0.7673
3935.3 0.86057 0.802(10) 10514. 0.6594 0.7636
3937.2 0.86100 0.785(10) 10737. 0.6593 0.7586
3939.2 0.86143 0.777(10) 10851. 0.6592 0.7528
3941.2 0.86186 0.784(10) 10737. 0.6590 0.7467
3943.1 0.86229 0.776(10) 10851. 0.6589 0.7407
3945.1 0.86273 0.772(10) 10966. 0.6588 0.7355
3947.1 0.86316 0.775(10) 10966. 0.6587 0.7315
3949.1 0.86359 0.763(9) 11084. 0.6586 0.7293
3951.0 0.86402 0.762(9) 11084. 0.6584 0.7293
3953.0 0.86445 0.768(10) 10965. 0.6583 0.7325
3955.0 0.86489 0.774(10) 10851. 0.6582 0.7397
3957.0 0.86532 0.784(10) 10737. 0.6581 0.7516
3958.9 0.86575 0.799(10) 10514. 0.6579 0.7692
3960.9 0.86618 0.840(10) 10000. 0.6578 0.7930
3962.9 0.86662 0.881(10) 9594. 0.6577 0.8228
3964.9 0.86705 0.915(10) 9246. 0.6576 0.8582
3966.9 0.86749 0.946(11) 8873. 0.6575 0.8970
3968.8 0.86792 0.975(11) 8653. 0.6573 0.9367
3970.8 0.86836 1.016(11) 8308. 0.6572 0.9741
3972.8 0.86879 1.046(11) 8044. 0.6571 1.0053
3974.8 0.86923 1.061(11) 7936. 0.6570 1.0270
3976.8 0.86966 1.075(11) 7831. 0.6569 1.0378
3978.8 0.87009 1.088(11) 7695. 0.6568 1.0384
3980.8 0.87053 1.070(11) 7865. 0.6566 1.0313
3982.8 0.87096 1.069(11) 7831. 0.6565 1.0192
3984.8 0.87140 1.062(11) 7901. 0.6564 1.0049
3986.8 0.87184 1.041(11) 8044. 0.6563 0.9905
3988.8 0.87228 1.000(11) 8385. 0.6562 0.9773
3990.7 0.87271 0.990(11) 8495. 0.6560 0.9659
3992.7 0.87314 0.981(11) 8573. 0.6559 0.9556
3994.7 0.87358 0.955(11) 8817. 0.6558 0.9457
3996.7 0.87402 0.938(11) 8985. 0.6557 0.9354
3998.7 0.87446 0.937(11) 8985. 0.6556 0.9242
4000.7 0.87490 0.905(10) 9246. 0.6554 0.9125
4002.7 0.87533 0.905(10) 9246. 0.6553 0.9011
4004.7 0.87577 0.896(10) 9335. 0.6552 0.8909
4006.7 0.87621 0.893(10) 9426. 0.6551 0.8824
4008.7 0.87665 0.889(10) 9426. 0.6550 0.8764
4010.7 0.87708 0.886(10) 9446. 0.6548 0.8727
4012.8 0.87753 0.891(10) 9426. 0.6547 0.8707
4014.8 0.87797 0.889(10) 9426. 0.6546 0.8694
4016.8 0.87840 0.885(10) 9518. 0.6545 0.8676
4018.8 0.87884 0.890(10) 9446. 0.6544 0.8637
4020.8 0.87929 0.886(10) 9426. 0.6543 0.8570
4022.8 0.87972 0.871(10) 9612. 0.6541 0.8475
4024.8 0.88016 0.856(10) 9818. 0.6540 0.8355
4026.8 0.88061 0.843(10) 9901. 0.6539 0.8217
4028.8 0.88104 0.840(10) 10012. 0.6538 0.8073
4030.8 0.88149 0.816(10) 10307. 0.6537 0.7929
4032.8 0.88193 0.799(10) 10524. 0.6535 0.7790
4034.9 0.88237 0.787(10) 10628. 0.6534 0.7659
4036.9 0.88281 0.791(10) 10631. 0.6533 0.7539
4038.9 0.88325 0.780(10) 10739. 0.6532 0.7430
4040.9 0.88369 0.761(10) 10963. 0.6531 0.7333
4042.9 0.88414 0.749(9) 11192. 0.6530 0.7252
4045.0 0.88458 0.737(9) 11317. 0.6528 0.7175
4047.0 0.88502 0.723(9) 11551. 0.6527 0.7107
4049.0 0.88546 0.730(9) 11429. 0.6526 0.7047
4051.0 0.88591 0.716(9) 11674. 0.6525 0.6994
4053.1 0.88635 0.720(9) 11551. 0.6524 0.6948
4055.1 0.88680 0.728(9) 11439. 0.6523 0.6908
4057.1 0.88723 0.713(9) 11674. 0.6521 0.6873
4059.1 0.88768 0.708(9) 11799. 0.6520 0.6844
4061.2 0.88812 0.699(9) 11926. 0.6519 0.6821
4063.2 0.88857 0.704(9) 11799. 0.6518 0.6804
4065.2 0.88901 0.709(9) 11799. 0.6517 0.6789
4067.3 0.88946 0.703(9) 11926. 0.6515 0.6788
4069.3 0.88990 0.705(9) 11784. 0.6514 0.6798
4071.3 0.89035 0.707(9) 11799. 0.6513 0.6819
4073.4 0.89080 0.709(9) 11799. 0.6512 0.6853
4075.4 0.89124 0.723(9) 11551. 0.6511 0.6901
4077.4 0.89169 0.722(9) 11551. 0.6510 0.6961
4079.5 0.89213 0.724(9) 11539. 0.6508 0.7032
4081.5 0.89258 0.730(9) 11429. 0.6507 0.7110
4083.6 0.89303 0.725(9) 11429. 0.6506 0.7188
4085.6 0.89347 0.725(9) 11539. 0.6505 0.7260
4087.7 0.89392 0.733(9) 11310. 0.6504 0.7319
4089.7 0.89437 0.733(9) 11310. 0.6503 0.7362
4091.7 0.89481 0.744(9) 11187. 0.6502 0.7390
4093.8 0.89526 0.739(9) 11310. 0.6500 0.7408
4095.8 0.89571 0.738(9) 11303. 0.6499 0.7423
4097.9 0.89616 0.730(9) 11429. 0.6498 0.7442
4099.9 0.89660 0.748(10) 11073. 0.6497 0.7472
4102.0 0.89705 0.750(10) 11073. 0.6496 0.7514
4104.0 0.89751 0.745(9) 11192. 0.6495 0.7568
4106.1 0.89795 0.757(10) 10961. 0.6493 0.7627
4108.1 0.89840 0.759(10) 10961. 0.6492 0.7686
4110.2 0.89885 0.769(10) 10742. 0.6491 0.7732
4112.3 0.89930 0.771(10) 10740. 0.6490 0.7757
4114.3 0.89975 0.768(10) 10851. 0.6489 0.7754
4116.3 0.90020 0.748(10) 11073. 0.6488 0.7724
4118.4 0.90065 0.763(10) 10851. 0.6486 0.7672
4120.5 0.90110 0.773(10) 10742. 0.6485 0.7604
4122.5 0.90155 0.764(10) 10851. 0.6484 0.7527
4124.6 0.90201 0.772(10) 10742. 0.6483 0.7451
4126.7 0.90246 0.757(10) 10961. 0.6482 0.7376
4128.7 0.90291 0.727(9) 11420. 0.6481 0.7308
4130.8 0.90336 0.734(9) 11303. 0.6480 0.7250
4132.8 0.90381 0.720(9) 11539. 0.6478 0.7203
4134.9 0.90426 0.718(9) 11539. 0.6477 0.7168
4137.0 0.90471 0.734(9) 11303. 0.6476 0.7149
4139.0 0.90517 0.729(9) 11296. 0.6475 0.7148
4141.1 0.90562 0.719(9) 11539. 0.6474 0.7171
4143.2 0.90607 0.733(9) 11303. 0.6473 0.7222
4145.3 0.90653 0.739(9) 11182. 0.6472 0.7308
4147.3 0.90698 0.756(10) 10961. 0.6470 0.7431
4149.4 0.90744 0.785(10) 10529. 0.6469 0.7590
4151.5 0.90789 0.804(10) 10231. 0.6468 0.7783
4153.6 0.90835 0.824(10) 10024. 0.6467 0.7999
4155.6 0.90880 0.833(10) 9847. 0.6466 0.8223
4157.7 0.90925 0.877(10) 9376. 0.6465 0.8434
4159.8 0.90971 0.880(10) 9310. 0.6464 0.8611
4161.9 0.91016 0.874(10) 9376. 0.6462 0.8734
4163.9 0.91062 0.886(10) 9310. 0.6461 0.8796
4166.0 0.91107 0.906(11) 9057. 0.6460 0.8802
4168.1 0.91153 0.900(10) 9118. 0.6459 0.8769
4170.2 0.91198 0.899(10) 9140. 0.6458 0.8712
4172.3 0.91244 0.901(10) 9140. 0.6457 0.8655
4174.4 0.91290 0.880(10) 9310. 0.6456 0.8609
4176.5 0.91336 0.870(10) 9465. 0.6454 0.8583
4178.5 0.91381 0.861(10) 9484. 0.6453 0.8577
4180.6 0.91427 0.871(10) 9396. 0.6452 0.8589
4182.7 0.91473 0.882(10) 9310. 0.6451 0.8603
4184.8 0.91518 0.874(10) 9396. 0.6450 0.8608
4186.9 0.91564 0.871(10) 9396. 0.6449 0.8591
4189.0 0.91610 0.854(10) 9572. 0.6448 0.8546
4191.1 0.91656 0.842(10) 9754. 0.6446 0.8473
4193.2 0.91702 0.834(10) 9847. 0.6445 0.8378
4195.3 0.91748 0.848(10) 9663. 0.6444 0.8273
4197.4 0.91793 0.827(10) 9860. 0.6443 0.8167
4199.5 0.91840 0.806(10) 10133. 0.6442 0.8069
4201.6 0.91886 0.797(10) 10231. 0.6441 0.7987
4203.7 0.91932 0.811(10) 10036. 0.6440 0.7922
4205.8 0.91977 0.797(10) 10231. 0.6439 0.7878
4207.9 0.92023 0.786(10) 10338. 0.6437 0.7856
4210.0 0.92070 0.789(10) 10330. 0.6436 0.7857
4212.1 0.92116 0.794(10) 10240. 0.6435 0.7887
4214.2 0.92162 0.792(10) 10330. 0.6434 0.7954
4216.3 0.92208 0.801(10) 10133. 0.6433 0.8075
4218.4 0.92254 0.837(10) 9769. 0.6432 0.8272
4220.5 0.92300 0.865(10) 9396. 0.6431 0.8569
4222.6 0.92346 0.900(11) 9000. 0.6430 0.8986
4224.8 0.92392 0.949(11) 8536. 0.6428 0.9540
4226.9 0.92439 1.033(11) 7871. 0.6427 1.0221
4229.0 0.92485 1.123(12) 7225. 0.6426 1.1013
4231.1 0.92531 1.200(12) 6732. 0.6425 1.1880
4233.2 0.92578 1.282(13) 6338. 0.6424 1.2745
4235.3 0.92624 1.344(13) 6015. 0.6423 1.3530
4237.4 0.92670 1.402(13) 5760. 0.6422 1.4148
4239.6 0.92717 1.436(13) 5638. 0.6421 1.4519
4241.7 0.92763 1.467(14) 5482. 0.6419 1.4614
4243.8 0.92810 1.454(13) 5559. 0.6418 1.4456
4245.9 0.92856 1.418(13) 5672. 0.6417 1.4098
4248.0 0.92902 1.393(13) 5801. 0.6416 1.3601
4250.2 0.92949 1.320(13) 6104. 0.6415 1.3020
4252.3 0.92995 1.252(12) 6430. 0.6414 1.2408
4254.4 0.93042 1.201(12) 6722. 0.6413 1.1797
4256.6 0.93089 1.134(12) 7111. 0.6412 1.1218
4258.7 0.93135 1.068(11) 7585. 0.6411 1.0686
4260.8 0.93182 1.023(11) 7905. 0.6409 1.0205
4262.9 0.93228 0.976(11) 8247. 0.6408 0.9773
4265.1 0.93275 0.921(11) 8763. 0.6407 0.9389
4267.2 0.93321 0.890(11) 9023. 0.6406 0.9046
4269.3 0.93368 0.856(10) 9415. 0.6405 0.8744
4271.5 0.93415 0.832(10) 9679. 0.6404 0.8480
4273.6 0.93461 0.817(10) 9874. 0.6403 0.8245
4275.8 0.93509 0.817(10) 9860. 0.6402 0.8039
4277.9 0.93555 0.806(10) 9965. 0.6401 0.7858
4280.0 0.93602 0.780(10) 10338. 0.6400 0.7699
4282.2 0.93649 0.756(10) 10644. 0.6398 0.7561
4284.3 0.93696 0.752(10) 10745. 0.6397 0.7439
4286.4 0.93743 0.754(10) 10644. 0.6396 0.7335
4288.6 0.93790 0.740(10) 10851. 0.6395 0.7246
4290.7 0.93836 0.726(10) 11063. 0.6394 0.7171
4292.9 0.93883 0.719(9) 11172. 0.6393 0.7109
4295.0 0.93931 0.721(9) 11177. 0.6392 0.7064
4297.2 0.93977 0.722(9) 11172. 0.6391 0.7036
4299.3 0.94024 0.716(9) 11172. 0.6390 0.7028
4301.5 0.94072 0.731(10) 10956. 0.6389 0.7045
4303.6 0.94119 0.727(10) 11063. 0.6387 0.7088
4305.8 0.94166 0.747(10) 10745. 0.6386 0.7159
4307.9 0.94212 0.743(10) 10747. 0.6385 0.7258
4310.1 0.94260 0.747(10) 10747. 0.6384 0.7383
4312.2 0.94307 0.768(10) 10443. 0.6383 0.7526
4314.4 0.94354 0.775(10) 10345. 0.6382 0.7674
4316.5 0.94401 0.776(10) 10345. 0.6381 0.7813
4318.7 0.94448 0.790(10) 10069. 0.6380 0.7926
4320.9 0.94496 0.799(10) 9965. 0.6379 0.7996
4323.0 0.94543 0.801(10) 9965. 0.6378 0.8017
4325.2 0.94591 0.784(10) 10152. 0.6376 0.7990
4327.3 0.94638 0.776(10) 10248. 0.6375 0.7926
4329.5 0.94685 0.779(10) 10256. 0.6374 0.7833
4331.7 0.94733 0.770(10) 10345. 0.6373 0.7725
4333.8 0.94780 0.756(10) 10543. 0.6372 0.7611
4336.0 0.94827 0.738(10) 10748. 0.6371 0.7498
4338.2 0.94875 0.730(10) 10956. 0.6370 0.7392
4340.3 0.94922 0.725(10) 10956. 0.6369 0.7296
4342.5 0.94970 0.729(10) 10955. 0.6368 0.7212
4344.7 0.95017 0.714(9) 11172. 0.6367 0.7141
4346.8 0.95065 0.718(10) 11060. 0.6366 0.7085
4349.0 0.95112 0.717(10) 11060. 0.6365 0.7047
4351.2 0.95160 0.716(10) 11063. 0.6363 0.7031
4353.4 0.95208 0.701(9) 11386. 0.6362 0.7042
4355.6 0.95255 0.711(9) 11167. 0.6361 0.7088
4357.8 0.95303 0.723(10) 10956. 0.6360 0.7176
4359.9 0.95350 0.739(10) 10748. 0.6359 0.7317
4362.1 0.95398 0.745(10) 10647. 0.6358 0.7517
4364.3 0.95446 0.787(10) 10069. 0.6357 0.7778
4366.5 0.95494 0.815(10) 9709. 0.6356 0.8093
4368.7 0.95542 0.836(10) 9434. 0.6355 0.8446
4370.8 0.95589 0.875(11) 9046. 0.6354 0.8817
4373.0 0.95637 0.911(11) 8665. 0.6353 0.9177
4375.2 0.95685 0.952(11) 8308. 0.6352 0.9483
4377.4 0.95733 0.984(11) 8037. 0.6351 0.9700
4379.6 0.95781 0.985(11) 8037. 0.6349 0.9805
4381.8 0.95829 0.978(11) 8069. 0.6348 0.9796
4384.0 0.95877 0.964(11) 8171. 0.6347 0.9688
4386.2 0.95925 0.964(11) 8171. 0.6346 0.9510
4388.3 0.95973 0.938(11) 8377. 0.6345 0.9289
4390.5 0.96021 0.910(11) 8665. 0.6344 0.9047
4392.7 0.96069 0.881(11) 8914. 0.6343 0.8803
4394.9 0.96117 0.855(10) 9205. 0.6342 0.8570
4397.1 0.96165 0.835(10) 9452. 0.6341 0.8357
4399.3 0.96213 0.813(10) 9724. 0.6340 0.8165
4401.5 0.96261 0.788(10) 9977. 0.6339 0.7995
4403.7 0.96309 0.783(10) 10079. 0.6338 0.7843
4405.9 0.96358 0.746(10) 10547. 0.6337 0.7706
4408.1 0.96406 0.744(10) 10551. 0.6336 0.7579
4410.3 0.96454 0.740(10) 10647. 0.6335 0.7462
4412.5 0.96502 0.745(10) 10551. 0.6333 0.7352
4414.8 0.96551 0.738(10) 10647. 0.6332 0.7249
4416.9 0.96599 0.714(10) 10953. 0.6331 0.7154
4419.2 0.96647 0.718(10) 10953. 0.6330 0.7065
4421.4 0.96696 0.705(9) 11167. 0.6329 0.6986
4423.6 0.96744 0.696(9) 11270. 0.6328 0.6914
4425.8 0.96792 0.699(9) 11163. 0.6327 0.6849
4428.0 0.96841 0.688(9) 11379. 0.6326 0.6791
4430.2 0.96889 0.677(9) 11601. 0.6325 0.6741
4432.4 0.96938 0.674(9) 11601. 0.6324 0.6696
4434.7 0.96986 0.678(9) 11601. 0.6323 0.6657
4436.9 0.97035 0.684(9) 11489. 0.6322 0.6622
4439.1 0.97084 0.670(9) 11714. 0.6321 0.6593
4441.3 0.97132 0.662(9) 11829. 0.6320 0.6568
4443.5 0.97181 0.667(9) 11714. 0.6319 0.6547
4445.8 0.97229 0.667(9) 11714. 0.6318 0.6532
4448.0 0.97278 0.661(9) 11829. 0.6317 0.6521
4450.2 0.97326 0.651(9) 11946. 0.6316 0.6517
4452.4 0.97375 0.657(9) 11815. 0.6314 0.6518
4454.7 0.97424 0.653(9) 11946. 0.6313 0.6525
4456.9 0.97473 0.654(9) 11946. 0.6312 0.6536
4459.1 0.97521 0.664(9) 11701. 0.6311 0.6552
4461.3 0.97571 0.670(9) 11601. 0.6310 0.6569
4463.6 0.97619 0.673(9) 11601. 0.6309 0.6586
4465.8 0.97668 0.661(9) 11815. 0.6308 0.6599
4468.0 0.97717 0.662(9) 11714. 0.6307 0.6601
4470.3 0.97765 0.654(9) 11930. 0.6306 0.6603
4472.5 0.97815 0.660(9) 11829. 0.6305 0.6596
4474.7 0.97863 0.668(9) 11590. 0.6304 0.6582
4477.0 0.97912 0.662(9) 11701. 0.6303 0.6564
4479.2 0.97962 0.668(9) 11601. 0.6302 0.6544
4481.4 0.98010 0.653(9) 11930. 0.6301 0.6523
4483.7 0.98060 0.653(9) 11930. 0.6300 0.6502
4485.9 0.98109 0.647(9) 11946. 0.6299 0.6482
4488.2 0.98157 0.643(9) 12046. 0.6298 0.6464
4490.4 0.98207 0.628(9) 12407. 0.6297 0.6447
4492.7 0.98256 0.650(9) 11930. 0.6296 0.6433
4494.9 0.98305 0.653(9) 11815. 0.6295 0.6420
4497.2 0.98354 0.651(9) 11930. 0.6294 0.6409
4499.4 0.98404 0.646(9) 11930. 0.6293 0.6401
4501.7 0.98453 0.640(9) 12046. 0.6292 0.6396
4503.9 0.98502 0.635(9) 12165. 0.6291 0.6393
4506.2 0.98551 0.633(9) 12165. 0.6290 0.6395
4508.4 0.98601 0.639(9) 12046. 0.6289 0.6402
4510.7 0.98650 0.637(9) 12165. 0.6287 0.6419
4512.9 0.98699 0.632(9) 12263. 0.6286 0.6440
4515.2 0.98749 0.645(9) 11930. 0.6285 0.6471
4517.4 0.98798 0.641(9) 12046. 0.6284 0.6510
4519.7 0.98847 0.650(9) 11815. 0.6283 0.6557
4521.9 0.98897 0.656(9) 11689. 0.6282 0.6611
4524.2 0.98947 0.662(9) 11590. 0.6281 0.6668
4526.5 0.98996 0.662(9) 11579. 0.6280 0.6722
4528.8 0.99046 0.659(9) 11701. 0.6279 0.6768
4531.0 0.99095 0.656(9) 11689. 0.6278 0.6802
4533.3 0.99145 0.657(9) 11701. 0.6277 0.6818
4535.5 0.99194 0.660(9) 11579. 0.6276 0.6819
4537.8 0.99244 0.678(9) 11264. 0.6275 0.6808
4540.1 0.99293 0.655(9) 11689. 0.6274 0.6788
4542.3 0.99343 0.651(9) 11801. 0.6273 0.6765
4544.6 0.99393 0.662(9) 11590. 0.6272 0.6743
4546.9 0.99442 0.660(9) 11579. 0.6271 0.6726
4549.2 0.99492 0.661(9) 11579. 0.6270 0.6716
4551.4 0.99542 0.663(9) 11579. 0.6269 0.6715
4553.7 0.99592 0.654(9) 11701. 0.6268 0.6722
4556.0 0.99641 0.652(9) 11689. 0.6267 0.6735
4558.3 0.99691 0.659(9) 11579. 0.6266 0.6751
4560.5 0.99741 0.663(9) 11471. 0.6265 0.6766
4562.8 0.99791 0.659(9) 11579. 0.6264 0.6774
4565.1 0.99841 0.659(9) 11579. 0.6263 0.6773
4567.4 0.99891 0.663(9) 11471. 0.6262 0.6762
4569.7 0.99941 0.658(9) 11569. 0.6261 0.6740
4572.0 0.99992 0.652(9) 11689. 0.6260 0.6712
4574.3 1.00042 0.647(9) 11801. 0.6259 0.6679
4576.5 1.00092 0.648(9) 11689. 0.6258 0.6644
4578.8 1.00141 0.644(9) 11801. 0.6257 0.6610
4581.1 1.00191 0.648(9) 11677. 0.6256 0.6578
4583.4 1.00242 0.650(9) 11689. 0.6255 0.6548
4585.7 1.00292 0.641(9) 11801. 0.6254 0.6524
4588.0 1.00342 0.636(9) 11898. 0.6253 0.6502
4590.3 1.00392 0.636(9) 11914. 0.6252 0.6483
4592.6 1.00442 0.634(9) 11898. 0.6251 0.6466
4594.9 1.00493 0.636(9) 11914. 0.6250 0.6452
4597.2 1.00543 0.637(9) 11898. 0.6249 0.6440
4599.5 1.00594 0.635(9) 11914. 0.6248 0.6429
4601.8 1.00643 0.624(9) 12126. 0.6247 0.6420
4604.1 1.00694 0.629(9) 12012. 0.6246 0.6412
4606.4 1.00745 0.645(9) 11689. 0.6245 0.6405
4608.7 1.00795 0.629(9) 12012. 0.6244 0.6404
4611.0 1.00845 0.625(9) 12012. 0.6243 0.6409
4613.3 1.00896 0.638(9) 11787. 0.6242 0.6419
4615.6 1.00946 0.642(9) 11677. 0.6241 0.6436
4617.9 1.00997 0.644(9) 11689. 0.6240 0.6459
4620.2 1.01047 0.653(9) 11462. 0.6239 0.6489
4622.5 1.01098 0.645(9) 11677. 0.6238 0.6523
4624.8 1.01148 0.659(9) 11356. 0.6237 0.6561
4627.1 1.01199 0.658(9) 11462. 0.6236 0.6596
4629.4 1.01249 0.657(9) 11356. 0.6235 0.6627
4631.8 1.01300 0.652(9) 11462. 0.6234 0.6650
4634.1 1.01351 0.641(9) 11665. 0.6233 0.6666
4636.4 1.01402 0.650(9) 11569. 0.6232 0.6675
4638.7 1.01453 0.657(9) 11356. 0.6231 0.6683
4641.0 1.01503 0.665(9) 11253. 0.6230 0.6695
4643.3 1.01554 0.664(9) 11247. 0.6229 0.6719
4645.7 1.01605 0.665(9) 11253. 0.6228 0.6761
4648.0 1.01656 0.666(9) 11253. 0.6227 0.6828
4650.3 1.01706 0.678(10) 11046. 0.6226 0.6924
4652.7 1.01758 0.697(10) 10658. 0.6225 0.7049
4655.0 1.01808 0.707(10) 10567. 0.6224 0.7202
4657.3 1.01860 0.727(10) 10197. 0.6223 0.7375
4659.6 1.01910 0.739(10) 10032. 0.6222 0.7555
4662.0 1.01961 0.750(10) 9935. 0.6221 0.7725
4664.3 1.02012 0.766(10) 9698. 0.6220 0.7865
4666.6 1.02063 0.773(10) 9617. 0.6219 0.7959
4669.0 1.02115 0.785(10) 9441. 0.6218 0.7996
4671.3 1.02165 0.780(10) 9458. 0.6217 0.7979
4673.6 1.02217 0.756(10) 9780. 0.6216 0.7917
4676.0 1.02268 0.746(10) 9947. 0.6215 0.7824
4678.3 1.02319 0.744(10) 9935. 0.6214 0.7716
4680.6 1.02370 0.737(10) 10032. 0.6213 0.7603
4683.0 1.02421 0.723(10) 10206. 0.6212 0.7495
4685.3 1.02472 0.719(10) 10294. 0.6211 0.7400
4687.7 1.02524 0.725(10) 10206. 0.6210 0.7322
4690.0 1.02575 0.719(10) 10294. 0.6209 0.7262
4692.3 1.02626 0.708(10) 10384. 0.6209 0.7219
4694.7 1.02678 0.692(10) 10660. 0.6208 0.7190
4697.0 1.02729 0.692(10) 10663. 0.6207 0.7170
4699.4 1.02781 0.699(10) 10475. 0.6206 0.7156
4701.8 1.02832 0.700(10) 10475. 0.6205 0.7142
4704.1 1.02883 0.691(10) 10660. 0.6204 0.7128
4706.4 1.02935 0.691(10) 10663. 0.6203 0.7120
4708.8 1.02987 0.703(10) 10475. 0.6202 0.7117
4711.2 1.03038 0.701(10) 10475. 0.6201 0.7134
4713.5 1.03089 0.693(10) 10571. 0.6200 0.7184
4715.9 1.03141 0.711(10) 10294. 0.6199 0.7283
4718.2 1.03193 0.718(10) 10214. 0.6198 0.7447
4720.6 1.03245 0.754(10) 9698. 0.6197 0.7691
4722.9 1.03296 0.791(10) 9246. 0.6196 0.8021
4725.3 1.03348 0.837(11) 8719. 0.6195 0.8439
4727.7 1.03399 0.895(11) 8155. 0.6194 0.8931
4730.0 1.03451 0.945(11) 7680. 0.6193 0.9474
4732.4 1.03503 0.985(12) 7371. 0.6192 1.0022
4734.8 1.03554 1.024(12) 7093. 0.6191 1.0523
4737.1 1.03606 1.067(12) 6801. 0.6190 1.0922
4739.5 1.03658 1.088(12) 6661. 0.6189 1.1166
4741.9 1.03710 1.108(12) 6526. 0.6188 1.1237
4744.3 1.03762 1.096(12) 6615. 0.6187 1.1146
4746.6 1.03814 1.085(12) 6661. 0.6186 1.0923
4749.0 1.03866 1.057(12) 6848. 0.6185 1.0610
4751.4 1.03918 1.011(12) 7144. 0.6185 1.0244
4753.8 1.03970 0.987(12) 7351. 0.6184 0.9857
4756.1 1.04022 0.937(11) 7737. 0.6183 0.9475
4758.5 1.04074 0.902(11) 8032. 0.6182 0.9111
4760.9 1.04126 0.865(11) 8344. 0.6181 0.8776
4763.3 1.04178 0.825(11) 8743. 0.6180 0.8474
4765.6 1.04230 0.787(10) 9171. 0.6179 0.8205
4768.0 1.04282 0.767(10) 9414. 0.6178 0.7966
4770.4 1.04335 0.753(10) 9552. 0.6177 0.7755
4772.8 1.04387 0.748(10) 9632. 0.6176 0.7572
4775.2 1.04439 0.724(10) 9969. 0.6175 0.7412
4777.6 1.04491 0.703(10) 10214. 0.6174 0.7273
4779.9 1.04543 0.697(10) 10308. 0.6173 0.7154
4782.3 1.04596 0.694(10) 10390. 0.6172 0.7054
4784.7 1.04648 0.688(10) 10484. 0.6171 0.6972
4787.1 1.04701 0.671(10) 10756. 0.6170 0.6910
4789.5 1.04753 0.654(10) 10945. 0.6169 0.6869
4791.9 1.04805 0.669(10) 10757. 0.6168 0.6853
4794.3 1.04858 0.673(10) 10663. 0.6168 0.6862
4796.7 1.04910 0.692(10) 10308. 0.6167 0.6901
4799.1 1.04963 0.689(10) 10396. 0.6166 0.6969
4801.5 1.05015 0.691(10) 10308. 0.6165 0.7066
4803.9 1.05068 0.711(10) 10052. 0.6164 0.7186
4806.3 1.05121 0.708(10) 10052. 0.6163 0.7321
4808.7 1.05173 0.732(10) 9725. 0.6162 0.7457
4811.1 1.05226 0.749(10) 9552. 0.6161 0.7577
4813.5 1.05278 0.758(10) 9431. 0.6160 0.7667
4815.9 1.05331 0.742(10) 9568. 0.6159 0.7715
4818.3 1.05384 0.743(10) 9568. 0.6158 0.7717
4820.8 1.05437 0.756(10) 9414. 0.6157 0.7681
4823.2 1.05489 0.753(10) 9414. 0.6156 0.7618
4825.6 1.05542 0.742(10) 9568. 0.6155 0.7541
4828.0 1.05595 0.733(10) 9646. 0.6155 0.7464
4830.4 1.05647 0.730(10) 9739. 0.6154 0.7399
4832.8 1.05701 0.721(10) 9805. 0.6153 0.7358
4835.2 1.05753 0.721(10) 9805. 0.6152 0.7349
4837.6 1.05806 0.731(10) 9660. 0.6151 0.7376
4840.1 1.05859 0.731(10) 9646. 0.6150 0.7439
4842.5 1.05912 0.744(10) 9506. 0.6149 0.7535
4844.9 1.05965 0.759(10) 9339. 0.6148 0.7654
4847.3 1.06018 0.753(10) 9356. 0.6147 0.7782
4849.8 1.06071 0.770(10) 9190. 0.6146 0.7902
4852.2 1.06124 0.777(11) 9066. 0.6145 0.7992
4854.6 1.06177 0.773(10) 9137. 0.6144 0.8037
4857.0 1.06231 0.778(11) 9046. 0.6144 0.8030
4859.4 1.06283 0.783(11) 8995. 0.6143 0.7974
4861.9 1.06337 0.776(11) 9066. 0.6142 0.7880
4864.3 1.06390 0.769(10) 9137. 0.6141 0.7758
4866.8 1.06443 0.745(10) 9431. 0.6140 0.7622
4869.2 1.06497 0.741(10) 9506. 0.6139 0.7482
4871.6 1.06550 0.724(10) 9646. 0.6138 0.7346
4874.0 1.06603 0.707(10) 9898. 0.6137 0.7218
4876.5 1.06656 0.694(10) 10071. 0.6136 0.7101
4878.9 1.06710 0.689(10) 10145. 0.6135 0.6995
4881.4 1.06764 0.677(10) 10315. 0.6134 0.6903
4883.8 1.06817 0.647(10) 10851. 0.6134 0.6823
4886.3 1.06870 0.656(10) 10668. 0.6133 0.6753
4888.7 1.06924 0.666(10) 10489. 0.6132 0.6694
4891.1 1.06977 0.655(10) 10668. 0.6131 0.6645
4893.6 1.07030 0.650(10) 10760. 0.6130 0.6604
4896.0 1.07084 0.642(10) 10851. 0.6129 0.6572
4898.5 1.07138 0.646(10) 10759. 0.6128 0.6553
4900.9 1.07191 0.652(10) 10670. 0.6127 0.6547
4903.4 1.07245 0.652(10) 10668. 0.6126 0.6561
4905.8 1.07298 0.643(10) 10851. 0.6125 0.6600
4908.3 1.07352 0.650(10) 10668. 0.6125 0.6675
4910.7 1.07406 0.661(10) 10493. 0.6124 0.6798
4913.2 1.07460 0.685(10) 10154. 0.6123 0.6987
4915.7 1.07514 0.722(10) 9583. 0.6122 0.7251
4918.1 1.07567 0.761(10) 9086. 0.6121 0.7602
4920.6 1.07621 0.789(11) 8745. 0.6120 0.8046
4923.0 1.07675 0.838(11) 8211. 0.6119 0.8568
4925.5 1.07729 0.905(11) 7610. 0.6118 0.9148
4927.9 1.07783 0.966(12) 7148. 0.6117 0.9752
4930.4 1.07837 1.030(12) 6683. 0.6116 1.0323
4932.9 1.07891 1.097(13) 6261. 0.6116 1.0799
4935.3 1.07945 1.117(13) 6142. 0.6115 1.1124
4937.8 1.07999 1.133(13) 6065. 0.6114 1.1267
4940.3 1.08053 1.112(13) 6182. 0.6113 1.1231
4942.8 1.08107 1.112(13) 6142. 0.6112 1.1045
4945.2 1.08161 1.090(13) 6261. 0.6111 1.0748
4947.7 1.08215 1.068(12) 6425. 0.6110 1.0382
4950.2 1.08269 1.006(12) 6817. 0.6109 0.9985
4952.6 1.08323 0.957(12) 7133. 0.6108 0.9581
4955.1 1.08378 0.912(12) 7504. 0.6108 0.9193
4957.6 1.08432 0.872(11) 7830. 0.6107 0.8835
4960.1 1.08486 0.830(11) 8205. 0.6106 0.8509
4962.6 1.08541 0.806(11) 8486. 0.6105 0.8218
4965.0 1.08595 0.784(11) 8679. 0.6104 0.7962
4967.5 1.08649 0.758(11) 8968. 0.6103 0.7731
4970.0 1.08703 0.736(10) 9228. 0.6102 0.7532
4972.5 1.08757 0.703(10) 9688. 0.6101 0.7359
4975.0 1.08812 0.693(10) 9842. 0.6101 0.7207
4977.5 1.08867 0.690(10) 9830. 0.6100 0.7076
4979.9 1.08921 0.698(10) 9764. 0.6099 0.6962
4982.4 1.08976 0.667(10) 10162. 0.6098 0.6862
4984.9 1.09030 0.673(10) 10071. 0.6097 0.6778
4987.4 1.09084 0.668(10) 10162. 0.6096 0.6706
4989.9 1.09139 0.657(10) 10328. 0.6095 0.6647
4992.4 1.09194 0.661(10) 10244. 0.6094 0.6603
4994.9 1.09248 0.657(10) 10328. 0.6094 0.6573
4997.4 1.09303 0.653(10) 10328. 0.6093 0.6560
4999.9 1.09358 0.659(10) 10244. 0.6092 0.6565
5002.4 1.09413 0.663(10) 10162. 0.6091 0.6591
5004.9 1.09467 0.649(10) 10412. 0.6090 0.6639
5007.4 1.09522 0.647(10) 10412. 0.6089 0.6706
5009.9 1.09577 0.662(10) 10162. 0.6088 0.6790
5012.4 1.09632 0.694(10) 9688. 0.6088 0.6884
5014.9 1.09686 0.688(10) 9777. 0.6087 0.6981
5017.4 1.09742 0.693(10) 9688. 0.6086 0.7066
5019.9 1.09796 0.699(10) 9612. 0.6085 0.7130
5022.4 1.09851 0.700(10) 9551. 0.6084 0.7163
5025.0 1.09906 0.699(10) 9612. 0.6083 0.7162
5027.5 1.09961 0.711(10) 9389. 0.6082 0.7131
5030.0 1.10016 0.720(10) 9263. 0.6082 0.7078
5032.5 1.10071 0.706(10) 9463. 0.6081 0.7010
5035.0 1.10126 0.690(10) 9701. 0.6080 0.6935
5037.5 1.10181 0.671(10) 9931. 0.6079 0.6860
5040.1 1.10237 0.672(10) 9920. 0.6078 0.6792
5042.6 1.10292 0.665(10) 10010. 0.6077 0.6733
5045.1 1.10347 0.665(10) 10010. 0.6076 0.6689
5047.6 1.10402 0.660(10) 10080. 0.6076 0.6660
5050.1 1.10457 0.657(10) 10089. 0.6075 0.6646
5052.7 1.10512 0.666(10) 10010. 0.6074 0.6647
5055.2 1.10568 0.661(10) 10010. 0.6073 0.6659
5057.7 1.10623 0.649(10) 10252. 0.6072 0.6679
5060.3 1.10679 0.660(10) 10010. 0.6071 0.6702
5062.8 1.10734 0.665(10) 9931. 0.6071 0.6721
5065.3 1.10790 0.671(10) 9853. 0.6070 0.6729
5067.8 1.10845 0.666(10) 9931. 0.6069 0.6724
5070.4 1.10900 0.670(10) 9853. 0.6068 0.6704
5072.9 1.10956 0.644(10) 10252. 0.6067 0.6671
5075.4 1.11011 0.648(10) 10170. 0.6066 0.6630
5078.0 1.11067 0.642(10) 10259. 0.6065 0.6588
5080.5 1.11123 0.641(10) 10252. 0.6065 0.6539
5083.1 1.11178 0.635(10) 10334. 0.6064 0.6490
5085.6 1.11233 0.639(10) 10259. 0.6063 0.6444
5088.2 1.11290 0.640(10) 10252. 0.6062 0.6402
5090.7 1.11345 0.632(10) 10340. 0.6061 0.6364
5093.3 1.11401 0.620(10) 10588. 0.6060 0.6330
5095.8 1.11456 0.616(10) 10676. 0.6060 0.6300
5098.3 1.11512 0.619(10) 10588. 0.6059 0.6274
5100.9 1.11568 0.623(10) 10506. 0.6058 0.6251
5103.4 1.11624 0.621(10) 10502. 0.6057 0.6231
5106.0 1.11679 0.606(10) 10763. 0.6056 0.6214
5108.5 1.11735 0.606(10) 10763. 0.6055 0.6199
5111.1 1.11792 0.603(10) 10851. 0.6055 0.6187
5113.7 1.11848 0.607(10) 10762. 0.6054 0.6176
5116.2 1.11903 0.599(10) 10851. 0.6053 0.6167
5118.8 1.11959 0.602(10) 10763. 0.6052 0.6161
5121.3 1.12015 0.615(10) 10591. 0.6051 0.6156
5123.9 1.12071 0.602(10) 10763. 0.6051 0.6154
5126.4 1.12127 0.598(10) 10851. 0.6050 0.6156
5129.0 1.12183 0.606(10) 10676. 0.6049 0.6162
5131.6 1.12240 0.608(10) 10676. 0.6048 0.6178
5134.1 1.12296 0.609(10) 10591. 0.6047 0.6200
5136.7 1.12352 0.611(10) 10594. 0.6046 0.6233
5139.3 1.12409 0.624(10) 10340. 0.6046 0.6279
5141.8 1.12465 0.630(10) 10259. 0.6045 0.6338
5144.4 1.12521 0.643(10) 10020. 0.6044 0.6411
5147.0 1.12577 0.640(10) 10107. 0.6043 0.6496
5149.6 1.12634 0.653(10) 9865. 0.6042 0.6588
5152.1 1.12690 0.656(10) 9801. 0.6041 0.6679
5154.7 1.12746 0.662(10) 9714. 0.6041 0.6761
5157.3 1.12803 0.662(10) 9726. 0.6040 0.6824
5159.9 1.12859 0.665(10) 9639. 0.6039 0.6862
5162.4 1.12915 0.674(10) 9508. 0.6038 0.6873
5165.0 1.12972 0.675(10) 9493. 0.6037 0.6854
5167.6 1.13028 0.671(10) 9508. 0.6037 0.6821
5170.2 1.13085 0.672(10) 9508. 0.6036 0.6777
5172.8 1.13142 0.661(10) 9653. 0.6035 0.6730
5175.4 1.13199 0.645(10) 9865. 0.6034 0.6686
5177.9 1.13255 0.655(10) 9726. 0.6033 0.6654
5180.5 1.13311 0.645(10) 9876. 0.6033 0.6638
5183.1 1.13368 0.655(10) 9726. 0.6032 0.6645
5185.7 1.13425 0.654(10) 9726. 0.6031 0.6683
5188.3 1.13482 0.654(10) 9726. 0.6030 0.6751
5190.9 1.13538 0.661(10) 9580. 0.6029 0.6853
5193.5 1.13595 0.687(10) 9228. 0.6029 0.6987
5196.1 1.13652 0.700(11) 9027. 0.6028 0.7145
5198.7 1.13709 0.709(11) 8916. 0.6027 0.7317
5201.3 1.13766 0.734(11) 8643. 0.6026 0.7485
5203.9 1.13823 0.737(11) 8581. 0.6025 0.7628
5206.5 1.13880 0.754(11) 8400. 0.6025 0.7728
5209.1 1.13937 0.756(11) 8366. 0.6024 0.7773
5211.7 1.13994 0.759(11) 8283. 0.6023 0.7762
5214.3 1.14051 0.753(11) 8366. 0.6022 0.7701
5216.9 1.14108 0.748(11) 8400. 0.6021 0.7603
5219.5 1.14165 0.735(11) 8520. 0.6021 0.7482
5222.1 1.14222 0.712(11) 8789. 0.6020 0.7350
5224.8 1.14279 0.711(11) 8852. 0.6019 0.7215
5227.4 1.14337 0.692(10) 9093. 0.6018 0.7087
5230.0 1.14393 0.661(10) 9452. 0.6017 0.6968
5232.6 1.14451 0.652(10) 9594. 0.6017 0.6860
5235.2 1.14508 0.645(10) 9726. 0.6016 0.6765
5237.8 1.14565 0.653(10) 9594. 0.6015 0.6681
5240.4 1.14623 0.644(10) 9666. 0.6014 0.6609
5243.1 1.14680 0.650(10) 9594. 0.6014 0.6556
5245.7 1.14738 0.643(10) 9666. 0.6013 0.6503
5248.3 1.14795 0.629(10) 9887. 0.6012 0.6457
5250.9 1.14852 0.626(10) 9962. 0.6011 0.6420
5253.6 1.14910 0.615(10) 10115. 0.6010 0.6389
5256.2 1.14967 0.626(10) 9887. 0.6010 0.6364
5258.8 1.15025 0.622(10) 9962. 0.6009 0.6345
5261.4 1.15082 0.621(10) 9962. 0.6008 0.6331
5264.1 1.15140 0.621(10) 9972. 0.6007 0.6325
5266.7 1.15198 0.626(10) 9887. 0.6007 0.6326
5269.3 1.15255 0.626(10) 9887. 0.6006 0.6338
5272.0 1.15313 0.634(10) 9751. 0.6005 0.6366
5274.6 1.15371 0.644(10) 9594. 0.6004 0.6417
5277.3 1.15428 0.634(10) 9739. 0.6003 0.6502
5279.9 1.15486 0.654(10) 9398. 0.6003 0.6638
5282.5 1.15544 0.662(10) 9314. 0.6002 0.6841
5285.2 1.15601 0.704(11) 8748. 0.6001 0.7133
5287.8 1.15660 0.722(11) 8507. 0.6000 0.7534
5290.5 1.15718 0.765(11) 8026. 0.6000 0.8051
5293.1 1.15775 0.850(12) 7202. 0.5999 0.8684
5295.8 1.15833 0.927(12) 6598. 0.5998 0.9422
5298.4 1.15891 1.013(13) 6031. 0.5997 1.0218
5301.0 1.15949 1.077(13) 5662. 0.5997 1.1018
5303.7 1.16007 1.141(14) 5325. 0.5996 1.1750
5306.3 1.16065 1.180(14) 5154. 0.5995 1.2325
5309.0 1.16123 1.223(14) 4964. 0.5994 1.2679
5311.7 1.16182 1.262(14) 4810. 0.5993 1.2786
5314.3 1.16240 1.243(14) 4886. 0.5993 1.2664
5317.0 1.16298 1.223(14) 4964. 0.5992 1.2360
5319.6 1.16356 1.199(14) 5044. 0.5991 1.1931
5322.3 1.16414 1.146(14) 5267. 0.5990 1.1432
5324.9 1.16472 1.090(13) 5536. 0.5990 1.0913
5327.6 1.16530 1.030(13) 5862. 0.5989 1.0407
5330.3 1.16589 0.975(13) 6176. 0.5988 0.9946
5332.9 1.16647 0.923(12) 6558. 0.5987 0.9552
5335.6 1.16705 0.877(12) 6880. 0.5987 0.9234
5338.3 1.16764 0.848(12) 7111. 0.5986 0.9003
5340.9 1.16822 0.861(12) 7009. 0.5985 0.8863
5343.6 1.16881 0.838(12) 7202. 0.5984 0.8815
5346.3 1.16939 0.848(12) 7098. 0.5984 0.8852
5349.0 1.16998 0.850(12) 7066. 0.5983 0.8961
5351.6 1.17056 0.858(12) 7009. 0.5982 0.9120
5354.3 1.17115 0.895(12) 6680. 0.5981 0.9299
5357.0 1.17173 0.906(12) 6592. 0.5981 0.9461
5359.7 1.17232 0.915(12) 6553. 0.5980 0.9568
5362.3 1.17291 0.922(12) 6474. 0.5979 0.9593
5365.0 1.17350 0.939(13) 6360. 0.5978 0.9526
5367.7 1.17409 0.931(12) 6401. 0.5978 0.9378
5370.4 1.17467 0.888(12) 6714. 0.5977 0.9168
5373.1 1.17526 0.868(12) 6838. 0.5976 0.8917
5375.8 1.17584 0.859(12) 6923. 0.5975 0.8648
5378.4 1.17643 0.829(12) 7188. 0.5975 0.8380
5381.1 1.17702 0.801(12) 7402. 0.5974 0.8125
5383.8 1.17762 0.785(11) 7564. 0.5973 0.7895
5386.5 1.17820 0.779(11) 7614. 0.5973 0.7701
5389.2 1.17879 0.757(11) 7815. 0.5972 0.7537
5391.9 1.17938 0.734(11) 8079. 0.5971 0.7410
5394.6 1.17997 0.736(11) 8051. 0.5970 0.7321
5397.3 1.18056 0.729(11) 8079. 0.5970 0.7269
5400.0 1.18115 0.731(11) 8079. 0.5969 0.7252
5402.7 1.18174 0.729(11) 8104. 0.5968 0.7266
5405.4 1.18234 0.746(11) 7919. 0.5967 0.7303
5408.1 1.18292 0.751(11) 7843. 0.5967 0.7353
5410.8 1.18352 0.736(11) 7972. 0.5966 0.7402
5413.5 1.18411 0.746(11) 7894. 0.5965 0.7439
5416.2 1.18470 0.768(11) 7642. 0.5964 0.7451
5418.9 1.18530 0.750(11) 7815. 0.5964 0.7435
5421.6 1.18589 0.727(11) 8051. 0.5963 0.7392
5424.3 1.18648 0.751(11) 7792. 0.5962 0.7332
5427.1 1.18708 0.739(11) 7894. 0.5962 0.7262
5429.8 1.18767 0.727(11) 8051. 0.5961 0.7196
5432.5 1.18827 0.729(11) 7998. 0.5960 0.7144
5435.2 1.18886 0.726(11) 8051. 0.5959 0.7121
5437.9 1.18946 0.726(11) 7998. 0.5959 0.7145
5440.7 1.19005 0.710(11) 8213. 0.5958 0.7238
5443.4 1.19065 0.727(11) 7998. 0.5957 0.7425
5446.1 1.19124 0.765(11) 7593. 0.5957 0.7738
5448.8 1.19184 0.802(12) 7218. 0.5956 0.8209
5451.5 1.19243 0.890(12) 6508. 0.5955 0.8859
5454.3 1.19303 0.975(13) 5932. 0.5954 0.9701
5457.0 1.19362 1.082(14) 5349. 0.5954 1.0731
5459.7 1.19422 1.194(14) 4835. 0.5953 1.1902
5462.4 1.19482 1.325(15) 4349. 0.5952 1.3143
5465.2 1.19542 1.459(16) 3942. 0.5952 1.4348
5467.9 1.19602 1.565(17) 3666. 0.5951 1.5380
5470.6 1.19661 1.640(17) 3498. 0.5950 1.6127
5473.4 1.19721 1.669(17) 3423. 0.5949 1.6505
5476.1 1.19782 1.670(17) 3418. 0.5949 1.6498
5478.8 1.19841 1.650(17) 3468. 0.5948 1.6157
5481.6 1.19901 1.617(17) 3528. 0.5947 1.5559
5484.3 1.19961 1.550(16) 3683. 0.5947 1.4801
5487.1 1.20021 1.450(16) 3942. 0.5946 1.3961
5489.8 1.20081 1.328(15) 4287. 0.5945 1.3098
5492.6 1.20141 1.236(15) 4611. 0.5945 1.2266
5495.3 1.20202 1.154(14) 4947. 0.5944 1.1492
5498.1 1.20262 1.077(14) 5293. 0.5943 1.0792
5500.8 1.20322 0.999(13) 5708. 0.5942 1.0169
5503.6 1.20382 0.931(13) 6104. 0.5942 0.9622
5506.3 1.20442 0.887(13) 6391. 0.5941 0.9144
5509.1 1.20502 0.859(12) 6620. 0.5940 0.8729
5511.8 1.20563 0.809(12) 7029. 0.5940 0.8369
5514.6 1.20623 0.792(12) 7160. 0.5939 0.8058
5517.3 1.20683 0.772(12) 7323. 0.5938 0.7787
5520.1 1.20744 0.749(11) 7573. 0.5938 0.7551
5522.8 1.20804 0.727(11) 7769. 0.5937 0.7349
5525.6 1.20864 0.716(11) 7896. 0.5936 0.7173
5528.4 1.20925 0.707(11) 7972. 0.5936 0.7021
5531.1 1.20985 0.684(11) 8261. 0.5935 0.6889
5533.9 1.21046 0.673(11) 8347. 0.5934 0.6776
5536.7 1.21106 0.675(11) 8315. 0.5933 0.6678
5539.4 1.21167 0.674(11) 8315. 0.5933 0.6592
5542.2 1.21228 0.663(11) 8459. 0.5932 0.6520
5545.0 1.21288 0.666(11) 8425. 0.5931 0.6457
5547.8 1.21349 0.668(11) 8370. 0.5931 0.6404
5550.5 1.21410 0.650(11) 8595. 0.5930 0.6361
5553.3 1.21471 0.640(11) 8749. 0.5929 0.6326
5556.1 1.21531 0.648(11) 8652. 0.5929 0.6300
5558.8 1.21592 0.648(11) 8595. 0.5928 0.6285
5561.6 1.21653 0.652(11) 8538. 0.5927 0.6282
5564.4 1.21714 0.650(11) 8595. 0.5927 0.6294
5567.2 1.21775 0.663(11) 8425. 0.5926 0.6322
5570.0 1.21836 0.665(11) 8370. 0.5925 0.6361
5572.8 1.21897 0.645(11) 8616. 0.5925 0.6424
5575.6 1.21958 0.658(11) 8425. 0.5924 0.6502
5578.3 1.22019 0.662(11) 8370. 0.5923 0.6590
5581.1 1.22080 0.667(11) 8315. 0.5923 0.6682
5583.9 1.22141 0.680(11) 8126. 0.5922 0.6771
5586.7 1.22202 0.681(11) 8101. 0.5921 0.6840
5589.5 1.22263 0.685(11) 8074. 0.5921 0.6884
5592.3 1.22325 0.678(11) 8154. 0.5920 0.6898
5595.1 1.22386 0.693(11) 7972. 0.5919 0.6884
5597.9 1.22447 0.683(11) 8049. 0.5919 0.6847
5600.7 1.22508 0.679(11) 8074. 0.5918 0.6796
5603.5 1.22570 0.666(11) 8261. 0.5917 0.6737
5606.3 1.22631 0.651(11) 8448. 0.5917 0.6677
5609.1 1.22692 0.645(11) 8503. 0.5916 0.6624
5611.9 1.22754 0.658(11) 8338. 0.5915 0.6583
5614.7 1.22815 0.658(11) 8315. 0.5915 0.6561
5617.5 1.22876 0.642(11) 8503. 0.5914 0.6566
5620.3 1.22938 0.650(11) 8393. 0.5913 0.6609
5623.1 1.22999 0.656(11) 8338. 0.5913 0.6699
5625.9 1.23061 0.675(11) 8074. 0.5912 0.6855
5628.8 1.23122 0.706(11) 7725. 0.5911 0.7086
5631.6 1.23184 0.735(12) 7398. 0.5911 0.7401
5634.4 1.23245 0.785(12) 6914. 0.5910 0.7803
5637.2 1.23308 0.839(12) 6457. 0.5909 0.8279
5640.0 1.23369 0.871(13) 6241. 0.5909 0.8801
5642.8 1.23431 0.915(13) 5905. 0.5908 0.9333
5645.7 1.23492 0.972(13) 5571. 0.5907 0.9825
5648.5 1.23555 1.001(14) 5392. 0.5907 1.0218
5651.3 1.23616 1.015(14) 5309. 0.5906 1.0461
5654.1 1.23678 1.032(14) 5209. 0.5905 1.0539
5657.0 1.23740 1.032(14) 5227. 0.5905 1.0457
5659.8 1.23802 1.030(14) 5209. 0.5904 1.0246
5662.6 1.23864 1.015(14) 5290. 0.5904 0.9943
5665.5 1.23926 0.970(13) 5536. 0.5903 0.9588
5668.3 1.23988 0.922(13) 5813. 0.5902 0.9214
5671.1 1.24050 0.870(13) 6171. 0.5902 0.8844
5674.0 1.24112 0.836(12) 6421. 0.5901 0.8498
5676.8 1.24174 0.808(12) 6602. 0.5900 0.8186
5679.6 1.24236 0.762(12) 7037. 0.5900 0.7910
5682.5 1.24298 0.734(12) 7293. 0.5899 0.7677
5685.3 1.24360 0.732(12) 7293. 0.5898 0.7487
5688.2 1.24423 0.718(12) 7426. 0.5898 0.7341
5691.0 1.24485 0.708(12) 7517. 0.5897 0.7239
5693.8 1.24547 0.727(12) 7337. 0.5897 0.7181
5696.7 1.24609 0.713(12) 7471. 0.5896 0.7167
5699.5 1.24672 0.703(11) 7563. 0.5895 0.7191
5702.4 1.24734 0.709(12) 7499. 0.5895 0.7247
5705.3 1.24797 0.733(12) 7249. 0.5894 0.7324
5708.1 1.24859 0.752(12) 7037. 0.5893 0.7406
5710.9 1.24921 0.754(12) 7026. 0.5893 0.7476
5713.8 1.24984 0.737(12) 7163. 0.5892 0.7519
5716.7 1.25047 0.753(12) 7026. 0.5891 0.7522
5719.5 1.25110 0.762(12) 6914. 0.5891 0.7483
5722.4 1.25172 0.746(12) 7067. 0.5890 0.7409
5725.3 1.25235 0.744(12) 7079. 0.5890 0.7309
5728.1 1.25297 0.735(12) 7150. 0.5889 0.7194
5731.0 1.25360 0.708(12) 7409. 0.5888 0.7071
5733.8 1.25423 0.711(12) 7381. 0.5888 0.6943
5736.7 1.25485 0.694(12) 7544. 0.5887 0.6833
5739.6 1.25548 0.681(11) 7683. 0.5887 0.6735
5742.4 1.25611 0.676(11) 7730. 0.5886 0.6655
5745.3 1.25674 0.671(11) 7778. 0.5885 0.6594
5748.2 1.25737 0.662(11) 7874. 0.5885 0.6558
5751.1 1.25800 0.661(11) 7874. 0.5884 0.6552
5753.9 1.25863 0.649(11) 8022. 0.5883 0.6580
5756.8 1.25926 0.660(11) 7874. 0.5883 0.6651
5759.7 1.25989 0.682(11) 7636. 0.5882 0.6767
5762.6 1.26051 0.705(12) 7365. 0.5882 0.6932
5765.4 1.26114 0.718(12) 7221. 0.5881 0.7142
5768.3 1.26178 0.738(12) 7026. 0.5880 0.7388
5771.2 1.26241 0.762(12) 6786. 0.5880 0.7650
5774.1 1.26304 0.783(12) 6590. 0.5879 0.7906
5777.0 1.26367 0.808(13) 6378. 0.5879 0.8125
5779.9 1.26430 0.829(13) 6204. 0.5878 0.8278
5782.8 1.26493 0.826(13) 6237. 0.5877 0.8349
5785.7 1.26557 0.812(13) 6340. 0.5877 0.8335
5788.6 1.26621 0.812(13) 6343. 0.5876 0.8247
5791.4 1.26684 0.813(13) 6305. 0.5876 0.8105
5794.3 1.26747 0.805(13) 6375. 0.5875 0.7928
5797.3 1.26811 0.777(12) 6596. 0.5874 0.7735
5800.1 1.26874 0.744(12) 6895. 0.5874 0.7543
5803.0 1.26937 0.723(12) 7096. 0.5873 0.7359
5805.9 1.27001 0.722(12) 7096. 0.5873 0.7195
5808.8 1.27065 0.700(12) 7306. 0.5872 0.7055
5811.8 1.27128 0.693(12) 7350. 0.5871 0.6944
5814.7 1.27192 0.680(12) 7481. 0.5871 0.6867
5817.6 1.27255 0.671(11) 7571. 0.5870 0.6830
5820.5 1.27319 0.679(12) 7481. 0.5870 0.6842
5823.4 1.27383 0.682(12) 7437. 0.5869 0.6912
5826.3 1.27446 0.690(12) 7350. 0.5868 0.7047
5829.2 1.27510 0.715(12) 7084. 0.5868 0.7255
5832.1 1.27574 0.763(12) 6627. 0.5867 0.7534
5835.0 1.27638 0.800(13) 6305. 0.5867 0.7873
5837.9 1.27701 0.820(13) 6169. 0.5866 0.8255
5840.9 1.27766 0.853(13) 5911. 0.5865 0.8646
5843.8 1.27829 0.893(13) 5644. 0.5865 0.9006
5846.7 1.27894 0.921(14) 5469. 0.5864 0.9288
5849.6 1.27957 0.921(14) 5447. 0.5864 0.9457
5852.6 1.28022 0.931(14) 5386. 0.5863 0.9497
5855.5 1.28085 0.940(14) 5340. 0.5862 0.9416
5858.4 1.28149 0.932(14) 5366. 0.5862 0.9237
5861.3 1.28214 0.917(14) 5447. 0.5861 0.8989
5864.3 1.28278 0.869(13) 5761. 0.5861 0.8702
5867.2 1.28342 0.846(13) 5911. 0.5860 0.8403
5870.1 1.28406 0.820(13) 6071. 0.5860 0.8110
5873.1 1.28470 0.788(13) 6337. 0.5859 0.7834
5876.0 1.28535 0.749(12) 6658. 0.5858 0.7585
5878.9 1.28599 0.725(12) 6847. 0.5858 0.7365
5881.9 1.28663 0.705(12) 7044. 0.5857 0.7175
5884.8 1.28728 0.689(12) 7195. 0.5857 0.7017
5887.8 1.28793 0.669(12) 7421. 0.5856 0.6887
5890.7 1.28857 0.671(12) 7377. 0.5856 0.6789
5893.7 1.28921 0.667(12) 7421. 0.5855 0.6721
5896.6 1.28985 0.661(12) 7491. 0.5854 0.6685
5899.6 1.29050 0.669(12) 7377. 0.5854 0.6680
5902.5 1.29115 0.684(12) 7195. 0.5853 0.6706
5905.5 1.29180 0.683(12) 7208. 0.5853 0.6759
5908.4 1.29244 0.692(12) 7113. 0.5852 0.6831
5911.4 1.29309 0.712(12) 6886. 0.5852 0.6912
5914.3 1.29373 0.716(12) 6838. 0.5851 0.6986
5917.3 1.29438 0.721(12) 6809. 0.5850 0.7046
5920.2 1.29503 0.706(12) 6954. 0.5850 0.7077
5923.2 1.29568 0.728(12) 6726. 0.5849 0.7073
5926.2 1.29633 0.732(12) 6689. 0.5849 0.7034
5929.1 1.29698 0.719(12) 6801. 0.5848 0.6967
5932.1 1.29763 0.729(12) 6689. 0.5848 0.6881
5935.1 1.29827 0.699(12) 6954. 0.5847 0.6784
5938.0 1.29892 0.673(12) 7236. 0.5847 0.6684
5941.0 1.29957 0.656(12) 7405. 0.5846 0.6587
5944.0 1.30022 0.652(12) 7448. 0.5845 0.6496
5946.9 1.30087 0.652(12) 7448. 0.5845 0.6413
5949.9 1.30152 0.646(12) 7491. 0.5844 0.6340
5952.9 1.30217 0.634(11) 7624. 0.5844 0.6275
5955.8 1.30282 0.620(11) 7785. 0.5843 0.6220
5958.8 1.30348 0.627(11) 7715. 0.5843 0.6172
5961.8 1.30413 0.629(11) 7669. 0.5842 0.6131
5964.8 1.30478 0.619(11) 7785. 0.5842 0.6099
5967.8 1.30544 0.607(11) 7948. 0.5841 0.6071
5970.8 1.30609 0.599(11) 8020. 0.5840 0.6050
5973.8 1.30674 0.605(11) 7948. 0.5840 0.6033
5976.7 1.30739 0.611(11) 7878. 0.5839 0.6020
5979.7 1.30805 0.613(11) 7831. 0.5839 0.6012
5982.7 1.30871 0.608(11) 7900. 0.5838 0.6007
5985.7 1.30936 0.602(11) 7925. 0.5838 0.6004
5988.7 1.31001 0.604(11) 7925. 0.5837 0.6002
5991.7 1.31067 0.607(11) 7878. 0.5837 0.5999
5994.7 1.31133 0.607(11) 7831. 0.5836 0.5994
5997.7 1.31198 0.606(11) 7878. 0.5836 0.5987
6000.7 1.31264 0.614(11) 7740. 0.5835 0.5978
6003.7 1.31330 0.624(11) 7605. 0.5835 0.5968
6006.7 1.31395 0.618(11) 7650. 0.5834 0.5957
6009.7 1.31461 0.609(11) 7785. 0.5833 0.5946
6012.7 1.31527 0.603(11) 7878. 0.5833 0.5935
6015.7 1.31592 0.603(11) 7856. 0.5832 0.5925
6018.7 1.31659 0.605(11) 7831. 0.5832 0.5915
6021.7 1.31724 0.587(11) 8020. 0.5831 0.5907
6024.7 1.31790 0.604(11) 7810. 0.5831 0.5900
6027.8 1.31856 0.592(11) 7972. 0.5830 0.5893
6030.8 1.31922 0.599(11) 7831. 0.5830 0.5887
6033.8 1.31988 0.591(11) 7949. 0.5829 0.5883
6036.8 1.32054 0.606(11) 7720. 0.5829 0.5878
6039.8 1.32121 0.599(11) 7831. 0.5828 0.5875
6042.8 1.32186 0.586(11) 7995. 0.5828 0.5869
6045.8 1.32253 0.587(11) 7949. 0.5827 0.5867
6048.9 1.32319 0.588(11) 7972. 0.5827 0.5865
6051.9 1.32385 0.605(11) 7720. 0.5826 0.5863
6054.9 1.32451 0.583(11) 7995. 0.5826 0.5862
6057.9 1.32517 0.580(11) 8043. 0.5825 0.5860
6061.0 1.32584 0.586(11) 7949. 0.5825 0.5860
6064.0 1.32650 0.593(11) 7810. 0.5824 0.5859
6067.0 1.32716 0.589(11) 7902. 0.5824 0.5859
6070.1 1.32783 0.575(11) 8043. 0.5823 0.5859
6073.1 1.32849 0.595(11) 7765. 0.5822 0.5859
6076.1 1.32915 0.587(11) 7880. 0.5822 0.5859
6079.2 1.32982 0.581(11) 7949. 0.5821 0.5860
6082.2 1.33049 0.589(11) 7810. 0.5821 0.5861
6085.3 1.33115 0.597(11) 7700. 0.5820 0.5862
6088.3 1.33182 0.589(11) 7810. 0.5820 0.5864
6091.3 1.33249 0.580(11) 7949. 0.5819 0.5866
6094.4 1.33315 0.605(11) 7613. 0.5819 0.5870
6097.4 1.33382 0.603(11) 7613. 0.5818 0.5874
6100.5 1.33449 0.598(11) 7631. 0.5818 0.5879
6103.5 1.33515 0.600(11) 7613. 0.5817 0.5887
6106.6 1.33582 0.581(11) 7880. 0.5817 0.5900
6109.7 1.33649 0.583(11) 7810. 0.5816 0.5919
6112.7 1.33716 0.586(11) 7789. 0.5816 0.5945
6115.8 1.33783 0.597(11) 7613. 0.5815 0.5990
6118.8 1.33850 0.606(12) 7484. 0.5815 0.6058
6121.9 1.33917 0.607(12) 7484. 0.5814 0.6155
6124.9 1.33984 0.607(12) 7484. 0.5814 0.6289
6128.0 1.34051 0.632(12) 7157. 0.5813 0.6463
6131.1 1.34118 0.662(12) 6851. 0.5813 0.6679
6134.1 1.34185 0.697(12) 6495. 0.5812 0.6932
6137.2 1.34252 0.724(13) 6230. 0.5812 0.7209
6140.3 1.34319 0.744(13) 6073. 0.5811 0.7499
6143.3 1.34387 0.769(13) 5862. 0.5811 0.7757
6146.4 1.34454 0.773(13) 5804. 0.5810 0.7962
6149.5 1.34521 0.778(13) 5778. 0.5810 0.8090
6152.6 1.34589 0.808(13) 5552. 0.5809 0.8130
6155.6 1.34656 0.819(14) 5472. 0.5809 0.8087
6158.7 1.34723 0.804(13) 5557. 0.5808 0.7977
6161.8 1.34791 0.776(13) 5750. 0.5808 0.7818
6164.9 1.34858 0.757(13) 5891. 0.5807 0.7634
6167.9 1.34925 0.755(13) 5893. 0.5807 0.7439
6171.0 1.34993 0.727(13) 6134. 0.5807 0.7247
6174.1 1.35061 0.710(13) 6262. 0.5806 0.7068
6177.2 1.35128 0.676(12) 6559. 0.5806 0.6906
6180.3 1.35196 0.668(12) 6628. 0.5805 0.6762
6183.4 1.35263 0.676(12) 6559. 0.5805 0.6637
6186.5 1.35331 0.664(12) 6663. 0.5804 0.6533
6189.6 1.35399 0.654(12) 6770. 0.5804 0.6448
6192.7 1.35466 0.628(12) 7029. 0.5803 0.6382
6195.8 1.35534 0.638(12) 6916. 0.5803 0.6336
6198.8 1.35602 0.638(12) 6908. 0.5802 0.6312
6202.0 1.35670 0.624(12) 7068. 0.5802 0.6315
6205.1 1.35738 0.611(12) 7184. 0.5801 0.6348
6208.2 1.35806 0.637(12) 6879. 0.5801 0.6414
6211.3 1.35873 0.648(12) 6763. 0.5800 0.6515
6214.4 1.35942 0.655(12) 6699. 0.5800 0.6649
6217.5 1.36010 0.681(12) 6421. 0.5799 0.6811
6220.6 1.36078 0.707(13) 6166. 0.5799 0.6988
6223.7 1.36146 0.715(13) 6104. 0.5798 0.7165
6226.8 1.36214 0.730(13) 5982. 0.5798 0.7321
6229.9 1.36282 0.751(13) 5809. 0.5797 0.7435
6233.0 1.36350 0.746(13) 5838. 0.5797 0.7493
6236.2 1.36419 0.724(13) 5983. 0.5797 0.7491
6239.3 1.36487 0.738(13) 5864. 0.5796 0.7434
6242.4 1.36555 0.736(13) 5895. 0.5796 0.7336
6245.5 1.36623 0.735(13) 5895. 0.5795 0.7210
6248.6 1.36692 0.721(13) 5983. 0.5795 0.7070
6251.8 1.36760 0.703(13) 6134. 0.5794 0.6928
6254.9 1.36828 0.689(13) 6259. 0.5794 0.6790
6258.0 1.36897 0.656(12) 6554. 0.5793 0.6663
6261.1 1.36965 0.636(12) 6756. 0.5793 0.6549
6264.3 1.37034 0.644(12) 6657. 0.5792 0.6448
6267.4 1.37103 0.623(12) 6871. 0.5792 0.6362
6270.5 1.37171 0.616(12) 6944. 0.5791 0.6287
6273.7 1.37240 0.608(12) 7046. 0.5791 0.6223
6276.8 1.37309 0.588(12) 7251. 0.5791 0.6169
6279.9 1.37377 0.598(12) 7160. 0.5790 0.6124
6283.1 1.37446 0.611(12) 6982. 0.5790 0.6086
6286.2 1.37515 0.607(12) 7009. 0.5789 0.6054
6289.4 1.37584 0.592(12) 7172. 0.5789 0.6029
6292.5 1.37652 0.596(12) 7122. 0.5788 0.6010
6295.7 1.37721 0.599(12) 7084. 0.5788 0.5996
6298.8 1.37790 0.601(12) 7046. 0.5787 0.5987
6302.0 1.37859 0.594(12) 7133. 0.5787 0.5981
6305.1 1.37928 0.598(12) 7084. 0.5787 0.5979
6308.3 1.37997 0.601(12) 7046. 0.5786 0.5980
6311.4 1.38066 0.586(12) 7199. 0.5786 0.5981
6314.6 1.38135 0.599(12) 7046. 0.5785 0.5983
6317.7 1.38204 0.598(12) 7046. 0.5785 0.5983
6320.9 1.38273 0.597(12) 7036. 0.5784 0.5982
6324.1 1.38343 0.597(12) 7046. 0.5784 0.5980
6327.2 1.38412 0.595(12) 7046. 0.5783 0.5976
6330.4 1.38481 0.583(12) 7160. 0.5783 0.5972
6333.5 1.38550 0.594(12) 7036. 0.5783 0.5969
6336.7 1.38620 0.621(12) 6721. 0.5782 0.5967
6339.9 1.38689 0.601(12) 6935. 0.5782 0.5966
6343.0 1.38758 0.590(12) 7073. 0.5781 0.5967
6346.2 1.38828 0.593(12) 7009. 0.5781 0.5970
6349.4 1.38897 0.604(12) 6890. 0.5780 0.5977
6352.6 1.38967 0.600(12) 6926. 0.5780 0.5988
6355.8 1.39037 0.611(12) 6791. 0.5780 0.6005
6358.9 1.39106 0.597(12) 6926. 0.5779 0.6032
6362.1 1.39176 0.606(12) 6819. 0.5779 0.6073
6365.3 1.39245 0.621(12) 6646. 0.5778 0.6139
6368.5 1.39315 0.647(13) 6382. 0.5778 0.6242
6371.7 1.39385 0.638(12) 6446. 0.5777 0.6401
6374.8 1.39455 0.661(13) 6225. 0.5777 0.6641
6378.0 1.39525 0.676(13) 6074. 0.5777 0.6991
6381.2 1.39594 0.739(13) 5546. 0.5776 0.7477
6384.4 1.39664 0.827(14) 4951. 0.5776 0.8121
6387.6 1.39734 0.913(15) 4484. 0.5775 0.8928
6390.8 1.39804 1.014(16) 4032. 0.5775 0.9884
6394.0 1.39873 1.116(17) 3647. 0.5774 1.0951
6397.2 1.39944 1.231(17) 3298. 0.5774 1.2089
6400.4 1.40014 1.294(18) 3138. 0.5774 1.3116
6403.6 1.40083 1.387(19) 2917. 0.5773 1.3961
6406.8 1.40154 1.437(19) 2813. 0.5773 1.4517
6410.0 1.40224 1.466(19) 2757. 0.5772 1.4732
6413.2 1.40294 1.473(19) 2739. 0.5772 1.4612
6416.4 1.40365 1.460(19) 2758. 0.5772 1.4215
6419.6 1.40434 1.414(19) 2849. 0.5771 1.3617
6422.8 1.40505 1.319(18) 3048. 0.5771 1.2895
6426.0 1.40575 1.240(18) 3240. 0.5770 1.2128
6429.2 1.40645 1.150(17) 3488. 0.5770 1.1365
6432.4 1.40716 1.075(16) 3730. 0.5769 1.0642
6435.7 1.40786 1.010(16) 3968. 0.5769 0.9984
6438.9 1.40856 0.936(15) 4280. 0.5769 0.9400
6442.1 1.40927 0.876(15) 4573. 0.5768 0.8892
6445.3 1.40997 0.815(14) 4896. 0.5768 0.8454
6448.5 1.41068 0.795(14) 5014. 0.5767 0.8078
6451.8 1.41139 0.760(14) 5232. 0.5767 0.7760
6455.0 1.41209 0.737(14) 5400. 0.5767 0.7495
6458.2 1.41280 0.718(13) 5551. 0.5766 0.7275
6461.4 1.41350 0.690(13) 5766. 0.5766 0.7095
6464.7 1.41422 0.672(13) 5901. 0.5765 0.6955
6467.9 1.41492 0.652(13) 6074. 0.5765 0.6854
6471.2 1.41563 0.668(13) 5930. 0.5765 0.6794
6474.4 1.41634 0.685(13) 5766. 0.5764 0.6776
6477.6 1.41705 0.676(13) 5848. 0.5764 0.6800
6480.9 1.41776 0.669(13) 5873. 0.5763 0.6866
6484.1 1.41846 0.696(13) 5660. 0.5763 0.6968
6487.3 1.41918 0.720(14) 5456. 0.5763 0.7099
6490.6 1.41989 0.739(14) 5310. 0.5762 0.7243
6493.8 1.42060 0.748(14) 5239. 0.5762 0.7381
6497.1 1.42131 0.753(14) 5185. 0.5762 0.7492
6500.3 1.42201 0.748(14) 5216. 0.5761 0.7558
6503.6 1.42273 0.744(14) 5247. 0.5761 0.7570
6506.8 1.42344 0.745(14) 5239. 0.5760 0.7528
6510.1 1.42416 0.731(14) 5334. 0.5760 0.7442
6513.3 1.42487 0.731(14) 5310. 0.5760 0.7325
6516.6 1.42558 0.706(13) 5506. 0.5759 0.7190
6519.8 1.42629 0.715(14) 5413. 0.5759 0.7048
6523.1 1.42701 0.685(13) 5660. 0.5758 0.6909
6526.4 1.42772 0.666(13) 5820. 0.5758 0.6781
6529.6 1.42843 0.649(13) 5961. 0.5758 0.6664
6532.9 1.42915 0.645(13) 5988. 0.5757 0.6560
6536.2 1.42986 0.634(13) 6075. 0.5757 0.6472
6539.4 1.43058 0.619(13) 6221. 0.5757 0.6397
6542.7 1.43130 0.614(13) 6253. 0.5756 0.6334
6546.0 1.43201 0.621(13) 6192. 0.5756 0.6283
6549.3 1.43273 0.617(13) 6221. 0.5755 0.6241
6552.5 1.43345 0.602(13) 6374. 0.5755 0.6207
6555.8 1.43416 0.612(13) 6251. 0.5755 0.6183
6559.1 1.43488 0.625(13) 6104. 0.5754 0.6168
6562.3 1.43559 0.608(13) 6282. 0.5754 0.6163
6565.6 1.43631 0.599(13) 6371. 0.5754 0.6169
6568.9 1.43704 0.601(13) 6312. 0.5753 0.6188
6572.2 1.43776 0.607(13) 6251. 0.5753 0.6222
6575.5 1.43847 0.617(13) 6162. 0.5752 0.6272
6578.8 1.43919 0.639(13) 5933. 0.5752 0.6338
6582.1 1.43991 0.648(13) 5852. 0.5752 0.6418
6585.4 1.44064 0.627(13) 6017. 0.5751 0.6508
6588.7 1.44135 0.638(13) 5905. 0.5751 0.6602
6591.9 1.44207 0.650(13) 5799. 0.5751 0.6690
6595.3 1.44280 0.674(13) 5587. 0.5750 0.6764
6598.5 1.44352 0.659(13) 5694. 0.5750 0.6816
6601.8 1.44424 0.677(13) 5541. 0.5749 0.6842
6605.2 1.44497 0.680(13) 5511. 0.5749 0.6845
6608.4 1.44569 0.690(14) 5419. 0.5749 0.6828
6611.8 1.44641 0.682(14) 5467. 0.5748 0.6800
6615.1 1.44714 0.676(13) 5516. 0.5748 0.6769
6618.4 1.44786 0.673(13) 5541. 0.5748 0.6735
6621.7 1.44859 0.658(13) 5664. 0.5747 0.6707
6625.0 1.44930 0.664(13) 5591. 0.5747 0.6688
6628.3 1.45003 0.644(13) 5749. 0.5747 0.6680
6631.6 1.45076 0.636(13) 5825. 0.5746 0.6684
6634.9 1.45149 0.657(13) 5642. 0.5746 0.6703
6638.3 1.45221 0.665(13) 5566. 0.5746 0.6738
6641.6 1.45294 0.675(14) 5467. 0.5745 0.6794
6644.9 1.45366 0.668(13) 5521. 0.5745 0.6878
6648.2 1.45439 0.667(13) 5516. 0.5745 0.7002
6651.5 1.45512 0.681(14) 5395. 0.5744 0.7191
6654.8 1.45584 0.707(14) 5193. 0.5744 0.7483
6658.2 1.45658 0.744(14) 4925. 0.5743 0.7942
6661.5 1.45730 0.832(15) 4402. 0.5743 0.8658
6664.8 1.45803 0.929(16) 3936. 0.5743 0.9763
6668.2 1.45877 1.094(17) 3330. 0.5742 1.1399
6671.5 1.45949 1.321(19) 2755. 0.5742 1.3737
6674.8 1.46022 1.688(22) 2151. 0.5742 1.6944
6678.2 1.46096 2.111(24) 1713. 0.5741 2.1103
6681.5 1.46169 2.638(27) 1368. 0.5741 2.6202
6684.9 1.46242 3.263(30) 1100. 0.5741 3.2082
6688.2 1.46315 3.893(33) 919. 0.5740 3.8415
6691.6 1.46388 4.55(4) 784. 0.574 4.469
6694.9 1.46462 5.03(4) 706. 0.574 5.027
6698.3 1.46535 5.37(4) 661. 0.574 5.446
6701.6 1.46608 5.65(4) 626. 0.574 5.679
6704.9 1.46681 5.67(4) 624. 0.574 5.711
6708.3 1.46754 5.53(4) 639. 0.574 5.559
6711.7 1.46828 5.29(4) 668. 0.574 5.262
6715.0 1.46901 4.95(4) 713. 0.574 4.869
6718.4 1.46975 4.54(4) 776. 0.574 4.425
6721.7 1.47049 4.083(34) 864. 0.5737 3.9684
6725.1 1.47122 3.576(32) 988. 0.5737 3.5268
6728.4 1.47196 3.100(30) 1139. 0.5736 3.1186
6731.8 1.47270 2.708(28) 1306. 0.5736 2.7511
6735.2 1.47343 2.345(26) 1505. 0.5736 2.4312
6738.5 1.47417 2.065(24) 1711. 0.5735 2.1546
6741.9 1.47491 1.815(23) 1946. 0.5735 1.9170
6745.3 1.47564 1.619(21) 2179. 0.5735 1.7152
6748.7 1.47638 1.453(20) 2428. 0.5734 1.5443
6752.0 1.47712 1.366(20) 2576. 0.5734 1.3997
6755.4 1.47786 1.248(19) 2816. 0.5734 1.2776
6758.8 1.47860 1.139(18) 3081. 0.5733 1.1744
6762.2 1.47934 1.078(18) 3250. 0.5733 1.0872
6765.5 1.48008 1.027(17) 3414. 0.5733 1.0132
6768.9 1.48082 1.001(17) 3494. 0.5733 0.9506
6772.3 1.48156 0.949(16) 3685. 0.5732 0.8979
6775.7 1.48230 0.889(16) 3935. 0.5732 0.8531
6779.1 1.48305 0.843(16) 4133. 0.5732 0.8151
6782.5 1.48379 0.825(15) 4226. 0.5731 0.7829
6785.9 1.48453 0.809(15) 4295. 0.5731 0.7555
6789.3 1.48527 0.804(15) 4324. 0.5731 0.7323
6792.7 1.48602 0.801(15) 4324. 0.5730 0.7125
6796.1 1.48676 0.774(15) 4466. 0.5730 0.6956
6799.4 1.48750 0.739(15) 4678. 0.5730 0.6812
6802.8 1.48825 0.735(15) 4697. 0.5729 0.6689
6806.3 1.48899 0.731(15) 4716. 0.5729 0.6583
6809.7 1.48974 0.723(14) 4774. 0.5729 0.6493
6813.1 1.49048 0.699(14) 4933. 0.5728 0.6416
6816.5 1.49123 0.697(14) 4933. 0.5728 0.6350
6819.9 1.49197 0.695(14) 4933. 0.5728 0.6293
6823.3 1.49272 0.699(14) 4912. 0.5728 0.6244
6826.7 1.49347 0.693(14) 4933. 0.5727 0.6201
6830.1 1.49421 0.669(14) 5107. 0.5727 0.6165
6833.5 1.49496 0.653(14) 5230. 0.5727 0.6133
6836.9 1.49571 0.661(14) 5164. 0.5726 0.6106
6840.3 1.49646 0.664(14) 5129. 0.5726 0.6083
6843.8 1.49721 0.661(14) 5142. 0.5726 0.6063
6847.2 1.49795 0.655(14) 5172. 0.5725 0.6047
6850.6 1.49871 0.641(14) 5282. 0.5725 0.6033
6854.1 1.49946 0.633(14) 5343. 0.5725 0.6022
6857.5 1.50021 0.618(14) 5465. 0.5725 0.6013
6860.9 1.50096 0.628(14) 5372. 0.5724 0.6007
6864.3 1.50171 0.623(14) 5395. 0.5724 0.6005
6867.8 1.50246 0.627(14) 5366. 0.5724 0.6007
6871.2 1.50321 0.629(14) 5349. 0.5723 0.6016
6874.6 1.50396 0.628(14) 5349. 0.5723 0.6035
6878.1 1.50471 0.624(14) 5372. 0.5723 0.6070
6881.5 1.50547 0.644(14) 5193. 0.5723 0.6128
6884.9 1.50622 0.642(14) 5201. 0.5722 0.6221
6888.4 1.50698 0.671(14) 4982. 0.5722 0.6360
6891.8 1.50773 0.681(14) 4901. 0.5722 0.6557
6895.3 1.50848 0.692(14) 4803. 0.5721 0.6821
6898.7 1.50924 0.744(15) 4467. 0.5721 0.7156
6902.2 1.51000 0.756(15) 4387. 0.5721 0.7558
6905.6 1.51075 0.791(15) 4188. 0.5721 0.8007
6909.1 1.51151 0.829(16) 3993. 0.5720 0.8473
6912.5 1.51226 0.890(16) 3703. 0.5720 0.8912
6916.0 1.51302 0.894(16) 3690. 0.5720 0.9276
6919.5 1.51378 0.916(17) 3599. 0.5719 0.9516
6922.9 1.51453 0.918(17) 3577. 0.5719 0.9609
6926.4 1.51529 0.934(17) 3516. 0.5719 0.9558
6929.8 1.51605 0.913(17) 3589. 0.5719 0.9384
6933.3 1.51681 0.917(17) 3564. 0.5718 0.9121
6936.8 1.51757 0.886(16) 3690. 0.5718 0.8805
6940.3 1.51833 0.839(16) 3892. 0.5718 0.8466
6943.7 1.51909 0.815(16) 4007. 0.5717 0.8131
6947.2 1.51985 0.786(16) 4142. 0.5717 0.7816
6950.7 1.52061 0.761(15) 4267. 0.5717 0.7531
6954.1 1.52137 0.728(15) 4467. 0.5717 0.7280
6957.6 1.52213 0.706(15) 4601. 0.5716 0.7062
6961.1 1.52289 0.688(15) 4699. 0.5716 0.6877
6964.6 1.52365 0.672(14) 4803. 0.5716 0.6721
6968.1 1.52442 0.654(14) 4931. 0.5716 0.6591
6971.5 1.52518 0.641(14) 5040. 0.5715 0.6484
6975.0 1.52594 0.649(14) 4951. 0.5715 0.6395
6978.5 1.52670 0.641(14) 5020. 0.5715 0.6324
6982.0 1.52747 0.627(14) 5123. 0.5715 0.6269
6985.5 1.52824 0.629(14) 5094. 0.5714 0.6231
6989.0 1.52899 0.625(14) 5123. 0.5714 0.6231
6992.5 1.52976 0.627(14) 5102. 0.5714 0.6234
6996.0 1.53053 0.628(14) 5081. 0.5713 0.6267
6999.5 1.53129 0.637(14) 4999. 0.5713 0.6295
7003.0 1.53206 0.659(14) 4842. 0.5713 0.6429
7006.5 1.53283 0.673(15) 4728. 0.5713 0.6638
7010.0 1.53359 0.695(15) 4565. 0.5712 0.6940
7013.5 1.53436 0.745(15) 4264. 0.5712 0.7348
7017.0 1.53512 0.813(16) 3892. 0.5712 0.7869
7020.5 1.53590 0.869(17) 3629. 0.5712 0.8488
7024.0 1.53666 0.948(17) 3325. 0.5711 0.9174
7027.5 1.53743 1.007(18) 3132. 0.5711 0.9882
7031.0 1.53820 1.044(18) 3010. 0.5711 1.0541
7034.5 1.53897 1.071(18) 2933. 0.5711 1.1073
7038.1 1.53974 1.107(19) 2828. 0.5710 1.1413
7041.6 1.54052 1.121(19) 2787. 0.5710 1.1526
7045.1 1.54128 1.123(19) 2786. 0.5710 1.1419
7048.6 1.54206 1.130(19) 2761. 0.5710 1.1131
7052.2 1.54283 1.083(19) 2880. 0.5709 1.0713
7055.7 1.54360 1.073(19) 2899. 0.5709 1.0221
7059.2 1.54437 1.001(18) 3102. 0.5709 0.9702
7062.7 1.54514 0.931(17) 3329. 0.5709 0.9188
7066.3 1.54591 0.889(17) 3487. 0.5708 0.8708
7069.8 1.54669 0.852(17) 3634. 0.5708 0.8273
7073.3 1.54747 0.806(16) 3838. 0.5708 0.7891
7076.9 1.54824 0.762(16) 4048. 0.5708 0.7564
7080.4 1.54901 0.728(15) 4245. 0.5707 0.7285
7083.9 1.54979 0.698(15) 4418. 0.5707 0.7048
7087.5 1.55057 0.691(15) 4456. 0.5707 0.6849
7091.0 1.55134 0.691(15) 4439. 0.5707 0.6682
7094.6 1.55211 0.673(15) 4552. 0.5707 0.6542
7098.1 1.55289 0.647(15) 4730. 0.5706 0.6424
7101.7 1.55367 0.641(14) 4775. 0.5706 0.6326
7105.2 1.55445 0.662(15) 4622. 0.5706 0.6244
7108.8 1.55523 0.662(15) 4605. 0.5706 0.6175
7112.3 1.55601 0.643(15) 4738. 0.5705 0.6117
7115.9 1.55678 0.642(15) 4730. 0.5705 0.6070
7119.4 1.55756 0.643(15) 4712. 0.5705 0.6029
7123.0 1.55834 0.618(14) 4899. 0.5705 0.5996
7126.6 1.55912 0.612(14) 4937. 0.5704 0.5968
7130.1 1.55990 0.631(14) 4785. 0.5704 0.5952
7133.7 1.56068 0.624(14) 4841. 0.5704 0.5933
7137.3 1.56146 0.615(14) 4908. 0.5704 0.5918
7140.8 1.56225 0.615(14) 4899. 0.5703 0.5905
7144.4 1.56303 0.598(14) 5016. 0.5703 0.5895
7148.0 1.56381 0.608(14) 4927. 0.5703 0.5888
7151.6 1.56459 0.595(14) 5036. 0.5703 0.5882
7155.1 1.56537 0.601(14) 4977. 0.5703 0.5878
7158.7 1.56615 0.630(15) 4740. 0.5702 0.5875
7162.3 1.56694 0.634(15) 4704. 0.5702 0.5874
7165.9 1.56773 0.610(14) 4879. 0.5702 0.5874
7169.4 1.56851 0.607(14) 4908. 0.5702 0.5875
7173.0 1.56929 0.593(14) 5005. 0.5701 0.5877
7176.6 1.57008 0.592(14) 5005. 0.5701 0.5880
7180.2 1.57087 0.617(14) 4804. 0.5701 0.5885
7183.8 1.57165 0.629(15) 4704. 0.5701 0.5890
7187.4 1.57243 0.614(14) 4813. 0.5701 0.5897
7191.0 1.57322 0.589(14) 5005. 0.5700 0.5904
7194.6 1.57401 0.608(14) 4851. 0.5700 0.5913
7198.2 1.57479 0.595(14) 4935. 0.5700 0.5924
7201.8 1.57559 0.593(14) 4946. 0.5700 0.5936
7205.4 1.57637 0.621(15) 4722. 0.5700 0.5949
7209.0 1.57716 0.613(14) 4768. 0.5699 0.5965
7212.6 1.57795 0.614(14) 4758. 0.5699 0.5983
7216.2 1.57874 0.612(14) 4758. 0.5699 0.6003
7219.8 1.57953 0.625(15) 4660. 0.5699 0.6023
7223.4 1.58032 0.612(14) 4758. 0.5698 0.6050
7227.0 1.58111 0.609(14) 4768. 0.5698 0.6083
7230.6 1.58190 0.618(15) 4696. 0.5698 0.6123
7234.3 1.58270 0.628(15) 4608. 0.5698 0.6174
7237.9 1.58349 0.635(15) 4546. 0.5698 0.6244
7241.5 1.58428 0.640(15) 4506. 0.5697 0.6343
7245.1 1.58507 0.645(15) 4473. 0.5697 0.6493
7248.7 1.58586 0.670(15) 4297. 0.5697 0.6723
7252.3 1.58666 0.710(16) 4045. 0.5697 0.7080
7256.0 1.58745 0.745(16) 3853. 0.5697 0.7623
7259.6 1.58824 0.830(17) 3452. 0.5696 0.8426
7263.2 1.58904 0.954(18) 2996. 0.5696 0.9571
7266.9 1.58984 1.114(20) 2563. 0.5696 1.1123
7270.5 1.59063 1.360(22) 2095. 0.5696 1.3108
7274.1 1.59143 1.614(24) 1758. 0.5696 1.5527
7277.8 1.59223 1.887(26) 1503. 0.5695 1.8284
7281.4 1.59302 2.188(28) 1292. 0.5695 2.1209
7285.1 1.59382 2.440(29) 1156. 0.5695 2.4051
7288.7 1.59461 2.644(31) 1066. 0.5695 2.6499
7292.3 1.59541 2.817(32) 997. 0.5695 2.8250
7296.0 1.59621 2.862(32) 980. 0.5694 2.9104
7299.6 1.59701 2.895(32) 968. 0.5694 2.9024
7303.3 1.59781 2.861(32) 978. 0.5694 2.8117
7306.9 1.59861 2.744(31) 1018. 0.5694 2.6583
7310.6 1.59941 2.575(30) 1085. 0.5694 2.4646
7314.3 1.60021 2.358(29) 1183. 0.5694 2.2519
7317.9 1.60101 2.135(28) 1305. 0.5693 2.0374
7321.6 1.60181 1.905(26) 1463. 0.5693 1.8333
7325.2 1.60261 1.683(25) 1654. 0.5693 1.6474
7328.9 1.60341 1.471(23) 1890. 0.5693 1.4831
7332.5 1.60421 1.335(22) 2078. 0.5693 1.3404
7336.2 1.60502 1.209(21) 2296. 0.5692 1.2184
7339.9 1.60582 1.088(20) 2545. 0.5692 1.1160
7343.6 1.60663 1.003(19) 2760. 0.5692 1.0303
7347.2 1.60743 0.938(18) 2941. 0.5692 0.9587
7350.9 1.60824 0.901(18) 3060. 0.5692 0.8991
7354.6 1.60904 0.849(18) 3248. 0.5691 0.8495
7358.3 1.60984 0.822(17) 3351. 0.5691 0.8081
7361.9 1.61065 0.814(17) 3379. 0.5691 0.7740
7365.6 1.61145 0.784(17) 3503. 0.5691 0.7458
7369.3 1.61226 0.756(17) 3630. 0.5691 0.7225
7373.0 1.61307 0.742(16) 3691. 0.5691 0.7036
7376.7 1.61387 0.723(16) 3777. 0.5690 0.6887
7380.3 1.61468 0.729(16) 3740. 0.5690 0.6777
7384.0 1.61549 0.731(16) 3727. 0.5690 0.6707
7387.7 1.61630 0.724(16) 3753. 0.5690 0.6684
7391.4 1.61711 0.735(16) 3691. 0.5690 0.6722
7395.1 1.61792 0.749(17) 3619. 0.5690 0.6836
7398.8 1.61873 0.765(17) 3540. 0.5689 0.7048
7402.5 1.61954 0.779(17) 3470. 0.5689 0.7381
7406.2 1.62035 0.833(18) 3238. 0.5689 0.7848
7409.9 1.62115 0.901(18) 2991. 0.5689 0.8461
7413.6 1.62197 0.968(19) 2774. 0.5689 0.9207
7417.3 1.62278 1.076(20) 2497. 0.5689 1.0047
7421.0 1.62359 1.127(20) 2382. 0.5688 1.0924
7424.8 1.62440 1.172(21) 2285. 0.5688 1.1755
7428.5 1.62522 1.238(22) 2161. 0.5688 1.2439
7432.2 1.62603 1.306(22) 2042. 0.5688 1.2887
7435.9 1.62685 1.305(22) 2042. 0.5688 1.3050
7439.6 1.62766 1.304(22) 2037. 0.5688 1.2931
7443.3 1.62848 1.264(22) 2103. 0.5687 1.2575
7447.1 1.62929 1.216(21) 2183. 0.5687 1.2046
7450.8 1.63010 1.183(21) 2238. 0.5687 1.1415
7454.5 1.63092 1.125(21) 2351. 0.5687 1.0742
7458.2 1.63173 1.007(20) 2624. 0.5687 1.0075
7462.0 1.63255 0.951(19) 2774. 0.5687 0.9450
7465.7 1.63337 0.887(18) 2971. 0.5686 0.8887
7469.4 1.63419 0.844(18) 3118. 0.5686 0.8393
7473.2 1.63500 0.803(17) 3268. 0.5686 0.7969
7476.9 1.63582 0.781(17) 3355. 0.5686 0.7610
7480.6 1.63664 0.762(17) 3444. 0.5686 0.7307
7484.4 1.63746 0.726(17) 3600. 0.5686 0.7053
7488.1 1.63828 0.714(17) 3658. 0.5685 0.6841
7491.9 1.63910 0.680(16) 3841. 0.5685 0.6665
7495.6 1.63992 0.649(16) 4013. 0.5685 0.6518
7499.3 1.64074 0.656(16) 3972. 0.5685 0.6395
7503.1 1.64156 0.666(16) 3893. 0.5685 0.6293
7506.8 1.64238 0.661(16) 3919. 0.5685 0.6207
7510.6 1.64320 0.637(16) 4066. 0.5685 0.6135
7514.4 1.64403 0.636(16) 4067. 0.5684 0.6074
7518.1 1.64485 0.651(16) 3972. 0.5684 0.6024
7521.9 1.64567 0.622(16) 4135. 0.5684 0.5981
7525.7 1.64650 0.631(16) 4081. 0.5684 0.5945
7529.4 1.64732 0.632(16) 4067. 0.5684 0.5915
7533.2 1.64814 0.609(15) 4207. 0.5684 0.5890
7536.9 1.64897 0.621(16) 4121. 0.5684 0.5868
7540.7 1.64980 0.625(16) 4095. 0.5683 0.5850
7544.5 1.65062 0.612(15) 4178. 0.5683 0.5835
7548.3 1.65144 0.602(15) 4236. 0.5683 0.5823
7552.0 1.65227 0.600(15) 4253. 0.5683 0.5813
7555.8 1.65309 0.590(15) 4309. 0.5683 0.5805
7559.6 1.65392 0.611(15) 4164. 0.5683 0.5799
7563.3 1.65475 0.608(15) 4178. 0.5683 0.5795
7567.1 1.65558 0.587(15) 4309. 0.5682 0.5792
7570.9 1.65641 0.579(15) 4366. 0.5682 0.5789
7574.7 1.65724 0.586(15) 4309. 0.5682 0.5787
7578.5 1.65807 0.570(15) 4432. 0.5682 0.5784
7582.3 1.65890 0.575(15) 4385. 0.5682 0.5781
7586.1 1.65972 0.581(15) 4336. 0.5682 0.5777
7589.9 1.66056 0.586(15) 4280. 0.5682 0.5773
7593.7 1.66139 0.591(15) 4247. 0.5681 0.5767
7597.5 1.66222 0.583(15) 4295. 0.5681 0.5762
7601.3 1.66305 0.581(15) 4306. 0.5681 0.5757
7605.1 1.66388 0.574(15) 4340. 0.5681 0.5752
7608.8 1.66471 0.585(15) 4262. 0.5681 0.5747
7612.7 1.66555 0.604(16) 4120. 0.5681 0.5743
7616.5 1.66638 0.595(15) 4176. 0.5681 0.5739
7620.3 1.66722 0.582(15) 4262. 0.5681 0.5736
7624.1 1.66805 0.582(15) 4262. 0.5680 0.5733
7627.9 1.66889 0.584(15) 4233. 0.5680 0.5730
7631.7 1.66972 0.587(15) 4204. 0.5680 0.5709
7635.5 1.67056 0.587(15) 4204. 0.5680 0.5707
7639.3 1.67139 0.593(16) 4147. 0.5680 0.5706
7643.2 1.67222 0.584(15) 4216. 0.5680 0.5704
7647.0 1.67307 0.584(15) 4204. 0.5680 0.5704
7650.8 1.67390 0.594(16) 4133. 0.5680 0.5703
7654.6 1.67474 0.608(16) 4023. 0.5679 0.5702
7658.5 1.67558 0.586(15) 4176. 0.5679 0.5702
7662.3 1.67641 0.567(15) 4317. 0.5679 0.5701
7666.1 1.67725 0.572(15) 4259. 0.5679 0.5701
7670.0 1.67810 0.597(16) 4078. 0.5679 0.5702
7673.8 1.67893 0.597(16) 4077. 0.5679 0.5702
7677.6 1.67977 0.604(16) 4023. 0.5679 0.5703
7681.5 1.68061 0.576(15) 4216. 0.5679 0.5705
7685.3 1.68145 0.569(15) 4259. 0.5678 0.5708
7689.2 1.68230 0.590(16) 4090. 0.5678 0.5713
7693.0 1.68314 0.570(15) 4230. 0.5678 0.5721
7696.8 1.68398 0.572(15) 4216. 0.5678 0.5733
7700.7 1.68482 0.603(16) 3997. 0.5678 0.5752
7704.5 1.68566 0.604(16) 3983. 0.5678 0.5778
7708.4 1.68651 0.597(16) 4023. 0.5678 0.5813
7712.3 1.68735 0.576(16) 4159. 0.5678 0.5858
7716.1 1.68819 0.598(16) 4009. 0.5678 0.5911
7720.0 1.68904 0.624(16) 3831. 0.5677 0.5971
7723.8 1.68988 0.615(16) 3881. 0.5677 0.6033
7727.7 1.69073 0.577(16) 4130. 0.5677 0.6092
7731.6 1.69158 0.574(16) 4145. 0.5677 0.6140
7735.4 1.69242 0.593(16) 4009. 0.5677 0.6172
7739.3 1.69327 0.614(16) 3869. 0.5677 0.6183
7743.2 1.69412 0.622(16) 3807. 0.5677 0.6175
7747.0 1.69497 0.639(16) 3701. 0.5677 0.6150
7750.9 1.69582 0.611(16) 3869. 0.5677 0.6112
7754.8 1.69667 0.607(16) 3894. 0.5676 0.6068
7758.7 1.69751 0.602(16) 3919. 0.5676 0.6021
7762.5 1.69836 0.596(16) 3944. 0.5676 0.5975
7766.4 1.69921 0.591(16) 3983. 0.5676 0.5931
7770.3 1.70006 0.580(16) 4047. 0.5676 0.5886
7774.2 1.70091 0.587(16) 3996. 0.5676 0.5852
7778.1 1.70176 0.596(16) 3919. 0.5676 0.5823
7782.0 1.70262 0.599(16) 3906. 0.5676 0.5798
7785.8 1.70347 0.590(16) 3957. 0.5676 0.5778
7789.8 1.70432 0.595(16) 3919. 0.5676 0.5761
7793.6 1.70517 0.560(16) 4155. 0.5675 0.5747
7797.5 1.70603 0.563(16) 4128. 0.5675 0.5735
7801.4 1.70688 0.596(16) 3894. 0.5675 0.5725
7805.3 1.70774 0.587(16) 3957. 0.5675 0.5717
7809.2 1.70858 0.586(16) 3944. 0.5675 0.5711
7813.1 1.70944 0.576(16) 4021. 0.5675 0.5705
7817.0 1.71030 0.588(16) 3931. 0.5675 0.5701
7820.9 1.71115 0.593(16) 3882. 0.5675 0.5697
7824.9 1.71201 0.579(16) 3982. 0.5675 0.5693
7828.8 1.71287 0.570(16) 4034. 0.5675 0.5691
7832.7 1.71372 0.574(16) 4008. 0.5675 0.5688
7836.6 1.71458 0.547(15) 4194. 0.5674 0.5687
7840.5 1.71544 0.557(16) 4114. 0.5674 0.5685
7844.4 1.71630 0.578(16) 3956. 0.5674 0.5684
7848.4 1.71716 0.562(16) 4061. 0.5674 0.5682
7852.3 1.71801 0.559(16) 4086. 0.5674 0.5681
7856.2 1.71888 0.555(16) 4099. 0.5674 0.5681
7860.2 1.71974 0.573(16) 3970. 0.5674 0.5680
7864.1 1.72059 0.580(16) 3919. 0.5674 0.5679
7868.0 1.72146 0.577(16) 3931. 0.5674 0.5679
7871.9 1.72232 0.579(16) 3906. 0.5674 0.5678
7875.9 1.72318 0.582(16) 3882. 0.5674 0.5678
7879.8 1.72404 0.567(16) 3982. 0.5673 0.5677
7883.8 1.72490 0.549(16) 4099. 0.5673 0.5677
7887.7 1.72577 0.565(16) 3994. 0.5673 0.5677
7891.7 1.72664 0.571(16) 3944. 0.5673 0.5676
7895.6 1.72750 0.558(16) 4020. 0.5673 0.5676
7899.5 1.72836 0.572(16) 3919. 0.5673 0.5676
7903.5 1.72922 0.588(16) 3810. 0.5673 0.5676
7907.4 1.73009 0.568(16) 3931. 0.5673 0.5675
7911.4 1.73095 0.567(16) 3943. 0.5673 0.5675
7915.3 1.73182 0.604(16) 3694. 0.5673 0.5675
7919.3 1.73269 0.584(16) 3809. 0.5673 0.5675
7923.3 1.73355 0.561(16) 3968. 0.5673 0.5680
7927.2 1.73442 0.579(16) 3845. 0.5673 0.5680
7931.2 1.73529 0.570(16) 3894. 0.5672 0.5680
7935.2 1.73616 0.570(16) 3882. 0.5672 0.5680
7939.1 1.73703 0.567(16) 3894. 0.5672 0.5680
7943.1 1.73790 0.577(16) 3822. 0.5672 0.5680
7947.1 1.73877 0.573(16) 3845. 0.5672 0.5680
7951.0 1.73964 0.567(16) 3882. 0.5672 0.5680
7955.0 1.74051 0.576(16) 3822. 0.5672 0.5680
7959.0 1.74138 0.564(16) 3894. 0.5672 0.5680
7963.0 1.74225 0.568(16) 3870. 0.5672 0.5680
7966.9 1.74312 0.572(16) 3834. 0.5672 0.5680
7970.9 1.74399 0.581(16) 3763. 0.5672 0.5680
7974.9 1.74486 0.564(16) 3870. 0.5672 0.5680
7978.9 1.74574 0.584(16) 3741. 0.5672 0.5681
7982.9 1.74662 0.583(16) 3740. 0.5672 0.5681
7986.9 1.74748 0.570(16) 3822. 0.5671 0.5681
7990.9 1.74836 0.556(16) 3906. 0.5671 0.5681
7994.9 1.74924 0.564(16) 3846. 0.5671 0.5681
7998.9 1.75011 0.581(16) 3729. 0.5671 0.5682
8002.9 1.75099 0.559(16) 3870. 0.5671 0.5682
8006.9 1.75186 0.551(16) 3918. 0.5671 0.5682
8010.9 1.75274 0.566(16) 3810. 0.5671 0.5683
8014.9 1.75362 0.539(16) 4006. 0.5671 0.5683
8018.9 1.75449 0.542(16) 3968. 0.5671 0.5684
8022.9 1.75537 0.575(16) 3741. 0.5671 0.5684
8026.9 1.75625 0.577(16) 3719. 0.5671 0.5685
8030.9 1.75713 0.563(16) 3810. 0.5671 0.5687
8034.9 1.75801 0.561(16) 3811. 0.5671 0.5689
8039.0 1.75889 0.568(16) 3764. 0.5671 0.5693
8043.0 1.75977 0.578(16) 3686. 0.5671 0.5697
8047.0 1.76065 0.580(16) 3675. 0.5671 0.5704
8051.0 1.76153 0.557(16) 3823. 0.5670 0.5713
8055.1 1.76242 0.570(16) 3729. 0.5670 0.5723
8059.1 1.76329 0.579(17) 3664. 0.5670 0.5736
8063.1 1.76417 0.583(17) 3642. 0.5670 0.5751
8067.1 1.76506 0.592(17) 3577. 0.5670 0.5765
8071.2 1.76594 0.599(17) 3528. 0.5670 0.5779
8075.2 1.76683 0.595(17) 3546. 0.5670 0.5790
8079.3 1.76771 0.577(17) 3653. 0.5670 0.5798
8083.3 1.76859 0.575(17) 3664. 0.5670 0.5801
8087.3 1.76948 0.578(17) 3633. 0.5670 0.5800
8091.4 1.77037 0.570(16) 3686. 0.5670 0.5794
8095.4 1.77125 0.587(17) 3569. 0.5670 0.5786
8099.5 1.77214 0.581(17) 3609. 0.5670 0.5777
8103.5 1.77302 0.577(17) 3622. 0.5670 0.5767
8107.6 1.77391 0.588(17) 3548. 0.5670 0.5757
8111.6 1.77480 0.563(16) 3699. 0.5670 0.5748
8115.7 1.77569 0.558(16) 3731. 0.5670 0.5740
8119.7 1.77657 0.560(16) 3710. 0.5670 0.5733
8123.8 1.77746 0.563(16) 3688. 0.5670 0.5728
8127.8 1.77835 0.549(16) 3777. 0.5669 0.5724
8131.9 1.77924 0.575(17) 3601. 0.5669 0.5721
8136.0 1.78013 0.580(17) 3561. 0.5669 0.5719
8140.1 1.78103 0.573(17) 3601. 0.5669 0.5718
8144.1 1.78192 0.569(17) 3622. 0.5669 0.5717
8148.2 1.78281 0.572(17) 3603. 0.5669 0.5717
8152.3 1.78370 0.570(17) 3601. 0.5669 0.5718
8156.3 1.78459 0.553(16) 3721. 0.5669 0.5719
8160.4 1.78548 0.564(17) 3635. 0.5669 0.5721
8164.5 1.78638 0.586(17) 3500. 0.5669 0.5723
8168.6 1.78727 0.549(16) 3721. 0.5669 0.5726
8172.7 1.78816 0.561(17) 3646. 0.5669 0.5729
8176.8 1.78906 0.565(17) 3614. 0.5669 0.5733
8180.8 1.78996 0.600(17) 3391. 0.5669 0.5738
8184.9 1.79085 0.603(17) 3372. 0.5669 0.5744
8189.0 1.79175 0.590(17) 3440. 0.5669 0.5750
8193.1 1.79265 0.547(16) 3711. 0.5669 0.5758
8197.2 1.79354 0.563(17) 3593. 0.5669 0.5767
8201.3 1.79444 0.578(17) 3490. 0.5669 0.5780
8205.4 1.79534 0.574(17) 3523. 0.5669 0.5796
8209.5 1.79624 0.573(17) 3510. 0.5669 0.5819
8213.6 1.79714 0.584(17) 3440. 0.5669 0.5854
8217.7 1.79803 0.575(17) 3493. 0.5669 0.5908
8221.8 1.79893 0.596(17) 3362. 0.5669 0.5991
8225.9 1.79983 0.619(18) 3237. 0.5669 0.6120
8230.1 1.80073 0.620(18) 3228. 0.5669 0.6312
8234.2 1.80164 0.672(18) 2971. 0.5668 0.6587
8238.3 1.80253 0.700(19) 2848. 0.5668 0.6962
8242.4 1.80344 0.751(19) 2652. 0.5668 0.7452
8246.5 1.80434 0.844(21) 2355. 0.5668 0.8053
8250.7 1.80524 0.915(21) 2168. 0.5668 0.8744
8254.8 1.80615 1.003(22) 1976. 0.5668 0.9486
8258.9 1.80705 1.062(23) 1862. 0.5668 1.0217
8263.0 1.80795 1.156(24) 1707. 0.5668 1.0859
8267.2 1.80886 1.180(24) 1671. 0.5668 1.1329
8271.3 1.80977 1.192(25) 1652. 0.5668 1.1569
8275.4 1.81067 1.198(25) 1641. 0.5668 1.1565
8279.6 1.81158 1.161(24) 1691. 0.5668 1.1339
8283.7 1.81248 1.135(24) 1727. 0.5668 1.0941
8287.9 1.81339 1.059(23) 1850. 0.5668 1.0432
8292.0 1.81430 1.029(23) 1898. 0.5668 0.9868
8296.2 1.81521 0.979(22) 1993. 0.5668 0.9295
8300.3 1.81612 0.898(21) 2173. 0.5668 0.8753
8304.4 1.81702 0.829(21) 2347. 0.5668 0.8261
8308.6 1.81793 0.783(20) 2484. 0.5668 0.7828
8312.8 1.81884 0.739(20) 2626. 0.5668 0.7458
8316.9 1.81975 0.707(19) 2740. 0.5668 0.7147
8321.1 1.82066 0.684(19) 2832. 0.5668 0.6890
8325.2 1.82157 0.678(19) 2846. 0.5668 0.6677
8329.4 1.82249 0.658(18) 2936. 0.5668 0.6502
8333.6 1.82340 0.649(18) 2967. 0.5668 0.6360
8337.7 1.82431 0.623(18) 3084. 0.5668 0.6243
8341.9 1.82523 0.620(18) 3096. 0.5668 0.6147
8346.1 1.82614 0.625(18) 3068. 0.5668 0.6069
8350.3 1.82705 0.599(18) 3198. 0.5668 0.6005
8354.4 1.82796 0.596(18) 3202. 0.5668 0.5952
8358.6 1.82888 0.587(18) 3246. 0.5668 0.5908
8362.8 1.82980 0.592(18) 3215. 0.5668 0.5873
8366.9 1.83071 0.581(17) 3273. 0.5668 0.5843
8371.1 1.83162 0.580(17) 3273. 0.5668 0.5819
8375.3 1.83254 0.589(18) 3220. 0.5668 0.5798
8379.5 1.83346 0.596(18) 3176. 0.5668 0.5781
8383.7 1.83437 0.589(18) 3211. 0.5668 0.5767
8387.9 1.83529 0.571(17) 3304. 0.5668 0.5755
8392.1 1.83621 0.587(18) 3202. 0.5668 0.5745
8396.3 1.83713 0.593(18) 3176. 0.5668 0.5737
8400.5 1.83805 0.562(17) 3340. 0.5668 0.5730
8404.7 1.83897 0.562(17) 3336. 0.5668 0.5723
8408.9 1.83989 0.550(17) 3405. 0.5668 0.5718
8413.1 1.84081 0.536(17) 3488. 0.5668 0.5714
8417.3 1.84173 0.556(17) 3358. 0.5668 0.5710
8421.5 1.84265 0.568(17) 3277. 0.5668 0.5706
8425.7 1.84358 0.568(17) 3277. 0.5668 0.5703
8429.9 1.84450 0.589(18) 3151. 0.5668 0.5701
8434.1 1.84542 0.562(17) 3304. 0.5668 0.5699
8438.3 1.84634 0.574(18) 3224. 0.5668 0.5697
8442.6 1.84727 0.566(17) 3268. 0.5668 0.5695
8446.8 1.84819 0.559(17) 3298. 0.5668 0.5694
8451.0 1.84912 0.563(17) 3268. 0.5668 0.5692
8455.3 1.85004 0.569(18) 3233. 0.5668 0.5691
8459.5 1.85097 0.578(18) 3173. 0.5668 0.5690
8463.7 1.85189 0.533(17) 3436. 0.5668 0.5689
8467.9 1.85282 0.556(17) 3286. 0.5667 0.5689
8472.2 1.85375 0.560(18) 3263. 0.5667 0.5688
8476.4 1.85468 0.549(17) 3316. 0.5667 0.5687
8480.7 1.85561 0.570(18) 3198. 0.5667 0.5686
8484.9 1.85653 0.544(17) 3334. 0.5667 0.5685
8489.1 1.85746 0.539(17) 3362. 0.5667 0.5685
8493.4 1.85839 0.571(18) 3177. 0.5667 0.5684
8497.6 1.85932 0.563(18) 3211. 0.5667 0.5683
8501.9 1.86025 0.555(18) 3246. 0.5667 0.5682
8506.1 1.86119 0.580(18) 3111. 0.5667 0.5681
8510.4 1.86212 0.551(18) 3263. 0.5667 0.5681
8514.6 1.86305 0.549(17) 3272. 0.5667 0.5680
8518.9 1.86398 0.550(18) 3254. 0.5667 0.5680
8523.1 1.86491 0.573(18) 3124. 0.5667 0.5679
8527.4 1.86585 0.565(18) 3160. 0.5667 0.5679
8531.7 1.86678 0.582(18) 3067. 0.5667 0.5678
8535.9 1.86771 0.584(18) 3046. 0.5667 0.5678
8540.2 1.86864 0.568(18) 3124. 0.5668 0.5677
8544.5 1.86958 0.561(18) 3165. 0.5668 0.5679
8548.8 1.87052 0.566(18) 3132. 0.5668 0.5679
8553.0 1.87146 0.571(18) 3103. 0.5668 0.5678
8557.3 1.87239 0.575(18) 3067. 0.5668 0.5678
8561.6 1.87332 0.584(18) 3020. 0.5668 0.5678
8565.8 1.87426 0.571(18) 3075. 0.5668 0.5678
8570.1 1.87520 0.569(18) 3091. 0.5668 0.5678
8574.4 1.87614 0.571(18) 3073. 0.5668 0.5677
8578.7 1.87708 0.567(18) 3083. 0.5668 0.5677
8583.0 1.87802 0.573(18) 3044. 0.5668 0.5677
8587.3 1.87896 0.595(18) 2928. 0.5668 0.5677
8591.6 1.87990 0.559(18) 3116. 0.5668 0.5677
8595.9 1.88084 0.569(18) 3049. 0.5668 0.5677
8600.2 1.88178 0.556(18) 3116. 0.5668 0.5677
8604.5 1.88272 0.574(18) 3018. 0.5668 0.5677
8608.8 1.88366 0.570(18) 3033. 0.5668 0.5671
8613.1 1.88461 0.568(18) 3036. 0.5668 0.5671
8617.4 1.88555 0.550(18) 3137. 0.5668 0.5671
8621.7 1.88649 0.552(18) 3120. 0.5668 0.5671
8626.0 1.88744 0.538(18) 3195. 0.5668 0.5671
8630.3 1.88838 0.540(18) 3178. 0.5668 0.5671
8634.6 1.88932 0.554(18) 3085. 0.5668 0.5671
8639.0 1.89028 0.544(18) 3137. 0.5668 0.5671
8643.3 1.89122 0.542(18) 3145. 0.5668 0.5672
8647.6 1.89216 0.541(18) 3145. 0.5668 0.5672
8651.9 1.89311 0.550(18) 3085. 0.5668 0.5672
8656.3 1.89406 0.560(18) 3033. 0.5668 0.5673
8660.6 1.89500 0.541(18) 3133. 0.5668 0.5674
8664.9 1.89596 0.557(18) 3031. 0.5668 0.5674
8669.3 1.89691 0.560(18) 3018. 0.5668 0.5675
8673.6 1.89785 0.560(18) 3008. 0.5668 0.5676
8677.9 1.89880 0.534(18) 3150. 0.5668 0.5678
8682.3 1.89975 0.555(18) 3023. 0.5668 0.5679
8686.6 1.90070 0.564(18) 2970. 0.5668 0.5680
8690.9 1.90166 0.548(18) 3054. 0.5668 0.5681
8695.3 1.90261 0.565(18) 2956. 0.5668 0.5681
8699.6 1.90356 0.564(18) 2956. 0.5668 0.5681
8704.0 1.90451 0.538(18) 3093. 0.5668 0.5681
8708.3 1.90546 0.568(18) 2925. 0.5668 0.5681
8712.7 1.90642 0.573(19) 2897. 0.5668 0.5680
8717.0 1.90737 0.563(18) 2939. 0.5668 0.5680
8721.4 1.90833 0.563(18) 2933. 0.5668 0.5679
8725.8 1.90928 0.539(18) 3059. 0.5668 0.5679
8730.1 1.91024 0.542(18) 3039. 0.5668 0.5679
8734.5 1.91119 0.558(18) 2946. 0.5668 0.5678
8738.8 1.91215 0.545(18) 3006. 0.5668 0.5678
8743.2 1.91310 0.548(18) 2991. 0.5668 0.5678
8747.6 1.91406 0.546(18) 2998. 0.5668 0.5678
8752.0 1.91502 0.547(18) 2983. 0.5668 0.5678
8756.3 1.91598 0.566(19) 2882. 0.5668 0.5678
8760.7 1.91694 0.560(19) 2903. 0.5668 0.5679
8765.1 1.91789 0.538(18) 3021. 0.5668 0.5679
8769.5 1.91885 0.557(19) 2916. 0.5668 0.5680
8773.9 1.91982 0.562(19) 2882. 0.5668 0.5680
8778.3 1.92078 0.575(19) 2805. 0.5668 0.5681
8782.7 1.92174 0.553(19) 2917. 0.5668 0.5681
8787.0 1.92270 0.551(18) 2923. 0.5668 0.5682
8791.4 1.92366 0.550(18) 2925. 0.5668 0.5683
8795.8 1.92462 0.525(18) 3056. 0.5668 0.5684
8800.2 1.92559 0.546(18) 2937. 0.5668 0.5686
8804.6 1.92655 0.547(18) 2923. 0.5669 0.5688
8809.0 1.92752 0.544(18) 2937. 0.5669 0.5689
8813.4 1.92848 0.541(18) 2945. 0.5669 0.5690
8817.8 1.92945 0.549(19) 2902. 0.5669 0.5692
8822.3 1.93041 0.575(19) 2765. 0.5669 0.5693
8826.7 1.93138 0.579(19) 2739. 0.5669 0.5695
8831.1 1.93234 0.565(19) 2805. 0.5669 0.5697
8835.5 1.93331 0.532(18) 2972. 0.5669 0.5699
8839.9 1.93428 0.536(18) 2945. 0.5669 0.5702
8844.3 1.93524 0.543(19) 2900. 0.5669 0.5705
8848.8 1.93621 0.576(19) 2732. 0.5669 0.5709
8853.2 1.93718 0.561(19) 2797. 0.5669 0.5713
8857.6 1.93815 0.543(19) 2886. 0.5669 0.5718
8862.0 1.93912 0.554(19) 2824. 0.5669 0.5725
8866.5 1.94009 0.564(19) 2765. 0.5669 0.5735
8870.9 1.94106 0.554(19) 2818. 0.5669 0.5750
8875.3 1.94203 0.566(19) 2751. 0.5669 0.5773
8879.8 1.94300 0.570(19) 2725. 0.5669 0.5808
8884.2 1.94397 0.571(19) 2719. 0.5669 0.5863
8888.7 1.94495 0.579(19) 2675. 0.5669 0.5945
8893.1 1.94592 0.598(20) 2584. 0.5669 0.6062
8897.5 1.94690 0.612(20) 2520. 0.5669 0.6223
8902.0 1.94787 0.621(20) 2482. 0.5669 0.6433
8906.4 1.94885 0.670(21) 2296. 0.5669 0.6691
8910.9 1.94982 0.716(22) 2144. 0.5669 0.6988
8915.3 1.95080 0.736(22) 2084. 0.5669 0.7309
8919.8 1.95178 0.769(22) 1989. 0.5669 0.7624
8924.3 1.95275 0.816(23) 1871. 0.5669 0.7902
8928.7 1.95373 0.868(24) 1757. 0.5669 0.8106
8933.2 1.95471 0.845(24) 1801. 0.5669 0.8211
8937.7 1.95568 0.844(24) 1801. 0.5670 0.8209
8942.1 1.95666 0.822(23) 1846. 0.5670 0.8109
8946.6 1.95764 0.816(23) 1857. 0.5670 0.7933
8951.1 1.95862 0.788(23) 1919. 0.5670 0.7708
8955.5 1.95960 0.731(22) 2066. 0.5670 0.7458
8960.0 1.96058 0.690(21) 2185. 0.5670 0.7205
8964.5 1.96156 0.684(21) 2199. 0.5670 0.6967
8969.0 1.96254 0.672(21) 2234. 0.5670 0.6750
8973.5 1.96353 0.648(21) 2314. 0.5670 0.6562
8977.9 1.96450 0.620(20) 2413. 0.5670 0.6403
8982.4 1.96549 0.622(20) 2403. 0.5670 0.6270
8986.9 1.96648 0.608(20) 2456. 0.5670 0.6161
8991.4 1.96746 0.599(20) 2489. 0.5670 0.6072
8995.9 1.96845 0.602(20) 2471. 0.5670 0.6001
9000.4 1.96943 0.596(20) 2494. 0.5670 0.5944
9004.9 1.97041 0.594(20) 2496. 0.5670 0.5897
9009.4 1.97140 0.563(19) 2633. 0.5670 0.5860
9013.9 1.97239 0.582(20) 2539. 0.5670 0.5829
9018.4 1.97337 0.571(20) 2585. 0.5670 0.5805
9022.9 1.97436 0.538(19) 2738. 0.5670 0.5786
9027.5 1.97535 0.562(20) 2615. 0.5670 0.5770
9032.0 1.97634 0.577(20) 2546. 0.5670 0.5757
9036.5 1.97733 0.584(20) 2511. 0.5670 0.5747
9041.0 1.97832 0.556(19) 2633. 0.5671 0.5739
9045.5 1.97931 0.576(20) 2539. 0.5671 0.5732
9050.0 1.98029 0.560(20) 2604. 0.5671 0.5727
9054.6 1.98129 0.551(19) 2645. 0.5671 0.5722
9059.1 1.98228 0.556(20) 2616. 0.5671 0.5719
9063.6 1.98327 0.575(20) 2524. 0.5671 0.5717
9068.2 1.98426 0.569(20) 2546. 0.5671 0.5715
9072.7 1.98525 0.581(20) 2490. 0.5671 0.5714
9077.2 1.98625 0.548(19) 2634. 0.5671 0.5713
9081.8 1.98725 0.563(20) 2563. 0.5671 0.5783
9086.3 1.98824 0.549(20) 2621. 0.5671 0.5785
9090.8 1.98923 0.544(19) 2646. 0.5671 0.5787
9095.4 1.99023 0.568(20) 2529. 0.5671 0.5790
9099.9 1.99122 0.578(20) 2481. 0.5671 0.5794
9104.5 1.99222 0.547(20) 2616. 0.5671 0.5798
9109.1 1.99322 0.554(20) 2581. 0.5671 0.5803
9113.6 1.99421 0.556(20) 2570. 0.5671 0.5809
9118.2 1.99521 0.552(20) 2581. 0.5671 0.5817
9122.7 1.99621 0.567(20) 2508. 0.5671 0.5827
9127.3 1.99721 0.585(20) 2428. 0.5671 0.5842
9131.8 1.99821 0.576(20) 2465. 0.5671 0.5864
9136.4 1.99921 0.590(20) 2396. 0.5672 0.5898
9141.0 2.00021 0.603(21) 2343. 0.5672 0.5950
9145.6 2.00121 0.608(21) 2321. 0.5672 0.6026
9150.1 2.00221 0.603(21) 2336. 0.5672 0.6134
9154.7 2.00321 0.615(21) 2285. 0.5672 0.6284
9159.3 2.00422 0.653(22) 2150. 0.5672 0.6479
9163.8 2.00522 0.694(22) 2016. 0.5672 0.6720
9168.4 2.00622 0.748(23) 1871. 0.5672 0.7000
9173.0 2.00723 0.727(23) 1921. 0.5672 0.7303
9177.6 2.00823 0.757(23) 1840. 0.5672 0.7606
9182.2 2.00923 0.819(24) 1700. 0.5672 0.7877
9186.8 2.01024 0.852(25) 1632. 0.5672 0.8081
9191.4 2.01125 0.858(25) 1618. 0.5672 0.8195
9196.0 2.01225 0.880(25) 1574. 0.5672 0.8206
9200.6 2.01326 0.867(25) 1595. 0.5672 0.8124
9205.2 2.01427 0.877(25) 1574. 0.5672 0.7967
9209.8 2.01528 0.800(24) 1725. 0.5672 0.7761
9214.4 2.01628 0.766(24) 1797. 0.5672 0.7530
9219.0 2.01730 0.747(23) 1840. 0.5673 0.7294
9223.6 2.01830 0.714(23) 1925. 0.5673 0.7071
9228.2 2.01932 0.654(22) 2093. 0.5673 0.6869
9232.8 2.02032 0.640(22) 2139. 0.5673 0.6695
9237.4 2.02133 0.640(22) 2135. 0.5673 0.6548
9242.1 2.02235 0.647(22) 2109. 0.5673 0.6427
9246.7 2.02336 0.613(21) 2223. 0.5673 0.6331
9251.3 2.02437 0.608(21) 2236. 0.5673 0.6255
9255.9 2.02539 0.584(21) 2326. 0.5673 0.6195
9260.6 2.02640 0.560(20) 2421. 0.5673 0.6150
9265.2 2.02741 0.595(21) 2273. 0.5673 0.6116
9269.8 2.02842 0.599(21) 2257. 0.5673 0.6091
9274.5 2.02944 0.590(21) 2288. 0.5673 0.6074
9279.1 2.03046 0.597(21) 2255. 0.5673 0.6063
9283.7 2.03147 0.572(21) 2348. 0.5673 0.6057
9288.4 2.03249 0.544(20) 2469. 0.5673 0.6056
9293.0 2.03351 0.564(21) 2375. 0.5673 0.6059
9297.7 2.03452 0.557(20) 2402. 0.5674 0.6065
9302.3 2.03554 0.558(20) 2397. 0.5674 0.6074
9307.0 2.03656 0.584(21) 2285. 0.5674 0.6086
9311.6 2.03758 0.577(21) 2309. 0.5674 0.6099
9316.3 2.03860 0.552(20) 2407. 0.5674 0.6116
9320.9 2.03962 0.572(21) 2319. 0.5674 0.6136
9325.6 2.04064 0.566(21) 2343. 0.5674 0.6159
9330.3 2.04166 0.570(21) 2323. 0.5674 0.6185
9334.9 2.04268 0.573(21) 2307. 0.5674 0.6214
9339.6 2.04371 0.583(21) 2262. 0.5674 0.6247
9344.3 2.04473 0.591(21) 2228. 0.5674 0.6283
9348.9 2.04575 0.581(21) 2262. 0.5674 0.6324
9353.6 2.04677 0.573(21) 2293. 0.5674 0.6370
9358.3 2.04780 0.610(22) 2150. 0.5674 0.6421
9363.0 2.04883 0.641(22) 2044. 0.5674 0.6478
9367.6 2.04985 0.615(22) 2124. 0.5674 0.6543
9372.3 2.05087 0.594(21) 2197. 0.5674 0.6617
9377.0 2.05190 0.608(22) 2141. 0.5675 0.6702
9381.7 2.05293 0.597(21) 2180. 0.5675 0.6800
9386.4 2.05395 0.594(21) 2183. 0.5675 0.6917
9391.1 2.05499 0.633(22) 2047. 0.5675 0.7060
9395.8 2.05601 0.666(23) 1941. 0.5675 0.7242
9400.5 2.05704 0.640(22) 2020. 0.5675 0.7492
9405.2 2.05807 0.675(23) 1912. 0.5675 0.7853
9409.9 2.05910 0.747(24) 1722. 0.5675 0.8398
9414.6 2.06013 0.801(25) 1605. 0.5675 0.9244
9419.3 2.06116 0.944(27) 1359. 0.5675 1.0559
9424.0 2.06219 1.115(29) 1149. 0.5675 1.2572
9428.7 2.06323 1.487(34) 859. 0.5675 1.5549
9433.4 2.06426 1.97(4) 646. 0.568 1.977
9438.2 2.06529 2.61(5) 487. 0.568 2.546
9442.9 2.06633 3.40(5) 373. 0.568 3.274
9447.6 2.06736 4.30(6) 294.0 0.568 4.151
9452.3 2.06839 5.34(7) 236.4 0.568 5.141
9457.0 2.06943 6.36(7) 197.7 0.568 6.179
9461.8 2.07046 7.21(8) 174.1 0.568 7.172
9466.5 2.07150 7.84(8) 159.7 0.568 8.003
9471.2 2.07253 8.34(8) 149.9 0.568 8.564
9476.0 2.07357 8.64(8) 144.4 0.568 8.786
9480.7 2.07461 8.57(8) 145.3 0.568 8.663
9485.4 2.07565 8.19(8) 152.0 0.568 8.241
9490.2 2.07669 7.58(8) 163.9 0.568 7.596
9494.9 2.07773 6.80(7) 182.7 0.568 6.816
9499.7 2.07877 5.95(7) 208.4 0.568 5.982
9504.4 2.07981 5.11(6) 242.9 0.568 5.162
9509.2 2.08085 4.39(6) 282.5 0.568 4.400
9513.9 2.08189 3.71(5) 333.8 0.568 3.723
9518.7 2.08293 3.10(5) 399. 0.568 3.143
9523.4 2.08397 2.57(5) 482. 0.568 2.657
9528.2 2.08502 2.17(4) 570. 0.568 2.258
9533.0 2.08606 1.86(4) 664. 0.568 1.935
9537.8 2.08710 1.63(4) 756. 0.568 1.675
9542.5 2.08814 1.434(34) 857. 0.5677 1.4676
9547.3 2.08919 1.277(32) 961. 0.5677 1.3013
9552.1 2.09024 1.214(31) 1009. 0.5677 1.1686
9556.8 2.09129 1.132(30) 1081. 0.5677 1.0625
9561.6 2.09233 1.032(29) 1183. 0.5677 0.9776
9566.4 2.09338 0.991(29) 1231. 0.5677 0.9095
9571.2 2.09443 0.938(28) 1298. 0.5677 0.8544
9576.0 2.09547 0.881(27) 1380. 0.5677 0.8102
9580.8 2.09652 0.879(27) 1380. 0.5677 0.7742
9585.5 2.09757 0.843(26) 1438. 0.5678 0.7449
9590.3 2.09862 0.825(26) 1468. 0.5678 0.7210
9595.1 2.09967 0.775(25) 1559. 0.5678 0.7013
9599.9 2.10072 0.744(25) 1622. 0.5678 0.6850
9604.7 2.10177 0.734(25) 1641. 0.5678 0.6715
9609.5 2.10282 0.714(24) 1683. 0.5678 0.6602
9614.3 2.10388 0.718(24) 1670. 0.5678 0.6507
9619.1 2.10493 0.728(25) 1644. 0.5678 0.6427
9623.9 2.10598 0.723(25) 1655. 0.5678 0.6358
9628.8 2.10703 0.676(24) 1763. 0.5678 0.6299
9633.6 2.10809 0.651(23) 1830. 0.5678 0.6248
9638.4 2.10914 0.666(24) 1786. 0.5678 0.6204
9643.2 2.11020 0.654(23) 1817. 0.5678 0.6165
9648.0 2.11126 0.647(23) 1833. 0.5678 0.6131
9652.8 2.11231 0.665(24) 1780. 0.5679 0.6101
9657.7 2.11337 0.664(24) 1779. 0.5679 0.6074
9662.5 2.11443 0.637(23) 1850. 0.5679 0.6050
9667.3 2.11549 0.626(23) 1880. 0.5679 0.6028
9672.2 2.11655 0.639(23) 1840. 0.5679 0.6009
9677.0 2.11760 0.630(23) 1864. 0.5679 0.5991
9681.8 2.11866 0.634(23) 1850. 0.5679 0.5975
9686.7 2.11972 0.614(23) 1904. 0.5679 0.5960
9691.5 2.12078 0.601(23) 1943. 0.5679 0.5948
9696.4 2.12184 0.626(23) 1860. 0.5679 0.5935
9701.2 2.12291 0.612(23) 1901. 0.5679 0.5923
9706.1 2.12397 0.605(23) 1921. 0.5679 0.5912
9710.9 2.12503 0.632(23) 1837. 0.5679 0.5902
9715.8 2.12609 0.629(23) 1842. 0.5679 0.5893
9720.7 2.12716 0.617(23) 1874. 0.5680 0.5884
9725.5 2.12822 0.600(23) 1922. 0.5680 0.5876
9730.4 2.12929 0.598(23) 1925. 0.5680 0.5868
9735.2 2.13035 0.615(23) 1871. 0.5680 0.5861
9740.1 2.13142 0.597(23) 1922. 0.5680 0.5854
9745.0 2.13249 0.634(24) 1810. 0.5680 0.5848
9749.8 2.13355 0.621(23) 1842. 0.5680 0.5842
9754.7 2.13462 0.618(23) 1845. 0.5680 0.5836
9759.6 2.13569 0.612(23) 1864. 0.5680 0.5831
9764.5 2.13676 0.607(23) 1874. 0.5680 0.5826
9769.3 2.13783 0.615(23) 1846. 0.5680 0.5821
9774.3 2.13890 0.581(23) 1953. 0.5680 0.5817
9779.1 2.13997 0.591(23) 1916. 0.5680 0.5812
9784.0 2.14104 0.576(23) 1961. 0.5681 0.5808
9788.9 2.14211 0.585(23) 1926. 0.5681 0.5804
9793.8 2.14318 0.598(23) 1884. 0.5681 0.5801
9798.7 2.14425 0.568(22) 1979. 0.5681 0.5797
9803.6 2.14533 0.577(23) 1947. 0.5681 0.5794
9808.5 2.14640 0.562(22) 1993. 0.5681 0.5791
9813.4 2.14748 0.549(22) 2037. 0.5681 0.5788
9818.3 2.14855 0.559(22) 1997. 0.5681 0.5785
9823.2 2.14963 0.564(23) 1975. 0.5681 0.5782
9828.1 2.15070 0.579(23) 1919. 0.5681 0.5779
9833.1 2.15178 0.580(23) 1912. 0.5681 0.5777
9838.0 2.15286 0.582(23) 1902. 0.5681 0.5774
9842.9 2.15393 0.566(23) 1954. 0.5681 0.5772
9847.8 2.15501 0.564(23) 1957. 0.5681 0.5770
9852.7 2.15609 0.554(22) 1989. 0.5682 0.5685
9857.7 2.15717 0.551(22) 1997. 0.5682 0.5685
9862.6 2.15825 0.591(23) 1856. 0.5682 0.5685
9867.5 2.15933 0.594(23) 1846. 0.5682 0.5686
9872.4 2.16040 0.592(23) 1850. 0.5682 0.5686
9877.4 2.16149 0.573(23) 1906. 0.5682 0.5686
9882.3 2.16257 0.608(24) 1794. 0.5682 0.5686
9887.3 2.16366 0.599(23) 1818. 0.5682 0.5687
9892.2 2.16474 0.582(23) 1866. 0.5682 0.5687
9897.2 2.16582 0.572(23) 1896. 0.5682 0.5687
9902.1 2.16690 0.613(24) 1764. 0.5682 0.5687
9907.1 2.16799 0.590(23) 1831. 0.5682 0.5688
9912.0 2.16907 0.584(23) 1847. 0.5682 0.5688
9917.0 2.17016 0.582(23) 1851. 0.5683 0.5688
9921.9 2.17125 0.597(24) 1799. 0.5683 0.5689
9926.9 2.17233 0.574(23) 1867. 0.5683 0.5689
9931.8 2.17342 0.561(23) 1910. 0.5683 0.5689
9936.8 2.17450 0.547(23) 1954. 0.5683 0.5690
9941.8 2.17559 0.545(23) 1958. 0.5683 0.5690
9946.8 2.17668 0.559(23) 1906. 0.5683 0.5691
9951.7 2.17777 0.557(23) 1910. 0.5683 0.5691
9956.7 2.17886 0.555(23) 1910. 0.5683 0.5692
9961.7 2.17995 0.559(23) 1896. 0.5683 0.5692
9966.7 2.18104 0.573(23) 1845. 0.5683 0.5693
9971.7 2.18214 0.588(24) 1794. 0.5683 0.5694
9976.6 2.18322 0.579(23) 1820. 0.5683 0.5694
9981.6 2.18432 0.578(23) 1820. 0.5684 0.5695
9986.6 2.18541 0.574(23) 1828. 0.5684 0.5696
9991.6 2.18650 0.548(23) 1914. 0.5684 0.5697
9996.6 2.18760 0.572(23) 1829. 0.5684 0.5698
10001.6 2.18869 0.568(23) 1836. 0.5684 0.5699
10006.6 2.18979 0.557(23) 1871. 0.5684 0.5700
10011.6 2.19088 0.580(24) 1792. 0.5684 0.5702
10016.6 2.19198 0.575(24) 1803. 0.5684 0.5704
10021.6 2.19308 0.554(23) 1871. 0.5684 0.5705
10026.6 2.19418 0.577(24) 1792. 0.5684 0.5707
10031.6 2.19527 0.546(23) 1891. 0.5684 0.5710
10036.7 2.19637 0.542(23) 1901. 0.5684 0.5713
10041.7 2.19747 0.560(23) 1836. 0.5684 0.5716
10046.7 2.19857 0.566(23) 1815. 0.5685 0.5721
10051.7 2.19967 0.552(23) 1856. 0.5685 0.5728
10056.8 2.20077 0.570(24) 1794. 0.5685 0.5738
10061.8 2.20187 0.581(24) 1758. 0.5685 0.5754
10066.8 2.20298 0.569(24) 1791. 0.5685 0.5778
10071.8 2.20408 0.584(24) 1740. 0.5685 0.5815
10076.9 2.20518 0.607(24) 1673. 0.5685 0.5871
10081.9 2.20628 0.600(24) 1687. 0.5685 0.5951
10086.9 2.20739 0.622(25) 1625. 0.5685 0.6061
10092.0 2.20849 0.629(25) 1602. 0.5685 0.6206
10097.0 2.20960 0.657(26) 1533. 0.5685 0.6384
10102.1 2.21070 0.719(27) 1398. 0.5685 0.6591
10107.2 2.21181 0.742(27) 1351. 0.5685 0.6815
10112.2 2.21292 0.775(28) 1291. 0.5686 0.7037
10117.3 2.21402 0.797(28) 1253. 0.5686 0.7235
10122.3 2.21513 0.832(29) 1199. 0.5686 0.7383
10127.4 2.21624 0.806(28) 1236. 0.5686 0.7461
10132.4 2.21735 0.774(28) 1284. 0.5686 0.7463
10137.5 2.21846 0.778(28) 1275. 0.5686 0.7393
10142.6 2.21957 0.773(28) 1280. 0.5686 0.7267
10147.7 2.22068 0.762(28) 1296. 0.5686 0.7104
10152.7 2.22179 0.752(28) 1311. 0.5686 0.6922
10157.8 2.22290 0.708(27) 1391. 0.5686 0.6738
10162.9 2.22402 0.713(27) 1378. 0.5686 0.6563
10167.9 2.22513 0.692(27) 1417. 0.5686 0.6406
10173.0 2.22624 0.664(26) 1473. 0.5686 0.6270
10178.1 2.22736 0.647(26) 1510. 0.5687 0.6157
10183.2 2.22847 0.633(25) 1540. 0.5687 0.6064
10188.3 2.22959 0.622(25) 1564. 0.5687 0.5989
10193.4 2.23070 0.624(25) 1557. 0.5687 0.5929
10198.5 2.23182 0.598(25) 1621. 0.5687 0.5882
10203.6 2.23294 0.611(25) 1584. 0.5687 0.5844
10208.7 2.23405 0.571(24) 1689. 0.5687 0.5815
10213.8 2.23517 0.567(24) 1698. 0.5687 0.5792
10218.9 2.23629 0.567(24) 1696. 0.5687 0.5774
10224.0 2.23741 0.585(25) 1639. 0.5687 0.5759
10229.1 2.23853 0.602(25) 1588. 0.5687 0.5748
10234.3 2.23965 0.564(24) 1693. 0.5687 0.5738
10239.3 2.24077 0.565(24) 1686. 0.5687 0.5731
10244.5 2.24189 0.570(24) 1670. 0.5688 0.5725
10249.6 2.24301 0.570(25) 1665. 0.5688 0.5720
10254.7 2.24413 0.564(24) 1681. 0.5688 0.5717
10259.8 2.24526 0.542(24) 1747. 0.5688 0.5713
10265.0 2.24638 0.545(24) 1732. 0.5688 0.5711
10270.1 2.24751 0.576(25) 1636. 0.5688 0.5709
10275.3 2.24863 0.539(24) 1745. 0.5688 0.5707
10280.4 2.24975 0.547(24) 1715. 0.5688 0.5706
10285.5 2.25088 0.578(25) 1621. 0.5688 0.5704
10290.7 2.25200 0.571(25) 1635. 0.5688 0.5703
10295.8 2.25313 0.591(25) 1578. 0.5688 0.5702
10301.0 2.25426 0.577(25) 1613. 0.5688 0.5702
10306.1 2.25539 0.558(25) 1664. 0.5688 0.5701
10311.3 2.25652 0.562(25) 1651. 0.5689 0.5701
10316.4 2.25765 0.535(24) 1732. 0.5689 0.5700
10321.6 2.25878 0.536(24) 1724. 0.5689 0.5700
10326.8 2.25991 0.576(25) 1600. 0.5689 0.5700
10331.9 2.26104 0.570(25) 1613. 0.5689 0.5699
10337.1 2.26217 0.574(25) 1600. 0.5689 0.5699
10342.3 2.26331 0.557(25) 1646. 0.5689 0.5699
10347.4 2.26443 0.561(25) 1630. 0.5689 0.5699
10352.6 2.26557 0.542(24) 1683. 0.5689 0.5699
10357.8 2.26670 0.560(25) 1627. 0.5689 0.5699
10362.9 2.26784 0.552(25) 1645. 0.5689 0.5699
10368.1 2.26897 0.573(25) 1583. 0.5689 0.5699
10373.3 2.27011 0.565(25) 1602. 0.5689 0.5699
10378.5 2.27125 0.568(25) 1590. 0.5690 0.5700
10383.7 2.27238 0.550(25) 1640. 0.5690 0.5700
10388.9 2.27352 0.559(25) 1607. 0.5690 0.5700
10394.1 2.27465 0.536(24) 1676. 0.5690 0.5701
10399.3 2.27579 0.550(25) 1629. 0.5690 0.5701
10404.5 2.27693 0.577(25) 1551. 0.5690 0.5702
10409.7 2.27807 0.608(26) 1468. 0.5690 0.5703
10414.9 2.27921 0.561(25) 1587. 0.5690 0.5703
10420.1 2.28036 0.552(25) 1610. 0.5690 0.5705
10425.3 2.28149 0.532(24) 1668. 0.5690 0.5706
10430.5 2.28264 0.544(25) 1627. 0.5690 0.5709
10435.7 2.28378 0.556(25) 1587. 0.5690 0.5712
10440.9 2.28492 0.537(25) 1644. 0.5690 0.5717
10446.2 2.28606 0.586(26) 1501. 0.5691 0.5725
10451.4 2.28721 0.586(26) 1497. 0.5691 0.5738
10456.6 2.28835 0.562(25) 1558. 0.5691 0.5757
10461.8 2.28950 0.574(26) 1524. 0.5691 0.5785
10467.1 2.29064 0.625(27) 1398. 0.5691 0.5823
10472.3 2.29179 0.601(26) 1449. 0.5691 0.5872
10477.5 2.29294 0.572(26) 1519. 0.5691 0.5934
10482.8 2.29409 0.605(26) 1434. 0.5691 0.6005
10488.0 2.29523 0.649(27) 1335. 0.5691 0.6083
10493.3 2.29638 0.679(28) 1274. 0.5691 0.6160
10498.5 2.29753 0.658(28) 1311. 0.5691 0.6245
10503.8 2.29868 0.672(28) 1282. 0.5691 0.6297
10509.0 2.29983 0.685(28) 1253. 0.5691 0.6326
10514.3 2.30098 0.702(29) 1222. 0.5692 0.6327
10519.5 2.30214 0.690(28) 1240. 0.5692 0.6304
10524.8 2.30329 0.649(28) 1316. 0.5692 0.6261
10530.0 2.30444 0.682(28) 1250. 0.5692 0.6204
10535.3 2.30559 0.645(28) 1318. 0.5692 0.6141
10540.6 2.30674 0.621(27) 1368. 0.5692 0.6077
10545.8 2.30790 0.613(27) 1381. 0.5692 0.6016
10551.1 2.30906 0.615(27) 1375. 0.5692 0.5960
10556.4 2.31021 0.609(27) 1385. 0.5692 0.5913
10561.7 2.31136 0.578(26) 1456. 0.5692 0.5874
10566.9 2.31252 0.567(26) 1482. 0.5692 0.5842
10572.2 2.31368 0.592(27) 1416. 0.5692 0.5816
10577.5 2.31484 0.594(27) 1409. 0.5692 0.5796
10582.8 2.31600 0.591(27) 1413. 0.5692 0.5781
10588.1 2.31715 0.580(26) 1436. 0.5693 0.5769
10593.4 2.31832 0.565(26) 1473. 0.5693 0.5760
10598.7 2.31947 0.600(27) 1384. 0.5693 0.5753
10604.0 2.32064 0.603(27) 1372. 0.5693 0.5748
10609.3 2.32179 0.563(26) 1467. 0.5693 0.5744
10614.6 2.32296 0.585(27) 1410. 0.5693 0.5741
10619.9 2.32412 0.565(26) 1457. 0.5693 0.5739
10625.2 2.32529 0.547(26) 1504. 0.5693 0.5738
10630.5 2.32645 0.528(25) 1553. 0.5693 0.5737
10635.8 2.32761 0.534(26) 1533. 0.5693 0.5737
10641.2 2.32878 0.588(27) 1390. 0.5693 0.5736
10646.5 2.32994 0.580(27) 1404. 0.5693 0.5737
10651.8 2.33111 0.573(27) 1420. 0.5693 0.5737
10657.1 2.33227 0.557(26) 1459. 0.5694 0.5738
10662.5 2.33345 0.555(26) 1459. 0.5694 0.5739
10667.8 2.33461 0.567(26) 1426. 0.5694 0.5740
10673.1 2.33578 0.565(26) 1428. 0.5694 0.5741
10678.5 2.33695 0.546(26) 1474. 0.5694 0.5743
10683.8 2.33812 0.567(27) 1418. 0.5694 0.5744
10689.1 2.33928 0.586(27) 1368. 0.5694 0.5746
10694.5 2.34045 0.566(27) 1415. 0.5694 0.5748
10699.8 2.34163 0.576(27) 1387. 0.5694 0.5750
10705.2 2.34280 0.554(26) 1438. 0.5694 0.5752
10710.5 2.34397 0.518(26) 1535. 0.5694 0.5754
10715.9 2.34514 0.569(27) 1395. 0.5694 0.5757
10721.3 2.34632 0.582(27) 1360. 0.5694 0.5760
10726.6 2.34749 0.560(27) 1411. 0.5694 0.5763
10732.0 2.34867 0.546(26) 1447. 0.5695 0.5766
10737.3 2.34985 0.535(26) 1472. 0.5695 0.5770
10742.7 2.35102 0.541(26) 1453. 0.5695 0.5773
10748.1 2.35219 0.582(27) 1346. 0.5695 0.5778
10753.4 2.35337 0.588(27) 1332. 0.5695 0.5782
10758.8 2.35455 0.594(28) 1315. 0.5695 0.5787
10764.2 2.35573 0.567(27) 1374. 0.5695 0.5793
10769.6 2.35691 0.538(26) 1445. 0.5695 0.5798
10775.0 2.35809 0.494(25) 1571. 0.5695 0.5805
10780.4 2.35927 0.556(27) 1393. 0.5695 0.5812
10785.8 2.36045 0.543(26) 1425. 0.5695 0.5820
10791.2 2.36163 0.549(27) 1405. 0.5695 0.5829
10796.5 2.36281 0.564(27) 1366. 0.5695 0.5838
10801.9 2.36399 0.547(27) 1404. 0.5695 0.5849
10807.3 2.36518 0.534(26) 1437. 0.5695 0.5861
10812.8 2.36636 0.585(28) 1309. 0.5696 0.5875
10818.2 2.36755 0.595(28) 1284. 0.5696 0.5890
10823.6 2.36873 0.580(28) 1315. 0.5696 0.5907
10829.0 2.36992 0.548(27) 1388. 0.5696 0.5927
10834.4 2.37110 0.552(27) 1376. 0.5696 0.5951
10839.8 2.37229 0.602(28) 1258. 0.5696 0.5980
10845.2 2.37348 0.598(28) 1265. 0.5696 0.6015
10850.7 2.37467 0.586(28) 1287. 0.5696 0.6063
10856.1 2.37585 0.591(28) 1275. 0.5696 0.6131
10861.5 2.37704 0.596(28) 1261. 0.5696 0.6232
10866.9 2.37823 0.593(28) 1265. 0.5696 0.6389
10872.4 2.37942 0.600(28) 1247. 0.5696 0.6632
10877.8 2.38061 0.641(29) 1165. 0.5696 0.7006
10883.3 2.38181 0.697(31) 1069. 0.5696 0.7566
10888.7 2.38300 0.780(32) 954. 0.5697 0.8370
10894.1 2.38419 0.899(35) 826. 0.5697 0.9475
10899.6 2.38538 1.08(4) 685. 0.570 1.092
10905.0 2.38658 1.29(4) 573. 0.570 1.270
10910.5 2.38777 1.51(5) 490. 0.570 1.477
10915.9 2.38897 1.77(5) 418. 0.570 1.700
10921.4 2.39016 1.95(5) 376. 0.570 1.921
10926.8 2.39136 2.11(5) 347.7 0.570 2.118
10932.3 2.39255 2.30(6) 318.1 0.570 2.264
10937.8 2.39375 2.39(6) 306.3 0.570 2.344
10943.3 2.39495 2.34(6) 312.2 0.570 2.343
10948.7 2.39615 2.26(6) 322.8 0.570 2.272
10954.2 2.39734 2.13(5) 341.1 0.570 2.143
10959.7 2.39854 1.96(5) 370. 0.570 1.975
10965.2 2.39975 1.79(5) 404. 0.570 1.789
10970.6 2.40095 1.59(5) 454. 0.570 1.601
10976.1 2.40215 1.38(4) 523. 0.570 1.424
10981.6 2.40335 1.22(4) 591. 0.570 1.265
10987.1 2.40455 1.16(4) 618. 0.570 1.128
10992.6 2.40576 1.02(4) 703. 0.570 1.015
10998.1 2.40696 0.90(4) 793. 0.570 0.923
11003.6 2.40817 0.833(34) 857. 0.5698 0.8495
11009.1 2.40937 0.788(33) 903. 0.5698 0.7920
11014.6 2.41058 0.763(33) 932. 0.5698 0.7471
11020.1 2.41178 0.731(32) 970. 0.5698 0.7123
11025.6 2.41299 0.686(31) 1032. 0.5698 0.6852
11031.1 2.41420 0.654(30) 1079. 0.5698 0.6642
11036.6 2.41540 0.628(30) 1122. 0.5698 0.6478
11042.2 2.41661 0.647(30) 1088. 0.5698 0.6349
11047.7 2.41783 0.656(31) 1071. 0.5698 0.6249
11053.2 2.41903 0.625(30) 1121. 0.5698 0.6170
11058.7 2.42024 0.615(30) 1138. 0.5699 0.6107
11064.3 2.42145 0.612(30) 1140. 0.5699 0.6057
11069.8 2.42267 0.635(30) 1096. 0.5699 0.6017
11075.3 2.42388 0.615(30) 1130. 0.5699 0.5984
11080.9 2.42510 0.650(31) 1066. 0.5699 0.5958
11086.4 2.42631 0.602(29) 1150. 0.5699 0.5936
11091.9 2.42752 0.587(29) 1176. 0.5699 0.5918
11097.5 2.42874 0.625(30) 1102. 0.5699 0.5904
11103.0 2.42995 0.616(30) 1117. 0.5699 0.5891
11108.6 2.43117 0.599(30) 1146. 0.5699 0.5881
11114.2 2.43239 0.557(29) 1230. 0.5699 0.5873
11119.7 2.43360 0.593(29) 1152. 0.5699 0.5866
11125.3 2.43482 0.612(30) 1113. 0.5699 0.5860
11130.8 2.43603 0.577(29) 1179. 0.5699 0.5855
11136.4 2.43725 0.596(30) 1140. 0.5699 0.5851
11142.0 2.43848 0.591(30) 1146. 0.5699 0.5848
11147.5 2.43970 0.606(30) 1117. 0.5700 0.5845
11153.1 2.44092 0.558(29) 1210. 0.5700 0.5843
11158.7 2.44214 0.565(29) 1194. 0.5700 0.5842
11164.3 2.44336 0.589(30) 1141. 0.5700 0.5841
11169.8 2.44458 0.565(29) 1189. 0.5700 0.5841
11175.4 2.44581 0.550(29) 1218. 0.5700 0.5841
11181.0 2.44703 0.560(29) 1194. 0.5700 0.5842
11186.6 2.44825 0.554(29) 1204. 0.5700 0.5843
11192.2 2.44948 0.527(28) 1263. 0.5700 0.5845
11197.8 2.45070 0.555(29) 1198. 0.5700 0.5847
11203.4 2.45194 0.572(29) 1161. 0.5700 0.5849
11209.0 2.45316 0.602(30) 1099. 0.5700 0.5853
11214.6 2.45439 0.610(30) 1082. 0.5700 0.5856
11220.2 2.45562 0.588(30) 1121. 0.5700 0.5860
11225.8 2.45685 0.562(29) 1169. 0.5700 0.5865
11231.4 2.45808 0.579(30) 1133. 0.5700 0.5871
11237.0 2.45930 0.609(30) 1076. 0.5700 0.5877
11242.7 2.46054 0.608(30) 1076. 0.5701 0.5884
11248.3 2.46177 0.586(30) 1113. 0.5701 0.5892
11253.9 2.46300 0.572(30) 1137. 0.5701 0.5900
11259.5 2.46423 0.568(30) 1144. 0.5701 0.5910
11265.2 2.46546 0.575(30) 1128. 0.5701 0.5921
11270.8 2.46670 0.573(30) 1130. 0.5701 0.5934
11276.4 2.46794 0.569(30) 1135. 0.5701 0.5947
11282.1 2.46917 0.555(29) 1162. 0.5701 0.5963
11287.7 2.47041 0.570(30) 1129. 0.5701 0.5981
11293.3 2.47164 0.607(31) 1058. 0.5701 0.6001
11299.0 2.47288 0.595(30) 1076. 0.5701 0.6023
11304.7 2.47412 0.597(31) 1071. 0.5701 0.6050
11310.3 2.47536 0.576(30) 1107. 0.5701 0.6080
11316.0 2.47659 0.570(30) 1116. 0.5701 0.6116
11321.6 2.47783 0.573(30) 1108. 0.5701 0.6159
11327.3 2.47907 0.621(31) 1022. 0.5701 0.6215
11332.9 2.48031 0.608(31) 1041. 0.5701 0.6289
11338.6 2.48155 0.601(31) 1050. 0.5702 0.6397
11344.3 2.48280 0.615(31) 1025. 0.5702 0.6558
11349.9 2.48404 0.631(32) 997. 0.5702 0.6806
11355.6 2.48528 0.616(31) 1020. 0.5702 0.7195
11361.3 2.48653 0.691(33) 907. 0.5702 0.7789
11367.0 2.48777 0.84(4) 744. 0.570 0.867
11372.7 2.48901 0.91(4) 687. 0.570 0.994
11378.3 2.49026 1.02(4) 612. 0.570 1.168
11384.0 2.49150 1.29(5) 483. 0.570 1.393
11389.7 2.49275 1.64(5) 378. 0.570 1.669
11395.4 2.49400 2.00(6) 309.3 0.570 1.988
11401.1 2.49525 2.26(6) 273.5 0.570 2.328
11406.8 2.49650 2.56(6) 240.7 0.570 2.663
11412.5 2.49775 2.77(7) 222.4 0.570 2.958
11418.3 2.49900 2.97(7) 206.8 0.570 3.174
11423.9 2.50025 3.03(7) 202.0 0.570 3.281
11429.7 2.50150 2.97(7) 206.1 0.570 3.270
11435.4 2.50275 2.90(7) 210.1 0.570 3.150
11441.1 2.50400 2.80(7) 217.4 0.570 2.945
11446.8 2.50526 2.60(7) 233.8 0.570 2.683
11452.5 2.50651 2.27(6) 267.4 0.570 2.396
11458.3 2.50776 1.98(6) 305.8 0.570 2.105
11464.0 2.50902 1.75(5) 344.5 0.570 1.833
11469.7 2.51028 1.53(5) 393. 0.570 1.591
11475.5 2.51154 1.34(5) 449. 0.570 1.384
11481.2 2.51279 1.21(4) 494. 0.570 1.214
11486.9 2.51405 1.06(4) 565. 0.570 1.076
11492.7 2.51531 0.94(4) 639. 0.570 0.968
11498.4 2.51657 0.84(4) 712. 0.570 0.883
11504.2 2.51783 0.82(4) 728. 0.570 0.817
11509.9 2.51909 0.82(4) 727. 0.570 0.767
11515.7 2.52035 0.719(35) 824. 0.5703 0.7282
11521.4 2.52161 0.693(34) 853. 0.5703 0.6982
11527.2 2.52287 0.697(34) 847. 0.5703 0.6750
11533.0 2.52413 0.644(33) 915. 0.5703 0.6570
11538.7 2.52539 0.636(33) 924. 0.5703 0.6429
11544.5 2.52666 0.627(33) 936. 0.5703 0.6317
11550.3 2.52792 0.648(33) 903. 0.5704 0.6229
11556.0 2.52918 0.631(33) 926. 0.5704 0.6159
11561.8 2.53045 0.597(32) 977. 0.5704 0.6102
11567.6 2.53172 0.606(32) 960. 0.5704 0.6055
11573.4 2.53298 0.616(33) 943. 0.5704 0.6017
11579.2 2.53426 0.620(33) 935. 0.5704 0.5985
11585.0 2.53552 0.597(32) 969. 0.5704 0.5959
11590.8 2.53679 0.616(33) 937. 0.5704 0.5936
11596.6 2.53806 0.606(32) 951. 0.5704 0.5917
11602.3 2.53933 0.614(33) 936. 0.5704 0.5900
11608.2 2.54060 0.592(32) 968. 0.5704 0.5886
11614.0 2.54188 0.591(32) 968. 0.5704 0.5873
11619.8 2.54314 0.548(31) 1043. 0.5704 0.5862
11625.6 2.54442 0.566(32) 1007. 0.5704 0.5852
11631.4 2.54569 0.585(32) 972. 0.5704 0.5843
11637.2 2.54696 0.590(32) 963. 0.5704 0.5835
11643.0 2.54824 0.588(32) 964. 0.5704 0.5828
11648.8 2.54952 0.552(31) 1024. 0.5704 0.5821
11654.7 2.55079 0.531(31) 1062. 0.5704 0.5815
11660.5 2.55207 0.545(31) 1032. 0.5704 0.5810
11666.3 2.55334 0.558(32) 1006. 0.5705 0.5805
11672.2 2.55462 0.597(33) 939. 0.5705 0.5800
11678.0 2.55590 0.614(33) 910. 0.5705 0.5796
11683.8 2.55718 0.585(32) 954. 0.5705 0.5792
11689.7 2.55846 0.592(33) 941. 0.5705 0.5789
11695.5 2.55974 0.598(33) 929. 0.5705 0.5785
11701.4 2.56102 0.588(33) 943. 0.5705 0.5782
11707.2 2.56230 0.567(32) 977. 0.5705 0.5779
11713.1 2.56358 0.556(32) 994. 0.5705 0.5777
11718.9 2.56487 0.561(32) 982. 0.5705 0.5774
11724.8 2.56615 0.574(32) 959. 0.5705 0.5772
11730.7 2.56744 0.603(33) 911. 0.5705 0.5770
11736.5 2.56872 0.597(33) 918. 0.5705 0.5768
11742.4 2.57001 0.627(34) 872. 0.5705 0.5766
11748.3 2.57129 0.603(33) 905. 0.5705 0.5764
11754.1 2.57258 0.591(33) 922. 0.5705 0.5763
11760.0 2.57387 0.548(32) 991. 0.5705 0.5761
11765.9 2.57515 0.602(33) 901. 0.5705 0.5760
11771.8 2.57645 0.602(33) 898. 0.5705 0.5759
11777.7 2.57774 0.560(32) 963. 0.5705 0.5758
11783.5 2.57902 0.574(33) 938. 0.5705 0.5757
11789.4 2.58032 0.578(33) 930. 0.5706 0.5756
11795.3 2.58161 0.601(33) 893. 0.5706 0.5755
11801.2 2.58290 0.579(33) 925. 0.5706 0.5755
11807.1 2.58419 0.540(32) 988. 0.5706 0.5754
11813.0 2.58548 0.523(31) 1019. 0.5706 0.5754
11818.9 2.58678 0.532(32) 1000. 0.5706 0.5754
11824.8 2.58807 0.574(33) 925. 0.5706 0.5754
11830.8 2.58937 0.593(33) 892. 0.5706 0.5754
11836.7 2.59067 0.588(33) 898. 0.5706 0.5754
11842.6 2.59196 0.557(32) 947. 0.5706 0.5754
11848.5 2.59326 0.568(33) 926. 0.5706 0.5755
11854.4 2.59456 0.534(32) 983. 0.5706 0.5756
11860.4 2.59586 0.519(31) 1010. 0.5706 0.5757
11866.3 2.59715 0.594(34) 880. 0.5706 0.5758
11872.2 2.59845 0.631(35) 827. 0.5706 0.5760
11878.2 2.59975 0.605(34) 861. 0.5706 0.5763
11884.1 2.60105 0.556(33) 935. 0.5706 0.5767
11890.0 2.60235 0.541(32) 958. 0.5706 0.5748
11896.0 2.60366 0.533(32) 969. 0.5706 0.5758
11901.9 2.60496 0.585(34) 883. 0.5706 0.5772
11907.9 2.60626 0.583(34) 883. 0.5706 0.5795
11913.8 2.60757 0.538(32) 954. 0.5706 0.5831
11919.8 2.60888 0.572(33) 897. 0.5707 0.5883
11925.8 2.61018 0.603(34) 849. 0.5707 0.5959
11931.7 2.61149 0.615(35) 831. 0.5707 0.6064
11937.7 2.61279 0.582(34) 876. 0.5707 0.6202
11943.7 2.61410 0.590(34) 861. 0.5707 0.6372
11949.6 2.61541 0.66(4) 769. 0.571 0.657
11955.6 2.61672 0.71(4) 712. 0.571 0.679
11961.6 2.61803 0.71(4) 716. 0.571 0.700
11967.6 2.61934 0.71(4) 705. 0.571 0.720
11973.6 2.62065 0.74(4) 678. 0.571 0.735
11979.5 2.62196 0.79(4) 637. 0.571 0.743
11985.5 2.62328 0.78(4) 639. 0.571 0.744
11991.5 2.62459 0.78(4) 639. 0.571 0.737
11997.5 2.62590 0.71(4) 698. 0.571 0.725
12003.5 2.62721 0.69(4) 721. 0.571 0.709
12009.5 2.62853 0.67(4) 744. 0.571 0.690
12015.5 2.62985 0.66(4) 750. 0.571 0.672
12021.5 2.63116 0.65(4) 760. 0.571 0.654
12027.5 2.63248 0.62(4) 799. 0.571 0.638
12033.6 2.63380 0.589(35) 836. 0.5707 0.6240
12039.6 2.63511 0.580(34) 846. 0.5707 0.6126
12045.6 2.63643 0.597(35) 822. 0.5707 0.6034
12051.6 2.63776 0.60(4) 809. 0.571 0.596
12057.6 2.63907 0.64(4) 763. 0.571 0.591
12063.7 2.64039 0.61(4) 792. 0.571 0.586
12069.7 2.64171 0.593(35) 819. 0.5708 0.5831
12075.7 2.64303 0.569(34) 853. 0.5708 0.5806
12081.8 2.64436 0.581(35) 833. 0.5708 0.5787
12087.8 2.64568 0.580(35) 832. 0.5708 0.5773
12093.8 2.64701 0.554(34) 869. 0.5708 0.5761
12099.9 2.64833 0.62(4) 777. 0.571 0.575
12105.9 2.64965 0.587(35) 817. 0.5708 0.5746
12112.0 2.65098 0.59(4) 805. 0.571 0.574
12118.1 2.65231 0.59(4) 811. 0.571 0.574
12124.1 2.65364 0.578(35) 824. 0.5708 0.5733
12130.2 2.65497 0.568(35) 836. 0.5708 0.5730
12136.3 2.65630 0.553(34) 858. 0.5708 0.5728
12142.3 2.65762 0.572(35) 827. 0.5708 0.5726
12148.4 2.65895 0.552(34) 855. 0.5708 0.5724
12154.5 2.66029 0.572(35) 823. 0.5708 0.5723
12160.5 2.66162 0.58(4) 812. 0.571 0.572
12166.6 2.66295 0.554(34) 847. 0.5708 0.5721
12172.7 2.66428 0.545(34) 858. 0.5708 0.5720
12178.8 2.66561 0.531(34) 879. 0.5708 0.5719
12184.9 2.66695 0.57(4) 812. 0.571 0.572
12191.0 2.66828 0.59(4) 787. 0.571 0.572
12197.1 2.66962 0.59(4) 789. 0.571 0.572
12203.2 2.67095 0.556(35) 832. 0.5709 0.5717
12209.3 2.67229 0.551(35) 837. 0.5709 0.5717
12215.4 2.67363 0.562(35) 819. 0.5709 0.5716
12221.5 2.67497 0.61(4) 758. 0.571 0.572
12227.6 2.67631 0.58(4) 795. 0.571 0.572
12233.7 2.67764 0.529(34) 865. 0.5709 0.5715
12239.8 2.67898 0.510(33) 895. 0.5709 0.5715
12245.9 2.68033 0.540(34) 843. 0.5709 0.5715
12252.1 2.68167 0.498(33) 911. 0.5709 0.5715
12258.2 2.68301 0.497(33) 911. 0.5709 0.5714
12264.3 2.68435 0.549(35) 823. 0.5709 0.5714
12270.4 2.68569 0.59(4) 760. 0.571 0.571
12276.6 2.68704 0.58(4) 777. 0.571 0.571
12282.7 2.68838 0.59(4) 766. 0.571 0.571
12288.9 2.68973 0.60(4) 744. 0.571 0.571
12295.0 2.69108 0.58(4) 775. 0.571 0.571
12301.2 2.69242 0.527(34) 846. 0.5709 0.5714
12307.3 2.69377 0.59(4) 759. 0.571 0.571
12313.5 2.69512 0.61(4) 729. 0.571 0.571
12319.6 2.69647 0.58(4) 758. 0.571 0.571
12325.8 2.69782 0.538(35) 821. 0.5709 0.5713
12331.9 2.69917 0.58(4) 763. 0.571 0.571
12338.1 2.70052 0.59(4) 751. 0.571 0.571
12344.3 2.70187 0.54(4) 812. 0.571 0.571
12350.4 2.70322 0.54(4) 806. 0.571 0.571
12356.6 2.70458 0.59(4) 744. 0.571 0.571
12362.8 2.70593 0.60(4) 722. 0.571 0.571
12369.0 2.70728 0.58(4) 744. 0.571 0.571
12375.2 2.70864 0.57(4) 758. 0.571 0.571
12381.3 2.70999 0.55(4) 791. 0.571 0.571
12387.5 2.71135 0.54(4) 805. 0.571 0.571
12393.8 2.71271 0.58(4) 738. 0.571 0.571
12399.9 2.71407 0.56(4) 761. 0.571 0.571
12406.1 2.71542 0.55(4) 780. 0.571 0.571
12412.3 2.71678 0.60(4) 709. 0.571 0.571
12418.5 2.71814 0.56(4) 758. 0.571 0.571
12424.8 2.71950 0.61(4) 702. 0.571 0.571
12431.0 2.72087 0.56(4) 755. 0.571 0.571
12437.2 2.72223 0.58(4) 727. 0.571 0.571
12443.4 2.72359 0.60(4) 709. 0.571 0.571
12449.6 2.72495 0.57(4) 740. 0.571 0.571
12455.8 2.72632 0.54(4) 783. 0.571 0.571
12462.1 2.72768 0.54(4) 783. 0.571 0.571
12468.3 2.72905 0.54(4) 783. 0.571 0.571
12474.5 2.73041 0.55(4) 766. 0.571 0.571
12480.8 2.73178 0.54(4) 768. 0.571 0.571
12487.0 2.73315 0.59(4) 707. 0.571 0.571
12493.3 2.73451 0.58(4) 719. 0.571 0.571
12499.5 2.73588 0.58(4) 713. 0.571 0.571
12505.8 2.73725 0.57(4) 730. 0.571 0.571
12512.0 2.73862 0.497(35) 828. 0.5711 0.5715
12518.3 2.73999 0.54(4) 756. 0.571 0.572
12524.5 2.74136 0.54(4) 759. 0.571 0.572
12530.8 2.74273 0.53(4) 773. 0.571 0.572
12537.1 2.74411 0.55(4) 747. 0.571 0.572
12543.3 2.74548 0.54(4) 752. 0.571 0.572
12549.6 2.74686 0.59(4) 687. 0.571 0.572
12555.9 2.74823 0.58(4) 699. 0.571 0.573
12562.2 2.74961 0.55(4) 731. 0.571 0.574
12568.4 2.75098 0.59(4) 687. 0.571 0.575
12574.7 2.75236 0.63(4) 637. 0.571 0.577
12581.0 2.75374 0.60(4) 667. 0.571 0.579
12587.3 2.75511 0.58(4) 691. 0.571 0.582
12593.6 2.75650 0.62(4) 649. 0.571 0.585
12599.9 2.75787 0.59(4) 679. 0.571 0.588
12606.2 2.75925 0.60(4) 667. 0.571 0.592
12612.5 2.76063 0.64(4) 622. 0.571 0.596
12618.8 2.76201 0.60(4) 662. 0.571 0.598
12625.1 2.76340 0.60(4) 663. 0.571 0.600
12631.4 2.76478 0.62(4) 640. 0.571 0.600
12637.7 2.76616 0.62(4) 632. 0.571 0.600
12644.0 2.76755 0.58(4) 680. 0.571 0.598
12650.4 2.76894 0.63(4) 622. 0.571 0.595
12656.7 2.77032 0.63(4) 620. 0.571 0.592
12663.0 2.77171 0.59(4) 661. 0.571 0.589
12669.3 2.77309 0.60(4) 645. 0.571 0.586
12675.7 2.77448 0.57(4) 680. 0.571 0.583
12682.0 2.77587 0.57(4) 684. 0.571 0.580
12688.4 2.77726 0.60(4) 641. 0.571 0.578
12694.7 2.77865 0.58(4) 661. 0.571 0.577
12701.1 2.78004 0.55(4) 703. 0.571 0.576
12707.4 2.78143 0.57(4) 680. 0.571 0.575
12713.8 2.78282 0.61(4) 625. 0.571 0.574
12720.1 2.78422 0.62(4) 616. 0.571 0.573
12726.5 2.78561 0.60(4) 633. 0.571 0.573
12732.8 2.78700 0.58(4) 663. 0.571 0.573
12739.2 2.78840 0.60(4) 630. 0.571 0.572
12745.6 2.78979 0.62(4) 615. 0.571 0.572
12751.9 2.79119 0.60(4) 628. 0.571 0.572
12758.3 2.79259 0.58(4) 649. 0.571 0.572
12764.7 2.79399 0.59(4) 635. 0.571 0.572
12771.1 2.79539 0.56(4) 669. 0.571 0.572
12777.5 2.79678 0.58(4) 644. 0.571 0.572
12783.9 2.79819 0.59(4) 634. 0.571 0.572
12790.3 2.79958 0.63(4) 599. 0.571 0.572
12796.7 2.80099 0.62(4) 606. 0.571 0.572
12803.0 2.80238 0.63(4) 595. 0.571 0.572
12809.4 2.80379 0.61(4) 611. 0.571 0.572
12815.8 2.80519 0.60(4) 621. 0.571 0.571
12822.3 2.80659 0.56(4) 658. 0.571 0.571
12828.7 2.80800 0.56(4) 667. 0.571 0.571
12835.1 2.80941 0.57(4) 645. 0.571 0.571
12841.5 2.81081 0.56(4) 663. 0.571 0.571
12847.9 2.81222 0.56(4) 658. 0.571 0.571
12854.3 2.81363 0.60(4) 616. 0.571 0.572
12860.8 2.81504 0.58(4) 633. 0.571 0.572
12867.2 2.81645 0.61(4) 603. 0.571 0.572
12873.6 2.81785 0.60(4) 608. 0.571 0.572
12880.1 2.81926 0.60(4) 607. 0.571 0.572
12886.5 2.82068 0.56(4) 646. 0.571 0.572
12893.0 2.82209 0.59(4) 620. 0.571 0.572
12899.4 2.82350 0.58(4) 631. 0.571 0.572
12905.8 2.82491 0.52(4) 694. 0.571 0.572
12912.3 2.82633 0.49(4) 732. 0.571 0.572
12918.8 2.82774 0.56(4) 642. 0.571 0.572
12925.2 2.82916 0.60(4) 604. 0.571 0.572
12931.7 2.83057 0.62(4) 577. 0.571 0.572
12938.2 2.83199 0.60(4) 603. 0.571 0.572
12944.6 2.83341 0.52(4) 690. 0.571 0.572
12951.1 2.83482 0.54(4) 661. 0.571 0.572
12957.6 2.83624 0.57(4) 622. 0.571 0.572
12964.1 2.83767 0.56(4) 640. 0.571 0.572
12970.5 2.83908 0.53(4) 678. 0.571 0.572
12977.0 2.84050 0.58(4) 611. 0.571 0.572
12983.5 2.84193 0.59(4) 598. 0.571 0.572
12990.0 2.84335 0.57(4) 619. 0.571 0.572
12996.5 2.84477 0.56(4) 630. 0.571 0.572
13003.0 2.84620 0.59(4) 599. 0.571 0.572
13009.5 2.84762 0.63(4) 563. 0.571 0.572
13016.0 2.84905 0.64(4) 551. 0.571 0.572
13022.5 2.85047 0.65(4) 538. 0.571 0.572
13029.0 2.85189 0.57(4) 614. 0.571 0.572
13035.5 2.85333 0.52(4) 667. 0.571 0.572
13042.0 2.85475 0.51(4) 689. 0.571 0.572
13048.6 2.85618 0.60(4) 585. 0.571 0.572
13055.1 2.85761 0.62(4) 562. 0.571 0.572
13061.6 2.85904 0.64(4) 543. 0.571 0.572
13068.2 2.86047 0.58(4) 603. 0.571 0.572
13074.7 2.86191 0.54(4) 639. 0.571 0.572
13081.2 2.86334 0.60(4) 582. 0.571 0.572
13087.8 2.86477 0.58(4) 599. 0.571 0.572
13094.3 2.86621 0.53(4) 652. 0.571 0.572
13100.8 2.86764 0.56(4) 612. 0.571 0.572
13107.4 2.86907 0.59(4) 586. 0.572 0.572
13114.0 2.87051 0.62(4) 552. 0.572 0.572
13120.5 2.87194 0.62(4) 556. 0.572 0.572
13127.1 2.87338 0.60(4) 567. 0.572 0.572
13133.6 2.87482 0.57(4) 601. 0.572 0.573
13140.2 2.87626 0.55(4) 616. 0.572 0.573
13146.8 2.87770 0.56(4) 615. 0.572 0.573
13153.3 2.87914 0.55(4) 622. 0.572 0.573
13159.9 2.88058 0.60(4) 569. 0.572 0.573
13166.5 2.88202 0.59(4) 581. 0.572 0.573
13173.1 2.88347 0.58(4) 587. 0.572 0.573
13179.7 2.88491 0.56(4) 602. 0.572 0.573
13186.3 2.88635 0.59(4) 576. 0.572 0.573
13192.8 2.88779 0.55(4) 612. 0.572 0.573
13199.5 2.88925 0.55(4) 611. 0.572 0.573
13206.1 2.89069 0.57(4) 595. 0.572 0.573
13212.7 2.89214 0.61(4) 549. 0.572 0.574
13219.3 2.89358 0.62(4) 541. 0.572 0.574
13225.9 2.89503 0.60(4) 559. 0.572 0.574
13232.5 2.89648 0.59(4) 565. 0.572 0.574
13239.1 2.89793 0.63(4) 534. 0.572 0.574
13245.7 2.89938 0.59(4) 568. 0.572 0.574
13252.3 2.90083 0.54(4) 616. 0.572 0.575
13259.0 2.90228 0.53(4) 625. 0.572 0.575
13265.6 2.90374 0.55(4) 601. 0.572 0.575
13272.2 2.90519 0.60(4) 550. 0.572 0.576
13278.9 2.90665 0.58(4) 572. 0.572 0.576
13285.5 2.90810 0.59(4) 560. 0.572 0.577
13292.2 2.90956 0.62(4) 533. 0.572 0.578
13298.8 2.91101 0.64(4) 514. 0.572 0.580
13305.4 2.91247 0.61(4) 542. 0.572 0.582
13312.1 2.91392 0.58(4) 563. 0.572 0.586
13318.8 2.91538 0.56(4) 582. 0.572 0.592
13325.4 2.91684 0.56(4) 591. 0.572 0.600
13332.1 2.91830 0.55(4) 601. 0.572 0.613
13338.8 2.91977 0.56(4) 589. 0.572 0.629
13345.4 2.92122 0.60(4) 548. 0.572 0.651
13352.1 2.92269 0.68(5) 480. 0.572 0.677
13358.8 2.92415 0.69(5) 472. 0.572 0.707
13365.4 2.92561 0.71(5) 459. 0.572 0.739
13372.1 2.92708 0.77(5) 420. 0.572 0.771
13378.8 2.92854 0.77(5) 422. 0.572 0.800
13385.5 2.93001 0.76(5) 429. 0.572 0.821
13392.2 2.93147 0.79(5) 412. 0.572 0.832
13398.9 2.93294 0.76(5) 426. 0.572 0.832
13405.6 2.93441 0.74(5) 438. 0.572 0.821
13412.3 2.93588 0.73(5) 442. 0.572 0.801
13419.0 2.93735 0.72(5) 447. 0.572 0.775
13425.7 2.93882 0.75(5) 430. 0.572 0.747
13432.4 2.94029 0.72(5) 448. 0.572 0.718
13439.1 2.94176 0.65(5) 492. 0.572 0.691
13445.8 2.94323 0.68(5) 468. 0.572 0.667
13452.6 2.94470 0.67(5) 477. 0.572 0.646
13459.3 2.94618 0.57(4) 556. 0.572 0.629
13466.0 2.94766 0.60(4) 529. 0.572 0.616
13472.8 2.94913 0.62(4) 509. 0.572 0.606
13479.5 2.95061 0.67(5) 474. 0.572 0.598
13486.3 2.95209 0.63(4) 506. 0.572 0.592
13493.0 2.95356 0.59(4) 534. 0.572 0.588
13499.7 2.95504 0.61(4) 521. 0.572 0.584
13506.5 2.95652 0.58(4) 546. 0.572 0.582
13513.3 2.95800 0.59(4) 532. 0.572 0.580
13520.0 2.95948 0.57(4) 550. 0.572 0.579
13526.8 2.96096 0.55(4) 565. 0.572 0.578
13533.5 2.96245 0.53(4) 592. 0.572 0.577
13540.3 2.96393 0.54(4) 579. 0.572 0.576
13547.1 2.96541 0.55(4) 572. 0.572 0.576
13553.8 2.96689 0.56(4) 561. 0.572 0.575
13560.6 2.96838 0.57(4) 544. 0.572 0.575
13567.4 2.96986 0.59(4) 529. 0.572 0.575
13574.2 2.97135 0.57(4) 540. 0.572 0.574
13581.0 2.97284 0.53(4) 582. 0.572 0.574
13587.8 2.97433 0.55(4) 564. 0.572 0.574
13594.5 2.97581 0.55(4) 563. 0.572 0.574
13601.3 2.97731 0.57(4) 539. 0.572 0.574
13608.1 2.97879 0.57(4) 541. 0.572 0.574
13614.9 2.98028 0.58(4) 529. 0.572 0.574
13621.8 2.98178 0.59(4) 521. 0.572 0.573
13628.6 2.98327 0.55(4) 559. 0.572 0.573
13635.4 2.98476 0.55(4) 559. 0.572 0.573
13642.2 2.98626 0.56(4) 550. 0.572 0.573
13649.0 2.98775 0.59(4) 518. 0.572 0.573
13655.8 2.98925 0.57(4) 534. 0.572 0.573
13662.7 2.99074 0.59(4) 512. 0.572 0.573
13669.5 2.99224 0.60(4) 509. 0.572 0.573
13676.3 2.99374 0.59(4) 516. 0.572 0.573
13683.2 2.99523 0.60(4) 502. 0.572 0.573
13690.0 2.99673 0.60(4) 504. 0.572 0.573
13696.8 2.99823 0.56(4) 538. 0.572 0.573
13703.7 2.99974 0.64(5) 473. 0.572 0.573
13710.6 3.00124 0.62(5) 484. 0.572 0.573
13717.4 3.00274 0.53(4) 565. 0.572 0.573
13724.3 3.00424 0.53(4) 562. 0.572 0.573
13731.1 3.00574 0.56(4) 534. 0.572 0.573
13738.0 3.00725 0.58(4) 513. 0.572 0.573
13744.9 3.00876 0.57(4) 521. 0.572 0.573
13751.8 3.01026 0.59(4) 507. 0.572 0.573
13758.6 3.01177 0.55(4) 536. 0.572 0.573
13765.5 3.01328 0.59(4) 503. 0.572 0.573
13772.4 3.01478 0.60(4) 495. 0.572 0.573
13779.3 3.01629 0.56(4) 523. 0.572 0.573
13786.2 3.01780 0.54(4) 543. 0.572 0.573
13793.0 3.01931 0.58(4) 506. 0.572 0.573
13799.9 3.02082 0.60(5) 491. 0.572 0.573
13806.8 3.02234 0.63(5) 469. 0.572 0.573
13813.8 3.02385 0.60(5) 485. 0.572 0.573
13820.7 3.02536 0.58(4) 502. 0.572 0.573
13827.6 3.02688 0.59(5) 493. 0.572 0.573
13834.5 3.02839 0.60(5) 482. 0.572 0.573
13841.4 3.02991 0.61(5) 479. 0.572 0.573
13848.3 3.03142 0.54(4) 541. 0.572 0.573
13855.3 3.03294 0.56(4) 517. 0.572 0.573
13862.2 3.03446 0.59(5) 491. 0.572 0.573
13869.1 3.03598 0.58(5) 494. 0.572 0.573
13876.0 3.03750 0.53(4) 539. 0.572 0.573
13883.0 3.03902 0.55(4) 520. 0.572 0.573
13889.9 3.04054 0.57(4) 502. 0.572 0.573
13896.8 3.04206 0.59(5) 489. 0.573 0.573
13903.8 3.04359 0.55(4) 523. 0.573 0.573
13910.8 3.04511 0.54(4) 528. 0.573 0.573
13917.7 3.04663 0.55(4) 519. 0.573 0.573
13924.7 3.04815 0.56(4) 505. 0.573 0.573
13931.6 3.04968 0.60(5) 476. 0.573 0.573
13938.6 3.05121 0.58(5) 491. 0.573 0.573
13945.6 3.05274 0.64(5) 441. 0.573 0.573
13952.5 3.05426 0.61(5) 466. 0.573 0.573
13959.5 3.05580 0.59(5) 481. 0.573 0.573
13966.5 3.05732 0.60(5) 470. 0.573 0.573
13973.5 3.05885 0.60(5) 472. 0.573 0.573
13980.5 3.06038 0.58(5) 480. 0.573 0.573
13987.5 3.06192 0.54(4) 513. 0.573 0.573
13994.4 3.06345 0.61(5) 456. 0.573 0.573
14001.4 3.06498 0.69(5) 404. 0.573 0.573
14008.4 3.06651 0.59(5) 473. 0.573 0.573
14015.4 3.06805 0.56(4) 496. 0.573 0.573
14022.5 3.06959 0.63(5) 439. 0.573 0.573
14029.5 3.07112 0.59(5) 472. 0.573 0.573
14036.5 3.07266 0.58(5) 478. 0.573 0.573
14043.5 3.07420 0.60(5) 459. 0.573 0.573
14050.5 3.07574 0.61(5) 453. 0.573 0.573
14057.6 3.07728 0.58(5) 474. 0.573 0.573
14064.6 3.07882 0.53(4) 520. 0.573 0.573
14071.6 3.08036 0.52(4) 528. 0.573 0.573
14078.7 3.08190 0.51(4) 538. 0.573 0.573
14085.7 3.08344 0.53(4) 514. 0.573 0.573
14092.7 3.08498 0.54(4) 501. 0.573 0.573
14099.8 3.08653 0.55(5) 492. 0.573 0.573
14106.8 3.08807 0.56(5) 488. 0.573 0.573
14113.9 3.08962 0.57(5) 471. 0.573 0.573
14120.9 3.09117 0.59(5) 457. 0.573 0.573
14128.0 3.09271 0.59(5) 456. 0.573 0.573
14135.1 3.09426 0.58(5) 466. 0.573 0.573
14142.1 3.09581 0.58(5) 461. 0.573 0.573
14149.2 3.09736 0.64(5) 421. 0.573 0.573
14156.3 3.09891 0.59(5) 454. 0.573 0.573
14163.3 3.10046 0.57(5) 471. 0.573 0.573
14170.4 3.10201 0.62(5) 432. 0.573 0.573
14177.5 3.10357 0.58(5) 462. 0.573 0.573
14184.6 3.10512 0.54(5) 489. 0.573 0.573
14191.7 3.10667 0.60(5) 438. 0.573 0.573
14198.8 3.10823 0.65(5) 408. 0.573 0.573
14205.9 3.10979 0.62(5) 427. 0.573 0.573
14213.0 3.11134 0.60(5) 435. 0.573 0.573
14220.1 3.11290 0.59(5) 448. 0.573 0.573
14227.2 3.11446 0.63(5) 418. 0.573 0.573
14234.3 3.11602 0.59(5) 447. 0.573 0.573
14241.4 3.11757 0.53(4) 496. 0.573 0.573
14248.6 3.11914 0.60(5) 435. 0.573 0.573
14255.7 3.12070 0.51(4) 514. 0.573 0.573
14262.8 3.12226 0.51(4) 504. 0.573 0.573
14269.9 3.12382 0.52(4) 498. 0.573 0.573
14277.1 3.12539 0.56(5) 460. 0.573 0.573
14284.2 3.12695 0.54(5) 481. 0.573 0.573
14291.4 3.12852 0.56(5) 456. 0.573 0.573
14298.5 3.13008 0.59(5) 438. 0.573 0.573
14305.7 3.13165 0.59(5) 432. 0.573 0.573
14312.8 3.13322 0.54(5) 472. 0.573 0.573
14320.0 3.13478 0.56(5) 454. 0.573 0.573
14327.1 3.13635 0.59(5) 431. 0.573 0.573
14334.3 3.13792 0.59(5) 430. 0.573 0.573
14341.5 3.13950 0.59(5) 433. 0.573 0.573
14348.6 3.14106 0.61(5) 418. 0.573 0.573
14355.8 3.14264 0.58(5) 438. 0.574 0.574
14363.0 3.14421 0.49(4) 516. 0.574 0.574
14370.2 3.14578 0.57(5) 444. 0.574 0.574
14377.3 3.14736 0.62(5) 407. 0.574 0.574
14384.5 3.14893 0.52(5) 487. 0.574 0.574
14391.7 3.15051 0.51(5) 491. 0.574 0.574
14398.9 3.15209 0.58(5) 433. 0.574 0.574
14406.1 3.15366 0.55(5) 455. 0.574 0.574
14413.3 3.15525 0.55(5) 451. 0.574 0.574
14420.5 3.15682 0.61(5) 410. 0.574 0.574
14427.8 3.15840 0.63(5) 396. 0.574 0.574
14435.0 3.15999 0.60(5) 416. 0.574 0.574
14442.2 3.16157 0.61(5) 406. 0.574 0.574
14449.4 3.16315 0.62(5) 395. 0.574 0.574
14456.6 3.16473 0.60(5) 407. 0.574 0.574
14463.8 3.16631 0.57(5) 432. 0.574 0.574
14471.1 3.16790 0.55(5) 448. 0.574 0.574
14478.3 3.16948 0.56(5) 434. 0.574 0.574
14485.6 3.17107 0.58(5) 418. 0.574 0.574
14492.8 3.17266 0.60(5) 410. 0.574 0.574
14500.1 3.17425 0.59(5) 410. 0.574 0.574
14507.3 3.17584 0.56(5) 433. 0.574 0.574
14514.6 3.17743 0.57(5) 422. 0.574 0.574
14521.8 3.17902 0.61(5) 398. 0.574 0.574
14529.1 3.18061 0.60(5) 404. 0.574 0.574
14536.3 3.18220 0.56(5) 432. 0.574 0.574
14543.6 3.18379 0.60(5) 403. 0.574 0.574
14550.9 3.18539 0.57(5) 424. 0.574 0.574
14558.2 3.18698 0.53(5) 449. 0.574 0.574
14565.4 3.18858 0.55(5) 437. 0.574 0.574
14572.7 3.19017 0.60(5) 396. 0.574 0.574
14580.0 3.19177 0.64(5) 372. 0.574 0.574
14587.3 3.19337 0.65(5) 363. 0.574 0.574
14594.6 3.19497 0.64(5) 369. 0.574 0.574
14601.9 3.19656 0.64(5) 370. 0.574 0.574
14609.2 3.19817 0.62(5) 383. 0.574 0.574
14616.5 3.19977 0.62(5) 380. 0.574 0.574
14623.8 3.20136 0.57(5) 413. 0.574 0.574
14631.1 3.20297 0.59(5) 399. 0.574 0.574
14638.4 3.20457 0.57(5) 408. 0.574 0.574
14645.8 3.20618 0.57(5) 413. 0.574 0.574
14653.1 3.20778 0.55(5) 422. 0.574 0.574
14660.4 3.20938 0.55(5) 423. 0.574 0.574
14667.7 3.21099 0.59(5) 393. 0.574 0.574
14675.1 3.21260 0.62(5) 373. 0.574 0.574
14682.4 3.21421 0.62(5) 376. 0.575 0.575
14689.7 3.21582 0.58(5) 401. 0.575 0.575
14697.1 3.21742 0.56(5) 409. 0.575 0.575
14704.4 3.21904 0.58(5) 398. 0.575 0.575
14711.8 3.22065 0.66(5) 348.6 0.575 0.575
14719.1 3.22226 0.63(5) 366. 0.575 0.575
14726.5 3.22388 0.59(5) 390. 0.575 0.575
14733.8 3.22549 0.63(5) 365. 0.575 0.575
14741.2 3.22710 0.61(5) 372. 0.575 0.575
14748.6 3.22872 0.59(5) 388. 0.575 0.575
14756.0 3.23033 0.54(5) 423. 0.575 0.575
14763.3 3.23195 0.58(5) 394. 0.575 0.575
14770.7 3.23357 0.57(5) 395. 0.575 0.575
14778.1 3.23519 0.52(5) 437. 0.575 0.575
14785.5 3.23681 0.53(5) 423. 0.575 0.575
14792.9 3.23843 0.59(5) 384. 0.575 0.575
14800.3 3.24005 0.63(5) 355. 0.575 0.575
14807.7 3.24167 0.64(5) 350.3 0.575 0.575
14815.1 3.24329 0.59(5) 378. 0.575 0.577
14822.5 3.24492 0.58(5) 382. 0.575 0.577
14829.9 3.24654 0.59(5) 379. 0.575 0.577
14837.3 3.24817 0.52(5) 429. 0.575 0.577
14844.8 3.24979 0.52(5) 428. 0.575 0.577
14852.2 3.25142 0.52(5) 426. 0.575 0.577
14859.6 3.25305 0.56(5) 394. 0.575 0.577
14867.0 3.25468 0.59(5) 372. 0.575 0.577
14874.5 3.25631 0.57(5) 390. 0.575 0.577
14881.9 3.25794 0.56(5) 393. 0.575 0.577
14889.3 3.25957 0.56(5) 392. 0.575 0.577
14896.8 3.26120 0.59(5) 371. 0.575 0.577
14904.2 3.26283 0.61(5) 361. 0.575 0.577
14911.7 3.26446 0.59(5) 373. 0.575 0.578
14919.1 3.26609 0.57(5) 386. 0.575 0.578
14926.6 3.26773 0.55(5) 396. 0.575 0.578
14934.1 3.26937 0.59(5) 366. 0.575 0.578
14941.5 3.27100 0.61(5) 354. 0.576 0.578
14949.0 3.27264 0.61(5) 357. 0.576 0.578
14956.5 3.27428 0.56(5) 386. 0.576 0.578
14963.9 3.27591 0.56(5) 385. 0.576 0.578
14971.4 3.27756 0.57(5) 381. 0.576 0.578
14978.9 3.27919 0.65(6) 329.5 0.576 0.578
14986.4 3.28084 0.67(6) 321.3 0.576 0.579
14993.9 3.28248 0.60(5) 360. 0.576 0.579
15001.4 3.28413 0.62(5) 347.4 0.576 0.579
15008.9 3.28577 0.58(5) 368. 0.576 0.579
15016.4 3.28741 0.57(5) 376. 0.576 0.579
15023.9 3.28906 0.63(5) 335.8 0.576 0.579
15031.4 3.29071 0.57(5) 372. 0.576 0.579
15038.9 3.29235 0.60(5) 356. 0.576 0.580
15046.5 3.29400 0.63(5) 337.9 0.576 0.580
15054.0 3.29565 0.62(5) 341.9 0.576 0.580
15061.5 3.29730 0.60(5) 350.5 0.576 0.580
15069.0 3.29895 0.61(5) 348.4 0.576 0.580
15076.6 3.30060 0.57(5) 372. 0.576 0.580
15084.1 3.30226 0.55(5) 385. 0.576 0.581
15091.7 3.30391 0.56(5) 373. 0.576 0.581
15099.2 3.30556 0.57(5) 368. 0.576 0.581
15106.8 3.30721 0.53(5) 392. 0.576 0.581
15114.3 3.30887 0.51(5) 408. 0.576 0.582
15121.9 3.31053 0.56(5) 371. 0.576 0.582
15129.4 3.31219 0.60(5) 347.8 0.576 0.582
15137.0 3.31384 0.66(6) 316.5 0.576 0.582
15144.6 3.31550 0.60(5) 345.8 0.576 0.583
15152.1 3.31716 0.58(5) 357. 0.576 0.583
15159.7 3.31882 0.65(6) 318.1 0.577 0.583
15167.3 3.32048 0.62(5) 333.1 0.577 0.584
15174.9 3.32215 0.60(5) 341.4 0.577 0.584
15182.5 3.32381 0.61(5) 337.7 0.577 0.585
15190.0 3.32547 0.58(5) 354. 0.577 0.585
15197.7 3.32714 0.58(5) 355. 0.577 0.586
15205.3 3.32880 0.63(6) 323.8 0.577 0.586
15212.8 3.33047 0.60(5) 338.6 0.577 0.587
15220.4 3.33213 0.57(5) 357. 0.577 0.587
15228.1 3.33380 0.67(6) 304.5 0.577 0.588
15235.7 3.33547 0.58(5) 351. 0.577 0.589
15243.3 3.33714 0.55(5) 369. 0.577 0.590
15250.9 3.33881 0.55(5) 370. 0.577 0.591
15258.5 3.34048 0.54(5) 373. 0.577 0.592
15266.2 3.34215 0.51(5) 397. 0.577 0.593
15273.8 3.34383 0.55(5) 369. 0.577 0.594
15281.4 3.34550 0.62(6) 323.5 0.577 0.596
15289.1 3.34718 0.69(6) 291.2 0.577 0.597
15296.7 3.34885 0.66(6) 303.1 0.577 0.599
15304.4 3.35053 0.54(5) 369. 0.577 0.601
15312.0 3.35221 0.57(5) 350.6 0.577 0.604
15319.7 3.35388 0.60(5) 335.2 0.577 0.607
15327.3 3.35556 0.70(6) 285.8 0.577 0.611
15335.0 3.35724 0.65(6) 307.1 0.577 0.616
15342.7 3.35892 0.57(5) 351. 0.577 0.623
15350.3 3.36060 0.59(5) 335.0 0.578 0.635
15358.0 3.36229 0.64(6) 309.6 0.578 0.652
15365.7 3.36397 0.72(6) 274.4 0.578 0.678
15373.4 3.36565 0.79(6) 251.8 0.578 0.718
15381.1 3.36734 0.80(6) 246.7 0.578 0.777
15388.8 3.36902 0.90(7) 218.6 0.578 0.860
15396.4 3.37071 0.99(7) 198.9 0.578 0.974
15404.2 3.37240 1.13(8) 174.1 0.578 1.121
15411.8 3.37408 1.38(8) 143.1 0.578 1.302
15419.6 3.37578 1.62(9) 121.8 0.578 1.513
15427.3 3.37747 1.69(9) 116.0 0.578 1.742
15435.0 3.37915 1.94(10) 100.9 0.578 1.973
15442.7 3.38084 2.23(11) 87.7 0.578 2.184
15450.4 3.38254 2.37(11) 82.5 0.578 2.352
15458.2 3.38423 2.61(12) 74.8 0.578 2.453
15465.9 3.38593 2.55(11) 76.5 0.578 2.475
15473.6 3.38762 2.33(11) 83.7 0.578 2.417
15481.3 3.38932 2.24(11) 86.9 0.578 2.290
15489.1 3.39102 2.05(10) 94.5 0.578 2.114
15496.8 3.39271 1.95(10) 99.1 0.578 1.909
15504.6 3.39441 1.79(10) 108.0 0.578 1.696
15512.3 3.39611 1.58(9) 122.4 0.578 1.490
15520.1 3.39781 1.32(8) 145.6 0.579 1.304
15527.8 3.39951 1.12(8) 171.9 0.579 1.144
15535.6 3.40121 1.00(7) 191.6 0.579 1.012
15543.4 3.40291 1.03(7) 185.4 0.579 0.907
15551.2 3.40462 0.96(7) 198.8 0.579 0.826
15558.9 3.40632 0.79(6) 241.6 0.579 0.765
15566.7 3.40803 0.72(6) 264.3 0.579 0.720
15574.5 3.40973 0.77(6) 245.8 0.579 0.687
15582.3 3.41144 0.77(6) 245.5 0.579 0.663
15590.1 3.41315 0.70(6) 270.4 0.579 0.646
15597.9 3.41486 0.61(6) 310.5 0.579 0.633
15605.7 3.41656 0.67(6) 283.0 0.579 0.624
15613.5 3.41828 0.68(6) 276.2 0.579 0.617
15621.3 3.41999 0.62(6) 301.4 0.579 0.612
15629.1 3.42170 0.59(6) 316.4 0.579 0.608
15636.9 3.42341 0.58(6) 324.6 0.579 0.604
15644.7 3.42513 0.61(6) 307.1 0.579 0.602
15652.5 3.42684 0.57(6) 326.2 0.579 0.600
15660.4 3.42856 0.59(6) 316.1 0.579 0.598
15668.2 3.43027 0.56(5) 331.5 0.579 0.596
15676.0 3.43199 0.55(5) 334.1 0.580 0.595
15683.9 3.43371 0.63(6) 294.8 0.580 0.594
15691.7 3.43543 0.63(6) 294.8 0.580 0.593
15699.6 3.43715 0.68(6) 271.8 0.580 0.592
15707.4 3.43887 0.66(6) 276.9 0.580 0.591
15715.3 3.44059 0.66(6) 278.2 0.580 0.591
15723.1 3.44231 0.58(6) 313.5 0.580 0.590
15731.0 3.44403 0.59(6) 308.0 0.580 0.589
15738.8 3.44576 0.59(6) 311.6 0.580 0.589
15746.7 3.44748 0.57(6) 320.6 0.580 0.589
15754.6 3.44921 0.65(6) 278.5 0.580 0.588
15762.5 3.45094 0.68(6) 265.7 0.580 0.588
15770.3 3.45266 0.63(6) 288.3 0.580 0.587
15778.2 3.45439 0.57(6) 318.8 0.580 0.587
15786.1 3.45612 0.49(5) 367. 0.580 0.587
15794.0 3.45785 0.54(5) 333.9 0.580 0.587
15801.9 3.45958 0.58(6) 310.9 0.580 0.586
15809.8 3.46131 0.58(6) 309.1 0.580 0.586
15817.7 3.46305 0.67(6) 265.9 0.581 0.586
15825.6 3.46478 0.65(6) 276.2 0.581 0.586
15833.5 3.46651 0.58(6) 306.8 0.581 0.586
15841.4 3.46824 0.58(6) 304.5 0.581 0.585
15849.4 3.46998 0.57(6) 308.7 0.581 0.585
15857.3 3.47172 0.56(6) 314.3 0.581 0.585
15865.2 3.47346 0.57(6) 309.6 0.581 0.585
15873.2 3.47520 0.65(6) 269.6 0.581 0.585
15881.1 3.47694 0.61(6) 288.3 0.581 0.585
15889.0 3.47868 0.53(6) 328.3 0.581 0.585
15897.0 3.48042 0.60(6) 289.6 0.581 0.585
15904.9 3.48216 0.61(6) 286.3 0.581 0.585
15912.9 3.48390 0.59(6) 296.1 0.581 0.585
15920.8 3.48565 0.62(6) 281.5 0.581 0.585
15928.8 3.48739 0.63(6) 275.5 0.581 0.585
15936.8 3.48914 0.55(6) 316.5 0.581 0.584
15944.7 3.49088 0.55(6) 314.8 0.582 0.584
15952.7 3.49263 0.63(6) 275.7 0.582 0.584
15960.7 3.49438 0.61(6) 282.9 0.582 0.584
15968.7 3.49613 0.55(6) 310.1 0.582 0.584
15976.7 3.49788 0.60(6) 285.4 0.582 0.584
15984.6 3.49963 0.63(6) 271.2 0.582 0.584
15992.6 3.50138 0.58(6) 292.6 0.582 0.584
16000.6 3.50314 0.58(6) 292.7 0.582 0.584
16008.6 3.50489 0.66(6) 258.9 0.582 0.584
16016.6 3.50664 0.65(6) 262.6 0.582 0.584
16024.6 3.5084 0.67(6) 253.7 0.582 0.584
16032.7 3.5102 0.68(6) 246.5 0.582 0.584
16040.7 3.5119 0.57(6) 295.2 0.582 0.584
16048.7 3.5137 0.53(6) 317.1 0.582 0.584
16056.7 3.5154 0.61(6) 275.4 0.582 0.584
16064.7 3.5172 0.55(6) 301.5 0.583 0.584
16072.8 3.5189 0.55(6) 302.3 0.583 0.584
16080.8 3.5207 0.57(6) 289.8 0.583 0.583
16088.8 3.5225 0.60(6) 278.2 0.583 0.583
16096.9 3.5242 0.52(6) 318.9 0.583 0.583
16104.9 3.5260 0.45(5) 366. 0.583 0.583
16113.0 3.5278 0.65(6) 253.8 0.583 0.583
16121.0 3.5295 0.67(6) 245.1 0.583 0.583
16129.1 3.5313 0.52(6) 316.6 0.583 0.583
16137.2 3.5331 0.51(6) 320.4 0.583 0.583
16145.3 3.5348 0.58(6) 280.3 0.583 0.583
16153.3 3.5366 0.53(6) 307.9 0.583 0.583
16161.4 3.5384 0.51(6) 320.4 0.583 0.583
16169.5 3.5401 0.54(6) 301.4 0.583 0.583
16177.6 3.5419 0.56(6) 287.2 0.584 0.584
16185.7 3.5437 0.59(6) 271.5 0.584 0.584
16193.7 3.5455 0.61(6) 263.5 0.584 0.584
16201.8 3.5472 0.61(6) 262.7 0.584 0.584
16209.9 3.5490 0.61(6) 263.4 0.584 0.584
16218.0 3.5508 0.55(6) 288.8 0.584 0.584
16226.2 3.5526 0.54(6) 294.7 0.584 0.587
16234.3 3.5543 0.59(6) 271.2 0.584 0.587
16242.4 3.5561 0.64(6) 250.1 0.584 0.587
16250.5 3.5579 0.57(6) 277.8 0.584 0.588
16258.6 3.5597 0.61(6) 258.0 0.584 0.588
16266.8 3.5615 0.60(6) 263.0 0.584 0.588
16274.9 3.5633 0.55(6) 286.9 0.584 0.588
16283.0 3.5650 0.64(6) 245.4 0.584 0.588
16291.2 3.5668 0.64(6) 246.0 0.585 0.588
16299.3 3.5686 0.58(6) 269.0 0.585 0.589
16307.5 3.5704 0.52(6) 300.6 0.585 0.589
16315.6 3.5722 0.55(6) 282.3 0.585 0.589
16323.8 3.5740 0.55(6) 281.6 0.585 0.589
16331.9 3.5758 0.55(6) 280.1 0.585 0.589
16340.1 3.5775 0.57(6) 272.6 0.585 0.590
16348.3 3.5793 0.59(6) 263.1 0.585 0.590
16356.4 3.5811 0.69(7) 224.4 0.585 0.590
16364.6 3.5829 0.69(7) 222.4 0.585 0.590
16372.8 3.5847 0.68(7) 224.9 0.585 0.590
16381.0 3.5865 0.64(6) 239.1 0.585 0.591
16389.2 3.5883 0.60(6) 255.0 0.586 0.591
16397.4 3.5901 0.63(6) 243.4 0.586 0.591
16405.6 3.5919 0.62(6) 245.5 0.586 0.591
16413.8 3.5937 0.65(7) 232.2 0.586 0.592
16422.0 3.5955 0.59(6) 256.3 0.586 0.592
16430.2 3.5973 0.64(7) 234.8 0.586 0.592
16438.4 3.5991 0.64(7) 236.4 0.586 0.592
16446.6 3.6009 0.57(6) 264.1 0.586 0.593
16454.8 3.6027 0.57(6) 264.4 0.586 0.593
16463.1 3.6045 0.64(7) 234.1 0.586 0.593
16471.3 3.6063 0.63(7) 235.2 0.586 0.594
16479.6 3.6081 0.58(6) 258.6 0.586 0.594
16487.8 3.6099 0.54(6) 272.8 0.587 0.594
16496.0 3.6117 0.54(6) 275.8 0.587 0.595
16504.3 3.6135 0.60(6) 245.4 0.587 0.595
16512.5 3.6153 0.57(6) 259.9 0.587 0.596
16520.8 3.6172 0.61(6) 241.7 0.587 0.596
16529.1 3.6190 0.63(7) 232.7 0.587 0.597
16537.3 3.6208 0.63(7) 232.8 0.587 0.597
16545.6 3.6226 0.60(6) 243.2 0.587 0.598
16553.8 3.6244 0.53(6) 272.9 0.587 0.598
16562.1 3.6262 0.59(6) 247.8 0.587 0.599
16570.4 3.6280 0.68(7) 214.3 0.587 0.599
16578.7 3.6299 0.60(6) 240.4 0.588 0.600
16587.0 3.6317 0.59(6) 245.8 0.588 0.601
16595.3 3.6335 0.57(6) 251.4 0.588 0.601
16603.6 3.6353 0.60(6) 241.1 0.588 0.602
16611.9 3.6371 0.63(7) 226.5 0.588 0.603
16620.2 3.6389 0.65(7) 220.2 0.588 0.604
16628.5 3.6408 0.61(7) 235.4 0.588 0.605
16636.8 3.6426 0.62(7) 229.4 0.588 0.606
16645.1 3.6444 0.56(6) 252.9 0.588 0.607
16653.4 3.6462 0.57(6) 248.4 0.588 0.608
16661.8 3.6481 0.63(7) 224.6 0.588 0.609
16670.1 3.6499 0.67(7) 211.7 0.589 0.610
16678.4 3.6517 0.58(6) 244.0 0.589 0.612
16686.8 3.6535 0.61(7) 230.3 0.589 0.614
16695.1 3.6554 0.62(7) 225.5 0.589 0.615
16703.5 3.6572 0.58(6) 241.6 0.589 0.617
16711.8 3.6590 0.60(7) 233.3 0.589 0.619
16720.2 3.6609 0.60(7) 231.2 0.589 0.622
16728.5 3.6627 0.60(7) 230.0 0.589 0.624
16736.9 3.6645 0.62(7) 225.0 0.589 0.627
16745.3 3.6664 0.59(7) 235.5 0.589 0.631
16753.7 3.6682 0.61(7) 224.7 0.590 0.635
16762.0 3.6700 0.63(7) 219.7 0.590 0.639
16770.4 3.6719 0.71(7) 195.3 0.590 0.644
16778.8 3.6737 0.73(7) 189.5 0.590 0.651
16787.2 3.6756 0.70(7) 196.1 0.590 0.659
16795.6 3.6774 0.71(7) 193.8 0.590 0.670
16804.0 3.6792 0.67(7) 203.5 0.590 0.686
16812.4 3.6811 0.70(7) 194.0 0.590 0.711
16820.8 3.6829 0.81(8) 168.6 0.590 0.748
16829.2 3.6848 0.84(8) 161.0 0.590 0.804
16837.6 3.6866 0.98(9) 138.1 0.591 0.889
16846.0 3.6885 1.06(9) 127.7 0.591 1.013
16854.4 3.6903 1.16(9) 116.5 0.591 1.186
16862.9 3.6922 1.44(10) 94.0 0.591 1.420
16871.3 3.6940 1.92(12) 70.2 0.591 1.721
16879.8 3.6959 2.35(13) 57.2 0.591 2.088
16888.2 3.6977 2.75(14) 48.9 0.591 2.512
16896.6 3.6995 3.08(15) 43.6 0.591 2.972
16905.1 3.7014 3.53(16) 37.9 0.591 3.437
16913.5 3.7033 4.29(18) 31.15 0.592 3.864
16922.0 3.7051 4.53(18) 29.45 0.592 4.204
16930.4 3.7070 4.37(18) 30.44 0.592 4.415
16938.9 3.7088 4.40(18) 30.13 0.592 4.468
16947.4 3.7107 4.42(18) 29.93 0.592 4.360
16955.8 3.7125 4.15(18) 31.83 0.592 4.112
16964.3 3.7144 3.77(17) 34.95 0.592 3.760
16972.8 3.7163 3.44(16) 38.2 0.592 3.345
16981.3 3.7181 3.10(15) 42.3 0.592 2.909
16989.8 3.7200 2.71(14) 48.2 0.593 2.484
16998.3 3.7218 2.49(14) 52.5 0.593 2.097
17006.8 3.7237 2.20(13) 59.2 0.593 1.762
17015.3 3.7256 1.84(12) 70.7 0.593 1.485
17023.8 3.7274 1.51(11) 85.7 0.593 1.264
17032.3 3.7293 1.29(10) 99.9 0.593 1.095
17040.8 3.7312 1.23(10) 105.1 0.593 0.967
17049.3 3.7330 1.00(9) 128.1 0.593 0.874
17057.9 3.7349 0.99(9) 129.6 0.593 0.807
17066.4 3.7368 0.96(9) 132.5 0.594 0.758
17074.9 3.7386 0.94(9) 135.0 0.594 0.724
17083.5 3.7405 0.95(9) 134.1 0.594 0.699
17092.0 3.7424 0.78(8) 161.9 0.594 0.681
17100.6 3.7443 0.75(8) 169.0 0.594 0.668
17109.1 3.7461 0.63(7) 201.4 0.594 0.658
17117.7 3.7480 0.55(7) 228.8 0.594 0.650
17126.2 3.7499 0.59(7) 213.1 0.594 0.644
17134.8 3.7518 0.68(7) 185.1 0.595 0.639
17143.3 3.7536 0.60(7) 206.9 0.595 0.635
17151.9 3.7555 0.65(7) 192.1 0.595 0.632
17160.5 3.7574 0.68(7) 182.2 0.595 0.629
17169.1 3.7593 0.68(7) 181.3 0.595 0.626
17177.7 3.7612 0.62(7) 198.2 0.595 0.624
17186.3 3.7630 0.66(7) 187.0 0.595 0.622
17194.8 3.7649 0.62(7) 197.5 0.595 0.621
17203.4 3.7668 0.60(7) 203.6 0.596 0.619
17212.0 3.7687 0.60(7) 203.1 0.596 0.618
17220.7 3.7706 0.66(7) 184.3 0.596 0.617
17229.3 3.7725 0.64(7) 189.5 0.596 0.615
17237.9 3.7744 0.63(7) 192.6 0.596 0.614
17246.5 3.7763 0.57(7) 211.8 0.596 0.614
17255.1 3.7781 0.62(7) 196.2 0.596 0.613
17263.8 3.7800 0.61(7) 198.6 0.596 0.612
17272.4 3.7819 0.57(7) 213.1 0.597 0.611
17281.0 3.7838 0.58(7) 207.2 0.597 0.611
17289.7 3.7857 0.62(7) 195.1 0.597 0.610
17298.3 3.7876 0.60(7) 199.0 0.597 0.610
17306.9 3.7895 0.67(7) 178.7 0.597 0.609
17315.6 3.7914 0.63(7) 189.7 0.597 0.609
17324.3 3.7933 0.65(7) 182.0 0.597 0.608
17332.9 3.7952 0.65(7) 182.8 0.597 0.608
17341.6 3.7971 0.62(7) 190.5 0.598 0.608
17350.3 3.7990 0.57(7) 207.3 0.598 0.607
17358.9 3.8009 0.59(7) 201.2 0.598 0.607
17367.6 3.8028 0.51(7) 230.7 0.598 0.607
17376.3 3.8047 0.53(7) 222.4 0.598 0.607
17385.0 3.8066 0.59(7) 197.9 0.598 0.607
17393.7 3.8085 0.50(7) 232.6 0.598 0.606
17402.4 3.8104 0.60(7) 195.3 0.599 0.606
17411.1 3.8123 0.56(7) 208.6 0.599 0.606
17419.8 3.8142 0.51(7) 227.7 0.599 0.606
17428.5 3.8162 0.56(7) 205.5 0.599 0.606
17437.2 3.8181 0.68(8) 170.4 0.599 0.606
17445.9 3.8200 0.60(7) 191.4 0.599 0.606
17454.7 3.8219 0.63(7) 180.9 0.599 0.606
17463.4 3.8238 0.62(7) 183.5 0.600 0.605
17472.1 3.8257 0.58(7) 198.1 0.600 0.605
17480.8 3.8276 0.60(7) 188.5 0.600 0.605
17489.6 3.8295 0.67(8) 171.0 0.600 0.605
17498.3 3.8315 0.71(8) 160.3 0.600 0.605
17507.1 3.8334 0.75(8) 151.9 0.600 0.605
17515.8 3.8353 0.68(8) 165.2 0.600 0.605
17524.6 3.8372 0.58(7) 194.2 0.601 0.605
17533.3 3.8391 0.56(7) 200.4 0.601 0.605
17542.1 3.8411 0.61(7) 184.3 0.601 0.605
17550.9 3.8430 0.57(7) 196.4 0.601 0.605
17559.7 3.8449 0.60(7) 186.9 0.601 0.605
17568.4 3.8468 0.64(8) 174.3 0.601 0.605
17577.2 3.8488 0.52(7) 213.7 0.601 0.605
17586.0 3.8507 0.62(7) 178.1 0.602 0.605
17594.8 3.8526 0.63(8) 176.4 0.602 0.605
17603.6 3.8545 0.63(8) 175.7 0.602 0.606
17612.4 3.8565 0.60(7) 183.6 0.602 0.602
17621.2 3.8584 0.59(7) 186.8 0.602 0.602
17630.0 3.8603 0.59(7) 184.5 0.602 0.602
17638.8 3.8623 0.63(8) 173.8 0.602 0.602
17647.7 3.8642 0.67(8) 163.0 0.603 0.603
17656.5 3.8661 0.62(8) 174.4 0.603 0.603
17665.3 3.8681 0.53(7) 202.8 0.603 0.603
17674.1 3.8700 0.58(7) 187.4 0.603 0.603
17683.0 3.8719 0.56(7) 191.5 0.603 0.603
17691.8 3.8739 0.61(8) 176.9 0.603 0.603
17700.7 3.8758 0.62(8) 173.2 0.604 0.604
17709.5 3.8778 0.60(7) 178.6 0.604 0.604
17718.4 3.8797 0.59(7) 179.8 0.604 0.604
17727.2 3.8816 0.57(7) 185.5 0.604 0.604
17736.1 3.8836 0.55(7) 192.9 0.604 0.604
17745.0 3.8855 0.49(7) 215.8 0.604 0.604
17753.8 3.8875 0.59(7) 180.5 0.604 0.604
17762.7 3.8894 0.64(8) 165.1 0.605 0.605
17771.6 3.8914 0.61(8) 171.9 0.605 0.605
17780.5 3.8933 0.59(7) 178.5 0.605 0.605
17789.4 3.8953 0.57(7) 185.5 0.605 0.605
17798.3 3.8972 0.62(8) 168.6 0.605 0.605
17807.2 3.8992 0.66(8) 158.0 0.605 0.605
17816.1 3.9011 0.68(8) 154.3 0.606 0.606
17825.0 3.9031 0.63(8) 164.4 0.606 0.606
17833.9 3.9050 0.61(8) 170.3 0.606 0.606
17842.8 3.9070 0.62(8) 167.3 0.606 0.606
17851.7 3.9089 0.59(8) 176.7 0.606 0.606
17860.7 3.9109 0.58(7) 179.0 0.606 0.606
17869.6 3.9129 0.55(7) 187.0 0.607 0.607
17878.5 3.9148 0.55(7) 187.6 0.607 0.607
17887.5 3.9168 0.52(7) 195.4 0.607 0.607
17896.4 3.9187 0.50(7) 204.3 0.607 0.607
17905.3 3.9207 0.56(7) 182.5 0.607 0.607
17914.3 3.9227 0.56(7) 180.5 0.607 0.607
17923.3 3.9246 0.61(8) 167.3 0.608 0.608
17932.2 3.9266 0.62(8) 164.8 0.608 0.608
17941.2 3.9286 0.57(7) 178.6 0.608 0.608
17950.2 3.9305 0.54(7) 187.5 0.608 0.608
17959.1 3.9325 0.53(7) 188.5 0.608 0.608
17968.1 3.9345 0.51(7) 195.1 0.608 0.608
17977.1 3.9364 0.59(8) 168.9 0.609 0.609
17986.1 3.9384 0.66(8) 151.5 0.609 0.609
17995.1 3.9404 0.64(8) 156.8 0.609 0.609
18004.1 3.9423 0.64(8) 154.8 0.609 0.609
18013.1 3.9443 0.58(8) 170.5 0.609 0.609
18022.1 3.9463 0.57(8) 173.0 0.609 0.609
18031.1 3.9483 0.63(8) 158.6 0.610 0.610
18040.1 3.9502 0.62(8) 160.0 0.610 0.610
18049.1 3.9522 0.64(8) 155.1 0.610 0.610
18058.2 3.9542 0.61(8) 161.9 0.610 0.610
18067.2 3.9562 0.53(7) 185.5 0.610 0.610
18076.2 3.9582 0.62(8) 159.4 0.611 0.611
18085.3 3.9601 0.65(8) 150.2 0.611 0.611
18094.3 3.9621 0.69(8) 142.6 0.611 0.611
18103.3 3.9641 0.62(8) 158.4 0.611 0.611
18112.4 3.9661 0.54(7) 181.0 0.611 0.611
18121.4 3.9681 0.57(8) 170.2 0.611 0.611
18130.5 3.9701 0.59(8) 164.2 0.612 0.612
18139.6 3.9721 0.62(8) 155.5 0.612 0.612
18148.7 3.9740 0.66(8) 147.7 0.612 0.612
18157.7 3.9760 0.63(8) 153.0 0.612 0.612
18166.8 3.9780 0.61(8) 157.8 0.612 0.612
18175.9 3.9800 0.61(8) 157.6 0.613 0.613
18185.0 3.9820 0.55(8) 173.1 0.613 0.613
18194.1 3.9840 0.60(8) 158.3 0.613 0.613
18203.2 3.9860 0.63(8) 152.3 0.613 0.613
18212.3 3.9880 0.60(8) 158.5 0.613 0.613
18221.4 3.9900 0.61(8) 155.8 0.614 0.614
18230.5 3.9920 0.64(8) 148.1 0.614 0.614
18239.6 3.9940 0.71(9) 134.6 0.614 0.614
18248.7 3.9960 0.69(9) 137.6 0.614 0.614
18257.8 3.9980 0.71(9) 133.0 0.614 0.614
18267.0 4.0000 0.73(9) 129.8 0.614 0.614
18276.1 4.0020 0.64(8) 147.1 0.615 0.615
18285.3 4.0040 0.64(8) 146.9 0.615 0.615
18294.4 4.0060 0.61(8) 154.1 0.615 0.615
18303.5 4.0080 0.64(8) 147.2 0.615 0.615
18312.7 4.0100 0.73(9) 128.7 0.615 0.615
18321.8 4.0120 0.72(9) 129.1 0.616 0.616
18331.0 4.0140 0.67(8) 139.4 0.616 0.616
18340.2 4.0160 0.65(8) 142.0 0.616 0.616
18349.3 4.0181 0.68(9) 136.6 0.616 0.616
18358.5 4.0201 0.59(8) 156.9 0.616 0.616
18367.7 4.0221 0.53(8) 173.4 0.617 0.617
18376.9 4.0241 0.52(8) 175.1 0.617 0.617
18386.1 4.0261 0.52(8) 174.6 0.617 0.617
18395.3 4.0281 0.56(8) 164.3 0.617 0.617
18404.4 4.0301 0.62(8) 147.1 0.617 0.617
18413.7 4.0322 0.57(8) 159.1 0.618 0.618
18422.8 4.0342 0.55(8) 165.4 0.618 0.618
18432.1 4.0362 0.53(8) 170.0 0.618 0.618
18441.3 4.0382 0.61(8) 147.4 0.618 0.618
18450.5 4.0402 0.60(8) 150.0 0.618 0.618
18459.7 4.0423 0.52(8) 174.0 0.619 0.619
18469.0 4.0443 0.57(8) 157.2 0.619 0.619
18478.2 4.0463 0.70(9) 128.0 0.619 0.619
18487.4 4.0483 0.69(9) 130.1 0.619 0.619
18496.7 4.0504 0.55(8) 161.8 0.620 0.620
18505.9 4.0524 0.63(8) 141.8 0.620 0.620
18515.2 4.0544 0.50(7) 178.5 0.620 0.620
18524.4 4.0564 0.53(8) 167.1 0.620 0.620
18533.7 4.0585 0.62(8) 143.6 0.620 0.620
18543.0 4.0605 0.65(9) 135.9 0.621 0.621
18552.3 4.0625 0.68(9) 128.7 0.621 0.621
18561.5 4.0646 0.69(9) 127.5 0.621 0.621
18570.8 4.0666 0.65(9) 134.4 0.621 0.621
18580.1 4.0686 0.63(8) 139.1 0.621 0.621
18589.4 4.0707 0.61(8) 142.5 0.622 0.622
18598.7 4.0727 0.64(9) 136.8 0.622 0.622
18608.0 4.0748 0.73(9) 118.7 0.622 0.622
18617.3 4.0768 0.68(9) 127.5 0.622 0.622
18626.6 4.0788 0.64(9) 134.8 0.623 0.623
18635.9 4.0809 0.57(8) 151.3 0.623 0.623
18645.2 4.0829 0.59(8) 146.5 0.623 0.623
18654.5 4.0850 0.58(8) 147.4 0.623 0.623
18663.8 4.0870 0.57(8) 149.9 0.623 0.623
18673.2 4.0891 0.58(8) 146.3 0.624 0.624
18682.5 4.0911 0.68(9) 125.9 0.624 0.624
18691.9 4.0932 0.63(9) 134.9 0.624 0.624
18701.2 4.0952 0.57(8) 147.5 0.624 0.624
18710.6 4.0973 0.63(9) 134.2 0.625 0.625
18719.9 4.0993 0.60(8) 140.2 0.625 0.625
18729.3 4.1014 0.47(7) 178.8 0.625 0.625
18738.7 4.1034 0.52(8) 159.4 0.625 0.625
18748.0 4.1055 0.61(9) 136.4 0.625 0.625
18757.4 4.1075 0.67(9) 125.2 0.626 0.626
18766.8 4.1096 0.68(9) 122.6 0.626 0.626
18776.2 4.1116 0.54(8) 154.1 0.626 0.626
18785.5 4.1137 0.51(8) 160.4 0.626 0.626
18794.9 4.1158 0.55(8) 148.4 0.627 0.627
18804.3 4.1178 0.58(8) 142.9 0.627 0.627
18813.7 4.1199 0.56(8) 145.5 0.627 0.627
18823.1 4.1219 0.66(9) 123.9 0.627 0.627
18832.6 4.1240 0.65(9) 126.6 0.628 0.628
18842.0 4.1261 0.57(8) 142.9 0.628 0.628
18851.4 4.1281 0.69(9) 117.8 0.628 0.628
18860.8 4.1302 0.70(9) 115.5 0.628 0.628
18870.3 4.1323 0.59(9) 137.4 0.629 0.629
18879.7 4.1343 0.65(9) 124.4 0.629 0.629
18889.1 4.1364 0.72(9) 111.8 0.629 0.629
18898.6 4.1385 0.66(9) 120.9 0.629 0.629
18908.0 4.1405 0.60(9) 132.3 0.629 0.629
18917.5 4.1426 0.65(9) 122.8 0.630 0.630
18926.9 4.1447 0.77(10) 104.3 0.630 0.630
18936.4 4.1468 0.72(10) 110.4 0.630 0.630
18945.8 4.1488 0.73(10) 108.8 0.630 0.630
18955.3 4.1509 0.62(9) 127.8 0.631 0.631
18964.8 4.1530 0.58(9) 135.9 0.631 0.631
18974.3 4.1551 0.59(9) 134.3 0.631 0.631
18983.8 4.1572 0.66(9) 119.1 0.631 0.631
18993.3 4.1593 0.58(9) 135.3 0.632 0.632
19002.8 4.1613 0.51(8) 152.5 0.632 0.632
19012.3 4.1634 0.58(9) 134.6 0.632 0.632
19021.8 4.1655 0.62(9) 126.2 0.632 0.632
19031.3 4.1676 0.56(9) 138.2 0.633 0.633
19040.8 4.1697 0.62(9) 125.6 0.633 0.633
19050.3 4.1718 0.67(9) 115.3 0.633 0.633
19059.8 4.1738 0.61(9) 126.8 0.633 0.633
19069.4 4.1759 0.55(8) 139.7 0.634 0.634
19078.9 4.1780 0.60(9) 128.5 0.634 0.634
19088.4 4.1801 0.59(9) 129.3 0.634 0.634
19098.0 4.1822 0.63(9) 121.5 0.634 0.634
19107.5 4.1843 0.69(9) 110.8 0.635 0.635
19117.1 4.1864 0.68(9) 111.9 0.635 0.635
19126.7 4.1885 0.66(9) 115.0 0.635 0.635
19136.2 4.1906 0.69(10) 110.8 0.635 0.635
19145.8 4.1927 0.74(10) 102.3 0.636 0.636
19155.3 4.1948 0.79(10) 95.8 0.636 0.636
19164.9 4.1969 0.67(9) 112.4 0.636 0.636
19174.5 4.1990 0.50(8) 149.3 0.637 0.637
19184.1 4.2011 0.49(8) 153.8 0.637 0.637
19193.7 . -0.000180(35) . . .
loop_
_refln_index_h
_refln_index_k
_refln_index_l
_refln_observed_status
_refln_F_squared_meas
_refln_F_squared_calc
_refln_phase_calc
_refln_d_spacing
_gsas_i100_meas
2 1 0 o 11.631 10.479 -180.00 3.70661 89.84
2 1 1 o 7.273 6.712 0.00 3.38366 39.01
2 2 0 o 2.691 2.852 0.00 2.93033 4.06
2 2 1 o 0.388 0.191 -135.00 2.76274 0.93
3 1 0 o 1.146 1.337 -90.00 2.62097 2.21
3 1 1 o 22.292 24.301 45.00 2.49900 35.58
2 2 2 o 52.649 54.730 90.00 2.39261 23.53
3 2 0 o 1.017 0.720 -90.00 2.29874 1.16
3 2 1 o 1.567 1.167 -9.94 2.21512 3.09
4 0 0 o 530.282 532.672 -180.00 2.07206 100.00
3 2 2 o 2.241 2.208 135.00 2.01019 1.50
4 1 0 o 2.111 2.080 -180.00 2.01019 1.41
4 1 1 o 3.724 4.920 90.00 1.95355 2.22
3 3 0 o 0.111 0.146 90.00 1.95355 0.03
3 3 1 o 0.000 0.017 135.00 1.90145 0.00
4 2 0 o 0.000 0.005 180.00 1.85330 0.00
4 2 1 o 7.803 7.461 2.95 1.80864 6.83
3 3 2 o 0.337 0.311 0.00 1.76706 0.13
4 2 2 o 2.194 1.561 0.00 1.69183 0.74
4 3 0 o 0.240 0.098 180.00 1.65765 0.07
4 3 1 o 1.431 1.274 104.78 1.62546 0.82
5 1 0 o 26.064 23.209 90.00 1.62546 7.45
5 1 1 o 93.074 89.137 -45.00 1.59507 24.65
3 3 3 o 0.040 0.038 45.00 1.59507 0.00
4 3 2 o 0.637 0.595 73.25 1.53909 0.29
5 2 0 o 25.036 23.397 -90.00 1.53909 5.75
5 2 1 o 8.691 8.533 -178.52 1.51322 3.73
4 4 0 o 523.519 518.157 0.00 1.46517 49.36
5 2 2 o 0.146 0.163 -135.00 1.44280 0.03
4 4 1 o 3.253 3.621 45.00 1.44280 0.58
4 3 3 o 0.041 0.044 -90.00 1.42142 0.01
5 3 0 o 7.940 8.445 -90.00 1.42142 1.33
5 3 1 o 26.061 25.987 -134.65 1.40097 8.22
4 4 2 o 0.450 0.466 90.00 1.38137 0.07
6 1 0 o 9.915 10.323 0.00 1.36258 1.40
5 3 2 o 4.082 4.156 167.68 1.34453 1.09
6 1 1 o 6.934 7.059 -180.00 1.34453 0.93
6 2 0 o 1.120 0.612 0.00 1.31048 0.14
4 4 3 o 0.023 0.020 135.00 1.29440 0.00
5 4 0 o 8.526 7.289 90.00 1.29440 0.98
6 2 1 o 0.350 0.300 20.16 1.29440 0.08
5 4 1 o 13.699 13.785 -100.45 1.27890 3.00
5 3 3 o 18.872 19.199 -45.00 1.26394 1.97
6 2 2 o 11.270 10.927 -90.00 1.24950 1.12
5 4 2 o 18.273 18.844 -179.34 1.23554 3.48
6 3 0 o 2.355 2.429 0.00 1.23554 0.22
6 3 1 o 3.798 3.823 21.22 1.22203 0.69
4 4 4 o 316.225 309.531 180.00 1.19630 8.83
6 3 2 o 5.251 5.054 -75.22 1.18403 0.84
7 1 0 o 0.416 0.442 90.00 1.17213 0.03
5 4 3 o 6.124 6.498 -71.88 1.17213 0.95
5 5 0 o 31.363 33.282 -90.00 1.17213 1.21
7 1 1 o 0.457 0.489 -135.00 1.16058 0.03
5 5 1 o 67.922 72.607 135.00 1.16058 5.04
6 4 0 o 0.029 0.039 -180.00 1.14937 0.00
6 4 1 o 7.590 9.242 89.45 1.13848 1.04
7 2 0 o 0.272 0.331 -90.00 1.13848 0.02
6 3 3 o 0.444 0.560 0.00 1.12789 0.03
7 2 1 o 0.830 1.047 43.63 1.12789 0.11
5 5 2 o 5.239 6.610 0.00 1.12789 0.35
6 4 2 o 2.294 3.071 -7.39 1.10756 0.28
7 2 2 o 3.170 3.560 -45.00 1.09780 0.19
5 4 4 o 8.120 9.117 -135.00 1.09780 0.48
7 3 0 o 0.011 0.013 -90.00 1.08830 0.00
5 5 3 o 67.651 70.126 45.00 1.07904 3.75
7 3 1 o 0.307 0.318 -36.48 1.07904 0.03
6 4 3 o 1.101 1.255 -93.82 1.06120 0.11
6 5 0 o 18.129 20.671 -180.00 1.06120 0.94
6 5 1 o 5.494 6.186 6.26 1.05261 0.55
7 3 2 o 3.634 4.092 -169.37 1.05261 0.37
8 0 0 o 288.827 309.918 0.00 1.03603 3.40
6 5 2 o 0.978 1.143 65.03 1.02803 0.09
7 4 0 o 0.579 0.676 90.00 1.02803 0.03
8 1 0 o 3.181 3.719 0.00 1.02803 0.15
8 1 1 o 0.755 0.892 -90.00 1.02021 0.03
5 5 4 o 22.056 26.062 90.00 1.02021 0.98
7 4 1 o 0.227 0.268 69.16 1.02021 0.02
7 3 3 o 4.508 5.645 45.00 1.01257 0.19
6 4 4 o 0.371 0.602 -90.00 1.00510 0.02
8 2 0 o 0.021 0.033 0.00 1.00510 0.00
8 2 1 o 1.888 2.985 172.93 0.99779 0.15
7 4 2 o 0.163 0.258 -20.18 0.99779 0.01
6 5 3 o 3.114 4.582 -12.55 0.99063 0.25
8 2 2 o 2.549 2.308 0.00 0.97678 0.09
6 6 0 o 4.807 4.352 0.00 0.97678 0.09
6 6 1 o 0.003 0.003 45.00 0.97006 0.00
8 3 0 o 0.122 0.097 180.00 0.97006 0.00
7 5 0 o 2.766 2.567 -90.00 0.96349 0.10
8 3 1 o 0.484 0.449 -48.82 0.96349 0.03
7 4 3 o 0.394 0.366 88.64 0.96349 0.03
5 5 5 o 100.785 98.973 -45.00 0.95704 1.15
7 5 1 o 18.047 17.722 45.30 0.95704 1.24
6 6 2 o 0.262 0.254 90.00 0.95073 0.01
8 3 2 o 0.136 0.133 -109.40 0.94453 0.01
6 5 4 o 15.808 15.510 8.17 0.94453 1.03
7 5 2 o 0.271 0.238 -153.10 0.93846 0.02
8 4 0 o 183.137 179.807 -180.00 0.92665 5.53
7 4 4 o 0.679 0.665 -45.00 0.92091 0.02
8 4 1 o 2.053 2.009 -111.43 0.92091 0.12
6 6 3 o 4.864 4.761 135.00 0.92091 0.14
8 3 3 o 0.423 0.406 90.00 0.91528 0.01
9 1 0 o 30.662 29.452 -90.00 0.91528 0.88
9 1 1 o 53.160 49.014 135.00 0.90975 1.49
7 5 3 o 0.387 0.356 123.15 0.90975 0.02
8 4 2 o 0.931 0.837 -82.18 0.90432 0.05
7 6 0 o 0.016 0.015 90.00 0.89898 0.00
9 2 0 o 24.436 23.559 90.00 0.89898 0.65
6 5 5 o 4.578 4.183 -180.00 0.89374 0.12
7 6 1 o 2.110 1.928 -74.35 0.89374 0.11
9 2 1 o 5.432 4.962 -4.63 0.89374 0.28
6 6 4 o 0.029 0.020 180.00 0.88353 0.00
9 2 2 o 0.717 0.592 45.00 0.87855 0.02
8 5 0 o 12.679 10.464 -180.00 0.87855 0.31
7 6 2 o 12.743 10.517 160.56 0.87855 0.62
8 4 3 o 0.059 0.049 -38.78 0.87855 0.00
9 3 0 o 20.126 18.222 90.00 0.87366 0.48
8 5 1 o 5.015 4.541 116.19 0.87366 0.24
7 5 4 o 2.507 2.270 107.80 0.87366 0.12
9 3 1 o 56.156 49.231 46.33 0.86884 2.62
7 6 3 o 1.440 1.125 -72.86 0.85487 0.06
9 3 2 o 4.942 3.860 4.18 0.85487 0.22
8 5 2 o 12.379 9.182 -94.58 0.85945 0.55
8 4 4 o 209.354 198.156 0.00 0.84591 4.39
6 6 5 o 1.934 1.849 -135.00 0.84154 0.04
9 4 0 o 7.056 6.748 -90.00 0.84154 0.14
9 4 1 o 26.788 24.578 75.57 0.83724 1.08
7 7 0 o 0.660 0.606 90.00 0.83724 0.01
8 5 3 o 3.263 2.994 -135.54 0.83724 0.13
7 7 1 o 3.790 3.255 -45.00 0.83300 0.07
9 3 3 o 14.397 12.362 135.00 0.83300 0.28
7 5 5 o 21.185 18.192 -135.00 0.83300 0.42
8 6 0 o 0.304 0.267 180.00 0.82882 0.01
9 4 2 o 21.322 19.756 4.58 0.82471 0.81
7 6 4 o 0.298 0.276 5.95 0.82471 0.01
8 6 1 o 3.734 3.460 3.97 0.82471 0.14
10 1 0 o 13.729 12.720 -180.00 0.82471 0.26
10 1 1 o 7.968 6.271 0.00 0.82066 0.15
7 7 2 o 7.007 5.515 0.00 0.82066 0.13
10 2 0 o 2.828 2.059 0.00 0.81273 0.05
8 6 2 o 0.542 0.395 -38.40 0.81273 0.02
8 5 4 o 12.002 10.503 24.99 0.80885 0.42
10 2 1 o 0.112 0.098 61.79 0.80885 0.00
9 5 0 o 39.393 38.687 90.00 0.80502 0.68
9 4 3 o 13.163 12.927 108.93 0.80502 0.45
7 7 3 o 0.308 0.306 -135.00 0.80125 0.01
9 5 1 o 74.593 74.233 -44.23 0.80125 2.52
6 6 6 o 1.701 1.585 90.00 0.79754 0.01
10 2 2 o 3.057 2.848 -90.00 0.79754 0.05
10 3 0 o 3.754 3.458 -180.00 0.79387 0.06
8 6 3 o 1.169 1.077 34.81 0.79387 0.04
10 3 1 o 6.291 6.125 -163.83 0.79025 0.20
9 5 2 o 3.101 3.019 175.39 0.79025 0.10
7 6 5 o 2.624 2.554 127.37 0.79025 0.08
10 3 2 o 3.665 3.066 104.27 0.77969 0.11
8 7 0 o 1.200 1.004 0.00 0.77969 0.02
9 4 4 o 13.208 11.052 45.00 0.77969 0.20
8 7 1 o 0.847 0.772 111.38 0.77626 0.03
7 7 4 o 0.469 0.427 -90.00 0.77626 0.01
8 5 5 o 5.350 4.878 -90.00 0.77626 0.08
9 5 3 o 39.942 38.899 -137.03 0.77288 1.17
10 4 0 o 0.061 0.065 0.00 0.76954 0.00
8 6 4 o 1.200 1.279 72.24 0.76954 0.03
9 6 0 o 12.781 15.325 -90.00 0.76625 0.18
8 7 2 o 0.180 0.216 -14.12 0.76625 0.01
10 4 1 o 6.571 7.878 -100.27 0.76625 0.19
10 3 3 o 3.781 4.758 -180.00 0.76299 0.05
9 6 1 o 2.457 3.091 -174.64 0.76299 0.07
10 4 2 o 0.327 0.404 36.79 0.75661 0.01
9 6 2 o 1.576 1.939 -162.05 0.75348 0.04
7 6 6 o 6.593 8.108 -45.00 0.75348 0.09
8 7 3 o 0.489 0.587 -93.68 0.75038 0.01
11 1 0 o 0.083 0.100 -90.00 0.75038 0.00
9 5 4 o 18.687 22.417 -80.86 0.75038 0.48
11 1 1 o 1.621 1.989 45.00 0.74732 0.02
7 7 5 o 0.489 0.600 -45.00 0.74732 0.01
10 5 0 o 9.404 11.690 0.00 0.74132 0.12
10 4 3 o 3.163 3.932 89.60 0.74132 0.08
11 2 0 o 0.430 0.535 90.00 0.74132 0.01
8 6 5 o 7.094 8.818 -174.44 0.74132 0.18
9 6 3 o 2.390 2.829 12.20 0.73837 0.06
11 2 1 o 2.777 3.288 -162.83 0.73837 0.07
10 5 1 o 2.874 3.403 -175.33 0.73837 0.07
8 8 0 o 112.463 124.691 0.00 0.73258 0.66
11 2 2 o 2.383 2.623 135.00 0.72974 0.03
10 5 2 o 2.121 2.336 -100.31 0.72974 0.05
8 7 4 o 2.237 2.463 148.70 0.72974 0.05
8 8 1 o 0.827 0.910 45.00 0.72974 0.01
11 3 0 o 0.452 0.486 90.00 0.72693 0.01
9 7 0 o 5.859 6.308 -90.00 0.72693 0.07
9 7 1 o 11.005 11.802 -132.70 0.72415 0.25
11 3 1 o 0.777 0.833 -60.84 0.72415 0.02
9 5 5 o 39.799 42.683 135.00 0.72415 0.45
8 8 2 o 1.226 1.373 90.00 0.72140 0.01
10 4 4 o 0.646 0.724 90.00 0.72140 0.01
9 6 4 o 12.812 15.092 82.27 0.71868 0.28
10 6 0 o 0.010 0.013 -180.00 0.71071 0.00
8 6 6 o 4.218 5.165 0.00 0.71071 0.04
7 7 6 o 0.499 0.596 -180.00 0.71599 0.01
10 5 3 o 3.918 4.682 157.15 0.71599 0.08
11 3 2 o 4.514 5.395 19.25 0.71599 0.10
9 7 2 o 0.971 1.160 157.55 0.71599 0.02
8 8 3 o 0.758 0.913 135.00 0.70811 0.01
10 6 1 o 0.191 0.230 -143.46 0.70811 0.00
11 4 0 o 0.293 0.353 -90.00 0.70811 0.00
8 7 5 o 1.194 1.378 -57.16 0.70554 0.02
11 4 1 o 0.571 0.659 -85.71 0.70554 0.01
11 3 3 o 0.004 0.005 45.00 0.70300 0.00
9 7 3 o 9.075 10.388 -44.27 0.70300 0.18
10 6 2 o 6.437 7.365 89.88 0.70048 0.13
11 4 2 o 0.226 0.260 143.44 0.69800 0.00
10 5 4 o 10.799 12.402 -170.79 0.69800 0.21
9 6 5 o 0.976 1.126 -0.66 0.69553 0.02
8 8 4 o 59.230 66.947 180.00 0.69069 0.55
12 0 0 o 52.646 59.505 180.00 0.69069 0.12
9 8 0 o 11.435 13.279 90.00 0.68830 0.11
10 6 3 o 0.725 0.842 -13.22 0.68830 0.01
12 1 0 o 0.421 0.489 180.00 0.68830 0.00
9 8 1 o 7.368 9.064 -128.96 0.68594 0.13
12 1 1 o 0.004 0.004 90.00 0.68594 0.00
11 4 3 o 0.227 0.279 -101.78 0.68594 0.00
9 7 4 o 4.758 5.853 73.81 0.68594 0.09
11 5 0 o 0.885 1.088 90.00 0.68594 0.01
11 5 1 o 1.432 1.845 -128.68 0.68360 0.03
7 7 7 o 0.984 1.267 45.00 0.68360 0.00
12 2 0 o 0.034 0.042 -180.00 0.68129 0.00
12 2 1 o 0.351 0.443 -6.60 0.67900 0.01
8 7 6 o 0.406 0.513 -172.22 0.67900 0.01
9 8 2 o 9.427 11.911 -176.92 0.67900 0.16
10 7 0 o 0.519 0.656 0.00 0.67900 0.00
11 5 2 o 0.802 1.041 128.25 0.67673 0.01
10 5 5 o 0.844 1.096 0.00 0.67673 0.01
10 7 1 o 4.267 5.537 45.43 0.67673 0.07
10 6 4 o 3.464 3.918 5.57 0.67226 0.06
12 2 2 o 0.379 0.429 0.00 0.67226 0.00
8 8 5 o 4.330 4.868 -135.00 0.67006 0.04
12 3 0 o 0.239 0.268 0.00 0.67006 0.00
10 7 2 o 6.330 7.117 -84.67 0.67006 0.10
9 6 6 o 3.359 3.777 45.00 0.67006 0.03
11 4 4 o 1.129 1.269 135.00 0.67006 0.01
12 3 1 o 0.329 0.361 141.93 0.66788 0.01
9 8 3 o 6.519 7.152 -51.63 0.66788 0.11
11 5 3 o 1.628 1.715 -60.97 0.66573 0.03
9 7 5 o 30.269 31.873 47.20 0.66573 0.49
12 3 2 o 0.263 0.270 14.51 0.66147 0.00
11 6 0 o 0.164 0.168 -90.00 0.66147 0.00
11 6 1 o 3.687 3.976 75.00 0.65938 0.06
10 7 3 o 3.039 3.277 -36.69 0.65938 0.05
12 4 0 o 62.834 72.469 0.00 0.65524 0.47
9 8 4 o 9.214 10.597 -115.23 0.65320 0.14
11 6 2 o 6.197 7.127 -16.51 0.65320 0.09
10 6 5 o 3.362 3.866 37.54 0.65320 0.05
12 4 1 o 0.459 0.528 84.31 0.65320 0.01
8 7 7 o 1.898 2.090 90.00 0.65118 0.01
12 3 3 o 0.431 0.475 -90.00 0.65118 0.00
9 9 0 o 21.012 23.135 -90.00 0.65118 0.08
11 5 4 o 0.735 0.810 -86.28 0.65118 0.01
9 9 1 o 32.659 32.740 135.00 0.64918 0.24
12 4 2 o 0.438 0.406 103.41 0.64720 0.01
8 8 6 o 2.457 2.274 -90.00 0.64720 0.02
10 8 0 o 0.558 0.516 -180.00 0.64720 0.00
10 7 4 o 0.415 0.364 -154.13 0.64524 0.01
10 8 1 o 5.763 5.062 84.76 0.64524 0.08
11 6 3 o 3.892 3.197 119.64 0.64329 0.05
9 9 2 o 0.796 0.654 0.00 0.64329 0.01
9 7 6 o 1.492 1.225 -12.99 0.64329 0.02
10 8 2 o 2.905 2.569 -25.14 0.63945 0.04
12 4 3 o 1.140 1.102 119.56 0.63756 0.02
12 5 0 o 5.857 5.661 0.00 0.63756 0.04
13 1 0 o 25.052 25.708 90.00 0.63568 0.17
11 7 0 o 0.472 0.484 -90.00 0.63568 0.00
12 5 1 o 0.921 0.945 -10.31 0.63568 0.01
9 8 5 o 9.095 9.334 69.57 0.63568 0.12
11 5 5 o 11.315 11.824 45.00 0.63382 0.07
11 7 1 o 0.068 0.071 32.79 0.63382 0.00
9 9 3 o 43.868 45.840 45.00 0.63382 0.29
13 1 1 o 34.109 35.642 -45.00 0.63382 0.23
10 6 6 o 10.523 10.862 -90.00 0.63197 0.07
13 2 0 o 12.187 12.254 -90.00 0.63014 0.08
12 5 2 o 2.626 2.640 95.14 0.63014 0.03
11 6 4 o 0.451 0.454 152.84 0.63014 0.01
10 8 3 o 1.225 1.232 -90.48 0.63014 0.02
10 7 5 o 3.512 3.370 -144.90 0.62833 0.04
13 2 1 o 2.388 2.292 -169.81 0.62833 0.03
11 7 2 o 3.593 3.449 -171.16 0.62833 0.05
12 4 4 o 43.050 38.581 -180.00 0.62475 0.27
8 8 7 o 2.366 2.081 -45.00 0.62298 0.01
13 2 2 o 0.282 0.248 -135.00 0.62298 0.00
13 3 0 o 18.448 16.019 -90.00 0.62123 0.11
9 9 4 o 22.288 19.353 90.00 0.62123 0.14
12 5 3 o 1.390 1.207 19.03 0.62123 0.02
9 7 7 o 0.503 0.430 135.00 0.61949 0.00
13 3 1 o 19.596 16.758 -131.10 0.61949 0.24
11 7 3 o 0.698 0.597 53.17 0.61949 0.01
12 6 0 o 0.370 0.315 0.00 0.61777 0.00
10 8 4 o 1.809 1.542 -67.90 0.61777 0.02
12 6 1 o 1.733 1.461 150.35 0.61606 0.02
9 8 6 o 11.205 9.449 17.08 0.61606 0.13
10 9 0 o 11.023 9.296 -180.00 0.61606 0.06
13 3 2 o 2.399 1.935 175.13 0.61436 0.03
11 6 5 o 1.329 1.072 -90.47 0.61436 0.02
10 9 1 o 1.147 0.926 12.60 0.61436 0.01
12 6 2 o 2.205 1.888 18.66 0.61102 0.03
12 5 4 o 3.605 3.238 -167.59 0.60936 0.04
10 9 2 o 3.690 3.314 72.04 0.60936 0.04
10 7 6 o 5.710 5.128 121.44 0.60936 0.06
13 4 0 o 3.883 3.487 90.00 0.60936 0.02
11 8 0 o 1.612 1.447 90.00 0.60936 0.01
13 4 1 o 19.351 18.025 -108.54 0.60772 0.22
11 8 1 o 0.636 0.593 95.42 0.60772 0.01
11 7 4 o 1.760 1.639 93.79 0.60772 0.02
13 3 3 o 19.530 18.378 -45.00 0.60610 0.11
9 9 5 o 35.554 33.458 -45.00 0.60610 0.20
11 8 2 o 0.195 0.169 -117.51 0.60288 0.00
10 8 5 o 7.333 6.343 -108.06 0.60288 0.08
12 6 3 o 0.502 0.434 -121.43 0.60288 0.01
13 4 2 o 13.205 11.422 -177.05 0.60288 0.14
10 9 3 o 2.005 1.597 -5.90 0.60129 0.02
11 7 5 o 0.445 0.402 -76.36 0.59353 0.00
13 5 1 o 23.758 21.450 138.17 0.59353 0.24
8 8 8 o 70.566 57.902 0.00 0.59815 0.12
12 6 4 o 1.058 0.868 -117.49 0.59202 0.01
11 6 6 o 8.575 7.671 135.00 0.59660 0.04
12 7 0 o 2.855 2.554 180.00 0.59660 0.01
12 7 2 o 0.218 0.160 -143.56 0.59051 0.00
10 9 4 o 9.598 7.037 18.43 0.59051 0.10
14 1 0 o 9.718 7.125 0.00 0.59051 0.05
12 7 1 o 0.707 0.659 -65.36 0.59506 0.01
12 5 5 o 0.338 0.315 90.00 0.59506 0.00
13 5 0 o 21.043 19.611 -90.00 0.59506 0.11
13 4 3 o 15.313 14.272 -72.16 0.59506 0.16
11 8 3 o 1.799 1.676 86.85 0.59506 0.02
9 8 7 o 3.251 3.030 125.23 0.59506 0.03
13 5 2 o 1.382 0.924 1.04 0.58902 0.01
10 7 7 o 1.867 1.248 -180.00 0.58902 0.01
14 1 1 o 5.114 3.419 180.00 0.58902 0.03
9 9 6 o 0.389 0.260 -180.00 0.58902 0.00
10 8 6 o 0.872 0.562 152.24 0.58607 0.01
10 10 0 o 3.956 2.549 0.00 0.58607 0.01
14 2 0 o 0.511 0.329 0.00 0.58607 0.00
11 8 4 o 1.806 1.261 -58.06 0.58461 0.02
14 2 1 o 1.318 0.920 -172.84 0.58461 0.01
13 4 4 o 7.258 5.068 -135.00 0.58461 0.03
10 10 1 o 2.251 1.572 45.00 0.58461 0.01
12 7 3 o 2.299 1.774 84.94 0.58316 0.02
11 9 0 o 2.907 2.244 -90.00 0.58316 0.01
11 9 1 o 10.431 8.644 45.94 0.58172 0.10
13 5 3 o 36.259 30.045 39.86 0.58172 0.34
10 10 2 o 16.670 14.243 -90.00 0.58029 0.08
14 2 2 o 22.463 19.192 90.00 0.58029 0.10
14 3 0 o 7.251 6.121 0.00 0.57888 0.03
13 6 0 o 9.587 8.094 90.00 0.57888 0.04
12 6 5 o 3.082 2.602 4.95 0.57888 0.03
11 7 6 o 1.306 1.063 60.14 0.57747 0.01
14 3 1 o 6.966 5.669 15.73 0.57747 0.06
13 6 1 o 1.139 0.927 2.74 0.57747 0.01
10 9 5 o 0.251 0.204 172.11 0.57747 0.00
11 9 2 o 0.061 0.050 172.95 0.57747 0.00
12 8 0 o 31.383 25.407 180.00 0.57469 0.14
9 8 8 o 9.064 7.692 45.00 0.57331 0.04
10 10 3 o 0.177 0.150 135.00 0.57331 0.00
13 6 2 o 1.217 1.032 23.49 0.57331 0.01
14 3 2 o 0.184 0.156 -128.32 0.57331 0.00
12 8 1 o 0.040 0.034 -14.07 0.57331 0.00
12 7 4 o 1.930 1.638 -24.87 0.57331 0.02
13 5 4 o 21.053 18.043 104.64 0.57194 0.18
11 8 5 o 1.330 1.140 -99.71 0.57194 0.01
9 9 7 o 21.679 17.532 -135.00 0.57059 0.09
11 9 3 o 1.274 1.030 120.42 0.57059 0.01
12 8 2 o 1.036 0.759 -86.46 0.56924 0.01
14 4 0 o 0.090 0.066 -180.00 0.56924 0.00
14 4 1 o 11.965 7.947 78.73 0.56790 0.10
10 8 7 o 1.069 0.710 44.11 0.56790 0.01
13 6 3 o 1.940 1.188 166.75 0.56657 0.02
14 3 3 o 9.819 6.016 0.00 0.56657 0.04
14 4 2 o 1.912 1.110 -15.51 0.56394 0.02
12 6 6 o 0.792 0.460 180.00 0.56394 0.00
10 10 4 o 0.296 0.172 -180.00 0.56394 0.00
12 8 3 o 1.274 0.809 -48.61 0.56264 0.01
10 9 6 o 5.231 3.322 -123.60 0.56264 0.04
12 7 5 o 1.313 0.940 138.29 0.56135 0.01
11 9 4 o 2.667 1.910 97.89 0.56135 0.02
13 7 0 o 10.557 7.559 90.00 0.56135 0.04
11 7 7 o 1.341 1.060 45.00 0.56007 0.01
13 5 5 o 30.055 23.769 -45.00 0.56007 0.12
13 7 1 o 19.444 15.377 49.81 0.56007 0.16
11 8 6 o 1.173 1.021 77.59 0.55753 0.01
14 4 3 o 4.130 3.594 -77.27 0.55753 0.03
11 10 0 o 0.006 0.005 90.00 0.55753 0.00
14 5 0 o 9.049 7.875 -180.00 0.55753 0.04
13 6 4 o 8.147 7.089 -106.60 0.55753 0.06
14 5 1 o 1.384 1.223 16.07 0.55627 0.01
13 7 2 o 1.078 0.952 11.32 0.55627 0.01
11 10 1 o 4.361 3.853 -68.13 0.55627 0.03
12 8 4 o 38.762 35.997 0.02 0.55378 0.30
11 10 2 o 6.420 5.991 166.97 0.55255 0.05
12 9 0 o 6.411 5.982 -180.00 0.55255 0.02
14 5 2 o 3.558 3.320 75.04 0.55255 0.03
10 10 5 o 3.194 2.980 -135.00 0.55255 0.01
12 9 1 o 3.522 3.154 152.94 0.55132 0.03
9 9 8 o 4.792 4.291 -90.00 0.55132 0.02
15 1 0 o 0.458 0.410 90.00 0.55132 0.00
11 9 5 o 8.045 6.780 -137.38 0.55011 0.06
15 1 1 o 0.328 0.277 -135.00 0.55011 0.00
13 7 3 o 5.073 4.274 132.84 0.55011 0.04
10 8 8 o 3.319 2.686 90.00 0.54890 0.01
14 4 4 o 0.551 0.446 -90.00 0.54890 0.00
12 7 6 o 1.292 1.030 22.02 0.54770 0.01
12 9 2 o 5.931 4.728 -97.60 0.54770 0.04
15 2 0 o 0.019 0.015 -90.00 0.54770 0.00
10 9 7 o 1.788 1.444 150.03 0.54651 0.01
11 10 3 o 4.999 4.038 -112.59 0.54651 0.04
15 2 1 o 3.242 2.618 30.64 0.54651 0.02
14 5 3 o 3.456 2.792 -18.26 0.54651 0.03
13 6 5 o 0.603 0.487 -159.84 0.54651 0.00
14 6 0 o 1.474 1.279 0.00 0.54415 0.01
13 8 0 o 6.553 6.014 -90.00 0.54298 0.02
12 8 5 o 1.737 1.594 62.06 0.54298 0.01
14 6 1 o 1.787 1.640 37.78 0.54298 0.01
15 2 2 o 0.867 0.796 -45.00 0.54298 0.00
15 3 0 o 0.092 0.091 -90.00 0.54182 0.00
12 9 3 o 2.996 2.960 -157.72 0.54182 0.02
11 8 7 o 1.255 1.240 -94.08 0.54182 0.01
13 7 4 o 5.760 5.691 -105.52 0.54182 0.04
13 8 1 o 10.982 10.851 53.95 0.54182 0.08
15 3 1 o 1.226 1.272 -28.17 0.54066 0.01
10 10 6 o 13.154 13.719 90.00 0.53952 0.05
14 6 2 o 17.591 18.347 -89.86 0.53952 0.12
13 8 2 o 8.195 8.198 9.61 0.53838 0.06
14 5 4 o 5.647 5.649 17.67 0.53838 0.04
11 10 4 o 0.359 0.359 9.77 0.53838 0.00
11 9 6 o 0.765 0.715 60.37 0.53725 0.01
15 3 2 o 2.633 2.461 -161.69 0.53725 0.02
12 9 4 o 6.163 5.701 15.37 0.53389 0.04
13 6 6 o 1.590 1.471 -135.00 0.53389 0.01
15 4 0 o 0.186 0.173 90.00 0.53389 0.00
14 6 3 o 0.004 0.004 -151.15 0.53389 0.00
15 4 1 o 0.202 0.198 111.25 0.53279 0.00
12 7 7 o 2.065 2.019 -90.00 0.53279 0.01
13 8 3 o 7.500 7.336 128.42 0.53279 0.05
11 11 0 o 1.933 1.891 90.00 0.53279 0.00
13 7 5 o 11.344 11.679 -126.90 0.53169 0.07
11 11 1 o 0.276 0.284 -45.00 0.53169 0.00
15 3 3 o 0.017 0.018 -135.00 0.53169 0.00
9 9 9 o 8.542 8.795 135.00 0.53169 0.01
12 8 6 o 1.174 1.262 99.42 0.53060 0.01
12 10 0 o 0.615 0.661 -180.00 0.53060 0.00
15 4 2 o 0.057 0.065 -110.03 0.52952 0.00
14 7 0 o 1.156 1.308 -180.00 0.52952 0.00
12 10 1 o 1.049 1.187 -1.78 0.52952 0.01
10 9 8 o 5.658 6.405 -161.00 0.52952 0.04
11 11 2 o 0.420 0.500 0.00 0.52844 0.00
14 7 1 o 4.412 5.256 -150.12 0.52844 0.03
14 5 5 o 0.179 0.214 180.00 0.52844 0.00
11 10 5 o 2.467 2.939 117.30 0.52844 0.02
12 10 2 o 0.491 0.635 -88.01 0.52630 0.00
14 6 4 o 0.023 0.030 -81.56 0.52630 0.00
14 7 2 o 1.090 1.469 102.05 0.52525 0.01
11 8 8 o 1.531 2.065 135.00 0.52525 0.00
10 10 7 o 0.496 0.669 -45.00 0.52525 0.00
13 8 4 o 4.377 5.903 64.78 0.52525 0.03
15 4 3 o 0.492 0.681 77.73 0.52419 0.00
13 9 0 o 8.902 12.327 90.00 0.52419 0.03
12 9 5 o 0.999 1.384 -29.07 0.52419 0.01
15 5 0 o 0.245 0.339 -90.00 0.52419 0.00
11 11 3 o 0.580 0.788 45.00 0.52315 0.00
15 5 1 o 2.416 3.284 51.87 0.52315 0.01
13 9 1 o 15.452 21.006 -42.08 0.52315 0.09
11 9 7 o 1.102 1.499 -57.13 0.52315 0.01
12 10 3 o 0.844 1.050 32.27 0.52108 0.01
13 9 2 o 0.136 0.171 170.67 0.52005 0.00
15 5 2 o 0.486 0.609 -12.70 0.52005 0.00
13 7 6 o 0.481 0.603 170.24 0.52005 0.00
14 7 3 o 4.337 5.432 157.86 0.52005 0.03
16 0 0 o 11.423 17.042 0.00 0.51801 0.01
15 4 4 o 0.101 0.157 -45.00 0.51701 0.00
12 8 7 o 1.622 2.515 129.44 0.51701 0.01
11 10 6 o 2.051 3.181 -25.03 0.51701 0.01
16 1 0 o 0.001 0.002 180.00 0.51701 0.00
14 6 5 o 1.818 2.819 -154.09 0.51701 0.01
16 1 1 o 0.005 0.009 90.00 0.51600 0.00
11 11 4 o 0.533 0.835 -90.00 0.51600 0.00
13 8 5 o 4.408 6.905 -127.58 0.51600 0.03
15 5 3 o 0.263 0.427 82.71 0.51501 0.00
13 9 3 o 9.024 14.659 -140.22 0.51501 0.05
12 10 4 o 0.781 1.364 56.99 0.51401 0.00
14 8 0 o 0.269 0.470 0.00 0.51401 0.00
16 2 0 o 0.003 0.005 0.00 0.51401 0.00
12 9 6 o 2.331 4.440 82.45 0.51303 0.01
14 7 4 o 0.735 1.399 0.13 0.51303 0.00
15 6 0 o 0.022 0.041 90.00 0.51303 0.00
16 2 1 o 0.134 0.256 105.41 0.51303 0.00
14 8 1 o 1.907 3.631 -112.92 0.51303 0.01
15 6 1 o 1.101 2.292 -117.69 0.51205 0.01
10 9 9 o 0.000 0.001 -180.00 0.51205 0.00
10 10 8 o 1.624 4.091 0.00 0.51011 0.00
16 2 2 o 0.213 0.537 0.00 0.51011 0.00
14 8 2 o 0.147 0.371 63.85 0.51011 0.00
16 3 0 o 0.655 1.633 -180.00 0.50914 0.00
15 6 2 o 0.964 2.403 160.49 0.50914 0.01
12 11 0 o 0.312 0.778 0.00 0.50914 0.00
15 5 4 o 0.351 0.847 84.59 0.50818 0.00
11 9 8 o 0.545 1.313 -81.60 0.50818 0.00
16 3 1 o 0.103 0.249 -44.53 0.50818 0.00
12 11 1 o 0.574 1.384 97.57 0.50818 0.00
13 9 4 o 2.931 7.061 -79.39 0.50818 0.02
11 11 5 o 0.042 0.105 -45.00 0.50723 0.00
13 7 7 o 2.020 4.999 -45.00 0.50723 0.01
14 6 6 o 5.668 15.744 90.00 0.50628 0.02
13 10 0 o 0.630 2.044 -90.00 0.50534 0.00
12 11 2 o 0.240 0.781 59.53 0.50534 0.00
13 8 6 o 1.961 6.365 -162.51 0.50534 0.01
14 8 3 o 0.770 2.499 102.58 0.50534 0.00
16 3 2 o 0.013 0.042 -159.63 0.50534 0.00
12 10 5 o 0.935 3.035 -177.55 0.50534 0.00
15 6 3 o 0.867 3.018 -70.85 0.50441 0.00
11 10 7 o 0.417 1.451 48.61 0.50441 0.00
13 10 1 o 0.065 0.225 -156.76 0.50441 0.00
14 7 5 o 1.001 3.486 34.28 0.50441 0.01
16 4 0 o 3.039 8.080 -180.00 0.50255 0.01
12 8 8 o 5.078 13.501 -180.00 0.50255 0.01
16 4 1 o 0.085 0.219 52.96 0.50163 0.00
13 10 2 o 0.438 1.126 -164.53 0.50163 0.00
12 9 7 o 0.402 1.173 46.16 0.50071 0.00
15 7 0 o 0.285 0.832 90.00 0.50071 0.00
12 11 3 o 0.509 1.487 -92.16 0.50071 0.00
16 3 3 o 0.293 0.856 90.00 0.50071 0.00
13 9 5 o 2.015 7.189 136.91 0.49980 0.01
15 7 1 o 0.063 0.224 -133.60 0.49980 0.00
15 5 5 o 0.503 1.793 -135.00 0.49980 0.00
