#------------------------------------------------------------------------------
#$Date: 2016-02-16 22:30:59 +0200 (Tue, 16 Feb 2016) $
#$Revision: 176467 $
#$URL: svn://www.crystallography.net/cod/cif/4/00/19/4001907.cif $
#------------------------------------------------------------------------------
#
# This file is available in the Crystallography Open Database (COD),
# http://www.crystallography.net/
#
# All data on this site have been placed in the public domain by the
# contributors.
#
data_4001907
loop_
_publ_author_name
'Pinus, Ilya'
'Catti, Michele'
'Ruffo, Riccardo'
'Salamone, Matteo M.'
'Mari, Claudio M.'
_publ_section_title
;
 Neutron Diffraction and Electrochemical Study of
 FeNb11O29/Li11FeNb11O29for Lithium Battery Anode Applications
;
_journal_issue                   6
_journal_name_full               'Chemistry of Materials'
_journal_page_first              2203
_journal_paper_doi               10.1021/cm500442j
_journal_volume                  26
_journal_year                    2014
_chemical_formula_sum            'Fe Li11 Nb11 O29'
_chemical_formula_weight         1618.28
_chemical_name_systematic        ' ?'
_space_group_IT_number           63
_symmetry_cell_setting           orthorhombic
_symmetry_space_group_name_Hall  '-A 2a 2a'
_symmetry_space_group_name_H-M   'A m m a'
_audit_creation_date             2014-02-05T18:38
_audit_creation_method           'from EXP file using GSAS2CIF'
_audit_update_record
' 2014-02-05T18:38  Initial CIF as created by GSAS2CIF'
_cell_angle_alpha                90.0
_cell_angle_beta                 90.0
_cell_angle_gamma                90.0
_cell_formula_units_Z            4
_cell_length_a                   28.4036(4)
_cell_length_b                   4.08447(8)
_cell_length_c                   20.70671(19)
_cell_volume                     2402.26(6)
_computing_structure_refinement  GSAS
_diffrn_radiation_probe          neutron
_exptl_absorpt_correction_T_max  0.70087
_exptl_absorpt_correction_T_min  0.28981
_exptl_absorpt_process_details
;   GSAS Absorption/surface roughness correction: function number 0
 Debye-Scherrer absorption correction
Term (= MU.r/wave) =     0.17827    
Correction is not refined.
;
_pd_block_id                     2014-02-05T18:38|LI11FENB11O29_FINALE|y|y
_pd_calc_method                  'Rietveld Refinement'
_pd_instr_location               ' ?'
_pd_meas_2theta_fixed            168.33
_pd_meas_number_of_points        4680
_pd_phase_name
'from C:/Pinus/neutrons/686-FeNb11O29-neutrons/DISORDERED.cif'
_pd_proc_info_datetime           2014-02-05T18:38:35
_pd_proc_info_excluded_regions   ' ?'
_pd_proc_ls_background_function
;   GSAS Background function number 1 with  6 terms.
 Shifted Chebyshev function of 1st kind
      1:    1.00459     2:   9.754930E-02 3:  -8.477080E-02 4:  -3.705600E-02
      5:  -6.172950E-02 6:  -5.634690E-03
;
_pd_proc_ls_peak_cutoff          0.00050
_pd_proc_ls_profile_function
;
 TOF Profile function number 4 with  18 terms
 Profile coefficients for exponential pseudovoigt
  convolution Von Dreele, 1990 (unpublished)
 Microstrain broadening by P.W. Stephens,  (1999). J. Appl. Cryst.,32,281-289.
 Peak tails are ignored  where the intensity is below 0.0005 times the peak
   Aniso. broadening axis   0.0   1.0   0.0
;
_pd_proc_ls_prof_R_factor        0.0315
_pd_proc_ls_prof_wR_expected     0.0142
_pd_proc_ls_prof_wR_factor       0.0314
_pd_proc_number_of_points        4680
_pd_spec_mounting                ' ?'
_refine_ls_goodness_of_fit_all   2.23
_refine_ls_matrix_type           full
_refine_ls_number_parameters     89
_refine_ls_number_restraints     12
_refine_ls_R_Fsqd_factor         0.09172
_refine_ls_shift/su_max          0.08
_refine_ls_shift/su_mean         0.02
_reflns_d_resolution_high        0.649
_reflns_d_resolution_low         2.629
_reflns_limit_h_max              44
_reflns_limit_h_min              0
_reflns_limit_k_max              6
_reflns_limit_k_min              0
_reflns_limit_l_max              32
_reflns_limit_l_min              0
_reflns_number_total             2566
_cod_data_source_file            cm500442j_si_001.cif
_cod_data_source_block           LI11FENB11O29
_cod_depositor_comments
;
The following automatic conversions were performed:

'_geom_bond_publ_flag' value 'N' changed to 'n' according to
/usr/data/users/saulius/crontab/automatic-downloads/current/ACS/lib/dictionaries/cif_core.dic
dictionary named 'cif_core.dic' version 2.4.2 from 2011-04-26 (443
times).

Automatic conversion script
Id: cif_fix_values 2281 2013-09-26 08:29:07Z andrius 
;
_cod_original_formula_sum        'Fe1.00 Li11 Nb11.00 O29'
_cod_database_code               4001907
#BEGIN Tags that were not found in dictionaries:
_gsas_exptl_extinct_corr_t_min   1.00000
_gsas_exptl_extinct_corr_t_max   1.00000
#END Tags that were not found in dictionaries
loop_
_symmetry_equiv_pos_site_id
_symmetry_equiv_pos_as_xyz
1 +x,+y,+z
2 -x+1/2,+y,+z
3 +x,-y,+z
4 -x+1/2,-y,+z
-1 -x,-y,-z
-2 +x+1/2,-y,-z
-3 -x,+y,-z
-4 +x+1/2,+y,-z
101 +x,+y+1/2,+z+1/2
102 -x+1/2,+y+1/2,+z+1/2
103 +x,-y+1/2,+z+1/2
104 -x+1/2,-y+1/2,+z+1/2
-101 -x,-y+1/2,-z+1/2
-102 +x+1/2,-y+1/2,-z+1/2
-103 -x,+y+1/2,-z+1/2
-104 +x+1/2,+y+1/2,-z+1/2
loop_
_atom_site_type_symbol
_atom_site_label
_atom_site_fract_x
_atom_site_fract_y
_atom_site_fract_z
_atom_site_occupancy
_atom_site_thermal_displace_type
_atom_site_U_iso_or_equiv
_atom_site_symmetry_multiplicity
Nb Nb1 0.03842(34) 0.0 0.0495(4) 0.917 Uiso 0.0041(15) 8
Nb Nb2 0.0421(5) 0.0 0.6591(7) 0.917 Uiso 0.042(4) 8
Nb Nb3 0.0346(6) 0.0 0.8577(7) 0.917 Uiso 0.046(4) 8
Nb Nb4 0.1754(7) 0.0 0.0408(6) 0.917 Uiso 0.053(4) 8
Nb Nb5 0.1779(4) 0.0 0.66252(34) 0.917 Uiso 0.0046(15) 8
Nb Nb6 0.1817(5) 0.0 0.8555(7) 0.917 Uiso 0.0277(25) 8
O O1 0.25 0.0 0.0540(7) 1.0 Uiso 0.001 4
O O2 0.25 0.0 0.6467(9) 1.0 Uiso 0.0114(31) 4
O O3 0.25 0.0 0.8449(13) 1.0 Uiso 0.042(7) 4
O O4 0.0382(4) 0.0 0.5463(5) 1.0 Uiso 0.0027(20) 8
O O5 0.0360(5) 0.0 0.1460(6) 1.0 Uiso 0.0137(26) 8
O O6 0.0350(5) 0.0 0.7537(6) 1.0 Uiso 0.0114(23) 8
O O7 0.0391(5) 0.0 0.3478(7) 1.0 Uiso 0.0198(33) 8
O O8 0.0364(5) 0.0 0.9512(6) 1.0 Uiso 0.0079(25) 8
O O9 0.1099(4) 0.0 0.0426(5) 1.0 Uiso 0.0022(20) 8
O O10 0.1116(5) 0.0 0.6587(7) 1.0 Uiso 0.0255(30) 8
O O11 0.1087(6) 0.0 0.8477(8) 1.0 Uiso 0.0282(32) 8
O O12 0.1810(6) 0.0 0.5489(7) 1.0 Uiso 0.0177(28) 8
O O13 0.1810(5) 0.0 0.1496(7) 1.0 Uiso 0.0162(27) 8
O O14 0.1819(8) 0.0 0.7503(8) 1.0 Uiso 0.038(4) 8
O O15 0.1794(6) 0.0 0.3571(6) 1.0 Uiso 0.0203(28) 8
O O16 0.1838(6) 0.0 0.9485(6) 1.0 Uiso 0.0200(32) 8
Fe Fe1 0.03842(34) 0.0 0.0495(4) 0.083 Uiso 0.0041(15) 8
Fe Fe2 0.0421(5) 0.0 0.6591(7) 0.083 Uiso 0.042(4) 8
Fe Fe3 0.0346(6) 0.0 0.8577(7) 0.083 Uiso 0.046(4) 8
Fe Fe4 0.1754(7) 0.0 0.0408(6) 0.083 Uiso 0.053(4) 8
Fe Fe5 0.1779(4) 0.0 0.66252(34) 0.083 Uiso 0.0046(15) 8
Fe Fe6 0.1817(5) 0.0 0.8555(7) 0.083 Uiso 0.0277(25) 8
Li Li5 0.1190(12) 0.0 0.3254(15) 1.0 Uiso 0.016(7) 8
Li Li2 0.25 0.5 0.4366(20) 1.0 Uiso 0.007(9) 4
Li Li3 0.25 0.0 0.353(4) 1.0 Uiso 0.025(14) 4
Li Li4 0.0549(9) 0.0 0.4331(11) 1.0 Uiso 0.001 8
Li Li1 0.25 0.5 0.040(7) 1.0 Uiso 0.10(4) 4
Li Li6 0.0227(24) 0.0 0.239(4) 1.0 Uiso 0.082(23) 8
Li Li7 0.1199(12) 0.0 0.1490(20) 1.0 Uiso 0.020(8) 8
loop_
_atom_type_symbol
_atom_type_number_in_cell
_atom_type_scat_length_neutron
_atom_type_scat_source
Nb 44.016 0.7054 International_Tables_Vol_C
O 116.0 0.5803 International_Tables_Vol_C
Fe 3.984 0.9450 International_Tables_Vol_C
Li 44.0 -0.1900 International_Tables_Vol_C
loop_
_geom_bond_atom_site_label_1
_geom_bond_atom_site_label_2
_geom_bond_distance
_geom_bond_site_symmetry_2
_geom_bond_publ_flag
Nb1 Nb1 2.995(18) -1_555 n
Nb1 Nb3 2.827(17) -1_556 n
Nb1 O4 2.0433(5) 101_544 n
Nb1 O4 2.0433(5) 101_554 n
Nb1 O5 2.000(16) 1_555 n
Nb1 O8 2.037(15) 1_554 n
Nb1 O8 2.124(19) -1_556 n
Nb1 O9 2.035(17) 1_555 n
Nb1 Fe1 2.995(18) -1_555 n
Nb1 Fe3 2.827(17) -1_556 n
Nb2 O4 2.339(16) 1_555 n
Nb2 O5 2.0675(28) 101_545 n
Nb2 O5 2.0675(28) 101_555 n
Nb2 O6 1.969(19) 1_555 n
Nb2 O7 2.311(21) -1_556 n
Nb2 O10 1.972(21) 1_555 n
Nb2 Li6 2.81(8) -1_556 n
Nb2 Li6 2.68(5) 101_545 n
Nb2 Li6 2.68(5) 101_555 n
Nb3 Nb1 2.827(17) -1_556 n
Nb3 O5 2.006(26) -1_556 n
Nb3 O6 2.153(17) 1_555 n
Nb3 O7 2.0564(27) 101_545 n
Nb3 O7 2.0564(27) 101_555 n
Nb3 O8 1.937(17) 1_555 n
Nb3 O11 2.116(28) 1_555 n
Nb3 Fe1 2.827(17) -1_556 n
Nb3 Li4 2.635(17) 101_545 n
Nb3 Li4 2.635(17) 101_555 n
Nb3 Li6 2.57(7) -1_556 n
Nb4 O1 2.136(20) 1_555 n
Nb4 O9 1.861(25) 1_555 n
Nb4 O12 2.0553(27) 101_544 n
Nb4 O12 2.0553(27) 101_554 n
Nb4 O13 2.259(19) 1_555 n
Nb4 O16 1.926(19) 1_554 n
Nb4 Li1 2.943(15) 1_545 n
Nb4 Li1 2.943(15) 1_555 n
Nb4 Li7 2.74(4) 1_555 n
Nb5 O2 2.074(10) 1_555 n
Nb5 O10 1.886(17) 1_555 n
Nb5 O12 2.354(15) 1_555 n
Nb5 O13 2.0616(21) 101_545 n
Nb5 O13 2.0616(21) 101_555 n
Nb5 O14 1.821(17) 1_555 n
Nb5 Li7 2.638(21) 101_545 n
Nb5 Li7 2.638(21) 101_555 n
Nb6 O3 1.951(16) 1_555 n
Nb6 O11 2.081(26) 1_555 n
Nb6 O14 2.179(21) 1_555 n
Nb6 O15 2.0436(7) 101_545 n
Nb6 O15 2.0436(7) 101_555 n
Nb6 O16 1.926(16) 1_555 n
Nb6 Li5 2.782(24) 101_545 n
Nb6 Li5 2.782(24) 101_555 n
Nb6 Li2 2.565(31) 101_545 n
Nb6 Li3 2.816(11) 101_545 n
Nb6 Li3 2.816(11) 101_555 n
O1 Nb4 2.136(20) 1_555 n
O1 Nb4 2.136(20) 2_555 n
O1 O2 2.802(15) 101_544 n
O1 O2 2.802(15) 101_554 n
O1 O12 2.833(12) 101_544 n
O1 O12 2.833(12) 101_554 n
O1 O12 2.833(12) 102_544 n
O1 O12 2.833(12) 102_554 n
O1 O13 2.784(18) 1_555 n
O1 O13 2.784(18) 2_555 n
O1 O16 2.884(19) 1_554 n
O1 O16 2.884(19) 2_554 n
O1 Fe4 2.136(20) 1_555 n
O1 Fe4 2.136(20) 2_555 n
O1 Li2 2.43(4) 101_544 n
O1 Li1 2.063(20) 1_545 n
O1 Li1 2.063(20) 1_555 n
O2 Nb5 2.074(10) 1_555 n
O2 Nb5 2.074(10) 2_555 n
O2 O1 2.802(15) 101_545 n
O2 O1 2.802(15) 101_555 n
O2 O12 2.818(22) 1_555 n
O2 O12 2.818(22) 2_555 n
O2 O13 2.830(10) 101_545 n
O2 O13 2.830(10) 101_555 n
O2 O13 2.830(10) 102_545 n
O2 O13 2.830(10) 102_555 n
O2 O14 2.890(25) 1_555 n
O2 O14 2.890(25) 2_555 n
O2 Fe5 2.074(10) 1_555 n
O2 Fe5 2.074(10) 2_555 n
O2 Li1 2.21(14) 101_545 n
O3 Nb6 1.951(16) 1_555 n
O3 Nb6 1.951(16) 2_555 n
O3 O14 2.754(26) 1_555 n
O3 O14 2.754(26) 2_555 n
O3 O15 2.873(12) 101_545 n
O3 O15 2.873(12) 101_555 n
O3 O15 2.873(12) 102_545 n
O3 O15 2.873(12) 102_555 n
O3 O16 2.852(26) 1_555 n
O3 O16 2.852(26) 2_555 n
O3 Fe6 1.951(16) 1_555 n
O3 Fe6 1.951(16) 2_555 n
O3 Li2 1.90(5) 101_545 n
O3 Li3 2.049(8) 101_545 n
O3 Li3 2.049(8) 101_555 n
O4 Nb1 2.0433(5) 101_545 n
O4 Nb1 2.0433(5) 101_555 n
O4 Nb2 2.339(16) 1_555 n
O4 O4 2.896(22) -1_556 n
O4 O5 2.905(12) 101_545 n
O4 O5 2.905(12) 101_555 n
O4 O8 2.838(11) 101_544 n
O4 O8 2.838(11) 101_554 n
O4 O8 2.943(13) -101_535 n
O4 O8 2.943(13) -101_545 n
O4 O9 2.885(12) 101_545 n
O4 O9 2.885(12) 101_555 n
O4 Fe1 2.0433(5) 101_545 n
O4 Fe1 2.0433(5) 101_555 n
O4 Fe2 2.339(16) 1_555 n
O4 Li4 2.391(26) 1_555 n
O4 Li4 2.677(30) -1_556 n
O5 Nb1 2.000(16) 1_555 n
O5 Nb2 2.0675(28) 101_544 n
O5 Nb2 2.0675(28) 101_554 n
O5 Nb3 2.006(26) -1_556 n
O5 O4 2.905(12) 101_544 n
O5 O4 2.905(12) 101_554 n
O5 O6 2.894(19) -1_556 n
O5 O7 2.955(15) -101_534 n
O5 O7 2.955(15) -101_544 n
O5 O8 2.877(15) -1_556 n
O5 O9 2.999(18) 1_555 n
O5 O10 2.974(13) 101_544 n
O5 O10 2.974(13) 101_554 n
O5 Fe1 2.000(16) 1_555 n
O5 Fe2 2.0675(28) 101_544 n
O5 Fe2 2.0675(28) 101_554 n
O5 Fe3 2.006(26) -1_556 n
O5 Li6 1.95(8) 1_555 n
O5 Li7 2.38(4) 1_555 n
O6 Nb2 1.969(19) 1_555 n
O6 Nb3 2.153(17) 1_555 n
O6 O5 2.894(19) -1_556 n
O6 O6 2.854(20) -101_535 n
O6 O6 2.854(20) -101_545 n
O6 O7 2.974(20) -1_556 n
O6 O7 2.825(13) 101_545 n
O6 O7 2.825(13) 101_555 n
O6 O10 2.933(18) 1_555 n
O6 O11 2.858(23) 1_555 n
O6 Fe2 1.969(19) 1_555 n
O6 Fe3 2.153(17) 1_555 n
O6 Li6 1.65(7) -1_556 n
O6 Li6 2.095(16) 101_545 n
O6 Li6 2.095(16) 101_555 n
O7 Nb2 2.311(21) -1_556 n
O7 Nb3 2.0564(27) 101_544 n
O7 Nb3 2.0564(27) 101_554 n
O7 O5 2.955(15) -101_534 n
O7 O5 2.955(15) -101_544 n
O7 O6 2.974(20) -1_556 n
O7 O6 2.825(13) 101_544 n
O7 O6 2.825(13) 101_554 n
O7 O8 2.960(13) 101_544 n
O7 O8 2.960(13) 101_554 n
O7 O11 2.843(15) 101_544 n
O7 O11 2.843(15) 101_554 n
O7 Fe2 2.311(21) -1_556 n
O7 Fe3 2.0564(27) 101_544 n
O7 Fe3 2.0564(27) 101_554 n
O7 Li5 2.317(33) 1_555 n
O7 Li4 1.823(24) 1_555 n
O7 Li6 2.31(8) 1_555 n
O8 Nb1 2.037(15) 1_556 n
O8 Nb1 2.124(19) -1_556 n
O8 Nb3 1.937(17) 1_555 n
O8 O4 2.838(11) 101_545 n
O8 O4 2.838(11) 101_555 n
O8 O4 2.943(13) -101_535 n
O8 O4 2.943(13) -101_545 n
O8 O5 2.877(15) -1_556 n
O8 O7 2.960(13) 101_545 n
O8 O7 2.960(13) 101_555 n
O8 O8 2.891(24) -1_557 n
O8 O9 2.819(16) 1_556 n
O8 O11 2.968(19) 1_555 n
O8 Fe1 2.037(15) 1_556 n
O8 Fe1 2.124(19) -1_556 n
O8 Fe3 1.937(17) 1_555 n
O8 Li4 2.142(9) 101_545 n
O8 Li4 2.142(9) 101_555 n
O9 Nb1 2.035(17) 1_555 n
O9 Nb4 1.861(25) 1_555 n
O9 O4 2.885(12) 101_544 n
O9 O4 2.885(12) 101_554 n
O9 O5 2.999(18) 1_555 n
O9 O8 2.819(16) 1_554 n
O9 O12 2.875(17) 101_544 n
O9 O12 2.875(17) 101_554 n
O9 O13 2.999(16) 1_555 n
O9 O16 2.864(20) 1_554 n
O9 Fe1 2.035(17) 1_555 n
O9 Fe4 1.861(25) 1_555 n
O9 Li7 2.22(4) 1_555 n
O10 Nb2 1.972(21) 1_555 n
O10 Nb5 1.886(17) 1_555 n
O10 O5 2.974(13) 101_545 n
O10 O5 2.974(13) 101_555 n
O10 O6 2.933(18) 1_555 n
O10 O13 2.846(14) 101_545 n
O10 O13 2.846(14) 101_555 n
O10 O14 2.754(25) 1_555 n
O10 Fe2 1.972(21) 1_555 n
O10 Fe5 1.886(17) 1_555 n
O10 Li7 2.066(6) 101_545 n
O10 Li7 2.066(6) 101_555 n
O11 Nb3 2.116(28) 1_555 n
O11 Nb6 2.081(26) 1_555 n
O11 O6 2.858(23) 1_555 n
O11 O7 2.843(15) 101_545 n
O11 O7 2.843(15) 101_555 n
O11 O8 2.968(19) 1_555 n
O11 O14 2.896(27) 1_555 n
O11 O15 2.871(19) 101_545 n
O11 O15 2.871(19) 101_555 n
O11 O16 2.984(23) 1_555 n
O11 Fe3 2.116(28) 1_555 n
O11 Fe6 2.081(26) 1_555 n
O11 Li5 2.114(9) 101_545 n
O11 Li5 2.114(9) 101_555 n
O12 Nb4 2.0553(27) 101_545 n
O12 Nb4 2.0553(27) 101_555 n
O12 Nb5 2.354(15) 1_555 n
O12 O1 2.833(12) 101_545 n
O12 O1 2.833(12) 101_555 n
O12 O2 2.818(22) 1_555 n
O12 O9 2.875(17) 101_545 n
O12 O9 2.875(17) 101_555 n
O12 O13 2.918(14) 101_545 n
O12 O13 2.918(14) 101_555 n
O12 O16 2.916(14) 101_544 n
O12 O16 2.916(14) 101_554 n
O12 Fe4 2.0553(27) 101_545 n
O12 Fe4 2.0553(27) 101_555 n
O12 Fe5 2.354(15) 1_555 n
O12 Li1 1.969(22) 101_545 n
O13 Nb4 2.259(19) 1_555 n
O13 Nb5 2.0616(21) 101_544 n
O13 Nb5 2.0616(21) 101_554 n
O13 O1 2.784(18) 1_555 n
O13 O2 2.830(10) 101_544 n
O13 O2 2.830(10) 101_554 n
O13 O9 2.999(16) 1_555 n
O13 O10 2.846(14) 101_544 n
O13 O10 2.846(14) 101_554 n
O13 O12 2.918(14) 101_544 n
O13 O12 2.918(14) 101_554 n
O13 O14 2.919(15) 101_544 n
O13 O14 2.919(15) 101_554 n
O13 Fe4 2.259(19) 1_555 n
O13 Fe5 2.0616(21) 101_544 n
O13 Fe5 2.0616(21) 101_554 n
O13 Li7 1.74(4) 1_555 n
O14 Nb5 1.821(17) 1_555 n
O14 Nb6 2.179(21) 1_555 n
O14 O2 2.890(25) 1_555 n
O14 O3 2.754(26) 1_555 n
O14 O10 2.754(25) 1_555 n
O14 O11 2.896(27) 1_555 n
O14 O13 2.919(15) 101_545 n
O14 O13 2.919(15) 101_555 n
O14 Fe5 1.821(17) 1_555 n
O14 Fe6 2.179(21) 1_555 n
O15 Nb6 2.0436(7) 101_544 n
O15 Nb6 2.0436(7) 101_554 n
O15 O3 2.873(12) 101_544 n
O15 O3 2.873(12) 101_554 n
O15 O11 2.871(19) 101_544 n
O15 O11 2.871(19) 101_554 n
O15 O16 2.786(11) 101_544 n
O15 O16 2.786(11) 101_554 n
O15 Fe6 2.0436(7) 101_544 n
O15 Fe6 2.0436(7) 101_554 n
O15 Li5 1.84(4) 1_555 n
O15 Li3 2.007(16) 1_555 n
O16 Nb4 1.926(19) 1_556 n
O16 Nb6 1.926(16) 1_555 n
O16 O1 2.884(19) 1_556 n
O16 O3 2.852(26) 1_555 n
O16 O9 2.864(20) 1_556 n
O16 O11 2.984(23) 1_555 n
O16 O12 2.916(14) 101_545 n
O16 O12 2.916(14) 101_555 n
O16 O15 2.786(11) 101_545 n
O16 O15 2.786(11) 101_555 n
O16 Fe4 1.926(19) 1_556 n
O16 Fe6 1.926(16) 1_555 n
O16 Li2 1.897(18) 101_545 n
Fe1 Nb1 2.995(18) -1_555 n
Fe1 Nb3 2.827(17) -1_556 n
Fe1 O4 2.0433(5) 101_544 n
Fe1 O4 2.0433(5) 101_554 n
Fe1 O5 2.000(16) 1_555 n
Fe1 O8 2.037(15) 1_554 n
Fe1 O8 2.124(19) -1_556 n
Fe1 O9 2.035(17) 1_555 n
Fe1 Fe1 2.995(18) -1_555 n
Fe1 Fe3 2.827(17) -1_556 n
Fe2 O4 2.339(16) 1_555 n
Fe2 O5 2.0675(28) 101_545 n
Fe2 O5 2.0675(28) 101_555 n
Fe2 O6 1.969(19) 1_555 n
Fe2 O7 2.311(21) -1_556 n
Fe2 O10 1.972(21) 1_555 n
Fe2 Li6 2.81(8) -1_556 n
Fe2 Li6 2.68(5) 101_545 n
Fe2 Li6 2.68(5) 101_555 n
Fe3 Nb1 2.827(17) -1_556 n
Fe3 O5 2.006(26) -1_556 n
Fe3 O6 2.153(17) 1_555 n
Fe3 O7 2.0564(27) 101_545 n
Fe3 O7 2.0564(27) 101_555 n
Fe3 O8 1.937(17) 1_555 n
Fe3 O11 2.116(28) 1_555 n
Fe3 Fe1 2.827(17) -1_556 n
Fe3 Li4 2.635(17) 101_545 n
Fe3 Li4 2.635(17) 101_555 n
Fe3 Li6 2.57(7) -1_556 n
Fe4 O1 2.136(20) 1_555 n
Fe4 O9 1.861(25) 1_555 n
Fe4 O12 2.0553(27) 101_544 n
Fe4 O12 2.0553(27) 101_554 n
Fe4 O13 2.259(19) 1_555 n
Fe4 O16 1.926(19) 1_554 n
Fe4 Li1 2.943(15) 1_545 n
Fe4 Li1 2.943(15) 1_555 n
Fe4 Li7 2.74(4) 1_555 n
Fe5 O2 2.074(10) 1_555 n
Fe5 O10 1.886(17) 1_555 n
Fe5 O12 2.354(15) 1_555 n
Fe5 O13 2.0616(21) 101_545 n
Fe5 O13 2.0616(21) 101_555 n
Fe5 O14 1.821(17) 1_555 n
Fe5 Li7 2.638(21) 101_545 n
Fe5 Li7 2.638(21) 101_555 n
Fe6 O3 1.951(16) 1_555 n
Fe6 O11 2.081(26) 1_555 n
Fe6 O14 2.179(21) 1_555 n
Fe6 O15 2.0436(7) 101_545 n
Fe6 O15 2.0436(7) 101_555 n
Fe6 O16 1.926(16) 1_555 n
Fe6 Li5 2.782(24) 101_545 n
Fe6 Li5 2.782(24) 101_555 n
Fe6 Li2 2.565(31) 101_545 n
Fe6 Li3 2.816(11) 101_545 n
Fe6 Li3 2.816(11) 101_555 n
Li5 Nb6 2.782(24) 101_544 n
Li5 Nb6 2.782(24) 101_554 n
Li5 O7 2.317(33) 1_555 n
Li5 O11 2.114(9) 101_544 n
Li5 O11 2.114(9) 101_554 n
Li5 O15 1.84(4) 1_555 n
Li5 Fe6 2.782(24) 101_544 n
Li5 Fe6 2.782(24) 101_554 n
Li5 Li4 2.88(4) 1_555 n
Li2 Nb6 2.565(31) 101_554 n
Li2 Nb6 2.565(31) 102_554 n
Li2 O1 2.43(4) 101_555 n
Li2 O3 1.90(5) 101_554 n
Li2 O16 1.897(18) 101_554 n
Li2 O16 1.897(18) 102_554 n
Li2 Fe6 2.565(31) 101_554 n
Li2 Fe6 2.565(31) 102_554 n
Li2 Li3 2.68(5) 1_555 n
Li2 Li3 2.68(5) 1_565 n
Li2 Li1 2.96(11) 101_545 n
Li2 Li1 2.96(11) 101_555 n
Li3 Nb6 2.816(11) 101_544 n
Li3 Nb6 2.816(11) 101_554 n
Li3 Nb6 2.816(11) 102_544 n
Li3 Nb6 2.816(11) 102_554 n
Li3 O3 2.049(8) 101_544 n
Li3 O3 2.049(8) 101_554 n
Li3 O15 2.007(16) 1_555 n
Li3 O15 2.007(16) 2_555 n
Li3 Fe6 2.816(11) 101_544 n
Li3 Fe6 2.816(11) 101_554 n
Li3 Fe6 2.816(11) 102_544 n
Li3 Fe6 2.816(11) 102_554 n
Li3 Li2 2.68(5) 1_545 n
Li3 Li2 2.68(5) 1_555 n
Li4 Nb3 2.635(17) 101_544 n
Li4 Nb3 2.635(17) 101_554 n
Li4 O4 2.391(26) 1_555 n
Li4 O4 2.677(30) -1_556 n
Li4 O7 1.823(24) 1_555 n
Li4 O8 2.142(9) 101_544 n
Li4 O8 2.142(9) 101_554 n
Li4 Fe3 2.635(17) 101_544 n
Li4 Fe3 2.635(17) 101_554 n
Li4 Li5 2.88(4) 1_555 n
Li1 Nb4 2.943(15) 1_555 n
Li1 Nb4 2.943(15) 1_565 n
Li1 Nb4 2.943(15) 2_555 n
Li1 Nb4 2.943(15) 2_565 n
Li1 O1 2.063(20) 1_555 n
Li1 O1 2.063(20) 1_565 n
Li1 O2 2.21(14) 101_554 n
Li1 O12 1.969(22) 101_554 n
Li1 O12 1.969(22) 102_554 n
Li1 Fe4 2.943(15) 1_555 n
Li1 Fe4 2.943(15) 1_565 n
Li1 Fe4 2.943(15) 2_555 n
Li1 Fe4 2.943(15) 2_565 n
Li1 Li2 2.96(11) 101_544 n
Li1 Li2 2.96(11) 101_554 n
Li6 Nb2 2.81(8) -1_556 n
Li6 Nb2 2.68(5) 101_544 n
Li6 Nb2 2.68(5) 101_554 n
Li6 Nb3 2.57(7) -1_556 n
Li6 O5 1.95(8) 1_555 n
Li6 O6 1.65(7) -1_556 n
Li6 O6 2.095(16) 101_544 n
Li6 O6 2.095(16) 101_554 n
Li6 O7 2.31(8) 1_555 n
Li6 Fe2 2.81(8) -1_556 n
Li6 Fe2 2.68(5) 101_544 n
Li6 Fe2 2.68(5) 101_554 n
Li6 Fe3 2.57(7) -1_556 n
Li6 Li6 2.46(8) -101_534 n
Li6 Li6 2.46(8) -101_544 n
Li7 Nb4 2.74(4) 1_555 n
Li7 Nb5 2.638(21) 101_544 n
Li7 Nb5 2.638(21) 101_554 n
Li7 O5 2.38(4) 1_555 n
Li7 O9 2.22(4) 1_555 n
Li7 O10 2.066(6) 101_544 n
Li7 O10 2.066(6) 101_554 n
Li7 O13 1.74(4) 1_555 n
Li7 Fe4 2.74(4) 1_555 n
Li7 Fe5 2.638(21) 101_544 n
Li7 Fe5 2.638(21) 101_554 n
loop_
_pd_meas_time_of_flight
_pd_proc_d_spacing
_pd_meas_intensity_total
_pd_proc_ls_weight
_pd_proc_intensity_bkg_calc
_pd_calc_intensity_total
31370.1 0.64951 1.14(7) 229.7 0.803 0.959
31379.6 0.64971 1.07(6) 268.4 0.803 0.958
31389.0 0.64990 1.10(6) 271.2 0.804 0.958
31398.4 0.65010 1.11(6) 254.5 0.804 0.960
31407.8 0.65029 1.02(6) 311.2 0.804 0.961
31417.2 0.65049 1.11(6) 261.6 0.804 0.963
31426.7 0.65068 1.09(6) 284.3 0.804 0.964
31436.1 0.65088 1.16(6) 262.6 0.805 0.965
31445.5 0.65107 1.15(6) 270.3 0.805 0.965
31454.9 0.65127 1.13(6) 260.3 0.805 0.964
31464.4 0.65146 1.10(6) 290.1 0.805 0.964
31473.8 0.65166 1.02(6) 322.9 0.805 0.964
31483.3 0.65185 1.12(6) 295.7 0.805 0.967
31492.7 0.65205 0.99(5) 340.9 0.806 0.972
31502.2 0.65225 0.97(5) 385. 0.806 0.981
31511.6 0.65244 1.11(6) 327.8 0.806 0.993
31521.1 0.65264 1.07(5) 358. 0.806 1.008
31530.5 0.65283 1.09(5) 337.0 0.806 1.025
31540.0 0.65303 1.17(6) 311.6 0.807 1.043
31549.4 0.65323 1.14(5) 338.8 0.807 1.060
31558.9 0.65342 1.17(6) 317.6 0.807 1.073
31568.4 0.65362 1.09(5) 357. 0.807 1.082
31577.8 0.65381 1.18(5) 335.7 0.807 1.084
31587.3 0.65401 1.11(5) 355. 0.807 1.081
31596.8 0.65421 1.14(5) 339.9 0.808 1.073
31606.3 0.65440 1.15(5) 355. 0.808 1.061
31615.8 0.65460 1.11(5) 358. 0.808 1.046
31625.2 0.65479 1.09(5) 394. 0.808 1.031
31634.7 0.65499 1.10(5) 375. 0.808 1.016
31644.2 0.65519 1.13(5) 367. 0.809 1.001
31653.7 0.65538 1.14(5) 376. 0.809 0.988
31663.2 0.65558 1.03(5) 422. 0.809 0.976
31672.7 0.65578 1.03(5) 432. 0.809 0.967
31682.2 0.65597 1.04(5) 444. 0.809 0.959
31691.7 0.65617 1.08(5) 408. 0.810 0.952
31701.2 0.65637 1.04(5) 454. 0.810 0.948
31710.7 0.65657 1.00(5) 474. 0.810 0.944
31720.2 0.65676 1.02(5) 452. 0.810 0.942
31729.8 0.65696 1.00(5) 470. 0.810 0.941
31739.3 0.65716 1.03(5) 447. 0.810 0.941
31748.8 0.65735 1.06(5) 453. 0.811 0.942
31758.3 0.65755 1.06(5) 441. 0.811 0.944
31767.9 0.65775 1.10(5) 463. 0.811 0.946
31777.4 0.65795 1.07(5) 434. 0.811 0.950
31786.9 0.65814 1.09(5) 467. 0.811 0.954
31796.5 0.65834 1.01(4) 526. 0.812 0.958
31806.0 0.65854 1.09(5) 464. 0.812 0.962
31815.5 0.65874 1.09(5) 474. 0.812 0.966
31825.1 0.65893 1.12(5) 469. 0.812 0.968
31834.6 0.65913 1.05(4) 536. 0.812 0.968
31844.2 0.65933 1.04(4) 519. 0.812 0.967
31853.7 0.65953 1.05(4) 542. 0.813 0.962
31863.3 0.65972 0.99(4) 577. 0.813 0.956
31872.8 0.65992 1.05(4) 534. 0.813 0.949
31882.4 0.66012 1.07(4) 524. 0.813 0.942
31892.0 0.66032 1.00(4) 587. 0.813 0.934
31901.5 0.66052 1.13(5) 485. 0.814 0.928
31911.1 0.66072 1.00(4) 612. 0.814 0.922
31920.7 0.66091 1.02(4) 578. 0.814 0.917
31930.3 0.66111 1.08(4) 558. 0.814 0.914
31939.8 0.66131 1.02(4) 598. 0.814 0.912
31949.4 0.66151 1.00(4) 618. 0.814 0.912
31959.0 0.66171 1.02(4) 606. 0.815 0.912
31968.6 0.66191 1.01(4) 589. 0.815 0.914
31978.2 0.66210 1.05(4) 609. 0.815 0.917
31987.8 0.66230 1.02(4) 647. 0.815 0.921
31997.4 0.66250 1.07(4) 586. 0.815 0.924
32007.0 0.66270 0.96(4) 709. 0.816 0.928
32016.6 0.66290 1.01(4) 640. 0.816 0.931
32026.2 0.66310 1.02(4) 667. 0.816 0.934
32035.8 0.66330 1.01(4) 680. 0.816 0.937
32045.4 0.66350 1.03(4) 634. 0.816 0.939
32055.0 0.66370 1.06(4) 654. 0.816 0.942
32064.6 0.66389 0.99(4) 690. 0.817 0.945
32074.2 0.66409 1.09(4) 606. 0.817 0.949
32083.9 0.66429 0.99(4) 704. 0.817 0.952
32093.5 0.66449 1.04(4) 692. 0.817 0.956
32103.1 0.66469 0.95(4) 761. 0.817 0.959
32112.8 0.66489 1.00(4) 726. 0.818 0.963
32122.4 0.66509 0.99(4) 754. 0.818 0.966
32132.0 0.66529 0.99(4) 739. 0.818 0.970
32141.7 0.66549 1.01(4) 747. 0.818 0.973
32151.3 0.66569 1.02(4) 746. 0.818 0.976
32160.9 0.66589 1.01(4) 753. 0.818 0.979
32170.6 0.66609 1.02(4) 742. 0.819 0.981
32180.3 0.66629 1.01(4) 761. 0.819 0.983
32189.9 0.66649 1.02(4) 772. 0.819 0.983
32199.6 0.66669 1.06(4) 731. 0.819 0.983
32209.2 0.66689 0.99(4) 786. 0.819 0.982
32218.9 0.66709 1.01(4) 767. 0.819 0.981
32228.5 0.66729 1.01(4) 799. 0.820 0.979
32238.2 0.66749 0.948(34) 883. 0.8198 0.9780
32247.9 0.66769 0.973(34) 870. 0.8200 0.9770
32257.6 0.66789 0.999(34) 866. 0.8202 0.9764
32267.2 0.66809 1.11(4) 726. 0.820 0.976
32276.9 0.66829 1.05(4) 777. 0.821 0.977
32286.6 0.66849 1.06(4) 792. 0.821 0.977
32296.3 0.66869 1.035(35) 819. 0.8209 0.9779
32306.0 0.66889 1.001(34) 880. 0.8211 0.9788
32315.7 0.66909 0.944(32) 953. 0.8213 0.9799
32325.4 0.66929 1.020(34) 873. 0.8215 0.9813
32335.1 0.66950 0.998(34) 888. 0.8216 0.9829
32344.8 0.66970 1.006(34) 878. 0.8218 0.9849
32354.5 0.66990 1.014(33) 902. 0.8220 0.9874
32364.2 0.67010 1.025(34) 871. 0.8222 0.9903
32373.9 0.67030 1.062(35) 837. 0.8223 0.9936
32383.6 0.67050 1.004(33) 913. 0.8225 0.9968
32393.3 0.67070 1.035(33) 894. 0.8227 0.9995
32403.0 0.67090 0.968(32) 984. 0.8229 1.0014
32412.7 0.67110 0.980(32) 988. 0.8231 1.0020
32422.5 0.67131 1.059(34) 875. 0.8232 1.0013
32432.2 0.67151 1.015(32) 982. 0.8234 0.9992
32441.9 0.67171 1.028(32) 958. 0.8236 0.9958
32451.7 0.67191 1.004(32) 952. 0.8238 0.9912
32461.4 0.67211 1.002(31) 1019. 0.8239 0.9858
32471.1 0.67231 1.012(32) 981. 0.8241 0.9802
32480.9 0.67251 1.030(33) 939. 0.8243 0.9748
32490.6 0.67272 1.036(32) 957. 0.8245 0.9700
32500.4 0.67292 1.006(31) 1023. 0.8247 0.9663
32510.1 0.67312 1.001(31) 1036. 0.8248 0.9635
32519.9 0.67332 0.990(31) 1033. 0.8250 0.9619
32529.6 0.67352 1.048(32) 994. 0.8252 0.9612
32539.4 0.67373 1.016(32) 998. 0.8254 0.9615
32549.1 0.67393 0.997(31) 1032. 0.8255 0.9626
32558.9 0.67413 1.057(32) 957. 0.8257 0.9646
32568.7 0.67433 1.039(32) 999. 0.8259 0.9675
32578.4 0.67454 0.984(30) 1120. 0.8261 0.9715
32588.2 0.67474 1.023(31) 1046. 0.8262 0.9766
32598.0 0.67494 1.006(31) 1068. 0.8264 0.9831
32607.8 0.67514 1.026(30) 1081. 0.8266 0.9910
32617.6 0.67535 1.009(30) 1104. 0.8268 1.0003
32627.3 0.67555 1.072(32) 1004. 0.8270 1.0106
32637.1 0.67575 1.071(32) 1000. 0.8271 1.0214
32646.9 0.67595 1.049(31) 1030. 0.8273 1.0322
32656.7 0.67616 1.076(31) 1031. 0.8275 1.0422
32666.5 0.67636 1.060(31) 1062. 0.8277 1.0507
32676.3 0.67656 1.078(31) 1022. 0.8278 1.0577
32686.1 0.67677 1.111(32) 993. 0.8280 1.0635
32695.9 0.67697 1.143(32) 981. 0.8282 1.0687
32705.7 0.67717 1.096(31) 1060. 0.8284 1.0742
32715.5 0.67737 1.103(31) 1047. 0.8285 1.0806
32725.4 0.67758 1.116(31) 1031. 0.8287 1.0885
32735.2 0.67778 1.107(31) 1060. 0.8289 1.0980
32745.0 0.67798 1.142(31) 1016. 0.8291 1.1093
32754.8 0.67819 1.155(31) 1019. 0.8292 1.1224
32764.7 0.67839 1.102(30) 1091. 0.8294 1.1369
32774.5 0.67860 1.089(30) 1084. 0.8296 1.1527
32784.3 0.67880 1.179(31) 1021. 0.8298 1.1690
32794.1 0.67900 1.201(32) 988. 0.8299 1.1855
32804.0 0.67921 1.165(31) 1031. 0.8301 1.2013
32813.8 0.67941 1.175(31) 1025. 0.8303 1.2159
32823.7 0.67961 1.251(32) 952. 0.8305 1.2284
32833.5 0.67982 1.260(32) 972. 0.8306 1.2382
32843.4 0.68002 1.256(32) 985. 0.8308 1.2450
32853.2 0.68023 1.230(31) 1032. 0.8310 1.2487
32863.1 0.68043 1.223(31) 1041. 0.8312 1.2494
32872.9 0.68063 1.287(32) 962. 0.8313 1.2481
32882.8 0.68084 1.243(32) 1001. 0.8315 1.2458
32892.7 0.68104 1.269(32) 978. 0.8317 1.2437
32902.5 0.68125 1.268(32) 981. 0.8319 1.2428
32912.4 0.68145 1.233(31) 1049. 0.8320 1.2440
32922.3 0.68166 1.247(31) 1064. 0.8322 1.2477
32932.1 0.68186 1.260(31) 1054. 0.8324 1.2540
32942.0 0.68207 1.297(32) 998. 0.8326 1.2626
32951.9 0.68227 1.299(32) 989. 0.8327 1.2726
32961.8 0.68247 1.265(31) 1038. 0.8329 1.2829
32971.7 0.68268 1.295(31) 1024. 0.8331 1.2919
32981.6 0.68288 1.265(31) 1033. 0.8333 1.2982
32991.5 0.68309 1.278(31) 1016. 0.8334 1.3007
33001.4 0.68329 1.271(31) 1050. 0.8336 1.2990
33011.3 0.68350 1.249(30) 1084. 0.8338 1.2937
33021.2 0.68370 1.272(31) 1073. 0.8339 1.2855
33031.1 0.68391 1.280(31) 1055. 0.8341 1.2752
33041.0 0.68411 1.248(31) 1069. 0.8343 1.2633
33050.9 0.68432 1.219(30) 1121. 0.8345 1.2503
33060.8 0.68453 1.207(30) 1132. 0.8346 1.2362
33070.7 0.68473 1.185(29) 1187. 0.8348 1.2213
33080.7 0.68494 1.238(29) 1157. 0.8350 1.2060
33090.6 0.68514 1.194(29) 1180. 0.8352 1.1907
33100.5 0.68535 1.183(29) 1188. 0.8353 1.1761
33110.4 0.68555 1.176(28) 1232. 0.8355 1.1627
33120.4 0.68576 1.147(28) 1246. 0.8357 1.1512
33130.3 0.68596 1.105(28) 1312. 0.8358 1.1418
33140.2 0.68617 1.144(28) 1233. 0.8360 1.1343
33150.2 0.68638 1.050(27) 1404. 0.8362 1.1286
33160.1 0.68658 1.094(27) 1331. 0.8364 1.1240
33170.1 0.68679 1.182(29) 1211. 0.8365 1.1200
33180.0 0.68699 1.122(28) 1316. 0.8367 1.1163
33190.0 0.68720 1.081(27) 1360. 0.8369 1.1127
33199.9 0.68741 1.139(28) 1305. 0.8371 1.1092
33209.9 0.68761 1.107(27) 1363. 0.8372 1.1064
33219.9 0.68782 1.148(28) 1289. 0.8374 1.1050
33229.8 0.68803 1.165(28) 1250. 0.8376 1.1057
33239.8 0.68823 1.095(27) 1384. 0.8377 1.1091
33249.8 0.68844 1.127(28) 1308. 0.8379 1.1153
33259.8 0.68865 1.102(27) 1364. 0.8381 1.1243
33269.7 0.68885 1.169(28) 1256. 0.8383 1.1357
33279.7 0.68906 1.110(27) 1378. 0.8384 1.1487
33289.7 0.68927 1.154(28) 1306. 0.8386 1.1620
33299.7 0.68947 1.126(27) 1403. 0.8388 1.1741
33309.7 0.68968 1.127(27) 1384. 0.8389 1.1836
33319.7 0.68989 1.191(28) 1276. 0.8391 1.1892
33329.7 0.69009 1.208(28) 1310. 0.8393 1.1903
33339.7 0.69030 1.171(27) 1329. 0.8394 1.1864
33349.7 0.69051 1.153(27) 1337. 0.8396 1.1780
33359.7 0.69071 1.136(27) 1403. 0.8398 1.1664
33369.7 0.69092 1.128(27) 1403. 0.8400 1.1530
33379.7 0.69113 1.083(26) 1469. 0.8401 1.1395
33389.7 0.69134 1.100(26) 1464. 0.8403 1.1270
33399.7 0.69154 1.108(26) 1434. 0.8405 1.1166
33409.7 0.69175 1.119(26) 1459. 0.8406 1.1087
33419.8 0.69196 1.097(26) 1520. 0.8408 1.1034
33429.8 0.69217 1.119(26) 1440. 0.8410 1.1006
33439.8 0.69237 1.128(26) 1457. 0.8412 1.0999
33449.8 0.69258 1.148(26) 1425. 0.8413 1.1007
33459.9 0.69279 1.105(26) 1460. 0.8415 1.1024
33469.9 0.69300 1.160(27) 1401. 0.8417 1.1045
33480.0 0.69321 1.127(26) 1440. 0.8418 1.1065
33490.0 0.69341 1.114(26) 1450. 0.8420 1.1082
33500.0 0.69362 1.167(27) 1402. 0.8422 1.1096
33510.1 0.69383 1.135(26) 1464. 0.8423 1.1110
33520.2 0.69404 1.105(26) 1510. 0.8425 1.1128
33530.2 0.69425 1.134(26) 1431. 0.8427 1.1157
33540.3 0.69445 1.151(27) 1419. 0.8428 1.1205
33550.3 0.69466 1.133(26) 1454. 0.8430 1.1278
33560.4 0.69487 1.153(26) 1455. 0.8432 1.1378
33570.5 0.69508 1.165(26) 1476. 0.8434 1.1506
33580.5 0.69529 1.192(26) 1438. 0.8435 1.1656
33590.6 0.69550 1.191(26) 1437. 0.8437 1.1820
33600.7 0.69571 1.204(27) 1410. 0.8439 1.1984
33610.8 0.69591 1.222(27) 1405. 0.8440 1.2129
33620.8 0.69612 1.217(27) 1415. 0.8442 1.2236
33630.9 0.69633 1.222(27) 1400. 0.8444 1.2292
33641.0 0.69654 1.183(26) 1467. 0.8445 1.2289
33651.1 0.69675 1.201(26) 1444. 0.8447 1.2229
33661.2 0.69696 1.203(27) 1414. 0.8449 1.2114
33671.3 0.69717 1.133(25) 1548. 0.8450 1.1955
33681.4 0.69738 1.168(26) 1508. 0.8452 1.1765
33691.5 0.69759 1.132(25) 1562. 0.8454 1.1558
33701.6 0.69780 1.132(25) 1577. 0.8455 1.1347
33711.7 0.69801 1.098(25) 1637. 0.8457 1.1143
33721.8 0.69821 1.071(25) 1657. 0.8459 1.0954
33732.0 0.69842 1.084(25) 1654. 0.8460 1.0786
33742.1 0.69863 1.035(24) 1756. 0.8462 1.0643
33752.2 0.69884 1.101(25) 1618. 0.8464 1.0528
33762.3 0.69905 1.033(24) 1784. 0.8466 1.0440
33772.5 0.69926 1.093(25) 1656. 0.8467 1.0377
33782.6 0.69947 1.066(24) 1738. 0.8469 1.0338
33792.7 0.69968 1.028(24) 1785. 0.8471 1.0318
33802.9 0.69989 1.054(24) 1711. 0.8472 1.0315
33813.0 0.70010 1.069(25) 1657. 0.8474 1.0325
33823.1 0.70031 0.997(23) 1937. 0.8476 1.0345
33833.3 0.70052 1.068(24) 1758. 0.8477 1.0370
33843.4 0.70073 1.067(24) 1714. 0.8479 1.0399
33853.6 0.70094 1.027(23) 1852. 0.8481 1.0430
33863.8 0.70115 1.010(23) 1835. 0.8482 1.0463
33873.9 0.70136 1.018(23) 1850. 0.8484 1.0496
33884.1 0.70157 1.016(23) 1857. 0.8486 1.0527
33894.2 0.70179 1.011(23) 1897. 0.8487 1.0554
33904.4 0.70200 1.063(24) 1786. 0.8489 1.0575
33914.6 0.70221 1.056(24) 1755. 0.8491 1.0588
33924.8 0.70242 1.047(24) 1800. 0.8492 1.0594
33934.9 0.70263 1.020(23) 1883. 0.8494 1.0591
33945.1 0.70284 1.015(23) 1891. 0.8496 1.0580
33955.3 0.70305 1.045(23) 1818. 0.8497 1.0563
33965.5 0.70326 0.981(22) 1987. 0.8499 1.0542
33975.7 0.70347 1.059(23) 1816. 0.8500 1.0519
33985.9 0.70368 1.046(23) 1845. 0.8502 1.0499
33996.1 0.70389 1.033(23) 1882. 0.8504 1.0483
34006.3 0.70410 1.061(23) 1813. 0.8505 1.0473
34016.5 0.70432 1.027(23) 1908. 0.8507 1.0469
34026.7 0.70453 1.040(23) 1930. 0.8509 1.0470
34036.9 0.70474 0.999(22) 2033. 0.8510 1.0472
34047.1 0.70495 1.042(23) 1884. 0.8512 1.0474
34057.3 0.70516 1.053(23) 1828. 0.8514 1.0470
34067.5 0.70537 1.019(23) 1953. 0.8515 1.0460
34077.7 0.70559 1.033(23) 1926. 0.8517 1.0440
34088.0 0.70580 1.043(23) 1886. 0.8519 1.0412
34098.2 0.70601 1.032(22) 1981. 0.8520 1.0378
34108.4 0.70622 1.033(23) 1949. 0.8522 1.0337
34118.7 0.70643 1.009(22) 1995. 0.8524 1.0292
34128.9 0.70664 0.998(22) 2083. 0.8525 1.0244
34139.1 0.70686 1.021(22) 2003. 0.8527 1.0193
34149.4 0.70707 0.987(22) 2080. 0.8529 1.0140
34159.6 0.70728 0.990(22) 2029. 0.8530 1.0084
34169.9 0.70749 1.006(22) 2064. 0.8532 1.0028
34180.1 0.70771 0.998(22) 2061. 0.8533 0.9973
34190.4 0.70792 1.016(22) 2012. 0.8535 0.9919
34200.6 0.70813 1.006(22) 2060. 0.8537 0.9869
34210.9 0.70834 1.008(22) 2075. 0.8538 0.9825
34221.1 0.70856 0.982(22) 2110. 0.8540 0.9786
34231.4 0.70877 0.963(21) 2213. 0.8542 0.9754
34241.7 0.70898 0.994(22) 2097. 0.8543 0.9730
34252.0 0.70919 0.979(22) 2105. 0.8545 0.9715
34262.2 0.70941 0.971(21) 2192. 0.8547 0.9710
34272.5 0.70962 0.998(22) 2107. 0.8548 0.9713
34282.8 0.70983 1.025(22) 2035. 0.8550 0.9723
34293.1 0.71004 1.032(22) 2034. 0.8551 0.9737
34303.4 0.71026 0.983(22) 2162. 0.8553 0.9752
34313.7 0.71047 0.989(21) 2180. 0.8555 0.9767
34323.9 0.71068 0.995(22) 2129. 0.8556 0.9780
34334.2 0.71090 0.974(22) 2144. 0.8558 0.9792
34344.5 0.71111 1.014(22) 2054. 0.8560 0.9802
34354.8 0.71132 1.001(22) 2146. 0.8561 0.9810
34365.2 0.71154 0.997(21) 2183. 0.8563 0.9818
34375.5 0.71175 0.991(21) 2203. 0.8564 0.9826
34385.8 0.71196 1.002(22) 2153. 0.8566 0.9837
34396.1 0.71218 0.984(21) 2220. 0.8568 0.9849
34406.4 0.71239 1.013(21) 2167. 0.8569 0.9861
34416.7 0.71261 1.005(22) 2136. 0.8571 0.9873
34427.1 0.71282 0.994(21) 2241. 0.8573 0.9881
34437.4 0.71303 1.024(22) 2115. 0.8574 0.9884
34447.7 0.71325 1.029(21) 2223. 0.8576 0.9882
34458.1 0.71346 1.052(22) 2092. 0.8577 0.9874
34468.4 0.71368 1.006(21) 2190. 0.8579 0.9862
34478.7 0.71389 1.044(22) 2102. 0.8581 0.9850
34489.1 0.71410 1.031(22) 2162. 0.8582 0.9839
34499.4 0.71432 1.036(22) 2136. 0.8584 0.9834
34509.8 0.71453 1.024(21) 2167. 0.8586 0.9835
34520.1 0.71475 1.008(21) 2259. 0.8587 0.9845
34530.5 0.71496 1.003(21) 2289. 0.8589 0.9865
34540.8 0.71518 1.002(21) 2307. 0.8590 0.9894
34551.2 0.71539 1.034(21) 2167. 0.8592 0.9931
34561.6 0.71560 1.020(21) 2221. 0.8594 0.9975
34571.9 0.71582 1.019(21) 2246. 0.8595 1.0024
34582.3 0.71603 1.023(21) 2210. 0.8597 1.0077
34592.7 0.71625 1.032(21) 2195. 0.8598 1.0132
34603.1 0.71646 1.025(21) 2247. 0.8600 1.0190
34613.4 0.71668 1.055(22) 2161. 0.8602 1.0250
34623.8 0.71689 1.018(21) 2272. 0.8603 1.0312
34634.2 0.71711 1.022(21) 2281. 0.8605 1.0378
34644.6 0.71732 1.041(21) 2266. 0.8606 1.0448
34655.0 0.71754 1.052(21) 2222. 0.8608 1.0525
34665.4 0.71776 1.036(21) 2263. 0.8610 1.0610
34675.8 0.71797 1.079(22) 2149. 0.8611 1.0700
34686.2 0.71819 1.090(21) 2188. 0.8613 1.0795
34696.6 0.71840 1.067(21) 2226. 0.8614 1.0892
34707.0 0.71862 1.096(21) 2170. 0.8616 1.0987
34717.4 0.71883 1.103(22) 2158. 0.8618 1.1078
34727.8 0.71905 1.125(22) 2108. 0.8619 1.1157
34738.3 0.71926 1.079(21) 2240. 0.8621 1.1222
34748.7 0.71948 1.140(22) 2083. 0.8622 1.1269
34759.1 0.71970 1.133(22) 2149. 0.8624 1.1294
34769.5 0.71991 1.132(21) 2182. 0.8626 1.1296
34780.0 0.72013 1.104(21) 2231. 0.8627 1.1274
34790.4 0.72034 1.148(22) 2058. 0.8629 1.1228
34800.8 0.72056 1.126(22) 2154. 0.8630 1.1160
34811.3 0.72078 1.137(21) 2186. 0.8632 1.1074
34821.7 0.72099 1.117(21) 2212. 0.8634 1.0974
34832.2 0.72121 1.098(21) 2262. 0.8635 1.0868
34842.6 0.72143 1.115(21) 2208. 0.8637 1.0761
34853.1 0.72164 1.078(21) 2293. 0.8638 1.0661
34863.5 0.72186 1.031(20) 2418. 0.8640 1.0574
34874.0 0.72207 1.078(21) 2276. 0.8642 1.0504
34884.4 0.72229 1.063(20) 2386. 0.8643 1.0456
34894.9 0.72251 1.086(21) 2346. 0.8645 1.0435
34905.4 0.72273 1.069(21) 2367. 0.8646 1.0446
34915.8 0.72294 1.068(21) 2342. 0.8648 1.0490
34926.3 0.72316 1.065(20) 2407. 0.8649 1.0571
34936.8 0.72338 1.059(20) 2443. 0.8651 1.0686
34947.3 0.72359 1.132(21) 2211. 0.8653 1.0833
34957.8 0.72381 1.121(21) 2259. 0.8654 1.1003
34968.2 0.72403 1.204(22) 2092. 0.8656 1.1186
34978.7 0.72424 1.173(21) 2214. 0.8657 1.1363
34989.2 0.72446 1.162(21) 2213. 0.8659 1.1515
34999.7 0.72468 1.158(21) 2279. 0.8660 1.1624
35010.2 0.72490 1.198(21) 2176. 0.8662 1.1682
35020.7 0.72511 1.151(21) 2283. 0.8664 1.1692
35031.2 0.72533 1.156(21) 2300. 0.8665 1.1669
35041.7 0.72555 1.145(21) 2308. 0.8667 1.1627
35052.3 0.72577 1.146(21) 2317. 0.8668 1.1582
35062.8 0.72598 1.152(21) 2333. 0.8670 1.1544
35073.3 0.72620 1.156(21) 2274. 0.8671 1.1518
35084. 0.72642 1.156(21) 2275. 0.8673 1.1506
35094. 0.72664 1.129(21) 2352. 0.8675 1.1502
35105. 0.72686 1.163(21) 2265. 0.8676 1.1503
35115. 0.72707 1.142(21) 2314. 0.8678 1.1502
35126. 0.72729 1.140(20) 2386. 0.8679 1.1494
35136. 0.72751 1.126(20) 2414. 0.8681 1.1476
35147. 0.72773 1.122(20) 2413. 0.8682 1.1447
35158. 0.72795 1.110(20) 2463. 0.8684 1.1407
35168. 0.72817 1.100(20) 2483. 0.8686 1.1356
35179. 0.72838 1.119(21) 2375. 0.8687 1.1294
35189. 0.72860 1.129(20) 2425. 0.8689 1.1223
35200. 0.72882 1.081(20) 2529. 0.8690 1.1142
35210. 0.72904 1.080(20) 2552. 0.8692 1.1054
35221. 0.72926 1.128(20) 2416. 0.8693 1.0962
35231. 0.72948 1.085(20) 2522. 0.8695 1.0867
35242. 0.72970 1.082(20) 2550. 0.8696 1.0772
35253. 0.72992 1.075(20) 2541. 0.8698 1.0677
35263. 0.73014 1.040(19) 2674. 0.8700 1.0585
35274. 0.73035 1.044(19) 2697. 0.8701 1.0499
35284. 0.73057 1.012(19) 2718. 0.8703 1.0419
35295. 0.73079 0.991(19) 2815. 0.8704 1.0348
35306. 0.73101 1.004(19) 2758. 0.8706 1.0285
35316. 0.73123 0.999(19) 2786. 0.8707 1.0231
35327. 0.73145 0.994(19) 2853. 0.8709 1.0186
35337. 0.73167 1.030(19) 2717. 0.8710 1.0150
35348. 0.73189 1.028(19) 2695. 0.8712 1.0121
35359. 0.73211 1.000(19) 2833. 0.8713 1.0100
35369. 0.73233 1.003(19) 2866. 0.8715 1.0085
35380. 0.73255 1.013(19) 2796. 0.8717 1.0077
35390. 0.73277 1.024(19) 2727. 0.8718 1.0075
35401. 0.73299 0.980(19) 2893. 0.8720 1.0079
35412. 0.73321 1.012(19) 2796. 0.8721 1.0090
35422. 0.73343 1.010(19) 2817. 0.8723 1.0106
35433. 0.73365 1.008(19) 2876. 0.8724 1.0128
35443. 0.73387 1.023(19) 2832. 0.8726 1.0152
35454. 0.73409 1.025(19) 2826. 0.8727 1.0175
35465. 0.73431 1.028(19) 2839. 0.8729 1.0196
35475. 0.73453 1.037(19) 2838. 0.8730 1.0213
35486. 0.73475 1.023(19) 2823. 0.8732 1.0228
35497. 0.73497 1.013(19) 2865. 0.8734 1.0246
35507. 0.73519 1.024(19) 2898. 0.8735 1.0270
35518. 0.73541 1.040(19) 2799. 0.8737 1.0301
35529. 0.73563 1.040(19) 2799. 0.8738 1.0341
35539. 0.73585 1.036(19) 2828. 0.8740 1.0389
35550. 0.73607 1.068(19) 2779. 0.8741 1.0443
35561. 0.73629 1.058(19) 2808. 0.8743 1.0502
35571. 0.73652 1.049(19) 2885. 0.8744 1.0563
35582. 0.73674 1.048(18) 2957. 0.8746 1.0624
35593. 0.73696 1.103(19) 2718. 0.8747 1.0680
35603. 0.73718 1.055(19) 2838. 0.8749 1.0725
35614. 0.73740 1.061(19) 2857. 0.8750 1.0754
35625. 0.73762 1.044(18) 2958. 0.8752 1.0764
35635. 0.73784 1.054(19) 2832. 0.8753 1.0755
35646. 0.73806 1.063(19) 2782. 0.8755 1.0732
35657. 0.73829 1.047(19) 2898. 0.8756 1.0699
35667. 0.73851 1.008(18) 3078. 0.8758 1.0661
35678. 0.73873 1.056(19) 2917. 0.8759 1.0623
35689. 0.73895 1.028(18) 2991. 0.8761 1.0589
35700. 0.73917 1.025(18) 2967. 0.8762 1.0561
35710. 0.73939 1.031(18) 3018. 0.8764 1.0539
35721. 0.73962 1.019(18) 3058. 0.8766 1.0523
35732. 0.73984 1.043(18) 2985. 0.8767 1.0514
35742. 0.74006 1.014(18) 3087. 0.8769 1.0513
35753. 0.74028 1.024(18) 3049. 0.8770 1.0522
35764. 0.74050 1.029(18) 3071. 0.8772 1.0543
35775. 0.74073 1.033(18) 3007. 0.8773 1.0576
35785. 0.74095 1.032(18) 2967. 0.8775 1.0620
35796. 0.74117 1.061(18) 2927. 0.8776 1.0673
35807. 0.74139 1.038(18) 3050. 0.8778 1.0731
35818. 0.74162 1.023(18) 3094. 0.8779 1.0790
35828. 0.74184 1.040(18) 3080. 0.8781 1.0844
35839. 0.74206 1.069(18) 2948. 0.8782 1.0891
35850. 0.74228 1.082(18) 2948. 0.8784 1.0930
35861. 0.74251 1.052(18) 3015. 0.8785 1.0960
35871. 0.74273 1.053(18) 3059. 0.8787 1.0981
35882. 0.74295 1.044(18) 3086. 0.8788 1.0994
35893. 0.74317 1.095(19) 2911. 0.8790 1.1000
35904. 0.74340 1.073(18) 3006. 0.8791 1.0998
35914. 0.74362 1.062(18) 3001. 0.8793 1.0990
35925. 0.74384 1.066(18) 3004. 0.8794 1.0977
35936. 0.74407 1.101(19) 2912. 0.8796 1.0962
35947. 0.74429 1.068(18) 3038. 0.8797 1.0947
35957. 0.74451 1.058(18) 3066. 0.8799 1.0934
35968. 0.74474 1.054(18) 3084. 0.8800 1.0927
35979. 0.74496 1.040(18) 3208. 0.8802 1.0928
35990. 0.74518 1.068(18) 3079. 0.8803 1.0937
36001. 0.74541 1.069(18) 3004. 0.8805 1.0956
36011. 0.74563 1.057(18) 3091. 0.8806 1.0981
36022. 0.74585 1.047(18) 3144. 0.8808 1.1009
36033. 0.74608 1.061(18) 3112. 0.8809 1.1037
36044. 0.74630 1.067(18) 3085. 0.8811 1.1063
36055. 0.74653 1.062(18) 3108. 0.8812 1.1084
36065. 0.74675 1.076(18) 3098. 0.8814 1.1098
36076. 0.74697 1.071(18) 3037. 0.8815 1.1105
36087. 0.74720 1.074(18) 3077. 0.8817 1.1102
36098. 0.74742 1.048(18) 3189. 0.8818 1.1088
36109. 0.74765 1.043(18) 3205. 0.8819 1.1066
36120. 0.74787 1.073(18) 3127. 0.8821 1.1037
36130. 0.74810 1.041(18) 3250. 0.8822 1.1006
36141. 0.74832 1.079(18) 3097. 0.8824 1.0977
36152. 0.74854 1.052(18) 3168. 0.8825 1.0953
36163. 0.74877 1.017(17) 3372. 0.8827 1.0936
36174. 0.74899 1.041(17) 3267. 0.8828 1.0929
36185. 0.74922 1.046(18) 3238. 0.8830 1.0929
36196. 0.74944 1.044(18) 3256. 0.8831 1.0936
36206. 0.74967 1.042(17) 3301. 0.8833 1.0945
36217. 0.74989 1.063(18) 3243. 0.8834 1.0955
36228. 0.75012 1.038(17) 3316. 0.8836 1.0964
36239. 0.75034 1.012(17) 3439. 0.8837 1.0972
36250. 0.75057 1.013(17) 3420. 0.8839 1.0978
36261. 0.75079 1.058(18) 3226. 0.8840 1.0981
36272. 0.75102 1.057(17) 3307. 0.8842 1.0978
36282. 0.75124 1.056(18) 3251. 0.8843 1.0963
36293. 0.75147 1.050(17) 3299. 0.8845 1.0933
36304. 0.75170 1.040(17) 3347. 0.8846 1.0885
36315. 0.75192 1.021(17) 3384. 0.8847 1.0822
36326. 0.75215 1.016(17) 3407. 0.8849 1.0748
36337. 0.75237 1.033(17) 3305. 0.8850 1.0669
36348. 0.75260 0.999(17) 3528. 0.8852 1.0591
36359. 0.75282 1.008(17) 3561. 0.8853 1.0514
36370. 0.75305 1.005(17) 3475. 0.8855 1.0442
36381. 0.75328 1.000(17) 3588. 0.8856 1.0374
36391. 0.75350 1.023(17) 3425. 0.8858 1.0309
36402. 0.75373 0.983(17) 3608. 0.8859 1.0243
36413. 0.75395 1.011(17) 3548. 0.8861 1.0176
36424. 0.75418 0.980(17) 3605. 0.8862 1.0109
36435. 0.75441 0.996(17) 3522. 0.8864 1.0044
36446. 0.75463 0.964(16) 3684. 0.8865 0.9982
36457. 0.75486 0.987(17) 3575. 0.8866 0.9925
36468. 0.75509 0.985(17) 3653. 0.8868 0.9876
36479. 0.75531 0.964(16) 3683. 0.8869 0.9836
36490. 0.75554 0.950(16) 3860. 0.8871 0.9805
36501. 0.75577 0.981(17) 3588. 0.8872 0.9783
36512. 0.75599 0.983(16) 3684. 0.8874 0.9771
36523. 0.75622 0.957(16) 3866. 0.8875 0.9767
36534. 0.75645 0.962(16) 3817. 0.8877 0.9770
36545. 0.75667 0.982(16) 3767. 0.8878 0.9778
36556. 0.75690 0.981(16) 3781. 0.8880 0.9788
36567. 0.75713 0.962(16) 3907. 0.8881 0.9797
36578. 0.75735 0.968(16) 3802. 0.8882 0.9803
36588. 0.75758 0.983(16) 3694. 0.8884 0.9805
36599. 0.75781 0.970(16) 3724. 0.8885 0.9805
36610. 0.75804 0.969(16) 3817. 0.8887 0.9800
36621. 0.75826 0.973(16) 3827. 0.8888 0.9792
36632. 0.75849 0.977(16) 3739. 0.8890 0.9784
36643. 0.75872 0.951(16) 3853. 0.8891 0.9776
36654. 0.75895 0.933(16) 4058. 0.8892 0.9771
36665. 0.75917 0.964(16) 3876. 0.8894 0.9769
36676. 0.75940 0.971(16) 3792. 0.8895 0.9772
36687. 0.75963 0.954(16) 3990. 0.8897 0.9780
36698. 0.75986 0.956(16) 3894. 0.8898 0.9794
36709. 0.76009 0.987(16) 3732. 0.8900 0.9813
36720. 0.76031 0.968(16) 3907. 0.8901 0.9836
36731. 0.76054 0.958(16) 4019. 0.8903 0.9861
36742. 0.76077 0.960(16) 3993. 0.8904 0.9885
36753. 0.76100 0.954(16) 3951. 0.8905 0.9905
36765. 0.76123 0.976(16) 3853. 0.8907 0.9918
36776. 0.76146 0.965(16) 3919. 0.8908 0.9924
36787. 0.76168 0.966(16) 3985. 0.8910 0.9922
36798. 0.76191 0.967(16) 3938. 0.8911 0.9914
36809. 0.76214 0.970(16) 3903. 0.8913 0.9901
36820. 0.76237 0.958(16) 4026. 0.8914 0.9886
36831. 0.76260 0.961(16) 3991. 0.8915 0.9869
36842. 0.76283 0.928(15) 4225. 0.8917 0.9853
36853. 0.76306 0.983(16) 3904. 0.8918 0.9837
36864. 0.76329 0.962(16) 4024. 0.8920 0.9821
36875. 0.76351 0.973(16) 3933. 0.8921 0.9807
36886. 0.76374 0.984(16) 3829. 0.8922 0.9795
36897. 0.76397 0.983(16) 3982. 0.8924 0.9782
36908. 0.76420 0.955(16) 4124. 0.8925 0.9771
36919. 0.76443 0.963(16) 4077. 0.8927 0.9758
36930. 0.76466 0.960(16) 4025. 0.8928 0.9746
36941. 0.76489 0.940(15) 4193. 0.8930 0.9733
36952. 0.76512 0.955(16) 4161. 0.8931 0.9719
36964. 0.76535 0.939(15) 4244. 0.8932 0.9704
36975. 0.76558 0.966(16) 4050. 0.8934 0.9690
36986. 0.76581 0.939(15) 4264. 0.8935 0.9676
36997. 0.76604 0.956(16) 4111. 0.8937 0.9664
37008. 0.76627 0.985(16) 3953. 0.8938 0.9655
37019. 0.76650 0.948(15) 4261. 0.8939 0.9651
37030. 0.76673 0.937(15) 4277. 0.8941 0.9650
37041. 0.76696 0.959(16) 4095. 0.8942 0.9655
37052. 0.76719 0.945(15) 4215. 0.8944 0.9666
37063. 0.76742 0.949(15) 4228. 0.8945 0.9683
37075. 0.76765 0.959(16) 4157. 0.8946 0.9704
37086. 0.76788 0.943(15) 4238. 0.8948 0.9733
37097. 0.76811 0.941(15) 4293. 0.8949 0.9766
37108. 0.76834 0.943(15) 4395. 0.8951 0.9802
37119. 0.76857 0.957(15) 4247. 0.8952 0.9840
37130. 0.76880 0.961(15) 4235. 0.8953 0.9877
37141. 0.76903 0.933(15) 4402. 0.8955 0.9912
37153. 0.76926 0.945(15) 4307. 0.8956 0.9945
37164. 0.76949 0.931(15) 4392. 0.8958 0.9976
37175. 0.76972 0.939(15) 4366. 0.8959 1.0006
37186. 0.76995 0.944(15) 4416. 0.8960 1.0033
37197. 0.77019 0.970(15) 4170. 0.8962 1.0056
37208. 0.77042 0.986(15) 4166. 0.8963 1.0074
37219. 0.77065 0.976(15) 4213. 0.8965 1.0085
37231. 0.77088 0.962(15) 4312. 0.8966 1.0085
37242. 0.77111 0.952(15) 4368. 0.8967 1.0074
37253. 0.77134 0.952(15) 4353. 0.8969 1.0055
37264. 0.77157 0.988(16) 4148. 0.8970 1.0031
37275. 0.77181 0.988(15) 4177. 0.8972 1.0004
37286. 0.77204 0.985(16) 4162. 0.8973 0.9977
37298. 0.77227 0.984(16) 4159. 0.8974 0.9954
37309. 0.77250 0.983(15) 4236. 0.8976 0.9935
37320. 0.77273 0.997(15) 4239. 0.8977 0.9922
37331. 0.77296 0.964(15) 4429. 0.8978 0.9916
37342. 0.77320 1.006(15) 4164. 0.8980 0.9917
37354. 0.77343 1.006(15) 4178. 0.8981 0.9924
37365. 0.77366 0.981(15) 4318. 0.8983 0.9937
37376. 0.77389 0.963(15) 4485. 0.8984 0.9953
37387. 0.77412 0.998(15) 4276. 0.8985 0.9970
37398. 0.77436 1.000(15) 4204. 0.8987 0.9984
37410. 0.77459 0.996(15) 4251. 0.8988 0.9993
37421. 0.77482 1.006(15) 4205. 0.8989 0.9996
37432. 0.77505 1.015(15) 4183. 0.8991 0.9994
37443. 0.77529 0.966(15) 4509. 0.8992 0.9987
37455. 0.77552 0.972(15) 4492. 0.8994 0.9978
37466. 0.77575 0.983(15) 4380. 0.8995 0.9966
37477. 0.77598 0.977(15) 4434. 0.8996 0.9958
37488. 0.77622 0.990(15) 4366. 0.8998 0.9946
37500. 0.77645 0.957(15) 4561. 0.8999 0.9934
37511. 0.77668 0.999(15) 4339. 0.9000 0.9926
37522. 0.77692 0.988(15) 4476. 0.9002 0.9921
37533. 0.77715 1.006(15) 4293. 0.9003 0.9921
37545. 0.77738 0.991(15) 4389. 0.9004 0.9927
37556. 0.77762 0.994(15) 4387. 0.9006 0.9941
37567. 0.77785 1.019(15) 4275. 0.9007 0.9964
37578. 0.77808 1.026(15) 4246. 0.9009 0.9996
37590. 0.77832 1.027(15) 4291. 0.9010 1.0039
37601. 0.77855 1.030(15) 4313. 0.9011 1.0092
37612. 0.77878 0.993(15) 4513. 0.9013 1.0155
37624. 0.77902 1.034(15) 4240. 0.9014 1.0230
37635. 0.77925 1.012(15) 4375. 0.9015 1.0315
37646. 0.77948 1.029(15) 4312. 0.9017 1.0412
37657. 0.77972 1.024(15) 4311. 0.9018 1.0520
37669. 0.77995 1.039(15) 4272. 0.9019 1.0640
37680. 0.78019 1.068(15) 4227. 0.9021 1.0769
37691. 0.78042 1.077(15) 4198. 0.9022 1.0905
37703. 0.78065 1.100(16) 4028. 0.9023 1.1039
37714. 0.78089 1.127(16) 3978. 0.9025 1.1164
37725. 0.78112 1.148(16) 3923. 0.9026 1.1268
37737. 0.78136 1.130(16) 4041. 0.9028 1.1339
37748. 0.78159 1.131(16) 4054. 0.9029 1.1370
37759. 0.78183 1.111(16) 4130. 0.9030 1.1357
37771. 0.78206 1.123(16) 4064. 0.9032 1.1303
37782. 0.78230 1.141(16) 3940. 0.9033 1.1217
37793. 0.78253 1.137(16) 3942. 0.9034 1.1113
37805. 0.78277 1.130(16) 4018. 0.9036 1.1004
37816. 0.78300 1.114(16) 4136. 0.9037 1.0901
37827. 0.78324 1.093(15) 4218. 0.9038 1.0815
37839. 0.78347 1.101(16) 4135. 0.9040 1.0752
37850. 0.78370 1.085(15) 4264. 0.9041 1.0716
37861. 0.78394 1.075(15) 4323. 0.9042 1.0708
37873. 0.78418 1.097(16) 4157. 0.9044 1.0730
37884. 0.78441 1.080(15) 4274. 0.9045 1.0779
37895. 0.78465 1.084(15) 4253. 0.9046 1.0854
37907. 0.78488 1.090(15) 4293. 0.9048 1.0953
37918. 0.78512 1.084(15) 4280. 0.9049 1.1073
37929. 0.78535 1.113(15) 4225. 0.9050 1.1210
37941. 0.78559 1.083(15) 4348. 0.9052 1.1362
37952. 0.78582 1.117(16) 4153. 0.9053 1.1522
37964. 0.78606 1.100(15) 4340. 0.9054 1.1686
37975. 0.78630 1.123(15) 4211. 0.9056 1.1849
37986. 0.78653 1.137(15) 4185. 0.9057 1.2005
37998. 0.78677 1.138(15) 4189. 0.9058 1.2148
38009. 0.78700 1.161(16) 4036. 0.9060 1.2272
38021. 0.78724 1.164(16) 4082. 0.9061 1.2369
38032. 0.78748 1.176(16) 4059. 0.9062 1.2435
38043. 0.78771 1.165(16) 4125. 0.9064 1.2464
38055. 0.78795 1.197(16) 3979. 0.9065 1.2454
38066. 0.78819 1.184(16) 4009. 0.9066 1.2406
38078. 0.78842 1.188(16) 4043. 0.9067 1.2322
38089. 0.78866 1.185(16) 4132. 0.9069 1.2208
38101. 0.78889 1.182(16) 4128. 0.9070 1.2070
38112. 0.78913 1.170(16) 4108. 0.9071 1.1917
38123. 0.78937 1.147(15) 4219. 0.9073 1.1755
38135. 0.78961 1.134(15) 4250. 0.9074 1.1594
38146. 0.78984 1.093(15) 4448. 0.9075 1.1445
38158. 0.79008 1.086(15) 4480. 0.9077 1.1312
38169. 0.79032 1.083(15) 4529. 0.9078 1.1202
38181. 0.79055 1.114(15) 4390. 0.9079 1.1115
38192. 0.79079 1.105(15) 4417. 0.9081 1.1049
38204. 0.79103 1.083(15) 4552. 0.9082 1.0998
38215. 0.79127 1.092(15) 4540. 0.9083 1.0957
38226. 0.79150 1.100(15) 4461. 0.9085 1.0919
38238. 0.79174 1.091(15) 4543. 0.9086 1.0881
38249. 0.79198 1.099(15) 4511. 0.9087 1.0845
38261. 0.79222 1.096(15) 4523. 0.9088 1.0812
38272. 0.79245 1.109(15) 4471. 0.9090 1.0786
38284. 0.79269 1.088(15) 4529. 0.9091 1.0773
38295. 0.79293 1.081(15) 4612. 0.9092 1.0774
38307. 0.79317 1.097(15) 4532. 0.9094 1.0794
38318. 0.79340 1.086(15) 4605. 0.9095 1.0835
38330. 0.79364 1.114(15) 4501. 0.9096 1.0898
38341. 0.79388 1.127(15) 4423. 0.9098 1.0988
38353. 0.79412 1.109(15) 4491. 0.9099 1.1109
38364. 0.79436 1.132(15) 4528. 0.9100 1.1269
38376. 0.79460 1.149(15) 4422. 0.9101 1.1472
38387. 0.79483 1.180(15) 4272. 0.9103 1.1718
38399. 0.79507 1.206(15) 4181. 0.9104 1.2000
38410. 0.79531 1.235(16) 4101. 0.9105 1.2302
38422. 0.79555 1.253(16) 4032. 0.9107 1.2599
38433. 0.79579 1.303(16) 3867. 0.9108 1.2851
38445. 0.79603 1.275(16) 3946. 0.9109 1.3021
38456. 0.79627 1.273(16) 4018. 0.9110 1.3082
38468. 0.79650 1.246(16) 4079. 0.9112 1.3031
38480. 0.79674 1.185(15) 4270. 0.9113 1.2891
38491. 0.79698 1.179(15) 4369. 0.9114 1.2691
38503. 0.79722 1.211(15) 4235. 0.9116 1.2464
38514. 0.79746 1.186(15) 4298. 0.9117 1.2234
38526. 0.79770 1.140(15) 4588. 0.9118 1.2019
38537. 0.79794 1.136(15) 4548. 0.9119 1.1829
38549. 0.79818 1.151(15) 4514. 0.9121 1.1668
38560. 0.79842 1.151(15) 4434. 0.9122 1.1533
38572. 0.79866 1.105(15) 4714. 0.9123 1.1419
38584. 0.79890 1.091(15) 4750. 0.9125 1.1324
38595. 0.79914 1.102(15) 4751. 0.9126 1.1242
38607. 0.79938 1.119(15) 4707. 0.9127 1.1174
38618. 0.79962 1.102(14) 4766. 0.9128 1.1116
38630. 0.79986 1.086(14) 4864. 0.9130 1.1067
38641. 0.80010 1.102(14) 4795. 0.9131 1.1025
38653. 0.80034 1.100(15) 4744. 0.9132 1.0988
38665. 0.80058 1.072(14) 4952. 0.9133 1.0954
38676. 0.80082 1.101(15) 4732. 0.9135 1.0920
38688. 0.80106 1.104(15) 4753. 0.9136 1.0885
38699. 0.80130 1.093(14) 4862. 0.9137 1.0845
38711. 0.80154 1.099(14) 4796. 0.9139 1.0800
38723. 0.80178 1.069(14) 4935. 0.9140 1.0748
38734. 0.80202 1.054(14) 5073. 0.9141 1.0691
38746. 0.80226 1.076(14) 4914. 0.9142 1.0632
38758. 0.80250 1.057(14) 5069. 0.9144 1.0573
38769. 0.80274 1.047(14) 5112. 0.9145 1.0516
38781. 0.80298 1.051(14) 5132. 0.9146 1.0463
38792. 0.80322 1.021(14) 5288. 0.9147 1.0415
38804. 0.80347 1.021(14) 5243. 0.9149 1.0372
38816. 0.80371 1.011(14) 5386. 0.9150 1.0334
38827. 0.80395 1.008(14) 5350. 0.9151 1.0301
38839. 0.80419 1.030(14) 5246. 0.9152 1.0272
38851. 0.80443 1.027(14) 5212. 0.9154 1.0248
38862. 0.80467 1.000(14) 5441. 0.9155 1.0229
38874. 0.80491 1.013(14) 5260. 0.9156 1.0217
38886. 0.80515 1.001(14) 5448. 0.9157 1.0213
38897. 0.80540 0.991(13) 5487. 0.9159 1.0220
38909. 0.80564 1.000(14) 5332. 0.9160 1.0236
38921. 0.80588 0.999(14) 5421. 0.9161 1.0263
38932. 0.80612 0.996(14) 5477. 0.9162 1.0299
38944. 0.80636 1.001(14) 5420. 0.9164 1.0340
38956. 0.80660 1.014(14) 5399. 0.9165 1.0383
38967. 0.80685 1.027(14) 5302. 0.9166 1.0423
38979. 0.80709 1.023(14) 5345. 0.9167 1.0455
38991. 0.80733 1.033(14) 5396. 0.9169 1.0475
39002. 0.80757 1.074(14) 5093. 0.9170 1.0479
39014. 0.80782 1.031(14) 5395. 0.9171 1.0466
39026. 0.80806 1.055(14) 5188. 0.9172 1.0438
39038. 0.80830 1.045(14) 5279. 0.9174 1.0397
39049. 0.80854 1.040(14) 5363. 0.9175 1.0349
39061. 0.80879 1.063(14) 5217. 0.9176 1.0301
39073. 0.80903 1.062(14) 5184. 0.9177 1.0259
39084. 0.80927 1.070(14) 5128. 0.9178 1.0230
39096. 0.80951 1.035(14) 5434. 0.9180 1.0216
39108. 0.80976 1.045(14) 5324. 0.9181 1.0221
39120. 0.81000 1.023(13) 5509. 0.9182 1.0245
39131. 0.81024 1.028(13) 5541. 0.9183 1.0285
39143. 0.81049 1.051(14) 5336. 0.9185 1.0338
39155. 0.81073 1.047(14) 5393. 0.9186 1.0399
39167. 0.81097 1.049(14) 5322. 0.9187 1.0460
39178. 0.81122 1.029(14) 5422. 0.9188 1.0517
39190. 0.81146 1.058(14) 5269. 0.9190 1.0562
39202. 0.81170 1.042(14) 5388. 0.9191 1.0591
39214. 0.81195 1.047(14) 5439. 0.9192 1.0601
39225. 0.81219 1.035(14) 5429. 0.9193 1.0591
39237. 0.81243 1.051(14) 5363. 0.9194 1.0566
39249. 0.81268 1.030(13) 5515. 0.9196 1.0529
39261. 0.81292 1.045(14) 5356. 0.9197 1.0485
39272. 0.81317 1.041(14) 5459. 0.9198 1.0438
39284. 0.81341 1.031(13) 5546. 0.9199 1.0392
39296. 0.81365 1.056(14) 5421. 0.9201 1.0350
39308. 0.81390 1.040(13) 5501. 0.9202 1.0314
39320. 0.81414 1.047(14) 5456. 0.9203 1.0285
39331. 0.81439 1.034(13) 5597. 0.9204 1.0264
39343. 0.81463 1.027(13) 5576. 0.9205 1.0252
39355. 0.81487 1.029(13) 5613. 0.9207 1.0248
39367. 0.81512 1.029(13) 5597. 0.9208 1.0251
39379. 0.81536 1.043(14) 5473. 0.9209 1.0258
39390. 0.81561 1.040(13) 5542. 0.9210 1.0266
39402. 0.81585 1.020(13) 5654. 0.9211 1.0273
39414. 0.81610 1.019(13) 5746. 0.9213 1.0278
39426. 0.81634 1.010(13) 5827. 0.9214 1.0278
39438. 0.81659 1.021(13) 5660. 0.9215 1.0274
39450. 0.81683 1.031(13) 5652. 0.9216 1.0267
39461. 0.81708 1.025(13) 5652. 0.9217 1.0257
39473. 0.81732 1.045(13) 5625. 0.9219 1.0245
39485. 0.81757 1.042(13) 5589. 0.9220 1.0230
39497. 0.81781 1.035(13) 5562. 0.9221 1.0213
39509. 0.81806 1.057(14) 5440. 0.9222 1.0195
39521. 0.81830 1.028(13) 5652. 0.9223 1.0174
39532. 0.81855 1.014(13) 5740. 0.9225 1.0151
39544. 0.81880 1.028(13) 5680. 0.9226 1.0127
39556. 0.81904 1.017(13) 5779. 0.9227 1.0102
39568. 0.81929 1.033(13) 5577. 0.9228 1.0078
39580. 0.81953 1.024(13) 5695. 0.9229 1.0056
39592. 0.81978 1.018(13) 5753. 0.9231 1.0036
39604. 0.82002 1.042(13) 5558. 0.9232 1.0021
39616. 0.82027 1.027(13) 5779. 0.9233 1.0012
39627. 0.82052 1.041(13) 5632. 0.9234 1.0010
39639. 0.82076 1.011(13) 5925. 0.9235 1.0012
39651. 0.82101 1.016(13) 5842. 0.9237 1.0022
39663. 0.82126 1.029(13) 5728. 0.9238 1.0037
39675. 0.82150 1.028(13) 5740. 0.9239 1.0058
39687. 0.82175 1.036(13) 5631. 0.9240 1.0083
39699. 0.82200 1.047(13) 5664. 0.9241 1.0112
39711. 0.82224 1.025(13) 5847. 0.9242 1.0143
39723. 0.82249 1.051(13) 5691. 0.9244 1.0176
39735. 0.82274 1.051(13) 5646. 0.9245 1.0213
39746. 0.82298 1.053(13) 5707. 0.9246 1.0255
39758. 0.82323 1.018(13) 5985. 0.9247 1.0304
39770. 0.82348 1.064(13) 5584. 0.9248 1.0360
39782. 0.82372 1.072(13) 5532. 0.9250 1.0422
39794. 0.82397 1.053(13) 5625. 0.9251 1.0490
39806. 0.82422 1.062(13) 5751. 0.9252 1.0561
39818. 0.82446 1.095(13) 5566. 0.9253 1.0629
39830. 0.82471 1.106(13) 5494. 0.9254 1.0693
39842. 0.82496 1.097(13) 5641. 0.9255 1.0745
39854. 0.82521 1.105(13) 5538. 0.9257 1.0784
39866. 0.82545 1.128(14) 5382. 0.9258 1.0805
39878. 0.82570 1.131(14) 5361. 0.9259 1.0809
39890. 0.82595 1.111(14) 5354. 0.9260 1.0799
39902. 0.82620 1.112(14) 5343. 0.9261 1.0781
39914. 0.82645 1.123(14) 5229. 0.9262 1.0761
39926. 0.82669 1.110(14) 5259. 0.9264 1.0745
39938. 0.82694 1.148(14) 5015. 0.9265 1.0739
39950. 0.82719 1.123(14) 5088. 0.9266 1.0748
39962. 0.82744 1.143(14) 4910. 0.9267 1.0778
39974. 0.82769 1.122(15) 4685. 0.9268 1.0835
39986. 0.82793 1.134(15) 4314. 0.9269 1.0923
39998. 0.82818 1.143(16) 4136. 0.9270 1.1049
40010. 0.82843 1.127(16) 3969. 0.9272 1.1220
40022. 0.82868 1.153(16) 3813. 0.9273 1.1442
40034. 0.82893 1.191(16) 3684. 0.9274 1.1724
40046. 0.82918 1.226(17) 3583. 0.9275 1.2072
40058. 0.82943 1.286(17) 3367. 0.9276 1.2493
40070. 0.82968 1.359(18) 3254. 0.9277 1.2989
40082. 0.82992 1.444(18) 3014. 0.9279 1.3563
40094. 0.83017 1.509(19) 2898. 0.9280 1.4212
40106. 0.83042 1.619(19) 2672. 0.9281 1.4926
40118. 0.83067 1.649(19) 2642. 0.9282 1.5691
40130. 0.83092 1.703(20) 2592. 0.9283 1.6486
40142. 0.83117 1.768(20) 2500. 0.9284 1.7281
40154. 0.83142 1.818(20) 2396. 0.9285 1.8038
40166. 0.83167 1.839(20) 2400. 0.9287 1.8717
40178. 0.83192 1.937(21) 2259. 0.9288 1.9277
40190. 0.83217 1.935(21) 2281. 0.9289 1.9689
40202. 0.83242 1.929(21) 2305. 0.9290 1.9939
40214. 0.83267 1.926(21) 2343. 0.9291 2.0035
40226. 0.83292 1.939(21) 2283. 0.9292 2.0003
40238. 0.83317 1.915(20) 2382. 0.9293 1.9874
40250. 0.83342 1.898(21) 2365. 0.9295 1.9680
40262. 0.83367 1.885(20) 2382. 0.9296 1.9448
40275. 0.83392 1.877(20) 2389. 0.9297 1.9195
40287. 0.83417 1.831(20) 2494. 0.9298 1.8930
40299. 0.83442 1.822(20) 2516. 0.9299 1.8656
40311. 0.83467 1.822(20) 2513. 0.9300 1.8368
40323. 0.83492 1.819(20) 2517. 0.9301 1.8063
40335. 0.83517 1.761(19) 2641. 0.9302 1.7736
40347. 0.83542 1.749(19) 2676. 0.9304 1.7385
40359. 0.83567 1.741(19) 2652. 0.9305 1.7012
40371. 0.83592 1.701(19) 2806. 0.9306 1.6622
40383. 0.83617 1.700(19) 2741. 0.9307 1.6222
40396. 0.83642 1.665(19) 2824. 0.9308 1.5821
40408. 0.83667 1.598(18) 2993. 0.9309 1.5432
40420. 0.83693 1.553(18) 3019. 0.9310 1.5067
40432. 0.83718 1.511(18) 3108. 0.9311 1.4739
40444. 0.83743 1.484(18) 3257. 0.9313 1.4461
40456. 0.83768 1.457(18) 3262. 0.9314 1.4246
40468. 0.83793 1.414(17) 3390. 0.9315 1.4106
40480. 0.83818 1.413(17) 3434. 0.9316 1.4053
40493. 0.83843 1.429(17) 3447. 0.9317 1.4094
40505. 0.83868 1.439(17) 3564. 0.9318 1.4230
40517. 0.83894 1.486(17) 3498. 0.9319 1.4459
40529. 0.83919 1.542(17) 3397. 0.9320 1.4769
40541. 0.83944 1.585(17) 3413. 0.9322 1.5138
40553. 0.83969 1.585(17) 3478. 0.9323 1.5535
40566. 0.83994 1.622(17) 3473. 0.9324 1.5917
40578. 0.84020 1.635(17) 3518. 0.9325 1.6232
40590. 0.84045 1.662(17) 3499. 0.9326 1.6428
40602. 0.84070 1.645(17) 3611. 0.9327 1.6467
40614. 0.84095 1.641(16) 3705. 0.9328 1.6334
40626. 0.84120 1.581(16) 3903. 0.9329 1.6041
40639. 0.84146 1.530(16) 4118. 0.9330 1.5622
40651. 0.84171 1.499(15) 4261. 0.9331 1.5115
40663. 0.84196 1.436(15) 4409. 0.9333 1.4563
40675. 0.84221 1.398(15) 4573. 0.9334 1.4003
40687. 0.84247 1.369(15) 4717. 0.9335 1.3467
40700. 0.84272 1.306(14) 4956. 0.9336 1.2973
40712. 0.84297 1.267(14) 5062. 0.9337 1.2534
40724. 0.84323 1.261(14) 5148. 0.9338 1.2159
40736. 0.84348 1.218(14) 5226. 0.9339 1.1847
40748. 0.84373 1.190(14) 5385. 0.9340 1.1596
40761. 0.84399 1.172(14) 5460. 0.9341 1.1397
40773. 0.84424 1.138(13) 5675. 0.9342 1.1246
40785. 0.84449 1.145(13) 5628. 0.9344 1.1134
40797. 0.84474 1.105(13) 5876. 0.9345 1.1055
40810. 0.84500 1.117(13) 5805. 0.9346 1.1000
40822. 0.84525 1.117(13) 5768. 0.9347 1.0963
40834. 0.84551 1.096(13) 5911. 0.9348 1.0937
40846. 0.84576 1.101(13) 5904. 0.9349 1.0919
40859. 0.84601 1.087(13) 5957. 0.9350 1.0904
40871. 0.84627 1.120(13) 5749. 0.9351 1.0893
40883. 0.84652 1.089(13) 5983. 0.9352 1.0884
40895. 0.84677 1.077(13) 6034. 0.9353 1.0880
40908. 0.84703 1.097(13) 5979. 0.9354 1.0879
40920. 0.84728 1.110(13) 5817. 0.9355 1.0883
40932. 0.84754 1.095(13) 5976. 0.9357 1.0892
40944. 0.84779 1.113(13) 5798. 0.9358 1.0905
40957. 0.84805 1.123(13) 5806. 0.9359 1.0924
40969. 0.84830 1.120(13) 5803. 0.9360 1.0946
40981. 0.84856 1.135(13) 5778. 0.9361 1.0971
40994. 0.84881 1.154(13) 5645. 0.9362 1.0996
41006. 0.84906 1.146(13) 5639. 0.9363 1.1022
41018. 0.84932 1.159(13) 5689. 0.9364 1.1045
41031. 0.84957 1.148(13) 5742. 0.9365 1.1063
41043. 0.84983 1.145(13) 5740. 0.9366 1.1076
41055. 0.85008 1.171(13) 5544. 0.9367 1.1083
41067. 0.85034 1.184(14) 5462. 0.9368 1.1084
41080. 0.85059 1.156(13) 5695. 0.9369 1.1081
41092. 0.85085 1.170(13) 5640. 0.9371 1.1077
41104. 0.85110 1.144(13) 5738. 0.9372 1.1076
41117. 0.85136 1.153(13) 5653. 0.9373 1.1084
41129. 0.85162 1.141(13) 5670. 0.9374 1.1104
41141. 0.85187 1.121(13) 5798. 0.9375 1.1140
41154. 0.85213 1.160(13) 5566. 0.9376 1.1196
41166. 0.85238 1.108(13) 5932. 0.9377 1.1270
41178. 0.85264 1.127(13) 5752. 0.9378 1.1361
41191. 0.85289 1.127(13) 5855. 0.9379 1.1461
41203. 0.85315 1.142(13) 5742. 0.9380 1.1562
41216. 0.85341 1.127(13) 5839. 0.9381 1.1653
41228. 0.85366 1.148(13) 5802. 0.9382 1.1728
41240. 0.85392 1.173(13) 5607. 0.9383 1.1785
41253. 0.85417 1.175(13) 5659. 0.9384 1.1823
41265. 0.85443 1.194(13) 5498. 0.9385 1.1845
41277. 0.85469 1.193(14) 5486. 0.9386 1.1851
41290. 0.85494 1.177(13) 5627. 0.9387 1.1842
41302. 0.85520 1.169(13) 5715. 0.9388 1.1817
41315. 0.85546 1.183(13) 5613. 0.9390 1.1775
41327. 0.85571 1.179(13) 5611. 0.9391 1.1719
41339. 0.85597 1.177(13) 5700. 0.9392 1.1652
41352. 0.85623 1.168(13) 5754. 0.9393 1.1582
41364. 0.85648 1.179(13) 5639. 0.9394 1.1513
41377. 0.85674 1.165(13) 5649. 0.9395 1.1452
41389. 0.85700 1.157(13) 5747. 0.9396 1.1403
41401. 0.85725 1.166(13) 5678. 0.9397 1.1371
41414. 0.85751 1.168(13) 5718. 0.9398 1.1357
41426. 0.85777 1.150(13) 5813. 0.9399 1.1365
41439. 0.85803 1.156(13) 5719. 0.9400 1.1393
41451. 0.85828 1.175(13) 5623. 0.9401 1.1444
41464. 0.85854 1.179(13) 5651. 0.9402 1.1515
41476. 0.85880 1.154(13) 5724. 0.9403 1.1604
41488. 0.85906 1.197(13) 5530. 0.9404 1.1706
41501. 0.85931 1.170(13) 5705. 0.9405 1.1812
41513. 0.85957 1.176(13) 5711. 0.9406 1.1914
41526. 0.85983 1.180(13) 5657. 0.9407 1.2002
41538. 0.86009 1.208(13) 5514. 0.9408 1.2066
41551. 0.86035 1.230(14) 5404. 0.9409 1.2098
41563. 0.86060 1.203(13) 5543. 0.9410 1.2091
41576. 0.86086 1.215(14) 5447. 0.9411 1.2041
41588. 0.86112 1.178(13) 5707. 0.9412 1.1949
41601. 0.86138 1.172(13) 5669. 0.9413 1.1822
41613. 0.86164 1.156(13) 5771. 0.9414 1.1671
41626. 0.86190 1.144(13) 5941. 0.9415 1.1508
41638. 0.86216 1.149(13) 5832. 0.9416 1.1348
41651. 0.86241 1.139(13) 5900. 0.9417 1.1199
41663. 0.86267 1.130(13) 6013. 0.9418 1.1068
41676. 0.86293 1.130(13) 5884. 0.9419 1.0959
41688. 0.86319 1.123(13) 5959. 0.9420 1.0876
41701. 0.86345 1.100(13) 6128. 0.9422 1.0822
41713. 0.86371 1.115(13) 6052. 0.9423 1.0800
41726. 0.86397 1.103(13) 6006. 0.9424 1.0810
41738. 0.86423 1.113(13) 6082. 0.9425 1.0858
41751. 0.86449 1.114(13) 6013. 0.9426 1.0937
41763. 0.86475 1.108(13) 6064. 0.9427 1.1052
41776. 0.86501 1.128(13) 6013. 0.9428 1.1201
41788. 0.86526 1.135(13) 5946. 0.9429 1.1380
41801. 0.86552 1.161(13) 5810. 0.9430 1.1581
41813. 0.86578 1.177(13) 5743. 0.9431 1.1794
41826. 0.86604 1.221(14) 5465. 0.9432 1.2002
41838. 0.86630 1.242(14) 5469. 0.9433 1.2182
41851. 0.86656 1.237(13) 5491. 0.9434 1.2312
41863. 0.86682 1.250(14) 5370. 0.9435 1.2370
41876. 0.86708 1.232(14) 5440. 0.9436 1.2352
41889. 0.86734 1.215(13) 5550. 0.9437 1.2268
41901. 0.86760 1.196(13) 5618. 0.9438 1.2135
41914. 0.86786 1.167(13) 5798. 0.9439 1.1976
41926. 0.86812 1.184(13) 5726. 0.9440 1.1811
41939. 0.86839 1.174(13) 5729. 0.9441 1.1656
41951. 0.86865 1.150(13) 5915. 0.9442 1.1523
41964. 0.86891 1.168(13) 5745. 0.9443 1.1417
41977. 0.86917 1.179(13) 5646. 0.9444 1.1342
41989. 0.86943 1.149(13) 5892. 0.9445 1.1297
42002. 0.86969 1.160(13) 5865. 0.9446 1.1283
42014. 0.86995 1.135(13) 5942. 0.9447 1.1300
42027. 0.87021 1.140(13) 5930. 0.9448 1.1343
42040. 0.87047 1.160(13) 5843. 0.9449 1.1412
42052. 0.87073 1.159(13) 5842. 0.9450 1.1504
42065. 0.87099 1.184(13) 5722. 0.9451 1.1618
42077. 0.87126 1.217(13) 5575. 0.9452 1.1747
42090. 0.87152 1.228(13) 5546. 0.9452 1.1888
42103. 0.87178 1.219(13) 5558. 0.9453 1.2030
42115. 0.87204 1.247(14) 5443. 0.9454 1.2164
42128. 0.87230 1.236(13) 5526. 0.9455 1.2279
42141. 0.87256 1.243(13) 5488. 0.9456 1.2361
42153. 0.87283 1.259(14) 5367. 0.9457 1.2406
42166. 0.87309 1.243(14) 5450. 0.9458 1.2409
42179. 0.87335 1.235(14) 5477. 0.9459 1.2374
42191. 0.87361 1.240(14) 5438. 0.9460 1.2305
42204. 0.87387 1.230(14) 5457. 0.9461 1.2209
42217. 0.87414 1.210(13) 5554. 0.9462 1.2093
42229. 0.87440 1.201(13) 5630. 0.9463 1.1967
42242. 0.87466 1.192(13) 5684. 0.9464 1.1838
42255. 0.87492 1.176(13) 5777. 0.9465 1.1711
42267. 0.87519 1.154(13) 5932. 0.9466 1.1595
42280. 0.87545 1.147(13) 5875. 0.9467 1.1493
42293. 0.87571 1.136(13) 5953. 0.9468 1.1410
42305. 0.87597 1.118(13) 6002. 0.9469 1.1350
42318. 0.87624 1.141(13) 6042. 0.9470 1.1312
42331. 0.87650 1.138(13) 6001. 0.9471 1.1299
42343. 0.87676 1.127(13) 6008. 0.9472 1.1310
42356. 0.87703 1.120(13) 6028. 0.9473 1.1343
42369. 0.87729 1.137(13) 5953. 0.9474 1.1396
42381. 0.87755 1.146(13) 6002. 0.9475 1.1463
42394. 0.87781 1.141(13) 6001. 0.9476 1.1536
42407. 0.87808 1.136(13) 5917. 0.9477 1.1607
42420. 0.87834 1.160(13) 5896. 0.9478 1.1668
42432. 0.87861 1.181(13) 5715. 0.9479 1.1711
42445. 0.87887 1.165(13) 5880. 0.9480 1.1734
42458. 0.87913 1.155(13) 5925. 0.9481 1.1734
42471. 0.87940 1.157(13) 5824. 0.9482 1.1712
42483. 0.87966 1.152(13) 5905. 0.9483 1.1671
42496. 0.87992 1.156(13) 5928. 0.9483 1.1615
42509. 0.88019 1.159(13) 5821. 0.9484 1.1546
42522. 0.88045 1.151(13) 5915. 0.9485 1.1469
42534. 0.88072 1.158(13) 5829. 0.9486 1.1389
42547. 0.88098 1.132(13) 6053. 0.9487 1.1310
42560. 0.88124 1.146(13) 5943. 0.9488 1.1236
42573. 0.88151 1.132(13) 5980. 0.9489 1.1170
42585. 0.88177 1.124(13) 6095. 0.9490 1.1117
42598. 0.88204 1.136(13) 5930. 0.9491 1.1075
42611. 0.88230 1.125(13) 6010. 0.9492 1.1049
42624. 0.88257 1.106(13) 6216. 0.9493 1.1037
42637. 0.88283 1.128(13) 6025. 0.9494 1.1042
42649. 0.88310 1.095(13) 6280. 0.9495 1.1061
42662. 0.88336 1.118(13) 6152. 0.9496 1.1094
42675. 0.88363 1.122(13) 6107. 0.9497 1.1137
42688. 0.88389 1.110(13) 6137. 0.9498 1.1186
42700. 0.88416 1.121(13) 6124. 0.9499 1.1236
42713. 0.88442 1.113(13) 6036. 0.9499 1.1284
42726. 0.88469 1.125(13) 6104. 0.9500 1.1328
42739. 0.88495 1.129(13) 6079. 0.9501 1.1367
42752. 0.88522 1.123(13) 6073. 0.9502 1.1401
42765. 0.88549 1.132(13) 6038. 0.9503 1.1430
42777. 0.88575 1.116(13) 6052. 0.9504 1.1453
42790. 0.88602 1.127(13) 6066. 0.9505 1.1467
42803. 0.88628 1.144(13) 6000. 0.9506 1.1472
42816. 0.88655 1.123(13) 6127. 0.9507 1.1465
42829. 0.88681 1.153(13) 5860. 0.9508 1.1448
42842. 0.88708 1.151(13) 5923. 0.9509 1.1419
42854. 0.88735 1.128(13) 6083. 0.9510 1.1381
42867. 0.88761 1.120(13) 6127. 0.9511 1.1334
42880. 0.88788 1.119(13) 6064. 0.9512 1.1280
42893. 0.88815 1.153(13) 5883. 0.9512 1.1220
42906. 0.88841 1.122(13) 6082. 0.9513 1.1155
42919. 0.88868 1.109(13) 6175. 0.9514 1.1087
42932. 0.88895 1.102(13) 6247. 0.9515 1.1020
42945. 0.88921 1.106(13) 6170. 0.9516 1.0955
42957. 0.88948 1.095(13) 6244. 0.9517 1.0897
42970. 0.88975 1.117(13) 6112. 0.9518 1.0849
42983. 0.89001 1.078(12) 6413. 0.9519 1.0815
42996. 0.89028 1.098(13) 6311. 0.9520 1.0795
43009. 0.89055 1.111(13) 6127. 0.9521 1.0789
43022. 0.89081 1.098(13) 6364. 0.9522 1.0799
43035. 0.89108 1.106(13) 6253. 0.9522 1.0822
43048. 0.89135 1.113(13) 6188. 0.9523 1.0860
43061. 0.89162 1.117(13) 6164. 0.9524 1.0912
43074. 0.89188 1.091(13) 6328. 0.9525 1.0980
43086. 0.89215 1.132(13) 6100. 0.9526 1.1063
43099. 0.89242 1.151(13) 5868. 0.9527 1.1158
43112. 0.89269 1.152(13) 5908. 0.9528 1.1263
43125. 0.89295 1.153(13) 5920. 0.9529 1.1372
43138. 0.89322 1.171(13) 5909. 0.9530 1.1477
43151. 0.89349 1.178(13) 5842. 0.9531 1.1570
43164. 0.89376 1.181(13) 5774. 0.9532 1.1643
43177. 0.89403 1.178(13) 5825. 0.9532 1.1692
43190. 0.89429 1.202(13) 5679. 0.9533 1.1716
43203. 0.89456 1.192(13) 5707. 0.9534 1.1720
43216. 0.89483 1.185(13) 5761. 0.9535 1.1709
43229. 0.89510 1.179(13) 5847. 0.9536 1.1689
43242. 0.89537 1.181(13) 5835. 0.9537 1.1667
43255. 0.89564 1.161(13) 5971. 0.9538 1.1645
43268. 0.89591 1.181(13) 5839. 0.9539 1.1629
43281. 0.89617 1.194(13) 5716. 0.9540 1.1621
43294. 0.89644 1.182(13) 5823. 0.9540 1.1623
43307. 0.89671 1.206(13) 5601. 0.9541 1.1637
43320. 0.89698 1.195(13) 5738. 0.9542 1.1663
43333. 0.89725 1.163(13) 6010. 0.9543 1.1699
43346. 0.89752 1.168(13) 5866. 0.9544 1.1744
43359. 0.89779 1.193(13) 5727. 0.9545 1.1794
43372. 0.89806 1.218(13) 5609. 0.9546 1.1844
43385. 0.89833 1.188(13) 5775. 0.9547 1.1890
43398. 0.89860 1.202(13) 5697. 0.9548 1.1925
43411. 0.89887 1.217(13) 5675. 0.9548 1.1946
43424. 0.89914 1.214(13) 5625. 0.9549 1.1951
43437. 0.89941 1.203(13) 5710. 0.9550 1.1944
43450. 0.89968 1.200(13) 5786. 0.9551 1.1926
43463. 0.89995 1.199(13) 5780. 0.9552 1.1901
43476. 0.90022 1.214(13) 5648. 0.9553 1.1869
43489. 0.90049 1.200(13) 5763. 0.9554 1.1834
43502. 0.90076 1.176(13) 5846. 0.9555 1.1797
43515. 0.90103 1.183(13) 5815. 0.9555 1.1758
43528. 0.90130 1.190(13) 5708. 0.9556 1.1719
43541. 0.90157 1.160(13) 5960. 0.9557 1.1681
43554. 0.90184 1.167(13) 5883. 0.9558 1.1643
43567. 0.90211 1.157(13) 5973. 0.9559 1.1606
43580. 0.90238 1.127(13) 6155. 0.9560 1.1570
43593. 0.90265 1.140(13) 6016. 0.9561 1.1539
43607. 0.90292 1.152(13) 5918. 0.9561 1.1518
43620. 0.90319 1.141(13) 5957. 0.9562 1.1512
43633. 0.90346 1.154(13) 6005. 0.9563 1.1527
43646. 0.90373 1.155(13) 5900. 0.9564 1.1568
43659. 0.90401 1.151(13) 6010. 0.9565 1.1640
43672. 0.90428 1.158(13) 5985. 0.9566 1.1748
43685. 0.90455 1.182(13) 5906. 0.9567 1.1895
43698. 0.90482 1.198(13) 5793. 0.9567 1.2086
43711. 0.90509 1.218(13) 5754. 0.9568 1.2322
43724. 0.90536 1.272(14) 5419. 0.9569 1.2607
43738. 0.90563 1.319(14) 5289. 0.9570 1.2941
43751. 0.90591 1.373(14) 5055. 0.9571 1.3325
43764. 0.90618 1.472(15) 4624. 0.9572 1.3757
43777. 0.90645 1.488(15) 4684. 0.9573 1.4234
43790. 0.90672 1.560(15) 4385. 0.9573 1.4753
43803. 0.90699 1.630(15) 4252. 0.9574 1.5310
43816. 0.90727 1.701(16) 4054. 0.9575 1.5899
43829. 0.90754 1.733(16) 4031. 0.9576 1.6511
43843. 0.90781 1.779(16) 3869. 0.9577 1.7137
43856. 0.90808 1.810(16) 3864. 0.9578 1.7764
43869. 0.90836 1.888(16) 3691. 0.9578 1.8381
43882. 0.90863 1.928(17) 3623. 0.9579 1.8980
43895. 0.90890 1.951(17) 3592. 0.9580 1.9560
43908. 0.90917 2.010(17) 3488. 0.9581 2.0130
43922. 0.90945 2.105(17) 3300. 0.9582 2.0699
43935. 0.90972 2.223(18) 3113. 0.9583 2.1276
43948. 0.90999 2.278(18) 3027. 0.9584 2.1851
43961. 0.91026 2.317(18) 2962. 0.9584 2.2403
43974. 0.91054 2.334(18) 2947. 0.9585 2.2887
43988. 0.91081 2.327(18) 2987. 0.9586 2.3245
44001. 0.91108 2.277(18) 3068. 0.9587 2.3418
44014. 0.91136 2.299(18) 3046. 0.9588 2.3374
44027. 0.91163 2.272(18) 3081. 0.9589 2.3121
44040. 0.91190 2.236(18) 3096. 0.9589 2.2697
44054. 0.91218 2.202(18) 3165. 0.9590 2.2154
44067. 0.91245 2.162(18) 3242. 0.9591 2.1556
44080. 0.91273 2.132(17) 3316. 0.9592 2.0948
44093. 0.91300 2.124(17) 3278. 0.9593 2.0371
44106. 0.91327 2.069(17) 3351. 0.9593 1.9851
44120. 0.91355 2.044(17) 3385. 0.9594 1.9406
44133. 0.91382 1.962(17) 3590. 0.9595 1.9043
44146. 0.91410 1.946(17) 3607. 0.9596 1.8761
44159. 0.91437 1.896(16) 3705. 0.9597 1.8550
44173. 0.91464 1.879(16) 3695. 0.9598 1.8396
44186. 0.91492 1.825(16) 3828. 0.9598 1.8282
44199. 0.91519 1.802(16) 3888. 0.9599 1.8187
44212. 0.91547 1.789(16) 3945. 0.9600 1.8090
44226. 0.91574 1.780(16) 3961. 0.9601 1.7969
44239. 0.91602 1.747(16) 4008. 0.9602 1.7811
44252. 0.91629 1.754(16) 3993. 0.9602 1.7602
44265. 0.91657 1.761(16) 3927. 0.9603 1.7342
44279. 0.91684 1.734(16) 4032. 0.9604 1.7036
44292. 0.91712 1.670(15) 4167. 0.9605 1.6692
44305. 0.91739 1.647(15) 4257. 0.9606 1.6324
44319. 0.91767 1.630(15) 4283. 0.9607 1.5947
44332. 0.91794 1.578(15) 4465. 0.9607 1.5577
44345. 0.91822 1.540(15) 4544. 0.9608 1.5227
44359. 0.91849 1.507(15) 4646. 0.9609 1.4910
44372. 0.91877 1.467(14) 4768. 0.9610 1.4640
44385. 0.91905 1.462(15) 4735. 0.9611 1.4430
44398. 0.91932 1.426(14) 4913. 0.9611 1.4298
44412. 0.91960 1.418(14) 4965. 0.9612 1.4264
44425. 0.91987 1.409(14) 4947. 0.9613 1.4351
44438. 0.92015 1.377(14) 5090. 0.9614 1.4582
44452. 0.92043 1.394(14) 5096. 0.9615 1.4975
44465. 0.92070 1.453(14) 4835. 0.9615 1.5537
44478. 0.92098 1.522(15) 4628. 0.9616 1.6262
44492. 0.92125 1.647(15) 4303. 0.9617 1.7124
44505. 0.92153 1.785(16) 3938. 0.9618 1.8067
44518. 0.92181 1.902(16) 3684. 0.9619 1.9007
44532. 0.92208 2.003(17) 3529. 0.9619 1.9837
44545. 0.92236 2.071(17) 3406. 0.9620 2.0456
44559. 0.92264 2.059(17) 3420. 0.9621 2.0793
44572. 0.92291 2.080(17) 3364. 0.9622 2.0837
44585. 0.92319 2.003(17) 3526. 0.9622 2.0612
44599. 0.92347 2.012(17) 3496. 0.9623 2.0153
44612. 0.92374 1.889(16) 3785. 0.9624 1.9506
44625. 0.92402 1.837(16) 3844. 0.9625 1.8725
44639. 0.92430 1.780(16) 3951. 0.9626 1.7868
44652. 0.92458 1.661(15) 4269. 0.9626 1.6989
44666. 0.92485 1.591(15) 4451. 0.9627 1.6132
44679. 0.92513 1.520(15) 4653. 0.9628 1.5328
44692. 0.92541 1.474(14) 4766. 0.9629 1.4596
44706. 0.92569 1.388(14) 5099. 0.9630 1.3946
44719. 0.92596 1.341(14) 5240. 0.9630 1.3382
44733. 0.92624 1.290(13) 5518. 0.9631 1.2906
44746. 0.92652 1.260(13) 5669. 0.9632 1.2513
44759. 0.92680 1.251(13) 5710. 0.9633 1.2200
44773. 0.92708 1.213(13) 5863. 0.9633 1.1959
44786. 0.92735 1.207(13) 5832. 0.9634 1.1779
44800. 0.92763 1.194(13) 5887. 0.9635 1.1650
44813. 0.92791 1.180(13) 5994. 0.9636 1.1560
44827. 0.92819 1.174(13) 6150. 0.9636 1.1495
44840. 0.92847 1.176(13) 6034. 0.9637 1.1443
44854. 0.92875 1.159(13) 6093. 0.9638 1.1396
44867. 0.92903 1.158(13) 6142. 0.9639 1.1350
44880. 0.92930 1.157(13) 6077. 0.9640 1.1306
44894. 0.92958 1.156(13) 6134. 0.9640 1.1268
44907. 0.92986 1.132(13) 6303. 0.9641 1.1241
44921. 0.93014 1.141(13) 6241. 0.9642 1.1229
44934. 0.93042 1.147(13) 6171. 0.9643 1.1237
44948. 0.93070 1.139(13) 6248. 0.9643 1.1265
44961. 0.93098 1.133(13) 6269. 0.9644 1.1315
44975. 0.93126 1.146(13) 6174. 0.9645 1.1385
44988. 0.93154 1.139(13) 6189. 0.9646 1.1476
45002. 0.93182 1.158(13) 6027. 0.9646 1.1585
45015. 0.93210 1.174(13) 5970. 0.9647 1.1714
45029. 0.93238 1.165(13) 6103. 0.9648 1.1860
45042. 0.93266 1.176(13) 6021. 0.9649 1.2022
45056. 0.93294 1.177(13) 6132. 0.9649 1.2197
45069. 0.93322 1.223(13) 5832. 0.9650 1.2381
45083. 0.93350 1.238(13) 5732. 0.9651 1.2568
45096. 0.93378 1.228(13) 5769. 0.9652 1.2753
45110. 0.93406 1.255(13) 5686. 0.9652 1.2928
45123. 0.93434 1.262(13) 5614. 0.9653 1.3086
45137. 0.93462 1.284(13) 5568. 0.9654 1.3217
45151. 0.93490 1.304(13) 5506. 0.9655 1.3313
45164. 0.93518 1.303(14) 5484. 0.9655 1.3368
45178. 0.93546 1.356(14) 5176. 0.9656 1.3381
45191. 0.93574 1.325(14) 5404. 0.9657 1.3354
45205. 0.93602 1.335(14) 5279. 0.9658 1.3294
45218. 0.93630 1.319(14) 5441. 0.9658 1.3212
45232. 0.93658 1.307(14) 5426. 0.9659 1.3119
45245. 0.93686 1.307(14) 5371. 0.9660 1.3029
45259. 0.93714 1.292(13) 5493. 0.9661 1.2958
45273. 0.93742 1.265(13) 5658. 0.9661 1.2921
45286. 0.93771 1.271(13) 5543. 0.9662 1.2935
45300. 0.93799 1.299(14) 5438. 0.9663 1.3012
45313. 0.93827 1.287(13) 5596. 0.9663 1.3161
45327. 0.93855 1.324(14) 5387. 0.9664 1.3382
45341. 0.93883 1.376(14) 5194. 0.9665 1.3671
45354. 0.93911 1.444(14) 4947. 0.9666 1.4015
45368. 0.93939 1.472(14) 4861. 0.9666 1.4390
45381. 0.93968 1.532(15) 4649. 0.9667 1.4766
45395. 0.93996 1.555(15) 4534. 0.9668 1.5109
45409. 0.94024 1.563(15) 4583. 0.9669 1.5385
45422. 0.94052 1.590(15) 4479. 0.9669 1.5574
45436. 0.94080 1.560(15) 4654. 0.9670 1.5671
45449. 0.94109 1.554(15) 4654. 0.9671 1.5685
45463. 0.94137 1.546(15) 4596. 0.9671 1.5634
45477. 0.94165 1.522(15) 4696. 0.9672 1.5538
45490. 0.94193 1.530(15) 4668. 0.9673 1.5412
45504. 0.94222 1.497(14) 4807. 0.9674 1.5267
45518. 0.94250 1.502(14) 4771. 0.9674 1.5108
45531. 0.94278 1.471(14) 4926. 0.9675 1.4937
45545. 0.94307 1.455(14) 4947. 0.9676 1.4754
45559. 0.94335 1.434(14) 5069. 0.9676 1.4562
45572. 0.94363 1.443(14) 4976. 0.9677 1.4364
45586. 0.94391 1.404(14) 5133. 0.9678 1.4166
45600. 0.94420 1.411(14) 5138. 0.9679 1.3974
45613. 0.94448 1.360(14) 5323. 0.9679 1.3791
45627. 0.94476 1.344(14) 5394. 0.9680 1.3622
45641. 0.94505 1.315(13) 5539. 0.9681 1.3471
45654. 0.94533 1.329(14) 5479. 0.9681 1.3338
45668. 0.94562 1.326(14) 5482. 0.9682 1.3226
45682. 0.94590 1.313(13) 5527. 0.9683 1.3137
45696. 0.94618 1.304(13) 5503. 0.9684 1.3068
45709. 0.94647 1.282(13) 5611. 0.9684 1.3019
45723. 0.94675 1.279(13) 5649. 0.9685 1.2986
45737. 0.94703 1.305(14) 5447. 0.9686 1.2963
45750. 0.94732 1.304(13) 5540. 0.9686 1.2947
45764. 0.94760 1.298(13) 5513. 0.9687 1.2933
45778. 0.94789 1.264(13) 5721. 0.9688 1.2915
45792. 0.94817 1.272(13) 5647. 0.9688 1.2886
45805. 0.94846 1.266(13) 5699. 0.9689 1.2837
45819. 0.94874 1.239(13) 5848. 0.9690 1.2763
45833. 0.94903 1.236(13) 5903. 0.9691 1.2662
45847. 0.94931 1.219(13) 5971. 0.9691 1.2538
45860. 0.94960 1.219(13) 5923. 0.9692 1.2401
45874. 0.94988 1.229(13) 5805. 0.9693 1.2262
45888. 0.95017 1.221(13) 5914. 0.9693 1.2130
45902. 0.95045 1.228(13) 5913. 0.9694 1.2012
45915. 0.95074 1.214(13) 5911. 0.9695 1.1914
45929. 0.95102 1.238(13) 5868. 0.9695 1.1836
45943. 0.95131 1.213(13) 5939. 0.9696 1.1776
45957. 0.95159 1.206(13) 5998. 0.9697 1.1731
45970. 0.95188 1.208(13) 5992. 0.9697 1.1698
45984. 0.95216 1.188(13) 6138. 0.9698 1.1673
45998. 0.95245 1.190(13) 6040. 0.9699 1.1653
46012. 0.95273 1.201(13) 5995. 0.9699 1.1635
46026. 0.95302 1.182(13) 6102. 0.9700 1.1616
46039. 0.95331 1.176(13) 6117. 0.9701 1.1592
46053. 0.95359 1.180(13) 6156. 0.9702 1.1563
46067. 0.95388 1.167(13) 6232. 0.9702 1.1525
46081. 0.95416 1.135(13) 6396. 0.9703 1.1481
46095. 0.95445 1.134(12) 6421. 0.9704 1.1435
46109. 0.95474 1.118(12) 6504. 0.9704 1.1391
46122. 0.95502 1.130(12) 6486. 0.9705 1.1355
46136. 0.95531 1.116(12) 6466. 0.9706 1.1334
46150. 0.95560 1.127(13) 6373. 0.9706 1.1335
46164. 0.95588 1.116(12) 6587. 0.9707 1.1363
46178. 0.95617 1.136(13) 6318. 0.9708 1.1423
46192. 0.95646 1.149(13) 6220. 0.9708 1.1518
46205. 0.95674 1.157(13) 6200. 0.9709 1.1650
46219. 0.95703 1.160(13) 6278. 0.9710 1.1817
46233. 0.95732 1.193(13) 6050. 0.9710 1.2010
46247. 0.95761 1.258(13) 5709. 0.9711 1.2217
46261. 0.95789 1.284(13) 5675. 0.9712 1.2414
46275. 0.95818 1.282(13) 5669. 0.9712 1.2576
46289. 0.95847 1.311(13) 5506. 0.9713 1.2679
46303. 0.95876 1.299(13) 5572. 0.9714 1.2708
46317. 0.95904 1.268(13) 5714. 0.9714 1.2667
46330. 0.95933 1.274(13) 5684. 0.9715 1.2573
46344. 0.95962 1.249(13) 5771. 0.9716 1.2449
46358. 0.95991 1.215(13) 5996. 0.9716 1.2320
46372. 0.96019 1.211(13) 5936. 0.9717 1.2206
46386. 0.96048 1.220(13) 5896. 0.9718 1.2123
46400. 0.96077 1.206(13) 6051. 0.9718 1.2082
46414. 0.96106 1.206(13) 5993. 0.9719 1.2079
46428. 0.96135 1.209(13) 6000. 0.9719 1.2114
46442. 0.96164 1.227(13) 5952. 0.9720 1.2182
46456. 0.96192 1.232(13) 5882. 0.9721 1.2274
46470. 0.96221 1.257(13) 5726. 0.9721 1.2378
46484. 0.96250 1.243(13) 5893. 0.9722 1.2487
46497. 0.96279 1.276(13) 5650. 0.9723 1.2593
46511. 0.96308 1.290(13) 5523. 0.9723 1.2695
46525. 0.96337 1.303(13) 5541. 0.9724 1.2792
46539. 0.96366 1.328(14) 5389. 0.9725 1.2888
46553. 0.96395 1.339(14) 5397. 0.9725 1.2986
46567. 0.96424 1.323(13) 5505. 0.9726 1.3089
46581. 0.96452 1.312(13) 5576. 0.9727 1.3196
46595. 0.96481 1.320(13) 5552. 0.9727 1.3304
46609. 0.96510 1.362(14) 5267. 0.9728 1.3407
46623. 0.96539 1.388(14) 5196. 0.9728 1.3493
46637. 0.96568 1.367(14) 5244. 0.9729 1.3551
46651. 0.96597 1.373(14) 5259. 0.9730 1.3570
46665. 0.96626 1.363(14) 5287. 0.9730 1.3543
46679. 0.96655 1.380(14) 5210. 0.9731 1.3467
46693. 0.96684 1.371(14) 5220. 0.9732 1.3348
46707. 0.96713 1.335(14) 5360. 0.9732 1.3197
46721. 0.96742 1.312(13) 5494. 0.9733 1.3027
46735. 0.96771 1.285(13) 5647. 0.9734 1.2851
46749. 0.96800 1.274(13) 5660. 0.9734 1.2681
46763. 0.96829 1.278(13) 5543. 0.9735 1.2521
46777. 0.96858 1.238(13) 5863. 0.9735 1.2376
46791. 0.96888 1.240(13) 5829. 0.9736 1.2245
46805. 0.96917 1.207(13) 5938. 0.9737 1.2129
46819. 0.96946 1.213(13) 5904. 0.9737 1.2025
46833. 0.96975 1.204(13) 6016. 0.9738 1.1933
46847. 0.97004 1.199(13) 5985. 0.9739 1.1853
46862. 0.97033 1.197(13) 5991. 0.9739 1.1786
46876. 0.97062 1.192(13) 5982. 0.9740 1.1737
46890. 0.97091 1.179(13) 6109. 0.9740 1.1708
46904. 0.97120 1.175(13) 6127. 0.9741 1.1702
46918. 0.97149 1.172(13) 6183. 0.9742 1.1720
46932. 0.97179 1.171(13) 6203. 0.9742 1.1762
46946. 0.97208 1.175(13) 6128. 0.9743 1.1824
46960. 0.97237 1.188(13) 6112. 0.9743 1.1898
46974. 0.97266 1.184(13) 6086. 0.9744 1.1975
46988. 0.97295 1.154(13) 6316. 0.9745 1.2041
47002. 0.97324 1.203(13) 6032. 0.9745 1.2089
47016. 0.97354 1.189(13) 6115. 0.9746 1.2115
47030. 0.97383 1.199(13) 6075. 0.9747 1.2119
47045. 0.97412 1.187(13) 6126. 0.9747 1.2106
47059. 0.97441 1.205(13) 5947. 0.9748 1.2080
47073. 0.97471 1.185(13) 6107. 0.9748 1.2046
47087. 0.97500 1.192(13) 6021. 0.9749 1.2006
47101. 0.97529 1.208(13) 5943. 0.9750 1.1965
47115. 0.97558 1.202(13) 6006. 0.9750 1.1924
47129. 0.97588 1.216(13) 5959. 0.9751 1.1889
47143. 0.97617 1.186(13) 6056. 0.9751 1.1862
47158. 0.97646 1.181(13) 6103. 0.9752 1.1848
47172. 0.97675 1.188(13) 6065. 0.9753 1.1845
47186. 0.97705 1.199(13) 6007. 0.9753 1.1854
47200. 0.97734 1.192(13) 6075. 0.9754 1.1872
47214. 0.97763 1.182(13) 6054. 0.9754 1.1894
47228. 0.97793 1.193(13) 5985. 0.9755 1.1915
47243. 0.97822 1.200(13) 6005. 0.9756 1.1932
47257. 0.97851 1.185(13) 6115. 0.9756 1.1941
47271. 0.97881 1.180(13) 6185. 0.9757 1.1941
47285. 0.97910 1.185(13) 6107. 0.9757 1.1932
47299. 0.97940 1.207(13) 5953. 0.9758 1.1915
47313. 0.97969 1.195(13) 6048. 0.9759 1.1893
47328. 0.97998 1.198(13) 6021. 0.9759 1.1868
47342. 0.98028 1.175(13) 6197. 0.9760 1.1844
47356. 0.98057 1.200(13) 5898. 0.9760 1.1823
47370. 0.98087 1.187(13) 6061. 0.9761 1.1808
47384. 0.98116 1.171(13) 6145. 0.9761 1.1800
47399. 0.98145 1.201(13) 6071. 0.9762 1.1799
47413. 0.98175 1.209(13) 5961. 0.9763 1.1807
47427. 0.98204 1.193(13) 6064. 0.9763 1.1822
47441. 0.98234 1.209(13) 5963. 0.9764 1.1842
47456. 0.98263 1.198(13) 5986. 0.9764 1.1862
47470. 0.98293 1.207(13) 5884. 0.9765 1.1877
47484. 0.98322 1.197(13) 5903. 0.9766 1.1880
47498. 0.98352 1.201(13) 5893. 0.9766 1.1866
47513. 0.98381 1.185(13) 6070. 0.9767 1.1830
47527. 0.98411 1.172(13) 6083. 0.9767 1.1774
47541. 0.98440 1.169(13) 6089. 0.9768 1.1700
47555. 0.98470 1.149(13) 6216. 0.9768 1.1611
47570. 0.98499 1.154(13) 6218. 0.9769 1.1514
47584. 0.98529 1.156(13) 6181. 0.9770 1.1415
47598. 0.98559 1.138(13) 6325. 0.9770 1.1317
47612. 0.98588 1.113(12) 6547. 0.9771 1.1226
47627. 0.98618 1.103(12) 6411. 0.9771 1.1143
47641. 0.98647 1.086(12) 6593. 0.9772 1.1072
47655. 0.98677 1.089(12) 6536. 0.9772 1.1011
47670. 0.98706 1.088(12) 6500. 0.9773 1.0961
47684. 0.98736 1.080(12) 6522. 0.9773 1.0921
47698. 0.98766 1.061(12) 6667. 0.9774 1.0889
47713. 0.98795 1.054(12) 6744. 0.9775 1.0863
47727. 0.98825 1.064(12) 6700. 0.9775 1.0841
47741. 0.98855 1.054(12) 6802. 0.9776 1.0819
47755. 0.98884 1.083(12) 6563. 0.9776 1.0796
47770. 0.98914 1.074(12) 6647. 0.9777 1.0772
47784. 0.98944 1.074(12) 6612. 0.9777 1.0746
47798. 0.98973 1.075(12) 6689. 0.9778 1.0719
47813. 0.99003 1.059(12) 6720. 0.9779 1.0692
47827. 0.99033 1.089(12) 6526. 0.9779 1.0668
47842. 0.99062 1.070(12) 6657. 0.9780 1.0649
47856. 0.99092 1.053(12) 6756. 0.9780 1.0639
47870. 0.99122 1.070(12) 6649. 0.9781 1.0641
47885. 0.99152 1.081(12) 6562. 0.9781 1.0660
47899. 0.99181 1.080(12) 6594. 0.9782 1.0699
47913. 0.99211 1.080(12) 6585. 0.9782 1.0763
47928. 0.99241 1.094(12) 6490. 0.9783 1.0850
47942. 0.99271 1.084(12) 6656. 0.9783 1.0962
47956. 0.99300 1.111(12) 6417. 0.9784 1.1090
47971. 0.99330 1.117(13) 6362. 0.9785 1.1226
47985. 0.99360 1.130(13) 6346. 0.9785 1.1355
48000. 0.99390 1.136(13) 6272. 0.9786 1.1460
48014. 0.99420 1.126(13) 6399. 0.9786 1.1528
48028. 0.99450 1.149(13) 6132. 0.9787 1.1555
48043. 0.99479 1.130(13) 6280. 0.9787 1.1551
48057. 0.99509 1.127(13) 6357. 0.9788 1.1522
48072. 0.99539 1.143(13) 6203. 0.9788 1.1480
48086. 0.99569 1.152(13) 6169. 0.9789 1.1435
48101. 0.99599 1.151(13) 6068. 0.9789 1.1395
48115. 0.99629 1.126(13) 6218. 0.9790 1.1364
48129. 0.99659 1.133(13) 6245. 0.9791 1.1347
48144. 0.99688 1.134(13) 6256. 0.9791 1.1345
48158. 0.99718 1.141(13) 6257. 0.9792 1.1359
48173. 0.99748 1.119(13) 6345. 0.9792 1.1387
48187. 0.99778 1.116(13) 6339. 0.9793 1.1427
48202. 0.99808 1.153(13) 6084. 0.9793 1.1477
48216. 0.99838 1.164(13) 6073. 0.9794 1.1531
48231. 0.99868 1.139(13) 6231. 0.9794 1.1586
48245. 0.99898 1.157(13) 6020. 0.9795 1.1637
48259. 0.99928 1.157(13) 6184. 0.9795 1.1682
48274. 0.99958 1.145(13) 6177. 0.9796 1.1720
48288. 0.99988 1.139(13) 6301. 0.9796 1.1750
48303. 1.00018 1.159(13) 6111. 0.9797 1.1772
48317. 1.00048 1.176(13) 5959. 0.9797 1.1784
48332. 1.00078 1.156(13) 6153. 0.9798 1.1781
48346. 1.00108 1.167(13) 6017. 0.9798 1.1765
48361. 1.00138 1.144(13) 6169. 0.9799 1.1735
48375. 1.00168 1.157(13) 6125. 0.9799 1.1696
48390. 1.00198 1.159(13) 6079. 0.9800 1.1650
48404. 1.00228 1.117(13) 6373. 0.9800 1.1601
48419. 1.00258 1.129(13) 6321. 0.9801 1.1549
48433. 1.00288 1.122(12) 6401. 0.9802 1.1491
48448. 1.00318 1.140(13) 6216. 0.9802 1.1426
48463. 1.00349 1.128(13) 6230. 0.9803 1.1349
48477. 1.00379 1.106(13) 6361. 0.9803 1.1263
48492. 1.00409 1.116(13) 6379. 0.9804 1.1171
48506. 1.00439 1.089(12) 6547. 0.9804 1.1082
48521. 1.00469 1.109(13) 6352. 0.9805 1.1002
48535. 1.00499 1.080(12) 6508. 0.9805 1.0935
48550. 1.00529 1.072(12) 6703. 0.9806 1.0882
48564. 1.00560 1.075(12) 6569. 0.9806 1.0846
48579. 1.00590 1.077(12) 6552. 0.9807 1.0823
48594. 1.00620 1.063(12) 6673. 0.9807 1.0811
48608. 1.00650 1.071(12) 6557. 0.9808 1.0807
48623. 1.00680 1.068(12) 6566. 0.9808 1.0806
48637. 1.00710 1.074(12) 6543. 0.9809 1.0809
48652. 1.00741 1.070(12) 6516. 0.9809 1.0814
48667. 1.00771 1.066(12) 6533. 0.9810 1.0822
48681. 1.00801 1.059(12) 6614. 0.9810 1.0834
48696. 1.00831 1.051(12) 6636. 0.9811 1.0853
48710. 1.00862 1.073(12) 6427. 0.9811 1.0879
48725. 1.00892 1.056(12) 6726. 0.9812 1.0915
48740. 1.00922 1.058(12) 6688. 0.9812 1.0961
48754. 1.00952 1.058(12) 6573. 0.9813 1.1019
48769. 1.00983 1.072(12) 6535. 0.9813 1.1092
48783. 1.01013 1.072(12) 6661. 0.9814 1.1182
48798. 1.01043 1.079(12) 6491. 0.9814 1.1294
48813. 1.01074 1.105(12) 6401. 0.9815 1.1434
48827. 1.01104 1.129(13) 6249. 0.9815 1.1607
48842. 1.01134 1.117(13) 6279. 0.9816 1.1817
48857. 1.01165 1.144(13) 6104. 0.9816 1.2070
48871. 1.01195 1.162(13) 6130. 0.9817 1.2376
48886. 1.01225 1.193(13) 5946. 0.9817 1.2746
48901. 1.01256 1.258(13) 5689. 0.9818 1.3187
48915. 1.01286 1.363(14) 5209. 0.9818 1.3700
48930. 1.01317 1.433(14) 4990. 0.9818 1.4271
48945. 1.01347 1.505(15) 4653. 0.9819 1.4879
48959. 1.01377 1.554(15) 4589. 0.9819 1.5475
48974. 1.01408 1.590(15) 4466. 0.9820 1.6001
48989. 1.01438 1.603(15) 4443. 0.9820 1.6393
49003. 1.01469 1.629(15) 4418. 0.9821 1.6602
49018. 1.01499 1.623(15) 4399. 0.9821 1.6612
49033. 1.01530 1.654(15) 4320. 0.9822 1.6445
49048. 1.01560 1.637(15) 4298. 0.9822 1.6143
49062. 1.01590 1.586(15) 4481. 0.9823 1.5760
49077. 1.01621 1.556(15) 4563. 0.9823 1.5344
49092. 1.01651 1.520(15) 4682. 0.9824 1.4936
49106. 1.01682 1.499(15) 4713. 0.9824 1.4568
49121. 1.01712 1.443(14) 4995. 0.9825 1.4257
49136. 1.01743 1.417(14) 5012. 0.9825 1.4011
49151. 1.01774 1.416(14) 4990. 0.9826 1.3829
49165. 1.01804 1.370(14) 5167. 0.9826 1.3704
49180. 1.01835 1.354(14) 5232. 0.9827 1.3627
49195. 1.01865 1.341(14) 5242. 0.9827 1.3589
49210. 1.01896 1.337(14) 5255. 0.9827 1.3582
49224. 1.01926 1.337(14) 5272. 0.9828 1.3599
49239. 1.01957 1.332(14) 5299. 0.9828 1.3633
49254. 1.01987 1.352(14) 5167. 0.9829 1.3676
49269. 1.02018 1.359(14) 5171. 0.9829 1.3721
49283. 1.02049 1.353(14) 5215. 0.9830 1.3760
49298. 1.02079 1.351(14) 5274. 0.9830 1.3788
49313. 1.02110 1.380(14) 5083. 0.9831 1.3799
49328. 1.02141 1.343(14) 5321. 0.9831 1.3788
49343. 1.02171 1.384(14) 5125. 0.9832 1.3754
49357. 1.02202 1.361(14) 5150. 0.9832 1.3698
49372. 1.02233 1.401(14) 4996. 0.9833 1.3620
49387. 1.02263 1.387(14) 5105. 0.9833 1.3524
49402. 1.02294 1.391(14) 5038. 0.9833 1.3413
49417. 1.02325 1.350(14) 5295. 0.9834 1.3289
49432. 1.02355 1.335(14) 5284. 0.9834 1.3152
49446. 1.02386 1.317(14) 5354. 0.9835 1.3004
49461. 1.02417 1.279(13) 5592. 0.9835 1.2843
49476. 1.02447 1.293(14) 5426. 0.9836 1.2670
49491. 1.02478 1.247(13) 5593. 0.9836 1.2482
49506. 1.02509 1.236(13) 5650. 0.9837 1.2285
49521. 1.02540 1.211(13) 5672. 0.9837 1.2086
49535. 1.02570 1.175(13) 5992. 0.9837 1.1895
49550. 1.02601 1.141(13) 6191. 0.9838 1.1720
49565. 1.02632 1.138(13) 6099. 0.9838 1.1567
49580. 1.02663 1.135(13) 6226. 0.9839 1.1438
49595. 1.02694 1.127(13) 6166. 0.9839 1.1332
49610. 1.02724 1.101(13) 6257. 0.9840 1.1245
49625. 1.02755 1.098(13) 6373. 0.9840 1.1173
49640. 1.02786 1.081(12) 6477. 0.9841 1.1109
49654. 1.02817 1.071(12) 6538. 0.9841 1.1050
49669. 1.02848 1.074(12) 6528. 0.9841 1.0996
49684. 1.02879 1.078(12) 6561. 0.9842 1.0946
49699. 1.02909 1.069(12) 6611. 0.9842 1.0902
49714. 1.02940 1.082(12) 6528. 0.9843 1.0866
49729. 1.02971 1.081(12) 6556. 0.9843 1.0839
49744. 1.03002 1.076(12) 6508. 0.9844 1.0823
49759. 1.03033 1.068(12) 6590. 0.9844 1.0821
49774. 1.03064 1.100(13) 6372. 0.9845 1.0834
49789. 1.03095 1.082(12) 6542. 0.9845 1.0867
49804. 1.03126 1.107(13) 6397. 0.9845 1.0920
49819. 1.03157 1.108(13) 6336. 0.9846 1.0997
49833. 1.03188 1.123(13) 6235. 0.9846 1.1102
49848. 1.03219 1.121(13) 6266. 0.9847 1.1241
49863. 1.03250 1.144(13) 5990. 0.9847 1.1423
49878. 1.03281 1.163(13) 5948. 0.9848 1.1664
49893. 1.03312 1.171(13) 5979. 0.9848 1.1986
49908. 1.03343 1.165(13) 6048. 0.9848 1.2412
49923. 1.03374 1.213(13) 5858. 0.9849 1.2959
49938. 1.03405 1.304(14) 5448. 0.9849 1.3623
49953. 1.03436 1.409(14) 5028. 0.9850 1.4374
49968. 1.03467 1.539(15) 4578. 0.9850 1.5143
49983. 1.03498 1.662(15) 4210. 0.9850 1.5822
49998. 1.03529 1.709(16) 4075. 0.9851 1.6281
50013. 1.03560 1.695(15) 4171. 0.9851 1.6421
50028. 1.03591 1.634(15) 4330. 0.9852 1.6214
50043. 1.03622 1.608(15) 4389. 0.9852 1.5721
50058. 1.03653 1.505(15) 4642. 0.9853 1.5044
50073. 1.03684 1.443(14) 4914. 0.9853 1.4289
50088. 1.03715 1.353(14) 5255. 0.9853 1.3542
50103. 1.03746 1.291(14) 5461. 0.9854 1.2862
50118. 1.03778 1.231(13) 5686. 0.9854 1.2282
50133. 1.03809 1.198(13) 5907. 0.9855 1.1811
50148. 1.03840 1.164(13) 6017. 0.9855 1.1445
50163. 1.03871 1.125(13) 6247. 0.9855 1.1169
50178. 1.03902 1.090(12) 6448. 0.9856 1.0966
50194. 1.03933 1.106(13) 6229. 0.9856 1.0821
50209. 1.03964 1.078(12) 6472. 0.9857 1.0719
50224. 1.03996 1.061(12) 6636. 0.9857 1.0648
50239. 1.04027 1.040(12) 6741. 0.9857 1.0600
50254. 1.04058 1.049(12) 6670. 0.9858 1.0567
50269. 1.04089 1.063(12) 6582. 0.9858 1.0544
50284. 1.04121 1.050(12) 6606. 0.9859 1.0525
50299. 1.04152 1.043(12) 6690. 0.9859 1.0508
50314. 1.04183 1.049(12) 6639. 0.9859 1.0489
50329. 1.04214 1.056(12) 6620. 0.9860 1.0467
50344. 1.04246 1.055(12) 6614. 0.9860 1.0443
50359. 1.04277 1.039(12) 6711. 0.9861 1.0418
50375. 1.04308 1.050(12) 6565. 0.9861 1.0395
50390. 1.04339 1.039(12) 6662. 0.9861 1.0376
50405. 1.04371 1.036(12) 6746. 0.9862 1.0363
50420. 1.04402 1.029(12) 6726. 0.9862 1.0358
50435. 1.04433 1.048(12) 6613. 0.9863 1.0361
50450. 1.04465 1.045(12) 6650. 0.9863 1.0375
50465. 1.04496 1.055(12) 6600. 0.9863 1.0398
50480. 1.04527 1.049(12) 6682. 0.9864 1.0428
50496. 1.04559 1.055(12) 6606. 0.9864 1.0463
50511. 1.04590 1.054(12) 6594. 0.9865 1.0500
50526. 1.04622 1.075(12) 6475. 0.9865 1.0532
50541. 1.04653 1.057(12) 6591. 0.9865 1.0555
50556. 1.04684 1.061(12) 6615. 0.9866 1.0565
50571. 1.04716 1.070(12) 6469. 0.9866 1.0561
50587. 1.04747 1.065(12) 6557. 0.9867 1.0545
50602. 1.04779 1.083(13) 6338. 0.9867 1.0522
50617. 1.04810 1.050(12) 6679. 0.9867 1.0499
50632. 1.04841 1.052(12) 6696. 0.9868 1.0479
50647. 1.04873 1.055(12) 6584. 0.9868 1.0469
50662. 1.04904 1.038(12) 6705. 0.9868 1.0471
50678. 1.04936 1.051(12) 6624. 0.9869 1.0486
50693. 1.04967 1.054(12) 6609. 0.9869 1.0515
50708. 1.04999 1.041(12) 6763. 0.9870 1.0555
50723. 1.05030 1.066(12) 6517. 0.9870 1.0603
50738. 1.05062 1.059(12) 6473. 0.9870 1.0653
50754. 1.05093 1.060(12) 6593. 0.9871 1.0701
50769. 1.05125 1.067(12) 6504. 0.9871 1.0741
50784. 1.05156 1.054(12) 6519. 0.9871 1.0769
50799. 1.05188 1.061(12) 6685. 0.9872 1.0783
50815. 1.05220 1.058(12) 6571. 0.9872 1.0785
50830. 1.05251 1.036(12) 6861. 0.9873 1.0779
50845. 1.05283 1.052(12) 6590. 0.9873 1.0768
50860. 1.05314 1.057(12) 6568. 0.9873 1.0756
50876. 1.05346 1.044(12) 6655. 0.9874 1.0746
50891. 1.05377 1.067(12) 6483. 0.9874 1.0739
50906. 1.05409 1.026(12) 6812. 0.9874 1.0735
50921. 1.05441 1.051(12) 6534. 0.9875 1.0733
50937. 1.05472 1.036(12) 6715. 0.9875 1.0732
50952. 1.05504 1.054(12) 6555. 0.9876 1.0732
50967. 1.05536 1.053(12) 6595. 0.9876 1.0731
50983. 1.05567 1.028(12) 6801. 0.9876 1.0728
50998. 1.05599 1.056(12) 6494. 0.9877 1.0723
51013. 1.05631 1.055(12) 6491. 0.9877 1.0717
51028. 1.05662 1.038(12) 6679. 0.9877 1.0710
51044. 1.05694 1.046(12) 6616. 0.9878 1.0703
51059. 1.05726 1.034(12) 6679. 0.9878 1.0696
51074. 1.05758 1.060(12) 6521. 0.9878 1.0691
51090. 1.05789 1.054(12) 6535. 0.9879 1.0687
51105. 1.05821 1.069(12) 6580. 0.9879 1.0682
51120. 1.05853 1.060(12) 6587. 0.9879 1.0676
51136. 1.05885 1.051(12) 6601. 0.9880 1.0668
51151. 1.05916 1.049(12) 6528. 0.9880 1.0659
51166. 1.05948 1.055(12) 6550. 0.9881 1.0652
51182. 1.05980 1.079(13) 6308. 0.9881 1.0645
51197. 1.06012 1.076(12) 6407. 0.9881 1.0640
51212. 1.06043 1.045(12) 6583. 0.9882 1.0635
51228. 1.06075 1.047(12) 6706. 0.9882 1.0629
51243. 1.06107 1.055(12) 6536. 0.9882 1.0620
51259. 1.06139 1.055(12) 6599. 0.9883 1.0607
51274. 1.06171 1.067(13) 6392. 0.9883 1.0590
51289. 1.06203 1.063(12) 6500. 0.9883 1.0571
51305. 1.06235 1.083(13) 6319. 0.9884 1.0550
51320. 1.06266 1.066(12) 6471. 0.9884 1.0532
51336. 1.06298 1.054(12) 6553. 0.9884 1.0518
51351. 1.06330 1.066(13) 6389. 0.9885 1.0510
51366. 1.06362 1.051(12) 6591. 0.9885 1.0508
51382. 1.06394 1.038(12) 6746. 0.9885 1.0514
51397. 1.06426 1.046(12) 6765. 0.9886 1.0529
51413. 1.06458 1.074(12) 6452. 0.9886 1.0552
51428. 1.06490 1.070(12) 6451. 0.9886 1.0584
51443. 1.06522 1.064(12) 6526. 0.9887 1.0629
51459. 1.06554 1.067(12) 6543. 0.9887 1.0687
51474. 1.06586 1.058(12) 6575. 0.9887 1.0765
51490. 1.06618 1.069(12) 6462. 0.9888 1.0865
51505. 1.06650 1.070(12) 6508. 0.9888 1.0987
51521. 1.06682 1.104(13) 6280. 0.9888 1.1132
51536. 1.06714 1.128(13) 6086. 0.9889 1.1295
51552. 1.06746 1.151(13) 5963. 0.9889 1.1468
51567. 1.06778 1.159(13) 5992. 0.9889 1.1639
51582. 1.06810 1.143(13) 6154. 0.9890 1.1790
51598. 1.06842 1.175(13) 5937. 0.9890 1.1898
51613. 1.06874 1.201(13) 5772. 0.9890 1.1950
51629. 1.06906 1.189(13) 5879. 0.9891 1.1937
51644. 1.06938 1.190(13) 5819. 0.9891 1.1866
51660. 1.06970 1.203(13) 5758. 0.9891 1.1750
51675. 1.07002 1.180(13) 5793. 0.9892 1.1605
51691. 1.07034 1.185(13) 5811. 0.9892 1.1446
51706. 1.07066 1.133(13) 6153. 0.9892 1.1287
51722. 1.07098 1.142(13) 6058. 0.9893 1.1136
51737. 1.07131 1.115(13) 6350. 0.9893 1.1001
51753. 1.07163 1.104(13) 6345. 0.9893 1.0883
51768. 1.07195 1.090(13) 6320. 0.9894 1.0783
51784. 1.07227 1.092(13) 6367. 0.9894 1.0701
51800. 1.07259 1.063(12) 6506. 0.9894 1.0633
51815. 1.07291 1.076(13) 6374. 0.9895 1.0579
51831. 1.07324 1.055(12) 6550. 0.9895 1.0535
51846. 1.07356 1.056(12) 6534. 0.9895 1.0498
51862. 1.07388 1.068(12) 6404. 0.9896 1.0469
51877. 1.07420 1.074(12) 6409. 0.9896 1.0444
51893. 1.07452 1.082(13) 6384. 0.9896 1.0424
51908. 1.07485 1.062(12) 6484. 0.9897 1.0409
51924. 1.07517 1.071(13) 6397. 0.9897 1.0398
51940. 1.07549 1.064(12) 6522. 0.9897 1.0392
51955. 1.07581 1.046(12) 6618. 0.9897 1.0391
51971. 1.07614 1.075(13) 6371. 0.9898 1.0396
51986. 1.07646 1.060(12) 6543. 0.9898 1.0407
52002. 1.07678 1.053(12) 6631. 0.9898 1.0427
52018. 1.07711 1.058(12) 6460. 0.9899 1.0457
52033. 1.07743 1.030(12) 6730. 0.9899 1.0498
52049. 1.07775 1.066(13) 6297. 0.9899 1.0553
52064. 1.07808 1.081(13) 6255. 0.9900 1.0620
52080. 1.07840 1.053(12) 6565. 0.9900 1.0699
52096. 1.07872 1.049(12) 6536. 0.9900 1.0786
52111. 1.07905 1.073(13) 6380. 0.9901 1.0875
52127. 1.07937 1.042(12) 6587. 0.9901 1.0957
52143. 1.07969 1.078(12) 6441. 0.9901 1.1026
52158. 1.08002 1.060(12) 6583. 0.9901 1.1076
52174. 1.08034 1.065(12) 6417. 0.9902 1.1103
52189. 1.08067 1.061(12) 6558. 0.9902 1.1107
52205. 1.08099 1.062(12) 6555. 0.9902 1.1091
52221. 1.08132 1.047(12) 6661. 0.9903 1.1060
52236. 1.08164 1.057(12) 6504. 0.9903 1.1017
52252. 1.08196 1.054(12) 6578. 0.9903 1.0970
52268. 1.08229 1.074(12) 6434. 0.9904 1.0925
52283. 1.08261 1.092(13) 6299. 0.9904 1.0888
52299. 1.08294 1.093(13) 6280. 0.9904 1.0863
52315. 1.08326 1.080(13) 6342. 0.9904 1.0853
52331. 1.08359 1.078(13) 6331. 0.9905 1.0859
52346. 1.08391 1.096(13) 6151. 0.9905 1.0883
52362. 1.08424 1.106(13) 6150. 0.9905 1.0923
52378. 1.08456 1.110(13) 6161. 0.9906 1.0976
52393. 1.08489 1.102(13) 6207. 0.9906 1.1038
52409. 1.08521 1.134(13) 6001. 0.9906 1.1104
52425. 1.08554 1.120(13) 6109. 0.9906 1.1170
52441. 1.08587 1.119(13) 6104. 0.9907 1.1230
52456. 1.08619 1.149(13) 5901. 0.9907 1.1282
52472. 1.08652 1.160(13) 5915. 0.9907 1.1324
52488. 1.08684 1.157(13) 5945. 0.9908 1.1362
52503. 1.08717 1.195(13) 5702. 0.9908 1.1401
52519. 1.08750 1.209(13) 5612. 0.9908 1.1450
52535. 1.08782 1.223(13) 5560. 0.9908 1.1519
52551. 1.08815 1.226(13) 5571. 0.9909 1.1618
52567. 1.08848 1.239(13) 5595. 0.9909 1.1757
52582. 1.08880 1.266(14) 5353. 0.9909 1.1944
52598. 1.08913 1.270(14) 5351. 0.9910 1.2185
52614. 1.08946 1.300(14) 5240. 0.9910 1.2480
52630. 1.08978 1.309(14) 5239. 0.9910 1.2829
52645. 1.09011 1.344(14) 5123. 0.9910 1.3222
52661. 1.09044 1.401(14) 4880. 0.9911 1.3642
52677. 1.09076 1.437(15) 4718. 0.9911 1.4066
52693. 1.09109 1.457(15) 4693. 0.9911 1.4467
52709. 1.09142 1.476(15) 4678. 0.9912 1.4817
52724. 1.09175 1.518(15) 4559. 0.9912 1.5099
52740. 1.09207 1.510(15) 4532. 0.9912 1.5302
52756. 1.09240 1.565(15) 4317. 0.9912 1.5423
52772. 1.09273 1.544(15) 4415. 0.9913 1.5463
52788. 1.09306 1.529(15) 4438. 0.9913 1.5432
52804. 1.09338 1.525(15) 4508. 0.9913 1.5361
52819. 1.09371 1.509(15) 4595. 0.9913 1.5244
52835. 1.09404 1.494(15) 4629. 0.9914 1.5111
52851. 1.09437 1.512(15) 4525. 0.9914 1.4976
52867. 1.09470 1.503(15) 4552. 0.9914 1.4843
52883. 1.09503 1.481(15) 4565. 0.9915 1.4706
52899. 1.09535 1.454(15) 4650. 0.9915 1.4553
52915. 1.09568 1.443(15) 4691. 0.9915 1.4367
52930. 1.09601 1.408(14) 4763. 0.9915 1.4143
52946. 1.09634 1.382(14) 4951. 0.9916 1.3884
52962. 1.09667 1.349(14) 5103. 0.9916 1.3604
52978. 1.09700 1.333(14) 5186. 0.9916 1.3321
52994. 1.09733 1.336(14) 5057. 0.9916 1.3054
53010. 1.09766 1.315(14) 5203. 0.9917 1.2815
53026. 1.09799 1.265(14) 5390. 0.9917 1.2614
53042. 1.09832 1.259(14) 5439. 0.9917 1.2454
53058. 1.09864 1.239(14) 5438. 0.9917 1.2337
53074. 1.09897 1.232(14) 5477. 0.9918 1.2260
53089. 1.09930 1.242(14) 5461. 0.9918 1.2218
53105. 1.09963 1.210(13) 5654. 0.9918 1.2206
53121. 1.09996 1.210(13) 5573. 0.9918 1.2221
53137. 1.10029 1.225(13) 5508. 0.9919 1.2257
53153. 1.10062 1.228(14) 5429. 0.9919 1.2313
53169. 1.10095 1.253(14) 5354. 0.9919 1.2383
53185. 1.10128 1.237(13) 5497. 0.9919 1.2464
53201. 1.10162 1.251(14) 5405. 0.9920 1.2550
53217. 1.10195 1.246(14) 5412. 0.9920 1.2635
53233. 1.10228 1.250(14) 5340. 0.9920 1.2712
53249. 1.10261 1.253(14) 5451. 0.9921 1.2775
53265. 1.10294 1.251(14) 5413. 0.9921 1.2817
53281. 1.10327 1.241(13) 5488. 0.9921 1.2835
53297. 1.10360 1.274(14) 5288. 0.9921 1.2827
53313. 1.10393 1.256(14) 5424. 0.9922 1.2793
53329. 1.10426 1.269(14) 5365. 0.9922 1.2737
53345. 1.10459 1.254(14) 5404. 0.9922 1.2662
53361. 1.10493 1.225(13) 5500. 0.9922 1.2574
53377. 1.10526 1.221(14) 5469. 0.9922 1.2478
53393. 1.10559 1.242(14) 5316. 0.9923 1.2378
53409. 1.10592 1.195(13) 5642. 0.9923 1.2276
53425. 1.10625 1.188(13) 5605. 0.9923 1.2172
53441. 1.10658 1.168(13) 5749. 0.9923 1.2063
53457. 1.10692 1.173(13) 5692. 0.9924 1.1948
53473. 1.10725 1.157(13) 5770. 0.9924 1.1825
53489. 1.10758 1.116(13) 5990. 0.9924 1.1697
53505. 1.10791 1.120(13) 5941. 0.9924 1.1568
53521. 1.10824 1.115(13) 5979. 0.9925 1.1443
53537. 1.10858 1.114(13) 6010. 0.9925 1.1326
53553. 1.10891 1.100(13) 6123. 0.9925 1.1220
53569. 1.10924 1.090(13) 6148. 0.9925 1.1126
53585. 1.10958 1.117(13) 5960. 0.9926 1.1044
53601. 1.10991 1.097(13) 6057. 0.9926 1.0976
53618. 1.11024 1.106(13) 6000. 0.9926 1.0922
53634. 1.11057 1.092(13) 6090. 0.9926 1.0884
53650. 1.11091 1.100(13) 6084. 0.9927 1.0862
53666. 1.11124 1.088(13) 6158. 0.9927 1.0858
53682. 1.11157 1.080(13) 6209. 0.9927 1.0871
53698. 1.11191 1.085(13) 6141. 0.9927 1.0900
53714. 1.11224 1.104(13) 6019. 0.9927 1.0942
53730. 1.11258 1.097(13) 6123. 0.9928 1.0994
53746. 1.11291 1.118(13) 5952. 0.9928 1.1049
53762. 1.11324 1.114(13) 5961. 0.9928 1.1099
53779. 1.11358 1.135(13) 5761. 0.9928 1.1135
53795. 1.11391 1.111(13) 5947. 0.9929 1.1152
53811. 1.11425 1.120(13) 5859. 0.9929 1.1153
53827. 1.11458 1.120(13) 5946. 0.9929 1.1133
53843. 1.11491 1.134(13) 5729. 0.9929 1.1102
53859. 1.11525 1.160(13) 5587. 0.9930 1.1064
53875. 1.11558 1.142(13) 5776. 0.9930 1.1025
53892. 1.11592 1.128(13) 5917. 0.9930 1.0989
53908. 1.11625 1.108(13) 6016. 0.9930 1.0958
53924. 1.11659 1.137(13) 5796. 0.9930 1.0937
53940. 1.11692 1.113(13) 5896. 0.9931 1.0925
53956. 1.11726 1.086(13) 6071. 0.9931 1.0924
53973. 1.11759 1.135(13) 5763. 0.9931 1.0934
53989. 1.11793 1.118(13) 5885. 0.9931 1.0954
54005. 1.11826 1.106(13) 5914. 0.9932 1.0982
54021. 1.11860 1.120(13) 5857. 0.9932 1.1018
54037. 1.11893 1.106(13) 5897. 0.9932 1.1059
54054. 1.11927 1.118(13) 5826. 0.9932 1.1102
54070. 1.11961 1.128(13) 5759. 0.9932 1.1143
54086. 1.11994 1.089(13) 6075. 0.9933 1.1180
54102. 1.12028 1.107(13) 5952. 0.9933 1.1208
54118. 1.12061 1.101(13) 5955. 0.9933 1.1225
54135. 1.12095 1.102(13) 5937. 0.9933 1.1230
54151. 1.12129 1.099(13) 5941. 0.9933 1.1222
54167. 1.12162 1.108(13) 5949. 0.9934 1.1201
54183. 1.12196 1.113(13) 5871. 0.9934 1.1168
54200. 1.12230 1.130(13) 5710. 0.9934 1.1127
54216. 1.12263 1.118(13) 5799. 0.9934 1.1080
54232. 1.12297 1.107(13) 5971. 0.9935 1.1032
54248. 1.12331 1.102(13) 5994. 0.9935 1.0990
54265. 1.12364 1.105(13) 5916. 0.9935 1.0956
54281. 1.12398 1.117(13) 5814. 0.9935 1.0932
54297. 1.12432 1.096(13) 6040. 0.9935 1.0920
54314. 1.12466 1.103(13) 5937. 0.9936 1.0918
54330. 1.12499 1.107(13) 5870. 0.9936 1.0923
54346. 1.12533 1.114(13) 5836. 0.9936 1.0933
54362. 1.12567 1.112(13) 5857. 0.9936 1.0944
54379. 1.12601 1.115(13) 5844. 0.9936 1.0956
54395. 1.12634 1.100(13) 5896. 0.9937 1.0969
54411. 1.12668 1.109(13) 5824. 0.9937 1.0983
54428. 1.12702 1.122(13) 5812. 0.9937 1.1001
54444. 1.12736 1.120(13) 5828. 0.9937 1.1021
54460. 1.12770 1.112(13) 5906. 0.9937 1.1046
54477. 1.12803 1.097(13) 6027. 0.9938 1.1074
54493. 1.12837 1.091(13) 6153. 0.9938 1.1103
54509. 1.12871 1.132(13) 5732. 0.9938 1.1132
54526. 1.12905 1.105(13) 5824. 0.9938 1.1158
54542. 1.12939 1.137(13) 5640. 0.9938 1.1176
54559. 1.12973 1.110(13) 5852. 0.9939 1.1186
54575. 1.13007 1.133(13) 5795. 0.9939 1.1185
54591. 1.13041 1.120(13) 5836. 0.9939 1.1175
54608. 1.13074 1.124(13) 5800. 0.9939 1.1160
54624. 1.13108 1.132(13) 5759. 0.9939 1.1143
54640. 1.13142 1.106(13) 5899. 0.9940 1.1129
54657. 1.13176 1.088(13) 5974. 0.9940 1.1120
54673. 1.13210 1.112(13) 5850. 0.9940 1.1117
54690. 1.13244 1.101(13) 5845. 0.9940 1.1120
54706. 1.13278 1.097(13) 5948. 0.9940 1.1127
54722. 1.13312 1.101(13) 5888. 0.9941 1.1135
54739. 1.13346 1.066(13) 6124. 0.9941 1.1143
54755. 1.13380 1.080(13) 5997. 0.9941 1.1150
54772. 1.13414 1.064(13) 6159. 0.9941 1.1158
54788. 1.13448 1.070(13) 6079. 0.9941 1.1168
54805. 1.13482 1.083(13) 6057. 0.9942 1.1183
54821. 1.13516 1.111(13) 5833. 0.9942 1.1203
54837. 1.13550 1.132(13) 5684. 0.9942 1.1228
54854. 1.13584 1.117(13) 5775. 0.9942 1.1254
54870. 1.13619 1.100(13) 5957. 0.9942 1.1275
54887. 1.13653 1.102(13) 5923. 0.9942 1.1285
54903. 1.13687 1.122(13) 5739. 0.9943 1.1279
54920. 1.13721 1.138(13) 5566. 0.9943 1.1254
54936. 1.13755 1.112(13) 5868. 0.9943 1.1209
54953. 1.13789 1.102(13) 5893. 0.9943 1.1148
54969. 1.13823 1.111(13) 5764. 0.9943 1.1076
54986. 1.13857 1.094(13) 6009. 0.9944 1.0998
55002. 1.13892 1.109(13) 5829. 0.9944 1.0919
55019. 1.13926 1.099(13) 5915. 0.9944 1.0842
55035. 1.13960 1.048(13) 6239. 0.9944 1.0772
55052. 1.13994 1.064(13) 6005. 0.9944 1.0711
55068. 1.14028 1.078(13) 5978. 0.9944 1.0660
55085. 1.14062 1.074(13) 6069. 0.9945 1.0622
55101. 1.14097 1.057(13) 6096. 0.9945 1.0597
55118. 1.14131 1.068(13) 5948. 0.9945 1.0583
55134. 1.14165 1.078(13) 5825. 0.9945 1.0579
55151. 1.14199 1.046(13) 6061. 0.9945 1.0582
55167. 1.14234 1.060(13) 5982. 0.9946 1.0592
55184. 1.14268 1.051(13) 6171. 0.9946 1.0604
55200. 1.14302 1.050(13) 6106. 0.9946 1.0617
55217. 1.14337 1.043(13) 6132. 0.9946 1.0628
55234. 1.14371 1.042(13) 6110. 0.9946 1.0637
55250. 1.14405 1.034(13) 6213. 0.9946 1.0642
55267. 1.14439 1.072(13) 5875. 0.9947 1.0642
55283. 1.14474 1.079(13) 5849. 0.9947 1.0639
55300. 1.14508 1.043(13) 6148. 0.9947 1.0633
55317. 1.14543 1.057(13) 6083. 0.9947 1.0626
55333. 1.14577 1.067(13) 5929. 0.9947 1.0621
55350. 1.14611 1.050(13) 6071. 0.9947 1.0620
55366. 1.14646 1.052(13) 6145. 0.9948 1.0627
55383. 1.14680 1.081(13) 5878. 0.9948 1.0643
55400. 1.14714 1.069(13) 5971. 0.9948 1.0672
55416. 1.14749 1.077(13) 5875. 0.9948 1.0714
55433. 1.14783 1.090(13) 5781. 0.9948 1.0770
55449. 1.14818 1.081(13) 5869. 0.9948 1.0839
55466. 1.14852 1.112(13) 5727. 0.9949 1.0919
55483. 1.14887 1.099(13) 5814. 0.9949 1.1003
55499. 1.14921 1.099(13) 5847. 0.9949 1.1085
55516. 1.14956 1.103(13) 5718. 0.9949 1.1159
55533. 1.14990 1.130(13) 5644. 0.9949 1.1215
55549. 1.15025 1.146(14) 5424. 0.9949 1.1255
55566. 1.15059 1.143(13) 5518. 0.9950 1.1280
55583. 1.15094 1.126(13) 5609. 0.9950 1.1294
55599. 1.15128 1.125(13) 5594. 0.9950 1.1301
55616. 1.15163 1.126(13) 5573. 0.9950 1.1303
55633. 1.15197 1.126(13) 5584. 0.9950 1.1300
55649. 1.15232 1.111(13) 5719. 0.9950 1.1292
55666. 1.15266 1.111(13) 5732. 0.9951 1.1280
55683. 1.15301 1.109(13) 5693. 0.9951 1.1265
55699. 1.15336 1.118(13) 5689. 0.9951 1.1246
55716. 1.15370 1.118(13) 5583. 0.9951 1.1225
55733. 1.15405 1.133(13) 5574. 0.9951 1.1202
55750. 1.15439 1.127(13) 5580. 0.9951 1.1180
55766. 1.15474 1.116(13) 5659. 0.9952 1.1161
55783. 1.15509 1.129(13) 5520. 0.9952 1.1146
55800. 1.15543 1.114(13) 5676. 0.9952 1.1137
55817. 1.15578 1.117(13) 5636. 0.9952 1.1132
55833. 1.15613 1.106(13) 5692. 0.9952 1.1132
55850. 1.15647 1.120(13) 5617. 0.9952 1.1132
55867. 1.15682 1.103(13) 5689. 0.9952 1.1129
55884. 1.15717 1.114(13) 5548. 0.9953 1.1119
55900. 1.15752 1.094(13) 5761. 0.9953 1.1100
55917. 1.15786 1.099(13) 5611. 0.9953 1.1072
55934. 1.15821 1.110(13) 5599. 0.9953 1.1037
55951. 1.15856 1.063(13) 5780. 0.9953 1.0999
55967. 1.15891 1.091(13) 5749. 0.9953 1.0958
55984. 1.15925 1.080(13) 5930. 0.9954 1.0919
56001. 1.15960 1.064(13) 5907. 0.9954 1.0883
56018. 1.15995 1.069(13) 5874. 0.9954 1.0852
56035. 1.16030 1.054(13) 5844. 0.9954 1.0828
56051. 1.16064 1.070(13) 5876. 0.9954 1.0814
56068. 1.16099 1.083(13) 5809. 0.9954 1.0812
56085. 1.16134 1.086(13) 5753. 0.9954 1.0822
56102. 1.16169 1.106(13) 5558. 0.9955 1.0846
56119. 1.16204 1.102(13) 5576. 0.9955 1.0885
56136. 1.16239 1.100(13) 5589. 0.9955 1.0937
56152. 1.16274 1.121(13) 5595. 0.9955 1.1002
56169. 1.16308 1.106(13) 5679. 0.9955 1.1078
56186. 1.16343 1.084(13) 5825. 0.9955 1.1164
56203. 1.16378 1.126(13) 5570. 0.9955 1.1257
56220. 1.16413 1.120(13) 5596. 0.9956 1.1356
56237. 1.16448 1.134(13) 5507. 0.9956 1.1459
56254. 1.16483 1.134(14) 5482. 0.9956 1.1563
56270. 1.16518 1.172(14) 5283. 0.9956 1.1664
56287. 1.16553 1.171(14) 5312. 0.9956 1.1759
56304. 1.16588 1.174(14) 5276. 0.9956 1.1842
56321. 1.16623 1.177(14) 5354. 0.9956 1.1912
56338. 1.16658 1.171(14) 5296. 0.9957 1.1964
56355. 1.16693 1.164(14) 5340. 0.9957 1.2001
56372. 1.16728 1.188(14) 5288. 0.9957 1.2024
56389. 1.16763 1.192(14) 5149. 0.9957 1.2038
56406. 1.16798 1.197(14) 5195. 0.9957 1.2050
56423. 1.16833 1.169(14) 5371. 0.9957 1.2065
56439. 1.16868 1.183(14) 5317. 0.9957 1.2090
56456. 1.16903 1.191(14) 5295. 0.9958 1.2130
56473. 1.16938 1.210(14) 5073. 0.9958 1.2189
56490. 1.16973 1.210(14) 5161. 0.9958 1.2271
56507. 1.17008 1.221(14) 5151. 0.9958 1.2374
56524. 1.17043 1.220(14) 5183. 0.9958 1.2494
56541. 1.17079 1.229(14) 5122. 0.9958 1.2622
56558. 1.17114 1.236(14) 5103. 0.9958 1.2748
56575. 1.17149 1.254(14) 5049. 0.9958 1.2862
56592. 1.17184 1.240(14) 5045. 0.9959 1.2956
56609. 1.17219 1.256(14) 4984. 0.9959 1.3029
56626. 1.17254 1.282(14) 4870. 0.9959 1.3082
56643. 1.17289 1.311(15) 4753. 0.9959 1.3120
56660. 1.17325 1.275(14) 4891. 0.9959 1.3149
56677. 1.17360 1.286(14) 4897. 0.9959 1.3176
56694. 1.17395 1.308(15) 4709. 0.9959 1.3209
56711. 1.17430 1.328(15) 4718. 0.9959 1.3256
56728. 1.17466 1.355(15) 4599. 0.9960 1.3326
56745. 1.17501 1.377(15) 4531. 0.9960 1.3432
56762. 1.17536 1.410(15) 4409. 0.9960 1.3585
56779. 1.17571 1.436(15) 4410. 0.9960 1.3801
56796. 1.17607 1.497(15) 4194. 0.9960 1.4098
56813. 1.17642 1.568(16) 3957. 0.9960 1.4495
56830. 1.17677 1.640(16) 3809. 0.9960 1.5011
56847. 1.17712 1.687(16) 3731. 0.9961 1.5668
56864. 1.17748 1.800(17) 3473. 0.9961 1.6484
56881. 1.17783 1.891(17) 3302. 0.9961 1.7474
56898. 1.17818 2.015(18) 3123. 0.9961 1.8651
56915. 1.17854 2.174(19) 2904. 0.9961 2.0018
56933. 1.17889 2.314(19) 2701. 0.9961 2.1571
56950. 1.17925 2.472(20) 2520. 0.9961 2.3293
56967. 1.17960 2.594(20) 2426. 0.9961 2.5154
56984. 1.17995 2.754(21) 2263. 0.9962 2.7105
57001. 1.18031 2.940(22) 2118. 0.9962 2.9079
57018. 1.18066 3.058(22) 2018. 0.9962 3.0985
57035. 1.18102 3.183(23) 1952. 0.9962 3.2712
57052. 1.18137 3.304(23) 1882. 0.9962 3.4145
57069. 1.18172 3.442(24) 1798. 0.9962 3.5156
57086. 1.18208 3.569(24) 1722. 0.9962 3.5659
57104. 1.18243 3.611(24) 1694. 0.9962 3.5613
57121. 1.18279 3.536(24) 1750. 0.9962 3.5029
57138. 1.18314 3.438(24) 1796. 0.9963 3.3969
57155. 1.18350 3.233(23) 1907. 0.9963 3.2527
57172. 1.18385 3.004(22) 2069. 0.9963 3.0812
57189. 1.18421 2.844(21) 2188. 0.9963 2.8931
57206. 1.18456 2.610(21) 2379. 0.9963 2.6981
57224. 1.18492 2.407(20) 2592. 0.9963 2.5046
57241. 1.18527 2.197(19) 2828. 0.9963 2.3188
57258. 1.18563 1.977(18) 3158. 0.9963 2.1457
57275. 1.18599 1.846(17) 3357. 0.9964 1.9884
57292. 1.18634 1.718(17) 3600. 0.9964 1.8485
57309. 1.18670 1.645(16) 3746. 0.9964 1.7266
57327. 1.18705 1.524(16) 4093. 0.9964 1.6222
57344. 1.18741 1.467(15) 4246. 0.9964 1.5339
57361. 1.18777 1.404(15) 4443. 0.9964 1.4600
57378. 1.18812 1.341(15) 4604. 0.9964 1.3986
57396. 1.18848 1.306(14) 4759. 0.9964 1.3476
57413. 1.18884 1.270(14) 4905. 0.9964 1.3053
57430. 1.18919 1.275(14) 4780. 0.9965 1.2702
57447. 1.18955 1.249(14) 4934. 0.9965 1.2411
57464. 1.18991 1.195(14) 5174. 0.9965 1.2170
57482. 1.19026 1.173(14) 5247. 0.9965 1.1971
57499. 1.19062 1.168(14) 5340. 0.9965 1.1807
57516. 1.19098 1.169(14) 5248. 0.9965 1.1672
57533. 1.19133 1.158(14) 5383. 0.9965 1.1563
57551. 1.19169 1.129(14) 5389. 0.9965 1.1476
57568. 1.19205 1.113(13) 5576. 0.9965 1.1408
57585. 1.19241 1.135(14) 5421. 0.9966 1.1357
57602. 1.19277 1.116(13) 5574. 0.9966 1.1322
57620. 1.19312 1.131(14) 5456. 0.9966 1.1300
57637. 1.19348 1.148(14) 5271. 0.9966 1.1291
57654. 1.19384 1.131(14) 5431. 0.9966 1.1294
57672. 1.19420 1.160(14) 5233. 0.9966 1.1309
57689. 1.19456 1.127(14) 5462. 0.9966 1.1336
57706. 1.19491 1.144(14) 5343. 0.9966 1.1377
57724. 1.19527 1.178(14) 5197. 0.9966 1.1429
57741. 1.19563 1.198(14) 5120. 0.9966 1.1493
57758. 1.19599 1.153(14) 5385. 0.9967 1.1568
57776. 1.19635 1.187(14) 5178. 0.9967 1.1653
57793. 1.19671 1.196(14) 5104. 0.9967 1.1743
57810. 1.19707 1.205(14) 5026. 0.9967 1.1830
57828. 1.19743 1.193(14) 5157. 0.9967 1.1906
57845. 1.19779 1.197(14) 5140. 0.9967 1.1958
57862. 1.19814 1.214(14) 4992. 0.9967 1.1980
57880. 1.19850 1.203(14) 5014. 0.9967 1.1965
57897. 1.19886 1.162(14) 5307. 0.9967 1.1916
57914. 1.19922 1.193(14) 5071. 0.9968 1.1837
57932. 1.19958 1.155(14) 5262. 0.9968 1.1738
57949. 1.19994 1.128(14) 5326. 0.9968 1.1626
57966. 1.20030 1.124(14) 5422. 0.9968 1.1511
57984. 1.20066 1.117(13) 5490. 0.9968 1.1398
58001. 1.20102 1.102(13) 5502. 0.9968 1.1292
58019. 1.20138 1.096(14) 5452. 0.9968 1.1194
58036. 1.20174 1.091(13) 5561. 0.9968 1.1105
58053. 1.20210 1.093(13) 5555. 0.9968 1.1026
58071. 1.20247 1.091(13) 5517. 0.9968 1.0957
58088. 1.20283 1.064(13) 5726. 0.9969 1.0896
58106. 1.20319 1.069(13) 5679. 0.9969 1.0845
58123. 1.20355 1.065(13) 5705. 0.9969 1.0803
58141. 1.20391 1.062(13) 5646. 0.9969 1.0769
58158. 1.20427 1.061(13) 5710. 0.9969 1.0744
58175. 1.20463 1.075(13) 5563. 0.9969 1.0727
58193. 1.20499 1.076(13) 5579. 0.9969 1.0719
58210. 1.20535 1.102(14) 5371. 0.9969 1.0720
58228. 1.20572 1.071(13) 5600. 0.9969 1.0730
58245. 1.20608 1.060(13) 5670. 0.9969 1.0749
58263. 1.20644 1.081(14) 5476. 0.9969 1.0778
58280. 1.20680 1.097(13) 5497. 0.9970 1.0814
58298. 1.20716 1.077(13) 5597. 0.9970 1.0857
58315. 1.20753 1.104(14) 5433. 0.9970 1.0904
58333. 1.20789 1.095(14) 5448. 0.9970 1.0953
58350. 1.20825 1.116(14) 5379. 0.9970 1.1000
58368. 1.20861 1.104(13) 5505. 0.9970 1.1041
58385. 1.20898 1.108(14) 5464. 0.9970 1.1075
58403. 1.20934 1.107(14) 5436. 0.9970 1.1101
58420. 1.20970 1.128(14) 5293. 0.9970 1.1117
58438. 1.21006 1.107(14) 5397. 0.9970 1.1125
58455. 1.21043 1.120(14) 5316. 0.9971 1.1125
58473. 1.21079 1.102(14) 5424. 0.9971 1.1120
58490. 1.21115 1.120(14) 5296. 0.9971 1.1108
58508. 1.21152 1.097(14) 5453. 0.9971 1.1093
58526. 1.21188 1.098(14) 5436. 0.9971 1.1074
58543. 1.21224 1.118(14) 5247. 0.9971 1.1052
58561. 1.21261 1.110(14) 5380. 0.9971 1.1031
58578. 1.21297 1.116(14) 5329. 0.9971 1.1010
58596. 1.21334 1.108(14) 5376. 0.9971 1.0991
58613. 1.21370 1.083(13) 5569. 0.9971 1.0976
58631. 1.21406 1.086(13) 5540. 0.9971 1.0966
58649. 1.21443 1.095(13) 5523. 0.9972 1.0960
58666. 1.21479 1.106(14) 5400. 0.9972 1.0958
58684. 1.21516 1.085(13) 5517. 0.9972 1.0961
58701. 1.21552 1.087(14) 5424. 0.9972 1.0966
58719. 1.21589 1.095(14) 5414. 0.9972 1.0972
58737. 1.21625 1.078(13) 5519. 0.9972 1.0978
58754. 1.21662 1.100(14) 5410. 0.9972 1.0984
58772. 1.21698 1.080(13) 5507. 0.9972 1.0990
58789. 1.21735 1.102(14) 5383. 0.9972 1.0999
58807. 1.21771 1.114(14) 5301. 0.9972 1.1011
58825. 1.21808 1.099(14) 5400. 0.9972 1.1028
58842. 1.21844 1.089(14) 5421. 0.9972 1.1054
58860. 1.21881 1.104(14) 5455. 0.9973 1.1090
58878. 1.21917 1.098(14) 5397. 0.9973 1.1139
58895. 1.21954 1.134(14) 5190. 0.9973 1.1204
58913. 1.21991 1.125(14) 5294. 0.9973 1.1287
58931. 1.22027 1.150(14) 5176. 0.9973 1.1391
58948. 1.22064 1.150(14) 5149. 0.9973 1.1519
58966. 1.22100 1.159(14) 5069. 0.9973 1.1676
58984. 1.22137 1.171(14) 5005. 0.9973 1.1865
59001. 1.22174 1.146(14) 5193. 0.9973 1.2093
59019. 1.22210 1.188(14) 4984. 0.9973 1.2366
59037. 1.22247 1.185(14) 5056. 0.9973 1.2690
59055. 1.22284 1.260(15) 4704. 0.9973 1.3073
59072. 1.22320 1.291(15) 4671. 0.9974 1.3520
59090. 1.22357 1.403(15) 4264. 0.9974 1.4034
59108. 1.22394 1.506(16) 3993. 0.9974 1.4617
59125. 1.22430 1.613(16) 3708. 0.9974 1.5264
59143. 1.22467 1.735(17) 3437. 0.9974 1.5964
59161. 1.22504 1.803(17) 3355. 0.9974 1.6699
59179. 1.22541 1.881(18) 3182. 0.9974 1.7435
59196. 1.22577 1.907(18) 3183. 0.9974 1.8129
59214. 1.22614 1.935(18) 3118. 0.9974 1.8727
59232. 1.22651 1.973(18) 3054. 0.9974 1.9181
59250. 1.22688 2.018(18) 3011. 0.9974 1.9455
59268. 1.22725 2.006(18) 3011. 0.9974 1.9540
59285. 1.22761 2.000(18) 2981. 0.9975 1.9452
59303. 1.22798 1.972(18) 3027. 0.9975 1.9230
59321. 1.22835 1.905(18) 3161. 0.9975 1.8923
59339. 1.22872 1.875(18) 3163. 0.9975 1.8580
59356. 1.22909 1.806(17) 3331. 0.9975 1.8245
59374. 1.22946 1.757(17) 3438. 0.9975 1.7951
59392. 1.22983 1.694(17) 3566. 0.9975 1.7721
59410. 1.23019 1.657(17) 3666. 0.9975 1.7566
59428. 1.23056 1.635(16) 3695. 0.9975 1.7482
59446. 1.23093 1.628(16) 3706. 0.9975 1.7459
59463. 1.23130 1.627(16) 3725. 0.9975 1.7479
59481. 1.23167 1.624(16) 3719. 0.9975 1.7519
59499. 1.23204 1.647(16) 3695. 0.9975 1.7551
59517. 1.23241 1.665(17) 3625. 0.9976 1.7551
59535. 1.23278 1.687(17) 3545. 0.9976 1.7496
59553. 1.23315 1.703(17) 3510. 0.9976 1.7370
59571. 1.23352 1.716(17) 3492. 0.9976 1.7170
59588. 1.23389 1.706(17) 3519. 0.9976 1.6904
59606. 1.23426 1.669(17) 3567. 0.9976 1.6588
59624. 1.23463 1.666(17) 3627. 0.9976 1.6241
59642. 1.23500 1.634(17) 3671. 0.9976 1.5882
59660. 1.23537 1.617(17) 3646. 0.9976 1.5527
59678. 1.23574 1.590(16) 3698. 0.9976 1.5188
59696. 1.23611 1.536(16) 3888. 0.9976 1.4874
59714. 1.23648 1.483(16) 4056. 0.9976 1.4591
59732. 1.23686 1.478(15) 4164. 0.9976 1.4339
59749. 1.23723 1.449(15) 4233. 0.9977 1.4119
59767. 1.23760 1.396(15) 4465. 0.9977 1.3929
59785. 1.23797 1.377(15) 4553. 0.9977 1.3765
59803. 1.23834 1.368(15) 4530. 0.9977 1.3622
59821. 1.23871 1.365(15) 4504. 0.9977 1.3497
59839. 1.23908 1.340(15) 4528. 0.9977 1.3389
59857. 1.23946 1.352(15) 4439. 0.9977 1.3299
59875. 1.23983 1.328(15) 4486. 0.9977 1.3234
59893. 1.24020 1.312(15) 4248. 0.9977 1.3208
59911. 1.24057 1.275(16) 4157. 0.9977 1.3241
59929. 1.24094 1.308(16) 3929. 0.9977 1.3358
59947. 1.24132 1.299(16) 3775. 0.9977 1.3584
59965. 1.24169 1.324(16) 3707. 0.9977 1.3948
59983. 1.24206 1.349(17) 3611. 0.9978 1.4471
60001. 1.24243 1.481(17) 3286. 0.9978 1.5164
60019. 1.24281 1.635(18) 2984. 0.9978 1.6022
60037. 1.24318 1.817(19) 2681. 0.9978 1.7016
60055. 1.24355 1.988(20) 2431. 0.9978 1.8086
60073. 1.24393 2.105(21) 2299. 0.9978 1.9137
60091. 1.24430 2.195(21) 2213. 0.9978 2.0039
60109. 1.24467 2.170(21) 2216. 0.9978 2.0653
60127. 1.24505 2.171(21) 2203. 0.9978 2.0871
60145. 1.24542 2.082(21) 2316. 0.9978 2.0663
60163. 1.24579 1.980(20) 2422. 0.9978 2.0077
60181. 1.24617 1.888(20) 2550. 0.9978 1.9215
60199. 1.24654 1.760(19) 2741. 0.9978 1.8193
60217. 1.24691 1.649(18) 2954. 0.9978 1.7115
60235. 1.24729 1.544(18) 3160. 0.9979 1.6068
60253. 1.24766 1.440(17) 3372. 0.9979 1.5107
60271. 1.24804 1.413(17) 3385. 0.9979 1.4269
60290. 1.24841 1.324(16) 3678. 0.9979 1.3565
60308. 1.24879 1.284(16) 3757. 0.9979 1.2994
60326. 1.24916 1.240(16) 3886. 0.9979 1.2543
60344. 1.24954 1.216(16) 3998. 0.9979 1.2194
60362. 1.24991 1.203(16) 4016. 0.9979 1.1928
60380. 1.25029 1.180(16) 4051. 0.9979 1.1730
60398. 1.25066 1.181(16) 4085. 0.9979 1.1584
60416. 1.25104 1.150(15) 4192. 0.9979 1.1480
60434. 1.25141 1.154(15) 4199. 0.9979 1.1409
60453. 1.25179 1.154(15) 4206. 0.9979 1.1365
60471. 1.25216 1.153(15) 4212. 0.9979 1.1342
60489. 1.25254 1.129(15) 4332. 0.9980 1.1338
60507. 1.25291 1.121(15) 4284. 0.9980 1.1347
60525. 1.25329 1.095(15) 4557. 0.9980 1.1366
60543. 1.25367 1.110(15) 4421. 0.9980 1.1390
60561. 1.25404 1.111(15) 4384. 0.9980 1.1415
60580. 1.25442 1.081(15) 4571. 0.9980 1.1435
60598. 1.25479 1.094(15) 4475. 0.9980 1.1446
60616. 1.25517 1.094(15) 4513. 0.9980 1.1442
60634. 1.25555 1.106(15) 4455. 0.9980 1.1421
60652. 1.25592 1.099(15) 4474. 0.9980 1.1386
60671. 1.25630 1.113(15) 4364. 0.9980 1.1341
60689. 1.25668 1.135(15) 4314. 0.9980 1.1292
60707. 1.25705 1.123(15) 4307. 0.9980 1.1243
60725. 1.25743 1.119(15) 4299. 0.9980 1.1199
60743. 1.25781 1.112(15) 4448. 0.9980 1.1162
60762. 1.25819 1.089(15) 4637. 0.9981 1.1133
60780. 1.25856 1.111(15) 4685. 0.9981 1.1114
60798. 1.25894 1.115(15) 4716. 0.9981 1.1103
60816. 1.25932 1.106(14) 4821. 0.9981 1.1099
60835. 1.25970 1.121(14) 4830. 0.9981 1.1100
60853. 1.26008 1.114(14) 5045. 0.9981 1.1102
60871. 1.26045 1.132(14) 4929. 0.9981 1.1101
60889. 1.26083 1.121(14) 5184. 0.9981 1.1094
60908. 1.26121 1.117(14) 5252. 0.9981 1.1079
60926. 1.26159 1.121(14) 5224. 0.9981 1.1053
60944. 1.26197 1.122(14) 5227. 0.9981 1.1017
60962. 1.26235 1.132(14) 5147. 0.9981 1.0972
60981. 1.26272 1.112(14) 5230. 0.9981 1.0924
60999. 1.26310 1.108(14) 5245. 0.9981 1.0880
61017. 1.26348 1.115(14) 5149. 0.9982 1.0845
61036. 1.26386 1.083(14) 5342. 0.9982 1.0828
61054. 1.26424 1.099(14) 5298. 0.9982 1.0834
61072. 1.26462 1.072(14) 5414. 0.9982 1.0867
61091. 1.26500 1.096(14) 5336. 0.9982 1.0935
61109. 1.26538 1.106(14) 5273. 0.9982 1.1038
61127. 1.26576 1.126(14) 5156. 0.9982 1.1181
61146. 1.26614 1.139(14) 5031. 0.9982 1.1364
61164. 1.26652 1.175(14) 4900. 0.9982 1.1586
61182. 1.26690 1.205(14) 4773. 0.9982 1.1842
61201. 1.26728 1.232(15) 4613. 0.9982 1.2121
61219. 1.26766 1.255(15) 4576. 0.9982 1.2410
61237. 1.26804 1.293(15) 4387. 0.9982 1.2687
61256. 1.26842 1.274(15) 4541. 0.9982 1.2925
61274. 1.26880 1.281(15) 4506. 0.9982 1.3096
61292. 1.26918 1.264(15) 4548. 0.9983 1.3177
61311. 1.26956 1.244(15) 4629. 0.9983 1.3160
61329. 1.26994 1.255(15) 4660. 0.9983 1.3050
61348. 1.27032 1.223(15) 4730. 0.9983 1.2867
61366. 1.27070 1.209(15) 4737. 0.9983 1.2636
61384. 1.27109 1.219(15) 4647. 0.9983 1.2380
61403. 1.27147 1.203(15) 4736. 0.9983 1.2121
61421. 1.27185 1.169(14) 4829. 0.9983 1.1876
61440. 1.27223 1.128(14) 5097. 0.9983 1.1654
61458. 1.27261 1.157(14) 4910. 0.9983 1.1460
61477. 1.27299 1.153(14) 4898. 0.9983 1.1292
61495. 1.27337 1.116(14) 5092. 0.9983 1.1147
61513. 1.27376 1.114(14) 5057. 0.9983 1.1020
61532. 1.27414 1.124(14) 5046. 0.9983 1.0910
61550. 1.27452 1.112(14) 5169. 0.9983 1.0815
61569. 1.27490 1.093(14) 5155. 0.9984 1.0735
61587. 1.27529 1.125(14) 4990. 0.9984 1.0669
61606. 1.27567 1.090(14) 5203. 0.9984 1.0617
61624. 1.27605 1.112(14) 5015. 0.9984 1.0577
61643. 1.27643 1.098(14) 5071. 0.9984 1.0548
61661. 1.27682 1.098(14) 5127. 0.9984 1.0529
61680. 1.27720 1.131(14) 4952. 0.9984 1.0520
61698. 1.27758 1.108(14) 5038. 0.9984 1.0520
61717. 1.27797 1.098(14) 5186. 0.9984 1.0530
61735. 1.27835 1.124(14) 5017. 0.9984 1.0550
61754. 1.27873 1.137(14) 4870. 0.9984 1.0583
61772. 1.27912 1.124(14) 4989. 0.9984 1.0630
61791. 1.27950 1.121(14) 5047. 0.9984 1.0695
61809. 1.27989 1.143(14) 4876. 0.9984 1.0781
61828. 1.28027 1.133(14) 4958. 0.9984 1.0888
61846. 1.28065 1.136(14) 4913. 0.9985 1.1018
61865. 1.28104 1.135(14) 5008. 0.9985 1.1168
61884. 1.28142 1.178(14) 4795. 0.9985 1.1331
61902. 1.28181 1.186(15) 4706. 0.9985 1.1497
61921. 1.28219 1.202(15) 4587. 0.9985 1.1654
61939. 1.28258 1.208(15) 4584. 0.9985 1.1787
61958. 1.28296 1.219(15) 4571. 0.9985 1.1893
61976. 1.28335 1.221(15) 4510. 0.9985 1.1977
61995. 1.28373 1.219(15) 4615. 0.9985 1.2045
62014. 1.28412 1.214(15) 4645. 0.9985 1.2105
62032. 1.28450 1.228(15) 4596. 0.9985 1.2165
62051. 1.28489 1.217(15) 4587. 0.9985 1.2231
62069. 1.28527 1.232(15) 4470. 0.9985 1.2305
62088. 1.28566 1.208(15) 4669. 0.9985 1.2390
62107. 1.28604 1.238(15) 4479. 0.9985 1.2485
62125. 1.28643 1.229(15) 4560. 0.9986 1.2588
62144. 1.28682 1.256(15) 4446. 0.9986 1.2701
62163. 1.28720 1.248(15) 4517. 0.9986 1.2824
62181. 1.28759 1.266(15) 4423. 0.9986 1.2962
62200. 1.28797 1.274(15) 4364. 0.9986 1.3117
62219. 1.28836 1.288(15) 4303. 0.9986 1.3294
62237. 1.28875 1.338(15) 4183. 0.9986 1.3495
62256. 1.28913 1.387(16) 4049. 0.9986 1.3725
62275. 1.28952 1.404(16) 4010. 0.9986 1.3984
62293. 1.28991 1.475(16) 3810. 0.9986 1.4272
62312. 1.29029 1.482(16) 3752. 0.9986 1.4582
62331. 1.29068 1.530(17) 3620. 0.9986 1.4902
62349. 1.29107 1.513(16) 3736. 0.9986 1.5212
62368. 1.29146 1.545(17) 3661. 0.9986 1.5497
62387. 1.29184 1.569(17) 3581. 0.9987 1.5743
62406. 1.29223 1.584(17) 3564. 0.9987 1.5937
62424. 1.29262 1.585(17) 3530. 0.9987 1.6055
62443. 1.29301 1.610(17) 3461. 0.9987 1.6069
62462. 1.29339 1.604(17) 3458. 0.9987 1.5964
62480. 1.29378 1.578(17) 3512. 0.9987 1.5736
62499. 1.29417 1.526(16) 3681. 0.9987 1.5392
62518. 1.29456 1.498(16) 3702. 0.9987 1.4950
62537. 1.29495 1.453(16) 3802. 0.9987 1.4440
62555. 1.29534 1.410(16) 3949. 0.9987 1.3906
62574. 1.29572 1.331(15) 4239. 0.9987 1.3385
62593. 1.29611 1.311(15) 4245. 0.9987 1.2906
62612. 1.29650 1.272(15) 4386. 0.9987 1.2486
62631. 1.29689 1.229(15) 4480. 0.9987 1.2132
62649. 1.29728 1.190(15) 4652. 0.9988 1.1841
62668. 1.29767 1.178(15) 4605. 0.9988 1.1608
62687. 1.29806 1.156(14) 4769. 0.9988 1.1424
62706. 1.29845 1.141(14) 4776. 0.9988 1.1282
62725. 1.29884 1.142(14) 4788. 0.9988 1.1177
62743. 1.29923 1.155(15) 4642. 0.9988 1.1101
62762. 1.29962 1.124(14) 4838. 0.9988 1.1053
62781. 1.30001 1.127(14) 4874. 0.9988 1.1030
62800. 1.30040 1.127(14) 4889. 0.9988 1.1029
62819. 1.30079 1.092(14) 5068. 0.9988 1.1049
62838. 1.30118 1.117(14) 4883. 0.9988 1.1088
62856. 1.30157 1.101(14) 4974. 0.9988 1.1143
62875. 1.30196 1.109(14) 4890. 0.9988 1.1213
62894. 1.30235 1.119(14) 4893. 0.9988 1.1297
62913. 1.30274 1.125(14) 4886. 0.9989 1.1398
62932. 1.30313 1.125(14) 4898. 0.9989 1.1523
62951. 1.30352 1.158(15) 4741. 0.9989 1.1684
62970. 1.30391 1.154(14) 4819. 0.9989 1.1890
62989. 1.30430 1.165(15) 4725. 0.9989 1.2152
63007. 1.30469 1.245(15) 4339. 0.9989 1.2475
63026. 1.30509 1.328(16) 4134. 0.9989 1.2858
63045. 1.30548 1.394(16) 3950. 0.9989 1.3293
63064. 1.30587 1.454(16) 3775. 0.9989 1.3760
63083. 1.30626 1.471(16) 3719. 0.9989 1.4231
63102. 1.30665 1.493(16) 3674. 0.9989 1.4662
63121. 1.30705 1.517(17) 3652. 0.9989 1.5006
63140. 1.30744 1.488(16) 3673. 0.9989 1.5214
63159. 1.30783 1.496(17) 3646. 0.9990 1.5258
63178. 1.30822 1.471(16) 3696. 0.9990 1.5132
63197. 1.30861 1.465(16) 3720. 0.9990 1.4860
63216. 1.30901 1.408(16) 3882. 0.9990 1.4479
63235. 1.30940 1.402(16) 3859. 0.9990 1.4033
63254. 1.30979 1.348(16) 3995. 0.9990 1.3562
63273. 1.31019 1.290(15) 4176. 0.9990 1.3100
63292. 1.31058 1.279(15) 4298. 0.9990 1.2682
63311. 1.31097 1.217(15) 4537. 0.9990 1.2303
63330. 1.31137 1.179(15) 4644. 0.9990 1.1983
63349. 1.31176 1.180(15) 4591. 0.9990 1.1723
63368. 1.31215 1.150(15) 4723. 0.9990 1.1521
63387. 1.31255 1.133(14) 4774. 0.9990 1.1371
63406. 1.31294 1.159(15) 4632. 0.9991 1.1266
63425. 1.31333 1.141(15) 4700. 0.9991 1.1197
63444. 1.31373 1.133(15) 4713. 0.9991 1.1155
63463. 1.31412 1.129(15) 4727. 0.9991 1.1132
63482. 1.31452 1.105(14) 4887. 0.9991 1.1118
63501. 1.31491 1.115(15) 4752. 0.9991 1.1109
63520. 1.31531 1.119(14) 4791. 0.9991 1.1101
63539. 1.31570 1.106(14) 4873. 0.9991 1.1094
63558. 1.31609 1.091(14) 4959. 0.9991 1.1089
63577. 1.31649 1.131(15) 4750. 0.9991 1.1086
63596. 1.31688 1.136(15) 4692. 0.9991 1.1084
63615. 1.31728 1.132(15) 4690. 0.9991 1.1082
63634. 1.31767 1.126(15) 4712. 0.9992 1.1076
63653. 1.31807 1.128(15) 4706. 0.9992 1.1064
63672. 1.31847 1.100(14) 4894. 0.9992 1.1045
63691. 1.31886 1.124(15) 4742. 0.9992 1.1018
63711. 1.31926 1.115(14) 4810. 0.9992 1.0985
63730. 1.31965 1.092(14) 4899. 0.9992 1.0949
63749. 1.32005 1.097(14) 4915. 0.9992 1.0914
63768. 1.32044 1.116(14) 4846. 0.9992 1.0882
63787. 1.32084 1.134(15) 4685. 0.9992 1.0857
63806. 1.32124 1.089(14) 4946. 0.9992 1.0842
63825. 1.32163 1.097(14) 4864. 0.9992 1.0839
63844. 1.32203 1.091(14) 4879. 0.9992 1.0851
63864. 1.32243 1.091(14) 5061. 0.9993 1.0879
63883. 1.32282 1.135(15) 4625. 0.9993 1.0925
63902. 1.32322 1.145(15) 4638. 0.9993 1.0991
63921. 1.32362 1.127(14) 4834. 0.9993 1.1077
63940. 1.32401 1.149(15) 4645. 0.9993 1.1185
63959. 1.32441 1.138(14) 4782. 0.9993 1.1315
63979. 1.32481 1.155(15) 4694. 0.9993 1.1467
63998. 1.32521 1.202(15) 4416. 0.9993 1.1640
64017. 1.32560 1.190(15) 4463. 0.9993 1.1833
64036. 1.32600 1.214(15) 4507. 0.9993 1.2042
64055. 1.32640 1.232(15) 4386. 0.9993 1.2263
64075. 1.32680 1.257(15) 4259. 0.9993 1.2485
64094. 1.32720 1.262(15) 4254. 0.9994 1.2708
64113. 1.32759 1.253(15) 4292. 0.9994 1.2918
64132. 1.32799 1.279(15) 4200. 0.9994 1.3104
64152. 1.32839 1.299(16) 4117. 0.9994 1.3252
64171. 1.32879 1.324(16) 4060. 0.9994 1.3353
64190. 1.32919 1.296(16) 4150. 0.9994 1.3399
64209. 1.32959 1.305(16) 4151. 0.9994 1.3386
64229. 1.32999 1.318(16) 4062. 0.9994 1.3318
64248. 1.33038 1.300(16) 4106. 0.9994 1.3199
64267. 1.33078 1.278(15) 4181. 0.9994 1.3042
64286. 1.33118 1.281(15) 4185. 0.9994 1.2859
64306. 1.33158 1.276(15) 4167. 0.9995 1.2661
64325. 1.33198 1.244(15) 4253. 0.9995 1.2461
64344. 1.33238 1.242(15) 4197. 0.9995 1.2268
64364. 1.33278 1.204(15) 4366. 0.9995 1.2088
64383. 1.33318 1.197(15) 4460. 0.9995 1.1926
64402. 1.33358 1.188(15) 4493. 0.9995 1.1785
64422. 1.33398 1.192(15) 4402. 0.9995 1.1667
64441. 1.33438 1.184(15) 4381. 0.9995 1.1573
64460. 1.33478 1.156(15) 4538. 0.9995 1.1501
64480. 1.33518 1.147(15) 4594. 0.9995 1.1453
64499. 1.33558 1.175(15) 4500. 0.9995 1.1426
64518. 1.33598 1.187(15) 4373. 0.9996 1.1424
64538. 1.33638 1.164(15) 4549. 0.9996 1.1446
64557. 1.33679 1.186(15) 4372. 0.9996 1.1494
64576. 1.33719 1.191(15) 4424. 0.9996 1.1570
64596. 1.33759 1.220(15) 4258. 0.9996 1.1673
64615. 1.33799 1.230(15) 4189. 0.9996 1.1801
64635. 1.33839 1.229(15) 4186. 0.9996 1.1947
64654. 1.33879 1.239(15) 4260. 0.9996 1.2102
64673. 1.33919 1.266(16) 4126. 0.9996 1.2252
64693. 1.33960 1.245(15) 4183. 0.9996 1.2389
64712. 1.34000 1.279(16) 4090. 0.9997 1.2513
64732. 1.34040 1.304(16) 3994. 0.9997 1.2633
64751. 1.34080 1.279(16) 4048. 0.9997 1.2766
64770. 1.34120 1.296(16) 4077. 0.9997 1.2924
64790. 1.34161 1.321(16) 3935. 0.9997 1.3121
64809. 1.34201 1.355(16) 3821. 0.9997 1.3362
64829. 1.34241 1.390(16) 3736. 0.9997 1.3649
64848. 1.34281 1.404(16) 3695. 0.9997 1.3993
64868. 1.34322 1.417(16) 3711. 0.9997 1.4359
64887. 1.34362 1.478(17) 3532. 0.9997 1.4749
64906. 1.34402 1.492(17) 3457. 0.9998 1.5146
64926. 1.34443 1.522(17) 3480. 0.9998 1.5531
64945. 1.34483 1.505(17) 3506. 0.9998 1.5879
64965. 1.34523 1.590(17) 3274. 0.9998 1.6160
64984. 1.34564 1.624(18) 3160. 0.9998 1.6349
65004. 1.34604 1.620(18) 3230. 0.9998 1.6424
65023. 1.34644 1.643(18) 3153. 0.9998 1.6373
65043. 1.34685 1.613(18) 3205. 0.9998 1.6196
65062. 1.34725 1.574(17) 3308. 0.9998 1.5909
65082. 1.34766 1.548(17) 3368. 0.9998 1.5536
65101. 1.34806 1.474(17) 3547. 0.9999 1.5106
65121. 1.34847 1.442(17) 3593. 0.9999 1.4648
65141. 1.34887 1.405(16) 3721. 0.9999 1.4186
65160. 1.34927 1.364(16) 3807. 0.9999 1.3742
65180. 1.34968 1.340(16) 3842. 0.9999 1.3331
65199. 1.35008 1.286(16) 4006. 0.9999 1.2964
65219. 1.35049 1.234(16) 4144. 0.9999 1.2646
65238. 1.35089 1.208(15) 4283. 0.9999 1.2382
65258. 1.35130 1.181(15) 4403. 0.9999 1.2169
65277. 1.35171 1.183(15) 4363. 1.0000 1.2004
65297. 1.35211 1.176(15) 4418. 1.0000 1.1888
65317. 1.35252 1.181(15) 4357. 1.0000 1.1813
65336. 1.35292 1.178(15) 4378. 1.0000 1.1774
65356. 1.35333 1.188(15) 4320. 1.0000 1.1765
65375. 1.35373 1.164(15) 4489. 1.0000 1.1781
65395. 1.35414 1.167(15) 4460. 1.0000 1.1817
65415. 1.35455 1.175(15) 4372. 1.0000 1.1868
65434. 1.35495 1.197(15) 4207. 1.0000 1.1929
65454. 1.35536 1.187(15) 4251. 1.0001 1.1995
65474. 1.35577 1.177(15) 4375. 1.0001 1.2062
65493. 1.35617 1.191(15) 4287. 1.0001 1.2125
65513. 1.35658 1.201(15) 4219. 1.0001 1.2180
65533. 1.35699 1.215(15) 4169. 1.0001 1.2222
65552. 1.35739 1.217(15) 4216. 1.0001 1.2248
65572. 1.35780 1.209(15) 4247. 1.0001 1.2256
65592. 1.35821 1.194(15) 4294. 1.0001 1.2244
65611. 1.35862 1.247(16) 4069. 1.0001 1.2212
65631. 1.35902 1.219(15) 4183. 1.0002 1.2162
65651. 1.35943 1.216(15) 4174. 1.0002 1.2094
65670. 1.35984 1.239(16) 4082. 1.0002 1.2013
65690. 1.36025 1.203(15) 4240. 1.0002 1.1922
65710. 1.36066 1.182(15) 4312. 1.0002 1.1823
65729. 1.36106 1.179(15) 4267. 1.0002 1.1721
65749. 1.36147 1.190(15) 4315. 1.0002 1.1619
65769. 1.36188 1.167(15) 4371. 1.0002 1.1520
65789. 1.36229 1.146(15) 4437. 1.0003 1.1427
65808. 1.36270 1.131(15) 4525. 1.0003 1.1342
65828. 1.36311 1.114(15) 4534. 1.0003 1.1266
65848. 1.36352 1.142(15) 4425. 1.0003 1.1203
65868. 1.36392 1.099(15) 4557. 1.0003 1.1152
65887. 1.36433 1.089(15) 4577. 1.0003 1.1115
65907. 1.36474 1.113(15) 4514. 1.0003 1.1093
65927. 1.36515 1.109(15) 4468. 1.0003 1.1085
65947. 1.36556 1.079(15) 4706. 1.0004 1.1092
65966. 1.36597 1.101(15) 4579. 1.0004 1.1113
65986. 1.36638 1.100(15) 4552. 1.0004 1.1146
66006. 1.36679 1.122(15) 4417. 1.0004 1.1191
66026. 1.36720 1.119(15) 4544. 1.0004 1.1243
66046. 1.36761 1.145(15) 4408. 1.0004 1.1301
66065. 1.36802 1.135(15) 4363. 1.0004 1.1360
66085. 1.36843 1.156(15) 4269. 1.0004 1.1415
66105. 1.36884 1.160(15) 4247. 1.0005 1.1461
66125. 1.36925 1.136(15) 4373. 1.0005 1.1496
66145. 1.36966 1.151(15) 4270. 1.0005 1.1516
66165. 1.37008 1.159(15) 4324. 1.0005 1.1521
66184. 1.37049 1.180(15) 4177. 1.0005 1.1514
66204. 1.37090 1.144(15) 4407. 1.0005 1.1497
66224. 1.37131 1.143(15) 4379. 1.0005 1.1476
66244. 1.37172 1.158(15) 4264. 1.0006 1.1454
66264. 1.37213 1.159(15) 4267. 1.0006 1.1435
66284. 1.37254 1.163(15) 4236. 1.0006 1.1423
66304. 1.37296 1.141(15) 4346. 1.0006 1.1421
66324. 1.37337 1.172(15) 4216. 1.0006 1.1429
66343. 1.37378 1.160(15) 4259. 1.0006 1.1449
66363. 1.37419 1.134(15) 4405. 1.0006 1.1478
66383. 1.37460 1.175(15) 4163. 1.0006 1.1515
66403. 1.37502 1.201(16) 4114. 1.0007 1.1556
66423. 1.37543 1.175(15) 4240. 1.0007 1.1596
66443. 1.37584 1.184(15) 4189. 1.0007 1.1629
66463. 1.37625 1.199(16) 4149. 1.0007 1.1650
66483. 1.37667 1.193(16) 4141. 1.0007 1.1655
66503. 1.37708 1.202(16) 4085. 1.0007 1.1641
66523. 1.37749 1.194(16) 4114. 1.0007 1.1609
66543. 1.37791 1.182(15) 4223. 1.0008 1.1562
66563. 1.37832 1.151(15) 4306. 1.0008 1.1506
66583. 1.37873 1.180(16) 4151. 1.0008 1.1445
66603. 1.37915 1.191(16) 4140. 1.0008 1.1384
66623. 1.37956 1.157(15) 4273. 1.0008 1.1329
66643. 1.37998 1.186(16) 4120. 1.0008 1.1284
66663. 1.38039 1.157(15) 4285. 1.0008 1.1272
66683. 1.38080 1.168(15) 4201. 1.0009 1.1258
66703. 1.38122 1.145(15) 4309. 1.0009 1.1264
66723. 1.38163 1.162(15) 4269. 1.0009 1.1293
66743. 1.38205 1.176(15) 4186. 1.0009 1.1346
66763. 1.38246 1.171(15) 4168. 1.0009 1.1424
66783. 1.38288 1.158(15) 4167. 1.0009 1.1530
66803. 1.38329 1.185(16) 4100. 1.0010 1.1664
66823. 1.38371 1.196(16) 4119. 1.0010 1.1826
66843. 1.38412 1.230(16) 3972. 1.0010 1.2015
66863. 1.38454 1.247(16) 3853. 1.0010 1.2229
66883. 1.38495 1.232(16) 3980. 1.0010 1.2464
66903. 1.38537 1.263(16) 3825. 1.0010 1.2715
66923. 1.38578 1.293(16) 3752. 1.0010 1.2975
66943. 1.38620 1.300(16) 3743. 1.0011 1.3237
66963. 1.38661 1.336(17) 3619. 1.0011 1.3496
66983. 1.38703 1.367(17) 3547. 1.0011 1.3748
67003. 1.38745 1.392(17) 3481. 1.0011 1.3990
67023. 1.38786 1.409(17) 3445. 1.0011 1.4216
67044. 1.38828 1.405(17) 3524. 1.0011 1.4422
67064. 1.38870 1.432(17) 3428. 1.0012 1.4598
67084. 1.38911 1.492(18) 3186. 1.0012 1.4731
67104. 1.38953 1.467(17) 3301. 1.0012 1.4804
67124. 1.38995 1.462(17) 3355. 1.0012 1.4805
67144. 1.39036 1.473(17) 3298. 1.0012 1.4727
67164. 1.39078 1.469(17) 3267. 1.0012 1.4574
67184. 1.39120 1.420(17) 3408. 1.0012 1.4357
67205. 1.39161 1.410(17) 3431. 1.0013 1.4093
67225. 1.39203 1.376(17) 3530. 1.0013 1.3799
67245. 1.39245 1.332(17) 3622. 1.0013 1.3493
67265. 1.39287 1.314(17) 3636. 1.0013 1.3189
67285. 1.39329 1.277(16) 3702. 1.0013 1.2898
67306. 1.39370 1.210(16) 3995. 1.0013 1.2627
67326. 1.39412 1.199(16) 3943. 1.0014 1.2377
67346. 1.39454 1.208(16) 3916. 1.0014 1.2153
67366. 1.39496 1.169(16) 4093. 1.0014 1.1953
67386. 1.39538 1.156(16) 4152. 1.0014 1.1779
67407. 1.39580 1.169(16) 4017. 1.0014 1.1630
67427. 1.39621 1.168(16) 4061. 1.0014 1.1505
67447. 1.39663 1.136(16) 4140. 1.0015 1.1401
67467. 1.39705 1.127(15) 4204. 1.0015 1.1312
67487. 1.39747 1.138(16) 4136. 1.0015 1.1230
67508. 1.39789 1.137(15) 4166. 1.0015 1.1153
67528. 1.39831 1.112(15) 4231. 1.0015 1.1077
67548. 1.39873 1.118(15) 4236. 1.0016 1.1003
67568. 1.39915 1.103(15) 4314. 1.0016 1.0934
67589. 1.39957 1.132(15) 4168. 1.0016 1.0872
67609. 1.39999 1.093(15) 4303. 1.0016 1.0821
67629. 1.40041 1.074(15) 4339. 1.0016 1.0781
67650. 1.40083 1.084(15) 4329. 1.0016 1.0753
67670. 1.40125 1.073(15) 4417. 1.0017 1.0737
67690. 1.40167 1.068(15) 4361. 1.0017 1.0733
67711. 1.40209 1.049(15) 4551. 1.0017 1.0738
67731. 1.40251 1.061(15) 4374. 1.0017 1.0750
67751. 1.40293 1.044(15) 4425. 1.0017 1.0765
67771. 1.40335 1.049(15) 4424. 1.0017 1.0778
67792. 1.40377 1.055(15) 4443. 1.0018 1.0785
67812. 1.40419 1.053(15) 4404. 1.0018 1.0782
67832. 1.40462 1.051(15) 4472. 1.0018 1.0769
67853. 1.40504 1.047(15) 4408. 1.0018 1.0748
67873. 1.40546 1.046(15) 4439. 1.0018 1.0722
67894. 1.40588 1.033(15) 4459. 1.0019 1.0694
67914. 1.40630 1.060(15) 4354. 1.0019 1.0666
67934. 1.40672 1.049(15) 4442. 1.0019 1.0640
67955. 1.40715 1.044(15) 4547. 1.0019 1.0619
67975. 1.40757 1.048(15) 4437. 1.0019 1.0602
67995. 1.40799 1.061(15) 4344. 1.0020 1.0590
68016. 1.40841 1.077(15) 4358. 1.0020 1.0583
68036. 1.40884 1.067(15) 4353. 1.0020 1.0579
68057. 1.40926 1.077(15) 4269. 1.0020 1.0579
68077. 1.40968 1.056(15) 4373. 1.0020 1.0583
68098. 1.41010 1.079(15) 4301. 1.0020 1.0588
68118. 1.41053 1.092(15) 4191. 1.0021 1.0595
68138. 1.41095 1.109(16) 4093. 1.0021 1.0604
68159. 1.41137 1.071(15) 4250. 1.0021 1.0614
68179. 1.41180 1.086(15) 4177. 1.0021 1.0624
68200. 1.41222 1.080(15) 4212. 1.0021 1.0636
68220. 1.41264 1.080(15) 4194. 1.0022 1.0649
68241. 1.41307 1.081(15) 4225. 1.0022 1.0662
68261. 1.41349 1.056(15) 4323. 1.0022 1.0678
68282. 1.41392 1.076(15) 4233. 1.0022 1.0696
68302. 1.41434 1.073(15) 4323. 1.0022 1.0717
68323. 1.41477 1.074(15) 4268. 1.0023 1.0742
68343. 1.41519 1.074(15) 4218. 1.0023 1.0772
68364. 1.41561 1.075(15) 4233. 1.0023 1.0810
68384. 1.41604 1.081(15) 4224. 1.0023 1.0857
68405. 1.41646 1.109(16) 4115. 1.0024 1.0914
68425. 1.41689 1.099(15) 4184. 1.0024 1.0985
68446. 1.41731 1.133(16) 3976. 1.0024 1.1070
68466. 1.41774 1.113(16) 4145. 1.0024 1.1171
68487. 1.41816 1.159(16) 3934. 1.0024 1.1287
68507. 1.41859 1.194(16) 3850. 1.0025 1.1417
68528. 1.41902 1.178(16) 3942. 1.0025 1.1557
68548. 1.41944 1.192(16) 3903. 1.0025 1.1701
68569. 1.41987 1.185(16) 3903. 1.0025 1.1840
68590. 1.42029 1.242(16) 3713. 1.0025 1.1967
68610. 1.42072 1.251(17) 3665. 1.0026 1.2079
68631. 1.42115 1.256(17) 3664. 1.0026 1.2178
68651. 1.42157 1.269(17) 3580. 1.0026 1.2270
68672. 1.42200 1.290(17) 3519. 1.0026 1.2364
68692. 1.42242 1.281(17) 3552. 1.0026 1.2467
68713. 1.42285 1.258(17) 3671. 1.0027 1.2584
68734. 1.42328 1.258(17) 3588. 1.0027 1.2715
68754. 1.42371 1.278(17) 3614. 1.0027 1.2859
68775. 1.42413 1.282(17) 3522. 1.0027 1.3007
68796. 1.42456 1.301(17) 3497. 1.0028 1.3152
68816. 1.42499 1.329(17) 3425. 1.0028 1.3281
68837. 1.42541 1.315(17) 3460. 1.0028 1.3384
68857. 1.42584 1.330(17) 3477. 1.0028 1.3453
68878. 1.42627 1.322(17) 3429. 1.0028 1.3486
68899. 1.42670 1.352(17) 3272. 1.0029 1.3489
68919. 1.42713 1.378(18) 3208. 1.0029 1.3471
68940. 1.42755 1.388(18) 3264. 1.0029 1.3450
68961. 1.42798 1.372(18) 3261. 1.0029 1.3441
68982. 1.42841 1.378(17) 3278. 1.0030 1.3461
69002. 1.42884 1.399(18) 3214. 1.0030 1.3527
69023. 1.42927 1.441(18) 3138. 1.0030 1.3651
69044. 1.42970 1.474(18) 3054. 1.0030 1.3844
69064. 1.43013 1.471(18) 3080. 1.0031 1.4108
69085. 1.43056 1.538(19) 2896. 1.0031 1.4441
69106. 1.43098 1.545(19) 2920. 1.0031 1.4834
69127. 1.43141 1.580(19) 2856. 1.0031 1.5277
69147. 1.43184 1.631(19) 2744. 1.0031 1.5767
69168. 1.43227 1.688(19) 2667. 1.0032 1.6318
69189. 1.43270 1.754(20) 2590. 1.0032 1.6954
69210. 1.43313 1.786(20) 2527. 1.0032 1.7701
69230. 1.43356 1.913(21) 2346. 1.0032 1.8576
69251. 1.43399 2.006(21) 2233. 1.0033 1.9588
69272. 1.43442 2.071(22) 2155. 1.0033 2.0730
69293. 1.43485 2.208(22) 2006. 1.0033 2.1990
69313. 1.43528 2.280(23) 1969. 1.0033 2.3352
69334. 1.43571 2.423(23) 1844. 1.0034 2.4796
69355. 1.43615 2.552(24) 1744. 1.0034 2.6306
69376. 1.43658 2.653(24) 1680. 1.0034 2.7859
69397. 1.43701 2.797(25) 1571. 1.0034 2.9423
69417. 1.43744 2.908(26) 1527. 1.0035 3.0953
69438. 1.43787 3.032(26) 1478. 1.0035 3.2393
69459. 1.43830 3.238(27) 1369. 1.0035 3.3670
69480. 1.43873 3.403(28) 1304. 1.0035 3.4715
69501. 1.43916 3.572(28) 1233. 1.0036 3.5457
69522. 1.43960 3.727(29) 1178. 1.0036 3.5843
69542. 1.44003 3.781(29) 1165. 1.0036 3.5849
69563. 1.44046 3.881(30) 1139. 1.0036 3.5484
69584. 1.44089 3.848(30) 1147. 1.0037 3.4788
69605. 1.44132 3.838(30) 1140. 1.0037 3.3822
69626. 1.44176 3.700(29) 1180. 1.0037 3.2662
69647. 1.44219 3.476(28) 1262. 1.0037 3.1389
69668. 1.44262 3.265(27) 1348. 1.0038 3.0082
69689. 1.44305 3.050(26) 1452. 1.0038 2.8823
69710. 1.44349 2.835(25) 1585. 1.0038 2.7694
69730. 1.44392 2.669(24) 1670. 1.0038 2.6781
69751. 1.44435 2.530(24) 1770. 1.0039 2.6181
69772. 1.44479 2.470(23) 1822. 1.0039 2.6005
69793. 1.44522 2.410(23) 1857. 1.0039 2.6371
69814. 1.44565 2.395(23) 1885. 1.0039 2.7401
69835. 1.44609 2.539(24) 1777. 1.0040 2.9200
69856. 1.44652 2.804(25) 1624. 1.0040 3.1836
69877. 1.44696 3.215(27) 1412. 1.0040 3.5309
69898. 1.44739 3.903(30) 1147. 1.0041 3.9522
69919. 1.44782 4.647(33) 944. 1.0041 4.4240
69940. 1.44826 5.187(34) 841. 1.0041 4.9071
69961. 1.44869 5.60(4) 772. 1.004 5.345
69982. 1.44913 5.79(4) 742. 1.004 5.676
70003. 1.44956 5.72(4) 764. 1.004 5.854
70024. 1.45000 5.67(4) 765. 1.004 5.871
70045. 1.45043 5.58(4) 780. 1.004 5.754
70066. 1.45087 5.313(35) 827. 1.0043 5.5513
70087. 1.45130 5.116(34) 857. 1.0043 5.3100
70108. 1.45174 4.876(33) 912. 1.0043 5.0695
70129. 1.45217 4.735(33) 936. 1.0044 4.8552
70150. 1.45261 4.562(32) 975. 1.0044 4.6782
70171. 1.45305 4.509(32) 980. 1.0044 4.5365
70192. 1.45348 4.465(32) 987. 1.0044 4.4189
70213. 1.45392 4.449(32) 986. 1.0045 4.3094
70234. 1.45435 4.436(32) 988. 1.0045 4.1921
70255. 1.45479 4.339(31) 1015. 1.0045 4.0552
70276. 1.45523 4.201(31) 1059. 1.0046 3.8932
70297. 1.45566 3.993(30) 1105. 1.0046 3.7065
70319. 1.45610 3.747(29) 1170. 1.0046 3.4999
70340. 1.45654 3.491(28) 1276. 1.0046 3.2804
70361. 1.45697 3.191(27) 1403. 1.0047 3.0559
70382. 1.45741 2.902(25) 1542. 1.0047 2.8336
70403. 1.45785 2.585(24) 1735. 1.0047 2.6198
70424. 1.45829 2.384(23) 1864. 1.0048 2.4191
70445. 1.45872 2.171(22) 2102. 1.0048 2.2350
70466. 1.45916 1.995(21) 2232. 1.0048 2.0697
70487. 1.45960 1.851(20) 2426. 1.0049 1.9240
70509. 1.46004 1.738(20) 2558. 1.0049 1.7976
70530. 1.46047 1.645(19) 2675. 1.0049 1.6899
70551. 1.46091 1.574(19) 2835. 1.0049 1.5989
70572. 1.46135 1.508(19) 2891. 1.0050 1.5228
70593. 1.46179 1.432(18) 3133. 1.0050 1.4595
70614. 1.46223 1.397(18) 3112. 1.0050 1.4071
70636. 1.46267 1.374(18) 3204. 1.0051 1.3639
70657. 1.46310 1.338(17) 3310. 1.0051 1.3285
70678. 1.46354 1.288(17) 3395. 1.0051 1.2994
70699. 1.46398 1.271(17) 3410. 1.0052 1.2755
70720. 1.46442 1.236(17) 3534. 1.0052 1.2558
70742. 1.46486 1.234(17) 3577. 1.0052 1.2394
70763. 1.46530 1.212(17) 3625. 1.0052 1.2254
70784. 1.46574 1.185(16) 3706. 1.0053 1.2132
70805. 1.46618 1.201(17) 3583. 1.0053 1.2023
70827. 1.46662 1.185(17) 3628. 1.0053 1.1922
70848. 1.46706 1.170(16) 3709. 1.0054 1.1828
70869. 1.46750 1.160(16) 3728. 1.0054 1.1741
70890. 1.46794 1.164(16) 3680. 1.0054 1.1661
70912. 1.46838 1.144(16) 3812. 1.0055 1.1589
70933. 1.46882 1.121(16) 3886. 1.0055 1.1525
70954. 1.46926 1.143(16) 3803. 1.0055 1.1471
70975. 1.46970 1.142(16) 3819. 1.0056 1.1426
70997. 1.47014 1.120(16) 3916. 1.0056 1.1390
71018. 1.47059 1.147(16) 3700. 1.0056 1.1360
71039. 1.47103 1.130(16) 3828. 1.0057 1.1332
71061. 1.47147 1.101(16) 3959. 1.0057 1.1306
71082. 1.47191 1.119(16) 3865. 1.0057 1.1281
71103. 1.47235 1.131(16) 3862. 1.0058 1.1259
71125. 1.47279 1.120(16) 3869. 1.0058 1.1243
71146. 1.47323 1.096(16) 3986. 1.0058 1.1237
71167. 1.47368 1.094(16) 4004. 1.0059 1.1242
71189. 1.47412 1.113(16) 3935. 1.0059 1.1258
71210. 1.47456 1.117(16) 3860. 1.0059 1.1284
71231. 1.47500 1.138(16) 3783. 1.0060 1.1317
71253. 1.47545 1.144(16) 3740. 1.0060 1.1355
71274. 1.47589 1.134(16) 3868. 1.0060 1.1394
71296. 1.47633 1.133(16) 3796. 1.0061 1.1431
71317. 1.47677 1.141(16) 3766. 1.0061 1.1462
71338. 1.47722 1.169(17) 3672. 1.0061 1.1485
71360. 1.47766 1.170(16) 3701. 1.0062 1.1500
71381. 1.47810 1.194(17) 3561. 1.0062 1.1508
71403. 1.47855 1.207(17) 3582. 1.0062 1.1515
71424. 1.47899 1.217(17) 3476. 1.0063 1.1525
71445. 1.47943 1.231(17) 3418. 1.0063 1.1546
71467. 1.47988 1.172(17) 3670. 1.0063 1.1582
71488. 1.48032 1.205(17) 3567. 1.0064 1.1636
71510. 1.48077 1.189(17) 3606. 1.0064 1.1711
71531. 1.48121 1.166(16) 3751. 1.0064 1.1803
71553. 1.48166 1.191(17) 3576. 1.0065 1.1905
71574. 1.48210 1.213(17) 3555. 1.0065 1.2007
71596. 1.48254 1.190(17) 3607. 1.0065 1.2100
71617. 1.48299 1.199(17) 3554. 1.0066 1.2175
71639. 1.48343 1.201(17) 3544. 1.0066 1.2224
71660. 1.48388 1.180(16) 3673. 1.0067 1.2237
71682. 1.48432 1.175(17) 3626. 1.0067 1.2210
71703. 1.48477 1.169(17) 3639. 1.0067 1.2142
71725. 1.48521 1.158(16) 3677. 1.0068 1.2040
71746. 1.48566 1.170(17) 3648. 1.0068 1.1913
71768. 1.48611 1.156(17) 3625. 1.0068 1.1774
71789. 1.48655 1.117(16) 3804. 1.0069 1.1632
71811. 1.48700 1.130(16) 3742. 1.0069 1.1497
71832. 1.48744 1.122(16) 3766. 1.0069 1.1374
71854. 1.48789 1.131(16) 3710. 1.0070 1.1267
71875. 1.48834 1.119(16) 3787. 1.0070 1.1178
71897. 1.48878 1.138(17) 3657. 1.0071 1.1105
71918. 1.48923 1.139(16) 3703. 1.0071 1.1048
71940. 1.48968 1.136(16) 3681. 1.0071 1.1004
71962. 1.49012 1.134(17) 3644. 1.0072 1.0970
71983. 1.49057 1.111(16) 3773. 1.0072 1.0941
72005. 1.49102 1.093(16) 3847. 1.0072 1.0914
72026. 1.49147 1.108(16) 3779. 1.0073 1.0888
72048. 1.49191 1.109(16) 3764. 1.0073 1.0860
72070. 1.49236 1.138(17) 3657. 1.0074 1.0830
72091. 1.49281 1.101(16) 3775. 1.0074 1.0797
72113. 1.49326 1.090(16) 3829. 1.0074 1.0762
72134. 1.49370 1.089(16) 3827. 1.0075 1.0726
72156. 1.49415 1.102(16) 3741. 1.0075 1.0689
72178. 1.49460 1.094(16) 3847. 1.0076 1.0653
72199. 1.49505 1.086(16) 3816. 1.0076 1.0617
72221. 1.49550 1.096(16) 3757. 1.0076 1.0584
72243. 1.49595 1.119(17) 3664. 1.0077 1.0554
72264. 1.49640 1.088(16) 3802. 1.0077 1.0527
72286. 1.49684 1.078(16) 3802. 1.0077 1.0503
72308. 1.49729 1.098(16) 3701. 1.0078 1.0483
72329. 1.49774 1.085(16) 3805. 1.0078 1.0466
72351. 1.49819 1.094(16) 3720. 1.0079 1.0455
72373. 1.49864 1.063(16) 3904. 1.0079 1.0450
72395. 1.49909 1.060(16) 3853. 1.0079 1.0451
72416. 1.49954 1.067(16) 3834. 1.0080 1.0461
72438. 1.49999 1.076(16) 3791. 1.0080 1.0479
72460. 1.50044 1.083(16) 3771. 1.0081 1.0507
72481. 1.50089 1.094(16) 3698. 1.0081 1.0545
72503. 1.50134 1.080(16) 3771. 1.0081 1.0594
72525. 1.50179 1.094(16) 3695. 1.0082 1.0651
72547. 1.50224 1.054(16) 3974. 1.0082 1.0713
72569. 1.50269 1.093(16) 3684. 1.0083 1.0774
72590. 1.50314 1.084(16) 3759. 1.0083 1.0828
72612. 1.50359 1.075(16) 3841. 1.0084 1.0866
72634. 1.50405 1.101(16) 3712. 1.0084 1.0881
72656. 1.50450 1.093(16) 3715. 1.0084 1.0872
72677. 1.50495 1.060(16) 3861. 1.0085 1.0840
72699. 1.50540 1.055(16) 3918. 1.0085 1.0792
72721. 1.50585 1.067(16) 3728. 1.0086 1.0734
72743. 1.50630 1.064(16) 3791. 1.0086 1.0674
72765. 1.50676 1.029(16) 4035. 1.0086 1.0617
72787. 1.50721 1.057(16) 3894. 1.0087 1.0565
72808. 1.50766 1.063(16) 3812. 1.0087 1.0521
72830. 1.50811 1.065(16) 3761. 1.0088 1.0486
72852. 1.50856 1.048(16) 3908. 1.0088 1.0457
72874. 1.50902 1.053(16) 3901. 1.0089 1.0437
72896. 1.50947 1.054(16) 3790. 1.0089 1.0422
72918. 1.50992 1.040(16) 3855. 1.0089 1.0414
72939. 1.51038 1.047(16) 3839. 1.0090 1.0412
72961. 1.51083 1.058(16) 3768. 1.0090 1.0415
72983. 1.51128 1.070(17) 3646. 1.0091 1.0427
73005. 1.51174 1.035(16) 3957. 1.0091 1.0446
73027. 1.51219 1.080(16) 3697. 1.0092 1.0472
73049. 1.51264 1.075(16) 3818. 1.0092 1.0503
73071. 1.51310 1.059(16) 3804. 1.0092 1.0535
73093. 1.51355 1.093(17) 3639. 1.0093 1.0563
73115. 1.51400 1.090(17) 3605. 1.0093 1.0581
73137. 1.51446 1.062(16) 3828. 1.0094 1.0584
73159. 1.51491 1.084(16) 3708. 1.0094 1.0570
73181. 1.51537 1.048(16) 3910. 1.0095 1.0544
73203. 1.51582 1.052(16) 3838. 1.0095 1.0510
73224. 1.51628 1.054(16) 3879. 1.0096 1.0473
73246. 1.51673 1.038(16) 3898. 1.0096 1.0437
73268. 1.51719 1.051(16) 3844. 1.0096 1.0405
73290. 1.51764 1.043(16) 3865. 1.0097 1.0378
73312. 1.51810 1.029(16) 3924. 1.0097 1.0357
73334. 1.51855 1.030(16) 3956. 1.0098 1.0341
73356. 1.51901 1.020(16) 3935. 1.0098 1.0331
73378. 1.51946 1.048(16) 3753. 1.0099 1.0324
73400. 1.51992 1.027(16) 3899. 1.0099 1.0320
73422. 1.52038 1.023(16) 3967. 1.0100 1.0320
73444. 1.52083 1.030(16) 3876. 1.0100 1.0322
73466. 1.52129 1.028(16) 3879. 1.0101 1.0327
73489. 1.52174 1.046(16) 3755. 1.0101 1.0336
73511. 1.52220 1.001(16) 4039. 1.0102 1.0349
73533. 1.52266 1.010(16) 3915. 1.0102 1.0367
73555. 1.52311 1.025(16) 3916. 1.0102 1.0393
73577. 1.52357 1.037(16) 3805. 1.0103 1.0429
73599. 1.52403 1.023(16) 3908. 1.0103 1.0478
73621. 1.52449 1.036(16) 3826. 1.0104 1.0544
73643. 1.52494 1.036(16) 3816. 1.0104 1.0629
73665. 1.52540 1.031(16) 3854. 1.0105 1.0735
73687. 1.52586 1.062(16) 3766. 1.0105 1.0862
73709. 1.52632 1.061(16) 3765. 1.0106 1.1007
73731. 1.52677 1.078(17) 3671. 1.0106 1.1163
73754. 1.52723 1.060(16) 3768. 1.0107 1.1317
73776. 1.52769 1.121(17) 3547. 1.0107 1.1451
73798. 1.52815 1.107(17) 3590. 1.0108 1.1546
73820. 1.52861 1.101(17) 3583. 1.0108 1.1586
73842. 1.52907 1.084(16) 3682. 1.0109 1.1566
73864. 1.52952 1.110(17) 3524. 1.0109 1.1494
73886. 1.52998 1.093(17) 3487. 1.0110 1.1383
73909. 1.53044 1.084(16) 3689. 1.0110 1.1252
73931. 1.53090 1.093(17) 3574. 1.0111 1.1114
73953. 1.53136 1.083(17) 3566. 1.0111 1.0982
73975. 1.53182 1.056(17) 3621. 1.0112 1.0863
73997. 1.53228 1.047(16) 3799. 1.0112 1.0761
74019. 1.53274 1.048(16) 3737. 1.0113 1.0678
74042. 1.53320 1.042(16) 3735. 1.0113 1.0614
74064. 1.53366 1.056(17) 3621. 1.0114 1.0566
74086. 1.53412 1.058(17) 3667. 1.0114 1.0532
74108. 1.53458 1.045(16) 3749. 1.0115 1.0511
74131. 1.53504 1.046(16) 3702. 1.0115 1.0502
74153. 1.53550 1.066(17) 3645. 1.0116 1.0502
74175. 1.53596 1.030(16) 3815. 1.0116 1.0512
74197. 1.53642 1.054(16) 3701. 1.0117 1.0531
74220. 1.53688 1.055(16) 3732. 1.0117 1.0560
74242. 1.53734 1.050(17) 3666. 1.0118 1.0598
74264. 1.53781 1.039(16) 3721. 1.0118 1.0646
74286. 1.53827 1.067(17) 3595. 1.0119 1.0701
74309. 1.53873 1.083(17) 3502. 1.0119 1.0762
74331. 1.53919 1.058(17) 3653. 1.0120 1.0825
74353. 1.53965 1.082(17) 3581. 1.0120 1.0887
74376. 1.54011 1.108(17) 3450. 1.0121 1.0942
74398. 1.54058 1.102(17) 3378. 1.0121 1.0986
74420. 1.54104 1.075(17) 3589. 1.0122 1.1017
74443. 1.54150 1.060(17) 3667. 1.0122 1.1037
74465. 1.54196 1.069(17) 3618. 1.0123 1.1048
74487. 1.54243 1.085(17) 3562. 1.0123 1.1055
74510. 1.54289 1.059(16) 3705. 1.0124 1.1061
74532. 1.54335 1.082(17) 3574. 1.0125 1.1071
74554. 1.54381 1.108(17) 3430. 1.0125 1.1085
74577. 1.54428 1.087(17) 3555. 1.0126 1.1104
74599. 1.54474 1.102(17) 3504. 1.0126 1.1127
74621. 1.54520 1.108(17) 3444. 1.0127 1.1153
74644. 1.54567 1.120(17) 3402. 1.0127 1.1178
74666. 1.54613 1.136(17) 3310. 1.0128 1.1199
74689. 1.54660 1.134(17) 3363. 1.0128 1.1215
74711. 1.54706 1.163(17) 3303. 1.0129 1.1221
74733. 1.54752 1.117(17) 3433. 1.0129 1.1217
74756. 1.54799 1.137(17) 3327. 1.0130 1.1200
74778. 1.54845 1.169(17) 3285. 1.0130 1.1172
74801. 1.54892 1.175(18) 3234. 1.0131 1.1132
74823. 1.54938 1.146(17) 3308. 1.0132 1.1083
74846. 1.54985 1.144(17) 3327. 1.0132 1.1027
74868. 1.55031 1.136(17) 3366. 1.0133 1.0969
74890. 1.55078 1.137(17) 3311. 1.0133 1.0909
74913. 1.55124 1.094(17) 3460. 1.0134 1.0852
74935. 1.55171 1.082(17) 3498. 1.0134 1.0800
74958. 1.55217 1.092(17) 3401. 1.0135 1.0754
74980. 1.55264 1.067(17) 3571. 1.0135 1.0716
75003. 1.55310 1.085(17) 3395. 1.0136 1.0691
75025. 1.55357 1.034(17) 3663. 1.0137 1.0682
75048. 1.55404 1.043(17) 3667. 1.0137 1.0693
75070. 1.55450 1.053(17) 3538. 1.0138 1.0731
75093. 1.55497 1.036(17) 3588. 1.0138 1.0800
75115. 1.55544 1.053(17) 3523. 1.0139 1.0905
75138. 1.55590 1.081(17) 3429. 1.0139 1.1048
75160. 1.55637 1.118(17) 3292. 1.0140 1.1225
75183. 1.55684 1.150(18) 3200. 1.0141 1.1428
75206. 1.55730 1.164(18) 3154. 1.0141 1.1640
75228. 1.55777 1.201(18) 3112. 1.0142 1.1836
75251. 1.55824 1.198(18) 3052. 1.0142 1.1982
75273. 1.55871 1.220(18) 2955. 1.0143 1.2049
75296. 1.55917 1.189(18) 3087. 1.0143 1.2024
75318. 1.55964 1.143(18) 3192. 1.0144 1.1916
75341. 1.56011 1.147(18) 3252. 1.0145 1.1747
75364. 1.56058 1.141(18) 3167. 1.0145 1.1545
75386. 1.56104 1.128(18) 3256. 1.0146 1.1336
75409. 1.56151 1.131(18) 3171. 1.0146 1.1137
75432. 1.56198 1.083(17) 3353. 1.0147 1.0961
75454. 1.56245 1.067(17) 3480. 1.0148 1.0814
75477. 1.56292 1.044(17) 3506. 1.0148 1.0696
75499. 1.56339 1.049(17) 3450. 1.0149 1.0605
75522. 1.56386 1.059(17) 3435. 1.0149 1.0538
75545. 1.56433 1.053(17) 3479. 1.0150 1.0490
75567. 1.56480 1.075(17) 3361. 1.0151 1.0457
75590. 1.56526 1.072(17) 3363. 1.0151 1.0434
75613. 1.56573 1.032(17) 3533. 1.0152 1.0420
75635. 1.56620 1.050(17) 3394. 1.0152 1.0413
75658. 1.56667 1.046(17) 3499. 1.0153 1.0410
75681. 1.56714 1.048(17) 3443. 1.0154 1.0412
75704. 1.56761 1.068(17) 3292. 1.0154 1.0417
75726. 1.56808 1.037(17) 3494. 1.0155 1.0414
75749. 1.56855 1.036(17) 3475. 1.0155 1.0427
75772. 1.56903 1.061(17) 3415. 1.0156 1.0444
75794. 1.56950 1.048(17) 3455. 1.0157 1.0466
75817. 1.56997 1.048(17) 3403. 1.0157 1.0492
75840. 1.57044 1.046(17) 3481. 1.0158 1.0523
75863. 1.57091 1.059(17) 3416. 1.0159 1.0561
75885. 1.57138 1.062(17) 3344. 1.0159 1.0604
75908. 1.57185 1.064(17) 3362. 1.0160 1.0654
75931. 1.57232 1.088(17) 3329. 1.0160 1.0711
75954. 1.57280 1.118(18) 3171. 1.0161 1.0775
75977. 1.57327 1.105(18) 3248. 1.0162 1.0845
75999. 1.57374 1.113(18) 3221. 1.0162 1.0921
76022. 1.57421 1.113(18) 3180. 1.0163 1.1000
76045. 1.57468 1.109(18) 3201. 1.0164 1.1081
76068. 1.57516 1.137(18) 3169. 1.0164 1.1160
76091. 1.57563 1.101(18) 3223. 1.0165 1.1234
76113. 1.57610 1.119(18) 3146. 1.0166 1.1301
76136. 1.57657 1.115(18) 3172. 1.0166 1.1359
76159. 1.57705 1.097(18) 3241. 1.0167 1.1409
76182. 1.57752 1.086(17) 3302. 1.0167 1.1446
76205. 1.57799 1.092(18) 3265. 1.0168 1.1470
76228. 1.57847 1.061(17) 3394. 1.0169 1.1480
76250. 1.57894 1.095(18) 3248. 1.0169 1.1477
76273. 1.57941 1.094(18) 3231. 1.0170 1.1467
76296. 1.57989 1.105(18) 3215. 1.0171 1.1455
76319. 1.58036 1.067(18) 3253. 1.0171 1.1447
76342. 1.58084 1.058(17) 3324. 1.0172 1.1450
76365. 1.58131 1.053(17) 3395. 1.0173 1.1468
76388. 1.58179 1.110(18) 3163. 1.0173 1.1502
76411. 1.58226 1.121(18) 3147. 1.0174 1.1553
76434. 1.58273 1.110(18) 3169. 1.0175 1.1612
76457. 1.58321 1.172(18) 2968. 1.0175 1.1693
76480. 1.58368 1.194(18) 2969. 1.0176 1.1785
76502. 1.58416 1.206(18) 2958. 1.0177 1.1885
76525. 1.58463 1.228(19) 2877. 1.0177 1.1989
76548. 1.58511 1.248(19) 2837. 1.0178 1.2094
76571. 1.58559 1.287(19) 2693. 1.0179 1.2196
76594. 1.58606 1.207(19) 2901. 1.0179 1.2286
76617. 1.58654 1.227(19) 2881. 1.0180 1.2357
76640. 1.58701 1.259(19) 2770. 1.0181 1.2398
76663. 1.58749 1.252(19) 2781. 1.0181 1.2403
76686. 1.58797 1.228(19) 2850. 1.0182 1.2366
76709. 1.58844 1.237(19) 2791. 1.0183 1.2291
76732. 1.58892 1.212(19) 2841. 1.0183 1.2183
76755. 1.58940 1.213(19) 2851. 1.0184 1.2051
76778. 1.58987 1.171(18) 2994. 1.0185 1.1904
76801. 1.59035 1.147(18) 3041. 1.0186 1.1750
76824. 1.59083 1.156(18) 3015. 1.0186 1.1591
76847. 1.59130 1.156(18) 2987. 1.0187 1.1439
76871. 1.59178 1.133(18) 3060. 1.0188 1.1299
76894. 1.59226 1.106(18) 3129. 1.0188 1.1177
76917. 1.59274 1.078(18) 3167. 1.0189 1.1079
76940. 1.59321 1.075(18) 3177. 1.0190 1.1005
76963. 1.59369 1.103(18) 3128. 1.0190 1.0957
76986. 1.59417 1.085(18) 3184. 1.0191 1.0934
77009. 1.59465 1.114(18) 3061. 1.0192 1.0935
77032. 1.59513 1.130(18) 3023. 1.0193 1.0958
77055. 1.59561 1.139(18) 2981. 1.0193 1.0998
77078. 1.59608 1.103(18) 3150. 1.0194 1.1053
77101. 1.59656 1.113(18) 3119. 1.0195 1.1116
77125. 1.59704 1.116(18) 3062. 1.0195 1.1185
77148. 1.59752 1.133(18) 3015. 1.0196 1.1255
77171. 1.59800 1.107(18) 3175. 1.0197 1.1327
77194. 1.59848 1.137(18) 3043. 1.0198 1.1396
77217. 1.59896 1.137(18) 3031. 1.0198 1.1460
77240. 1.59944 1.135(18) 2989. 1.0199 1.1517
77263. 1.59992 1.124(18) 3059. 1.0200 1.1564
77287. 1.60040 1.140(18) 2982. 1.0200 1.1597
77310. 1.60088 1.138(18) 3029. 1.0201 1.1613
77333. 1.60136 1.146(18) 3038. 1.0202 1.1610
77356. 1.60184 1.145(18) 2978. 1.0203 1.1590
77379. 1.60232 1.137(18) 3007. 1.0203 1.1552
77403. 1.60280 1.111(18) 3055. 1.0204 1.1502
77426. 1.60328 1.144(18) 2948. 1.0205 1.1443
77449. 1.60376 1.149(18) 2936. 1.0206 1.1381
77472. 1.60424 1.140(18) 2996. 1.0206 1.1320
77496. 1.60473 1.144(18) 2993. 1.0207 1.1264
77519. 1.60521 1.148(18) 2968. 1.0208 1.1216
77542. 1.60569 1.122(18) 3010. 1.0208 1.1177
77565. 1.60617 1.127(18) 2923. 1.0209 1.1149
77589. 1.60665 1.106(18) 3088. 1.0210 1.1129
77612. 1.60713 1.110(18) 3048. 1.0211 1.1116
77635. 1.60762 1.129(18) 3004. 1.0211 1.1106
77658. 1.60810 1.104(18) 3053. 1.0212 1.1095
77682. 1.60858 1.089(18) 3084. 1.0213 1.1081
77705. 1.60906 1.104(18) 3034. 1.0214 1.1063
77728. 1.60955 1.075(18) 3086. 1.0215 1.1043
77752. 1.61003 1.081(18) 3170. 1.0215 1.1023
77775. 1.61051 1.071(18) 3144. 1.0216 1.1004
77798. 1.61100 1.069(18) 3203. 1.0217 1.0988
77822. 1.61148 1.063(18) 3231. 1.0218 1.0975
77845. 1.61196 1.103(18) 2991. 1.0218 1.0964
77868. 1.61245 1.063(18) 3161. 1.0219 1.0954
77892. 1.61293 1.059(18) 3184. 1.0220 1.0943
77915. 1.61341 1.076(18) 3045. 1.0221 1.0929
77939. 1.61390 1.059(18) 3161. 1.0221 1.0912
77962. 1.61438 1.072(18) 3152. 1.0222 1.0893
77985. 1.61487 1.054(18) 3213. 1.0223 1.0866
78009. 1.61535 1.069(18) 3115. 1.0224 1.0835
78032. 1.61584 1.046(18) 3163. 1.0225 1.0800
78055. 1.61632 1.069(18) 3148. 1.0225 1.0764
78079. 1.61680 1.026(17) 3267. 1.0226 1.0728
78102. 1.61729 1.054(18) 3098. 1.0227 1.0694
78126. 1.61778 1.034(18) 3171. 1.0228 1.0667
78149. 1.61826 1.042(18) 3120. 1.0228 1.0641
78173. 1.61875 1.079(18) 2998. 1.0229 1.0622
78196. 1.61923 1.048(18) 3106. 1.0230 1.0608
78220. 1.61972 1.034(18) 3178. 1.0231 1.0602
78243. 1.62020 1.040(18) 3122. 1.0232 1.0601
78267. 1.62069 1.030(18) 3166. 1.0232 1.0604
78290. 1.62118 1.043(18) 3113. 1.0233 1.0610
78313. 1.62166 1.086(18) 2999. 1.0234 1.0616
78337. 1.62215 1.040(18) 3143. 1.0235 1.0623
78360. 1.62264 1.038(18) 3201. 1.0236 1.0630
78384. 1.62312 1.054(18) 3089. 1.0236 1.0638
78407. 1.62361 1.033(18) 3198. 1.0237 1.0645
78431. 1.62410 1.033(18) 3141. 1.0238 1.0658
78455. 1.62458 1.045(18) 3063. 1.0239 1.0673
78478. 1.62507 1.017(18) 3241. 1.0240 1.0690
78502. 1.62556 1.022(18) 3213. 1.0241 1.0707
78525. 1.62605 1.040(18) 3175. 1.0241 1.0724
78549. 1.62653 1.039(18) 3178. 1.0242 1.0739
78572. 1.62702 1.021(18) 3219. 1.0243 1.0750
78596. 1.62751 1.054(18) 3023. 1.0244 1.0757
78619. 1.62800 1.062(18) 3067. 1.0245 1.0758
78643. 1.62849 1.037(18) 3102. 1.0245 1.0754
78667. 1.62898 1.068(18) 3001. 1.0246 1.0744
78690. 1.62946 1.032(18) 3214. 1.0247 1.0729
78714. 1.62995 1.073(18) 3001. 1.0248 1.0711
78737. 1.63044 1.036(18) 3141. 1.0249 1.0689
78761. 1.63093 1.051(18) 3060. 1.0250 1.0667
78785. 1.63142 1.053(18) 3082. 1.0250 1.0644
78808. 1.63191 1.038(18) 3041. 1.0251 1.0622
78832. 1.63240 1.053(18) 3058. 1.0252 1.0602
78856. 1.63289 1.075(18) 2993. 1.0253 1.0585
78879. 1.63338 1.058(18) 2998. 1.0254 1.0572
78903. 1.63387 1.072(18) 3029. 1.0255 1.0563
78927. 1.63436 1.063(18) 3001. 1.0256 1.0557
78950. 1.63485 1.055(18) 3111. 1.0256 1.0555
78974. 1.63534 1.076(18) 3001. 1.0257 1.0556
78998. 1.63583 1.083(19) 2912. 1.0258 1.0559
79021. 1.63632 1.086(18) 2943. 1.0259 1.0563
79045. 1.63681 1.065(18) 3027. 1.0260 1.0565
79069. 1.63730 1.055(18) 3044. 1.0261 1.0564
79093. 1.63779 1.077(18) 2975. 1.0262 1.0559
79116. 1.63829 1.063(18) 2962. 1.0262 1.0551
79140. 1.63878 1.063(18) 2992. 1.0263 1.0540
79164. 1.63927 1.059(18) 3011. 1.0264 1.0528
79187. 1.63976 1.042(18) 3139. 1.0265 1.0516
79211. 1.64025 1.033(18) 3117. 1.0266 1.0505
79235. 1.64075 1.042(18) 3055. 1.0267 1.0495
79259. 1.64124 1.044(18) 3053. 1.0268 1.0489
79283. 1.64173 1.046(18) 3057. 1.0269 1.0485
79306. 1.64222 1.043(18) 3028. 1.0269 1.0485
79330. 1.64271 1.048(18) 2990. 1.0270 1.0488
79354. 1.64321 1.079(18) 2952. 1.0271 1.0493
79378. 1.64370 1.052(18) 3005. 1.0272 1.0503
79402. 1.64419 1.064(18) 2984. 1.0273 1.0516
79425. 1.64469 1.084(19) 2899. 1.0274 1.0533
79449. 1.64518 1.066(18) 3011. 1.0275 1.0555
79473. 1.64567 1.058(18) 2989. 1.0276 1.0583
79497. 1.64617 1.066(18) 2939. 1.0276 1.0619
79521. 1.64666 1.057(18) 3049. 1.0277 1.0665
79545. 1.64716 1.044(18) 3008. 1.0278 1.0725
79568. 1.64765 1.064(18) 2970. 1.0279 1.0801
79592. 1.64814 1.045(18) 3049. 1.0280 1.0897
79616. 1.64864 1.067(19) 2893. 1.0281 1.1013
79640. 1.64913 1.065(18) 3029. 1.0282 1.1146
79664. 1.64963 1.070(18) 3034. 1.0283 1.1289
79688. 1.65012 1.056(18) 3138. 1.0284 1.1427
79712. 1.65062 1.084(18) 3080. 1.0285 1.1540
79736. 1.65111 1.087(18) 3022. 1.0286 1.1607
79760. 1.65161 1.071(18) 3037. 1.0286 1.1613
79784. 1.65210 1.060(18) 3057. 1.0287 1.1564
79807. 1.65260 1.076(19) 2794. 1.0288 1.1479
79831. 1.65310 1.096(20) 2608. 1.0289 1.1383
79855. 1.65359 1.109(20) 2445. 1.0290 1.1297
79879. 1.65409 1.095(20) 2452. 1.0291 1.1235
79903. 1.65458 1.109(20) 2416. 1.0292 1.1209
79927. 1.65508 1.138(21) 2275. 1.0293 1.1226
79951. 1.65558 1.151(21) 2269. 1.0294 1.1290
79975. 1.65607 1.108(20) 2445. 1.0295 1.1405
79999. 1.65657 1.149(21) 2304. 1.0296 1.1570
80023. 1.65707 1.180(21) 2223. 1.0297 1.1787
80047. 1.65756 1.210(22) 2154. 1.0298 1.2049
80071. 1.65806 1.213(21) 2218. 1.0299 1.2349
80095. 1.65856 1.237(22) 2111. 1.0299 1.2666
80119. 1.65906 1.281(22) 2022. 1.0300 1.2974
80143. 1.65955 1.298(22) 2068. 1.0301 1.3234
80167. 1.66005 1.276(22) 2063. 1.0302 1.3404
80191. 1.66055 1.307(22) 2000. 1.0303 1.3456
80215. 1.66105 1.290(22) 1986. 1.0304 1.3383
80239. 1.66155 1.267(22) 2056. 1.0305 1.3206
80264. 1.66205 1.273(22) 2038. 1.0306 1.2956
80288. 1.66254 1.229(22) 2130. 1.0307 1.2668
80312. 1.66304 1.193(21) 2218. 1.0308 1.2374
80336. 1.66354 1.249(22) 2070. 1.0309 1.2093
80360. 1.66404 1.204(22) 2119. 1.0310 1.1842
80384. 1.66454 1.175(21) 2207. 1.0311 1.1631
80408. 1.66504 1.141(21) 2270. 1.0312 1.1465
80432. 1.66554 1.145(21) 2288. 1.0313 1.1345
80456. 1.66604 1.132(21) 2276. 1.0314 1.1267
80481. 1.66654 1.078(20) 2410. 1.0315 1.1230
80505. 1.66704 1.124(21) 2325. 1.0316 1.1229
80529. 1.66754 1.118(21) 2331. 1.0317 1.1259
80553. 1.66804 1.117(21) 2325. 1.0318 1.1313
80577. 1.66854 1.126(21) 2300. 1.0319 1.1384
80601. 1.66904 1.135(21) 2246. 1.0320 1.1461
80626. 1.66954 1.157(21) 2181. 1.0321 1.1535
80650. 1.67004 1.148(21) 2243. 1.0322 1.1597
80674. 1.67054 1.105(20) 2389. 1.0323 1.1648
80698. 1.67104 1.149(21) 2266. 1.0324 1.1692
80722. 1.67155 1.176(21) 2181. 1.0325 1.1734
80747. 1.67205 1.227(22) 2061. 1.0326 1.1775
80771. 1.67255 1.203(21) 2186. 1.0327 1.1808
80795. 1.67305 1.178(21) 2167. 1.0328 1.1821
80819. 1.67355 1.198(22) 2154. 1.0329 1.1804
80843. 1.67405 1.174(21) 2269. 1.0330 1.1751
80868. 1.67456 1.183(21) 2171. 1.0331 1.1670
80892. 1.67506 1.158(21) 2251. 1.0332 1.1575
80916. 1.67556 1.162(21) 2296. 1.0333 1.1479
80941. 1.67606 1.139(21) 2293. 1.0334 1.1394
80965. 1.67657 1.141(21) 2254. 1.0335 1.1327
80989. 1.67707 1.158(21) 2248. 1.0336 1.1284
81013. 1.67757 1.162(21) 2250. 1.0337 1.1267
81038. 1.67808 1.114(20) 2396. 1.0338 1.1279
81062. 1.67858 1.154(21) 2363. 1.0339 1.1320
81086. 1.67908 1.142(20) 2411. 1.0340 1.1387
81111. 1.67959 1.165(21) 2361. 1.0341 1.1479
81135. 1.68009 1.175(21) 2361. 1.0342 1.1590
81159. 1.68060 1.144(20) 2537. 1.0343 1.1714
81184. 1.68110 1.164(20) 2463. 1.0344 1.1843
81208. 1.68160 1.150(20) 2515. 1.0345 1.1960
81232. 1.68211 1.156(20) 2517. 1.0346 1.2050
81257. 1.68261 1.158(20) 2463. 1.0347 1.2099
81281. 1.68312 1.164(20) 2496. 1.0348 1.2101
81306. 1.68362 1.160(20) 2462. 1.0349 1.2056
81330. 1.68413 1.127(20) 2554. 1.0350 1.1975
81354. 1.68463 1.138(20) 2498. 1.0351 1.1870
81379. 1.68514 1.122(20) 2555. 1.0352 1.1755
81403. 1.68564 1.128(20) 2529. 1.0353 1.1643
81428. 1.68615 1.130(20) 2532. 1.0354 1.1544
81452. 1.68666 1.149(20) 2489. 1.0355 1.1464
81476. 1.68716 1.143(20) 2481. 1.0356 1.1407
81501. 1.68767 1.133(20) 2512. 1.0357 1.1377
81525. 1.68817 1.113(20) 2580. 1.0358 1.1373
81550. 1.68868 1.176(21) 2354. 1.0359 1.1393
81574. 1.68919 1.147(20) 2473. 1.0360 1.1435
81599. 1.68969 1.179(21) 2364. 1.0362 1.1493
81623. 1.69020 1.193(21) 2361. 1.0363 1.1564
81648. 1.69071 1.243(21) 2242. 1.0364 1.1639
81672. 1.69122 1.190(21) 2342. 1.0365 1.1711
81697. 1.69172 1.209(21) 2375. 1.0366 1.1773
81721. 1.69223 1.211(21) 2324. 1.0367 1.1817
81746. 1.69274 1.243(21) 2263. 1.0368 1.1842
81770. 1.69325 1.258(21) 2206. 1.0369 1.1848
81795. 1.69375 1.248(21) 2243. 1.0370 1.1843
81819. 1.69426 1.231(21) 2294. 1.0371 1.1833
81844. 1.69477 1.234(21) 2275. 1.0372 1.1826
81868. 1.69528 1.266(21) 2209. 1.0373 1.1828
81893. 1.69579 1.242(21) 2294. 1.0374 1.1841
81918. 1.69630 1.207(21) 2349. 1.0375 1.1865
81942. 1.69680 1.243(21) 2237. 1.0377 1.1893
81967. 1.69731 1.208(21) 2335. 1.0378 1.1916
81991. 1.69782 1.190(20) 2391. 1.0379 1.1928
82016. 1.69833 1.221(21) 2323. 1.0380 1.1926
82040. 1.69884 1.219(21) 2265. 1.0381 1.1920
82065. 1.69935 1.191(20) 2383. 1.0382 1.1923
82090. 1.69986 1.242(21) 2249. 1.0383 1.1952
82114. 1.70037 1.266(21) 2192. 1.0384 1.2023
82139. 1.70088 1.290(22) 2144. 1.0385 1.2156
82164. 1.70139 1.269(21) 2231. 1.0386 1.2368
82188. 1.70190 1.273(21) 2213. 1.0388 1.2678
82213. 1.70241 1.319(22) 2117. 1.0389 1.3104
82238. 1.70292 1.434(23) 1939. 1.0390 1.3660
82262. 1.70343 1.489(23) 1920. 1.0391 1.4359
82287. 1.70395 1.557(23) 1831. 1.0392 1.5200
82312. 1.70446 1.680(25) 1644. 1.0393 1.6175
82336. 1.70497 1.761(25) 1592. 1.0394 1.7254
82361. 1.70548 1.828(25) 1546. 1.0395 1.8385
82386. 1.70599 1.906(26) 1486. 1.0396 1.9493
82410. 1.70650 1.999(27) 1421. 1.0398 2.0495
82435. 1.70702 2.139(28) 1307. 1.0399 2.1331
82460. 1.70753 2.250(28) 1249. 1.0400 2.1976
82485. 1.70804 2.316(29) 1206. 1.0401 2.2442
82509. 1.70855 2.331(29) 1204. 1.0402 2.2744
82534. 1.70906 2.348(29) 1173. 1.0403 2.2885
82559. 1.70958 2.275(29) 1229. 1.0404 2.2848
82584. 1.71009 2.204(28) 1276. 1.0406 2.2618
82608. 1.71060 2.204(28) 1256. 1.0407 2.2204
82633. 1.71112 2.092(27) 1327. 1.0408 2.1633
82658. 1.71163 2.009(27) 1385. 1.0409 2.0949
82683. 1.71214 1.937(27) 1421. 1.0410 2.0174
82708. 1.71266 1.812(26) 1530. 1.0411 1.9342
82732. 1.71317 1.728(25) 1611. 1.0412 1.8475
82757. 1.71368 1.638(24) 1696. 1.0414 1.7602
82782. 1.71420 1.644(24) 1671. 1.0415 1.6749
82807. 1.71471 1.524(23) 1824. 1.0416 1.5944
82832. 1.71523 1.490(24) 1804. 1.0417 1.5204
82857. 1.71574 1.439(23) 1881. 1.0418 1.4540
82881. 1.71626 1.377(22) 2009. 1.0419 1.3957
82906. 1.71677 1.348(22) 2040. 1.0420 1.3455
82931. 1.71729 1.291(22) 2150. 1.0422 1.3029
82956. 1.71780 1.275(22) 2117. 1.0423 1.2672
82981. 1.71832 1.252(21) 2170. 1.0424 1.2379
83006. 1.71883 1.295(22) 2055. 1.0425 1.2142
83031. 1.71935 1.232(21) 2179. 1.0426 1.1954
83056. 1.71986 1.257(22) 2136. 1.0428 1.1808
83081. 1.72038 1.228(21) 2190. 1.0429 1.1701
83105. 1.72090 1.191(21) 2257. 1.0430 1.1626
83130. 1.72141 1.237(22) 2158. 1.0431 1.1581
83155. 1.72193 1.227(21) 2178. 1.0432 1.1563
83180. 1.72245 1.249(22) 2157. 1.0433 1.1571
83205. 1.72296 1.199(21) 2243. 1.0435 1.1606
83230. 1.72348 1.191(21) 2277. 1.0436 1.1665
83255. 1.72400 1.182(21) 2327. 1.0437 1.1743
83280. 1.72451 1.213(22) 2162. 1.0438 1.1834
83305. 1.72503 1.170(21) 2261. 1.0439 1.1923
83330. 1.72555 1.182(21) 2280. 1.0441 1.1993
83355. 1.72607 1.189(21) 2229. 1.0442 1.2031
83380. 1.72658 1.163(21) 2351. 1.0443 1.2035
83405. 1.72710 1.146(21) 2369. 1.0444 1.2012
83430. 1.72762 1.164(21) 2316. 1.0445 1.1970
83455. 1.72814 1.175(21) 2261. 1.0447 1.1919
83480. 1.72866 1.129(20) 2407. 1.0448 1.1863
83505. 1.72918 1.169(21) 2320. 1.0449 1.1806
83530. 1.72969 1.195(21) 2243. 1.0450 1.1748
83555. 1.73021 1.148(20) 2390. 1.0451 1.1691
83580. 1.73073 1.179(21) 2258. 1.0453 1.1632
83606. 1.73125 1.162(21) 2289. 1.0454 1.1575
83631. 1.73177 1.142(21) 2256. 1.0455 1.1519
83656. 1.73229 1.173(21) 2242. 1.0456 1.1465
83681. 1.73281 1.139(21) 2359. 1.0458 1.1414
83706. 1.73333 1.123(20) 2387. 1.0459 1.1366
83731. 1.73385 1.126(21) 2374. 1.0460 1.1325
83756. 1.73437 1.132(21) 2348. 1.0461 1.1289
83781. 1.73489 1.139(21) 2349. 1.0462 1.1260
83806. 1.73541 1.134(20) 2393. 1.0464 1.1238
83832. 1.73593 1.146(21) 2305. 1.0465 1.1223
83857. 1.73645 1.150(21) 2311. 1.0466 1.1216
83882. 1.73697 1.122(20) 2390. 1.0467 1.1216
83907. 1.73750 1.137(21) 2376. 1.0469 1.1224
83932. 1.73802 1.189(21) 2227. 1.0470 1.1241
83957. 1.73854 1.127(20) 2441. 1.0471 1.1267
83983. 1.73906 1.170(21) 2263. 1.0472 1.1304
84008. 1.73958 1.147(21) 2333. 1.0474 1.1352
84033. 1.74010 1.198(21) 2245. 1.0475 1.1415
84058. 1.74063 1.193(21) 2245. 1.0476 1.1494
84083. 1.74115 1.153(21) 2289. 1.0477 1.1593
84109. 1.74167 1.203(21) 2182. 1.0479 1.1715
84134. 1.74219 1.202(21) 2187. 1.0480 1.1866
84159. 1.74272 1.232(21) 2167. 1.0481 1.2052
84184. 1.74324 1.293(22) 2016. 1.0482 1.2281
84210. 1.74376 1.312(22) 1979. 1.0484 1.2564
84235. 1.74428 1.332(23) 1943. 1.0485 1.2909
84260. 1.74481 1.367(23) 1906. 1.0486 1.3325
84285. 1.74533 1.421(23) 1838. 1.0487 1.3820
84311. 1.74585 1.458(24) 1786. 1.0489 1.4393
84336. 1.74638 1.527(24) 1695. 1.0490 1.5037
84361. 1.74690 1.549(24) 1701. 1.0491 1.5737
84387. 1.74743 1.648(25) 1595. 1.0493 1.6459
84412. 1.74795 1.674(25) 1566. 1.0494 1.7154
84437. 1.74847 1.688(25) 1540. 1.0495 1.7752
84463. 1.74900 1.681(25) 1547. 1.0496 1.8181
84488. 1.74952 1.698(26) 1536. 1.0498 1.8396
84513. 1.75005 1.724(26) 1493. 1.0499 1.8403
84539. 1.75057 1.722(26) 1478. 1.0500 1.8254
84564. 1.75110 1.734(26) 1473. 1.0502 1.8023
84589. 1.75162 1.719(26) 1483. 1.0503 1.7779
84615. 1.75215 1.716(26) 1489. 1.0504 1.7575
84640. 1.75268 1.737(26) 1467. 1.0505 1.7443
84665. 1.75320 1.716(26) 1510. 1.0507 1.7394
84691. 1.75373 1.737(26) 1491. 1.0508 1.7426
84716. 1.75425 1.774(26) 1438. 1.0509 1.7522
84742. 1.75478 1.770(26) 1480. 1.0511 1.7657
84767. 1.75531 1.821(27) 1396. 1.0512 1.7807
84793. 1.75583 1.837(27) 1369. 1.0513 1.7943
84818. 1.75636 1.836(27) 1390. 1.0515 1.8040
84843. 1.75689 1.793(26) 1452. 1.0516 1.8074
84869. 1.75741 1.774(26) 1459. 1.0517 1.8030
84894. 1.75794 1.809(27) 1395. 1.0519 1.7901
84920. 1.75847 1.780(26) 1434. 1.0520 1.7690
84945. 1.75900 1.765(26) 1449. 1.0521 1.7410
84971. 1.75952 1.718(26) 1521. 1.0523 1.7081
84996. 1.76005 1.640(25) 1568. 1.0524 1.6726
85022. 1.76058 1.657(25) 1541. 1.0525 1.6367
85047. 1.76111 1.582(25) 1637. 1.0527 1.6024
85073. 1.76164 1.570(25) 1626. 1.0528 1.5714
85098. 1.76216 1.540(25) 1658. 1.0529 1.5450
85124. 1.76269 1.512(24) 1689. 1.0531 1.5241
85149. 1.76322 1.498(24) 1701. 1.0532 1.5093
85175. 1.76375 1.468(24) 1700. 1.0533 1.5009
85200. 1.76428 1.459(24) 1750. 1.0535 1.4989
85226. 1.76481 1.470(24) 1705. 1.0536 1.5030
85252. 1.76534 1.474(24) 1717. 1.0537 1.5128
85277. 1.76587 1.489(24) 1723. 1.0539 1.5276
85303. 1.76640 1.467(24) 1752. 1.0540 1.5466
85328. 1.76693 1.511(25) 1656. 1.0541 1.5686
85354. 1.76746 1.493(24) 1698. 1.0543 1.5924
85380. 1.76799 1.538(25) 1653. 1.0544 1.6165
85405. 1.76852 1.566(25) 1631. 1.0545 1.6392
85431. 1.76905 1.587(25) 1560. 1.0547 1.6588
85456. 1.76958 1.656(26) 1521. 1.0548 1.6736
85482. 1.77011 1.660(26) 1515. 1.0549 1.6823
85508. 1.77064 1.643(25) 1540. 1.0551 1.6838
85533. 1.77117 1.693(26) 1502. 1.0552 1.6777
85559. 1.77171 1.703(26) 1473. 1.0553 1.6643
85585. 1.77224 1.768(27) 1371. 1.0555 1.6444
85610. 1.77277 1.739(27) 1397. 1.0556 1.6192
85636. 1.77330 1.716(26) 1433. 1.0558 1.5903
85662. 1.77383 1.649(26) 1512. 1.0559 1.5591
85687. 1.77436 1.632(26) 1505. 1.0560 1.5272
85713. 1.77490 1.607(26) 1504. 1.0562 1.4956
85739. 1.77543 1.547(25) 1585. 1.0563 1.4655
85765. 1.77596 1.524(25) 1631. 1.0564 1.4375
85790. 1.77649 1.446(25) 1664. 1.0566 1.4120
85816. 1.77703 1.424(24) 1699. 1.0567 1.3888
85842. 1.77756 1.430(24) 1684. 1.0569 1.3675
85868. 1.77809 1.374(24) 1785. 1.0570 1.3475
85893. 1.77863 1.329(24) 1791. 1.0571 1.3279
85919. 1.77916 1.301(23) 1838. 1.0573 1.3083
85945. 1.77969 1.295(23) 1859. 1.0574 1.2893
85971. 1.78023 1.250(23) 1936. 1.0576 1.2715
85996. 1.78076 1.223(23) 1955. 1.0577 1.2557
86022. 1.78130 1.236(23) 1956. 1.0578 1.2427
86048. 1.78183 1.233(22) 1984. 1.0580 1.2335
86074. 1.78237 1.244(23) 1914. 1.0581 1.2291
86100. 1.78290 1.235(23) 1903. 1.0583 1.2311
86125. 1.78344 1.231(23) 1940. 1.0584 1.2416
86151. 1.78397 1.266(23) 1867. 1.0585 1.2636
86177. 1.78451 1.247(23) 1906. 1.0587 1.3011
86203. 1.78504 1.289(23) 1842. 1.0588 1.3582
86229. 1.78558 1.315(23) 1824. 1.0590 1.4383
86255. 1.78611 1.477(25) 1615. 1.0591 1.5429
86281. 1.78665 1.607(26) 1517. 1.0593 1.6698
86307. 1.78718 1.843(28) 1286. 1.0594 1.8107
86332. 1.78772 2.026(29) 1150. 1.0595 1.9498
86358. 1.78826 2.059(29) 1160. 1.0597 2.0632
86384. 1.78879 2.073(30) 1134. 1.0598 2.1251
86410. 1.78933 2.012(29) 1211. 1.0600 2.1204
86436. 1.78987 1.948(29) 1231. 1.0601 2.0535
86462. 1.79040 1.834(28) 1308. 1.0603 1.9430
86488. 1.79094 1.728(27) 1377. 1.0604 1.8114
86514. 1.79148 1.631(26) 1478. 1.0605 1.6776
86540. 1.79202 1.542(25) 1545. 1.0607 1.5552
86566. 1.79255 1.456(25) 1620. 1.0608 1.4517
86592. 1.79309 1.396(24) 1714. 1.0610 1.3694
86618. 1.79363 1.380(24) 1720. 1.0611 1.3077
86644. 1.79417 1.364(24) 1730. 1.0613 1.2633
86670. 1.79471 1.315(24) 1784. 1.0614 1.2327
86696. 1.79524 1.279(23) 1863. 1.0616 1.2124
86722. 1.79578 1.217(23) 1961. 1.0617 1.1995
86748. 1.79632 1.242(23) 1901. 1.0618 1.1917
86774. 1.79686 1.242(23) 1902. 1.0620 1.1874
86800. 1.79740 1.241(23) 1892. 1.0621 1.1856
86826. 1.79794 1.237(23) 1880. 1.0623 1.1854
86852. 1.79848 1.236(23) 1897. 1.0624 1.1864
86878. 1.79902 1.207(23) 1945. 1.0626 1.1884
86904. 1.79956 1.221(23) 1901. 1.0627 1.1912
86930. 1.80010 1.222(23) 1893. 1.0629 1.1946
86956. 1.80064 1.226(23) 1866. 1.0630 1.1987
86982. 1.80118 1.253(23) 1860. 1.0632 1.2035
87008. 1.80172 1.241(23) 1884. 1.0633 1.2091
87034. 1.80226 1.206(23) 1954. 1.0635 1.2158
87061. 1.80280 1.239(23) 1893. 1.0636 1.2239
87087. 1.80334 1.256(24) 1806. 1.0637 1.2338
87113. 1.80388 1.291(24) 1796. 1.0639 1.2462
87139. 1.80442 1.322(24) 1757. 1.0640 1.2614
87165. 1.80496 1.292(23) 1813. 1.0642 1.2797
87191. 1.80550 1.325(24) 1758. 1.0643 1.3014
87217. 1.80605 1.388(25) 1648. 1.0645 1.3264
87244. 1.80659 1.415(25) 1642. 1.0646 1.3545
87270. 1.80713 1.455(25) 1551. 1.0648 1.3848
87296. 1.80767 1.428(25) 1613. 1.0649 1.4162
87322. 1.80821 1.451(25) 1583. 1.0651 1.4469
87348. 1.80876 1.481(26) 1528. 1.0652 1.4747
87374. 1.80930 1.447(25) 1595. 1.0654 1.4971
87401. 1.80984 1.463(26) 1530. 1.0655 1.5114
87427. 1.81039 1.482(26) 1526. 1.0657 1.5157
87453. 1.81093 1.506(26) 1473. 1.0658 1.5094
87479. 1.81147 1.510(26) 1481. 1.0660 1.4930
87506. 1.81202 1.453(26) 1519. 1.0661 1.4682
87532. 1.81256 1.456(26) 1520. 1.0663 1.4375
87558. 1.81310 1.410(25) 1624. 1.0664 1.4031
87584. 1.81365 1.368(24) 1668. 1.0666 1.3673
87611. 1.81419 1.311(24) 1717. 1.0667 1.3318
87637. 1.81474 1.290(24) 1748. 1.0669 1.2981
87663. 1.81528 1.276(24) 1737. 1.0670 1.2670
87690. 1.81582 1.244(24) 1777. 1.0672 1.2392
87716. 1.81637 1.258(24) 1765. 1.0673 1.2149
87742. 1.81691 1.217(23) 1812. 1.0675 1.1941
87768. 1.81746 1.195(23) 1856. 1.0676 1.1767
87795. 1.81800 1.192(23) 1874. 1.0678 1.1623
87821. 1.81855 1.151(23) 1927. 1.0680 1.1507
87847. 1.81910 1.200(24) 1801. 1.0681 1.1414
87874. 1.81964 1.173(23) 1878. 1.0683 1.1345
87900. 1.82019 1.136(23) 1966. 1.0684 1.1288
87927. 1.82073 1.167(23) 1882. 1.0686 1.1245
87953. 1.82128 1.163(23) 1878. 1.0687 1.1212
87979. 1.82183 1.150(23) 1911. 1.0689 1.1189
88006. 1.82237 1.137(23) 1960. 1.0690 1.1173
88032. 1.82292 1.152(23) 1898. 1.0692 1.1165
88059. 1.82347 1.134(22) 1979. 1.0693 1.1163
88085. 1.82401 1.190(23) 1838. 1.0695 1.1169
88111. 1.82456 1.136(23) 1911. 1.0696 1.1182
88138. 1.82511 1.123(23) 1971. 1.0698 1.1204
88164. 1.82566 1.145(23) 1922. 1.0700 1.1234
88191. 1.82620 1.162(23) 1867. 1.0701 1.1275
88217. 1.82675 1.174(23) 1823. 1.0703 1.1324
88244. 1.82730 1.170(23) 1884. 1.0704 1.1383
88270. 1.82785 1.124(23) 1973. 1.0706 1.1451
88297. 1.82840 1.163(23) 1871. 1.0707 1.1524
88323. 1.82894 1.137(23) 1905. 1.0709 1.1602
88350. 1.82949 1.151(23) 1886. 1.0710 1.1679
88376. 1.83004 1.148(23) 1868. 1.0712 1.1752
88403. 1.83059 1.150(23) 1913. 1.0714 1.1815
88429. 1.83114 1.150(23) 1878. 1.0715 1.1861
88456. 1.83169 1.131(23) 1913. 1.0717 1.1886
88482. 1.83224 1.111(22) 2000. 1.0718 1.1889
88509. 1.83279 1.151(23) 1873. 1.0720 1.1872
88535. 1.83334 1.145(23) 1895. 1.0721 1.1837
88562. 1.83389 1.141(23) 1891. 1.0723 1.1791
88588. 1.83444 1.175(23) 1828. 1.0725 1.1738
88615. 1.83499 1.135(23) 1943. 1.0726 1.1682
88642. 1.83554 1.155(23) 1876. 1.0728 1.1627
88668. 1.83609 1.131(23) 1890. 1.0729 1.1574
88695. 1.83664 1.182(24) 1788. 1.0731 1.1525
88721. 1.83719 1.175(23) 1813. 1.0732 1.1482
88748. 1.83774 1.190(24) 1773. 1.0734 1.1448
88775. 1.83829 1.201(24) 1747. 1.0736 1.1425
88801. 1.83885 1.166(23) 1844. 1.0737 1.1430
88828. 1.83940 1.180(24) 1794. 1.0739 1.1439
88855. 1.83995 1.168(23) 1843. 1.0740 1.1473
88881. 1.84050 1.171(24) 1800. 1.0742 1.1537
88908. 1.84105 1.188(24) 1785. 1.0744 1.1639
88935. 1.84161 1.213(24) 1744. 1.0745 1.1785
88961. 1.84216 1.209(24) 1734. 1.0747 1.1977
88988. 1.84271 1.237(24) 1726. 1.0748 1.2211
89015. 1.84326 1.240(24) 1690. 1.0750 1.2473
89041. 1.84382 1.305(25) 1605. 1.0752 1.2740
89068. 1.84437 1.315(25) 1583. 1.0753 1.2976
89095. 1.84492 1.317(25) 1592. 1.0755 1.3147
89121. 1.84548 1.346(25) 1563. 1.0756 1.3231
89148. 1.84603 1.304(25) 1600. 1.0758 1.3223
89175. 1.84658 1.348(25) 1566. 1.0760 1.3128
89202. 1.84714 1.343(26) 1522. 1.0761 1.2965
89228. 1.84769 1.279(25) 1647. 1.0763 1.2762
89255. 1.84825 1.204(24) 1799. 1.0764 1.2548
89282. 1.84880 1.285(25) 1629. 1.0766 1.2345
89309. 1.84936 1.211(24) 1742. 1.0768 1.2169
89336. 1.84991 1.262(25) 1630. 1.0769 1.2028
89362. 1.85047 1.274(25) 1625. 1.0771 1.1925
89389. 1.85102 1.245(24) 1694. 1.0773 1.1861
89416. 1.85158 1.250(24) 1670. 1.0774 1.1831
89443. 1.85213 1.241(25) 1661. 1.0776 1.1831
89470. 1.85269 1.230(24) 1686. 1.0777 1.1855
89496. 1.85324 1.251(25) 1632. 1.0779 1.1897
89523. 1.85380 1.214(24) 1723. 1.0781 1.1951
89550. 1.85436 1.265(25) 1599. 1.0782 1.2010
89577. 1.85491 1.237(25) 1660. 1.0784 1.2068
89604. 1.85547 1.276(25) 1624. 1.0786 1.2122
89631. 1.85602 1.272(25) 1607. 1.0787 1.2167
89658. 1.85658 1.275(25) 1611. 1.0789 1.2207
89685. 1.85714 1.251(25) 1655. 1.0791 1.2243
89712. 1.85770 1.252(25) 1649. 1.0792 1.2285
89738. 1.85825 1.258(25) 1611. 1.0794 1.2339
89765. 1.85881 1.256(25) 1631. 1.0795 1.2413
89792. 1.85937 1.277(25) 1592. 1.0797 1.2512
89819. 1.85993 1.263(25) 1656. 1.0799 1.2639
89846. 1.86048 1.260(25) 1637. 1.0800 1.2791
89873. 1.86104 1.300(25) 1560. 1.0802 1.2958
89900. 1.86160 1.296(25) 1578. 1.0804 1.3123
89927. 1.86216 1.329(26) 1533. 1.0805 1.3265
89954. 1.86272 1.333(26) 1523. 1.0807 1.3358
89981. 1.86328 1.348(26) 1496. 1.0809 1.3389
90008. 1.86384 1.331(26) 1522. 1.0810 1.3359
90035. 1.86439 1.365(26) 1462. 1.0812 1.3287
90062. 1.86495 1.292(25) 1598. 1.0814 1.3194
90089. 1.86551 1.342(26) 1516. 1.0815 1.3104
90116. 1.86607 1.364(26) 1464. 1.0817 1.3036
90143. 1.86663 1.390(26) 1449. 1.0819 1.3000
90170. 1.86719 1.369(26) 1467. 1.0820 1.3005
90197. 1.86775 1.359(26) 1494. 1.0822 1.3055
90224. 1.86831 1.384(26) 1446. 1.0824 1.3148
90251. 1.86887 1.319(25) 1544. 1.0825 1.3281
90278. 1.86943 1.373(26) 1470. 1.0827 1.3451
90305. 1.87000 1.356(26) 1448. 1.0829 1.3652
90333. 1.87056 1.383(26) 1441. 1.0830 1.3877
90360. 1.87112 1.383(26) 1457. 1.0832 1.4119
90387. 1.87168 1.454(27) 1363. 1.0834 1.4371
90414. 1.87224 1.430(27) 1385. 1.0835 1.4624
90441. 1.87280 1.503(27) 1323. 1.0837 1.4868
90468. 1.87336 1.508(27) 1328. 1.0839 1.5091
90495. 1.87393 1.499(27) 1323. 1.0840 1.5282
90522. 1.87449 1.535(28) 1298. 1.0842 1.5429
90550. 1.87505 1.573(28) 1251. 1.0844 1.5525
90577. 1.87561 1.606(29) 1222. 1.0845 1.5561
90604. 1.87618 1.575(28) 1267. 1.0847 1.5538
90631. 1.87674 1.643(29) 1176. 1.0849 1.5457
90658. 1.87730 1.663(29) 1157. 1.0850 1.5325
90686. 1.87787 1.674(29) 1173. 1.0852 1.5151
90713. 1.87843 1.608(29) 1218. 1.0854 1.4946
90740. 1.87899 1.604(29) 1231. 1.0856 1.4722
90767. 1.87956 1.545(28) 1277. 1.0857 1.4488
90794. 1.88012 1.497(28) 1309. 1.0859 1.4256
90822. 1.88068 1.457(27) 1352. 1.0861 1.4034
90849. 1.88125 1.400(27) 1389. 1.0862 1.3831
90876. 1.88181 1.365(26) 1435. 1.0864 1.3655
90903. 1.88238 1.390(26) 1430. 1.0866 1.3517
90931. 1.88294 1.379(27) 1412. 1.0867 1.3425
90958. 1.88351 1.369(26) 1439. 1.0869 1.3391
90985. 1.88407 1.293(25) 1543. 1.0871 1.3427
91013. 1.88464 1.326(26) 1473. 1.0873 1.3544
91040. 1.88520 1.389(27) 1403. 1.0874 1.3751
91067. 1.88577 1.387(27) 1380. 1.0876 1.4050
91094. 1.88633 1.485(28) 1299. 1.0878 1.4439
91122. 1.88690 1.460(27) 1366. 1.0879 1.4900
91149. 1.88747 1.499(28) 1301. 1.0881 1.5401
91176. 1.88803 1.534(28) 1256. 1.0883 1.5893
91204. 1.88860 1.577(28) 1249. 1.0885 1.6310
91231. 1.88916 1.557(28) 1274. 1.0886 1.6592
91259. 1.88973 1.557(28) 1285. 1.0888 1.6706
91286. 1.89030 1.606(29) 1227. 1.0890 1.6660
91313. 1.89087 1.626(29) 1186. 1.0891 1.6500
91341. 1.89143 1.600(29) 1206. 1.0893 1.6290
91368. 1.89200 1.560(28) 1285. 1.0895 1.6103
91396. 1.89257 1.582(28) 1248. 1.0897 1.6017
91423. 1.89314 1.553(28) 1269. 1.0898 1.6102
91450. 1.89370 1.620(29) 1230. 1.0900 1.6421
91478. 1.89427 1.660(29) 1198. 1.0902 1.7012
91505. 1.89484 1.761(30) 1130. 1.0904 1.7878
91533. 1.89541 1.886(31) 1023. 1.0905 1.8966
91560. 1.89598 2.072(33) 921. 1.0907 2.0145
91588. 1.89655 2.167(33) 892. 1.0909 2.1194
91615. 1.89711 2.200(34) 870. 1.0910 2.1836
91643. 1.89768 2.118(33) 914. 1.0912 2.1879
91670. 1.89825 2.073(33) 921. 1.0914 2.1331
91698. 1.89882 2.000(32) 956. 1.0916 2.0364
91725. 1.89939 1.901(31) 1023. 1.0917 1.9194
91753. 1.89996 1.852(31) 1049. 1.0919 1.8003
91780. 1.90053 1.710(30) 1122. 1.0921 1.6911
91808. 1.90110 1.644(29) 1157. 1.0923 1.5978
91835. 1.90167 1.620(29) 1188. 1.0924 1.5220
91863. 1.90224 1.582(29) 1226. 1.0926 1.4623
91890. 1.90281 1.530(29) 1216. 1.0928 1.4157
91918. 1.90339 1.441(28) 1306. 1.0930 1.3793
91945. 1.90396 1.459(28) 1294. 1.0931 1.3504
91973. 1.90453 1.404(27) 1347. 1.0933 1.3269
92001. 1.90510 1.368(27) 1379. 1.0935 1.3075
92028. 1.90567 1.356(27) 1388. 1.0937 1.2914
92056. 1.90624 1.321(27) 1406. 1.0938 1.2777
92083. 1.90681 1.308(27) 1406. 1.0940 1.2661
92111. 1.90739 1.257(26) 1472. 1.0942 1.2562
92139. 1.90796 1.250(26) 1497. 1.0944 1.2476
92166. 1.90853 1.221(25) 1541. 1.0945 1.2402
92194. 1.90910 1.217(25) 1542. 1.0947 1.2337
92222. 1.90968 1.204(25) 1546. 1.0949 1.2285
92249. 1.91025 1.195(25) 1588. 1.0951 1.2246
92277. 1.91082 1.225(26) 1534. 1.0952 1.2225
92305. 1.91140 1.232(26) 1494. 1.0954 1.2223
92332. 1.91197 1.197(25) 1539. 1.0956 1.2244
92360. 1.91254 1.238(26) 1465. 1.0958 1.2288
92388. 1.91312 1.207(26) 1522. 1.0959 1.2360
92415. 1.91369 1.216(26) 1486. 1.0961 1.2455
92443. 1.91426 1.269(26) 1458. 1.0963 1.2572
92471. 1.91484 1.274(26) 1446. 1.0965 1.2709
92499. 1.91541 1.222(26) 1530. 1.0967 1.2858
92526. 1.91599 1.273(26) 1442. 1.0968 1.3012
92554. 1.91656 1.265(26) 1448. 1.0970 1.3160
92582. 1.91714 1.347(27) 1371. 1.0972 1.3289
92610. 1.91771 1.287(27) 1416. 1.0974 1.3385
92638. 1.91829 1.303(27) 1418. 1.0975 1.3435
92665. 1.91886 1.280(26) 1498. 1.0977 1.3434
92693. 1.91944 1.282(26) 1470. 1.0979 1.3378
92721. 1.92001 1.292(27) 1412. 1.0981 1.3276
92749. 1.92059 1.285(26) 1467. 1.0982 1.3136
92777. 1.92117 1.297(27) 1416. 1.0984 1.2970
92804. 1.92174 1.290(27) 1399. 1.0986 1.2792
92832. 1.92232 1.234(26) 1479. 1.0988 1.2611
92860. 1.92290 1.199(26) 1528. 1.0990 1.2435
92888. 1.92347 1.221(26) 1491. 1.0991 1.2271
92916. 1.92405 1.222(26) 1480. 1.0993 1.2122
92944. 1.92463 1.167(25) 1564. 1.0995 1.1992
92972. 1.92521 1.165(25) 1586. 1.0997 1.1881
92999. 1.92578 1.232(26) 1470. 1.0999 1.1790
93027. 1.92636 1.156(25) 1574. 1.1000 1.1716
93055. 1.92694 1.171(25) 1573. 1.1002 1.1684
93083. 1.92752 1.148(25) 1569. 1.1004 1.1640
93111. 1.92809 1.113(25) 1623. 1.1006 1.1607
93139. 1.92867 1.126(25) 1601. 1.1007 1.1581
93167. 1.92925 1.162(25) 1552. 1.1009 1.1561
93195. 1.92983 1.157(25) 1549. 1.1011 1.1542
93223. 1.93041 1.119(25) 1597. 1.1013 1.1525
93251. 1.93099 1.134(25) 1600. 1.1015 1.1507
93279. 1.93157 1.134(25) 1592. 1.1016 1.1488
93307. 1.93215 1.091(25) 1649. 1.1018 1.1469
93335. 1.93273 1.136(25) 1553. 1.1020 1.1449
93363. 1.93331 1.126(25) 1587. 1.1022 1.1429
93391. 1.93389 1.177(26) 1506. 1.1024 1.1410
93419. 1.93447 1.118(25) 1598. 1.1025 1.1392
93447. 1.93505 1.119(25) 1583. 1.1027 1.1376
93475. 1.93563 1.122(26) 1534. 1.1029 1.1362
93503. 1.93621 1.106(25) 1608. 1.1031 1.1350
93531. 1.93679 1.135(25) 1567. 1.1033 1.1339
93559. 1.93737 1.119(25) 1596. 1.1034 1.1331
93587. 1.93795 1.093(25) 1625. 1.1036 1.1324
93615. 1.93853 1.111(25) 1565. 1.1038 1.1318
93643. 1.93911 1.077(25) 1631. 1.1040 1.1314
93671. 1.93970 1.137(26) 1495. 1.1042 1.1311
93699. 1.94028 1.171(26) 1475. 1.1043 1.1310
93728. 1.94086 1.097(25) 1588. 1.1045 1.1310
93756. 1.94144 1.144(26) 1488. 1.1047 1.1311
93784. 1.94203 1.153(26) 1480. 1.1049 1.1308
93812. 1.94261 1.148(26) 1475. 1.1051 1.1313
93840. 1.94319 1.139(26) 1503. 1.1052 1.1319
93868. 1.94377 1.115(25) 1559. 1.1054 1.1326
93896. 1.94436 1.129(26) 1501. 1.1056 1.1335
93925. 1.94494 1.137(26) 1480. 1.1058 1.1343
93953. 1.94552 1.121(26) 1536. 1.1060 1.1349
93981. 1.94611 1.124(26) 1520. 1.1061 1.1353
94009. 1.94669 1.167(26) 1428. 1.1063 1.1355
94037. 1.94728 1.170(26) 1425. 1.1065 1.1355
94066. 1.94786 1.114(26) 1510. 1.1067 1.1356
94094. 1.94844 1.134(26) 1513. 1.1069 1.1359
94122. 1.94903 1.180(26) 1457. 1.1070 1.1363
94150. 1.94961 1.162(26) 1462. 1.1072 1.1370
94178. 1.95020 1.128(26) 1517. 1.1074 1.1379
94207. 1.95078 1.150(26) 1456. 1.1076 1.1392
94235. 1.95137 1.139(26) 1478. 1.1078 1.1406
94263. 1.95195 1.144(26) 1500. 1.1079 1.1424
94292. 1.95254 1.121(26) 1534. 1.1081 1.1445
94320. 1.95313 1.117(26) 1526. 1.1083 1.1468
94348. 1.95371 1.173(27) 1419. 1.1085 1.1495
94376. 1.95430 1.134(26) 1497. 1.1087 1.1525
94405. 1.95488 1.158(26) 1479. 1.1089 1.1559
94433. 1.95547 1.141(26) 1514. 1.1090 1.1596
94461. 1.95606 1.137(26) 1506. 1.1092 1.1636
94490. 1.95664 1.167(26) 1446. 1.1094 1.1680
94518. 1.95723 1.195(27) 1398. 1.1096 1.1727
94546. 1.95782 1.241(27) 1328. 1.1098 1.1775
94575. 1.95841 1.225(27) 1380. 1.1099 1.1825
94603. 1.95899 1.227(27) 1351. 1.1101 1.1875
94632. 1.95958 1.221(27) 1370. 1.1103 1.1924
94660. 1.96017 1.247(27) 1354. 1.1105 1.1970
94688. 1.96076 1.276(28) 1305. 1.1107 1.2012
94717. 1.96134 1.273(28) 1273. 1.1109 1.2047
94745. 1.96193 1.236(27) 1329. 1.1110 1.2074
94774. 1.96252 1.298(28) 1256. 1.1112 1.2092
94802. 1.96311 1.320(29) 1230. 1.1114 1.2098
94830. 1.96370 1.252(27) 1329. 1.1116 1.2094
94859. 1.96429 1.265(28) 1269. 1.1118 1.2080
94887. 1.96488 1.214(27) 1359. 1.1119 1.2057
94916. 1.96547 1.228(27) 1338. 1.1121 1.2026
94944. 1.96606 1.225(27) 1330. 1.1123 1.1990
94973. 1.96665 1.197(27) 1379. 1.1125 1.1950
95001. 1.96724 1.172(27) 1373. 1.1127 1.1909
95030. 1.96783 1.188(27) 1393. 1.1129 1.1868
95058. 1.96842 1.140(26) 1441. 1.1130 1.1828
95087. 1.96901 1.138(26) 1443. 1.1132 1.1790
95115. 1.96960 1.154(27) 1388. 1.1134 1.1754
95144. 1.97019 1.141(26) 1440. 1.1136 1.1723
95172. 1.97078 1.159(26) 1434. 1.1138 1.1695
95201. 1.97137 1.159(27) 1358. 1.1139 1.1671
95230. 1.97196 1.192(28) 1319. 1.1141 1.1651
95258. 1.97255 1.176(27) 1369. 1.1143 1.1635
95287. 1.97315 1.217(28) 1314. 1.1145 1.1622
95315. 1.97374 1.148(27) 1405. 1.1147 1.1614
95344. 1.97433 1.172(27) 1348. 1.1149 1.1609
95372. 1.97492 1.112(26) 1458. 1.1150 1.1607
95401. 1.97552 1.128(27) 1398. 1.1152 1.1608
95430. 1.97611 1.172(27) 1338. 1.1154 1.1612
95458. 1.97670 1.187(27) 1346. 1.1156 1.1619
95487. 1.97729 1.155(27) 1385. 1.1158 1.1629
95516. 1.97789 1.135(26) 1453. 1.1160 1.1641
95544. 1.97848 1.165(27) 1357. 1.1161 1.1656
95573. 1.97907 1.141(27) 1414. 1.1163 1.1674
95602. 1.97967 1.152(27) 1397. 1.1165 1.1695
95630. 1.98026 1.163(27) 1368. 1.1167 1.1720
95659. 1.98086 1.203(28) 1311. 1.1169 1.1748
95688. 1.98145 1.170(27) 1383. 1.1170 1.1782
95716. 1.98204 1.205(28) 1320. 1.1172 1.1824
95745. 1.98264 1.223(28) 1265. 1.1174 1.1879
95774. 1.98323 1.242(28) 1289. 1.1176 1.1953
95803. 1.98383 1.212(27) 1334. 1.1178 1.2056
95831. 1.98442 1.159(27) 1401. 1.1180 1.2200
95860. 1.98502 1.213(28) 1283. 1.1181 1.2395
95889. 1.98561 1.244(28) 1250. 1.1183 1.2644
95918. 1.98621 1.256(28) 1246. 1.1185 1.2940
95946. 1.98681 1.263(28) 1250. 1.1187 1.3254
95975. 1.98740 1.350(29) 1180. 1.1189 1.3532
96004. 1.98800 1.314(29) 1181. 1.1191 1.3709
96033. 1.98860 1.327(29) 1184. 1.1192 1.3748
96062. 1.98919 1.271(28) 1268. 1.1194 1.3667
96090. 1.98979 1.291(29) 1204. 1.1196 1.3517
96119. 1.99039 1.293(29) 1216. 1.1198 1.3346
96148. 1.99098 1.214(28) 1262. 1.1200 1.3188
96177. 1.99158 1.252(28) 1251. 1.1201 1.3063
96206. 1.99218 1.258(29) 1208. 1.1203 1.2979
96235. 1.99278 1.229(28) 1254. 1.1205 1.2938
96263. 1.99337 1.269(29) 1213. 1.1207 1.2941
96292. 1.99397 1.222(29) 1226. 1.1209 1.2985
96321. 1.99457 1.311(30) 1133. 1.1211 1.3068
96350. 1.99517 1.343(30) 1137. 1.1212 1.3187
96379. 1.99577 1.355(30) 1132. 1.1214 1.3341
96408. 1.99636 1.260(28) 1268. 1.1216 1.3524
96437. 1.99696 1.355(30) 1101. 1.1218 1.3730
96466. 1.99756 1.356(30) 1103. 1.1220 1.3950
96495. 1.99816 1.398(31) 1049. 1.1221 1.4170
96524. 1.99876 1.407(30) 1092. 1.1223 1.4408
96553. 1.99936 1.404(31) 1056. 1.1225 1.4578
96582. 1.99996 1.416(31) 1043. 1.1227 1.4699
96611. 2.00056 1.401(31) 1074. 1.1229 1.4764
96640. 2.00116 1.467(31) 1021. 1.1231 1.4777
96669. 2.00176 1.451(31) 1008. 1.1232 1.4748
96698. 2.00236 1.421(31) 1044. 1.1234 1.4689
96727. 2.00296 1.428(31) 1019. 1.1236 1.4609
96756. 2.00356 1.420(31) 1049. 1.1238 1.4517
96785. 2.00416 1.480(32) 985. 1.1240 1.4412
96814. 2.00477 1.460(32) 990. 1.1241 1.4295
96843. 2.00537 1.404(31) 1016. 1.1243 1.4165
96872. 2.00597 1.409(31) 1027. 1.1245 1.4027
96901. 2.00657 1.387(31) 1060. 1.1247 1.3889
96930. 2.00717 1.334(30) 1088. 1.1249 1.3760
96959. 2.00778 1.377(31) 1045. 1.1251 1.3650
96988. 2.00838 1.363(31) 1020. 1.1252 1.3565
97017. 2.00898 1.326(30) 1085. 1.1254 1.3511
97046. 2.00958 1.337(30) 1078. 1.1256 1.3488
97075. 2.01019 1.351(31) 1051. 1.1258 1.3498
97104. 2.01079 1.321(31) 1070. 1.1260 1.3538
97134. 2.01139 1.343(30) 1078. 1.1261 1.3602
97163. 2.01200 1.343(31) 1052. 1.1263 1.3682
97192. 2.01260 1.354(31) 1050. 1.1265 1.3768
97221. 2.01320 1.402(31) 1020. 1.1267 1.3850
97250. 2.01381 1.340(30) 1077. 1.1269 1.3924
97279. 2.01441 1.408(31) 1018. 1.1270 1.3993
97309. 2.01502 1.414(31) 1008. 1.1272 1.4065
97338. 2.01562 1.402(32) 1004. 1.1274 1.4149
97367. 2.01622 1.438(32) 984. 1.1276 1.4253
97396. 2.01683 1.433(32) 988. 1.1278 1.4386
97425. 2.01743 1.429(32) 981. 1.1279 1.4553
97455. 2.01804 1.456(32) 958. 1.1281 1.4761
97484. 2.01865 1.463(32) 959. 1.1283 1.5020
97513. 2.01925 1.470(32) 951. 1.1285 1.5342
97542. 2.01986 1.478(32) 948. 1.1287 1.5747
97572. 2.02046 1.533(33) 903. 1.1288 1.6268
97601. 2.02107 1.495(33) 941. 1.1290 1.6952
97630. 2.02167 1.572(34) 880. 1.1292 1.7872
97659. 2.02228 1.635(34) 862. 1.1294 1.9128
97689. 2.02289 1.729(35) 814. 1.1296 2.0848
97718. 2.02349 1.93(4) 723. 1.130 2.319
97747. 2.02410 2.11(4) 680. 1.130 2.632
97777. 2.02471 2.79(4) 515. 1.130 3.040
97806. 2.02532 3.70(5) 376. 1.130 3.550
97835. 2.02592 4.85(6) 267.8 1.130 4.160
97865. 2.02653 5.50(7) 231.3 1.131 4.849
97894. 2.02714 5.89(7) 215.4 1.131 5.571
97923. 2.02775 6.13(7) 203.3 1.131 6.250
97953. 2.02836 6.21(7) 197.4 1.131 6.783
97982. 2.02896 6.34(7) 190.5 1.131 7.070
98012. 2.02957 6.47(7) 184.8 1.132 7.057
98041. 2.03018 6.37(7) 185.6 1.132 6.769
98070. 2.03079 6.10(7) 195.6 1.132 6.285
98100. 2.03140 5.75(7) 210.9 1.132 5.700
98129. 2.03201 5.27(7) 234.1 1.132 5.101
98159. 2.03262 4.98(6) 245.5 1.132 4.550
98188. 2.03323 4.53(6) 277.2 1.133 4.085
98218. 2.03384 4.25(6) 297.4 1.133 3.723
98247. 2.03445 3.99(6) 317.3 1.133 3.469
98277. 2.03506 3.73(5) 345.5 1.133 3.314
98306. 2.03567 3.56(5) 360. 1.133 3.243
98336. 2.03628 3.43(5) 376. 1.133 3.241
98365. 2.03689 3.42(5) 380. 1.134 3.291
98395. 2.03750 3.36(5) 391. 1.134 3.380
98424. 2.03812 3.42(5) 375. 1.134 3.493
98454. 2.03873 3.52(5) 369. 1.134 3.620
98483. 2.03934 3.53(5) 366. 1.134 3.750
98513. 2.03995 3.64(5) 359. 1.135 3.875
98542. 2.04056 3.71(5) 358. 1.135 3.986
98572. 2.04117 3.88(5) 335.4 1.135 4.073
98601. 2.04179 3.93(5) 337.4 1.135 4.129
98631. 2.04240 4.11(6) 324.7 1.135 4.150
98661. 2.04301 4.22(6) 314.5 1.135 4.132
98690. 2.04362 4.37(6) 299.5 1.136 4.076
98720. 2.04424 4.32(6) 308.1 1.136 3.986
98749. 2.04485 4.34(6) 309.1 1.136 3.866
98779. 2.04546 4.20(6) 317.5 1.136 3.725
98809. 2.04608 4.12(6) 326.9 1.136 3.569
98838. 2.04669 3.87(5) 356. 1.136 3.406
98868. 2.04731 3.66(5) 377. 1.137 3.241
98898. 2.04792 3.47(5) 399. 1.137 3.078
98927. 2.04853 3.13(5) 450. 1.137 2.917
98957. 2.04915 2.88(5) 490. 1.137 2.756
98987. 2.04976 2.61(4) 548. 1.137 2.597
99016. 2.05038 2.39(4) 601. 1.138 2.441
99046. 2.05099 2.30(4) 619. 1.138 2.294
99076. 2.05161 2.03(4) 703. 1.138 2.160
99105. 2.05222 1.93(4) 747. 1.138 2.040
99135. 2.05284 1.86(4) 746. 1.138 1.936
99165. 2.05346 1.727(35) 818. 1.1384 1.8474
99195. 2.05407 1.669(34) 854. 1.1386 1.7722
99224. 2.05469 1.546(33) 924. 1.1387 1.7095
99254. 2.05531 1.572(33) 913. 1.1389 1.6577
99284. 2.05592 1.491(32) 959. 1.1391 1.6154
99314. 2.05654 1.481(32) 974. 1.1393 1.5814
99344. 2.05716 1.408(31) 1010. 1.1394 1.5547
99373. 2.05777 1.365(31) 1063. 1.1396 1.5345
99403. 2.05839 1.445(32) 977. 1.1398 1.5201
99433. 2.05901 1.443(32) 982. 1.1399 1.5113
99463. 2.05962 1.401(31) 1053. 1.1401 1.5078
99493. 2.06024 1.364(31) 1060. 1.1403 1.5096
99522. 2.06086 1.376(31) 1033. 1.1405 1.5178
99552. 2.06148 1.414(31) 1051. 1.1406 1.5334
99582. 2.06210 1.427(30) 1079. 1.1408 1.5577
99612. 2.06272 1.441(31) 1073. 1.1410 1.5927
99642. 2.06333 1.525(31) 1029. 1.1411 1.6404
99672. 2.06395 1.546(32) 1004. 1.1413 1.7036
99702. 2.06457 1.661(33) 929. 1.1415 1.7867
99732. 2.06519 1.76(4) 811. 1.142 1.900
99762. 2.06581 1.85(4) 729. 1.142 2.069
99792. 2.06643 2.02(4) 661. 1.142 2.337
99821. 2.06705 2.38(4) 560. 1.142 2.770
99851. 2.06767 3.00(5) 451. 1.142 3.438
99881. 2.06829 4.06(6) 325.9 1.142 4.388
99911. 2.06891 5.72(7) 215.6 1.143 5.607
99941. 2.06953 7.64(8) 147.9 1.143 6.963
99971. 2.07015 8.66(9) 127.4 1.143 8.159
100001. 2.07078 8.66(9) 128.7 1.143 8.784
100031. 2.07140 7.93(8) 143.3 1.143 8.601
100061. 2.07202 7.10(8) 163.9 1.144 7.742
100091. 2.07264 5.94(7) 203.2 1.144 6.534
100121. 2.07326 5.24(7) 235.4 1.144 5.284
100151. 2.07388 4.27(6) 297.4 1.144 4.186
100181. 2.07451 3.72(5) 341.7 1.144 3.321
100211. 2.07513 3.16(5) 408. 1.144 2.694
100242. 2.07575 2.68(5) 484. 1.145 2.264
100272. 2.07637 2.45(4) 520. 1.145 1.979
100302. 2.07700 2.08(4) 622. 1.145 1.790
100332. 2.07762 1.93(4) 656. 1.145 1.664
100362. 2.07824 1.76(4) 726. 1.145 1.576
100392. 2.07887 1.71(4) 742. 1.145 1.512
100422. 2.07949 1.63(4) 780. 1.146 1.464
100452. 2.08011 1.57(4) 810. 1.146 1.427
100482. 2.08074 1.505(35) 828. 1.1458 1.3972
100512. 2.08136 1.471(34) 864. 1.1460 1.3726
100543. 2.08199 1.451(35) 837. 1.1462 1.3520
100573. 2.08261 1.369(33) 929. 1.1463 1.3345
100603. 2.08324 1.317(32) 961. 1.1465 1.3195
100633. 2.08386 1.346(33) 930. 1.1467 1.3065
100663. 2.08449 1.355(33) 911. 1.1468 1.2952
100694. 2.08511 1.312(32) 954. 1.1470 1.2852
100724. 2.08574 1.326(33) 919. 1.1471 1.2764
100754. 2.08636 1.358(33) 910. 1.1473 1.2687
100784. 2.08699 1.370(33) 899. 1.1475 1.2619
100814. 2.08761 1.350(33) 891. 1.1476 1.2559
100845. 2.08824 1.339(34) 881. 1.1478 1.2506
100875. 2.08887 1.344(34) 890. 1.1480 1.2460
100905. 2.08949 1.267(32) 948. 1.1481 1.2420
100935. 2.09012 1.311(33) 899. 1.1483 1.2385
100966. 2.09075 1.282(33) 938. 1.1484 1.2352
100996. 2.09138 1.318(33) 908. 1.1486 1.2321
101026. 2.09200 1.321(33) 903. 1.1488 1.2290
101057. 2.09263 1.352(34) 857. 1.1489 1.2257
101087. 2.09326 1.273(32) 953. 1.1491 1.2224
101117. 2.09389 1.211(32) 995. 1.1492 1.2192
101148. 2.09451 1.258(32) 956. 1.1494 1.2162
101178. 2.09514 1.301(33) 897. 1.1496 1.2134
101208. 2.09577 1.320(34) 868. 1.1497 1.2108
101239. 2.09640 1.213(32) 985. 1.1499 1.2085
101269. 2.09703 1.319(33) 895. 1.1500 1.2064
101299. 2.09766 1.316(33) 903. 1.1502 1.2045
101330. 2.09829 1.247(32) 988. 1.1503 1.2028
101360. 2.09892 1.299(32) 978. 1.1505 1.2013
101391. 2.09955 1.251(31) 1051. 1.1507 1.1998
101421. 2.10018 1.258(31) 1027. 1.1508 1.1985
101451. 2.10081 1.256(31) 1031. 1.1510 1.1973
101482. 2.10144 1.209(30) 1075. 1.1511 1.1961
101512. 2.10207 1.276(32) 1007. 1.1513 1.1950
101543. 2.10270 1.260(31) 1011. 1.1514 1.1940
101573. 2.10333 1.240(31) 1056. 1.1516 1.1931
101604. 2.10396 1.242(31) 1053. 1.1518 1.1922
101634. 2.10459 1.282(32) 979. 1.1519 1.1913
101665. 2.10522 1.283(32) 971. 1.1521 1.1906
101695. 2.10585 1.282(32) 989. 1.1522 1.1898
101726. 2.10649 1.229(31) 1057. 1.1524 1.1891
101756. 2.10712 1.241(31) 1037. 1.1525 1.1885
101787. 2.10775 1.214(31) 1063. 1.1527 1.1879
101817. 2.10838 1.285(31) 1012. 1.1528 1.1873
101848. 2.10901 1.272(32) 1001. 1.1530 1.1868
101878. 2.10965 1.272(31) 1022. 1.1531 1.1863
101909. 2.11028 1.248(31) 1057. 1.1533 1.1858
101940. 2.11091 1.232(31) 1044. 1.1534 1.1854
101970. 2.11155 1.239(31) 1044. 1.1536 1.1850
102001. 2.11218 1.237(31) 1045. 1.1537 1.1846
102031. 2.11281 1.215(30) 1097. 1.1539 1.1843
102062. 2.11345 1.262(31) 1030. 1.1540 1.1840
102093. 2.11408 1.199(30) 1077. 1.1542 1.1837
102123. 2.11472 1.222(30) 1092. 1.1543 1.1834
102154. 2.11535 1.209(31) 1054. 1.1545 1.1832
102184. 2.11598 1.236(31) 1050. 1.1546 1.1830
102215. 2.11662 1.205(30) 1087. 1.1548 1.1829
102246. 2.11725 1.261(31) 1015. 1.1549 1.1828
102276. 2.11789 1.186(30) 1108. 1.1551 1.1827
102307. 2.11853 1.191(30) 1105. 1.1552 1.1826
102338. 2.11916 1.280(32) 971. 1.1554 1.1826
102369. 2.11980 1.245(31) 1023. 1.1555 1.1826
102399. 2.12043 1.212(30) 1087. 1.1557 1.1827
102430. 2.12107 1.219(31) 1046. 1.1558 1.1828
102461. 2.12170 1.139(29) 1166. 1.1560 1.1829
102491. 2.12234 1.180(30) 1094. 1.1561 1.1831
102522. 2.12298 1.242(31) 1025. 1.1562 1.1834
102553. 2.12361 1.204(30) 1077. 1.1564 1.1837
102584. 2.12425 1.198(31) 1058. 1.1565 1.1841
102614. 2.12489 1.174(30) 1087. 1.1567 1.1847
102645. 2.12553 1.157(30) 1140. 1.1568 1.1854
102676. 2.12616 1.163(30) 1120. 1.1570 1.1862
102707. 2.12680 1.225(31) 1039. 1.1571 1.1873
102738. 2.12744 1.149(30) 1112. 1.1573 1.1888
102768. 2.12808 1.192(31) 1022. 1.1574 1.1906
102799. 2.12872 1.181(31) 1041. 1.1575 1.1930
102830. 2.12936 1.204(31) 1058. 1.1577 1.1960
102861. 2.12999 1.201(30) 1086. 1.1578 1.1999
102892. 2.13063 1.173(30) 1099. 1.1580 1.2047
102923. 2.13127 1.178(30) 1114. 1.1581 1.2108
102954. 2.13191 1.209(31) 1054. 1.1582 1.2181
102985. 2.13255 1.193(30) 1100. 1.1584 1.2268
103015. 2.13319 1.202(30) 1103. 1.1585 1.2371
103046. 2.13383 1.160(30) 1145. 1.1587 1.2487
103077. 2.13447 1.201(31) 1071. 1.1588 1.2617
103108. 2.13511 1.260(31) 1011. 1.1589 1.2755
103139. 2.13575 1.261(31) 1035. 1.1591 1.2896
103170. 2.13639 1.252(31) 1032. 1.1592 1.3032
103201. 2.13703 1.345(32) 976. 1.1593 1.3151
103232. 2.13768 1.357(32) 975. 1.1595 1.3241
103263. 2.13832 1.389(33) 924. 1.1596 1.3290
103294. 2.13896 1.416(33) 898. 1.1597 1.3294
103325. 2.13960 1.416(33) 924. 1.1599 1.3253
103356. 2.14024 1.456(34) 875. 1.1600 1.3173
103387. 2.14088 1.472(34) 885. 1.1601 1.3065
103418. 2.14153 1.457(34) 876. 1.1603 1.2940
103449. 2.14217 1.426(34) 888. 1.1604 1.2807
103480. 2.14281 1.375(33) 943. 1.1605 1.2674
103511. 2.14345 1.374(33) 945. 1.1607 1.2548
103542. 2.14410 1.255(31) 1036. 1.1608 1.2432
103573. 2.14474 1.291(32) 979. 1.1609 1.2328
103604. 2.14538 1.271(32) 983. 1.1611 1.2238
103635. 2.14603 1.270(32) 1006. 1.1612 1.2162
103666. 2.14667 1.236(31) 1030. 1.1613 1.2099
103697. 2.14732 1.223(31) 1038. 1.1615 1.2047
103729. 2.14796 1.188(31) 1058. 1.1616 1.2006
103760. 2.14860 1.242(31) 1013. 1.1617 1.1975
103791. 2.14925 1.216(31) 1046. 1.1618 1.1951
103822. 2.14989 1.175(31) 1065. 1.1620 1.1933
103853. 2.15054 1.195(31) 1045. 1.1621 1.1921
103884. 2.15118 1.206(31) 1032. 1.1622 1.1912
103915. 2.15183 1.289(32) 976. 1.1623 1.1906
103947. 2.15247 1.214(31) 1050. 1.1625 1.1903
103978. 2.15312 1.200(31) 1052. 1.1626 1.1900
104009. 2.15377 1.206(31) 1016. 1.1627 1.1899
104040. 2.15441 1.218(31) 1021. 1.1628 1.1898
104071. 2.15506 1.194(31) 1041. 1.1630 1.1899
104103. 2.15570 1.209(32) 1005. 1.1631 1.1902
104134. 2.15635 1.125(30) 1142. 1.1632 1.1906
104165. 2.15700 1.238(32) 979. 1.1633 1.1913
104196. 2.15765 1.215(31) 1015. 1.1635 1.1924
104228. 2.15829 1.188(31) 1062. 1.1636 1.1938
104259. 2.15894 1.185(31) 1025. 1.1637 1.1957
104290. 2.15959 1.212(32) 983. 1.1638 1.1983
104321. 2.16024 1.196(31) 1030. 1.1639 1.2015
104353. 2.16088 1.212(32) 996. 1.1641 1.2055
104384. 2.16153 1.220(31) 1011. 1.1642 1.2106
104415. 2.16218 1.247(32) 951. 1.1643 1.2167
104447. 2.16283 1.275(32) 957. 1.1644 1.2242
104478. 2.16348 1.189(31) 1046. 1.1645 1.2331
104509. 2.16413 1.230(32) 971. 1.1646 1.2434
104541. 2.16478 1.236(32) 971. 1.1648 1.2552
104572. 2.16543 1.231(32) 988. 1.1649 1.2683
104603. 2.16608 1.251(32) 979. 1.1650 1.2827
104635. 2.16673 1.276(32) 951. 1.1651 1.2979
104666. 2.16738 1.320(33) 921. 1.1652 1.3136
104698. 2.16803 1.327(33) 905. 1.1653 1.3290
104729. 2.16868 1.289(32) 958. 1.1655 1.3432
104760. 2.16933 1.262(33) 939. 1.1656 1.3552
104792. 2.16998 1.354(33) 895. 1.1657 1.3640
104823. 2.17063 1.307(33) 918. 1.1658 1.3687
104855. 2.17128 1.267(32) 979. 1.1659 1.3688
104886. 2.17193 1.307(32) 956. 1.1660 1.3644
104918. 2.17258 1.325(33) 929. 1.1661 1.3562
104949. 2.17323 1.311(33) 903. 1.1662 1.3449
104981. 2.17389 1.327(33) 899. 1.1663 1.3318
105012. 2.17454 1.355(33) 921. 1.1664 1.3178
105044. 2.17519 1.342(34) 888. 1.1665 1.3040
105075. 2.17584 1.372(34) 878. 1.1667 1.2912
105107. 2.17650 1.371(34) 878. 1.1668 1.2803
105138. 2.17715 1.417(35) 828. 1.1669 1.2722
105170. 2.17780 1.368(34) 887. 1.1670 1.2677
105201. 2.17846 1.326(33) 919. 1.1671 1.2676
105233. 2.17911 1.314(33) 926. 1.1672 1.2723
105264. 2.17976 1.320(34) 887. 1.1673 1.2815
105296. 2.18042 1.361(34) 871. 1.1674 1.2942
105328. 2.18107 1.307(33) 910. 1.1675 1.3079
105359. 2.18173 1.336(34) 873. 1.1676 1.3185
105391. 2.18238 1.234(32) 953. 1.1677 1.3216
105422. 2.18303 1.292(33) 905. 1.1678 1.3155
105454. 2.18369 1.234(32) 953. 1.1679 1.3014
105486. 2.18434 1.266(33) 917. 1.1680 1.2830
105517. 2.18500 1.293(34) 882. 1.1681 1.2637
105549. 2.18566 1.298(33) 897. 1.1682 1.2459
105581. 2.18631 1.293(34) 862. 1.1683 1.2308
105612. 2.18697 1.207(32) 963. 1.1684 1.2211
105644. 2.18762 1.254(33) 925. 1.1685 1.2125
105676. 2.18828 1.233(33) 932. 1.1686 1.2065
105707. 2.18894 1.296(34) 866. 1.1687 1.2027
105739. 2.18959 1.252(33) 895. 1.1688 1.2004
105771. 2.19025 1.198(32) 972. 1.1689 1.1992
105803. 2.19091 1.219(33) 927. 1.1689 1.1988
105834. 2.19156 1.224(33) 931. 1.1690 1.1989
105866. 2.19222 1.211(33) 943. 1.1691 1.1992
105898. 2.19288 1.223(33) 932. 1.1692 1.1993
105930. 2.19354 1.197(33) 934. 1.1693 1.1990
105961. 2.19419 1.152(31) 1011. 1.1694 1.1983
105993. 2.19485 1.244(34) 881. 1.1695 1.1972
106025. 2.19551 1.210(33) 924. 1.1696 1.1961
106057. 2.19617 1.214(33) 945. 1.1697 1.1950
106089. 2.19683 1.265(34) 884. 1.1697 1.1941
106120. 2.19749 1.204(33) 930. 1.1698 1.1936
106152. 2.19815 1.149(32) 991. 1.1699 1.1936
106184. 2.19881 1.221(34) 880. 1.1700 1.1941
106216. 2.19947 1.227(33) 901. 1.1701 1.1952
106248. 2.20013 1.236(33) 908. 1.1702 1.1968
106280. 2.20079 1.201(32) 948. 1.1703 1.1991
106312. 2.20145 1.175(32) 963. 1.1703 1.2020
106343. 2.20211 1.181(32) 962. 1.1704 1.2056
106375. 2.20277 1.177(32) 966. 1.1705 1.2099
106407. 2.20343 1.240(33) 908. 1.1706 1.2148
106439. 2.20409 1.246(33) 901. 1.1707 1.2204
106471. 2.20475 1.261(34) 881. 1.1707 1.2263
106503. 2.20541 1.202(32) 947. 1.1708 1.2324
106535. 2.20607 1.213(33) 937. 1.1709 1.2385
106567. 2.20674 1.251(34) 889. 1.1710 1.2439
106599. 2.20740 1.194(32) 952. 1.1710 1.2484
106631. 2.20806 1.233(34) 883. 1.1711 1.2515
106663. 2.20872 1.212(33) 914. 1.1712 1.2529
106695. 2.20938 1.243(33) 916. 1.1713 1.2525
106727. 2.21005 1.278(34) 879. 1.1713 1.2503
106759. 2.21071 1.240(33) 920. 1.1714 1.2467
106791. 2.21137 1.264(34) 872. 1.1715 1.2419
106823. 2.21204 1.253(34) 876. 1.1716 1.2364
106855. 2.21270 1.217(33) 920. 1.1716 1.2306
106887. 2.21336 1.181(32) 983. 1.1717 1.2247
106919. 2.21403 1.219(33) 922. 1.1718 1.2190
106951. 2.21469 1.239(33) 893. 1.1718 1.2137
106983. 2.21536 1.225(33) 915. 1.1719 1.2089
107015. 2.21602 1.205(33) 909. 1.1720 1.2047
107047. 2.21669 1.227(34) 870. 1.1720 1.2010
107080. 2.21735 1.234(33) 912. 1.1721 1.1979
107112. 2.21802 1.177(33) 937. 1.1722 1.1953
107144. 2.21868 1.160(33) 924. 1.1722 1.1931
107176. 2.21935 1.171(33) 911. 1.1723 1.1914
107208. 2.22001 1.170(32) 960. 1.1723 1.1899
107240. 2.22068 1.162(32) 963. 1.1724 1.1888
107273. 2.22135 1.168(33) 931. 1.1725 1.1879
107305. 2.22201 1.149(32) 964. 1.1725 1.1872
107337. 2.22268 1.193(33) 895. 1.1726 1.1866
107369. 2.22335 1.151(32) 950. 1.1726 1.1862
107401. 2.22401 1.207(34) 888. 1.1727 1.1858
107434. 2.22468 1.170(33) 931. 1.1728 1.1855
107466. 2.22535 1.165(33) 929. 1.1728 1.1853
107498. 2.22602 1.204(34) 878. 1.1729 1.1851
107530. 2.22668 1.149(32) 950. 1.1729 1.1850
107562. 2.22735 1.187(34) 881. 1.1730 1.1849
107595. 2.22802 1.187(33) 924. 1.1730 1.1849
107627. 2.22869 1.181(33) 915. 1.1731 1.1848
107659. 2.22936 1.179(33) 908. 1.1731 1.1848
107692. 2.23003 1.177(33) 922. 1.1732 1.1848
107724. 2.23069 1.160(33) 929. 1.1732 1.1848
107756. 2.23136 1.168(33) 931. 1.1733 1.1849
107789. 2.23203 1.167(33) 919. 1.1733 1.1850
107821. 2.23270 1.199(34) 876. 1.1734 1.1851
107853. 2.23337 1.161(32) 949. 1.1734 1.1852
107886. 2.23404 1.124(32) 960. 1.1735 1.1854
107918. 2.23471 1.202(33) 894. 1.1735 1.1856
107950. 2.23538 1.129(32) 968. 1.1735 1.1858
107983. 2.23605 1.165(33) 936. 1.1736 1.1862
108015. 2.23672 1.205(34) 874. 1.1736 1.1865
108048. 2.23740 1.148(32) 954. 1.1737 1.1870
108080. 2.23807 1.171(33) 907. 1.1737 1.1876
108112. 2.23874 1.209(34) 865. 1.1737 1.1884
108145. 2.23941 1.225(34) 866. 1.1738 1.1894
108177. 2.24008 1.24(4) 802. 1.174 1.191
108210. 2.24075 1.220(34) 868. 1.1739 1.1922
108242. 2.24143 1.239(34) 842. 1.1739 1.1941
108275. 2.24210 1.186(33) 902. 1.1739 1.1964
108307. 2.24277 1.103(31) 1020. 1.1740 1.1992
108340. 2.24344 1.110(32) 980. 1.1740 1.2024
108372. 2.24412 1.23(4) 810. 1.174 1.206
108405. 2.24479 1.217(35) 827. 1.1741 1.2083
108437. 2.24546 1.171(34) 869. 1.1741 1.2129
108470. 2.24614 1.142(33) 919. 1.1741 1.2177
108502. 2.24681 1.148(33) 924. 1.1741 1.2227
108535. 2.24748 1.199(35) 838. 1.1742 1.2274
108567. 2.24816 1.209(34) 847. 1.1742 1.2317
108600. 2.24883 1.169(34) 889. 1.1742 1.2350
108632. 2.24951 1.193(34) 869. 1.1742 1.2371
108665. 2.25018 1.24(4) 791. 1.174 1.238
108698. 2.25086 1.202(34) 843. 1.1743 1.2368
108730. 2.25153 1.173(34) 857. 1.1743 1.2346
108763. 2.25221 1.209(35) 822. 1.1743 1.2311
108796. 2.25288 1.166(34) 867. 1.1743 1.2269
108828. 2.25356 1.168(34) 877. 1.1744 1.2222
108861. 2.25424 1.216(35) 822. 1.1744 1.2174
108893. 2.25491 1.23(4) 797. 1.174 1.213
108926. 2.25559 1.31(4) 731. 1.174 1.208
108959. 2.25627 1.25(4) 787. 1.174 1.204
108992. 2.25694 1.132(33) 918. 1.1744 1.2009
109024. 2.25762 1.133(33) 919. 1.1745 1.1979
109057. 2.25830 1.105(32) 952. 1.1745 1.1953
109090. 2.25897 1.200(35) 835. 1.1745 1.1932
109122. 2.25965 1.197(35) 831. 1.1745 1.1915
109155. 2.26033 1.161(34) 859. 1.1745 1.1901
109188. 2.26101 1.131(33) 908. 1.1745 1.1891
109221. 2.26169 1.185(34) 862. 1.1745 1.1883
109253. 2.26237 1.182(34) 852. 1.1745 1.1877
109286. 2.26304 1.170(34) 868. 1.1745 1.1873
109319. 2.26372 1.24(4) 789. 1.175 1.187
109352. 2.26440 1.169(34) 848. 1.1745 1.1869
109385. 2.26508 1.123(33) 916. 1.1745 1.1869
109417. 2.26576 1.152(33) 905. 1.1745 1.1869
109450. 2.26644 1.153(34) 880. 1.1745 1.1871
109483. 2.26712 1.190(35) 821. 1.1745 1.1873
109516. 2.26780 1.195(34) 848. 1.1745 1.1876
109549. 2.26848 1.127(33) 913. 1.1745 1.1879
109582. 2.26916 1.134(33) 905. 1.1745 1.1882
109614. 2.26984 1.114(33) 919. 1.1745 1.1885
109647. 2.27052 1.153(34) 874. 1.1745 1.1886
109680. 2.27120 1.105(33) 942. 1.1745 1.1886
109713. 2.27189 1.188(34) 850. 1.1745 1.1885
109746. 2.27257 1.177(34) 862. 1.1745 1.1882
109779. 2.27325 1.168(34) 871. 1.1745 1.1878
109812. 2.27393 1.095(32) 963. 1.1745 1.1874
109845. 2.27461 1.135(34) 867. 1.1744 1.1870
109878. 2.27530 1.134(33) 893. 1.1744 1.1867
109911. 2.27598 1.150(33) 892. 1.1744 1.1865
109944. 2.27666 1.212(35) 816. 1.1744 1.1863
109977. 2.27734 1.155(34) 857. 1.1744 1.1861
110010. 2.27803 1.174(35) 832. 1.1744 1.1860
110043. 2.27871 1.165(35) 832. 1.1743 1.1860
110076. 2.27939 1.154(34) 860. 1.1743 1.1860
110109. 2.28008 1.098(33) 909. 1.1743 1.1860
110142. 2.28076 1.118(33) 905. 1.1743 1.1860
110175. 2.28145 1.139(34) 878. 1.1743 1.1861
110208. 2.28213 1.136(34) 874. 1.1742 1.1861
110241. 2.28282 1.186(35) 834. 1.1742 1.1862
110274. 2.28350 1.170(34) 851. 1.1742 1.1863
110307. 2.28418 1.098(33) 909. 1.1741 1.1864
110340. 2.28487 1.116(34) 871. 1.1741 1.1865
110373. 2.28556 1.147(34) 880. 1.1741 1.1866
110406. 2.28624 1.124(34) 874. 1.1741 1.1868
110440. 2.28693 1.132(34) 883. 1.1740 1.1869
110473. 2.28761 1.151(34) 846. 1.1740 1.1871
110506. 2.28830 1.18(4) 808. 1.174 1.187
110539. 2.28899 1.135(34) 867. 1.1739 1.1874
110572. 2.28967 1.098(33) 945. 1.1739 1.1875
110605. 2.29036 1.118(34) 878. 1.1738 1.1877
110638. 2.29105 1.123(34) 879. 1.1738 1.1879
110672. 2.29173 1.139(34) 856. 1.1738 1.1881
110705. 2.29242 1.118(34) 889. 1.1737 1.1883
110738. 2.29311 1.092(33) 920. 1.1737 1.1886
110771. 2.29380 1.140(35) 839. 1.1736 1.1884
110805. 2.29449 1.097(33) 891. 1.1736 1.1886
110838. 2.29517 1.152(34) 853. 1.1735 1.1889
110871. 2.29586 1.135(34) 841. 1.1735 1.1892
110904. 2.29655 1.101(33) 924. 1.1734 1.1895
110938. 2.29724 1.103(33) 898. 1.1734 1.1898
110971. 2.29793 1.158(35) 825. 1.1733 1.1902
111004. 2.29862 1.166(35) 821. 1.1733 1.1906
111037. 2.29931 1.17(4) 795. 1.173 1.191
111071. 2.30000 1.15(4) 812. 1.173 1.192
111104. 2.30069 1.161(35) 829. 1.1731 1.1925
111137. 2.30138 1.20(4) 797. 1.173 1.193
111171. 2.30207 1.18(4) 795. 1.173 1.195
111204. 2.30276 1.165(35) 816. 1.1729 1.1961
111237. 2.30345 1.25(4) 709. 1.173 1.198
111271. 2.30414 1.18(4) 800. 1.173 1.200
111304. 2.30483 1.166(35) 814. 1.1727 1.2025
111338. 2.30552 1.19(4) 775. 1.173 1.205
111371. 2.30622 1.23(4) 771. 1.173 1.208
111404. 2.30691 1.20(4) 777. 1.173 1.210
111438. 2.30760 1.149(35) 817. 1.1725 1.2111
111471. 2.30829 1.18(4) 775. 1.172 1.212
111505. 2.30898 1.25(4) 728. 1.172 1.211
111538. 2.30968 1.25(4) 735. 1.172 1.210
111572. 2.31037 1.20(4) 806. 1.172 1.209
111605. 2.31106 1.23(4) 742. 1.172 1.208
111639. 2.31176 1.22(4) 720. 1.172 1.206
111672. 2.31245 1.22(4) 731. 1.172 1.205
111706. 2.31314 1.24(4) 722. 1.172 1.205
111739. 2.31384 1.22(4) 751. 1.172 1.204
111773. 2.31453 1.18(4) 783. 1.172 1.204
111806. 2.31523 1.15(4) 812. 1.172 1.205
111840. 2.31592 1.143(35) 816. 1.1715 1.2050
111873. 2.31662 1.21(4) 768. 1.171 1.206
111907. 2.31731 1.15(4) 779. 1.171 1.207
111940. 2.31801 1.22(4) 738. 1.171 1.208
111974. 2.31870 1.28(4) 692. 1.171 1.209
112007. 2.31940 1.28(4) 689. 1.171 1.210
112041. 2.32009 1.18(4) 781. 1.171 1.211
112075. 2.32079 1.15(4) 793. 1.171 1.213
112108. 2.32148 1.23(4) 733. 1.171 1.214
112142. 2.32218 1.18(4) 796. 1.171 1.215
112176. 2.32288 1.24(4) 713. 1.171 1.217
112209. 2.32357 1.24(4) 712. 1.171 1.218
112243. 2.32427 1.24(4) 717. 1.170 1.219
112277. 2.32497 1.28(4) 689. 1.170 1.220
112310. 2.32567 1.14(4) 797. 1.170 1.222
112344. 2.32636 1.21(4) 776. 1.170 1.223
112378. 2.32706 1.28(4) 694. 1.170 1.225
112411. 2.32776 1.24(4) 738. 1.170 1.226
112445. 2.32846 1.22(4) 738. 1.170 1.228
112479. 2.32916 1.16(4) 779. 1.170 1.230
112513. 2.32986 1.134(35) 819. 1.1695 1.2313
112546. 2.33055 1.154(35) 826. 1.1694 1.2329
112580. 2.33125 1.16(4) 798. 1.169 1.235
112614. 2.33195 1.18(4) 786. 1.169 1.236
112648. 2.33265 1.19(4) 777. 1.169 1.239
112681. 2.33335 1.157(35) 826. 1.1689 1.2410
112715. 2.33405 1.20(4) 799. 1.169 1.244
112749. 2.33475 1.23(4) 757. 1.169 1.247
112783. 2.33545 1.25(4) 735. 1.169 1.251
112817. 2.33615 1.22(4) 737. 1.168 1.255
112851. 2.33685 1.20(4) 782. 1.168 1.259
112884. 2.33756 1.22(4) 754. 1.168 1.264
112918. 2.33826 1.23(4) 775. 1.168 1.270
112952. 2.33896 1.20(4) 775. 1.168 1.276
112986. 2.33966 1.20(4) 779. 1.168 1.284
113020. 2.34036 1.29(4) 714. 1.168 1.292
113054. 2.34106 1.21(4) 757. 1.168 1.301
113088. 2.34177 1.23(4) 749. 1.167 1.310
113122. 2.34247 1.26(4) 718. 1.167 1.321
113156. 2.34317 1.29(4) 725. 1.167 1.333
113190. 2.34387 1.31(4) 732. 1.167 1.346
113224. 2.34458 1.27(4) 756. 1.167 1.361
113258. 2.34528 1.34(4) 710. 1.167 1.376
113292. 2.34598 1.32(4) 721. 1.167 1.393
113325. 2.34669 1.38(4) 676. 1.166 1.410
113359. 2.34739 1.42(4) 652. 1.166 1.429
113394. 2.34810 1.50(4) 626. 1.166 1.450
113428. 2.34880 1.52(4) 618. 1.166 1.474
113462. 2.34951 1.56(4) 592. 1.166 1.500
113496. 2.35021 1.57(4) 607. 1.166 1.532
113530. 2.35092 1.72(4) 545. 1.165 1.570
113564. 2.35162 1.86(4) 497. 1.165 1.619
113598. 2.35233 1.91(5) 483. 1.165 1.680
113632. 2.35303 2.03(5) 466. 1.165 1.757
113666. 2.35374 2.10(5) 457. 1.165 1.854
113700. 2.35444 2.33(5) 412. 1.165 1.976
113734. 2.35515 2.44(5) 380. 1.164 2.127
113768. 2.35586 2.65(5) 352. 1.164 2.309
113802. 2.35656 2.95(6) 311.4 1.164 2.525
113837. 2.35727 3.21(6) 289.2 1.164 2.778
113871. 2.35798 3.38(6) 272.3 1.164 3.066
113905. 2.35869 3.64(6) 252.0 1.164 3.387
113939. 2.35939 4.00(7) 230.5 1.163 3.734
113973. 2.36010 4.19(7) 221.8 1.163 4.098
114007. 2.36081 4.53(7) 198.7 1.163 4.464
114042. 2.36152 4.75(7) 190.6 1.163 4.812
114076. 2.36223 5.04(8) 175.0 1.163 5.117
114110. 2.36293 5.27(8) 166.1 1.162 5.352
114144. 2.36364 5.56(8) 158.3 1.162 5.492
114179. 2.36435 5.76(8) 149.4 1.162 5.523
114213. 2.36506 5.71(8) 149.9 1.162 5.444
114247. 2.36577 5.48(8) 159.0 1.162 5.264
114281. 2.36648 5.18(8) 168.0 1.162 5.002
114316. 2.36719 4.86(7) 183.1 1.161 4.680
114350. 2.36790 4.46(7) 198.7 1.161 4.321
114384. 2.36861 3.99(7) 220.1 1.161 3.948
114418. 2.36932 3.54(6) 258.1 1.161 3.578
114453. 2.37003 3.23(6) 278.5 1.161 3.229
114487. 2.37074 2.91(6) 308.1 1.160 2.910
114521. 2.37145 2.58(5) 354. 1.160 2.628
114556. 2.37217 2.31(5) 401. 1.160 2.384
114590. 2.37288 2.12(5) 425. 1.160 2.178
114625. 2.37359 2.00(5) 443. 1.159 2.007
114659. 2.37430 1.86(5) 472. 1.159 1.868
114693. 2.37501 1.75(4) 512. 1.159 1.756
114728. 2.37573 1.65(4) 551. 1.159 1.666
114762. 2.37644 1.61(4) 545. 1.159 1.595
114797. 2.37715 1.54(4) 556. 1.158 1.538
114831. 2.37787 1.49(4) 604. 1.158 1.493
114866. 2.37858 1.40(4) 649. 1.158 1.457
114900. 2.37929 1.41(4) 634. 1.158 1.428
114934. 2.38001 1.38(4) 642. 1.157 1.404
114969. 2.38072 1.35(4) 665. 1.157 1.383
115003. 2.38143 1.35(4) 660. 1.157 1.367
115038. 2.38215 1.38(4) 622. 1.157 1.352
115072. 2.38286 1.31(4) 671. 1.157 1.340
115107. 2.38358 1.27(4) 702. 1.156 1.330
115141. 2.38429 1.29(4) 683. 1.156 1.321
115176. 2.38501 1.21(4) 756. 1.156 1.313
115211. 2.38572 1.26(4) 701. 1.156 1.306
115245. 2.38644 1.20(4) 755. 1.155 1.301
115280. 2.38716 1.26(4) 703. 1.155 1.296
115314. 2.38787 1.29(4) 712. 1.155 1.292
115349. 2.38859 1.34(4) 648. 1.155 1.288
115384. 2.38930 1.29(4) 661. 1.154 1.286
115418. 2.39002 1.23(4) 721. 1.154 1.285
115453. 2.39074 1.19(4) 750. 1.154 1.284
115487. 2.39146 1.22(4) 721. 1.154 1.285
115522. 2.39217 1.28(4) 707. 1.153 1.286
115557. 2.39289 1.28(4) 699. 1.153 1.288
115591. 2.39361 1.22(4) 731. 1.153 1.290
115626. 2.39433 1.29(4) 688. 1.152 1.292
115661. 2.39505 1.26(4) 713. 1.152 1.293
115695. 2.39576 1.27(4) 701. 1.152 1.292
115730. 2.39648 1.30(4) 690. 1.152 1.288
115765. 2.39720 1.32(4) 680. 1.151 1.282
115800. 2.39792 1.25(4) 726. 1.151 1.275
115834. 2.39864 1.28(4) 688. 1.151 1.266
115869. 2.39936 1.20(4) 775. 1.151 1.257
115904. 2.40008 1.23(4) 724. 1.150 1.247
115939. 2.40080 1.26(4) 705. 1.150 1.238
115973. 2.40152 1.23(4) 739. 1.150 1.230
116008. 2.40224 1.17(4) 784. 1.149 1.222
116043. 2.40296 1.21(4) 724. 1.149 1.215
116078. 2.40368 1.21(4) 707. 1.149 1.209
116113. 2.40440 1.19(4) 723. 1.149 1.204
116147. 2.40512 1.18(4) 729. 1.148 1.199
116182. 2.40585 1.16(4) 742. 1.148 1.196
116217. 2.40657 1.15(4) 773. 1.148 1.192
116252. 2.40729 1.16(4) 752. 1.147 1.190
116287. 2.40801 1.14(4) 767. 1.147 1.187
116322. 2.40873 1.20(4) 714. 1.147 1.185
116357. 2.40946 1.20(4) 728. 1.146 1.183
116392. 2.41018 1.19(4) 697. 1.146 1.181
116426. 2.41090 1.17(4) 709. 1.146 1.180
116461. 2.41163 1.15(4) 725. 1.145 1.178
116496. 2.41235 1.095(35) 837. 1.1452 1.1767
116531. 2.41307 1.12(4) 791. 1.145 1.175
116566. 2.41380 1.15(4) 749. 1.145 1.174
116601. 2.41452 1.15(4) 755. 1.144 1.173
116636. 2.41525 1.21(4) 714. 1.144 1.172
116671. 2.41597 1.13(4) 760. 1.144 1.170
116706. 2.41669 1.11(4) 792. 1.143 1.169
116741. 2.41742 1.10(4) 805. 1.143 1.168
116776. 2.41814 1.13(4) 763. 1.143 1.167
116811. 2.41887 1.18(4) 730. 1.142 1.166
116846. 2.41960 1.17(4) 732. 1.142 1.165
116881. 2.42032 1.21(4) 688. 1.142 1.164
116916. 2.42105 1.17(4) 709. 1.141 1.163
116952. 2.42177 1.15(4) 752. 1.141 1.162
116987. 2.42250 1.15(4) 742. 1.140 1.162
117022. 2.42323 1.19(4) 724. 1.140 1.161
117057. 2.42395 1.16(4) 737. 1.140 1.160
117092. 2.42468 1.15(4) 766. 1.139 1.159
117127. 2.42541 1.21(4) 674. 1.139 1.158
117162. 2.42614 1.15(4) 750. 1.139 1.158
117197. 2.42686 1.11(4) 768. 1.138 1.157
117232. 2.42759 1.25(4) 656. 1.138 1.156
117268. 2.42832 1.21(4) 706. 1.138 1.156
117303. 2.42905 1.16(4) 746. 1.137 1.155
117338. 2.42978 1.17(4) 718. 1.137 1.154
117373. 2.43051 1.12(4) 773. 1.136 1.154
117408. 2.43124 1.14(4) 731. 1.136 1.153
117444. 2.43197 1.17(4) 682. 1.136 1.153
117479. 2.43269 1.19(4) 676. 1.135 1.152
117514. 2.43342 1.12(4) 722. 1.135 1.151
117549. 2.43415 1.16(4) 714. 1.135 1.150
117585. 2.43489 1.17(4) 706. 1.134 1.150
117620. 2.43562 1.22(4) 663. 1.134 1.149
117655. 2.43635 1.20(4) 698. 1.133 1.148
117691. 2.43708 1.15(4) 723. 1.133 1.147
117726. 2.43781 1.19(4) 691. 1.133 1.147
117761. 2.43854 1.16(4) 707. 1.132 1.146
117796. 2.43927 1.14(4) 729. 1.132 1.146
117832. 2.44000 1.14(4) 712. 1.131 1.145
117867. 2.44073 1.18(4) 660. 1.131 1.144
117903. 2.44147 1.10(4) 735. 1.131 1.144
117938. 2.44220 1.12(4) 724. 1.130 1.143
117973. 2.44293 1.19(4) 653. 1.130 1.143
118009. 2.44367 1.17(4) 674. 1.129 1.142
118044. 2.44440 1.23(4) 635. 1.129 1.142
118079. 2.44513 1.19(4) 640. 1.129 1.141
118115. 2.44587 1.25(4) 627. 1.128 1.141
118150. 2.44660 1.14(4) 704. 1.128 1.140
118186. 2.44733 1.15(4) 678. 1.127 1.140
118221. 2.44807 1.17(4) 683. 1.127 1.139
118257. 2.44880 1.16(4) 681. 1.126 1.139
118292. 2.44954 1.20(4) 653. 1.126 1.138
118328. 2.45027 1.17(4) 689. 1.126 1.138
118363. 2.45101 1.19(4) 653. 1.125 1.137
118399. 2.45174 1.25(4) 620. 1.125 1.137
118434. 2.45248 1.09(4) 727. 1.124 1.136
118470. 2.45321 1.16(4) 676. 1.124 1.136
118505. 2.45395 1.18(4) 666. 1.123 1.136
118541. 2.45468 1.15(4) 694. 1.123 1.135
118576. 2.45542 1.18(4) 644. 1.122 1.135
118612. 2.45616 1.11(4) 712. 1.122 1.135
118648. 2.45689 1.13(4) 711. 1.121 1.134
118683. 2.45763 1.18(4) 659. 1.121 1.134
118719. 2.45837 1.20(4) 660. 1.121 1.134
118754. 2.45911 1.17(4) 683. 1.120 1.134
118790. 2.45984 1.15(4) 665. 1.120 1.134
118826. 2.46058 1.21(4) 626. 1.119 1.134
118861. 2.46132 1.17(4) 655. 1.119 1.134
118897. 2.46206 1.17(4) 664. 1.118 1.134
118933. 2.46280 1.13(4) 684. 1.118 1.134
118968. 2.46354 1.17(4) 675. 1.117 1.135
119004. 2.46427 1.20(4) 626. 1.117 1.135
119040. 2.46501 1.18(4) 647. 1.116 1.136
119075. 2.46575 1.15(4) 664. 1.116 1.138
119111. 2.46649 1.16(4) 699. 1.115 1.140
119147. 2.46723 1.20(4) 644. 1.115 1.143
119183. 2.46797 1.19(4) 667. 1.114 1.147
119218. 2.46871 1.11(4) 702. 1.114 1.152
119254. 2.46945 1.13(4) 679. 1.113 1.160
119290. 2.47020 1.18(4) 628. 1.113 1.171
119326. 2.47094 1.11(4) 717. 1.112 1.184
119361. 2.47168 1.24(4) 595. 1.112 1.199
119397. 2.47242 1.17(4) 628. 1.111 1.217
119433. 2.47316 1.09(4) 723. 1.111 1.236
119469. 2.47390 1.15(4) 688. 1.110 1.252
119505. 2.47464 1.12(4) 709. 1.110 1.264
119541. 2.47539 1.13(4) 717. 1.109 1.268
119576. 2.47613 1.16(4) 692. 1.109 1.266
119612. 2.47687 1.18(4) 680. 1.108 1.259
119648. 2.47762 1.29(4) 515. 1.108 1.250
119684. 2.47836 1.23(4) 554. 1.107 1.239
119720. 2.47910 1.24(4) 522. 1.106 1.228
119756. 2.47985 1.24(4) 523. 1.106 1.217
119792. 2.48059 1.21(4) 531. 1.105 1.208
119828. 2.48133 1.19(4) 555. 1.105 1.198
119864. 2.48208 1.22(4) 517. 1.104 1.190
119900. 2.48282 1.26(4) 495. 1.104 1.182
119936. 2.48357 1.28(4) 495. 1.103 1.175
119972. 2.48431 1.19(4) 554. 1.103 1.168
120008. 2.48506 1.23(4) 535. 1.102 1.162
120044. 2.48580 1.18(4) 540. 1.101 1.157
120080. 2.48655 1.21(4) 548. 1.101 1.153
120116. 2.48730 1.23(4) 516. 1.100 1.150
120152. 2.48804 1.23(4) 531. 1.100 1.148
120188. 2.48879 1.17(4) 563. 1.099 1.146
120224. 2.48954 1.16(4) 540. 1.099 1.146
120260. 2.49028 1.20(4) 519. 1.098 1.146
120296. 2.49103 1.23(4) 512. 1.097 1.147
120332. 2.49178 1.16(4) 546. 1.097 1.149
120368. 2.49252 1.24(4) 510. 1.096 1.154
120404. 2.49327 1.21(4) 511. 1.096 1.161
120440. 2.49402 1.18(4) 532. 1.095 1.173
120477. 2.49477 1.19(4) 528. 1.094 1.187
120513. 2.49552 1.19(4) 533. 1.094 1.203
120549. 2.49626 1.18(4) 538. 1.093 1.215
120585. 2.49701 1.16(4) 543. 1.093 1.219
120621. 2.49776 1.24(4) 509. 1.092 1.214
120657. 2.49851 1.19(4) 527. 1.091 1.203
120694. 2.49926 1.15(4) 562. 1.091 1.188
120730. 2.50001 1.13(4) 539. 1.090 1.175
120766. 2.50076 1.19(4) 513. 1.090 1.164
120802. 2.50151 1.12(4) 584. 1.089 1.157
120838. 2.50226 1.15(4) 525. 1.088 1.152
120875. 2.50301 1.16(4) 494. 1.088 1.151
120911. 2.50376 1.24(5) 471. 1.087 1.150
120947. 2.50451 1.25(5) 472. 1.086 1.150
120984. 2.50527 1.18(4) 504. 1.086 1.149
121020. 2.50602 1.20(5) 492. 1.085 1.146
121056. 2.50677 1.23(5) 487. 1.084 1.141
121092. 2.50752 1.22(4) 497. 1.084 1.134
121129. 2.50827 1.09(4) 567. 1.083 1.127
121165. 2.50903 1.19(4) 511. 1.082 1.120
121201. 2.50978 1.20(4) 498. 1.082 1.113
121238. 2.51053 1.19(4) 503. 1.081 1.107
121274. 2.51128 1.16(4) 516. 1.080 1.102
121311. 2.51204 1.14(4) 523. 1.080 1.098
121347. 2.51279 1.16(5) 486. 1.079 1.095
121383. 2.51355 1.12(4) 539. 1.078 1.092
121420. 2.51430 1.15(4) 534. 1.078 1.090
121456. 2.51505 1.08(4) 548. 1.077 1.088
121493. 2.51581 1.13(4) 541. 1.076 1.087
121529. 2.51656 1.12(4) 537. 1.076 1.085
121566. 2.51732 1.14(4) 545. 1.075 1.084
121602. 2.51807 1.15(4) 539. 1.074 1.083
121638. 2.51883 1.13(4) 581. 1.074 1.082
121675. 2.51958 1.15(4) 564. 1.073 1.081
121711. 2.52034 1.09(4) 598. 1.072 1.080
121748. 2.52110 1.11(4) 577. 1.071 1.079
121785. 2.52185 1.03(4) 641. 1.071 1.078
121821. 2.52261 1.13(4) 551. 1.070 1.077
121858. 2.52337 1.08(4) 583. 1.069 1.076
121894. 2.52412 1.14(4) 532. 1.069 1.075
121931. 2.52488 1.15(4) 533. 1.068 1.074
121967. 2.52564 1.09(4) 555. 1.067 1.073
122004. 2.52640 1.08(4) 569. 1.066 1.072
122041. 2.52715 1.06(4) 590. 1.066 1.072
122077. 2.52791 1.05(4) 579. 1.065 1.071
122114. 2.52867 1.08(4) 587. 1.064 1.070
122150. 2.52943 1.10(4) 514. 1.063 1.069
122187. 2.53019 1.11(4) 527. 1.063 1.068
122224. 2.53095 1.03(4) 596. 1.062 1.067
122260. 2.53171 1.06(4) 561. 1.061 1.067
122297. 2.53247 1.07(4) 527. 1.060 1.066
122334. 2.53322 1.02(4) 590. 1.060 1.065
122370. 2.53398 1.01(4) 597. 1.059 1.064
122407. 2.53474 1.09(4) 540. 1.058 1.063
122444. 2.53551 1.10(4) 509. 1.057 1.062
122481. 2.53627 1.05(4) 530. 1.057 1.062
122517. 2.53703 1.05(4) 554. 1.056 1.061
122554. 2.53779 1.10(4) 502. 1.055 1.060
122591. 2.53855 1.04(4) 531. 1.054 1.059
122628. 2.53931 1.06(4) 540. 1.053 1.057
122664. 2.54007 1.04(4) 536. 1.053 1.056
122701. 2.54083 0.99(4) 601. 1.052 1.055
122738. 2.54160 1.08(4) 507. 1.051 1.054
122775. 2.54236 1.01(4) 539. 1.050 1.054
122812. 2.54312 1.05(4) 519. 1.049 1.054
122849. 2.54388 1.05(4) 526. 1.049 1.053
122885. 2.54465 1.05(4) 513. 1.048 1.053
122922. 2.54541 1.04(4) 520. 1.047 1.053
122959. 2.54618 1.05(4) 513. 1.046 1.053
122996. 2.54694 1.03(4) 537. 1.045 1.052
123033. 2.54770 1.04(4) 517. 1.045 1.051
123070. 2.54847 1.00(4) 535. 1.044 1.049
123107. 2.54923 1.04(4) 500. 1.043 1.048
123144. 2.55000 1.15(5) 440. 1.042 1.047
123181. 2.55076 1.01(4) 528. 1.041 1.046
123218. 2.55153 1.11(5) 451. 1.040 1.045
123255. 2.55229 1.07(5) 470. 1.039 1.044
123292. 2.55306 0.99(4) 540. 1.039 1.043
123328. 2.55382 1.03(4) 510. 1.038 1.042
123365. 2.55459 0.95(4) 533. 1.037 1.041
123402. 2.55536 1.06(5) 474. 1.036 1.041
123440. 2.55612 1.03(4) 498. 1.035 1.040
123477. 2.55689 1.02(4) 515. 1.034 1.039
123514. 2.55766 1.04(5) 488. 1.033 1.039
123551. 2.55842 1.02(5) 474. 1.032 1.038
123588. 2.55919 1.07(5) 442. 1.032 1.038
123625. 2.55996 1.06(5) 462. 1.031 1.037
123662. 2.56073 1.02(5) 483. 1.030 1.037
123699. 2.56150 0.97(5) 487. 1.029 1.036
123736. 2.56226 0.97(4) 509. 1.028 1.036
123773. 2.56303 1.11(5) 406. 1.027 1.036
123810. 2.56380 1.08(5) 406. 1.026 1.036
123847. 2.56457 1.08(5) 421. 1.025 1.036
123885. 2.56534 1.08(5) 399. 1.024 1.036
123922. 2.56611 0.97(5) 480. 1.023 1.036
123959. 2.56688 1.02(5) 447. 1.023 1.037
123996. 2.56765 1.02(5) 423. 1.022 1.038
124033. 2.56842 1.10(5) 403. 1.021 1.039
124071. 2.56919 1.11(5) 395. 1.020 1.041
124108. 2.56996 1.01(5) 445. 1.019 1.044
124145. 2.57073 1.03(5) 441. 1.018 1.049
124182. 2.57150 1.00(5) 441. 1.017 1.057
124220. 2.57227 1.09(5) 405. 1.016 1.070
124257. 2.57305 1.11(5) 377. 1.015 1.092
124294. 2.57382 1.11(5) 404. 1.014 1.127
124331. 2.57459 1.15(5) 376. 1.013 1.180
124369. 2.57536 1.19(5) 385. 1.012 1.250
124406. 2.57614 1.34(6) 305.0 1.011 1.332
124443. 2.57691 1.26(5) 351. 1.010 1.407
124481. 2.57768 1.34(6) 321.4 1.009 1.448
124518. 2.57845 1.31(6) 322.7 1.008 1.436
124555. 2.57923 1.30(5) 333.6 1.007 1.380
124593. 2.58000 1.26(5) 336.1 1.006 1.304
124630. 2.58078 1.17(5) 343.2 1.005 1.229
124667. 2.58155 1.17(5) 356. 1.004 1.167
124705. 2.58232 1.15(5) 357. 1.003 1.121
124742. 2.58310 1.12(5) 366. 1.002 1.090
124780. 2.58387 1.18(5) 346.5 1.001 1.071
124817. 2.58465 1.10(5) 381. 1.000 1.059
124855. 2.58542 1.18(6) 321.7 0.999 1.053
124892. 2.58620 1.28(6) 291.2 0.998 1.050
124929. 2.58698 1.22(6) 316.5 0.997 1.049
124967. 2.58775 1.21(5) 336.8 0.996 1.048
125004. 2.58853 1.11(5) 377. 0.995 1.046
125042. 2.58931 1.13(5) 348.3 0.994 1.042
125079. 2.59008 1.14(5) 362. 0.993 1.038
125117. 2.59086 1.10(5) 356. 0.992 1.032
125155. 2.59164 1.12(5) 348.5 0.991 1.027
125192. 2.59241 1.04(5) 384. 0.990 1.021
125230. 2.59319 1.00(5) 384. 0.989 1.016
125267. 2.59397 1.03(5) 365. 0.988 1.012
125305. 2.59475 1.02(5) 359. 0.987 1.008
125342. 2.59553 0.96(5) 413. 0.986 1.004
125380. 2.59630 0.97(5) 378. 0.984 1.001
125418. 2.59708 0.99(5) 369. 0.983 0.998
125455. 2.59786 0.94(5) 412. 0.982 0.995
125493. 2.59864 0.99(5) 355. 0.981 0.993
125530. 2.59942 1.07(6) 326.9 0.980 0.991
125568. 2.60020 0.96(5) 375. 0.979 0.989
125606. 2.60098 1.05(5) 334.2 0.978 0.987
125644. 2.60176 0.96(5) 369. 0.977 0.985
125681. 2.60254 0.92(5) 389. 0.976 0.983
125719. 2.60332 0.92(5) 379. 0.975 0.982
125757. 2.60410 1.00(5) 337.7 0.973 0.980
125794. 2.60489 0.90(5) 381. 0.972 0.979
125832. 2.60567 0.99(5) 357. 0.971 0.978
125870. 2.60645 0.88(5) 382. 0.970 0.977
125908. 2.60723 0.94(5) 354. 0.969 0.975
125945. 2.60801 1.00(6) 317.1 0.968 0.974
125983. 2.60879 0.96(6) 324.9 0.967 0.973
126021. 2.60958 0.94(5) 349.6 0.965 0.972
126059. 2.61036 0.93(5) 346.7 0.964 0.971
126097. 2.61114 0.88(5) 361. 0.963 0.970
126134. 2.61193 0.99(6) 315.7 0.962 0.969
126172. 2.61271 0.97(6) 319.6 0.961 0.968
126210. 2.61349 0.97(6) 318.4 0.960 0.968
126248. 2.61428 0.99(6) 311.8 0.958 0.967
126286. 2.61506 0.96(6) 303.1 0.957 0.966
126324. 2.61585 0.98(6) 312.6 0.956 0.966
126362. 2.61663 0.97(6) 322.1 0.955 0.965
126400. 2.61742 0.97(5) 332.5 0.954 0.965
126437. 2.61820 0.97(6) 304.0 0.952 0.965
126475. 2.61899 1.01(6) 292.3 0.951 0.966
126513. 2.61977 0.91(6) 300.1 0.950 0.967
126551. 2.62056 0.95(6) 281.4 0.949 0.969
126589. 2.62134 0.94(6) 295.5 0.948 0.972
126627. 2.62213 0.91(6) 323.9 0.946 0.978
126665. 2.62292 0.98(6) 277.4 0.945 0.987
126703. 2.62370 0.94(6) 280.7 0.944 1.000
126741. 2.62449 0.90(6) 299.8 0.943 1.018
126779. 2.62528 0.98(6) 255.9 0.941 1.041
126817. 2.62607 0.94(6) 290.5 0.940 1.069
126855. 2.62685 1.15(7) 219.2 0.939 1.099
126893. 2.62764 1.01(6) 238.1 0.938 1.127
126931. 2.62843 1.02(7) 231.6 0.936 1.146
126970. 2.62922 0.95(6) 250.5 0.935 1.151
127008. 2.63001 0.98(7) 214.4 0.934 1.140
127046. 2.63080 0.99(6) 239.9 0.933 1.117
127084. 2.63159 1.07(7) 211.2 0.931 1.087
127122. 2.63238 1.13(7) 190.9 0.930 1.056
127160. 2.63317 1.11(7) 207.0 0.929 1.027
127198. 2.63396 0.96(7) 225.4 0.927 1.002
127236. 2.63475 1.06(7) 198.1 0.926 0.982
127275. 2.63554 0.90(6) 244.9 0.925 0.967
127313. 2.63633 1.08(7) 204.7 0.923 0.955
127351. 2.63712 0.93(7) 218.2 0.922 0.947
127389. 2.63791 1.05(8) 175.7 0.921 0.941
127427. 2.63870 1.02(7) 195.8 0.919 0.936
127466. 2.63949 1.01(7) 194.2 0.918 0.932
127504. 2.64028 0.98(7) 214.4 0.917 0.929
127542. 2.64108 0.96(7) 199.6 0.915 0.927
127580. 2.64187 0.91(7) 226.6 0.914 0.924
127619. 2.64266 1.30(10) 101.8 0.913 0.922
127647. . -0.000148(16) . . .
loop_
_refln_index_h
_refln_index_k
_refln_index_l
_refln_observed_status
_refln_F_squared_meas
_refln_F_squared_calc
_refln_phase_calc
_refln_d_spacing
_gsas_i100_meas
7 0 6 o 53.678 69.562 180.00 2.62887 2.54
0 0 8 o 15.796 5.944 180.00 2.58834 0.36
1 0 8 o 107.533 113.994 180.00 2.57766 4.78
2 0 8 o 0.000 0.905 180.00 2.54639 0.00
3 0 8 o 29.349 25.778 180.00 2.49672 1.18
5 1 5 o 12.619 6.851 0.00 2.58859 1.14
11 0 2 o 34.302 16.131 0.00 2.50540 1.39
10 0 4 o 6.393 3.631 0.00 2.49015 0.25
8 0 6 o 30.341 37.214 180.00 2.47468 1.19
4 0 8 o 0.574 0.340 0.00 2.43182 0.02
8 1 3 o 12.681 8.468 180.00 2.49796 1.02
6 1 5 o 6.028 4.994 180.00 2.47787 0.47
9 1 1 o 26.175 19.784 0.00 2.47936 2.06
5 0 8 o 0.240 0.196 180.00 2.35537 0.01
12 0 0 o 189.665 188.203 180.00 2.36697 3.21
0 1 7 o 37.053 43.356 180.00 2.39578 1.31
1 1 7 o 2.920 3.619 0.00 2.38731 0.20
9 0 6 o 0.764 1.660 180.00 2.32897 0.02
2 1 7 o 5.351 5.178 180.00 2.36241 0.36
11 0 4 o 0.787 0.868 180.00 2.31065 0.02
12 0 2 o 5.302 7.733 180.00 2.30743 0.17
7 1 5 o 1481.828 1450.191 0.00 2.36370 100.00
6 0 8 o 0.000 0.496 0.00 2.27104 0.00
3 1 7 o 1.429 1.712 0.00 2.32258 0.09
9 1 3 o 19.143 19.505 180.00 2.34834 1.27
10 1 1 o 0.358 0.465 180.00 2.31729 0.02
4 1 7 o 0.000 0.847 0.00 2.27006 0.00
10 0 6 o 7.174 4.852 180.00 2.19310 0.19
7 0 8 o 67.641 58.279 180.00 2.18217 1.77
8 1 5 o 6.025 21.416 0.00 2.24973 0.35
5 1 7 o 8.234 9.003 180.00 2.20750 0.45
12 0 4 o 1.404 0.896 180.00 2.15262 0.04
10 1 3 o 17.870 19.778 180.00 2.20926 0.97
13 0 2 o 10.015 7.594 180.00 2.13781 0.24
8 0 8 o 4.873 2.618 180.00 2.09155 0.11
11 1 1 o 85.109 82.644 0.00 2.17055 4.37
0 0 10 o 6871.641 6729.826 180.00 2.07067 75.68
6 1 7 o 10.991 8.493 0.00 2.13762 0.54
1 0 10 o 32.145 38.581 0.00 2.06519 0.70
9 1 5 o 69.178 50.336 180.00 2.13858 3.38
2 0 10 o 44.163 42.566 180.00 2.04901 0.94
11 0 6 o 20.093 21.629 180.00 2.06750 0.44
3 0 10 o 6.543 7.985 0.00 2.02286 0.13
14 0 0 o 7338.667 7406.166 180.00 2.02883 75.64
7 1 7 o 0.062 0.074 0.00 2.06302 0.00
11 1 3 o 1.525 1.068 180.00 2.08101 0.07
13 0 4 o 30.213 31.922 180.00 2.01294 0.61
4 0 10 o 70.359 87.751 180.00 1.98788 1.36
9 0 8 o 7.177 7.809 180.00 2.00134 0.14
14 0 2 o 17.487 22.047 180.00 1.99096 0.34
10 1 5 o 5.886 5.707 0.00 2.03195 0.24
0 1 9 o 66.074 69.221 180.00 2.00460 1.31
12 1 1 o 10.687 10.363 180.00 2.03800 0.45
1 1 9 o 50.543 55.845 0.00 1.99962 1.99
5 0 10 o 2.485 2.254 0.00 1.94546 0.04
2 1 9 o 0.785 0.862 0.00 1.98492 0.03
12 0 6 o 0.167 0.164 0.00 1.95198 0.00
8 1 7 o 1.056 1.195 0.00 1.98594 0.04
3 1 9 o 0.254 0.184 0.00 1.96112 0.01
0 2 0 o 7556.310 7274.619 0.00 2.04223 79.57
10 0 8 o 0.065 0.071 0.00 1.91314 0.00
6 0 10 o 531.349 524.487 180.00 1.89712 8.80
12 1 3 o 3.282 2.601 180.00 1.96334 0.12
2 2 0 o 27.393 30.136 0.00 2.02144 0.56
4 1 9 o 2.116 2.831 180.00 1.92920 0.07
0 2 2 o 22.948 24.442 0.00 2.00363 0.45
1 2 2 o 48.392 53.558 180.00 1.99866 1.90
11 1 5 o 3.223 4.432 0.00 1.93084 0.11
14 0 4 o 241.057 255.494 0.00 1.88894 3.93
2 2 2 o 4.285 4.661 0.00 1.98398 0.16
9 1 7 o 16.092 15.773 180.00 1.90823 0.54
5 1 9 o 48.523 50.933 0.00 1.89035 1.59
13 1 1 o 104.812 118.144 0.00 1.91828 3.60
4 2 0 o 107.371 88.424 0.00 1.96268 1.99
15 0 2 o 127.552 118.313 0.00 1.86268 1.99
7 0 10 o 68.251 61.184 0.00 1.84439 1.03
3 2 2 o 6.556 5.303 180.00 1.96021 0.24
13 0 6 o 106.345 93.572 180.00 1.84604 1.61
11 0 8 o 1.816 1.703 180.00 1.82804 0.03
4 2 2 o 0.433 0.546 180.00 1.92833 0.02
6 1 9 o 14.392 12.485 0.00 1.84592 0.44
0 2 4 o 275.598 258.883 180.00 1.89974 4.58
13 1 3 o 53.278 42.902 180.00 1.85564 1.64
1 2 4 o 43.363 42.875 180.00 1.89551 1.43
8 0 10 o 784.210 800.479 0.00 1.78870 10.70
10 1 7 o 40.556 43.511 0.00 1.83132 1.20
12 1 5 o 6.914 6.433 0.00 1.83575 0.21
2 2 4 o 1.320 1.258 0.00 1.88297 0.04
5 2 2 o 16.053 16.337 180.00 1.88954 0.52
6 2 0 o 736.161 672.080 0.00 1.87518 11.73
15 0 4 o 54.435 52.073 0.00 1.77833 0.73
7 1 9 o 3.080 2.470 0.00 1.79724 0.09
16 0 0 o 0.822 0.737 180.00 1.77522 0.01
3 2 4 o 26.260 23.589 180.00 1.86262 0.82
14 1 1 o 272.951 255.095 180.00 1.81006 7.74
6 2 2 o 1.798 1.524 0.00 1.84516 0.05
12 0 8 o 1.841 1.813 0.00 1.74673 0.02
14 0 6 o 436.181 454.793 180.00 1.74899 5.52
4 2 4 o 6.814 6.396 180.00 1.83520 0.20
0 0 12 o 58.815 60.639 180.00 1.72556 0.36
16 0 2 o 5.897 6.173 180.00 1.74969 0.07
1 0 12 o 1.112 0.872 180.00 1.72238 0.01
9 0 10 o 0.776 0.760 0.00 1.73129 0.01
2 0 12 o 12.849 13.575 180.00 1.71296 0.15
11 1 7 o 0.582 0.580 0.00 1.75627 0.01
8 1 9 o 21.546 20.298 180.00 1.74559 0.54
14 1 3 o 96.937 96.738 180.00 1.75715 2.49
3 0 12 o 18.377 15.404 180.00 1.69760 0.21
5 2 4 o 57.504 49.018 180.00 1.80167 1.61
13 1 5 o 49.431 48.081 180.00 1.74680 1.25
7 2 2 o 1.222 1.027 180.00 1.79654 0.03
0 1 11 o 595.140 597.813 180.00 1.70960 6.99
1 1 11 o 374.074 361.446 180.00 1.70651 8.73
4 0 12 o 3.151 2.931 180.00 1.67676 0.03
2 1 11 o 25.598 21.304 180.00 1.69735 0.59
0 2 6 o 524.220 525.470 0.00 1.75756 6.75
6 2 4 o 7.294 7.456 180.00 1.76307 0.19
10 0 10 o 82.118 78.991 0.00 1.67324 0.90
1 2 6 o 192.365 193.317 180.00 1.75420 4.92
8 2 0 o 1013.539 987.498 180.00 1.77027 13.36
16 0 4 o 8.456 8.607 180.00 1.67923 0.09
3 1 11 o 57.273 66.383 180.00 1.68239 1.28
15 1 1 o 293.115 295.237 180.00 1.71205 6.92
13 0 8 o 64.059 67.636 180.00 1.66958 0.70
2 2 6 o 0.017 0.016 0.00 1.74425 0.00
9 1 9 o 56.946 46.157 0.00 1.69211 1.29
5 0 12 o 41.662 74.690 0.00 1.65107 0.44
15 0 6 o 247.956 274.516 0.00 1.66010 2.64
8 2 2 o 2.354 2.178 0.00 1.74495 0.06
3 2 6 o 67.436 65.827 180.00 1.72804 1.64
12 1 7 o 13.348 15.041 0.00 1.68379 0.30
4 1 11 o 8.883 9.587 180.00 1.66211 0.19
17 0 2 o 12.921 21.359 0.00 1.64946 0.13
7 2 4 o 1.324 1.149 180.00 1.72051 0.03
6 0 12 o 3.332 5.850 180.00 1.62121 0.03
4 2 6 o 0.143 0.136 180.00 1.70608 0.00
14 1 5 o 6.005 6.399 0.00 1.66391 0.13
15 1 3 o 0.664 0.706 0.00 1.66707 0.01
5 1 11 o 9.222 7.908 0.00 1.63707 0.19
11 0 10 o 0.692 1.122 0.00 1.61541 0.01
10 1 9 o 0.594 0.529 180.00 1.63779 0.01
9 2 2 o 23.900 20.551 180.00 1.69152 0.54
5 2 6 o 0.090 0.092 180.00 1.67903 0.00
7 0 12 o 20.460 20.712 180.00 1.58794 0.19
14 0 8 o 17.790 17.966 0.00 1.59676 0.17
8 2 4 o 16.358 16.153 0.00 1.67503 0.36
6 1 11 o 18.350 21.014 180.00 1.60796 0.35
16 1 1 o 0.858 1.662 180.00 1.62309 0.02
17 0 4 o 39.112 40.600 0.00 1.59003 0.36
13 1 7 o 4.120 6.297 180.00 1.61437 0.08
6 2 6 o 5.090 6.376 0.00 1.64767 0.11
16 0 6 o 9.337 13.378 0.00 1.57862 0.08
10 2 0 o 60.409 68.813 180.00 1.65813 0.64
18 0 0 o 58.781 81.375 180.00 1.57798 0.26
12 0 10 o 196.644 209.673 0.00 1.55848 1.69
7 1 11 o 14.866 16.501 180.00 1.57547 0.27
8 0 12 o 2.495 2.439 0.00 1.55197 0.02
11 1 9 o 19.673 21.887 0.00 1.58344 0.36
15 1 5 o 112.042 114.628 0.00 1.58682 2.05
10 2 2 o 0.014 0.013 0.00 1.63726 0.00
18 0 2 o 0.002 0.002 180.00 1.55996 0.00
9 2 4 o 25.206 40.289 180.00 1.62761 0.50
16 1 3 o 5.354 5.696 0.00 1.58461 0.10
7 2 6 o 29.231 41.134 180.00 1.61277 0.57
0 2 8 o 10.012 10.700 180.00 1.60327 0.09
1 2 8 o 103.493 110.579 180.00 1.60073 1.95
2 2 8 o 0.922 0.941 180.00 1.59315 0.02
15 0 8 o 108.759 161.259 0.00 1.52826 0.88
3 2 8 o 17.002 21.096 180.00 1.58077 0.31
8 1 11 o 28.765 33.734 0.00 1.54033 0.48
14 1 7 o 21.299 18.694 0.00 1.54826 0.36
9 0 12 o 41.989 33.904 0.00 1.51403 0.33
8 2 6 o 36.160 39.153 180.00 1.57513 0.65
17 1 1 o 0.024 0.028 0.00 1.54212 0.00
10 2 4 o 0.705 0.867 0.00 1.57910 0.01
11 2 2 o 10.200 11.662 0.00 1.58297 0.19
4 2 8 o 0.082 0.076 0.00 1.56391 0.00
12 1 9 o 0.083 0.116 0.00 1.52971 0.00
18 0 4 o 0.318 0.262 0.00 1.50941 0.00
13 0 10 o 6.174 5.413 0.00 1.50294 0.05
17 0 6 o 77.079 71.207 0.00 1.50383 0.59
0 0 14 o 11.057 9.486 0.00 1.47905 0.04
1 0 14 o 0.125 0.112 0.00 1.47705 0.00
9 1 11 o 2.911 2.551 0.00 1.50321 0.04
2 0 14 o 12.696 13.512 180.00 1.47109 0.09
5 2 8 o 0.985 1.065 180.00 1.54300 0.02
16 1 5 o 2.035 1.806 0.00 1.51521 0.03
0 1 13 o 129.380 136.348 180.00 1.48398 0.95
10 0 12 o 5.161 5.167 0.00 1.47474 0.04
17 1 3 o 6.271 5.308 0.00 1.50901 0.10
1 1 13 o 43.069 42.690 0.00 1.48196 0.63
3 0 14 o 10.432 10.766 0.00 1.46133 0.07
9 2 6 o 3.235 3.805 180.00 1.53550 0.05
19 0 2 o 0.169 0.151 0.00 1.47958 0.00
12 2 0 o 173.567 168.130 180.00 1.54624 1.46
2 1 13 o 1.458 1.383 180.00 1.47594 0.02
11 2 4 o 1.054 1.405 180.00 1.53022 0.02
6 2 8 o 0.419 0.456 0.00 1.51855 0.01
3 1 13 o 8.796 9.239 0.00 1.46608 0.12
4 0 14 o 8.022 8.187 0.00 1.44797 0.05
15 1 7 o 29.625 29.647 180.00 1.48558 0.43
16 0 8 o 4.282 4.442 0.00 1.46398 0.03
12 2 2 o 9.646 13.155 180.00 1.52928 0.16
13 1 9 o 48.864 44.869 0.00 1.47710 0.70
10 1 11 o 2.406 2.505 0.00 1.46474 0.03
14 0 10 o 5455.983 5532.791 0.00 1.44917 36.80
4 1 13 o 15.863 15.697 0.00 1.45259 0.22
5 0 14 o 120.370 110.387 0.00 1.43133 0.78
11 0 12 o 82.912 82.347 180.00 1.43469 0.54
18 1 1 o 4.929 5.182 180.00 1.46824 0.07
7 2 8 o 54.981 42.585 180.00 1.49110 0.82
10 2 6 o 2.387 1.638 180.00 1.49457 0.04
19 0 4 o 24.043 24.165 0.00 1.43624 0.16
5 1 13 o 1.243 1.246 0.00 1.43579 0.02
18 0 6 o 40.205 40.031 0.00 1.43508 0.26
6 0 14 o 1.013 0.843 0.00 1.41175 0.01
17 1 5 o 5.122 5.206 0.00 1.44871 0.07
12 2 4 o 6.152 5.903 180.00 1.48156 0.09
20 0 0 o 257.999 230.896 180.00 1.42018 0.81
18 1 3 o 76.548 73.974 0.00 1.43958 1.01
13 2 2 o 13.077 12.391 180.00 1.47671 0.19
0 2 10 o 5713.432 5621.101 180.00 1.45403 38.98
11 1 11 o 55.262 53.048 180.00 1.42548 0.70
6 1 13 o 0.365 0.335 0.00 1.41603 0.00
1 2 10 o 35.600 35.382 0.00 1.45213 0.48
8 2 8 o 1.705 1.743 180.00 1.46120 0.02
14 1 9 o 36.940 35.208 0.00 1.42595 0.47
20 0 2 o 0.380 0.397 180.00 1.40700 0.00
2 2 10 o 43.332 44.174 180.00 1.44647 0.58
16 1 7 o 8.264 7.833 180.00 1.42633 0.11
7 0 14 o 31.282 31.797 180.00 1.38961 0.18
17 0 8 o 35.983 44.873 0.00 1.40374 0.22
12 0 12 o 26.245 27.023 0.00 1.39436 0.16
15 0 10 o 56.242 53.772 180.00 1.39738 0.34
11 2 6 o 21.010 20.807 180.00 1.45293 0.29
3 2 10 o 3.959 3.897 0.00 1.43718 0.05
7 1 13 o 1.732 1.786 0.00 1.39370 0.02
4 2 10 o 88.929 84.377 180.00 1.42447 1.13
9 2 8 o 10.535 9.793 180.00 1.42940 0.14
14 2 0 o 6348.326 6186.191 180.00 1.43931 41.84
8 0 14 o 0.313 0.323 0.00 1.36532 0.00
19 1 1 o 1.419 1.492 0.00 1.40064 0.02
13 2 4 o 18.581 17.871 180.00 1.43361 0.24
12 1 11 o 32.589 32.058 0.00 1.38590 0.38
5 2 10 o 0.424 0.398 0.00 1.40862 0.01
19 0 6 o 2.750 2.560 180.00 1.37176 0.02
18 1 5 o 0.535 0.533 0.00 1.38695 0.01
20 0 4 o 1.546 1.483 0.00 1.36957 0.01
14 2 2 o 30.564 28.841 180.00 1.42560 0.39
8 1 13 o 8.228 7.936 180.00 1.36919 0.09
15 1 9 o 38.486 33.300 180.00 1.37653 0.44
13 0 12 o 2.049 2.136 180.00 1.35417 0.01
12 2 6 o 2.872 2.564 0.00 1.41109 0.04
19 1 3 o 0.567 0.497 0.00 1.37569 0.01
17 1 7 o 2.988 2.832 0.00 1.37045 0.03
9 0 14 o 129.803 117.512 0.00 1.33927 0.67
6 2 10 o 408.648 413.656 180.00 1.38994 4.78
10 2 8 o 0.240 0.238 0.00 1.39620 0.00
16 0 10 o 0.380 0.392 0.00 1.34773 0.00
18 0 8 o 1.330 1.369 180.00 1.34734 0.01
21 0 2 o 0.470 0.448 180.00 1.34116 0.00
9 1 13 o 21.787 21.598 0.00 1.34292 0.23
13 1 11 o 116.980 119.754 180.00 1.34641 1.23
14 2 4 o 188.455 184.746 0.00 1.38671 2.19
7 2 10 o 53.739 52.055 0.00 1.36880 0.60
10 0 14 o 0.358 0.344 0.00 1.31185 0.00
13 2 6 o 70.997 68.125 180.00 1.36947 0.79
15 2 2 o 134.819 118.505 0.00 1.37622 1.53
14 0 12 o 49.041 45.571 0.00 1.31443 0.24
20 1 1 o 1.516 1.367 0.00 1.33860 0.02
11 2 8 o 2.309 2.295 180.00 1.36207 0.03
16 1 9 o 0.761 0.765 180.00 1.32900 0.01
0 0 16 o 429.669 418.106 180.00 1.29417 0.99
20 0 6 o 0.006 0.006 0.00 1.31333 0.00
0 1 15 o 78.247 78.045 0.00 1.30778 0.37
19 1 5 o 87.800 87.828 180.00 1.32954 0.88
10 1 13 o 1.694 1.559 0.00 1.31528 0.02
1 0 16 o 268.690 264.610 0.00 1.29283 1.23
1 1 15 o 2.912 2.861 0.00 1.30639 0.03
8 2 10 o 618.101 626.256 0.00 1.34556 6.48
21 0 4 o 4.971 4.973 180.00 1.30862 0.02
2 0 16 o 0.680 0.680 180.00 1.28883 0.00
2 1 15 o 35.067 35.550 0.00 1.30227 0.33
17 0 10 o 1.554 1.478 0.00 1.30029 0.01
18 1 7 o 37.804 33.649 180.00 1.31781 0.37
3 0 16 o 95.707 79.820 0.00 1.28225 0.43
3 1 15 o 0.743 0.706 180.00 1.29548 0.01
20 1 3 o 1.870 1.687 0.00 1.31677 0.02
14 1 11 o 506.477 501.854 0.00 1.30734 4.81
19 0 8 o 1.612 1.553 180.00 1.29453 0.01
11 0 14 o 1.982 1.783 0.00 1.28342 0.01
15 2 4 o 50.123 47.677 0.00 1.34113 0.52
22 0 0 o 934.917 916.762 0.00 1.29107 2.13
4 0 16 o 38.887 31.582 0.00 1.27320 0.17
0 2 12 o 74.109 65.935 180.00 1.31806 0.36
4 1 15 o 22.534 22.582 0.00 1.28614 0.20
0 3 1 o 248.073 248.354 0.00 1.35856 1.34
1 2 12 o 0.015 0.013 0.00 1.31664 0.00
16 2 0 o 2.367 2.201 180.00 1.33980 0.01
1 3 1 o 193.215 195.253 0.00 1.35701 2.08
12 2 8 o 3.067 2.983 0.00 1.32742 0.03
9 2 10 o 0.009 0.008 0.00 1.32061 0.00
2 2 12 o 18.515 17.639 180.00 1.31242 0.18
14 2 6 o 353.781 346.874 180.00 1.32841 3.55
2 3 1 o 11.801 12.156 0.00 1.35238 0.13
11 1 13 o 4.415 4.418 0.00 1.28663 0.04
22 0 2 o 0.698 0.524 180.00 1.28115 0.00
15 0 12 o 8.346 5.323 180.00 1.27543 0.04
16 2 2 o 6.490 6.357 180.00 1.32872 0.07
5 0 16 o 31.777 28.033 180.00 1.26184 0.13
5 1 15 o 0.446 0.314 180.00 1.27444 0.00
3 2 12 o 12.354 12.215 180.00 1.30547 0.12
3 3 1 o 27.620 27.578 0.00 1.34478 0.29
17 1 9 o 18.465 16.321 0.00 1.28345 0.16
4 2 12 o 4.175 3.936 180.00 1.29592 0.04
0 3 3 o 140.374 128.284 0.00 1.33575 0.72
4 3 1 o 2.550 2.358 0.00 1.33435 0.03
1 3 3 o 6.327 5.853 180.00 1.33428 0.06
6 0 16 o 0.274 0.281 0.00 1.24836 0.00
21 1 1 o 11.284 8.696 180.00 1.28152 0.10
12 0 14 o 11.056 13.066 0.00 1.25430 0.05
2 3 3 o 0.363 0.352 0.00 1.32988 0.00
6 1 15 o 30.723 28.149 0.00 1.26056 0.26
10 2 10 o 76.545 73.331 0.00 1.29429 0.70
20 1 5 o 0.179 0.113 0.00 1.27613 0.00
15 1 11 o 343.193 345.397 0.00 1.26894 2.94
21 0 6 o 23.339 22.364 0.00 1.25929 0.10
5 2 12 o 83.407 74.743 0.00 1.28395 0.74
18 0 10 o 69.303 80.067 0.00 1.25508 0.29
3 3 3 o 0.619 0.555 180.00 1.32265 0.01
5 3 1 o 1.094 0.973 0.00 1.32130 0.01
12 1 13 o 7.011 7.325 0.00 1.25730 0.06
19 1 7 o 9.464 9.415 0.00 1.26827 0.08
13 2 8 o 70.197 68.010 180.00 1.29260 0.64
22 0 4 o 20.113 22.158 180.00 1.25270 0.08
16 2 4 o 15.533 14.582 180.00 1.29706 0.14
4 3 3 o 4.504 4.267 180.00 1.31273 0.04
7 0 16 o 77.944 79.894 0.00 1.23298 0.30
21 1 3 o 0.013 0.012 0.00 1.26233 0.00
20 0 8 o 5.591 5.519 180.00 1.24508 0.02
7 1 15 o 1157.674 1134.331 180.00 1.24472 9.29
15 2 6 o 238.487 233.439 0.00 1.28818 2.15
6 2 12 o 0.950 0.923 180.00 1.26976 0.01
16 0 12 o 6.890 6.711 0.00 1.23734 0.03
17 2 2 o 18.882 16.028 0.00 1.28319 0.17
6 3 1 o 1.081 1.063 180.00 1.30585 0.01
5 3 3 o 2.642 2.530 180.00 1.30029 0.02
11 2 10 o 0.023 0.023 0.00 1.26697 0.00
13 0 14 o 0.000 0.000 0.00 1.22480 0.00
0 3 5 o 9.737 9.356 180.00 1.29339 0.04
1 3 5 o 68.139 65.915 180.00 1.29205 0.62
18 1 9 o 10.674 10.796 0.00 1.23991 0.08
8 0 16 o 3.878 4.058 0.00 1.21591 0.01
8 1 15 o 96.461 94.370 180.00 1.22717 0.74
2 3 5 o 4.997 4.834 180.00 1.28806 0.05
23 0 2 o 18.776 18.026 0.00 1.22625 0.07
7 2 12 o 10.985 12.118 180.00 1.25358 0.09
16 1 11 o 22.693 23.928 0.00 1.23142 0.18
7 3 1 o 11.682 11.286 0.00 1.28827 0.11
13 1 13 o 40.196 39.856 0.00 1.22760 0.31
6 3 3 o 0.016 0.015 180.00 1.28556 0.00
14 2 8 o 25.896 26.208 0.00 1.25791 0.22
3 3 5 o 0.001 0.001 180.00 1.28149 0.00
22 1 1 o 10.278 10.536 180.00 1.22887 0.08
19 0 10 o 5.631 5.631 0.00 1.21206 0.02
4 3 5 o 5.634 4.655 180.00 1.27245 0.05
17 2 4 o 39.103 42.614 0.00 1.25461 0.32
21 1 5 o 884.325 859.311 180.00 1.22639 6.74
16 2 6 o 19.016 19.426 0.00 1.24898 0.15
20 1 7 o 12.875 13.456 180.00 1.22167 0.10
8 2 12 o 0.542 0.532 0.00 1.23566 0.00
9 0 16 o 3.670 3.627 180.00 1.19740 0.01
22 0 6 o 30.336 29.903 0.00 1.20923 0.11
9 1 15 o 19.810 19.432 0.00 1.20815 0.14
18 2 0 o 78.794 80.364 180.00 1.24866 0.32
12 2 10 o 191.721 191.219 0.00 1.23893 1.51
8 3 1 o 0.094 0.089 0.00 1.26884 0.00
7 3 3 o 3.165 2.992 0.00 1.26877 0.03
17 0 12 o 0.008 0.009 0.00 1.20033 0.00
5 3 5 o 18.846 17.730 0.00 1.26111 0.16
14 0 14 o 10.237 9.656 180.00 1.19517 0.04
21 0 8 o 27.070 28.421 0.00 1.19875 0.10
23 0 4 o 23.678 26.450 0.00 1.20123 0.08
18 2 2 o 0.174 0.174 180.00 1.23968 0.00
22 1 3 o 4.535 4.542 0.00 1.21191 0.03
14 1 13 o 98.598 99.468 0.00 1.19776 0.69
8 3 3 o 2.422 2.505 180.00 1.25020 0.02
9 2 12 o 34.437 35.685 0.00 1.21625 0.26
19 1 9 o 48.274 49.846 180.00 1.19838 0.34
10 1 15 o 22.868 24.809 180.00 1.18791 0.16
10 0 16 o 1.314 1.172 180.00 1.17768 0.00
17 1 11 o 6.287 6.021 0.00 1.19492 0.04
6 3 5 o 4.535 4.601 180.00 1.24766 0.04
15 2 8 o 154.673 154.846 0.00 1.22359 1.17
9 3 1 o 5.310 5.393 0.00 1.24785 0.04
24 0 0 o 68.980 71.699 0.00 1.18348 0.12
0 3 7 o 59.719 59.055 180.00 1.23678 0.23
1 3 7 o 7.419 7.350 0.00 1.23561 0.06
13 2 10 o 5.496 5.473 0.00 1.21048 0.04
0 2 14 o 2.818 2.863 0.00 1.19789 0.01
2 3 7 o 3.897 3.979 180.00 1.23212 0.03
1 2 14 o 0.039 0.038 0.00 1.19683 0.00
24 0 2 o 17.736 16.051 0.00 1.17583 0.06
7 3 5 o 1164.137 1185.730 0.00 1.23230 9.02
2 2 14 o 22.042 21.578 180.00 1.19365 0.15
17 2 6 o 64.419 64.335 0.00 1.21094 0.47
18 2 4 o 0.006 0.006 180.00 1.21385 0.00
20 0 10 o 130.363 140.553 0.00 1.17119 0.42
15 0 14 o 0.363 0.390 180.00 1.16562 0.00
3 3 7 o 0.002 0.002 180.00 1.22636 0.00
0 1 17 o 0.359 0.390 0.00 1.16725 0.00
1 1 17 o 21.620 23.355 180.00 1.16626 0.14
10 2 12 o 7.580 7.374 0.00 1.19560 0.05
9 3 3 o 22.028 22.520 180.00 1.23011 0.17
3 2 14 o 12.906 13.815 0.00 1.18842 0.09
2 1 17 o 12.577 13.012 0.00 1.16332 0.08
21 1 7 o 16.735 15.294 180.00 1.17782 0.11
23 1 1 o 4.551 4.411 180.00 1.18017 0.03
18 0 12 o 5.311 5.614 0.00 1.16448 0.02
22 1 5 o 17.750 17.131 180.00 1.18001 0.12
11 1 15 o 18.303 19.799 180.00 1.16668 0.12
0 0 18 o 29.907 30.004 0.00 1.15037 0.05
11 0 16 o 47.996 50.793 0.00 1.15698 0.15
1 0 18 o 63.128 62.468 0.00 1.14943 0.19
10 3 1 o 0.498 0.495 180.00 1.22558 0.00
4 3 7 o 0.015 0.015 180.00 1.21844 0.00
3 1 17 o 2.288 2.496 0.00 1.15847 0.01
15 1 13 o 40.510 44.033 180.00 1.16802 0.26
2 0 18 o 0.616 0.614 0.00 1.14662 0.00
23 0 6 o 6.824 7.008 0.00 1.16274 0.02
4 2 14 o 4.358 4.326 0.00 1.18120 0.03
19 2 2 o 0.793 0.813 0.00 1.19817 0.01
5 3 7 o 15.732 15.674 180.00 1.20847 0.11
8 3 5 o 18.781 19.290 0.00 1.21526 0.14
3 0 18 o 13.180 13.904 0.00 1.14197 0.04
22 0 8 o 0.662 0.676 180.00 1.15532 0.00
4 1 17 o 14.435 14.785 0.00 1.15179 0.09
16 2 8 o 4.273 4.477 0.00 1.18985 0.03
23 1 3 o 47.799 50.795 0.00 1.16513 0.31
14 2 10 o 4641.085 4663.233 0.00 1.18185 31.13
24 0 4 o 2.297 2.337 0.00 1.15372 0.01
5 2 14 o 110.997 115.432 0.00 1.17212 0.72
4 0 18 o 0.002 0.002 0.00 1.13557 0.00
18 1 11 o 6.693 7.178 0.00 1.15954 0.04
10 3 3 o 11.966 11.936 180.00 1.20876 0.09
20 1 9 o 16.082 17.319 180.00 1.15883 0.10
5 1 17 o 19.658 21.384 0.00 1.14336 0.12
11 2 12 o 68.860 67.285 180.00 1.17396 0.45
12 0 16 o 1.028 1.155 0.00 1.13552 0.00
6 3 7 o 6.731 6.723 0.00 1.19662 0.05
11 3 1 o 35.266 37.355 0.00 1.20230 0.25
12 1 15 o 20.712 21.983 180.00 1.14468 0.12
5 0 18 o 1.821 1.735 0.00 1.12749 0.01
16 0 14 o 12.515 13.571 0.00 1.13633 0.04
9 3 5 o 18.066 18.110 180.00 1.19678 0.13
6 2 14 o 1.846 1.921 0.00 1.16129 0.01
19 2 4 o 32.918 31.487 0.00 1.17481 0.22
6 1 17 o 31.201 36.497 180.00 1.13330 0.18
18 2 6 o 40.483 39.378 0.00 1.17417 0.27
16 1 13 o 1.069 1.094 180.00 1.13856 0.01
21 0 10 o 25.113 28.260 180.00 1.13238 0.07
19 0 12 o 43.424 43.695 180.00 1.12988 0.12
6 0 18 o 6.531 5.899 180.00 1.11784 0.02
7 3 7 o 9.924 10.162 0.00 1.18305 0.07
7 2 14 o 28.174 28.118 180.00 1.14887 0.17
11 3 3 o 2.480 2.629 180.00 1.18641 0.02
20 2 0 o 173.967 185.456 180.00 1.16597 0.56
25 0 2 o 37.821 37.594 180.00 1.12936 0.11
12 2 12 o 36.111 36.670 0.00 1.15155 0.22
7 1 17 o 16.230 15.995 180.00 1.12175 0.09
23 1 5 o 109.023 116.805 0.00 1.13669 0.64
22 1 7 o 1.462 1.573 180.00 1.13655 0.01
0 3 9 o 45.512 47.194 180.00 1.17171 0.15
1 3 9 o 29.495 31.114 0.00 1.17071 0.19
10 3 5 o 4.604 4.335 0.00 1.17710 0.03
17 2 8 o 35.119 36.806 0.00 1.15682 0.22
15 2 10 o 47.283 48.251 180.00 1.15325 0.29
13 0 16 o 116.632 105.725 0.00 1.11349 0.32
20 2 2 o 0.111 0.118 0.00 1.15864 0.00
12 3 1 o 25.544 24.236 180.00 1.17827 0.17
13 1 15 o 0.681 0.662 0.00 1.12212 0.00
24 1 1 o 3.297 3.715 180.00 1.13502 0.02
2 3 9 o 1.369 1.468 180.00 1.16774 0.01
7 0 18 o 67.460 76.129 0.00 1.10675 0.18
24 0 6 o 3.556 3.485 180.00 1.11949 0.01
8 3 7 o 0.284 0.304 0.00 1.16795 0.00
19 1 11 o 56.578 52.304 180.00 1.12536 0.32
3 3 9 o 1.058 1.105 180.00 1.16283 0.01
8 2 14 o 0.009 0.011 0.00 1.13503 0.00
23 0 8 o 21.099 18.504 0.00 1.11458 0.06
8 1 17 o 15.735 16.615 0.00 1.10886 0.08
21 1 9 o 3.472 3.430 180.00 1.12120 0.02
17 0 14 o 22.354 24.813 180.00 1.10746 0.06
24 1 3 o 46.721 45.788 0.00 1.12162 0.26
12 3 3 o 1.141 1.196 180.00 1.16330 0.01
4 3 9 o 2.283 2.373 180.00 1.15607 0.01
25 0 4 o 0.010 0.010 0.00 1.10973 0.00
8 0 18 o 0.418 0.414 0.00 1.09436 0.00
19 2 6 o 0.612 0.634 180.00 1.13872 0.00
5 3 9 o 25.305 25.593 0.00 1.14755 0.15
17 1 13 o 14.946 15.315 180.00 1.10953 0.08
13 2 12 o 0.213 0.209 180.00 1.12860 0.00
20 2 4 o 2.726 2.874 0.00 1.13747 0.02
11 3 5 o 4.326 4.508 0.00 1.15643 0.03
9 3 7 o 20.669 20.982 180.00 1.15151 0.13
9 2 14 o 119.636 116.600 0.00 1.11993 0.67
20 0 12 o 0.139 0.137 180.00 1.09655 0.00
13 3 1 o 67.974 69.617 0.00 1.15371 0.42
14 0 16 o 274.979 261.413 0.00 1.09109 0.70
9 1 17 o 19.499 19.275 0.00 1.09477 0.10
14 1 15 o 37.675 37.600 180.00 1.09920 0.20
22 0 10 o 607.225 598.738 180.00 1.09556 1.56
16 2 10 o 1.649 1.544 0.00 1.12487 0.01
18 2 8 o 0.444 0.417 180.00 1.12464 0.00
6 3 9 o 19.838 20.978 0.00 1.13738 0.12
9 0 18 o 4.197 5.417 0.00 1.08081 0.01
26 0 0 o 439.471 430.110 0.00 1.09245 0.56
21 2 2 o 0.169 0.164 180.00 1.12103 0.00
23 1 7 o 30.096 29.661 0.00 1.09769 0.16
26 0 2 o 58.462 50.294 0.00 1.08641 0.15
24 1 5 o 0.000 0.000 180.00 1.09618 0.00
10 3 7 o 32.701 35.944 0.00 1.13394 0.19
20 1 11 o 1.344 1.310 0.00 1.09242 0.01
13 3 3 o 23.926 24.825 180.00 1.13965 0.14
18 0 14 o 18.808 22.569 180.00 1.07913 0.05
12 3 5 o 1.401 1.531 0.00 1.13499 0.01
25 1 1 o 21.801 21.389 180.00 1.09306 0.11
10 2 14 o 0.961 1.026 0.00 1.10375 0.01
10 1 17 o 56.317 69.667 180.00 1.07964 0.28
14 2 12 o 46.598 50.494 0.00 1.10529 0.25
7 3 9 o 0.957 0.907 0.00 1.12571 0.01
0 2 16 o 338.572 332.100 180.00 1.09316 0.87
1 2 16 o 228.224 221.582 0.00 1.09235 1.16
25 0 6 o 1.735 2.062 0.00 1.07917 0.00
22 1 9 o 51.855 46.754 0.00 1.08543 0.26
10 0 18 o 6.318 6.580 180.00 1.06624 0.01
2 2 16 o 0.049 0.044 180.00 1.08993 0.00
14 3 1 o 161.955 161.010 180.00 1.12884 0.93
24 0 8 o 20.261 17.446 180.00 1.07631 0.05
18 1 13 o 37.957 45.775 180.00 1.08103 0.19
15 0 16 o 342.111 333.653 180.00 1.06846 0.81
20 2 6 o 0.139 0.149 180.00 1.10463 0.00
15 1 15 o 4.568 3.868 180.00 1.07608 0.02
3 2 16 o 77.167 68.399 0.00 1.08594 0.39
25 1 3 o 0.149 0.177 0.00 1.08108 0.00
8 3 9 o 21.803 20.480 180.00 1.11268 0.12
11 3 7 o 0.101 0.091 180.00 1.11543 0.00
17 2 10 o 2.289 2.258 0.00 1.09684 0.01
21 2 4 o 7.861 8.164 180.00 1.10182 0.04
26 0 4 o 15.949 15.224 0.00 1.06890 0.04
11 2 14 o 2.946 2.571 0.00 1.08665 0.01
4 2 16 o 26.093 31.101 0.00 1.08043 0.13
21 0 12 o 31.900 31.858 0.00 1.06451 0.07
19 2 8 o 0.300 0.293 180.00 1.09337 0.00
11 1 17 o 0.264 0.258 0.00 1.06362 0.00
13 3 5 o 38.317 35.824 180.00 1.11300 0.21
0 3 11 o 381.033 402.235 180.00 1.10319 1.01
14 3 3 o 98.722 89.649 180.00 1.11566 0.54
1 3 11 o 205.266 214.494 180.00 1.10236 1.08
23 0 10 o 4.655 4.733 0.00 1.06063 0.01
11 0 18 o 13.154 15.148 0.00 1.05081 0.03
22 2 0 o 778.381 733.787 0.00 1.09129 1.98
2 3 11 o 22.819 23.077 180.00 1.09987 0.12
15 2 12 o 7.610 8.494 180.00 1.08179 0.04
5 2 16 o 26.585 21.646 180.00 1.07346 0.13
0 1 19 o 0.110 0.145 180.00 1.05299 0.00
1 1 19 o 0.974 1.237 0.00 1.05227 0.00
2 1 19 o 7.826 8.542 180.00 1.05011 0.03
3 3 11 o 45.128 44.467 180.00 1.09577 0.23
9 3 9 o 26.156 26.085 0.00 1.09844 0.14
19 0 14 o 74.991 89.854 180.00 1.05141 0.17
21 1 11 o 1.493 1.517 0.00 1.06073 0.01
22 2 2 o 0.555 0.512 180.00 1.08528 0.00
15 3 1 o 171.069 181.145 180.00 1.10384 0.90
4 3 11 o 6.366 5.828 180.00 1.09011 0.03
24 1 7 o 62.824 63.116 180.00 1.06108 0.29
3 1 19 o 32.807 29.797 0.00 1.04654 0.14
16 1 15 o 0.668 0.862 180.00 1.05291 0.00
16 0 16 o 19.359 17.496 180.00 1.04577 0.04
6 2 16 o 0.065 0.065 0.00 1.06513 0.00
12 3 7 o 9.415 9.286 0.00 1.09616 0.05
0 0 20 o 3059.305 3009.832 0.00 1.03534 3.23
25 1 5 o 48.224 54.938 180.00 1.05825 0.22
19 1 13 o 0.002 0.003 0.00 1.05318 0.00
12 2 14 o 21.355 20.403 0.00 1.06881 0.10
1 0 20 o 41.328 41.601 180.00 1.03465 0.09
12 1 17 o 31.845 29.274 180.00 1.04687 0.14
4 1 19 o 11.551 11.243 0.00 1.04160 0.05
2 0 20 o 74.808 78.177 0.00 1.03260 0.16
5 3 11 o 11.243 11.614 0.00 1.08295 0.06
27 0 2 o 13.574 12.435 0.00 1.04660 0.03
26 1 1 o 25.828 33.752 0.00 1.05398 0.12
12 0 18 o 4.068 4.099 180.00 1.03465 0.01
18 2 10 o 81.276 76.273 0.00 1.06929 0.38
14 3 5 o 4.836 4.487 0.00 1.09062 0.02
21 2 6 o 13.428 11.556 0.00 1.07189 0.06
3 0 20 o 0.998 1.083 0.00 1.02920 0.00
10 3 9 o 0.016 0.016 0.00 1.08316 0.00
23 1 9 o 20.282 24.064 180.00 1.05143 0.09
26 0 6 o 21.984 21.414 180.00 1.04151 0.05
15 3 3 o 0.642 0.606 0.00 1.09151 0.00
7 2 16 o 44.000 56.448 0.00 1.05552 0.20
25 0 8 o 1.465 1.448 180.00 1.04033 0.00
5 1 19 o 64.115 63.420 180.00 1.03535 0.27
22 2 4 o 23.965 23.504 180.00 1.06782 0.11
4 0 20 o 103.956 105.385 0.00 1.02450 0.21
20 2 8 o 4.925 4.872 180.00 1.06308 0.02
6 3 11 o 9.555 8.047 180.00 1.07440 0.05
22 0 12 o 0.079 0.081 180.00 1.03375 0.00
16 2 12 o 6.410 7.273 0.00 1.05826 0.03
26 1 3 o 0.249 0.235 180.00 1.04323 0.00
13 2 14 o 0.296 0.327 180.00 1.05038 0.00
6 1 19 o 18.162 20.374 180.00 1.02787 0.07
13 3 7 o 0.544 0.494 180.00 1.07631 0.00
5 0 20 o 0.204 0.209 0.00 1.01856 0.00
16 3 1 o 3.313 3.476 180.00 1.07888 0.02
27 0 4 o 7.995 8.237 0.00 1.03091 0.02
8 2 16 o 5.064 4.674 0.00 1.04476 0.02
13 1 17 o 13.393 14.278 180.00 1.02954 0.06
17 0 16 o 67.896 66.989 180.00 1.02314 0.14
24 0 10 o 67.430 75.167 180.00 1.02750 0.14
17 1 15 o 0.018 0.019 180.00 1.02982 0.00
13 0 18 o 79.423 80.279 0.00 1.01790 0.16
20 0 14 o 2.894 2.938 180.00 1.02440 0.01
7 3 11 o 9.203 9.191 180.00 1.06454 0.04
11 3 9 o 5.376 5.323 0.00 1.06699 0.03
6 0 20 o 93.083 114.498 0.00 1.01143 0.18
7 1 19 o 5.339 5.485 0.00 1.01923 0.02
15 3 5 o 68.609 66.442 0.00 1.06802 0.32
22 1 11 o 3.407 3.561 180.00 1.03029 0.01
23 2 2 o 16.202 18.738 0.00 1.05129 0.07
20 1 13 o 0.004 0.004 180.00 1.02603 0.00
9 2 16 o 2.184 2.253 180.00 1.03295 0.01
16 3 3 o 5.747 5.639 0.00 1.06735 0.03
25 1 7 o 1.617 1.760 0.00 1.02656 0.01
19 2 10 o 7.557 7.249 0.00 1.04231 0.03
8 3 11 o 11.436 14.212 0.00 1.05350 0.05
7 0 20 o 108.752 120.015 180.00 1.00319 0.21
26 1 5 o 0.037 0.037 0.00 1.02267 0.00
14 3 7 o 23.566 28.688 0.00 1.05603 0.11
28 0 0 o 4013.024 4151.061 0.00 1.01441 3.95
22 2 6 o 30.447 29.822 0.00 1.04051 0.13
17 2 12 o 0.054 0.055 0.00 1.03482 0.00
8 1 19 o 17.374 22.623 0.00 1.00953 0.07
14 1 17 o 0.386 0.458 0.00 1.01175 0.00
14 2 14 o 3.662 3.789 180.00 1.03151 0.02
12 3 9 o 6.272 6.783 0.00 1.05009 0.03
24 1 9 o 5.243 5.362 0.00 1.01913 0.02
21 2 8 o 24.309 24.796 0.00 1.03381 0.10
27 1 1 o 24.628 24.888 180.00 1.01751 0.10
17 3 1 o 0.156 0.192 0.00 1.05408 0.00
14 0 18 o 33.242 36.573 180.00 1.00070 0.06
28 0 2 o 21.855 28.172 0.00 1.00958 0.04
23 2 4 o 27.363 27.318 0.00 1.03540 0.12
26 0 8 o 21.713 25.332 180.00 1.00647 0.04
10 2 16 o 2.223 2.263 180.00 1.02021 0.01
18 0 16 o 104.328 114.680 180.00 1.00067 0.20
8 0 20 o 231.937 242.881 180.00 0.99394 0.42
23 0 12 o 13.019 14.425 180.00 1.00425 0.02
9 3 11 o 5.799 5.627 0.00 1.04140 0.03
27 0 6 o 14.168 16.411 0.00 1.00627 0.03
0 3 13 o 100.133 100.607 180.00 1.03494 0.21
1 3 13 o 35.126 35.604 0.00 1.03425 0.15
18 1 15 o 1.346 1.598 180.00 1.00692 0.01
9 1 19 o 49.649 53.363 180.00 0.99886 0.18
2 3 13 o 0.119 0.123 180.00 1.03220 0.00
21 0 14 o 28.742 30.536 0.00 0.99813 0.05
16 3 5 o 0.267 0.251 0.00 1.04536 0.00
27 1 3 o 11.948 14.659 0.00 1.00782 0.05
3 3 13 o 5.878 6.308 0.00 1.02881 0.02
17 3 3 o 6.886 6.548 0.00 1.04332 0.03
25 0 10 o 4.898 5.108 0.00 0.99606 0.01
24 2 0 o 66.530 67.846 0.00 1.02397 0.14
28 0 4 o 94.176 98.295 180.00 0.99548 0.17
15 2 14 o 0.811 0.924 180.00 1.01233 0.00
21 1 13 o 9.950 10.802 180.00 0.99964 0.04
9 0 20 o 4.835 4.793 0.00 0.98375 0.01
23 1 11 o 4.922 5.413 180.00 1.00108 0.02
15 1 17 o 32.168 33.356 0.00 0.99363 0.12
20 2 10 o 109.134 111.153 0.00 1.01597 0.43
4 3 13 o 13.368 13.688 0.00 1.02412 0.05
0 2 18 o 34.562 38.163 0.00 1.00230 0.07
13 3 9 o 27.941 28.764 0.00 1.03259 0.12
15 3 7 o 21.734 21.730 180.00 1.03548 0.09
1 2 18 o 53.251 58.700 0.00 1.00167 0.20
11 2 16 o 38.627 45.371 0.00 1.00666 0.15
10 1 19 o 0.002 0.002 0.00 0.98732 0.00
18 2 12 o 4.554 5.370 0.00 1.01159 0.02
10 3 11 o 0.941 1.012 0.00 1.02835 0.00
24 2 2 o 17.527 17.862 0.00 1.01900 0.07
2 2 18 o 0.372 0.404 0.00 0.99981 0.00
15 0 18 o 69.124 67.624 180.00 0.98316 0.12
3 2 18 o 12.615 13.225 0.00 0.99673 0.05
5 3 13 o 1.714 1.745 0.00 1.01818 0.01
26 1 7 o 0.004 0.004 180.00 0.99399 0.00
18 3 1 o 2.014 2.134 180.00 1.02955 0.01
23 2 6 o 6.267 7.660 0.00 1.01044 0.02
10 0 20 o 101.775 105.715 180.00 0.97273 0.17
19 0 16 o 27.135 26.905 0.00 0.97845 0.05
4 2 18 o 0.086 0.087 0.00 0.99246 0.00
22 2 8 o 1.033 1.178 180.00 1.00557 0.00
27 1 5 o 10.239 10.611 0.00 0.98925 0.04
19 1 15 o 37.509 37.864 0.00 0.98429 0.13
25 1 9 o 9.264 9.845 180.00 0.98843 0.03
12 2 16 o 0.281 0.285 0.00 0.99243 0.00
11 3 11 o 30.719 32.371 180.00 1.01448 0.12
6 3 13 o 1.709 2.038 0.00 1.01106 0.01
11 1 19 o 0.998 1.005 0.00 0.97503 0.00
17 3 5 o 0.003 0.003 0.00 1.02275 0.00
24 2 4 o 3.035 3.398 0.00 1.00451 0.01
24 0 12 o 15.588 15.510 180.00 0.97599 0.03
5 2 18 o 2.198 2.368 0.00 0.98705 0.01
14 3 9 o 22.704 23.862 0.00 1.01465 0.09
28 1 1 o 97.017 95.978 0.00 0.98339 0.34
18 3 3 o 43.731 44.519 0.00 1.01952 0.18
16 2 14 o 16.448 16.845 0.00 0.99297 0.06
16 1 17 o 0.210 0.210 0.00 0.97530 0.00
29 0 2 o 117.161 117.896 180.00 0.97508 0.20
22 0 14 o 2.373 2.447 0.00 0.97264 0.00
27 0 8 o 28.740 29.174 0.00 0.97457 0.05
16 3 7 o 6.516 6.834 180.00 1.01479 0.03
28 0 6 o 170.078 175.392 0.00 0.97324 0.29
16 0 18 o 0.408 0.391 0.00 0.96540 0.00
11 0 20 o 8.603 8.430 0.00 0.96097 0.01
7 3 13 o 0.822 0.908 0.00 1.00283 0.00
19 2 12 o 40.186 42.209 180.00 0.98866 0.14
6 2 18 o 2.581 2.514 180.00 0.98056 0.01
21 2 10 o 23.952 24.369 180.00 0.99033 0.09
22 1 13 o 6.210 6.348 0.00 0.97404 0.02
26 0 10 o 406.776 390.688 180.00 0.96622 0.67
24 1 11 o 0.376 0.386 0.00 0.97307 0.00
0 4 0 o 4236.248 4301.959 0.00 1.02112 4.26
28 1 3 o 44.900 45.486 0.00 0.97464 0.15
0 1 21 o 545.765 527.438 0.00 0.95850 0.88
1 1 21 o 110.616 107.018 0.00 0.95795 0.36
12 1 19 o 7.349 7.108 0.00 0.96208 0.02
0 4 2 o 38.192 39.408 0.00 1.01619 0.08
7 2 18 o 56.792 58.221 0.00 0.97305 0.19
1 4 2 o 64.685 67.299 180.00 1.01554 0.26
12 3 11 o 29.234 31.682 0.00 0.99992 0.11
25 2 2 o 26.808 28.265 180.00 0.98831 0.10
13 2 16 o 89.726 89.048 0.00 0.97762 0.31
2 4 0 o 31.866 32.512 0.00 1.01849 0.06
8 3 13 o 12.647 13.042 180.00 0.99358 0.05
2 1 21 o 26.553 26.676 0.00 0.95632 0.08
19 3 1 o 3.682 4.196 0.00 1.00541 0.01
2 4 2 o 8.683 9.431 0.00 1.01360 0.03
3 1 21 o 28.052 27.273 0.00 0.95362 0.09
29 0 4 o 42.981 41.469 180.00 0.96236 0.07
15 3 9 o 15.052 15.805 180.00 0.99638 0.06
20 0 16 o 0.450 0.448 180.00 0.95657 0.00
4 4 0 o 63.649 75.077 0.00 1.01072 0.12
3 4 2 o 3.296 3.913 180.00 1.01038 0.01
18 3 5 o 0.135 0.146 0.00 1.00031 0.00
20 1 15 o 4.910 4.754 180.00 0.96202 0.02
12 0 20 o 209.569 213.161 180.00 0.94856 0.33
24 2 6 o 5.662 5.532 180.00 0.98167 0.02
17 2 14 o 27.733 28.306 180.00 0.97353 0.09
4 1 21 o 4.479 4.312 0.00 0.94988 0.01
27 1 7 o 3.963 3.806 0.00 0.96322 0.01
23 2 8 o 19.919 19.711 0.00 0.97835 0.07
8 2 18 o 0.002 0.002 180.00 0.96460 0.00
17 1 17 o 5.001 4.950 180.00 0.95687 0.02
17 3 7 o 5.581 5.777 0.00 0.99406 0.02
4 4 2 o 0.047 0.054 0.00 1.00594 0.00
0 0 22 o 120.346 121.435 0.00 0.94121 0.09
19 3 3 o 2.911 3.050 0.00 0.99606 0.01
1 0 22 o 25.225 25.167 0.00 0.94070 0.04
9 3 13 o 20.744 20.690 0.00 0.98341 0.07
26 1 9 o 12.054 11.747 180.00 0.95925 0.04
17 0 18 o 38.306 39.229 180.00 0.94751 0.06
2 0 22 o 32.456 31.876 0.00 0.93915 0.05
5 1 21 o 35.604 36.353 180.00 0.94514 0.11
13 3 11 o 66.130 67.672 180.00 0.98478 0.23
28 1 5 o 2.332 2.277 180.00 0.95781 0.01
13 1 19 o 2.183 2.207 180.00 0.94857 0.01
2 4 4 o 18.809 20.251 0.00 0.99933 0.07
23 0 14 o 90.991 92.827 180.00 0.94795 0.14
25 2 4 o 0.077 0.077 0.00 0.97507 0.00
0 4 4 o 81.533 89.489 180.00 1.00181 0.15
1 4 4 o 18.763 20.503 180.00 1.00119 0.07
3 0 22 o 57.423 58.550 0.00 0.93660 0.09
25 0 12 o 63.887 63.903 0.00 0.94892 0.10
5 4 2 o 20.813 22.590 180.00 1.00031 0.08
14 2 16 o 214.241 207.058 0.00 0.96235 0.70
3 4 4 o 29.341 30.801 180.00 0.99625 0.11
30 0 0 o 16.354 16.704 180.00 0.94679 0.01
20 2 12 o 2.462 2.370 180.00 0.96610 0.01
6 4 0 o 327.167 348.633 0.00 0.99816 0.61
6 1 21 o 33.214 32.724 0.00 0.93944 0.10
9 2 18 o 6.296 6.313 0.00 0.95528 0.02
22 2 10 o 503.159 483.861 180.00 0.96542 1.66
4 0 22 o 31.409 33.618 0.00 0.93305 0.05
23 1 13 o 44.130 43.561 180.00 0.94924 0.14
28 0 8 o 44.191 45.112 180.00 0.94447 0.07
29 1 1 o 86.876 81.019 0.00 0.95143 0.27
0 3 15 o 56.410 55.194 0.00 0.96935 0.09
13 0 20 o 17.556 18.123 180.00 0.93561 0.03
1 3 15 o 1.602 1.561 0.00 0.96879 0.01
4 4 4 o 0.033 0.033 180.00 0.99199 0.00
30 0 2 o 2.351 2.398 0.00 0.94285 0.00
29 0 6 o 175.930 178.978 180.00 0.94222 0.27
20 3 1 o 7.015 6.903 0.00 0.98171 0.02
2 3 15 o 11.751 11.352 0.00 0.96710 0.04
10 3 13 o 0.116 0.118 0.00 0.97240 0.00
25 1 11 o 20.745 21.163 0.00 0.94624 0.06
6 4 2 o 0.864 0.892 180.00 0.99355 0.00
16 3 9 o 0.022 0.022 0.00 0.97790 0.00
5 0 22 o 99.043 90.047 180.00 0.92856 0.14
26 2 0 o 398.574 384.011 0.00 0.96328 0.65
21 0 16 o 72.095 75.183 180.00 0.93507 0.11
7 1 21 o 0.679 0.718 180.00 0.93283 0.00
3 3 15 o 2.969 2.857 180.00 0.96431 0.01
19 3 5 o 88.023 87.233 180.00 0.97812 0.30
18 1 17 o 3.773 3.763 180.00 0.93841 0.01
21 1 15 o 819.429 814.132 0.00 0.94017 2.46
27 0 10 o 6.209 6.236 180.00 0.93789 0.01
5 4 4 o 70.049 73.159 180.00 0.98659 0.25
18 2 14 o 17.901 17.578 180.00 0.95412 0.06
7 4 2 o 2.272 2.353 180.00 0.98574 0.01
18 3 7 o 17.124 17.341 180.00 0.97342 0.06
14 1 19 o 0.556 0.584 180.00 0.93461 0.00
26 2 2 o 61.742 60.274 0.00 0.95914 0.20
29 1 3 o 11.128 11.348 180.00 0.94349 0.03
18 0 18 o 3.775 3.518 0.00 0.92958 0.01
10 2 18 o 6.313 6.437 180.00 0.94518 0.02
6 0 22 o 1.579 1.607 0.00 0.92314 0.00
14 3 11 o 354.214 346.482 0.00 0.96917 1.19
4 3 15 o 14.983 14.609 0.00 0.96044 0.05
15 2 16 o 280.363 285.517 180.00 0.94672 0.86
0 4 6 o 242.215 239.142 0.00 0.97916 0.42
20 3 3 o 1.483 1.500 0.00 0.97300 0.01
1 4 6 o 108.409 107.276 180.00 0.97858 0.38
11 3 13 o 4.053 3.949 0.00 0.96065 0.01
24 2 8 o 18.721 17.721 180.00 0.95217 0.06
8 4 0 o 491.558 484.609 180.00 0.98134 0.86
8 1 21 o 25.257 24.752 180.00 0.92537 0.07
25 2 6 o 2.188 2.146 0.00 0.95414 0.01
30 0 4 o 48.174 48.187 0.00 0.93134 0.07
6 4 4 o 13.221 13.022 180.00 0.98011 0.05
2 4 6 o 7.838 7.814 180.00 0.97684 0.03
14 0 20 o 2300.629 2364.970 180.00 0.92220 3.23
5 3 15 o 2.239 2.225 180.00 0.95554 0.01
7 0 22 o 36.541 36.151 0.00 0.91687 0.05
3 4 6 o 54.452 54.974 180.00 0.97396 0.19
8 4 2 o 5.050 5.032 0.00 0.97696 0.02
28 1 7 o 4.587 4.827 180.00 0.93413 0.01
21 2 12 o 23.562 24.002 0.00 0.94397 0.07
27 1 9 o 11.729 11.796 180.00 0.93151 0.03
24 0 14 o 1.292 1.300 180.00 0.92407 0.00
17 3 9 o 14.613 14.277 0.00 0.95932 0.05
26 0 12 o 63.367 64.534 180.00 0.92302 0.09
11 2 18 o 15.883 16.648 0.00 0.93437 0.05
26 2 4 o 20.913 21.219 0.00 0.94703 0.06
6 3 15 o 27.261 26.554 0.00 0.94965 0.08
4 4 6 o 3.525 3.478 180.00 0.96998 0.01
23 2 10 o 5.563 5.597 0.00 0.94126 0.02
7 4 4 o 0.788 0.794 0.00 0.97261 0.00
9 1 21 o 27.725 27.490 180.00 0.91713 0.08
29 1 5 o 73.339 67.864 180.00 0.92820 0.21
24 1 13 o 38.474 37.736 180.00 0.92527 0.11
15 3 11 o 219.494 211.814 0.00 0.95322 0.69
15 1 19 o 9.659 10.149 180.00 0.92027 0.03
8 0 22 o 22.106 21.467 180.00 0.90979 0.03
21 3 1 o 7.270 7.119 180.00 0.95851 0.02
12 3 13 o 3.817 3.817 0.00 0.94825 0.01
19 2 14 o 90.696 94.407 180.00 0.93480 0.27
19 1 17 o 8.595 8.990 180.00 0.92002 0.02
20 3 5 o 0.272 0.269 0.00 0.95625 0.00
19 3 7 o 15.297 14.723 0.00 0.95293 0.05
5 4 6 o 5.859 5.653 180.00 0.96493 0.02
16 2 16 o 19.497 19.116 180.00 0.93083 0.06
0 2 20 o 2553.878 2586.629 0.00 0.92345 3.60
8 4 4 o 22.436 21.659 0.00 0.96417 0.07
9 4 2 o 24.798 24.054 180.00 0.96728 0.08
22 0 16 o 2.317 2.254 180.00 0.91402 0.00
1 2 20 o 37.400 38.088 180.00 0.92296 0.11
29 0 8 o 201.537 199.430 180.00 0.91604 0.28
19 0 18 o 5.286 5.184 180.00 0.91169 0.01
7 3 15 o 882.288 895.410 180.00 0.94282 2.68
15 0 20 o 48.273 45.815 0.00 0.90842 0.06
2 2 20 o 76.315 79.138 0.00 0.92150 0.21
30 1 1 o 4.956 5.142 0.00 0.92142 0.01
22 1 15 o 81.681 83.247 0.00 0.91877 0.23
26 1 11 o 60.159 62.875 180.00 0.92055 0.17
30 0 6 o 64.738 62.871 180.00 0.91305 0.09
10 1 21 o 0.479 0.452 180.00 0.90818 0.00
9 0 22 o 47.294 47.649 180.00 0.90196 0.06
3 2 20 o 3.026 3.104 0.00 0.91909 0.01
21 3 3 o 0.822 0.793 180.00 0.95040 0.00
12 2 18 o 3.320 3.380 180.00 0.92296 0.01
28 0 10 o 3099.097 3036.870 180.00 0.91097 4.16
6 4 6 o 9.772 9.563 0.00 0.95886 0.03
8 3 15 o 82.464 85.275 180.00 0.93513 0.24
31 0 2 o 3.008 2.926 180.00 0.91268 0.00
10 4 0 o 53.362 51.954 180.00 0.96091 0.09
27 2 2 o 16.432 16.409 0.00 0.93141 0.05
4 2 20 o 101.414 100.167 0.00 0.91574 0.28
10 4 2 o 0.918 0.905 180.00 0.95680 0.00
18 3 9 o 6.222 6.243 0.00 0.94072 0.02
25 2 8 o 0.351 0.332 180.00 0.92699 0.00
30 1 3 o 20.185 19.711 180.00 0.91421 0.05
7 4 6 o 7.954 7.633 180.00 0.95184 0.02
9 4 4 o 53.022 52.085 180.00 0.95486 0.17
26 2 6 o 28.156 26.382 180.00 0.92782 0.08
22 2 12 o 0.002 0.002 0.00 0.92232 0.00
16 1 19 o 0.177 0.167 0.00 0.90565 0.00
13 3 13 o 36.008 37.135 0.00 0.93531 0.11
0 4 8 o 28.352 27.588 180.00 0.94987 0.04
5 2 20 o 1.017 0.995 0.00 0.91148 0.00
1 4 8 o 103.803 101.811 180.00 0.94934 0.32
16 3 11 o 19.585 19.873 0.00 0.93700 0.06
10 0 22 o 39.108 35.753 180.00 0.89344 0.05
3 4 8 o 14.151 14.366 180.00 0.94513 0.04
25 0 14 o 0.011 0.011 180.00 0.90100 0.00
2 4 8 o 1.425 1.427 180.00 0.94775 0.00
11 1 21 o 29.082 27.621 0.00 0.89859 0.07
31 0 4 o 37.505 37.655 180.00 0.90222 0.05
9 3 15 o 7.631 7.273 0.00 0.92663 0.02
13 2 18 o 76.513 74.761 0.00 0.91101 0.21
20 2 14 o 3.877 3.826 180.00 0.91566 0.01
16 0 20 o 4.331 4.003 180.00 0.89435 0.01
17 2 16 o 59.182 58.064 180.00 0.91476 0.16
22 3 1 o 12.676 12.985 180.00 0.93587 0.04
29 1 7 o 9.360 8.724 0.00 0.90660 0.02
4 4 8 o 0.190 0.191 180.00 0.94149 0.00
6 2 20 o 94.068 87.821 0.00 0.90636 0.25
20 1 17 o 27.153 27.088 0.00 0.90175 0.07
8 4 6 o 39.672 40.253 180.00 0.94392 0.12
21 3 5 o 672.901 694.623 180.00 0.93478 1.98
24 2 10 o 73.168 73.485 180.00 0.91787 0.20
27 2 4 o 3.451 3.569 0.00 0.92030 0.01
28 1 9 o 9.943 9.533 180.00 0.90512 0.03
27 0 12 o 7.222 6.841 180.00 0.89822 0.01
20 0 18 o 9.903 9.110 0.00 0.89390 0.01
11 4 2 o 4.498 4.559 0.00 0.94560 0.01
25 1 13 o 0.570 0.570 0.00 0.90211 0.00
20 3 7 o 9.221 9.431 180.00 0.93268 0.03
10 4 4 o 0.646 0.655 180.00 0.94477 0.00
23 1 15 o 35.379 33.422 180.00 0.89788 0.09
23 0 16 o 0.193 0.176 180.00 0.89344 0.00
5 4 8 o 3.602 3.658 180.00 0.93687 0.01
14 3 13 o 82.399 84.432 0.00 0.92191 0.23
11 0 22 o 80.655 82.453 0.00 0.88430 0.10
7 2 20 o 105.937 103.085 180.00 0.90042 0.27
30 1 5 o 0.088 0.085 0.00 0.90027 0.00
17 1 19 o 44.574 40.031 180.00 0.89083 0.11
10 3 15 o 19.629 19.621 180.00 0.91740 0.05
12 1 21 o 46.638 44.427 180.00 0.88842 0.11
22 3 3 o 1.016 0.962 0.00 0.92832 0.00
27 1 11 o 37.266 34.721 0.00 0.89595 0.09
17 3 11 o 4.180 4.303 0.00 0.92061 0.01
9 4 6 o 9.891 10.158 180.00 0.93518 0.03
12 4 0 o 124.748 126.051 180.00 0.93759 0.19
6 4 8 o 0.134 0.133 0.00 0.93131 0.00
14 2 18 o 47.097 44.799 180.00 0.89862 0.12
28 2 0 o 3751.691 3573.120 0.00 0.90851 4.99
19 3 9 o 31.348 31.999 180.00 0.92220 0.09
11 4 4 o 3.358 3.452 180.00 0.93398 0.01
30 0 8 o 0.174 0.162 180.00 0.88917 0.00
12 4 2 o 27.999 28.749 180.00 0.93377 0.08
0 3 17 o 5.959 5.632 0.00 0.90778 0.01
1 3 17 o 22.806 21.484 180.00 0.90732 0.06
32 0 0 o 20.731 20.276 0.00 0.88761 0.01
0 1 23 o 16.991 17.083 0.00 0.87919 0.02
1 1 23 o 32.452 32.886 180.00 0.87877 0.08
18 2 16 o 107.462 102.226 180.00 0.89860 0.27
8 2 20 o 212.997 195.562 180.00 0.89371 0.53
2 3 17 o 10.815 10.247 0.00 0.90593 0.03
17 0 20 o 13.033 12.782 180.00 0.88007 0.02
31 1 1 o 22.931 20.936 180.00 0.89319 0.06
26 2 8 o 28.927 28.758 180.00 0.90279 0.08
2 1 23 o 5.139 5.242 0.00 0.87751 0.01
28 2 2 o 35.851 34.503 0.00 0.90503 0.09
31 0 6 o 35.498 36.392 180.00 0.88557 0.04
29 0 10 o 11.201 11.497 0.00 0.88538 0.01
12 0 22 o 43.543 43.198 180.00 0.87460 0.05
23 2 12 o 14.639 14.404 180.00 0.90119 0.04
3 3 17 o 6.008 5.928 0.00 0.90364 0.02
32 0 2 o 0.204 0.207 180.00 0.88437 0.00
10 4 6 o 0.232 0.226 0.00 0.92570 0.00
3 1 23 o 8.694 8.711 180.00 0.87542 0.02
21 1 17 o 57.354 57.297 0.00 0.88368 0.14
27 2 6 o 10.311 10.249 0.00 0.90265 0.03
7 4 8 o 22.579 22.234 180.00 0.92487 0.06
11 3 15 o 20.264 19.142 180.00 0.90751 0.05
21 2 14 o 29.661 27.803 0.00 0.89676 0.08
31 1 3 o 24.208 24.295 180.00 0.88662 0.06
13 1 21 o 45.872 46.715 0.00 0.87775 0.11
9 2 20 o 6.623 6.692 0.00 0.88628 0.02
4 3 17 o 18.758 18.256 0.00 0.90045 0.05
26 0 14 o 12.475 12.601 180.00 0.87874 0.01
23 3 1 o 1.638 1.602 180.00 0.91382 0.00
4 1 23 o 10.900 10.433 180.00 0.87253 0.03
15 3 13 o 38.266 36.359 180.00 0.90815 0.10
22 3 5 o 15.201 14.865 180.00 0.91374 0.04
21 0 18 o 50.587 51.086 180.00 0.87629 0.06
21 3 7 o 30.470 29.730 180.00 0.91272 0.08
25 2 10 o 7.570 7.035 0.00 0.89525 0.02
18 1 19 o 28.536 28.688 180.00 0.87588 0.07
12 4 4 o 26.756 27.115 180.00 0.92258 0.08
24 0 16 o 3.486 3.391 0.00 0.87336 0.00
26 1 13 o 7.144 7.057 180.00 0.87977 0.02
5 1 23 o 14.937 14.046 180.00 0.86884 0.03
5 3 17 o 27.417 25.658 0.00 0.89641 0.07
0 4 10 o 3463.750 3424.127 180.00 0.91582 4.74
0 0 24 o 103.175 93.061 0.00 0.86278 0.06
18 3 11 o 4.175 4.077 0.00 0.90414 0.01
28 0 12 o 33.024 32.669 180.00 0.87450 0.04
15 2 18 o 64.283 65.215 180.00 0.88585 0.16
13 4 2 o 24.260 24.776 180.00 0.92140 0.07
1 4 10 o 27.621 27.225 0.00 0.91534 0.08
1 0 24 o 1.944 1.779 0.00 0.86238 0.00
30 1 7 o 15.119 14.697 0.00 0.88052 0.04
8 4 8 o 0.491 0.492 180.00 0.91760 0.00
28 2 4 o 78.856 73.092 180.00 0.89483 0.20
29 1 9 o 11.606 11.402 0.00 0.88001 0.03
24 1 15 o 1.823 1.851 0.00 0.87751 0.00
2 0 24 o 45.025 43.475 0.00 0.86119 0.05
12 3 15 o 5.646 5.308 180.00 0.89704 0.01
2 4 10 o 46.957 45.962 180.00 0.91392 0.13
32 0 4 o 5.733 5.695 0.00 0.87485 0.01
13 0 22 o 6.228 5.744 0.00 0.86442 0.01
23 3 3 o 55.299 52.409 0.00 0.90678 0.15
11 4 6 o 19.053 18.806 180.00 0.91554 0.05
20 3 9 o 27.171 26.634 180.00 0.90380 0.07
10 2 20 o 102.950 104.109 180.00 0.87820 0.24
3 0 24 o 11.990 11.655 180.00 0.85922 0.01
3 4 10 o 0.045 0.043 0.00 0.91156 0.00
6 1 23 o 25.442 23.471 180.00 0.86441 0.06
4 4 10 o 74.962 71.490 180.00 0.90829 0.20
6 3 17 o 29.853 27.107 180.00 0.89154 0.07
18 0 20 o 87.248 83.543 180.00 0.86564 0.10
14 1 21 o 522.379 507.229 180.00 0.86665 1.17
9 4 8 o 12.829 12.354 180.00 0.90957 0.03
19 2 16 o 21.648 21.036 0.00 0.88241 0.05
4 0 24 o 12.760 11.903 180.00 0.85648 0.01
28 1 11 o 308.917 294.992 180.00 0.87240 0.71
16 3 13 o 1.793 1.654 180.00 0.89409 0.00
31 1 5 o 0.142 0.139 0.00 0.87390 0.00
13 4 4 o 2.196 2.129 180.00 0.91065 0.01
5 4 10 o 0.510 0.496 180.00 0.90414 0.00
7 1 23 o 37.963 36.800 180.00 0.85925 0.08
14 4 0 o 3884.662 3785.042 180.00 0.91211 5.24
5 0 24 o 104.437 104.139 180.00 0.85300 0.11
14 4 2 o 49.835 47.665 180.00 0.90859 0.13
7 3 17 o 35.035 35.242 180.00 0.88588 0.09
22 2 14 o 2.762 2.783 0.00 0.87813 0.01
24 2 12 o 17.770 17.307 180.00 0.88060 0.04
16 2 18 o 0.351 0.338 0.00 0.87279 0.00
31 0 8 o 31.744 28.945 180.00 0.86373 0.04
22 1 17 o 5.738 5.499 180.00 0.86584 0.01
22 0 18 o 6.120 5.876 0.00 0.85889 0.01
11 2 20 o 14.045 13.144 0.00 0.86951 0.03
13 3 15 o 0.597 0.598 0.00 0.88606 0.00
14 0 22 o 94.124 94.082 180.00 0.85381 0.10
6 4 10 o 220.834 211.658 180.00 0.89915 0.57
29 2 2 o 117.258 115.382 180.00 0.87993 0.28
30 0 10 o 13.912 13.371 0.00 0.86105 0.02
23 3 5 o 70.679 64.834 0.00 0.89318 0.18
22 3 7 o 0.291 0.267 180.00 0.89311 0.00
12 4 6 o 15.285 14.772 0.00 0.90479 0.04
19 1 19 o 122.445 118.175 0.00 0.86087 0.27
27 2 8 o 31.328 31.011 0.00 0.87955 0.07
6 0 24 o 0.436 0.358 0.00 0.84880 0.00
24 3 1 o 2.598 2.375 180.00 0.89237 0.01
32 1 1 o 13.721 13.243 0.00 0.86661 0.03
10 4 8 o 0.861 0.839 0.00 0.90083 0.00
28 2 6 o 137.354 137.685 0.00 0.87858 0.32
32 0 6 o 61.435 59.630 180.00 0.85964 0.07
8 1 23 o 71.243 71.000 0.00 0.85341 0.15
19 3 11 o 51.621 50.117 180.00 0.88766 0.13
8 3 17 o 13.012 12.887 0.00 0.87949 0.03
33 0 2 o 1.368 1.284 0.00 0.85776 0.00
15 1 21 o 96.398 93.193 180.00 0.85518 0.21
27 0 14 o 1.902 1.776 0.00 0.85726 0.00
26 2 10 o 362.233 351.700 180.00 0.87340 0.84
21 3 9 o 3.707 3.713 180.00 0.88561 0.01
25 0 16 o 6.652 6.598 180.00 0.85381 0.01
7 0 24 o 28.884 26.539 0.00 0.84391 0.03
25 1 15 o 55.188 51.797 0.00 0.85768 0.12
7 4 10 o 37.477 34.449 0.00 0.89335 0.09
19 0 20 o 10.440 9.054 180.00 0.85114 0.01
20 2 16 o 0.103 0.099 180.00 0.86625 0.00
14 4 4 o 71.619 68.109 0.00 0.89827 0.18
32 1 3 o 72.978 70.423 180.00 0.86060 0.16
27 1 13 o 20.815 19.696 180.00 0.85822 0.05
12 2 20 o 207.567 200.704 180.00 0.86029 0.45
24 3 3 o 27.393 27.355 0.00 0.88581 0.07
9 1 23 o 16.669 14.981 180.00 0.84694 0.03
17 3 13 o 10.760 10.605 180.00 0.87982 0.03
0 2 22 o 128.447 125.032 0.00 0.85480 0.14
13 4 6 o 30.250 27.855 180.00 0.89353 0.08
1 2 22 o 17.221 16.881 0.00 0.85441 0.04
29 0 12 o 17.902 16.317 0.00 0.85179 0.02
29 2 4 o 43.001 40.341 180.00 0.87055 0.10
30 1 9 o 1.387 1.313 180.00 0.85610 0.00
15 4 2 o 126.921 118.212 0.00 0.89540 0.32
31 1 7 o 19.249 18.325 180.00 0.85580 0.04
2 2 22 o 37.306 36.538 0.00 0.85326 0.08
9 3 17 o 22.792 21.796 0.00 0.87241 0.05
15 0 22 o 18.675 17.506 180.00 0.84284 0.02
14 3 15 o 26.658 26.298 180.00 0.87465 0.06
11 4 8 o 4.806 4.404 180.00 0.89147 0.01
17 2 18 o 37.614 36.259 180.00 0.85950 0.08
8 0 24 o 2.419 2.294 180.00 0.83838 0.00
3 2 22 o 57.049 50.433 0.00 0.85134 0.12
33 0 4 o 28.830 23.875 180.00 0.84906 0.03
8 4 10 o 320.489 315.509 0.00 0.88679 0.78
23 1 17 o 22.156 18.781 180.00 0.84829 0.05
25 2 12 o 56.189 53.929 0.00 0.86056 0.12
4 2 22 o 37.969 31.841 0.00 0.84867 0.08
10 1 23 o 0.220 0.212 0.00 0.83987 0.00
23 2 14 o 92.888 89.488 180.00 0.85984 0.20
23 0 18 o 15.378 14.827 180.00 0.84175 0.02
10 3 17 o 67.347 63.028 180.00 0.86469 0.15
20 1 19 o 34.882 32.095 0.00 0.84585 0.07
16 1 21 o 28.906 26.807 180.00 0.84341 0.06
29 1 11 o 102.007 84.827 180.00 0.84985 0.21
15 4 4 o 39.195 38.998 0.00 0.88552 0.10
32 1 5 o 0.000 0.000 180.00 0.84895 0.00
20 3 11 o 0.050 0.047 0.00 0.87122 0.00
9 4 10 o 1.358 1.342 180.00 0.87953 0.00
23 3 7 o 32.882 32.101 0.00 0.87388 0.08
16 4 0 o 8.420 8.383 180.00 0.88513 0.01
13 2 20 o 20.791 17.716 180.00 0.85059 0.04
0 4 12 o 79.924 79.545 180.00 0.87878 0.09
24 3 5 o 0.002 0.002 180.00 0.87312 0.00
12 4 8 o 6.294 6.151 0.00 0.88154 0.02
1 4 12 o 5.475 5.466 0.00 0.87836 0.01
5 2 22 o 92.363 85.170 180.00 0.84528 0.19
20 0 20 o 14.911 14.094 180.00 0.83662 0.01
3 4 12 o 6.539 6.464 180.00 0.87502 0.02
30 2 0 o 11.194 10.703 180.00 0.85897 0.01
9 0 24 o 145.811 146.510 180.00 0.83224 0.14
2 4 12 o 30.151 30.186 180.00 0.87710 0.07
15 3 15 o 2.839 2.634 180.00 0.86286 0.01
18 3 13 o 31.947 30.212 180.00 0.86541 0.07
16 4 2 o 8.379 8.201 180.00 0.88192 0.02
28 2 8 o 57.315 54.019 180.00 0.85724 0.12
22 3 9 o 42.306 40.379 0.00 0.86766 0.10
14 4 6 o 163.059 159.489 180.00 0.88183 0.39
4 4 12 o 6.080 5.806 180.00 0.87213 0.01
30 2 2 o 2.431 2.310 0.00 0.85603 0.01
16 0 22 o 12.314 11.988 180.00 0.83156 0.01
32 0 8 o 13.579 13.015 0.00 0.83962 0.01
25 3 1 o 9.726 9.227 180.00 0.87154 0.02
29 2 6 o 169.568 162.196 180.00 0.85556 0.36
6 2 22 o 0.128 0.124 0.00 0.84120 0.00
21 2 16 o 68.178 57.699 180.00 0.85019 0.14
28 0 14 o 1.492 1.413 0.00 0.83656 0.00
27 2 10 o 7.698 7.182 180.00 0.85231 0.02
11 1 23 o 0.063 0.063 0.00 0.83227 0.00
31 0 10 o 27.605 26.145 180.00 0.83788 0.03
11 3 17 o 1.359 1.287 0.00 0.85640 0.00
33 1 1 o 4.796 4.616 180.00 0.84152 0.01
18 2 18 o 2.097 1.914 0.00 0.84605 0.00
26 0 16 o 2.791 2.740 0.00 0.83479 0.00
10 4 10 o 65.101 61.886 0.00 0.87163 0.15
26 1 15 o 0.256 0.243 180.00 0.83841 0.00
5 4 12 o 72.721 69.045 0.00 0.86845 0.16
25 3 3 o 1.203 1.137 0.00 0.86543 0.00
10 0 24 o 0.201 0.163 180.00 0.82553 0.00
17 1 21 o 8.788 8.466 180.00 0.83140 0.02
34 0 0 o 11.602 11.203 0.00 0.83540 0.01
28 1 13 o 50.434 47.732 180.00 0.83745 0.10
33 0 6 o 0.111 0.108 0.00 0.83513 0.00
0 3 19 o 0.081 0.070 0.00 0.85082 0.00
7 2 22 o 28.100 26.679 0.00 0.83644 0.06
1 3 19 o 3.113 2.669 0.00 0.85044 0.01
14 2 20 o 2117.503 2042.298 180.00 0.84048 4.27
13 4 8 o 71.946 68.171 180.00 0.87111 0.16
2 3 19 o 2.233 1.886 180.00 0.84930 0.00
21 1 19 o 0.039 0.037 180.00 0.83088 0.00
34 0 2 o 27.626 27.705 180.00 0.83269 0.03
30 0 12 o 5.140 4.668 180.00 0.83005 0.00
15 4 6 o 165.141 156.076 0.00 0.86976 0.38
6 4 12 o 3.590 3.351 0.00 0.86402 0.01
33 1 3 o 1.887 1.802 180.00 0.83602 0.00
16 4 4 o 28.930 27.759 180.00 0.87247 0.07
31 1 9 o 14.740 14.775 180.00 0.83332 0.03
3 3 19 o 33.778 29.718 0.00 0.84740 0.07
30 2 4 o 52.555 46.269 0.00 0.84738 0.11
24 1 17 o 97.298 92.118 0.00 0.83105 0.19
21 3 11 o 1.151 1.106 0.00 0.85489 0.00
24 2 14 o 1.497 1.428 180.00 0.84190 0.00
12 1 23 o 22.805 19.096 180.00 0.82417 0.04
26 2 12 o 77.076 74.070 180.00 0.84110 0.16
16 3 15 o 0.135 0.118 0.00 0.85078 0.00
24 0 18 o 29.580 24.430 0.00 0.82489 0.03
8 2 22 o 15.598 14.765 180.00 0.83105 0.03
12 3 17 o 23.235 20.346 180.00 0.84758 0.05
4 3 19 o 12.030 11.097 0.00 0.84478 0.02
11 0 24 o 10.058 8.624 180.00 0.81831 0.01
24 3 7 o 45.707 43.833 180.00 0.85507 0.10
21 0 20 o 66.957 54.554 0.00 0.82212 0.06
17 0 22 o 23.550 18.913 180.00 0.82005 0.02
11 4 10 o 2.958 2.759 180.00 0.86314 0.01
32 1 7 o 13.198 13.073 0.00 0.83232 0.03
5 3 19 o 52.142 49.941 180.00 0.84143 0.11
17 4 2 o 8.461 8.040 0.00 0.86821 0.02
19 3 13 o 0.209 0.183 180.00 0.85092 0.00
25 3 5 o 43.974 42.036 180.00 0.85358 0.09
34 0 4 o 4.688 3.886 180.00 0.82473 0.00
7 4 12 o 1.739 1.657 180.00 0.85887 0.00
30 1 11 o 13.283 11.366 180.00 0.82825 0.03
19 2 18 o 6.574 6.508 180.00 0.83250 0.01
15 2 20 o 44.228 40.171 0.00 0.83001 0.09
22 2 16 o 2.552 2.520 180.00 0.83427 0.01
14 4 8 o 52.136 49.655 0.00 0.86026 0.11
6 3 19 o 21.929 20.809 180.00 0.83740 0.04
18 1 21 o 9.164 7.584 180.00 0.81921 0.02
23 3 9 o 21.221 18.252 180.00 0.85000 0.04
33 1 5 o 168.157 138.094 0.00 0.82532 0.32
9 2 22 o 56.021 46.176 180.00 0.82507 0.11
29 2 8 o 199.214 191.232 180.00 0.83581 0.39
26 3 1 o 43.116 38.551 0.00 0.85134 0.09
13 1 23 o 24.436 23.344 180.00 0.81563 0.04
0 1 25 o 60.305 61.700 180.00 0.81175 0.05
1 1 25 o 24.459 24.841 0.00 0.81142 0.04
17 4 4 o 48.213 45.934 0.00 0.85920 0.11
8 4 12 o 0.986 0.930 180.00 0.85304 0.00
12 0 24 o 55.285 53.937 180.00 0.81061 0.05
28 2 10 o 2705.276 2631.028 180.00 0.83195 5.25
27 0 16 o 13.132 12.351 180.00 0.81631 0.01
2 1 25 o 5.394 5.200 180.00 0.81042 0.01
30 2 6 o 60.317 59.777 180.00 0.83354 0.12
27 1 15 o 1.585 1.296 180.00 0.81970 0.00
17 3 15 o 0.939 0.893 0.00 0.83846 0.00
13 3 17 o 19.386 18.425 180.00 0.83830 0.04
31 2 2 o 1.925 1.907 180.00 0.83325 0.00
16 4 6 o 33.492 31.772 0.00 0.85738 0.07
18 4 0 o 73.539 69.778 180.00 0.85728 0.08
12 4 10 o 156.155 149.304 0.00 0.85411 0.33
26 3 3 o 0.569 0.519 180.00 0.84564 0.00
7 3 19 o 4.054 3.998 0.00 0.83271 0.01
33 0 8 o 2.413 2.231 0.00 0.81674 0.00
3 1 25 o 3.173 2.896 0.00 0.80878 0.01
29 0 14 o 6.539 6.079 0.00 0.81662 0.01
22 1 19 o 26.125 24.736 180.00 0.81600 0.05
32 0 10 o 37.832 35.943 180.00 0.81582 0.03
4 1 25 o 13.156 14.608 180.00 0.80649 0.02
18 0 22 o 17.937 16.748 180.00 0.80834 0.02
18 4 2 o 1.229 1.174 180.00 0.85436 0.00
10 2 22 o 42.953 36.637 180.00 0.81854 0.08
34 1 1 o 3.550 3.122 180.00 0.81782 0.01
25 2 14 o 0.101 0.084 180.00 0.82434 0.00
29 1 13 o 66.519 59.503 0.00 0.81744 0.12
20 3 13 o 0.136 0.130 180.00 0.83641 0.00
16 2 20 o 7.109 5.916 180.00 0.81923 0.01
22 3 11 o 0.623 0.593 180.00 0.83871 0.00
9 4 12 o 39.307 35.278 0.00 0.84657 0.08
25 1 17 o 3.290 3.168 180.00 0.81415 0.01
34 0 6 o 9.838 9.955 0.00 0.81195 0.01
15 4 8 o 159.623 137.979 0.00 0.84904 0.33
22 0 20 o 200.928 197.630 0.00 0.80770 0.18
5 1 25 o 2.416 2.656 180.00 0.80358 0.00
8 3 19 o 23.490 19.664 0.00 0.82739 0.04
0 4 14 o 2.267 2.168 180.00 0.84031 0.00
1 4 14 o 0.009 0.009 0.00 0.83994 0.00
14 1 23 o 15.142 16.417 180.00 0.80670 0.03
25 3 7 o 3.691 3.521 0.00 0.83669 0.01
13 0 24 o 1.803 1.889 0.00 0.80248 0.00
25 0 18 o 17.201 16.148 180.00 0.80836 0.02
13 4 10 o 5.797 5.348 0.00 0.84462 0.01
14 3 17 o 0.720 0.626 180.00 0.82862 0.00
20 2 18 o 6.409 5.406 0.00 0.81889 0.01
2 4 14 o 41.770 39.793 180.00 0.83884 0.08
31 2 4 o 43.808 36.186 180.00 0.82527 0.08
31 0 12 o 0.718 0.664 180.00 0.80924 0.00
35 0 2 o 1.095 1.013 180.00 0.80905 0.00
19 1 21 o 57.975 61.598 0.00 0.80689 0.10
27 2 12 o 11.184 9.198 180.00 0.82221 0.02
34 1 3 o 0.088 0.087 180.00 0.81276 0.00
3 4 14 o 21.587 20.565 0.00 0.83702 0.04
0 0 26 o 56.305 62.468 0.00 0.79641 0.02
6 1 25 o 31.613 32.729 180.00 0.80007 0.05
10 4 12 o 12.798 12.214 0.00 0.83952 0.03
1 0 26 o 103.329 112.640 180.00 0.79610 0.09
17 4 6 o 57.025 52.512 0.00 0.84478 0.12
23 2 16 o 0.424 0.363 180.00 0.81854 0.00
32 1 9 o 25.621 25.718 180.00 0.81161 0.05
11 2 22 o 71.287 71.416 0.00 0.81149 0.13
2 0 26 o 4.960 5.097 0.00 0.79516 0.00
24 3 9 o 1.903 1.860 0.00 0.83265 0.00
26 3 5 o 0.753 0.734 0.00 0.83458 0.00
33 1 7 o 6.779 6.440 180.00 0.81003 0.01
18 4 4 o 0.876 0.797 180.00 0.84576 0.00
4 4 14 o 0.638 0.623 0.00 0.83449 0.00
9 3 19 o 55.301 45.218 180.00 0.82149 0.10
31 1 11 o 7.842 7.836 0.00 0.80758 0.01
3 0 26 o 27.482 26.530 180.00 0.79361 0.02
18 3 15 o 0.767 0.634 180.00 0.82596 0.00
7 1 25 o 632.233 681.861 0.00 0.79597 1.05
19 4 2 o 3.249 3.100 0.00 0.84041 0.01
16 4 8 o 5.202 4.954 0.00 0.83752 0.01
4 0 26 o 51.745 51.401 180.00 0.79145 0.04
27 3 1 o 19.716 18.912 180.00 0.83177 0.04
19 0 22 o 84.352 93.198 0.00 0.79649 0.07
5 4 14 o 128.019 121.044 0.00 0.83126 0.25
14 0 24 o 63.987 62.569 180.00 0.79397 0.05
30 2 8 o 0.232 0.221 180.00 0.81525 0.00
35 0 4 o 14.759 15.192 0.00 0.80174 0.01
17 2 20 o 15.705 15.086 180.00 0.80822 0.03
15 1 23 o 41.594 46.511 0.00 0.79743 0.07
23 1 19 o 45.187 46.243 0.00 0.80126 0.08
32 2 0 o 19.136 18.511 0.00 0.81405 0.02
28 0 16 o 80.587 88.279 180.00 0.79838 0.07
14 4 10 o 3009.240 2924.576 0.00 0.83471 5.91
11 4 12 o 41.929 40.268 180.00 0.83192 0.08
27 3 3 o 11.935 9.935 0.00 0.82645 0.02
5 0 26 o 33.394 37.963 0.00 0.78870 0.03
15 3 17 o 26.112 22.389 0.00 0.81858 0.05
12 2 22 o 45.458 50.417 180.00 0.80398 0.08
30 0 14 o 21.574 24.034 180.00 0.79740 0.02
28 1 15 o 9.557 9.824 0.00 0.80154 0.02
8 1 25 o 67.021 67.249 0.00 0.79133 0.11
23 3 11 o 8.242 6.835 180.00 0.82272 0.02
10 3 19 o 0.631 0.601 180.00 0.81504 0.00
31 2 6 o 34.150 33.928 180.00 0.81247 0.06
29 2 10 o 9.313 9.271 0.00 0.81233 0.02
34 1 5 o 1.191 1.272 180.00 0.80293 0.00
6 4 14 o 4.889 4.130 0.00 0.82738 0.01
21 3 13 o 11.037 9.090 180.00 0.82192 0.02
32 2 2 o 0.092 0.092 180.00 0.81154 0.00
26 1 17 o 4.427 4.911 0.00 0.79761 0.01
23 0 20 o 24.120 23.376 180.00 0.79340 0.02
6 0 26 o 9.102 10.259 180.00 0.78538 0.01
33 0 10 o 12.353 12.523 180.00 0.79479 0.01
20 1 21 o 15.729 15.736 180.00 0.79448 0.03
21 2 18 o 39.280 44.312 180.00 0.80529 0.07
26 0 18 o 7.632 7.443 0.00 0.79216 0.01
26 2 14 o 15.864 16.332 180.00 0.80719 0.03
30 1 13 o 10.934 12.000 0.00 0.79817 0.02
34 0 8 o 32.425 33.217 0.00 0.79502 0.03
19 4 4 o 47.862 46.082 0.00 0.83222 0.09
18 4 6 o 35.677 34.222 0.00 0.83200 0.07
0 2 24 o 94.829 96.116 0.00 0.79477 0.08
1 2 24 o 1.188 1.190 0.00 0.79445 0.00
24 2 16 o 4.856 5.203 0.00 0.80301 0.01
9 1 25 o 8.211 9.666 180.00 0.78616 0.01
7 4 14 o 23.574 19.581 180.00 0.82285 0.04
13 2 22 o 3.001 3.225 0.00 0.79605 0.00
2 2 24 o 46.150 45.046 0.00 0.79352 0.08
7 0 26 o 59.679 59.210 180.00 0.78150 0.05
15 0 24 o 0.115 0.127 180.00 0.78512 0.00
15 4 10 o 41.312 34.431 180.00 0.82445 0.08
28 2 12 o 32.204 35.421 180.00 0.80389 0.06
26 3 7 o 0.261 0.223 0.00 0.81877 0.00
19 3 15 o 36.195 35.419 0.00 0.81333 0.06
12 4 12 o 73.305 61.102 0.00 0.82383 0.14
11 3 19 o 3.145 3.076 0.00 0.80808 0.01
25 3 9 o 2.509 2.361 180.00 0.81566 0.00
35 0 6 o 2.191 2.363 180.00 0.78998 0.00
3 2 24 o 12.175 11.982 180.00 0.79198 0.02
16 1 23 o 1.119 1.304 180.00 0.78786 0.00
20 4 0 o 113.748 100.649 180.00 0.82906 0.11
17 4 8 o 28.069 23.398 0.00 0.82576 0.05
32 0 12 o 7.975 8.846 180.00 0.78931 0.01
35 1 1 o 11.350 11.838 0.00 0.79538 0.02
36 0 0 o 362.943 406.883 180.00 0.78899 0.15
32 2 4 o 4.596 5.082 0.00 0.80417 0.01
20 0 22 o 8.501 8.906 0.00 0.78456 0.01
18 2 20 o 69.579 76.630 180.00 0.79700 0.12
27 3 5 o 11.223 10.444 0.00 0.81612 0.02
16 3 17 o 0.204 0.199 0.00 0.80824 0.00
4 2 24 o 9.251 10.041 180.00 0.78983 0.01
20 4 2 o 4.964 4.159 0.00 0.82642 0.01
8 4 14 o 0.244 0.216 180.00 0.81772 0.00
36 0 2 o 3.308 3.898 180.00 0.78671 0.00
33 1 9 o 39.392 40.606 0.00 0.79089 0.06
24 1 19 o 0.486 0.572 180.00 0.78668 0.00
8 0 26 o 11.695 11.706 0.00 0.77710 0.01
35 1 3 o 2.258 2.346 0.00 0.79073 0.00
10 1 25 o 21.713 22.267 0.00 0.78050 0.03
0 3 21 o 360.419 389.513 0.00 0.79859 0.30
12 3 19 o 0.904 0.938 0.00 0.80066 0.00
1 3 21 o 56.251 61.171 0.00 0.79828 0.09
5 2 24 o 85.210 100.251 180.00 0.78710 0.14
34 1 7 o 0.470 0.529 0.00 0.78882 0.00
28 3 1 o 65.732 64.595 0.00 0.81282 0.12
22 3 13 o 9.468 9.564 0.00 0.80751 0.02
13 4 12 o 2.274 2.151 0.00 0.81530 0.00
2 3 21 o 15.982 17.522 0.00 0.79734 0.03
24 3 11 o 0.405 0.421 0.00 0.80697 0.00
32 1 11 o 1.170 1.358 180.00 0.78776 0.00
14 2 22 o 82.157 95.348 180.00 0.78774 0.13
24 0 20 o 79.931 81.805 0.00 0.77924 0.06
22 2 18 o 7.700 7.692 0.00 0.79172 0.01
29 0 16 o 281.576 284.608 0.00 0.78099 0.22
19 4 6 o 0.978 0.834 0.00 0.81910 0.00
3 3 21 o 22.225 23.521 0.00 0.79577 0.04
31 2 8 o 24.219 25.372 180.00 0.79550 0.04
28 3 3 o 51.202 51.000 0.00 0.80786 0.09
20 4 4 o 7.778 6.710 0.00 0.81863 0.01
21 1 21 o 5.495 5.398 0.00 0.78204 0.01
29 1 15 o 2.982 3.018 0.00 0.78395 0.00
16 0 24 o 12.479 13.464 180.00 0.77599 0.01
9 0 26 o 13.995 16.371 0.00 0.77220 0.01
6 2 24 o 0.267 0.268 0.00 0.78380 0.00
9 4 14 o 112.887 111.227 0.00 0.81202 0.20
4 3 21 o 2.519 2.490 0.00 0.79359 0.00
11 1 25 o 25.105 27.270 0.00 0.77438 0.04
16 4 10 o 7.100 6.868 0.00 0.81389 0.01
30 2 10 o 8.483 8.366 0.00 0.79341 0.01
20 3 15 o 5.538 5.764 180.00 0.80063 0.01
18 4 8 o 0.224 0.217 0.00 0.81381 0.00
17 1 23 o 17.390 17.179 0.00 0.77804 0.03
36 0 4 o 17.463 17.983 0.00 0.77998 0.01
17 3 17 o 6.654 7.255 180.00 0.79765 0.01
27 2 14 o 2.937 3.093 0.00 0.79045 0.00
27 1 17 o 5.139 5.132 0.00 0.78145 0.01
19 2 20 o 9.105 10.245 180.00 0.78564 0.01
32 2 6 o 51.577 51.056 180.00 0.79231 0.08
31 0 14 o 37.358 37.819 0.00 0.77890 0.03
27 0 18 o 27.770 29.331 180.00 0.77632 0.02
7 2 24 o 19.016 19.565 0.00 0.77995 0.03
33 2 2 o 0.522 0.541 0.00 0.79083 0.00
5 3 21 o 29.314 30.383 180.00 0.79082 0.05
10 4 14 o 2.631 2.852 0.00 0.80579 0.00
31 1 13 o 16.614 17.062 0.00 0.77962 0.03
35 1 5 o 438.637 436.292 0.00 0.78167 0.68
13 3 19 o 0.981 0.969 180.00 0.79283 0.00
25 2 16 o 5.255 6.064 180.00 0.78774 0.01
21 0 22 o 29.568 33.717 180.00 0.77257 0.02
10 0 26 o 12.976 17.238 0.00 0.76684 0.01
0 4 16 o 169.223 176.919 180.00 0.80164 0.14
26 3 9 o 18.151 19.374 180.00 0.79903 0.03
21 4 2 o 0.112 0.110 0.00 0.81244 0.00
1 4 16 o 134.215 140.014 0.00 0.80132 0.23
27 3 7 o 0.689 0.718 0.00 0.80132 0.00
14 4 12 o 58.728 62.323 0.00 0.80638 0.10
29 2 12 o 16.090 18.375 0.00 0.78615 0.03
15 2 22 o 11.527 11.734 180.00 0.77910 0.02
2 4 16 o 0.858 0.898 0.00 0.80036 0.00
34 0 10 o 5.179 5.646 180.00 0.77473 0.00
35 0 8 o 16.594 18.079 180.00 0.77436 0.01
6 3 21 o 19.243 22.220 0.00 0.78747 0.03
0 5 1 o 141.151 130.351 0.00 0.81626 0.13
1 5 1 o 82.400 76.714 0.00 0.81592 0.15
12 1 25 o 4.487 6.603 0.00 0.76785 0.01
8 2 24 o 2.035 2.204 180.00 0.77557 0.00
3 4 16 o 43.399 46.487 0.00 0.79878 0.07
23 3 13 o 41.018 40.739 180.00 0.79322 0.07
2 5 1 o 25.172 23.915 0.00 0.81491 0.05
28 3 5 o 1.545 1.668 180.00 0.79820 0.00
20 4 6 o 1.907 2.034 180.00 0.80613 0.00
17 0 24 o 16.468 21.547 0.00 0.76660 0.01
25 1 19 o 0.019 0.022 180.00 0.77230 0.00
18 1 23 o 7.458 11.128 0.00 0.76802 0.01
22 1 21 o 7.733 12.128 0.00 0.76960 0.01
3 5 1 o 7.087 6.893 0.00 0.81324 0.01
4 4 16 o 26.469 28.425 0.00 0.79658 0.04
11 4 14 o 4.552 4.852 0.00 0.79906 0.01
33 2 4 o 25.381 26.038 180.00 0.78400 0.04
11 0 26 o 19.095 24.787 180.00 0.76104 0.01
7 3 21 o 0.874 0.881 180.00 0.78356 0.00
33 0 12 o 8.186 12.204 0.00 0.77022 0.01
36 1 1 o 43.565 47.630 0.00 0.77413 0.07
23 2 18 o 15.904 15.996 180.00 0.77823 0.02
17 4 10 o 4.198 4.496 0.00 0.80309 0.01
25 0 20 o 17.922 22.563 180.00 0.76526 0.01
36 0 6 o 3.796 5.984 180.00 0.76914 0.00
14 3 19 o 1.399 1.480 180.00 0.78462 0.00
0 5 3 o 108.049 105.701 0.00 0.81123 0.10
3 5 3 o 1.090 1.081 180.00 0.80827 0.00
29 3 1 o 44.450 45.193 0.00 0.79449 0.07
18 3 17 o 4.918 5.648 180.00 0.78686 0.01
4 5 1 o 1.126 1.100 0.00 0.81092 0.00
1 5 3 o 3.138 3.065 180.00 0.81090 0.01
9 2 24 o 97.985 137.764 180.00 0.77070 0.14
21 4 4 o 14.570 15.842 180.00 0.80504 0.03
25 3 11 o 13.713 13.947 0.00 0.79147 0.02
5 4 16 o 9.579 9.604 180.00 0.79377 0.02
19 4 8 o 0.433 0.454 0.00 0.80172 0.00
20 2 20 o 8.372 9.164 180.00 0.77418 0.01
2 5 3 o 0.186 0.181 180.00 0.80991 0.00
21 3 15 o 564.952 643.667 0.00 0.78790 0.90
34 1 9 o 14.664 19.589 0.00 0.77112 0.02
13 1 25 o 25.069 32.352 0.00 0.76093 0.04
4 5 3 o 1.704 1.815 180.00 0.80599 0.00
33 1 11 o 41.614 64.317 0.00 0.76878 0.06
22 0 22 o 7.470 9.550 0.00 0.76056 0.01
15 4 12 o 17.384 18.734 180.00 0.79712 0.03
30 0 16 o 36.427 45.033 0.00 0.76413 0.03
16 2 22 o 8.475 12.510 180.00 0.77017 0.01
8 3 21 o 12.991 13.234 180.00 0.77913 0.02
5 5 1 o 0.614 0.615 180.00 0.80796 0.00
28 1 17 o 2.134 2.709 180.00 0.76567 0.00
36 1 3 o 0.051 0.077 0.00 0.76983 0.00
37 0 2 o 24.317 30.785 180.00 0.76556 0.02
6 5 1 o 9.499 10.282 180.00 0.80439 0.02
22 4 2 o 0.586 0.627 180.00 0.79851 0.00
30 1 15 o 1.838 2.472 180.00 0.76690 0.00
6 4 16 o 0.219 0.231 180.00 0.79038 0.00
18 0 24 o 36.612 41.331 0.00 0.75701 0.03
22 4 0 o 379.599 397.738 0.00 0.80090 0.32
35 1 7 o 30.162 46.244 0.00 0.76863 0.04
12 0 26 o 10.974 12.797 180.00 0.75483 0.01
31 2 10 o 23.593 25.588 180.00 0.77518 0.04
29 3 3 o 11.429 12.295 180.00 0.78985 0.02
26 2 16 o 3.195 3.674 0.00 0.77273 0.00
5 5 3 o 4.646 4.968 180.00 0.80308 0.01
12 4 14 o 37.359 37.747 0.00 0.79189 0.06
32 2 8 o 9.424 9.847 0.00 0.77655 0.01
10 2 24 o 0.163 0.206 180.00 0.76537 0.00
28 2 14 o 0.174 0.191 0.00 0.77413 0.00
32 0 14 o 7.362 9.487 0.00 0.76108 0.01
28 0 18 o 35.975 46.228 0.00 0.76085 0.03
0 5 5 o 4.998 5.251 180.00 0.80145 0.00
1 5 5 o 33.262 34.910 180.00 0.80113 0.06
19 1 23 o 2.072 2.407 0.00 0.75784 0.00
0 1 27 o 10.771 13.113 0.00 0.75374 0.01
28 3 7 o 9.144 9.576 180.00 0.78433 0.01
1 1 27 o 9.576 11.804 0.00 0.75348 0.01
18 4 10 o 62.344 62.940 0.00 0.79208 0.10
9 3 21 o 21.302 23.398 180.00 0.77419 0.03
7 5 1 o 6.629 6.977 0.00 0.80023 0.01
2 5 5 o 0.435 0.458 180.00 0.80018 0.00
7 4 16 o 19.274 21.790 0.00 0.78644 0.03
15 3 19 o 12.215 12.963 180.00 0.77608 0.02
2 1 27 o 9.410 12.026 180.00 0.75268 0.01
6 5 3 o 0.471 0.498 180.00 0.79958 0.00
34 2 0 o 6.926 7.810 0.00 0.77321 0.01
33 2 6 o 0.005 0.006 180.00 0.77300 0.00
27 3 9 o 8.574 8.606 180.00 0.78278 0.01
32 1 13 o 43.781 56.340 0.00 0.76175 0.06
14 1 25 o 26.771 32.715 0.00 0.75366 0.04
21 4 6 o 0.677 0.679 0.00 0.79314 0.00
36 1 5 o 3.851 4.954 0.00 0.76146 0.01
16 4 12 o 8.669 9.812 0.00 0.78757 0.01
37 0 4 o 31.263 38.549 180.00 0.75936 0.02
3 5 5 o 4.507 4.815 0.00 0.79859 0.01
23 1 21 o 13.859 15.790 0.00 0.75719 0.02
3 1 27 o 7.102 9.321 180.00 0.75137 0.01
20 4 8 o 2.723 2.952 180.00 0.78955 0.00
24 3 13 o 21.801 22.225 180.00 0.77907 0.03
24 2 18 o 18.465 23.145 0.00 0.76486 0.03
26 1 19 o 1.203 1.417 0.00 0.75814 0.00
30 2 12 o 2.797 4.223 180.00 0.76896 0.00
19 3 17 o 8.965 9.552 180.00 0.77592 0.01
10 3 21 o 0.037 0.055 180.00 0.76879 0.00
34 2 2 o 22.794 30.334 180.00 0.77106 0.03
22 4 4 o 22.047 22.568 180.00 0.79148 0.04
29 3 5 o 54.311 55.056 180.00 0.78082 0.08
13 0 26 o 52.694 67.443 180.00 0.74825 0.03
35 0 10 o 21.733 24.882 0.00 0.75558 0.01
11 2 24 o 7.075 8.778 180.00 0.75960 0.01
4 1 27 o 70.477 92.591 180.00 0.74953 0.09
22 3 15 o 66.972 72.540 0.00 0.77518 0.10
4 5 5 o 2.069 2.197 180.00 0.79639 0.00
17 2 22 o 13.293 17.026 180.00 0.76099 0.02
8 4 16 o 6.526 6.555 0.00 0.78195 0.01
21 2 20 o 37.284 47.144 0.00 0.76265 0.05
8 5 1 o 3.468 3.620 0.00 0.79551 0.01
7 5 3 o 14.178 14.798 0.00 0.79549 0.02
13 4 14 o 2.179 2.283 180.00 0.78430 0.00
26 3 11 o 50.266 53.086 180.00 0.77625 0.08
26 0 20 o 207.628 271.329 0.00 0.75147 0.14
19 0 24 o 84.517 105.731 0.00 0.74726 0.06
5 1 27 o 8.652 10.812 180.00 0.74720 0.01
36 0 8 o 12.426 14.591 0.00 0.75470 0.01
23 0 22 o 18.652 24.012 0.00 0.74858 0.01
5 5 5 o 30.747 31.075 0.00 0.79359 0.05
16 3 19 o 0.090 0.124 180.00 0.76725 0.00
9 4 16 o 0.262 0.272 180.00 0.77696 0.00
34 0 12 o 18.341 23.772 0.00 0.75192 0.01
34 2 4 o 3.873 4.853 180.00 0.76473 0.01
30 3 1 o 3.528 3.677 0.00 0.77676 0.01
0 0 28 o 59.118 68.673 180.00 0.73953 0.02
1 0 28 o 13.544 15.694 180.00 0.73927 0.01
6 1 27 o 31.850 37.513 0.00 0.74437 0.04
11 3 21 o 18.666 23.450 0.00 0.76294 0.03
15 1 25 o 13.002 15.905 180.00 0.74608 0.02
37 1 1 o 1.040 1.255 0.00 0.75395 0.00
8 5 3 o 0.069 0.071 180.00 0.79085 0.00
2 0 28 o 0.405 0.462 180.00 0.73852 0.00
20 1 23 o 5.020 6.311 0.00 0.74754 0.01
37 0 6 o 6.675 8.694 180.00 0.74935 0.00
12 2 24 o 44.820 55.242 180.00 0.75343 0.06
23 4 2 o 16.361 17.403 0.00 0.78468 0.03
0 5 7 o 64.977 72.994 180.00 0.78742 0.05
9 5 1 o 0.105 0.111 0.00 0.79025 0.00
6 5 5 o 3.798 4.032 180.00 0.79021 0.01
14 0 26 o 37.170 43.664 180.00 0.74134 0.02
14 4 14 o 0.556 0.586 0.00 0.77635 0.00
1 5 7 o 5.917 6.647 0.00 0.78712 0.01
31 1 15 o 1.408 1.845 180.00 0.75040 0.00
29 1 17 o 23.598 30.949 180.00 0.75029 0.03
35 1 9 o 1.523 1.954 0.00 0.75223 0.00
19 4 10 o 9.238 9.364 0.00 0.78093 0.01
7 5 5 o 691.048 768.298 0.00 0.78626 1.10
31 0 16 o 34.408 43.487 0.00 0.74780 0.02
2 5 7 o 1.246 1.385 180.00 0.78621 0.00
29 0 18 o 121.813 147.980 0.00 0.74575 0.08
29 2 14 o 6.220 7.368 0.00 0.75824 0.01
17 4 12 o 0.187 0.192 0.00 0.77776 0.00
38 0 0 o 65.069 81.629 180.00 0.74746 0.02
30 3 3 o 14.604 17.336 180.00 0.77243 0.02
27 2 16 o 8.462 9.940 180.00 0.75800 0.01
20 3 17 o 16.975 21.352 0.00 0.76487 0.02
22 4 6 o 26.742 27.247 0.00 0.78017 0.04
7 1 27 o 27.917 32.729 0.00 0.74107 0.04
3 0 28 o 18.496 19.817 180.00 0.73728 0.01
34 1 11 o 0.161 0.211 0.00 0.75058 0.00
10 4 16 o 4.134 5.251 180.00 0.77150 0.01
3 5 7 o 1.766 1.881 180.00 0.78471 0.00
37 1 3 o 27.308 35.707 180.00 0.74999 0.04
38 0 2 o 36.889 44.583 180.00 0.74552 0.02
33 2 8 o 0.862 1.025 0.00 0.75834 0.00
18 2 22 o 10.707 13.885 180.00 0.75161 0.01
29 3 7 o 3.021 4.262 0.00 0.76783 0.00
36 1 7 o 0.390 0.507 180.00 0.74940 0.00
25 3 13 o 0.147 0.186 0.00 0.76509 0.00
23 4 4 o 28.344 29.094 0.00 0.77801 0.04
22 2 20 o 124.801 162.524 0.00 0.75109 0.17
13 2 24 o 1.291 1.600 0.00 0.74689 0.00
24 1 21 o 1.812 2.159 0.00 0.74485 0.00
4 0 28 o 1.832 1.826 180.00 0.73555 0.00
32 2 10 o 27.837 32.352 180.00 0.75761 0.04
28 3 9 o 4.779 6.443 180.00 0.76693 0.01
21 4 8 o 18.750 19.389 0.00 0.77733 0.03
9 5 3 o 21.358 23.427 180.00 0.78569 0.03
27 1 19 o 0.152 0.179 0.00 0.74422 0.00
4 5 7 o 1.065 1.081 180.00 0.78262 0.00
33 0 14 o 71.511 83.770 0.00 0.74392 0.05
12 3 21 o 26.127 29.946 180.00 0.75669 0.04
8 5 5 o 15.275 15.468 0.00 0.78178 0.02
25 2 18 o 14.159 18.313 180.00 0.75162 0.02
10 5 1 o 0.960 1.016 180.00 0.78451 0.00
20 0 24 o 0.795 0.856 180.00 0.73737 0.00
8 1 27 o 31.210 33.505 180.00 0.73731 0.04
17 3 19 o 26.345 31.171 180.00 0.75818 0.04
5 0 28 o 10.613 10.628 180.00 0.73334 0.01
33 1 13 o 0.052 0.061 180.00 0.74454 0.00
23 3 15 o 13.925 17.583 180.00 0.76251 0.02
16 1 25 o 1.078 1.211 180.00 0.73823 0.00
0 2 26 o 43.656 51.172 0.00 0.74199 0.03
31 2 12 o 0.735 0.936 180.00 0.75233 0.00
1 2 26 o 84.811 99.433 180.00 0.74174 0.11
15 0 26 o 150.055 149.100 0.00 0.73412 0.09
34 2 6 o 10.025 11.888 0.00 0.75450 0.01
10 5 3 o 4.411 4.500 180.00 0.78004 0.01
5 5 7 o 20.314 20.727 180.00 0.77996 0.03
30 3 5 o 0.147 0.184 0.00 0.76397 0.00
27 3 11 o 20.025 25.375 0.00 0.76132 0.03
0 4 18 o 46.361 57.968 0.00 0.76367 0.03
2 2 26 o 3.762 4.399 0.00 0.74098 0.00
1 4 18 o 40.538 50.742 0.00 0.76339 0.06
11 4 16 o 26.177 33.533 0.00 0.76559 0.04
24 0 22 o 15.020 15.583 0.00 0.73665 0.01
15 4 14 o 2.056 2.913 180.00 0.76808 0.00
0 3 23 o 10.294 13.384 0.00 0.75096 0.01
24 4 0 o 55.162 63.554 0.00 0.77312 0.04
1 3 23 o 24.509 31.910 180.00 0.75070 0.03
2 4 18 o 0.086 0.108 0.00 0.76256 0.00
6 0 28 o 1.667 1.792 0.00 0.73066 0.00
27 0 20 o 27.287 30.196 0.00 0.73791 0.02
11 5 1 o 7.574 7.782 0.00 0.77830 0.01
38 0 4 o 7.669 8.886 180.00 0.73979 0.00
3 2 26 o 19.218 22.254 180.00 0.73972 0.02
20 4 10 o 39.888 56.440 0.00 0.76966 0.06
2 3 23 o 1.780 2.316 0.00 0.74991 0.00
35 2 2 o 1.164 1.486 180.00 0.75218 0.00
21 1 23 o 27.434 29.190 0.00 0.73714 0.03
9 1 27 o 10.371 10.434 180.00 0.73312 0.01
3 4 18 o 10.205 12.909 0.00 0.76119 0.01
9 5 5 o 0.877 0.919 180.00 0.77679 0.00
6 5 7 o 4.361 4.570 0.00 0.77675 0.01
37 1 5 o 31.597 36.985 180.00 0.74224 0.04
24 4 2 o 15.982 20.978 0.00 0.77098 0.02
3 3 23 o 3.701 4.734 180.00 0.74861 0.00
14 2 24 o 56.910 66.020 180.00 0.74001 0.07
19 2 22 o 74.705 87.445 0.00 0.74206 0.10
4 2 26 o 43.099 47.759 180.00 0.73797 0.05
18 4 12 o 2.945 4.110 0.00 0.76775 0.00
36 0 10 o 264.159 283.136 0.00 0.73728 0.17
13 3 21 o 20.283 26.351 0.00 0.75006 0.03
31 3 1 o 12.111 14.921 180.00 0.75963 0.02
7 0 28 o 29.461 30.818 180.00 0.72754 0.02
4 4 18 o 0.728 0.889 0.00 0.75929 0.00
4 3 23 o 8.480 10.479 180.00 0.74679 0.01
21 3 17 o 62.887 76.428 0.00 0.75375 0.09
37 0 8 o 19.687 19.982 180.00 0.73598 0.01
5 2 26 o 32.875 33.175 0.00 0.73574 0.04
11 5 3 o 4.199 4.708 180.00 0.77394 0.01
28 2 16 o 60.438 70.800 180.00 0.74358 0.08
22 4 8 o 1.835 2.332 180.00 0.76511 0.00
7 5 7 o 34.023 39.503 0.00 0.77300 0.05
5 4 18 o 2.958 3.421 0.00 0.75686 0.00
35 0 12 o 11.109 11.077 180.00 0.73437 0.01
23 4 6 o 7.090 9.664 0.00 0.76725 0.01
12 4 16 o 0.264 0.322 180.00 0.75927 0.00
10 1 27 o 94.929 99.238 0.00 0.72853 0.11
16 0 26 o 0.010 0.010 0.00 0.72664 0.00
0 5 9 o 22.239 30.945 180.00 0.76981 0.02
17 1 25 o 1.705 1.810 180.00 0.73014 0.00
32 0 16 o 83.327 86.052 0.00 0.73199 0.05
5 3 23 o 9.695 11.480 180.00 0.74448 0.01
1 5 9 o 5.840 8.196 0.00 0.76953 0.01
18 3 19 o 18.091 23.192 180.00 0.74890 0.02
35 2 4 o 13.932 17.048 0.00 0.74629 0.02
23 2 20 o 20.131 23.187 180.00 0.73955 0.03
30 1 17 o 0.685 0.688 180.00 0.73531 0.00
8 0 28 o 1.906 1.777 0.00 0.72399 0.00
12 5 1 o 30.135 37.696 180.00 0.77166 0.04
21 0 24 o 2.091 2.177 180.00 0.72739 0.00
31 3 3 o 17.368 20.187 180.00 0.75557 0.02
8 5 7 o 0.026 0.037 0.00 0.76874 0.00
6 2 26 o 7.920 8.001 180.00 0.73304 0.01
2 5 9 o 8.236 11.637 180.00 0.76868 0.01
30 0 18 o 4.366 4.628 180.00 0.73103 0.00
10 5 5 o 2.268 2.897 0.00 0.77133 0.00
25 1 21 o 31.406 31.961 180.00 0.73261 0.04
32 1 15 o 0.720 0.719 0.00 0.73443 0.00
24 3 15 o 1.284 1.660 0.00 0.74991 0.00
30 2 14 o 19.594 22.907 180.00 0.74279 0.03
36 1 9 o 63.809 63.791 180.00 0.73417 0.08
16 4 14 o 17.767 21.805 0.00 0.75952 0.02
24 4 4 o 4.510 5.693 0.00 0.76464 0.01
3 5 9 o 4.028 5.483 180.00 0.76728 0.01
29 3 9 o 3.707 4.757 0.00 0.75147 0.00
6 4 18 o 0.017 0.021 0.00 0.75392 0.00
26 3 13 o 4.070 5.239 180.00 0.75132 0.01
35 1 11 o 4.569 4.615 180.00 0.73313 0.01
6 3 23 o 20.536 24.000 180.00 0.74168 0.03
15 2 24 o 0.002 0.002 180.00 0.73283 0.00
38 1 1 o 1.394 1.394 0.00 0.73479 0.00
28 1 19 o 5.478 5.818 0.00 0.73056 0.01
38 0 6 o 12.780 13.579 0.00 0.73052 0.01
34 2 8 o 26.157 30.454 0.00 0.74086 0.03
14 3 21 o 332.395 388.819 180.00 0.74310 0.43
26 2 18 o 6.049 6.812 0.00 0.73855 0.01
33 2 10 o 10.700 12.444 180.00 0.74067 0.01
19 4 12 o 31.748 37.223 180.00 0.75758 0.04
7 2 26 o 46.926 49.541 180.00 0.72989 0.06
4 5 9 o 1.760 2.251 180.00 0.76533 0.00
34 0 14 o 0.010 0.010 180.00 0.72739 0.00
30 3 7 o 10.051 12.834 0.00 0.75179 0.01
9 0 28 o 11.823 11.474 180.00 0.72002 0.01
11 1 27 o 2.019 1.869 180.00 0.72355 0.00
38 1 3 o 31.311 33.012 180.00 0.73112 0.04
37 1 7 o 39.335 41.521 180.00 0.73105 0.05
12 5 3 o 0.000 0.000 0.00 0.76741 0.00
25 0 22 o 52.589 51.037 180.00 0.72481 0.03
22 1 23 o 49.236 50.555 180.00 0.72669 0.06
28 0 20 o 1319.799 1268.431 0.00 0.72458 0.78
9 5 7 o 19.791 24.873 180.00 0.76400 0.03
20 2 22 o 12.914 13.229 0.00 0.73237 0.02
21 4 10 o 13.355 15.919 180.00 0.75833 0.02
7 4 18 o 23.301 30.081 0.00 0.75049 0.03
7 3 23 o 32.931 36.890 180.00 0.73842 0.04
13 4 16 o 45.799 57.455 0.00 0.75258 0.06
22 3 17 o 4.403 5.146 180.00 0.74259 0.01
25 4 2 o 11.120 13.032 180.00 0.75742 0.02
5 5 9 o 7.136 8.962 0.00 0.76284 0.01
11 5 5 o 4.666 5.984 0.00 0.76543 0.01
28 3 11 o 180.150 221.821 180.00 0.74671 0.24
39 0 2 o 13.939 14.247 0.00 0.72650 0.01
17 0 26 o 36.438 36.324 0.00 0.71892 0.02
8 2 26 o 9.341 9.504 0.00 0.72630 0.01
13 5 1 o 22.021 27.861 0.00 0.76464 0.03
35 2 6 o 0.840 0.883 180.00 0.73678 0.00
34 1 13 o 1.298 1.353 0.00 0.72797 0.00
17 4 14 o 26.053 33.515 180.00 0.75071 0.03
18 1 25 o 6.329 5.887 0.00 0.72184 0.01
32 2 12 o 7.177 7.396 180.00 0.73623 0.01
36 2 0 o 339.619 347.763 180.00 0.73597 0.21
31 3 5 o 1.400 1.753 0.00 0.74765 0.00
10 0 28 o 25.135 22.306 0.00 0.71567 0.01
19 3 19 o 85.960 98.418 0.00 0.73945 0.11
24 4 6 o 8.890 10.613 180.00 0.75442 0.01
6 5 9 o 25.829 31.818 0.00 0.75983 0.04
8 4 18 o 1.620 1.990 180.00 0.74659 0.00
8 3 23 o 68.703 68.999 0.00 0.73470 0.09
12 1 27 o 14.062 14.052 0.00 0.71821 0.02
36 2 2 o 3.557 3.574 180.00 0.73412 0.00
12 5 5 o 0.003 0.003 180.00 0.75912 0.00
7 5 9 o 0.734 0.856 0.00 0.75632 0.00
16 2 24 o 14.074 13.957 180.00 0.72539 0.02
10 5 7 o 20.699 24.951 0.00 0.75880 0.03
32 3 1 o 6.795 7.954 0.00 0.74307 0.01
22 0 24 o 0.478 0.469 0.00 0.71735 0.00
14 4 16 o 89.520 107.926 0.00 0.74555 0.12
15 3 21 o 53.166 54.288 180.00 0.73583 0.07
23 4 8 o 16.080 19.956 0.00 0.75292 0.02
26 1 21 o 80.209 76.754 0.00 0.72049 0.09
9 2 26 o 14.701 13.630 0.00 0.72229 0.02
9 4 18 o 6.846 7.992 0.00 0.74224 0.01
9 3 23 o 11.688 12.331 180.00 0.73056 0.01
13 5 3 o 11.955 14.871 180.00 0.76050 0.02
38 1 5 o 0.324 0.305 180.00 0.72393 0.00
24 2 20 o 79.415 82.738 0.00 0.72804 0.10
25 4 4 o 0.379 0.483 0.00 0.75142 0.00
39 0 4 o 2.832 2.667 180.00 0.72119 0.00
29 2 16 o 245.963 258.139 0.00 0.72947 0.30
31 1 17 o 2.634 2.506 0.00 0.72072 0.00
11 0 28 o 38.349 33.562 180.00 0.71094 0.02
27 3 13 o 18.782 20.502 180.00 0.73776 0.02
25 3 15 o 39.001 42.051 0.00 0.73742 0.05
37 0 10 o 3.501 3.414 180.00 0.71979 0.00
20 4 12 o 11.565 14.363 180.00 0.74728 0.02
36 0 12 o 0.029 0.028 0.00 0.71754 0.00
27 2 18 o 27.262 27.229 180.00 0.72566 0.03
8 5 9 o 17.274 21.672 180.00 0.75233 0.02
31 2 14 o 35.685 37.067 0.00 0.72776 0.04
22 4 10 o 216.040 266.768 180.00 0.74697 0.28
32 3 3 o 39.609 45.046 180.00 0.73928 0.05
33 1 15 o 78.446 77.645 180.00 0.71897 0.09
14 5 1 o 70.783 83.046 180.00 0.75727 0.10
31 0 18 o 65.867 62.571 0.00 0.71670 0.04
33 0 16 o 11.235 10.661 180.00 0.71669 0.01
18 0 26 o 91.268 79.894 0.00 0.71099 0.05
21 2 22 o 29.320 27.221 180.00 0.72259 0.03
13 1 27 o 29.177 24.660 0.00 0.71254 0.03
23 1 23 o 10.356 9.556 0.00 0.71622 0.01
38 0 8 o 40.519 40.241 0.00 0.71812 0.02
36 2 4 o 16.269 16.984 0.00 0.72865 0.02
10 2 26 o 18.077 17.896 0.00 0.71790 0.02
16 3 21 o 18.657 19.437 180.00 0.72830 0.02
10 3 23 o 1.202 1.211 0.00 0.72601 0.00
14 5 3 o 67.037 82.353 180.00 0.75325 0.09
11 5 7 o 1.898 2.336 180.00 0.75318 0.00
10 4 18 o 6.108 6.597 180.00 0.73748 0.01
19 1 25 o 8.845 7.233 180.00 0.71336 0.01
29 1 19 o 5.987 5.806 0.00 0.71716 0.01
20 3 19 o 30.651 32.222 0.00 0.72986 0.04
26 0 22 o 69.495 57.402 0.00 0.71306 0.04
13 5 5 o 23.639 29.574 180.00 0.75243 0.03
18 4 14 o 9.064 10.556 180.00 0.74170 0.01
0 5 11 o 172.780 220.535 180.00 0.74937 0.12
30 3 9 o 1.271 1.324 180.00 0.73642 0.00
23 3 17 o 17.108 17.842 180.00 0.73143 0.02
31 3 7 o 15.268 15.826 180.00 0.73622 0.02
1 5 11 o 67.916 86.478 180.00 0.74911 0.09
34 2 10 o 3.797 3.636 180.00 0.72436 0.00
26 4 0 o 233.712 283.691 0.00 0.74598 0.15
15 4 16 o 173.892 192.348 180.00 0.73821 0.22
35 2 8 o 18.694 17.753 180.00 0.72406 0.02
17 2 24 o 21.892 21.544 0.00 0.71770 0.02
2 5 11 o 14.917 18.810 180.00 0.74833 0.02
29 0 20 o 10.056 8.779 180.00 0.71151 0.01
12 0 28 o 4.040 4.218 0.00 0.70588 0.00
9 5 9 o 9.223 11.545 0.00 0.74788 0.01
37 1 9 o 5.281 5.052 0.00 0.71690 0.01
29 3 11 o 46.578 47.796 180.00 0.73243 0.06
39 0 6 o 0.055 0.047 180.00 0.71260 0.00
39 1 1 o 3.119 2.931 0.00 0.71656 0.00
36 1 11 o 7.236 6.732 180.00 0.71638 0.01
3 5 11 o 18.589 22.962 180.00 0.74704 0.02
25 4 6 o 2.045 2.379 0.00 0.74171 0.00
15 5 1 o 55.817 71.159 180.00 0.74958 0.07
26 4 2 o 67.714 79.943 0.00 0.74405 0.09
35 0 14 o 23.003 20.078 180.00 0.71147 0.01
24 4 8 o 15.783 18.256 180.00 0.74078 0.02
11 2 26 o 26.447 21.905 180.00 0.71313 0.03
23 0 24 o 141.191 139.644 0.00 0.70727 0.08
11 3 23 o 0.348 0.330 0.00 0.72108 0.00
5 5 11 o 10.935 12.797 0.00 0.74294 0.01
0 1 29 o 0.071 0.076 180.00 0.70336 0.00
25 2 20 o 27.651 25.997 180.00 0.71660 0.03
1 1 29 o 10.717 11.662 180.00 0.70314 0.01
4 5 11 o 1.733 2.078 180.00 0.74524 0.00
11 4 18 o 20.390 20.964 0.00 0.73231 0.02
33 2 12 o 13.089 12.493 0.00 0.72067 0.02
14 1 27 o 7.990 8.186 180.00 0.70656 0.01
40 0 0 o 446.662 390.837 180.00 0.71009 0.12
35 1 13 o 13.358 11.515 0.00 0.71202 0.01
21 4 12 o 9.917 10.513 0.00 0.73690 0.01
32 3 5 o 0.000 0.000 180.00 0.73185 0.00
2 1 29 o 17.970 19.685 0.00 0.70250 0.02
38 1 7 o 49.453 40.757 0.00 0.71354 0.06
12 5 7 o 2.310 2.857 0.00 0.74716 0.00
36 2 6 o 5.880 5.716 180.00 0.71979 0.01
39 1 3 o 2.259 1.876 0.00 0.71315 0.00
26 4 4 o 31.826 35.273 0.00 0.73835 0.04
3 1 29 o 22.415 24.000 180.00 0.70143 0.02
27 1 21 o 20.536 18.909 180.00 0.70851 0.02
19 0 26 o 19.409 21.172 180.00 0.70289 0.01
40 0 2 o 90.734 83.924 180.00 0.70843 0.05
10 5 9 o 1.291 1.511 0.00 0.74301 0.00
15 5 3 o 0.876 1.058 0.00 0.74568 0.00
6 5 11 o 0.396 0.454 180.00 0.74016 0.00
17 3 21 o 8.095 7.752 180.00 0.72052 0.01
26 3 15 o 3.418 3.349 180.00 0.72507 0.00
13 0 28 o 19.468 19.625 180.00 0.70049 0.01
14 5 5 o 1.938 2.330 0.00 0.74540 0.00
24 1 23 o 17.697 18.422 0.00 0.70575 0.02
30 2 16 o 46.963 41.887 0.00 0.71568 0.05
0 4 20 o 1663.784 1705.614 0.00 0.72701 0.99
4 1 29 o 16.681 16.287 180.00 0.69993 0.02
1 4 20 o 28.266 28.858 180.00 0.72678 0.03
22 2 22 o 7.950 6.694 0.00 0.71274 0.01
20 1 25 o 13.625 14.386 0.00 0.70475 0.01
2 4 20 o 78.339 78.807 0.00 0.72606 0.09
37 2 2 o 30.873 29.296 180.00 0.71685 0.04
16 4 16 o 20.240 21.213 180.00 0.73060 0.02
23 4 10 o 6.838 7.021 0.00 0.73561 0.01
12 2 26 o 12.110 11.448 180.00 0.70802 0.01
13 5 7 o 0.206 0.238 0.00 0.74078 0.00
18 2 24 o 42.230 37.173 0.00 0.70982 0.05
19 4 14 o 96.286 98.762 180.00 0.73252 0.12
12 3 23 o 14.007 12.584 180.00 0.71580 0.02
24 3 17 o 77.678 74.724 0.00 0.72029 0.09
5 1 29 o 69.955 70.480 0.00 0.69803 0.07
21 3 19 o 0.029 0.028 0.00 0.72018 0.00
3 4 20 o 10.371 10.111 0.00 0.72488 0.01
33 3 1 o 5.493 5.633 180.00 0.72708 0.01
32 2 14 o 9.941 8.310 0.00 0.71317 0.01
28 3 13 o 52.958 50.989 180.00 0.72445 0.06
28 2 18 o 62.723 52.565 0.00 0.71298 0.07
12 4 18 o 1.926 1.965 180.00 0.72678 0.00
7 5 11 o 6.086 6.462 180.00 0.73691 0.01
32 0 18 o 8.355 9.080 180.00 0.70274 0.00
32 1 17 o 12.703 12.940 0.00 0.70654 0.01
15 1 27 o 6.829 6.814 180.00 0.70030 0.01
30 1 19 o 0.897 0.955 0.00 0.70404 0.00
16 5 1 o 3.838 4.457 180.00 0.74162 0.00
33 3 3 o 3.266 3.086 180.00 0.72352 0.00
4 4 20 o 91.869 86.431 0.00 0.72323 0.11
40 0 4 o 28.499 30.624 180.00 0.70350 0.02
27 0 22 o 0.575 0.613 0.00 0.70144 0.00
15 5 5 o 32.211 35.363 0.00 0.73806 0.04
38 0 10 o 81.314 87.997 0.00 0.70306 0.04
6 1 29 o 2.150 2.144 0.00 0.69572 0.00
11 5 9 o 0.003 0.003 180.00 0.73772 0.00
39 1 5 o 114.704 116.892 0.00 0.70648 0.12
31 3 9 o 9.743 9.171 180.00 0.72177 0.01
14 0 28 o 42.879 41.377 0.00 0.69481 0.02
34 1 15 o 10.514 11.193 0.00 0.70402 0.01
34 0 16 o 9.199 9.911 180.00 0.70187 0.00
5 4 20 o 3.182 3.019 0.00 0.72113 0.00
32 3 7 o 6.629 6.290 0.00 0.72112 0.01
37 2 4 o 44.410 38.478 180.00 0.71175 0.05
37 0 12 o 26.771 28.362 0.00 0.70139 0.01
27 4 2 o 23.971 25.027 0.00 0.73088 0.03
39 0 8 o 2.266 2.364 0.00 0.70107 0.00
8 5 11 o 1.577 1.608 0.00 0.73322 0.00
24 0 24 o 1.956 2.010 0.00 0.69718 0.00
0 0 30 o 789.143 824.908 180.00 0.69022 0.19
1 0 30 o 5.440 5.684 0.00 0.69002 0.00
13 2 26 o 57.202 62.006 180.00 0.70258 0.06
30 0 20 o 1.130 1.109 180.00 0.69869 0.00
7 1 29 o 10.194 9.567 180.00 0.69302 0.01
16 5 3 o 6.309 6.883 0.00 0.73784 0.01
20 0 26 o 2.964 2.849 0.00 0.69464 0.00
2 0 30 o 97.459 100.941 180.00 0.68941 0.05
18 3 21 o 6.438 5.476 180.00 0.71254 0.01
12 5 9 o 21.763 22.453 0.00 0.73207 0.03
13 3 23 o 28.357 24.990 180.00 0.71018 0.03
26 4 6 o 35.774 37.324 180.00 0.72914 0.04
22 4 12 o 0.701 0.710 0.00 0.72646 0.00
0 3 25 o 44.964 43.414 180.00 0.70761 0.02
16 1 27 o 13.572 12.813 0.00 0.69380 0.01
1 3 25 o 17.579 17.162 0.00 0.70739 0.02
26 2 20 o 237.633 248.278 0.00 0.70524 0.25
14 5 7 o 38.993 39.689 0.00 0.73407 0.05
25 4 8 o 0.470 0.490 0.00 0.72874 0.00
3 0 30 o 35.746 35.567 180.00 0.68840 0.02
6 4 20 o 39.828 38.984 0.00 0.71859 0.05
13 4 18 o 66.024 62.869 0.00 0.72090 0.08
30 3 11 o 7.679 7.517 180.00 0.71847 0.01
23 2 22 o 21.467 23.162 0.00 0.70285 0.02
20 4 14 o 5.476 5.169 180.00 0.72320 0.01
2 3 25 o 0.777 0.782 180.00 0.70674 0.00
17 5 1 o 0.419 0.427 0.00 0.73341 0.00
38 1 9 o 0.600 0.603 180.00 0.70036 0.00
37 1 11 o 0.058 0.058 0.00 0.70030 0.00
17 4 16 o 44.950 42.259 180.00 0.72275 0.05
35 2 10 o 24.177 22.237 0.00 0.70863 0.03
21 1 25 o 561.370 565.060 180.00 0.69602 0.57
19 2 24 o 96.701 103.326 0.00 0.70176 0.10
4 0 30 o 148.932 147.402 180.00 0.68699 0.07
36 2 8 o 15.879 15.097 0.00 0.70791 0.02
3 3 25 o 2.948 3.055 0.00 0.70564 0.00
34 2 12 o 27.059 28.038 0.00 0.70561 0.03
0 5 13 o 69.016 70.314 180.00 0.72688 0.04
24 4 10 o 74.580 71.738 180.00 0.72428 0.09
8 1 29 o 3.986 4.147 180.00 0.68995 0.00
0 2 28 o 73.148 71.896 180.00 0.69534 0.04
40 1 1 o 81.589 79.737 180.00 0.69920 0.08
25 1 23 o 6.331 6.218 180.00 0.69532 0.01
1 5 13 o 28.499 28.913 0.00 0.72664 0.03
1 2 28 o 14.986 14.629 180.00 0.69513 0.02
33 3 5 o 121.850 113.517 0.00 0.71655 0.14
9 5 11 o 8.232 8.578 0.00 0.72910 0.01
14 2 26 o 35.186 35.931 180.00 0.69685 0.04
28 1 21 o 353.807 361.230 0.00 0.69669 0.36
2 2 28 o 0.266 0.255 180.00 0.69451 0.00
2 5 13 o 0.785 0.785 0.00 0.72593 0.00
15 0 28 o 20.340 20.619 0.00 0.68886 0.01
36 0 14 o 12.408 12.518 180.00 0.69613 0.01
7 4 20 o 77.898 69.487 180.00 0.71562 0.09
4 3 25 o 11.753 12.460 180.00 0.70413 0.01
27 4 4 o 0.000 0.000 180.00 0.72548 0.00
5 0 30 o 6.746 6.854 180.00 0.68518 0.00
27 3 15 o 1.898 1.607 180.00 0.71286 0.00
22 3 19 o 23.525 20.715 180.00 0.71043 0.03
16 5 5 o 0.112 0.117 180.00 0.73046 0.00
40 0 6 o 20.862 20.627 0.00 0.69552 0.01
3 2 28 o 22.292 21.022 180.00 0.69347 0.02
3 5 13 o 2.238 2.177 0.00 0.72474 0.00
17 5 3 o 4.880 5.092 0.00 0.72976 0.01
39 1 7 o 6.340 6.460 180.00 0.69681 0.01
36 1 13 o 2.089 2.127 180.00 0.69665 0.00
29 2 18 o 141.001 142.783 0.00 0.70051 0.15
25 3 17 o 4.384 3.959 180.00 0.70920 0.00
29 3 13 o 60.165 52.430 0.00 0.71138 0.07
40 1 3 o 2.717 2.727 0.00 0.69603 0.00
31 2 16 o 38.338 41.084 0.00 0.70221 0.04
5 3 25 o 1.904 2.040 180.00 0.70219 0.00
4 2 28 o 2.622 2.550 180.00 0.69203 0.00
14 3 23 o 14.769 15.610 180.00 0.70426 0.02
13 5 9 o 12.372 12.400 0.00 0.72606 0.01
9 1 29 o 65.794 65.969 0.00 0.68652 0.06
28 0 22 o 67.396 69.800 0.00 0.68997 0.03
6 0 30 o 3.979 4.057 180.00 0.68300 0.00
4 5 13 o 11.351 10.735 0.00 0.72310 0.01
37 2 6 o 8.790 9.384 180.00 0.70349 0.01
14 4 18 o 74.370 64.049 180.00 0.71471 0.08
18 4 16 o 87.556 75.516 180.00 0.71470 0.10
33 1 17 o 1.993 1.894 0.00 0.69274 0.00
8 4 20 o 121.287 104.107 180.00 0.71224 0.13
17 1 27 o 4.066 4.021 0.00 0.68706 0.00
10 5 11 o 0.277 0.268 0.00 0.72458 0.00
15 5 7 o 9.223 9.412 180.00 0.72706 0.01
5 2 28 o 10.612 10.972 180.00 0.69019 0.01
34 3 1 o 5.928 5.147 180.00 0.71162 0.01
21 0 26 o 75.139 75.668 0.00 0.68628 0.04
19 3 21 o 50.380 53.110 0.00 0.70439 0.05
6 3 25 o 30.423 30.098 180.00 0.69984 0.03
38 2 0 o 78.557 83.547 180.00 0.70193 0.04
20 2 24 o 0.805 0.762 180.00 0.69355 0.00
23 4 12 o 14.229 12.926 180.00 0.71600 0.02
5 5 13 o 1.804 1.718 0.00 0.72100 0.00
41 0 2 o 24.801 25.035 180.00 0.69122 0.01
31 1 19 o 10.261 10.361 0.00 0.69121 0.01
7 0 30 o 48.642 47.878 0.00 0.68045 0.02
33 0 18 o 3.326 3.394 0.00 0.68917 0.00
22 1 25 o 75.114 74.137 180.00 0.68720 0.07
25 0 24 o 0.092 0.091 0.00 0.68711 0.00
15 2 26 o 129.223 131.988 0.00 0.69084 0.13
33 2 14 o 84.466 83.068 0.00 0.69899 0.09
32 3 9 o 18.475 17.863 180.00 0.70752 0.02
18 5 1 o 0.125 0.122 180.00 0.72500 0.00
28 4 0 o 2464.206 2384.118 0.00 0.71966 1.42
10 1 29 o 1.904 1.925 0.00 0.68274 0.00
16 0 28 o 9.650 9.742 180.00 0.68266 0.00
38 2 2 o 43.874 44.129 180.00 0.70032 0.05
6 2 28 o 0.554 0.547 0.00 0.68796 0.00
26 4 8 o 37.073 34.757 180.00 0.71681 0.04
27 4 6 o 2.486 2.324 0.00 0.71673 0.00
35 0 16 o 34.648 34.132 0.00 0.68754 0.02
21 4 14 o 25.988 22.062 0.00 0.71377 0.03
33 3 7 o 6.740 6.785 180.00 0.70647 0.01
24 2 22 o 17.698 16.813 0.00 0.69295 0.02
7 3 25 o 513.774 521.116 0.00 0.69709 0.53
9 4 20 o 10.226 9.503 0.00 0.70846 0.01
6 5 13 o 3.846 3.730 0.00 0.71846 0.00
34 3 3 o 0.001 0.001 0.00 0.70829 0.00
15 4 18 o 62.829 58.933 180.00 0.70824 0.07
28 4 2 o 52.026 50.188 0.00 0.71793 0.06
8 0 30 o 61.385 56.831 0.00 0.67754 0.03
23 3 19 o 41.713 42.469 0.00 0.70063 0.04
31 0 20 o 42.825 43.133 0.00 0.68614 0.02
27 2 20 o 32.134 30.612 0.00 0.69400 0.03
40 1 5 o 0.453 0.466 180.00 0.68982 0.00
38 0 12 o 30.876 31.164 0.00 0.68588 0.01
15 3 23 o 41.105 41.090 0.00 0.69807 0.04
17 5 5 o 5.447 5.151 180.00 0.72262 0.01
31 3 11 o 5.600 5.850 0.00 0.70484 0.01
16 5 7 o 7.112 6.861 180.00 0.71979 0.01
35 1 15 o 422.443 433.515 180.00 0.68955 0.42
14 5 9 o 15.515 14.979 0.00 0.71974 0.02
11 5 11 o 13.360 12.911 180.00 0.71968 0.02
38 2 4 o 9.241 9.133 180.00 0.69556 0.01
7 2 28 o 24.296 24.606 180.00 0.68535 0.02
10 4 20 o 94.008 98.884 180.00 0.70431 0.10
39 0 10 o 5.766 5.709 180.00 0.68704 0.00
26 1 23 o 28.298 28.719 0.00 0.68493 0.03
41 0 4 o 0.458 0.457 0.00 0.68665 0.00
18 5 3 o 20.781 19.720 0.00 0.72147 0.02
25 4 10 o 13.696 11.667 0.00 0.71301 0.02
28 3 15 o 6.940 7.111 0.00 0.70082 0.01
11 1 29 o 9.483 9.298 180.00 0.67863 0.01
7 5 13 o 0.213 0.190 0.00 0.71549 0.00
28 4 4 o 32.988 28.200 180.00 0.71280 0.04
8 3 25 o 63.223 60.267 0.00 0.69396 0.06
20 3 21 o 12.402 12.404 180.00 0.69609 0.01
18 1 27 o 95.794 94.375 0.00 0.68014 0.09
36 2 10 o 253.911 241.426 0.00 0.69347 0.26
29 1 21 o 22.061 22.367 0.00 0.68504 0.02
12 5 11 o 29.248 25.255 0.00 0.71442 0.03
40 0 8 o 36.112 36.664 0.00 0.68479 0.02
34 3 5 o 1.568 1.647 180.00 0.70175 0.00
16 2 26 o 0.017 0.018 0.00 0.68460 0.00
19 4 16 o 9.045 9.082 0.00 0.70647 0.01
9 3 25 o 5.892 6.017 180.00 0.69047 0.01
8 2 28 o 3.426 3.426 0.00 0.68238 0.00
37 2 8 o 20.058 19.347 180.00 0.69239 0.02
30 3 13 o 11.161 11.073 0.00 0.69857 0.01
17 0 28 o 38.446 33.422 0.00 0.67624 0.02
16 3 23 o 0.619 0.612 180.00 0.69162 0.00
22 0 26 o 8.121 7.640 180.00 0.67782 0.00
26 3 17 o 2.577 2.569 0.00 0.69819 0.00
9 0 30 o 16.073 12.476 180.00 0.67429 0.01
37 0 14 o 67.193 66.115 0.00 0.68136 0.03
21 2 24 o 1.171 1.185 180.00 0.68522 0.00
32 2 16 o 73.562 74.519 0.00 0.68907 0.07
38 1 11 o 0.018 0.019 180.00 0.68487 0.00
35 2 12 o 8.433 8.504 180.00 0.69105 0.01
11 4 20 o 25.241 25.157 0.00 0.69981 0.03
39 1 9 o 0.262 0.266 180.00 0.68452 0.00
8 5 13 o 19.856 17.148 180.00 0.71210 0.02
29 0 22 o 1.244 1.214 0.00 0.67865 0.00
18 5 5 o 0.005 0.004 0.00 0.71457 0.00
22 4 14 o 2.470 2.592 0.00 0.70427 0.00
30 2 18 o 4.011 3.996 180.00 0.68827 0.00
23 1 25 o 7.507 7.237 0.00 0.67833 0.01
16 4 18 o 0.207 0.216 0.00 0.70151 0.00
12 1 29 o 23.467 18.232 180.00 0.67422 0.02
19 5 1 o 7.328 6.761 0.00 0.71642 0.01
41 0 6 o 0.003 0.003 0.00 0.67922 0.00
24 4 12 o 20.265 20.817 180.00 0.70554 0.02
9 2 28 o 12.430 12.212 180.00 0.67905 0.01
15 5 9 o 2.384 2.040 180.00 0.71313 0.00
26 0 24 o 39.711 35.819 0.00 0.67708 0.02
19 5 3 o 7.077 6.069 0.00 0.71301 0.01
41 1 1 o 19.273 19.355 0.00 0.68264 0.02
10 3 25 o 19.895 19.833 0.00 0.68663 0.02
27 4 8 o 32.464 33.662 0.00 0.70501 0.03
17 5 7 o 8.809 7.602 0.00 0.71228 0.01
37 1 13 o 21.855 21.633 0.00 0.68184 0.02
10 0 30 o 170.761 148.710 0.00 0.67070 0.08
38 2 6 o 14.941 14.818 0.00 0.68784 0.01
35 3 1 o 12.838 12.892 0.00 0.69670 0.01
34 1 17 o 12.154 11.949 180.00 0.67934 0.01
13 5 11 o 27.144 24.991 180.00 0.70884 0.03
34 2 14 o 0.002 0.002 180.00 0.68522 0.00
25 2 22 o 45.234 45.689 180.00 0.68306 0.04
28 2 20 o 1107.750 1115.233 0.00 0.68288 1.05
40 1 7 o 2.897 2.844 180.00 0.68082 0.00
9 5 13 o 17.429 16.318 0.00 0.70833 0.02
32 1 19 o 21.087 20.506 0.00 0.67866 0.02
19 1 27 o 0.563 0.436 0.00 0.67303 0.00
24 3 19 o 0.035 0.036 0.00 0.69082 0.00
29 4 2 o 105.034 108.465 180.00 0.70520 0.11
42 0 0 o 1774.877 1543.718 180.00 0.67628 0.41
17 2 26 o 33.970 32.324 0.00 0.67813 0.03
34 0 18 o 11.834 10.152 180.00 0.67596 0.01
12 4 20 o 172.582 168.194 180.00 0.69497 0.17
41 1 3 o 1.273 1.252 180.00 0.67970 0.00
32 0 20 o 89.448 69.105 0.00 0.67387 0.04
28 4 6 o 64.011 66.864 0.00 0.70450 0.07
26 4 10 o 251.779 263.610 180.00 0.70183 0.26
21 3 21 o 4.471 4.434 0.00 0.68767 0.00
10 2 28 o 26.854 22.396 0.00 0.67540 0.02
0 4 22 o 133.924 130.682 0.00 0.69207 0.07
10 5 13 o 0.707 0.740 180.00 0.70418 0.00
1 4 22 o 4.707 4.620 0.00 0.69186 0.00
18 0 28 o 1.052 0.892 180.00 0.66963 0.00
13 1 29 o 7.331 6.187 180.00 0.66952 0.01
17 3 23 o 10.040 10.150 0.00 0.68495 0.01
42 0 2 o 24.025 19.425 180.00 0.67484 0.01
32 3 11 o 0.454 0.449 180.00 0.69156 0.00
16 5 9 o 1.317 1.324 0.00 0.70626 0.00
27 1 23 o 37.119 29.613 0.00 0.67461 0.03
33 3 9 o 32.975 31.566 0.00 0.69367 0.03
2 4 22 o 48.418 48.342 0.00 0.69125 0.05
11 3 25 o 24.453 24.431 0.00 0.68245 0.02
35 3 3 o 4.264 4.083 0.00 0.69356 0.00
39 2 2 o 10.552 10.688 0.00 0.68448 0.01
20 4 16 o 0.264 0.264 0.00 0.69810 0.00
0 5 15 o 29.579 31.243 0.00 0.70302 0.02
11 0 30 o 39.918 32.651 180.00 0.66681 0.02
1 5 15 o 1.700 1.795 0.00 0.70281 0.00
36 0 16 o 0.003 0.002 180.00 0.67367 0.00
36 1 15 o 42.650 35.871 180.00 0.67556 0.04
20 5 1 o 17.889 17.141 0.00 0.70769 0.02
30 1 21 o 8.311 6.420 0.00 0.67358 0.01
3 4 22 o 33.324 33.838 0.00 0.69022 0.03
2 5 15 o 0.571 0.600 0.00 0.70216 0.00
34 3 7 o 0.127 0.123 0.00 0.69227 0.00
17 4 18 o 31.890 30.861 180.00 0.69455 0.03
23 0 26 o 4.842 4.047 180.00 0.66930 0.00
22 2 24 o 0.629 0.560 0.00 0.67681 0.00
27 3 17 o 7.285 7.230 0.00 0.68727 0.01
19 5 5 o 71.279 71.429 180.00 0.70635 0.08
29 3 15 o 3.572 3.602 0.00 0.68897 0.00
3 5 15 o 6.353 6.543 180.00 0.70109 0.01
4 4 22 o 26.318 26.469 0.00 0.68880 0.03
40 0 10 o 414.807 346.452 0.00 0.67169 0.19
14 5 11 o 187.906 197.999 0.00 0.70296 0.20
29 4 4 o 37.148 37.574 180.00 0.70034 0.04
11 2 28 o 41.438 35.062 180.00 0.67142 0.04
24 1 25 o 17.068 14.307 180.00 0.66941 0.02
25 4 12 o 35.665 34.876 0.00 0.69511 0.04
39 0 12 o 17.651 15.131 180.00 0.67098 0.01
23 4 14 o 82.570 80.202 180.00 0.69473 0.08
11 5 13 o 2.514 2.514 0.00 0.69968 0.00
27 0 24 o 10.775 8.758 180.00 0.66711 0.00
13 4 20 o 15.346 15.567 180.00 0.68983 0.02
4 5 15 o 8.557 8.545 0.00 0.69960 0.01
42 0 4 o 20.162 17.321 0.00 0.67058 0.01
18 5 7 o 5.563 5.788 180.00 0.70457 0.01
31 2 18 o 68.736 59.705 0.00 0.67626 0.06
20 5 3 o 0.811 0.845 0.00 0.70441 0.00
5 4 22 o 72.488 72.059 180.00 0.68699 0.07
41 1 5 o 9.180 7.152 180.00 0.67391 0.01
12 3 25 o 1.078 1.014 0.00 0.67797 0.00
14 1 29 o 9.388 6.732 0.00 0.66456 0.01
39 2 4 o 2.915 2.856 180.00 0.68004 0.00
12 0 30 o 273.891 153.673 0.00 0.66263 0.12
18 2 26 o 85.005 71.632 0.00 0.67146 0.08
20 1 27 o 50.041 39.696 180.00 0.66578 0.04
30 0 22 o 7.999 6.469 0.00 0.66750 0.00
26 2 22 o 79.454 62.058 0.00 0.67321 0.07
31 3 13 o 12.218 12.242 0.00 0.68603 0.01
41 0 8 o 13.696 11.381 180.00 0.66921 0.01
6 5 15 o 23.475 23.065 0.00 0.69540 0.02
36 2 12 o 0.004 0.004 180.00 0.67697 0.00
5 5 15 o 5.130 5.127 180.00 0.69770 0.01
37 2 10 o 3.284 3.180 180.00 0.67886 0.00
25 3 19 o 0.907 0.891 180.00 0.68103 0.00
35 3 5 o 348.665 346.280 0.00 0.68742 0.34
33 2 16 o 9.078 7.881 180.00 0.67625 0.01
19 0 28 o 37.270 21.495 0.00 0.66285 0.02
21 4 16 o 28.843 29.172 180.00 0.68961 0.03
39 1 11 o 23.913 20.335 180.00 0.67003 0.02
6 4 22 o 2.607 2.630 180.00 0.68479 0.00
18 3 23 o 9.296 8.771 0.00 0.67809 0.01
30 4 0 o 1.857 1.795 180.00 0.69427 0.00
17 5 9 o 10.546 10.512 0.00 0.69917 0.01
40 1 9 o 61.584 51.347 0.00 0.66934 0.05
38 2 8 o 43.075 39.527 0.00 0.67746 0.04
12 2 28 o 3.700 2.997 0.00 0.66715 0.00
38 0 14 o 3.808 3.085 0.00 0.66711 0.00
28 4 8 o 77.841 74.884 180.00 0.69336 0.08
22 3 21 o 6.902 6.706 0.00 0.67917 0.01
27 4 10 o 8.869 8.899 180.00 0.69074 0.01
33 1 19 o 166.561 133.869 180.00 0.66641 0.14
30 4 2 o 2.456 2.375 0.00 0.69272 0.00
7 5 15 o 573.614 554.986 180.00 0.69270 0.57
0 1 31 o 531.549 307.402 180.00 0.65920 0.22
1 1 31 o 6.372 3.697 180.00 0.65902 0.01
29 4 6 o 130.818 126.949 180.00 0.69247 0.13
29 2 20 o 8.107 6.678 180.00 0.67190 0.01
12 5 13 o 0.395 0.385 0.00 0.69485 0.00
18 4 18 o 0.068 0.067 0.00 0.68740 0.00
38 1 13 o 47.564 38.379 0.00 0.66756 0.04
2 1 31 o 30.647 17.709 180.00 0.65849 0.03
7 4 22 o 11.820 11.743 0.00 0.68221 0.01
14 4 20 o 1351.328 1363.427 180.00 0.68440 1.29
15 5 11 o 89.871 89.716 0.00 0.69679 0.09
13 0 30 o 26.470 15.215 0.00 0.65816 0.01
13 3 25 o 32.211 25.288 0.00 0.67319 0.03
19 5 7 o 16.350 16.298 0.00 0.69668 0.02
35 0 18 o 30.261 18.075 0.00 0.66313 0.01
42 1 1 o 62.098 50.112 180.00 0.66685 0.05
39 2 6 o 0.110 0.087 180.00 0.67282 0.00
15 1 29 o 35.116 20.150 0.00 0.65934 0.03
21 5 1 o 7.436 7.409 180.00 0.69886 0.01
3 1 31 o 25.949 14.967 180.00 0.65761 0.02
23 2 24 o 161.622 130.673 0.00 0.66832 0.14
24 0 26 o 10.232 5.323 180.00 0.66074 0.00
35 1 17 o 95.151 76.250 180.00 0.66631 0.08
28 1 23 o 12.023 8.388 0.00 0.66438 0.01
35 2 14 o 23.519 19.381 180.00 0.67187 0.02
20 5 5 o 0.529 0.528 0.00 0.69798 0.00
33 0 20 o 31.016 16.461 0.00 0.66187 0.01
24 4 14 o 1.493 1.501 180.00 0.68516 0.00
42 0 6 o 108.777 69.121 180.00 0.66365 0.05
41 1 7 o 0.264 0.204 0.00 0.66551 0.00
4 1 31 o 3.514 2.164 180.00 0.65638 0.00
34 3 9 o 22.464 21.950 0.00 0.68021 0.02
8 5 15 o 68.818 69.386 180.00 0.68963 0.07
36 3 1 o 46.189 45.907 0.00 0.68228 0.04
30 3 15 o 3.149 2.865 180.00 0.67732 0.00
19 2 26 o 24.222 17.351 180.00 0.66463 0.02
36 3 3 o 0.672 0.651 0.00 0.67933 0.00
13 2 28 o 31.063 17.553 180.00 0.66259 0.03
8 4 22 o 4.233 4.103 180.00 0.67928 0.00
25 1 25 o 79.007 41.903 180.00 0.66049 0.07
31 1 21 o 0.075 0.041 0.00 0.66232 0.00
0 3 27 o 7.686 6.209 0.00 0.66820 0.00
42 1 3 o 63.328 42.525 180.00 0.66410 0.05
1 3 27 o 10.721 8.647 0.00 0.66801 0.01
21 1 27 o 100.695 58.218 180.00 0.65841 0.08
28 3 17 o 0.458 0.401 180.00 0.67647 0.00
5 1 31 o 58.460 40.427 0.00 0.65481 0.05
33 3 11 o 61.614 58.869 0.00 0.67861 0.06
35 3 7 o 56.220 53.518 0.00 0.67851 0.05
30 4 4 o 39.219 39.125 0.00 0.68811 0.04
21 5 3 o 4.527 4.464 180.00 0.69569 0.00
2 3 27 o 11.852 9.554 180.00 0.66746 0.01
16 5 11 o 12.052 12.101 0.00 0.69038 0.01
40 2 2 o 104.652 86.906 180.00 0.66930 0.09
20 0 28 o 4.106 2.601 180.00 0.65592 0.00
19 4 18 o 8.917 8.693 180.00 0.68007 0.01
19 3 23 o 2.554 2.157 0.00 0.67105 0.00
28 0 24 o 69.602 40.971 0.00 0.65722 0.03
26 4 12 o 92.588 93.140 180.00 0.68473 0.09
13 5 13 o 34.854 35.111 0.00 0.68971 0.03
3 3 27 o 13.422 10.743 180.00 0.66654 0.01
40 2 0 o 413.967 351.241 180.00 0.67070 0.18
14 0 30 o 856.274 631.727 0.00 0.65344 0.35
23 3 21 o 16.562 14.017 0.00 0.67060 0.01
18 5 9 o 2.242 2.200 0.00 0.69187 0.00
37 0 16 o 1.327 0.716 180.00 0.66025 0.00
14 3 25 o 28.442 22.976 0.00 0.66814 0.02
37 1 15 o 38.371 20.742 0.00 0.66203 0.03
6 1 31 o 35.915 25.860 180.00 0.65290 0.03
9 5 15 o 0.594 0.593 0.00 0.68620 0.00
15 4 20 o 28.411 27.175 0.00 0.67871 0.03
22 4 16 o 3.251 3.189 180.00 0.68104 0.00
27 2 22 o 1.383 0.855 0.00 0.66340 0.00
4 3 27 o 111.796 84.481 180.00 0.66526 0.10
16 1 29 o 1.264 0.924 180.00 0.65390 0.00
32 3 13 o 51.215 40.547 0.00 0.67376 0.05
9 4 22 o 47.856 41.042 180.00 0.67600 0.04
43 0 2 o 197.719 113.399 0.00 0.65921 0.08
26 3 19 o 4.916 4.120 0.00 0.67126 0.00
32 2 18 o 9.409 6.611 180.00 0.66450 0.01
22 5 1 o 16.612 16.691 180.00 0.68993 0.02
31 0 22 o 9.988 6.103 0.00 0.65653 0.00
21 5 5 o 434.053 436.278 180.00 0.68950 0.43
29 4 8 o 172.664 170.564 180.00 0.68187 0.16
34 2 16 o 17.236 11.117 180.00 0.66377 0.01
7 1 31 o 89.354 49.934 0.00 0.65067 0.07
14 2 28 o 76.104 44.209 0.00 0.65778 0.06
5 3 27 o 15.693 9.955 180.00 0.66362 0.01
40 2 4 o 44.837 33.405 180.00 0.66514 0.04
20 5 7 o 5.575 5.581 180.00 0.68865 0.01
41 0 10 o 43.663 26.073 0.00 0.65698 0.02
36 3 5 o 5.335 4.228 0.00 0.67356 0.00
38 2 10 o 124.027 89.423 0.00 0.66477 0.11
42 1 5 o 6.549 3.787 0.00 0.65870 0.01
30 4 6 o 51.482 50.297 180.00 0.68064 0.05
40 0 12 o 197.733 120.051 0.00 0.65666 0.08
29 1 23 o 61.490 43.849 180.00 0.65426 0.05
10 5 15 o 14.734 14.635 180.00 0.68243 0.01
16 4 20 o 14.010 11.207 180.00 0.67278 0.01
24 2 24 o 3.022 1.684 0.00 0.65979 0.00
28 4 10 o 1837.555 1782.304 180.00 0.67977 1.72
25 0 26 o 5.422 3.607 0.00 0.65215 0.00
6 3 27 o 57.590 30.811 0.00 0.66164 0.05
0 2 30 o 1011.624 734.521 180.00 0.65389 0.41
20 2 26 o 3.325 1.941 0.00 0.65764 0.00
10 4 22 o 46.283 37.373 180.00 0.67239 0.04
1 2 30 o 6.759 4.922 0.00 0.65371 0.01
19 5 9 o 17.273 17.331 180.00 0.68440 0.02
22 5 3 o 0.037 0.037 180.00 0.68689 0.00
37 2 12 o 43.445 26.774 0.00 0.66336 0.04
14 5 13 o 69.939 70.229 0.00 0.68428 0.07
43 0 4 o 101.351 67.413 0.00 0.65524 0.04
30 2 20 o 0.594 0.315 180.00 0.66107 0.00
39 2 8 o 2.179 1.307 0.00 0.66309 0.00
2 2 30 o 138.718 100.210 180.00 0.65320 0.11
15 3 25 o 16.426 9.608 180.00 0.66284 0.01
17 5 11 o 2.703 2.710 0.00 0.68375 0.00
22 1 27 o 20.456 11.748 0.00 0.65093 0.02
0 5 17 o 16.416 15.502 0.00 0.67844 0.01
34 1 19 o 66.387 46.693 180.00 0.65445 0.05
1 5 17 o 14.405 13.522 180.00 0.67825 0.01
42 0 8 o 45.780 32.508 0.00 0.65431 0.02
3 2 30 o 56.409 38.230 180.00 0.65233 0.05
25 4 14 o 0.584 0.492 180.00 0.67560 0.00
31 4 2 o 0.627 0.612 180.00 0.68048 0.00
11 4 22 o 59.955 48.745 0.00 0.66847 0.05
40 1 11 o 126.106 80.807 0.00 0.65577 0.10
2 5 17 o 6.374 5.861 0.00 0.67767 0.01
20 3 23 o 9.626 6.278 0.00 0.66386 0.01
36 1 17 o 2.682 1.938 0.00 0.65367 0.00
29 3 17 o 26.423 20.372 180.00 0.66579 0.02
20 4 18 o 0.983 0.791 0.00 0.67259 0.00
7 3 27 o 71.283 40.586 0.00 0.65932 0.06
26 1 25 o 0.560 0.345 0.00 0.65156 0.00
39 0 14 o 0.001 0.001 180.00 0.65338 0.00
23 4 16 o 1.710 1.383 180.00 0.67239 0.00
36 2 14 o 20.065 11.551 180.00 0.65891 0.02
4 2 30 o 238.522 139.830 180.00 0.65113 0.19
27 4 12 o 17.176 13.886 180.00 0.67443 0.02
41 1 9 o 4.518 3.105 0.00 0.65477 0.00
3 5 17 o 12.324 10.890 0.00 0.67671 0.01
15 2 28 o 28.624 20.019 0.00 0.65272 0.02
35 3 9 o 3.767 3.012 0.00 0.66714 0.00
36 0 18 o 38.547 21.829 180.00 0.65066 0.02
15 5 13 o 29.594 28.003 180.00 0.67860 0.03
31 4 4 o 36.798 31.709 180.00 0.67611 0.03
34 0 20 o 1.673 0.927 180.00 0.65015 0.00
11 5 15 o 18.089 17.004 180.00 0.67833 0.02
24 3 21 o 3.248 1.788 0.00 0.66198 0.00
39 1 13 o 18.646 13.430 180.00 0.65380 0.02
37 3 1 o 0.891 0.723 0.00 0.66835 0.00
34 3 11 o 0.671 0.520 0.00 0.66599 0.00
4 5 17 o 23.920 19.991 0.00 0.67537 0.02
5 2 30 o 12.598 6.901 180.00 0.64960 0.01
31 3 15 o 4.621 3.572 180.00 0.66587 0.00
32 1 21 o 0.064 0.038 0.00 0.65126 0.00
8 3 27 o 45.644 27.797 180.00 0.65667 0.04
36 3 7 o 1.725 1.272 180.00 0.66516 0.00
40 2 6 o 38.524 22.361 0.00 0.65839 0.03
17 4 20 o 25.329 20.034 180.00 0.66664 0.02
43 1 1 o 6.437 4.067 180.00 0.65175 0.01
28 2 22 o 95.239 68.257 0.00 0.65367 0.08
12 4 22 o 99.620 67.648 180.00 0.66425 0.09
5 5 17 o 31.770 25.401 0.00 0.67366 0.03
23 5 1 o 0.056 0.055 180.00 0.68095 0.00
22 5 5 o 11.587 11.327 180.00 0.68092 0.01
16 3 25 o 4.381 2.598 180.00 0.65732 0.00
25 2 24 o 0.252 0.151 0.00 0.65124 0.00
27 3 19 o 0.010 0.006 0.00 0.66154 0.00
21 5 7 o 51.550 50.206 180.00 0.68050 0.05
42 1 7 o 33.488 19.333 0.00 0.65084 0.03
37 3 3 o 43.384 32.892 180.00 0.66558 0.04
21 2 26 o 119.289 67.528 0.00 0.65053 0.09
21 3 23 o 45.956 28.219 0.00 0.65655 0.04
18 5 11 o 1.100 0.980 0.00 0.67692 0.00
20 5 9 o 41.838 37.043 180.00 0.67678 0.04
9 3 27 o 12.847 9.173 180.00 0.65371 0.01
6 5 17 o 21.048 17.362 180.00 0.67158 0.02
12 5 15 o 0.047 0.038 0.00 0.67393 0.00
29 4 10 o 5.848 4.795 0.00 0.66894 0.01
33 3 13 o 0.038 0.021 0.00 0.66176 0.00
33 2 18 o 6.007 4.217 0.00 0.65299 0.00
0 4 24 o 182.589 104.706 0.00 0.65903 0.08
41 2 2 o 38.620 26.425 180.00 0.65474 0.03
30 4 8 o 0.474 0.396 180.00 0.67057 0.00
0 6 0 o 2130.920 2077.359 0.00 0.68075 0.50
1 4 24 o 0.409 0.236 0.00 0.65885 0.00
23 5 3 o 51.265 47.558 0.00 0.67803 0.05
31 2 20 o 75.564 42.853 0.00 0.65041 0.06
16 5 13 o 3.416 2.756 180.00 0.67267 0.00
2 4 24 o 78.503 45.688 0.00 0.65832 0.07
32 4 0 o 16.067 13.366 0.00 0.66990 0.01
21 4 18 o 43.845 31.785 180.00 0.66499 0.04
2 6 0 o 31.716 30.653 0.00 0.67996 0.01
35 2 16 o 45.006 28.024 0.00 0.65160 0.04
17 3 25 o 3.570 2.221 180.00 0.65159 0.00
37 3 5 o 38.872 21.482 180.00 0.66014 0.03
13 5 15 o 1.666 1.372 0.00 0.66923 0.00
13 4 22 o 0.671 0.376 0.00 0.65976 0.00
39 2 10 o 10.014 5.998 180.00 0.65118 0.01
7 5 17 o 75.676 62.271 180.00 0.66915 0.07
3 4 24 o 19.148 11.369 180.00 0.65744 0.02
0 6 2 o 61.434 58.750 0.00 0.67928 0.03
31 4 6 o 35.540 29.172 180.00 0.66902 0.03
1 6 2 o 79.094 75.350 180.00 0.67908 0.07
24 4 16 o 15.290 9.820 0.00 0.66371 0.01
32 4 2 o 0.016 0.013 180.00 0.66850 0.00
26 4 14 o 31.350 24.193 180.00 0.66606 0.03
10 3 27 o 155.929 88.667 0.00 0.65044 0.12
2 6 2 o 17.852 16.770 0.00 0.67850 0.02
38 2 12 o 56.010 31.622 0.00 0.65019 0.04
4 4 24 o 10.803 6.765 180.00 0.65621 0.01
18 4 20 o 108.141 59.550 180.00 0.66030 0.09
19 5 11 o 51.040 42.359 180.00 0.66992 0.05
4 6 0 o 57.550 52.583 0.00 0.67764 0.03
3 6 2 o 3.703 3.371 180.00 0.67754 0.00
23 5 5 o 27.438 22.300 0.00 0.67228 0.02
22 5 7 o 0.023 0.019 0.00 0.67225 0.00
25 3 21 o 39.051 27.474 180.00 0.65334 0.03
24 5 1 o 0.868 0.709 180.00 0.67194 0.00
30 3 17 o 0.997 0.659 180.00 0.65525 0.00
41 2 4 o 1.841 1.076 0.00 0.65085 0.00
28 4 12 o 61.906 41.706 180.00 0.66421 0.05
8 5 17 o 9.880 7.696 0.00 0.66639 0.01
5 4 24 o 129.365 88.463 180.00 0.65464 0.11
32 3 15 o 1.099 0.752 0.00 0.65463 0.00
4 6 2 o 1.209 1.045 0.00 0.67619 0.00
28 3 19 o 9.327 5.975 0.00 0.65188 0.01
3 6 4 o 45.081 36.334 180.00 0.67323 0.04
0 6 4 o 14.066 11.631 180.00 0.67493 0.01
1 6 4 o 12.503 10.282 180.00 0.67474 0.01
22 4 18 o 19.680 11.786 0.00 0.65729 0.02
14 4 22 o 143.612 96.176 180.00 0.65501 0.12
6 4 24 o 0.372 0.254 0.00 0.65273 0.00
32 4 4 o 4.777 3.261 0.00 0.66436 0.00
4 6 4 o 1.162 0.950 0.00 0.67191 0.00
38 3 1 o 1.095 0.738 0.00 0.65489 0.00
14 5 15 o 20.493 13.869 180.00 0.66427 0.02
5 6 2 o 26.747 21.851 180.00 0.67447 0.02
24 5 3 o 12.061 9.893 0.00 0.66913 0.01
17 5 13 o 5.212 4.067 180.00 0.66653 0.00
21 5 9 o 6.818 5.588 180.00 0.66904 0.01
2 6 4 o 47.814 38.814 0.00 0.67417 0.04
36 3 9 o 84.874 58.401 180.00 0.65445 0.07
6 6 0 o 164.859 133.217 0.00 0.67381 0.07
9 5 17 o 33.715 20.866 0.00 0.66329 0.03
35 3 11 o 7.742 5.420 180.00 0.65371 0.01
5 6 4 o 105.190 87.134 180.00 0.67022 0.09
7 6 2 o 6.996 5.785 180.00 0.66996 0.01
10 5 17 o 90.057 50.517 180.00 0.65988 0.08
6 6 2 o 6.091 4.946 180.00 0.67239 0.01
7 4 24 o 14.320 8.292 0.00 0.65051 0.01
31 4 8 o 33.881 19.225 180.00 0.65945 0.03
38 3 3 o 32.158 21.237 180.00 0.65228 0.03
34 3 13 o 1.840 1.048 0.00 0.65005 0.00
37 3 7 o 58.311 38.393 180.00 0.65224 0.05
27 4 14 o 9.989 6.166 0.00 0.65656 0.01
8 6 0 o 208.571 169.250 180.00 0.66857 0.09
19 4 20 o 15.837 11.030 180.00 0.65380 0.01
30 4 10 o 2.128 1.244 0.00 0.65826 0.00
6 6 4 o 18.142 14.623 180.00 0.66818 0.02
20 5 11 o 1.069 0.637 180.00 0.66277 0.00
0 6 6 o 95.302 76.415 0.00 0.66788 0.04
1 6 6 o 68.386 54.642 180.00 0.66769 0.06
32 4 6 o 55.681 33.092 180.00 0.65762 0.05
25 4 16 o 7.544 5.035 180.00 0.65501 0.01
8 6 2 o 9.815 7.751 0.00 0.66718 0.01
2 6 6 o 24.052 18.987 180.00 0.66714 0.02
15 4 22 o 5.155 2.938 180.00 0.65001 0.00
33 4 2 o 0.003 0.002 180.00 0.65678 0.00
15 5 15 o 5.623 3.227 180.00 0.65907 0.00
23 5 7 o 47.379 31.091 0.00 0.66394 0.04
29 4 12 o 33.610 23.135 0.00 0.65409 0.03
22 5 9 o 62.427 34.780 0.00 0.66120 0.05
3 6 6 o 58.796 45.030 180.00 0.66622 0.05
11 5 17 o 5.471 3.442 0.00 0.65617 0.00
24 5 5 o 0.010 0.006 180.00 0.66360 0.00
7 6 4 o 5.532 4.148 0.00 0.66579 0.00
25 5 1 o 2.029 1.225 180.00 0.66291 0.00
18 5 13 o 27.930 15.588 180.00 0.66020 0.02
4 6 6 o 8.961 6.371 180.00 0.66494 0.01
23 4 18 o 31.835 18.024 180.00 0.64951 0.03
9 6 2 o 29.935 19.857 180.00 0.66407 0.03
0 5 19 o 1.875 1.294 0.00 0.65365 0.00
1 5 19 o 8.354 5.757 0.00 0.65348 0.01
4 5 19 o 17.447 10.465 0.00 0.65090 0.01
5 6 6 o 26.741 16.671 180.00 0.66331 0.02
8 6 4 o 30.534 18.693 0.00 0.66306 0.03
2 5 19 o 0.273 0.185 0.00 0.65296 0.00
33 4 4 o 43.914 29.695 180.00 0.65285 0.04
25 5 3 o 5.084 2.848 0.00 0.66021 0.00
12 5 17 o 15.412 10.057 180.00 0.65218 0.01
3 5 19 o 40.459 26.284 0.00 0.65210 0.03
10 6 0 o 67.893 39.054 180.00 0.66200 0.03
5 5 19 o 62.883 35.739 180.00 0.64937 0.05
6 6 6 o 21.070 11.848 0.00 0.66133 0.02
19 5 13 o 1.050 0.719 180.00 0.65370 0.00
16 5 15 o 3.657 2.509 0.00 0.65363 0.00
0 6 8 o 86.231 50.463 180.00 0.65836 0.04
1 6 8 o 152.812 89.827 180.00 0.65818 0.13
24 5 7 o 34.704 22.445 180.00 0.65557 0.03
10 6 2 o 5.166 2.895 180.00 0.66065 0.00
21 5 11 o 2.138 1.389 0.00 0.65549 0.00
2 6 8 o 3.872 2.309 180.00 0.65765 0.00
25 5 5 o 40.249 26.764 180.00 0.65490 0.03
9 6 4 o 104.723 59.062 180.00 0.66001 0.09
3 6 8 o 17.983 11.054 180.00 0.65677 0.01
7 6 6 o 0.120 0.069 180.00 0.65901 0.00
23 5 9 o 17.646 11.996 180.00 0.65328 0.01
4 6 8 o 1.993 1.290 180.00 0.65554 0.00
11 6 2 o 1.807 1.105 0.00 0.65693 0.00
10 6 4 o 5.008 3.094 180.00 0.65665 0.00
5 6 8 o 6.851 4.648 180.00 0.65398 0.01
26 5 1 o 53.832 36.647 0.00 0.65389 0.04
26 5 3 o 2.518 1.558 180.00 0.65130 0.00
8 6 6 o 56.198 35.116 180.00 0.65636 0.05
9 6 6 o 26.321 17.816 180.00 0.65340 0.02
6 6 8 o 0.005 0.004 180.00 0.65208 0.00
12 6 0 o 126.581 85.383 180.00 0.65423 0.05
11 6 4 o 9.143 6.134 180.00 0.65300 0.01
12 6 2 o 63.550 42.527 180.00 0.65292 0.05
10 6 6 o 4.064 2.393 0.00 0.65014 0.00
7 6 8 o 24.353 14.201 180.00 0.64986 0.02
