#------------------------------------------------------------------------------
#$Date: 2016-03-21 01:21:50 +0200 (Mon, 21 Mar 2016) $
#$Revision: 178377 $
#$URL: svn://www.crystallography.net/cod/cif/4/00/10/4001074.cif $
#------------------------------------------------------------------------------
#
# This file is available in the Crystallography Open Database (COD),
# http://www.crystallography.net/
#
# All data on this site have been placed in the public domain by the
# contributors.
#
data_4001074
loop_
_publ_author_name
'Achary, S. Nagabhusan'
'Sali, Sanjay K.'
'Kulkarni, Narendra K.'
'Krishna, P. Siva Ram'
'Shinde, Anil B.'
'Tyagi, Avesh K.'
_publ_section_title
;
 Intercalation/Deintercalation of Oxygen: A Sequential Evolution of Phases
 in Ce2O3/CeO2&#x2212;ZrO2Pyrochlores
;
_journal_issue                   24
_journal_name_full               'Chemistry of Materials'
_journal_page_first              5848
_journal_paper_doi               10.1021/cm902450q
_journal_volume                  21
_journal_year                    2009
_chemical_compound_source        Synthetic
_chemical_formula_moiety         'Ce2 Zr2 O8'
_chemical_formula_structural     'Ce2 Zr2 O8'
_chemical_formula_sum            'Ce O4 Zr'
_chemical_formula_weight         295.34
_chemical_name_common            'Cerium zirconate'
_chemical_name_systematic        ' ?'
_space_group_IT_number           198
_symmetry_cell_setting           cubic
_symmetry_space_group_name_Hall  'P 2ac 2ab 3'
_symmetry_space_group_name_H-M   'P 21 3'
_audit_creation_date             2009-05-07T23:46
_audit_creation_method           'from EXP file using GSAS2CIF'
_audit_update_record
' 2009-05-07T23:46  Initial CIF as created by GSAS2CIF'
_cell_angle_alpha                90.0
_cell_angle_beta                 90.0
_cell_angle_gamma                90.0
_cell_formula_units_Z            16
_cell_length_a                   10.54431(19)
_cell_length_b                   10.54431
_cell_length_c                   10.54431
_cell_volume                     1172.34(2)
_computing_molecular_graphics    ATOMS62
_computing_publication_material  GSAS
_computing_structure_refinement  GSAS
_diffrn_ambient_temperature      298
_diffrn_detector_type            PSD
_diffrn_measurement_device_type  Diffractometer
_diffrn_radiation_probe          neutron
_diffrn_radiation_wavelength     1.249
_diffrn_source                   Reactor
_exptl_absorpt_correction_T_max  1.00000
_exptl_absorpt_correction_T_min  1.00000
_exptl_absorpt_process_details
;   GSAS Absorption/surface roughness correction: function number 0
 No correction is applied.
;
_exptl_crystal_density_diffrn    6.69
_pd_block_id                     2009-05-07T23:46|CEZR2O8|SNA|Dhruva
_pd_calc_method                  'Rietveld Refinement'
_pd_char_colour                  Yellow
_pd_instr_location
' Dhruva Reseach Reactor, Bhabha Atomic Research Centre'
_pd_meas_2theta_range_inc        0.05
_pd_meas_2theta_range_max        138.6
_pd_meas_2theta_range_min        6.0
_pd_meas_number_of_points        2653
_pd_meas_scan_method             Step
_pd_phase_name
'from F:/Ce2Zr2o7/Sali-2/80/ND/GSAS/P23/GS1/k-ce2zr2o8.cif'
_pd_proc_2theta_range_inc        0.05
_pd_proc_2theta_range_max        137.9814
_pd_proc_2theta_range_min        5.3814
_pd_proc_info_datetime           2009-05-07T23:46:27
_pd_proc_info_excluded_regions   ' ?'
_pd_proc_ls_background_function
;   GSAS Background function number 1 with 16 terms.
 Shifted Chebyshev function of 1st kind
      1:    515.503     2:    18.9788     3:   -1.57026     4:    58.9761    
      5:    11.6490     6:   -3.50626     7:   -3.97304     8:   -22.1941    
      9:  -0.283734    10:    3.29044    11:   -12.2766    12:    1.70806    
     13:   -8.84353    14:   -14.7730    15:    3.03730    16:    6.64600    
;
_pd_proc_ls_peak_cutoff          0.00800
_pd_proc_ls_profile_function
;
 CW Profile function number 2 with  18 terms
 Profile coefficients for Simpson's rule integration of pseudovoigt function
 C.J. Howard (1982). J. Appl. Cryst.,15,615-620.
 P. Thompson, D.E. Cox & J.B. Hastings (1987). J. Appl. Cryst.,20,79-83.
 Peak tails are ignored  where the intensity is below 0.0080 times the peak
   Aniso. broadening axis   0.0   0.0   1.0
;
_pd_proc_ls_prof_R_factor        0.0500
_pd_proc_ls_prof_wR_expected     0.0336
_pd_proc_ls_prof_wR_factor       0.0664
_pd_proc_number_of_points        2653
_pd_spec_mounting                ' ?'
_refine_ls_goodness_of_fit_all   1.99
_refine_ls_matrix_type           full
_refine_ls_number_parameters     27
_refine_ls_number_restraints     0
_refine_ls_R_Fsqd_factor         0.05191
_refine_ls_shift/su_max          0.03
_refine_ls_shift/su_mean         0.01
_reflns_d_resolution_high        0.670
_reflns_d_resolution_low         7.456
_reflns_limit_h_max              16
_reflns_limit_h_min              1
_reflns_limit_k_max              11
_reflns_limit_k_min              0
_reflns_limit_l_max              10
_reflns_limit_l_min              0
_reflns_number_total             781
_cod_data_source_file            cm902450q_si_003.cif
_cod_data_source_block           CEZR2O8_publ
_cod_depositor_comments
;
The following automatic conversions were performed:

'_geom_bond_publ_flag' value 'N' changed to 'n' according to
/home/saulius/struct/CIF-dictionaries/cif_core.dic dictionary named
'cif_core.dic' version 2.4.2 from 2011-04-26 (104
times).

'_geom_angle_publ_flag' value 'N' changed to 'n' according
to /home/saulius/struct/CIF-dictionaries/cif_core.dic dictionary
named 'cif_core.dic' version 2.4.2 from 2011-04-26 (214 times).

Automatic conversion script
Id: cif_fix_values 1715 2011-07-08 13:25:40Z adriana 
;
_cod_original_cell_volume        1172.34(6)
_cod_database_code               4001074
#BEGIN Tags that were not found in dictionaries:
_gsas_exptl_extinct_corr_t_min   1.00000
_gsas_exptl_extinct_corr_t_max   1.00000
#END Tags that were not found in dictionaries
loop_
_symmetry_equiv_pos_site_id
_symmetry_equiv_pos_as_xyz
1 +x,+y,+z
2 +z,+x,+y
3 +y,+z,+x
4 +x+1/2,-y+1/2,-z
5 -z,+x+1/2,-y+1/2
6 -y+1/2,-z,+x+1/2
7 -z+1/2,-x,+y+1/2
8 +y+1/2,-z+1/2,-x
9 -y,+z+1/2,-x+1/2
10 -x+1/2,-y,+z+1/2
11 +z+1/2,-x+1/2,-y
12 -x,+y+1/2,-z+1/2
loop_
_atom_site_type_symbol
_atom_site_label
_atom_site_fract_x
_atom_site_fract_y
_atom_site_fract_z
_atom_site_occupancy
_atom_site_thermal_displace_type
_atom_site_U_iso_or_equiv
_atom_site_symmetry_multiplicity
Ce Ce1 0.1347(15) 0.1347(15) 0.1347(15) 1.0 Uiso 0.00026 4
Ce Ce2 0.1359(13) 0.3658(16) 0.3684(15) 1.0 Uiso 0.00026 12
Zr Zr1 0.6287(11) 0.6287(11) 0.6287(11) 1.0 Uiso 0.00026 4
Zr Zr2 0.6232(10) 0.8729(12) 0.8656(8) 1.0 Uiso 0.00026 12
O- O1 -0.0002(16) -0.0002(16) -0.0002(16) 1.0 Uiso 0.00083(16) 4
O- O2 0.2553(11) 0.2553(11) 0.2553(11) 1.0 Uiso 0.00083(16) 4
O- O3 0.5051(12) 0.5051(12) 0.5051(12) 1.0 Uiso 0.00083(16) 4
O- O4 0.7369(8) 0.7369(8) 0.7369(8) 1.0 Uiso 0.00083(16) 4
O- O5 0.2511(11) 0.2607(11) -0.0129(7) 1.0 Uiso 0.00083(16) 12
O- O6 0.2539(12) 0.2329(10) 0.5399(7) 1.0 Uiso 0.00083(16) 12
O- O7 -0.0062(11) -0.0053(9) 0.2488(11) 1.0 Uiso 0.00083(16) 12
O- O8 -0.0044(12) 0.0000(15) 0.7645(7) 1.0 Uiso 0.00083(16) 12
loop_
_atom_type_symbol
_atom_type_number_in_cell
_atom_type_scat_length_neutron
_atom_type_scat_source
Ce+4 16.0 0.4840 International_Tables_Vol_C
Zr+4 16.0 0.7160 International_Tables_Vol_C
O-2 64.0 0.5805 International_Tables_Vol_C
loop_
_geom_angle_atom_site_label_1
_geom_angle_atom_site_label_2
_geom_angle_atom_site_label_3
_geom_angle
_geom_angle_site_symmetry_1
_geom_angle_site_symmetry_3
_geom_angle_publ_flag
Ce2 Ce1 Ce2 59.7(7) 1_555 2_555 n
Ce2 Ce1 Ce2 59.7(7) 1_555 3_555 n
Ce2 Ce1 O1 144.9(4) 1_555 1_555 n
Ce2 Ce1 O2 35.1(4) 1_555 1_555 n
Ce2 Ce1 O5 94.0(8) 1_555 1_555 n
Ce2 Ce1 O5 40.95(35) 1_555 2_555 n
Ce2 Ce1 O5 95.2(8) 1_555 3_555 n
Ce2 Ce1 O7 94.5(5) 1_555 1_555 n
Ce2 Ce1 O7 149.9(10) 1_555 2_555 n
Ce2 Ce1 O7 95.1(5) 1_555 3_555 n
Ce2 Ce1 Ce2 59.7(7) 2_555 3_555 n
Ce2 Ce1 O1 144.9(4) 2_555 1_555 n
Ce2 Ce1 O2 35.1(4) 2_555 1_555 n
Ce2 Ce1 O5 95.2(8) 2_555 1_555 n
Ce2 Ce1 O5 94.0(8) 2_555 2_555 n
Ce2 Ce1 O5 40.95(35) 2_555 3_555 n
Ce2 Ce1 O7 95.1(5) 2_555 1_555 n
Ce2 Ce1 O7 94.5(5) 2_555 2_555 n
Ce2 Ce1 O7 149.9(10) 2_555 3_555 n
Ce2 Ce1 O1 144.9(4) 3_555 1_555 n
Ce2 Ce1 O2 35.1(4) 3_555 1_555 n
Ce2 Ce1 O5 40.95(35) 3_555 1_555 n
Ce2 Ce1 O5 95.2(8) 3_555 2_555 n
Ce2 Ce1 O5 94.0(8) 3_555 3_555 n
Ce2 Ce1 O7 149.9(10) 3_555 1_555 n
Ce2 Ce1 O7 95.1(5) 3_555 2_555 n
Ce2 Ce1 O7 94.5(5) 3_555 3_555 n
O1 Ce1 O2 179.9604 1_555 1_555 n
O1 Ce1 O5 104.0(6) 1_555 1_555 n
O1 Ce1 O5 104.0(6) 1_555 2_555 n
O1 Ce1 O5 104.0(6) 1_555 3_555 n
O1 Ce1 O7 65.1(6) 1_555 1_555 n
O1 Ce1 O7 65.1(6) 1_555 2_555 n
O1 Ce1 O7 65.1(6) 1_555 3_555 n
O2 Ce1 O5 76.0(6) 1_555 1_555 n
O2 Ce1 O5 76.0(6) 1_555 2_555 n
O2 Ce1 O5 76.0(6) 1_555 3_555 n
O2 Ce1 O7 114.9(6) 1_555 1_555 n
O2 Ce1 O7 114.9(6) 1_555 2_555 n
O2 Ce1 O7 114.9(6) 1_555 3_555 n
O5 Ce1 O5 114.3(5) 1_555 2_555 n
O5 Ce1 O5 114.3(5) 1_555 3_555 n
O5 Ce1 O7 169.0(12) 1_555 1_555 n
O5 Ce1 O7 71.80(35) 1_555 2_555 n
O5 Ce1 O7 68.65(31) 1_555 3_555 n
O5 Ce1 O5 114.3(5) 2_555 3_555 n
O5 Ce1 O7 68.65(31) 2_555 1_555 n
O5 Ce1 O7 169.0(12) 2_555 2_555 n
O5 Ce1 O7 71.80(35) 2_555 3_555 n
O5 Ce1 O7 71.80(35) 3_555 1_555 n
O5 Ce1 O7 68.65(31) 3_555 2_555 n
O5 Ce1 O7 169.0(12) 3_555 3_555 n
O7 Ce1 O7 103.6(7) 1_555 2_555 n
O7 Ce1 O7 103.6(7) 1_555 3_555 n
O7 Ce1 O7 103.6(7) 2_555 3_555 n
Ce1 Ce2 Ce2 60.16(35) 1_555 2_555 n
Ce1 Ce2 Ce2 60.16(35) 1_555 3_555 n
Ce1 Ce2 O1 144.0(8) 1_555 5_555 n
Ce1 Ce2 O2 37.3(6) 1_555 1_555 n
Ce1 Ce2 O5 43.24(30) 1_555 2_555 n
Ce1 Ce2 O6 96.7(5) 1_555 1_555 n
Ce1 Ce2 O6 100.4(6) 1_555 3_555 n
Ce1 Ce2 O7 91.8(5) 1_555 12_555 n
Ce1 Ce2 O8 151.9(7) 1_555 5_655 n
Ce1 Ce2 O8 96.6(6) 1_555 9_545 n
Ce2 Ce2 Ce2 60.0000(4) 2_555 3_555 n
Ce2 Ce2 O1 145.8(10) 2_555 5_555 n
Ce2 Ce2 O2 34.39(32) 2_555 1_555 n
Ce2 Ce2 O5 96.4(4) 2_555 2_555 n
Ce2 Ce2 O6 44.5(5) 2_555 1_555 n
Ce2 Ce2 O6 103.2(6) 2_555 3_555 n
Ce2 Ce2 O7 146.9(8) 2_555 12_555 n
Ce2 Ce2 O8 95.9(4) 2_555 5_655 n
Ce2 Ce2 O8 97.0(9) 2_555 9_545 n
Ce2 Ce2 O1 144.2(10) 3_555 5_555 n
Ce2 Ce2 O2 34.39(32) 3_555 1_555 n
Ce2 Ce2 O5 97.7(4) 3_555 2_555 n
Ce2 Ce2 O6 99.3(4) 3_555 1_555 n
Ce2 Ce2 O6 48.9(6) 3_555 3_555 n
Ce2 Ce2 O7 91.8(10) 3_555 12_555 n
Ce2 Ce2 O8 96.1(5) 3_555 5_655 n
Ce2 Ce2 O8 152.7(7) 3_555 9_545 n
O1 Ce2 O2 178.5(11) 5_555 1_555 n
O1 Ce2 O5 100.8(7) 5_555 2_555 n
O1 Ce2 O6 101.3(9) 5_555 1_555 n
O1 Ce2 O6 95.3(6) 5_555 3_555 n
O1 Ce2 O7 67.3(7) 5_555 12_555 n
O1 Ce2 O8 64.2(5) 5_555 5_655 n
O1 Ce2 O8 63.1(5) 5_555 9_545 n
O2 Ce2 O5 80.5(7) 1_555 2_555 n
O2 Ce2 O6 78.9(5) 1_555 1_555 n
O2 Ce2 O6 83.3(7) 1_555 3_555 n
O2 Ce2 O7 112.5(9) 1_555 12_555 n
O2 Ce2 O8 114.6(8) 1_555 5_655 n
O2 Ce2 O8 118.3(8) 1_555 9_545 n
O5 Ce2 O6 112.9(8) 2_555 1_555 n
O5 Ce2 O6 116.3(8) 2_555 3_555 n
O5 Ce2 O7 68.6(5) 2_555 12_555 n
O5 Ce2 O8 164.8(6) 2_555 5_655 n
O5 Ce2 O8 68.6(6) 2_555 9_545 n
O6 Ce2 O6 123.5(9) 1_555 3_555 n
O6 Ce2 O7 168.3(7) 1_555 12_555 n
O6 Ce2 O8 70.8(6) 1_555 5_655 n
O6 Ce2 O8 67.3(7) 1_555 9_545 n
O6 Ce2 O7 62.2(7) 3_555 12_555 n
O6 Ce2 O8 69.1(7) 3_555 5_655 n
O6 Ce2 O8 158.2(6) 3_555 9_545 n
O7 Ce2 O8 104.8(8) 12_555 5_655 n
O7 Ce2 O8 103.9(7) 12_555 9_545 n
O8 Ce2 O8 101.1(8) 5_655 9_545 n
O3 Zr1 O4 180.0 1_555 1_555 n
O3 Zr1 O5 111.7(6) 1_555 7_565 n
O3 Zr1 O5 111.7(6) 1_555 8_556 n
O3 Zr1 O5 111.7(6) 1_555 12_655 n
O3 Zr1 O7 69.1(6) 1_555 4_556 n
O3 Zr1 O7 69.1(6) 1_555 5_655 n
O3 Zr1 O7 69.1(6) 1_555 6_565 n
O4 Zr1 O5 68.3(6) 1_555 7_565 n
O4 Zr1 O5 68.3(6) 1_555 8_556 n
O4 Zr1 O5 68.3(6) 1_555 12_655 n
O4 Zr1 O7 110.9(6) 1_555 4_556 n
O4 Zr1 O7 110.9(6) 1_555 5_655 n
O4 Zr1 O7 110.9(6) 1_555 6_565 n
O5 Zr1 O5 107.1(6) 7_565 8_556 n
O5 Zr1 O5 107.1(6) 7_565 12_655 n
O5 Zr1 O7 68.76(34) 7_565 4_556 n
O5 Zr1 O7 175.5(4) 7_565 5_655 n
O5 Zr1 O7 76.15(32) 7_565 6_565 n
O5 Zr1 O5 107.1(6) 8_556 12_655 n
O5 Zr1 O7 76.15(32) 8_556 4_556 n
O5 Zr1 O7 68.76(34) 8_556 5_655 n
O5 Zr1 O7 175.5(4) 8_556 6_565 n
O5 Zr1 O7 175.5(4) 12_655 4_556 n
O5 Zr1 O7 76.15(32) 12_655 5_655 n
O5 Zr1 O7 68.76(34) 12_655 6_565 n
O7 Zr1 O7 108.1(6) 4_556 5_655 n
O7 Zr1 O7 108.1(6) 4_556 6_565 n
O7 Zr1 O7 108.1(6) 5_655 6_565 n
O3 Zr2 O4 176.4(8) 5_656 1_555 n
O3 Zr2 O5 110.9(6) 5_656 7_565 n
O3 Zr2 O6 115.7(6) 5_656 8_566 n
O3 Zr2 O6 118.0(6) 5_656 12_656 n
O3 Zr2 O7 68.6(6) 5_656 10_565 n
O3 Zr2 O8 72.6(5) 5_656 2_566 n
O3 Zr2 O8 72.5(4) 5_656 8_566 n
O4 Zr2 O5 65.5(5) 1_555 7_565 n
O4 Zr2 O6 66.6(4) 1_555 8_566 n
O4 Zr2 O6 62.89(34) 1_555 12_656 n
O4 Zr2 O7 110.5(5) 1_555 10_565 n
O4 Zr2 O8 110.8(5) 1_555 2_566 n
O4 Zr2 O8 105.1(6) 1_555 8_566 n
O5 Zr2 O6 106.7(6) 7_565 8_566 n
O5 Zr2 O6 98.6(6) 7_565 12_656 n
O5 Zr2 O7 77.8(4) 7_565 10_565 n
O5 Zr2 O8 173.0(5) 7_565 2_566 n
O5 Zr2 O8 69.2(6) 7_565 8_566 n
O6 Zr2 O6 105.1(7) 8_566 12_656 n
O6 Zr2 O7 71.0(6) 8_566 10_565 n
O6 Zr2 O8 76.2(6) 8_566 2_566 n
O6 Zr2 O8 171.7(6) 8_566 8_566 n
O6 Zr2 O7 173.4(5) 12_656 10_565 n
O6 Zr2 O8 74.5(4) 12_656 2_566 n
O6 Zr2 O8 69.1(6) 12_656 8_566 n
O7 Zr2 O8 109.1(6) 10_565 2_566 n
O7 Zr2 O8 114.1(7) 10_565 8_566 n
O8 Zr2 O8 107.1(6) 2_566 8_566 n
Ce1 O1 Ce2 110.1(7) 1_555 7_554 n
Ce1 O1 Ce2 110.1(7) 1_555 8_455 n
Ce1 O1 Ce2 110.1(7) 1_555 12_545 n
Ce2 O1 Ce2 108.9(7) 7_554 8_455 n
Ce2 O1 Ce2 108.9(7) 7_554 12_545 n
Ce2 O1 Ce2 108.9(7) 8_455 12_545 n
Ce1 O2 Ce2 107.7(7) 1_555 1_555 n
Ce1 O2 Ce2 107.7(7) 1_555 2_555 n
Ce1 O2 Ce2 107.7(7) 1_555 3_555 n
Ce2 O2 Ce2 111.2(6) 1_555 2_555 n
Ce2 O2 Ce2 111.2(6) 1_555 3_555 n
Ce2 O2 Ce2 111.2(6) 2_555 3_555 n
Zr1 O3 Zr2 109.7(5) 1_555 7_664 n
Zr1 O3 Zr2 109.7(5) 1_555 8_466 n
Zr1 O3 Zr2 109.7(5) 1_555 12_646 n
Zr2 O3 Zr2 109.3(5) 7_664 8_466 n
Zr2 O3 Zr2 109.3(5) 7_664 12_646 n
Zr2 O3 Zr2 109.3(5) 8_466 12_646 n
Zr1 O4 Zr2 113.4(5) 1_555 1_555 n
Zr1 O4 Zr2 113.4(5) 1_555 2_555 n
Zr1 O4 Zr2 113.4(5) 1_555 3_555 n
Zr2 O4 Zr2 105.2(5) 1_555 2_555 n
Zr2 O4 Zr2 105.2(5) 1_555 3_555 n
Zr2 O4 Zr2 105.2(5) 2_555 3_555 n
Ce1 O5 Ce2 95.8(5) 1_555 3_555 n
Ce1 O5 Zr1 107.5(6) 1_555 5_645 n
Ce1 O5 Zr2 109.8(6) 1_555 9_645 n
Ce2 O5 Zr1 112.5(7) 3_555 5_645 n
Ce2 O5 Zr2 117.1(7) 3_555 9_645 n
Zr1 O5 Zr2 112.5(5) 5_645 9_645 n
Ce2 O6 Ce2 86.5(5) 1_555 2_555 n
Ce2 O6 Zr2 109.8(8) 1_555 5_646 n
Ce2 O6 Zr2 103.6(6) 1_555 12_646 n
Ce2 O6 Zr2 115.5(7) 2_555 5_646 n
Ce2 O6 Zr2 109.4(7) 2_555 12_646 n
Zr2 O6 Zr2 124.5(5) 5_646 12_646 n
Ce1 O7 Ce2 117.5(7) 1_555 12_545 n
Ce1 O7 Zr1 104.1(4) 1_555 4_456 n
Ce1 O7 Zr2 103.4(5) 1_555 10_564 n
Ce2 O7 Zr1 109.5(6) 12_545 4_456 n
Ce2 O7 Zr2 109.8(7) 12_545 10_564 n
Zr1 O7 Zr2 112.5(5) 4_456 10_564 n
Ce2 O8 Ce2 123.9(5) 7_555 8_456 n
Ce2 O8 Zr2 104.7(8) 7_555 3_445 n
Ce2 O8 Zr2 103.6(5) 7_555 5_646 n
Ce2 O8 Zr2 109.1(6) 8_456 3_445 n
Ce2 O8 Zr2 108.6(8) 8_456 5_646 n
Zr2 O8 Zr2 105.5(4) 3_445 5_646 n
loop_
_geom_bond_atom_site_label_1
_geom_bond_atom_site_label_2
_geom_bond_distance
_geom_bond_site_symmetry_2
_geom_bond_publ_flag
Ce1 Ce2 3.465(21) 1_555 n
Ce1 Ce2 3.465(21) 2_555 n
Ce1 Ce2 3.465(21) 3_555 n
Ce1 Ce2 4.023(19) 7_554 n
Ce1 Ce2 4.023(19) 8_455 n
Ce1 Ce2 4.023(19) 12_545 n
Ce1 Zr1 3.7339(15) 4_456 n
Ce1 Zr1 3.7339(15) 5_645 n
Ce1 Zr1 3.7339(15) 6_564 n
Ce1 Zr2 3.652(8) 9_645 n
Ce1 Zr2 3.652(8) 10_564 n
Ce1 Zr2 3.652(8) 11_456 n
Ce1 O1 2.46(4) 1_555 n
Ce1 O2 2.202(33) 1_555 n
Ce1 O5 2.386(12) 1_555 n
Ce1 O5 2.386(12) 2_555 n
Ce1 O5 2.386(12) 3_555 n
Ce1 O7 2.415(12) 1_555 n
Ce1 O7 2.415(12) 2_555 n
Ce1 O7 2.415(12) 3_555 n
Ce2 Ce1 3.465(21) 1_555 n
Ce2 Ce1 4.023(19) 5_555 n
Ce2 Ce2 3.448(19) 2_555 n
Ce2 Ce2 3.448(19) 3_555 n
Ce2 Ce2 3.977(20) 6_565 n
Ce2 Ce2 3.977(20) 11_456 n
Ce2 Zr1 3.765(13) 6_564 n
Ce2 Zr2 3.701(22) 4_466 n
Ce2 Zr2 3.740(27) 5_646 n
Ce2 Zr2 3.778(25) 8_466 n
Ce2 Zr2 3.715(20) 10_564 n
Ce2 Zr2 3.785(16) 12_646 n
Ce2 O1 2.444(12) 5_555 n
Ce2 O2 2.089(12) 1_555 n
Ce2 O5 2.283(18) 2_555 n
Ce2 O6 2.605(18) 1_555 n
Ce2 O6 2.423(23) 3_555 n
Ce2 O7 2.290(17) 12_555 n
Ce2 O8 2.214(20) 5_655 n
Ce2 O8 2.292(25) 9_545 n
Zr1 Ce1 3.7339(15) 4_556 n
Zr1 Ce1 3.7339(15) 5_655 n
Zr1 Ce1 3.7339(15) 6_565 n
Zr1 Ce2 3.765(13) 9_655 n
Zr1 Ce2 3.765(13) 10_565 n
Zr1 Ce2 3.765(13) 11_556 n
Zr1 Zr2 3.589(13) 1_555 n
Zr1 Zr2 3.589(13) 2_555 n
Zr1 Zr2 3.589(13) 3_555 n
Zr1 O3 2.257(26) 1_555 n
Zr1 O4 1.977(26) 1_555 n
Zr1 O5 2.244(13) 7_565 n
Zr1 O5 2.244(13) 8_556 n
Zr1 O5 2.244(13) 12_655 n
Zr1 O7 2.320(13) 4_556 n
Zr1 O7 2.320(13) 5_655 n
Zr1 O7 2.320(13) 6_565 n
Zr2 Ce1 3.652(8) 6_565 n
Zr2 Ce2 3.701(22) 4_566 n
Zr2 Ce2 3.778(25) 5_656 n
Zr2 Ce2 3.740(27) 8_566 n
Zr2 Ce2 3.715(20) 10_565 n
Zr2 Ce2 3.785(16) 12_656 n
Zr2 Zr1 3.589(13) 1_555 n
Zr2 O3 2.373(10) 5_656 n
Zr2 O4 2.310(10) 1_555 n
Zr2 O5 2.071(16) 7_565 n
Zr2 O6 1.942(16) 8_566 n
Zr2 O6 2.202(14) 12_656 n
Zr2 O7 2.234(12) 10_565 n
Zr2 O8 2.429(16) 2_566 n
Zr2 O8 2.434(18) 8_566 n
O1 Ce1 2.46(4) 1_555 n
O1 Ce2 2.444(12) 7_554 n
O1 Ce2 2.444(12) 8_455 n
O1 Ce2 2.444(12) 12_545 n
O2 Ce1 2.202(33) 1_555 n
O2 Ce2 2.089(12) 1_555 n
O2 Ce2 2.089(12) 2_555 n
O2 Ce2 2.089(12) 3_555 n
O3 Zr1 2.257(26) 1_555 n
O3 Zr2 2.373(10) 7_664 n
O3 Zr2 2.373(10) 8_466 n
O3 Zr2 2.373(10) 12_646 n
O4 Zr1 1.977(26) 1_555 n
O4 Zr2 2.310(10) 1_555 n
O4 Zr2 2.310(10) 2_555 n
O4 Zr2 2.310(10) 3_555 n
O5 Ce1 2.386(12) 1_555 n
O5 Ce2 2.283(18) 3_555 n
O5 Zr1 2.244(13) 5_645 n
O5 Zr2 2.071(16) 9_645 n
O6 Ce2 2.605(18) 1_555 n
O6 Ce2 2.423(23) 2_555 n
O6 Zr2 1.942(16) 5_646 n
O6 Zr2 2.202(14) 12_646 n
O7 Ce1 2.415(12) 1_555 n
O7 Ce2 2.290(17) 12_545 n
O7 Zr1 2.320(13) 4_456 n
O7 Zr2 2.234(12) 10_564 n
O8 Ce2 2.292(25) 7_555 n
O8 Ce2 2.214(20) 8_456 n
O8 Zr2 2.429(16) 3_445 n
O8 Zr2 2.434(18) 5_646 n
loop_
_pd_meas_counts_total
_pd_proc_ls_weight
_pd_proc_intensity_bkg_calc
_pd_calc_intensity_total
456.0 0.002193 454.11606 454.11606
433.0 0.002309 454.65982 454.65982
423.0 0.002364 455.18463 455.18463
442.0 0.002262 455.69131 455.69131
440.0 0.002273 456.18030 456.18030
433.0 0.002309 456.65228 456.65228
444.0 0.002252 457.10767 457.10767
470.0 0.002128 457.54718 457.54718
474.0 0.002110 457.97116 457.97116
453.0 0.002208 458.38028 458.38028
494.0 0.002024 458.77502 458.77502
501.0 0.001996 459.15579 459.15579
463.0 0.002160 459.52304 459.52304
443.0 0.002257 459.87732 459.87732
452.0 0.002212 460.21902 460.21902
471.0 0.002123 460.54861 460.54861
474.0 0.002110 460.86642 460.86642
450.0 0.002222 461.17294 461.17294
429.0 0.002331 461.46854 461.46854
466.0 0.002146 461.75360 461.75360
471.0 0.002123 462.02844 462.02844
464.0 0.002155 462.29349 462.29349
492.0 0.002033 462.54901 462.54901
456.0 0.002193 462.79544 462.79544
453.0 0.002208 463.03317 463.03317
493.0 0.002028 463.26224 463.26224
491.0 0.002037 463.48322 463.48322
427.0 0.002342 463.69641 463.69641
468.0 0.002137 463.90189 463.90189
481.0 0.002079 464.10001 464.10001
428.0 0.002336 464.29114 464.29114
442.0 0.002262 464.47549 464.47549
482.0 0.002075 464.65335 464.65335
461.0 0.002169 464.82486 464.82486
431.0 0.002320 464.99030 464.99030
459.0 0.002179 465.14996 465.14996
467.0 0.002141 465.30402 465.30402
445.0 0.002247 465.45270 465.45270
446.0 0.002242 465.59613 465.59613
467.0 0.002141 465.73462 465.73462
453.0 0.002208 465.86841 465.86841
472.0 0.002119 465.99741 465.99741
487.0 0.002053 466.12216 466.12216
460.0 0.002174 466.24249 466.24249
434.0 0.002304 466.35895 466.35895
475.0 0.002105 466.47134 466.47134
492.0 0.002033 466.57999 466.57999
474.0 0.002110 466.68509 466.68509
483.0 0.002070 466.78662 466.78662
489.0 0.002045 466.88489 466.88489
480.0 0.002083 466.97995 466.97995
475.0 0.002105 467.07190 467.07190
477.0 0.002096 467.16092 467.16092
464.0 0.002155 467.24716 467.24716
491.0 0.002037 467.33072 467.33072
494.0 0.002024 467.41171 467.41171
454.0 0.002203 467.49002 467.49002
467.0 0.002141 467.56613 467.59543
474.0 0.002110 467.63983 467.67618
476.0 0.002101 467.71136 467.76199
484.0 0.002066 467.78082 467.86340
482.0 0.002075 467.84839 468.00238
506.0 0.001976 467.91385 468.21783
499.0 0.002004 467.97757 468.56921
454.0 0.002203 468.03943 469.12723
453.0 0.002208 468.09964 469.95096
499.0 0.002004 468.15826 471.05054
523.0 0.001912 468.21524 472.35373
512.0 0.001953 468.27084 473.69955
511.0 0.001957 468.32492 474.87354
521.0 0.001919 468.37772 475.68430
512.0 0.001953 468.42914 476.04016
503.0 0.001988 468.47937 475.97366
508.0 0.001969 468.52841 475.60629
464.0 0.002155 468.57620 475.08932
466.0 0.002146 468.62292 474.54990
502.0 0.001992 468.66867 474.06506
499.0 0.002004 468.71335 473.66483
486.0 0.002058 468.75714 473.34634
473.0 0.002114 468.79993 473.08926
469.0 0.002132 468.84192 472.87115
478.0 0.002092 468.88300 472.67325
477.0 0.002096 468.92325 472.47491
473.0 0.002114 468.96274 472.24875
472.0 0.002119 469.00156 471.96616
479.0 0.002088 469.03961 471.61230
485.0 0.002062 469.07697 471.20071
483.0 0.002070 469.11377 470.76877
461.0 0.002169 469.14984 470.36121
444.0 0.002252 469.18546 470.01636
481.0 0.002079 469.22049 469.75522
491.0 0.002037 469.25485 469.57938
479.0 0.002088 469.28873 469.47668
481.0 0.002079 469.32224 469.42865
483.0 0.002070 469.35519 469.41660
496.0 0.002016 469.38770 469.42584
477.0 0.002096 469.41971 469.44632
442.0 0.002262 469.45142 469.47223
473.0 0.002114 469.48279 469.50040
484.0 0.002066 469.51364 469.51364
476.0 0.002101 469.54425 470.92712
485.0 0.002062 469.57455 471.23688
496.0 0.002016 469.60449 471.78342
498.0 0.002008 469.63412 472.90741
512.0 0.001953 469.66345 475.34534
531.0 0.001883 469.69257 480.48056
514.0 0.001946 469.72137 490.51807
534.0 0.001873 469.75003 508.32751
571.0 0.001751 469.77841 536.68164
596.0 0.001678 469.80661 576.87408
649.0 0.001541 469.83456 627.19122
676.0 0.001479 469.86246 682.13293
700.0 0.001429 469.89017 733.20691
747.0 0.001339 469.91772 771.57544
771.0 0.001297 469.94516 791.59509
768.0 0.001302 469.97244 792.83356
776.0 0.001289 469.99963 779.28680
785.0 0.001274 470.02679 757.04614
720.0 0.001389 470.05389 731.94336
614.0 0.001629 470.08078 707.92554
546.0 0.001832 470.10779 686.68286
547.0 0.001828 470.13458 668.27863
552.0 0.001812 470.16159 651.78076
515.0 0.001942 470.18851 635.62555
475.0 0.002105 470.21542 618.12164
475.0 0.002105 470.24246 598.17615
475.0 0.002105 470.26938 576.02539
468.0 0.002137 470.29645 553.13239
463.0 0.002160 470.32361 531.44196
472.0 0.002119 470.35089 512.70361
490.0 0.002041 470.37823 497.96231
479.0 0.002088 470.40570 487.37677
454.0 0.002203 470.43329 480.41476
457.0 0.002188 470.46100 476.20630
479.0 0.002088 470.48904 473.85663
483.0 0.002070 470.51709 472.63284
477.0 0.002096 470.54547 472.02606
488.0 0.002049 470.57397 471.93063
485.0 0.002062 470.60281 470.85272
483.0 0.002070 470.63187 470.97256
493.0 0.002028 470.66119 471.19495
498.0 0.002008 470.69080 471.63852
481.0 0.002079 470.72083 472.51053
469.0 0.002132 470.75104 474.11450
482.0 0.002075 470.78177 476.80539
496.0 0.002016 470.81281 480.86545
497.0 0.002012 470.84409 486.32443
504.0 0.001984 470.87598 492.80109
505.0 0.001980 470.90820 499.47250
464.0 0.002155 470.94089 505.25302
468.0 0.002137 470.97400 509.17349
492.0 0.002033 471.00781 510.77145
490.0 0.002041 471.04196 510.20935
504.0 0.001984 471.07669 508.09128
501.0 0.001996 471.11200 505.14963
500.0 0.002000 471.14783 501.99817
515.0 0.001942 471.18436 499.00266
484.0 0.002066 471.22147 496.23917
463.0 0.002160 471.25928 493.56699
479.0 0.002088 471.29770 490.77518
500.0 0.002000 471.33685 487.75961
504.0 0.001984 471.37668 484.60791
484.0 0.002066 471.41736 481.52954
475.0 0.002105 471.45871 478.75534
508.0 0.001969 471.50089 476.46463
515.0 0.001942 471.54391 474.73480
496.0 0.002016 471.58780 473.53961
477.0 0.002096 471.63254 472.78528
470.0 0.002128 471.67822 472.35361
474.0 0.002110 471.72476 472.18079
478.0 0.002092 471.77228 472.09747
478.0 0.002092 471.82077 472.09082
484.0 0.002066 471.87027 472.13721
504.0 0.001984 471.92081 472.24045
499.0 0.002004 471.97235 472.31287
467.0 0.002141 472.02505 472.66040
487.0 0.002053 472.07883 473.22421
475.0 0.002105 472.13379 474.07376
437.0 0.002288 472.18994 475.23627
446.0 0.002242 472.24722 476.65912
481.0 0.002079 472.30573 478.19159
477.0 0.002096 472.36554 479.60681
452.0 0.002212 472.42657 480.67154
468.0 0.002137 472.48892 481.24176
471.0 0.002123 472.55267 481.31070
459.0 0.002179 472.61768 480.98676
464.0 0.002155 472.68411 480.43219
496.0 0.002016 472.75201 479.78738
501.0 0.001996 472.82129 479.12445
471.0 0.002123 472.89221 478.44824
455.0 0.002198 472.96454 477.73672
499.0 0.002004 473.03827 476.99310
514.0 0.001946 473.11380 476.25452
496.0 0.002016 473.19080 475.56931
492.0 0.002033 473.26941 474.98151
487.0 0.002053 473.34970 474.52026
480.0 0.002083 473.43173 474.19336
477.0 0.002096 473.51544 473.98956
476.0 0.002101 473.60077 474.13602
477.0 0.002096 473.68805 474.15567
482.0 0.002075 473.77701 474.26074
491.0 0.002037 473.86786 474.47778
498.0 0.002008 473.96048 474.83920
489.0 0.002045 474.05505 475.62506
493.0 0.002028 474.15146 477.04816
512.0 0.001953 474.24994 479.47903
489.0 0.002045 474.35028 483.28894
463.0 0.002160 474.45270 488.68542
471.0 0.002123 474.55716 495.51685
501.0 0.001996 474.66364 503.14719
505.0 0.001980 474.77206 510.50476
504.0 0.001984 474.88278 516.37177
507.0 0.001972 474.99557 519.85126
505.0 0.001980 475.11044 520.69897
514.0 0.001946 475.22754 519.28998
520.0 0.001923 475.34683 516.34253
504.0 0.001984 475.46848 512.55695
478.0 0.002092 475.59241 508.37418
472.0 0.002119 475.71851 503.96078
484.0 0.002066 475.84698 499.40005
495.0 0.002020 475.97775 494.86148
492.0 0.002033 476.11102 490.58176
496.0 0.002016 476.24661 486.79404
499.0 0.002004 476.38455 483.67960
483.0 0.002070 476.52505 481.31821
484.0 0.002066 476.66800 479.67514
492.0 0.002033 476.81345 478.63535
496.0 0.002016 476.96136 478.05042
501.0 0.001996 477.11191 477.77673
484.0 0.002066 477.26495 477.69720
468.0 0.002137 477.42062 477.72906
475.0 0.002105 477.57886 477.57886
485.0 0.002062 477.73978 477.73978
514.0 0.001946 477.90338 477.90338
518.0 0.001931 478.06955 478.06955
478.0 0.002092 478.23853 478.23853
492.0 0.002033 478.41019 478.41019
497.0 0.002012 478.58459 478.58459
468.0 0.002137 478.76169 478.76169
461.0 0.002169 478.94165 478.94165
475.0 0.002105 479.12448 479.12448
493.0 0.002028 479.31009 479.31009
500.0 0.002000 479.49844 479.49844
497.0 0.002012 479.68970 479.68970
503.0 0.001988 479.88391 479.88391
516.0 0.001938 480.08090 480.08090
516.0 0.001938 480.28082 480.28082
499.0 0.002004 480.48380 480.48380
506.0 0.001976 480.68961 480.68961
505.0 0.001980 480.89835 480.89835
464.0 0.002155 481.11014 481.17154
515.0 0.001942 481.32489 481.39789
538.0 0.001859 481.54260 481.63519
475.0 0.002105 481.76334 481.89365
459.0 0.002179 481.98724 482.19440
477.0 0.002096 482.21405 482.57532
499.0 0.002004 482.44400 483.09644
507.0 0.001972 482.67694 483.83514
491.0 0.002037 482.91290 484.86884
466.0 0.002146 483.15210 486.24127
461.0 0.002169 483.39432 487.92377
484.0 0.002066 483.63965 489.79156
485.0 0.002062 483.88803 491.63138
486.0 0.002058 484.13974 493.19229
500.0 0.002000 484.39444 494.27298
502.0 0.001992 484.65225 494.79303
497.0 0.002012 484.91339 494.78546
508.0 0.001969 485.17749 494.34244
522.0 0.001916 485.44485 493.57477
492.0 0.002033 485.71533 492.61017
489.0 0.002045 485.98904 491.59045
516.0 0.001938 486.26587 490.63489
515.0 0.001942 486.54602 489.81955
509.0 0.001965 486.82928 489.18344
509.0 0.001965 487.11572 488.93970
501.0 0.001996 487.40533 488.72385
468.0 0.002137 487.69827 488.70306
451.0 0.002217 487.99423 488.88657
461.0 0.002169 488.29349 489.32074
483.0 0.002070 488.59595 490.10895
497.0 0.002012 488.90155 491.42007
496.0 0.002016 489.21033 493.46552
493.0 0.002028 489.52249 496.43112
501.0 0.001996 489.83768 500.32120
502.0 0.001992 490.15610 505.06866
512.0 0.001953 490.47778 510.16055
529.0 0.001890 490.80258 514.92065
526.0 0.001901 491.13055 518.62891
512.0 0.001953 491.46167 520.78265
504.0 0.001984 491.79602 521.24237
508.0 0.001969 492.13364 520.16260
507.0 0.001972 492.47418 517.84967
511.0 0.001957 492.81799 514.69745
518.0 0.001931 493.16504 511.16678
517.0 0.001934 493.51520 507.68497
503.0 0.001988 493.86838 504.55072
485.0 0.002062 494.22470 502.01389
480.0 0.002083 494.58432 500.00772
493.0 0.002028 494.94678 498.59964
506.0 0.001976 495.31253 497.73569
512.0 0.001953 495.68137 497.34244
509.0 0.001965 496.05310 497.35831
494.0 0.002024 496.42807 497.75433
496.0 0.002016 496.80603 498.53796
504.0 0.001984 497.18692 499.73767
497.0 0.002012 497.57083 501.36639
506.0 0.001976 497.95782 503.37543
508.0 0.001969 498.34790 505.47867
494.0 0.002024 498.74078 507.73306
484.0 0.002066 499.13654 509.68216
484.0 0.002066 499.53537 511.07184
503.0 0.001988 499.93710 511.77594
519.0 0.001927 500.34174 511.80719
488.0 0.002049 500.74930 511.26993
511.0 0.001957 501.15967 510.32312
553.0 0.001808 501.57294 509.16461
525.0 0.001905 501.98901 507.98764
514.0 0.001946 502.40793 506.93533
518.0 0.001931 502.82962 507.41168
523.0 0.001912 503.25403 507.13748
533.0 0.001876 503.68109 507.37549
524.0 0.001908 504.11096 508.38736
513.0 0.001949 504.54346 510.66013
532.0 0.001880 504.97882 514.99548
587.0 0.001704 505.41675 522.50293
601.0 0.001664 505.85721 534.40686
607.0 0.001647 506.30023 551.62244
668.0 0.001497 506.74606 574.18359
719.0 0.001391 507.19427 600.74207
756.0 0.001323 507.64502 628.34546
790.0 0.001266 508.09845 653.08099
818.0 0.001222 508.55389 670.80811
844.0 0.001185 509.01218 678.88538
857.0 0.001167 509.47278 676.75439
847.0 0.001181 509.93570 680.39777
812.0 0.001232 510.40091 663.93671
767.0 0.001304 510.86865 643.82910
732.0 0.001366 511.33844 623.28131
710.0 0.001408 511.81067 605.04797
670.0 0.001493 512.28522 591.52112
666.0 0.001502 512.76172 585.46393
697.0 0.001435 513.24060 591.22284
720.0 0.001389 513.72150 616.49066
823.0 0.001215 514.20447 674.18793
979.0 0.001021 514.68951 783.24451
1178.0 0.000849 515.17670 966.59210
1499.0 0.000667 515.66589 1245.04395
1842.0 0.000543 516.15704 1627.47668
2208.0 0.000453 516.65002 2100.32788
2647.0 0.000378 517.14502 2621.12964
3081.0 0.0003246 517.64178 3120.58276
3430.0 0.0002915 518.14050 3516.41187
3626.0 0.0002758 518.64075 3743.59424
3617.0 0.0002765 519.14301 3771.53540
3384.0 0.0002955 519.64697 3608.42188
3037.0 0.0003293 520.15253 3289.41992
2628.0 0.000381 520.65979 2869.23730
2104.0 0.000475 521.16876 2410.33862
1603.0 0.000624 521.67914 1966.25000
1204.0 0.000831 522.19116 1573.53442
912.0 0.001096 522.70459 1252.18335
731.0 0.001368 523.21948 1007.42944
636.0 0.001572 523.73590 833.16101
593.0 0.001686 524.25354 716.86292
577.0 0.001733 524.77252 644.08258
582.0 0.001718 525.29297 601.44122
559.0 0.001789 525.81445 578.17346
520.0 0.001923 526.33734 566.51233
535.0 0.001869 526.86127 561.32825
542.0 0.001845 527.38641 559.44409
521.0 0.001919 527.91260 558.95044
509.0 0.001965 528.43988 542.05865
543.0 0.001842 528.96814 543.24585
552.0 0.001812 529.49731 543.83734
538.0 0.001859 530.02740 543.36646
545.0 0.001835 530.55847 542.29767
534.0 0.001873 531.09033 540.90753
522.0 0.001916 531.62299 539.47876
532.0 0.001880 532.15637 538.24481
554.0 0.001805 532.69061 537.38702
543.0 0.001842 533.22540 537.06085
529.0 0.001890 533.76050 537.43915
539.0 0.001855 534.29663 538.76385
542.0 0.001845 534.83337 541.36859
531.0 0.001883 535.37024 545.63843
528.0 0.001894 535.90765 551.87720
537.0 0.001862 536.44537 560.09607
513.0 0.001949 536.98364 569.80176
516.0 0.001938 537.52203 579.89819
543.0 0.001842 538.06079 588.81219
542.0 0.001845 538.59985 594.88483
550.0 0.001818 539.13904 596.88275
525.0 0.001905 539.67834 594.82886
502.0 0.001992 540.21765 589.59607
567.0 0.001764 540.75708 582.63947
568.0 0.001761 541.29645 575.27362
529.0 0.001890 541.83575 568.37061
526.0 0.001901 542.37488 562.38257
518.0 0.001931 542.91400 557.49030
530.0 0.001887 543.45306 553.70673
555.0 0.001802 543.99170 550.94794
560.0 0.001786 544.52997 549.08533
542.0 0.001845 545.06812 547.96796
523.0 0.001912 545.60565 547.43097
521.0 0.001919 546.14301 547.31201
530.0 0.001887 546.67969 547.46796
506.0 0.001976 547.21600 547.78973
515.0 0.001942 547.75177 548.20325
557.0 0.001795 548.28680 555.53851
541.0 0.001848 548.82129 556.77887
532.0 0.001880 549.35498 557.87994
554.0 0.001805 549.88800 559.50378
573.0 0.001745 550.42017 561.44098
556.0 0.001799 550.95154 563.95905
542.0 0.001845 551.48206 567.66199
570.0 0.001754 552.01160 573.84192
621.0 0.001610 552.54004 585.03839
626.0 0.001597 553.06775 605.74615
648.0 0.001543 553.59418 642.98706
720.0 0.001389 554.11963 706.18298
820.0 0.001220 554.64374 805.60059
951.0 0.001052 555.16669 948.93890
1085.0 0.000922 555.68854 1136.52051
1222.0 0.000818 556.20886 1356.76978
1380.0 0.000725 556.72815 1584.39453
1518.0 0.000659 557.24585 1783.36255
1603.0 0.000624 557.76202 1915.97205
1631.0 0.000613 558.27692 1954.59973
1610.0 0.000621 558.79022 1896.02087
1503.0 0.000665 559.30206 1760.91394
1333.0 0.000750 559.81219 1581.52271
1154.0 0.000867 560.32068 1388.09436
1004.0 0.000996 560.82739 1202.77161
887.0 0.001127 561.33246 1039.46130
791.0 0.001264 561.83563 905.19006
704.0 0.001420 562.33704 801.46429
630.0 0.001587 562.83649 726.25592
594.0 0.001684 563.33429 675.83228
589.0 0.001698 563.83008 645.76733
593.0 0.001686 564.32349 631.38788
628.0 0.001592 564.81519 628.02386
658.0 0.001520 565.30469 631.21222
667.0 0.001499 565.79205 637.08521
681.0 0.001468 566.27734 641.90802
708.0 0.001412 566.76044 643.50317
723.0 0.001383 567.24109 632.62146
706.0 0.001416 567.71954 627.34607
668.0 0.001497 568.19574 619.59009
664.0 0.001506 568.66943 610.84161
683.0 0.001464 569.14081 602.29968
685.0 0.001460 569.60950 594.82379
657.0 0.001522 570.07587 588.97089
615.0 0.001626 570.53986 585.04413
598.0 0.001672 571.00104 583.17889
611.0 0.001637 571.45953 583.40570
609.0 0.001642 571.91534 585.63831
622.0 0.001608 572.36871 589.60565
644.0 0.001553 572.81915 594.77948
649.0 0.001541 573.26685 600.35938
651.0 0.001536 573.71179 606.17212
623.0 0.001605 574.15387 609.69104
619.0 0.001616 574.59302 610.98804
676.0 0.001479 575.02930 609.98199
647.0 0.001546 575.46240 606.80359
613.0 0.001631 575.89288 603.04559
633.0 0.001580 576.32013 599.13513
652.0 0.001534 576.74408 595.87939
633.0 0.001580 577.16522 594.08038
613.0 0.001631 577.58313 594.57751
600.0 0.001667 577.99799 598.26227
578.0 0.001730 578.40942 606.00531
593.0 0.001686 578.81769 618.42731
625.0 0.001600 579.22266 635.52667
647.0 0.001546 579.62433 656.29749
662.0 0.001511 580.02271 678.53351
662.0 0.001511 580.41760 699.54468
681.0 0.001468 580.80920 714.63287
714.0 0.001401 581.19733 721.33691
717.0 0.001395 581.58191 718.60419
722.0 0.001385 581.96301 707.49866
701.0 0.001427 582.34052 691.23834
657.0 0.001522 582.71460 672.61548
650.0 0.001538 583.08496 654.30389
633.0 0.001580 583.45172 638.43341
614.0 0.001629 583.81494 626.51697
622.0 0.001608 584.17432 619.45844
636.0 0.001572 584.53003 617.66132
619.0 0.001616 584.88190 621.08521
615.0 0.001626 585.23004 629.17548
647.0 0.001546 585.57452 640.73712
662.0 0.001511 585.91528 654.52509
703.0 0.001422 586.25183 666.92065
724.0 0.001381 586.58478 675.96710
710.0 0.001408 586.91364 679.70911
745.0 0.001342 587.23877 677.50903
739.0 0.001353 587.55988 670.23676
710.0 0.001408 587.87677 658.86755
697.0 0.001435 588.19006 647.14252
657.0 0.001522 588.49921 636.01349
636.0 0.001572 588.80414 627.09546
629.0 0.001590 589.10510 621.66016
611.0 0.001637 589.40198 620.59326
603.0 0.001658 589.69470 624.37305
612.0 0.001634 589.98328 632.97394
614.0 0.001629 590.26770 645.69360
611.0 0.001637 590.54791 661.14685
636.0 0.001572 590.82416 676.77771
649.0 0.001541 591.09607 689.90942
656.0 0.001524 591.36359 697.88098
677.0 0.001477 591.62708 699.05408
691.0 0.001447 591.88611 693.47552
666.0 0.001502 592.14105 682.67444
648.0 0.001543 592.39154 668.27423
658.0 0.001520 592.63770 653.55835
636.0 0.001572 592.87964 639.72870
622.0 0.001608 593.11713 628.09045
625.0 0.001600 593.35022 619.35071
624.0 0.001603 593.57898 613.68231
615.0 0.001626 593.80347 610.86841
620.0 0.001613 594.02332 610.42743
617.0 0.001621 594.23883 611.69580
602.0 0.001661 594.44989 613.89044
618.0 0.001618 594.65643 616.18463
647.0 0.001546 594.85870 617.82324
629.0 0.001590 595.05646 618.28259
591.0 0.001692 595.24951 617.41064
616.0 0.001623 595.43829 615.41290
629.0 0.001590 595.62244 611.98450
620.0 0.001613 595.80237 609.02722
630.0 0.001587 595.97736 606.13153
659.0 0.001517 596.14795 603.57831
603.0 0.001658 596.31403 601.51825
571.0 0.001751 596.47571 599.98370
602.0 0.001661 596.63263 598.92566
621.0 0.001610 596.78497 598.25525
633.0 0.001580 596.93298 598.56104
642.0 0.001558 597.07617 598.45764
646.0 0.001548 597.21484 598.49982
638.0 0.001567 597.34900 598.64764
615.0 0.001626 597.47845 598.89105
613.0 0.001631 597.60339 599.26099
591.0 0.001692 597.72382 599.84619
583.0 0.001715 597.83936 600.67029
594.0 0.001684 597.95068 602.35364
593.0 0.001686 598.05719 605.16644
608.0 0.001645 598.15900 609.67896
636.0 0.001572 598.25635 616.49872
663.0 0.001508 598.34906 626.09296
680.0 0.001471 598.43707 638.54529
702.0 0.001425 598.52051 653.67841
735.0 0.001361 598.59955 669.51361
766.0 0.001305 598.67383 684.38641
784.0 0.001276 598.74335 695.92719
804.0 0.001244 598.80847 702.01508
788.0 0.001269 598.86896 701.58618
767.0 0.001304 598.92480 695.08960
778.0 0.001285 598.97614 684.15936
737.0 0.001357 599.02277 670.92621
730.0 0.001370 599.06488 657.54437
729.0 0.001372 599.10242 645.90204
651.0 0.001536 599.13538 637.37341
655.0 0.001527 599.16382 632.68451
649.0 0.001541 599.18762 631.91492
602.0 0.001661 599.20685 635.06775
607.0 0.001647 599.22162 640.18372
606.0 0.001650 599.23181 646.34174
590.0 0.001695 599.23749 651.96753
573.0 0.001745 599.23865 655.58759
572.0 0.001748 599.23535 656.23529
602.0 0.001661 599.22754 653.77972
618.0 0.001618 599.21509 648.88928
599.0 0.001669 599.19830 642.70190
584.0 0.001712 599.17694 635.82104
586.0 0.001706 599.15131 631.02869
590.0 0.001695 599.12091 628.62756
590.0 0.001695 599.08618 629.34235
602.0 0.001661 599.04718 633.40399
608.0 0.001645 599.00372 644.39844
610.0 0.001639 598.95599 653.98846
623.0 0.001605 598.90363 664.29224
650.0 0.001538 598.84717 673.56354
658.0 0.001520 598.78583 680.13367
657.0 0.001522 598.72064 683.00958
662.0 0.001511 598.65100 682.44562
662.0 0.001511 598.57703 680.09668
677.0 0.001477 598.49884 678.75928
683.0 0.001464 598.41644 681.66364
668.0 0.001497 598.32965 693.77759
686.0 0.001458 598.23859 718.67352
736.0 0.001359 598.14349 759.34900
780.0 0.001282 598.04407 816.66864
806.0 0.001241 597.94025 888.31647
857.0 0.001167 597.83258 968.17456
950.0 0.001053 597.72076 1046.49231
1064.0 0.000940 597.60468 1111.15234
1169.0 0.000855 597.48462 1150.33911
1253.0 0.000798 597.36041 1156.43018
1269.0 0.000788 597.23212 1129.02087
1225.0 0.000816 597.09985 1074.38074
1163.0 0.000860 596.96338 1002.27936
1038.0 0.000963 596.82318 922.62787
930.0 0.001075 596.67883 845.95959
856.0 0.001168 596.53052 778.38763
743.0 0.001346 596.37830 723.44171
687.0 0.001456 596.22235 682.32825
659.0 0.001517 596.06232 652.70007
610.0 0.001639 595.89844 632.75732
596.0 0.001678 595.73083 619.99084
608.0 0.001645 595.55933 612.17102
591.0 0.001692 595.38422 607.57654
545.0 0.001835 595.20514 605.03625
570.0 0.001754 595.02246 603.87256
595.0 0.001681 594.83618 603.80542
587.0 0.001704 594.64612 604.85492
583.0 0.001715 594.45233 602.98828
606.0 0.001650 594.25494 607.45996
620.0 0.001613 594.05389 613.76624
616.0 0.001623 593.84967 622.26434
617.0 0.001621 593.64154 632.11115
611.0 0.001637 593.42993 642.81091
613.0 0.001631 593.21497 653.16248
622.0 0.001608 592.99634 661.66931
619.0 0.001616 592.77454 666.86975
656.0 0.001524 592.54926 667.82574
680.0 0.001471 592.32062 664.52179
649.0 0.001541 592.08868 657.83081
630.0 0.001587 591.85333 649.14319
648.0 0.001543 591.61487 640.01044
662.0 0.001511 591.37305 631.86737
637.0 0.001570 591.12805 625.78723
629.0 0.001590 590.87994 622.32281
620.0 0.001613 590.62860 621.47174
626.0 0.001597 590.37415 622.73779
662.0 0.001511 590.11670 625.25128
617.0 0.001621 589.85614 627.93274
616.0 0.001623 589.59265 629.70605
686.0 0.001458 589.32611 629.76233
670.0 0.001493 589.05664 627.78839
686.0 0.001458 588.78430 623.98608
719.0 0.001391 588.50903 691.35596
708.0 0.001412 588.23108 692.15631
700.0 0.001429 587.95007 693.89063
698.0 0.001433 587.66638 697.27252
718.0 0.001393 587.38000 702.92615
763.0 0.001311 587.09082 711.51575
788.0 0.001269 586.79895 724.07202
799.0 0.001252 586.50446 742.25146
846.0 0.001182 586.20746 770.95386
960.0 0.001042 585.90790 817.83209
1069.0 0.000935 585.60577 897.51624
1210.0 0.000826 585.30121 1034.49231
1464.0 0.000683 584.99408 1266.59680
1878.0 0.000532 584.68469 1644.36121
2474.0 0.000404 584.37268 2230.20020
3296.0 0.0003034 584.05829 3086.62061
4371.0 0.0002288 583.74176 4259.01660
5676.0 0.0001762 583.42297 5752.98682
7247.0 0.0001380 583.10211 7512.54590
9036.0 0.0001107 582.77881 9407.07129
10890.0 0.0000918 582.45325 11233.64844
12612.0 0.0000793 582.12579 12741.47363
13910.0 0.0000719 581.79608 13681.97070
14567.0 0.0000686 581.46454 13886.99316
14504.0 0.0000689 581.13062 13333.33398
13629.0 0.0000734 580.79510 12141.48926
12093.0 0.0000827 580.45746 10517.49414
10093.0 0.0000991 580.11804 8696.20020
7749.0 0.0001290 579.77649 6894.46582
5589.0 0.0001789 579.43347 5276.22168
3935.0 0.0002541 579.08850 3935.70288
2761.0 0.000362 578.74182 2901.36279
1913.0 0.000523 578.39349 2152.68506
1422.0 0.000703 578.04333 1640.96448
1199.0 0.000834 577.69153 1307.82422
1015.0 0.000985 577.33838 1098.34204
925.0 0.001081 576.98346 968.21320
892.0 0.001121 576.62726 886.78394
850.0 0.001176 576.26935 832.11707
823.0 0.001215 575.91010 793.47040
793.0 0.001261 575.54944 764.88654
764.0 0.001309 575.18744 743.61365
748.0 0.001337 574.82416 728.35492
721.0 0.001387 574.45966 718.19904
705.0 0.001418 574.09369 712.09808
719.0 0.001391 573.72668 708.72266
745.0 0.001342 573.35858 635.66394
715.0 0.001399 572.98938 638.85767
700.0 0.001429 572.61896 640.22992
736.0 0.001359 572.24738 639.85211
699.0 0.001431 571.87506 638.28699
673.0 0.001486 571.50171 637.07397
686.0 0.001458 571.12738 637.88770
691.0 0.001447 570.75208 642.26050
714.0 0.001401 570.37622 651.17169
696.0 0.001437 569.99939 664.70209
648.0 0.001543 569.62177 681.84674
665.0 0.001504 569.24359 700.53345
675.0 0.001481 568.86469 717.38287
682.0 0.001466 568.48492 730.18878
708.0 0.001412 568.10461 735.71436
705.0 0.001418 567.72388 732.77600
682.0 0.001466 567.34253 721.68329
658.0 0.001520 566.96082 704.50745
648.0 0.001543 566.57849 683.93860
670.0 0.001493 566.19580 662.75031
673.0 0.001486 565.81287 643.27185
652.0 0.001534 565.42938 627.03589
674.0 0.001484 565.04578 614.67548
680.0 0.001471 564.66193 606.02917
687.0 0.001456 564.27771 600.37347
731.0 0.001368 563.89343 596.36908
755.0 0.001325 563.50903 593.71930
776.0 0.001289 563.12439 591.83044
788.0 0.001269 562.73987 589.33112
767.0 0.001304 562.35510 586.68243
749.0 0.001335 561.97064 584.09534
724.0 0.001381 561.58594 581.87805
678.0 0.001475 561.20160 580.31714
633.0 0.001580 560.81738 579.57898
622.0 0.001608 560.43304 579.66174
618.0 0.001618 560.04919 580.39612
580.0 0.001724 559.66547 581.48828
545.0 0.001835 559.28204 581.62720
548.0 0.001825 558.89886 582.58765
574.0 0.001742 558.51617 583.25940
570.0 0.001754 558.13379 583.88513
550.0 0.001818 557.75183 584.95935
540.0 0.001852 557.37036 587.10370
558.0 0.001792 556.98944 590.90594
595.0 0.001681 556.60895 596.74194
588.0 0.001701 556.22913 604.61346
566.0 0.001767 555.84998 614.04449
592.0 0.001689 555.47156 624.06512
596.0 0.001678 555.09338 633.30237
575.0 0.001739 554.71631 640.05957
556.0 0.001799 554.33990 643.24738
549.0 0.001821 553.96417 642.24255
560.0 0.001786 553.58942 636.62457
572.0 0.001748 553.21545 627.52008
573.0 0.001745 552.84241 616.21301
584.0 0.001712 552.47028 604.08466
586.0 0.001706 552.09918 592.35486
570.0 0.001754 551.72900 581.91071
556.0 0.001799 551.35986 573.25000
551.0 0.001815 550.99182 566.52167
552.0 0.001812 550.62482 561.62646
557.0 0.001795 550.25903 558.33710
564.0 0.001773 549.89435 556.79944
565.0 0.001770 549.53082 556.08398
570.0 0.001754 549.16864 556.43091
590.0 0.001695 548.80756 557.81757
594.0 0.001684 548.44794 560.26349
572.0 0.001748 548.08972 563.77026
553.0 0.001808 547.73267 568.25250
570.0 0.001754 547.37708 573.48523
566.0 0.001767 547.02295 579.07910
556.0 0.001799 546.67041 584.50067
573.0 0.001745 546.31915 589.14502
578.0 0.001730 545.96936 591.91541
580.0 0.001724 545.62122 594.06305
580.0 0.001724 545.27472 594.48853
569.0 0.001757 544.92975 594.10852
583.0 0.001715 544.58649 593.78046
598.0 0.001672 544.24487 594.38391
592.0 0.001689 543.90491 596.59393
587.0 0.001704 543.56671 600.69153
576.0 0.001736 543.23035 606.45544
582.0 0.001718 542.89557 613.15979
618.0 0.001618 542.56268 619.68219
624.0 0.001603 542.23163 624.72888
617.0 0.001621 541.90247 627.59839
617.0 0.001621 541.57532 626.94427
609.0 0.001642 541.24982 623.36951
605.0 0.001653 540.92657 617.74432
605.0 0.001653 540.60522 611.27759
603.0 0.001658 540.28571 605.18988
604.0 0.001656 539.96832 600.43561
600.0 0.001667 539.65302 597.51581
584.0 0.001712 539.33984 596.41254
569.0 0.001757 539.02869 596.64410
581.0 0.001721 538.71960 597.42224
595.0 0.001681 538.41284 613.74695
587.0 0.001704 538.10809 614.42499
575.0 0.001739 537.80566 614.53906
575.0 0.001739 537.50549 614.18518
587.0 0.001704 537.20758 614.11627
606.0 0.001650 536.91180 615.24554
631.0 0.001585 536.61835 618.49561
625.0 0.001600 536.32721 624.74994
621.0 0.001610 536.03845 634.96167
689.0 0.001451 535.75214 650.44153
720.0 0.001389 535.46808 673.30304
734.0 0.001362 535.18652 707.58319
798.0 0.001253 534.90735 756.86694
893.0 0.001120 534.63062 829.98157
984.0 0.001016 534.35632 934.75775
1089.0 0.000918 534.08459 1079.29224
1251.0 0.000799 533.81537 1269.00830
1443.0 0.000693 533.54858 1503.97534
1664.0 0.000601 533.28455 1776.53284
1930.0 0.000518 533.02277 2069.91895
2243.0 0.000446 532.76379 2358.48462
2555.0 0.000391 532.50720 2609.90381
2789.0 0.000359 532.25354 2790.46680
2909.0 0.0003438 532.00226 2871.37378
2972.0 0.0003365 531.75378 2839.88013
2938.0 0.0003404 531.50787 2703.29248
2777.0 0.000360 531.26477 2483.95264
2513.0 0.000398 531.02435 2213.24658
2171.0 0.000461 530.78656 1923.92773
1788.0 0.000559 530.55157 1644.38281
1428.0 0.000700 530.31927 1395.08984
1153.0 0.000867 530.08997 1187.40930
930.0 0.001075 529.86322 1024.31665
768.0 0.001302 529.63928 902.44653
690.0 0.001449 529.41815 814.74689
636.0 0.001572 529.19983 752.63007
604.0 0.001656 528.98462 709.56653
590.0 0.001695 528.77179 679.35883
572.0 0.001748 528.56213 658.04791
587.0 0.001704 528.35529 643.11285
598.0 0.001672 528.15131 632.95947
574.0 0.001742 527.95013 626.43323
578.0 0.001730 527.75189 622.47125
588.0 0.001701 527.55670 619.93738
592.0 0.001689 527.36444 620.33282
608.0 0.001645 527.17505 617.42212
638.0 0.001567 526.98865 596.41907
633.0 0.001580 526.80505 591.55505
607.0 0.001647 526.62457 585.09344
635.0 0.001575 526.44708 577.66553
621.0 0.001610 526.27252 570.04803
597.0 0.001675 526.10095 563.03333
631.0 0.001585 525.93237 557.36108
642.0 0.001558 525.76672 553.71356
615.0 0.001626 525.60425 552.76398
584.0 0.001712 525.44476 555.35883
583.0 0.001715 525.28821 562.12177
588.0 0.001701 525.13477 573.47943
589.0 0.001698 524.98431 591.66449
609.0 0.001642 524.83691 616.71277
677.0 0.001477 524.69269 648.81665
739.0 0.001353 524.55139 687.32404
756.0 0.001323 524.41315 730.48547
734.0 0.001362 524.27789 775.35248
726.0 0.001377 524.14594 817.89075
751.0 0.001332 524.01685 853.84985
788.0 0.001269 523.89087 877.61548
797.0 0.001255 523.76807 886.14447
790.0 0.001266 523.64832 877.80322
760.0 0.001316 523.53143 855.04938
725.0 0.001379 523.41797 820.95447
725.0 0.001379 523.30737 781.57654
682.0 0.001466 523.19989 738.69458
616.0 0.001623 523.09552 697.60748
598.0 0.001672 522.99414 661.13245
593.0 0.001686 522.89594 630.86456
590.0 0.001695 522.80084 607.29852
569.0 0.001757 522.70886 590.11475
518.0 0.001931 522.61981 578.53503
524.0 0.001908 522.53394 571.64795
563.0 0.001776 522.45111 568.61328
581.0 0.001721 522.37140 569.22888
586.0 0.001706 522.29474 571.98645
579.0 0.001727 522.22113 576.85638
564.0 0.001773 522.15063 583.37213
558.0 0.001792 522.08313 591.07269
571.0 0.001751 522.01874 599.53778
570.0 0.001754 521.95740 608.47717
567.0 0.001764 521.89917 617.87415
600.0 0.001667 521.84393 628.12018
597.0 0.001675 521.79169 637.30182
602.0 0.001661 521.74261 652.02386
645.0 0.001550 521.69647 670.45776
658.0 0.001520 521.65332 692.18335
663.0 0.001508 521.61346 716.89355
676.0 0.001479 521.57635 743.01874
694.0 0.001441 521.54218 768.12274
721.0 0.001387 521.51123 789.20825
739.0 0.001353 521.48322 803.29523
748.0 0.001337 521.45819 808.24677
758.0 0.001319 521.43610 803.51355
745.0 0.001342 521.41699 790.20026
744.0 0.001344 521.40082 771.46045
748.0 0.001337 521.38770 749.33905
697.0 0.001435 521.37738 727.04126
664.0 0.001506 521.37000 706.67426
641.0 0.001560 521.36572 689.39978
595.0 0.001681 521.36426 675.41547
579.0 0.001727 521.36572 664.15070
573.0 0.001745 521.36987 654.64508
572.0 0.001748 521.37708 646.00476
585.0 0.001709 521.38721 637.21930
571.0 0.001751 521.40009 629.33673
560.0 0.001786 521.41589 622.09204
564.0 0.001773 521.43445 615.88812
552.0 0.001812 521.45587 611.04065
553.0 0.001808 521.48004 607.65045
561.0 0.001783 521.50720 605.55548
560.0 0.001786 521.53693 604.37164
557.0 0.001795 521.56952 603.62036
563.0 0.001776 521.60492 602.91797
576.0 0.001736 521.64294 602.13580
581.0 0.001721 521.68378 602.01160
563.0 0.001776 521.72736 601.73187
559.0 0.001789 521.77362 602.14703
562.0 0.001779 521.82239 603.39160
544.0 0.001838 521.87402 605.32983
562.0 0.001779 521.92828 606.07404
559.0 0.001789 521.98517 607.93372
537.0 0.001862 522.04462 608.54633
573.0 0.001745 522.10669 607.20850
578.0 0.001730 522.17139 603.55365
559.0 0.001789 522.23871 597.89758
560.0 0.001786 522.30853 590.28589
566.0 0.001767 522.38080 581.66302
568.0 0.001761 522.45575 572.84656
568.0 0.001761 522.53308 564.61896
570.0 0.001754 522.61298 557.14227
569.0 0.001757 522.69525 552.01782
570.0 0.001754 522.78009 549.08527
581.0 0.001721 522.86725 548.60229
594.0 0.001684 522.95679 550.70374
573.0 0.001745 523.04901 555.39960
569.0 0.001757 523.14337 562.71191
593.0 0.001686 523.23993 572.02509
607.0 0.001647 523.33917 582.96942
630.0 0.001587 523.44031 594.80817
633.0 0.001580 523.54388 606.60760
612.0 0.001634 523.64996 616.97516
617.0 0.001621 523.75812 625.49316
624.0 0.001603 523.86859 630.92358
619.0 0.001616 523.98126 632.80450
615.0 0.001626 524.09601 634.54102
624.0 0.001603 524.21301 630.44110
622.0 0.001608 524.33215 624.53290
610.0 0.001639 524.45337 617.81781
608.0 0.001645 524.57678 611.14569
626.0 0.001597 524.70209 605.09784
636.0 0.001572 524.82971 599.51086
639.0 0.001565 524.95917 595.28320
657.0 0.001522 525.09076 591.77618
682.0 0.001466 525.22424 588.80066
651.0 0.001536 525.35974 586.29144
620.0 0.001613 525.49725 584.37836
666.0 0.001502 525.63660 583.38593
636.0 0.001572 525.77789 583.80945
623.0 0.001605 525.92096 586.29761
644.0 0.001553 526.06592 591.64789
603.0 0.001658 526.21271 600.80316
662.0 0.001511 526.36133 614.83075
701.0 0.001427 526.51184 634.86420
666.0 0.001502 526.66394 661.98645
707.0 0.001414 526.81781 697.44525
740.0 0.001351 526.97345 740.70630
766.0 0.001305 527.13055 791.54504
814.0 0.001229 527.28955 848.17163
860.0 0.001163 527.45007 907.48505
924.0 0.001082 527.61224 965.13660
984.0 0.001016 527.77600 1015.20508
1026.0 0.000975 527.94122 1053.34436
1083.0 0.000923 528.10809 1073.92480
1114.0 0.000898 528.27643 1073.93091
1122.0 0.000891 528.44623 1054.08911
1126.0 0.000888 528.61737 1015.49634
1101.0 0.000908 528.79022 963.71210
1047.0 0.000955 528.96423 904.33557
957.0 0.001045 529.13971 842.83331
852.0 0.001174 529.31653 783.88220
807.0 0.001239 529.49469 731.00549
752.0 0.001330 529.67413 686.21381
679.0 0.001473 529.85468 651.00275
646.0 0.001548 530.03662 625.12982
659.0 0.001517 530.21985 607.85938
648.0 0.001543 530.40424 598.00281
626.0 0.001597 530.58984 594.16589
632.0 0.001582 530.77649 594.92944
610.0 0.001639 530.96411 598.96594
588.0 0.001701 531.15308 605.10236
611.0 0.001637 531.34290 612.35114
656.0 0.001524 531.53387 619.79114
640.0 0.001563 531.72571 627.21796
649.0 0.001541 531.91864 650.27551
671.0 0.001490 532.11249 658.16107
644.0 0.001553 532.30737 666.12817
658.0 0.001520 532.50311 674.42230
656.0 0.001524 532.69971 683.09381
647.0 0.001546 532.89691 691.89490
680.0 0.001471 533.09509 700.26678
687.0 0.001456 533.29407 707.42212
678.0 0.001475 533.49384 709.23004
686.0 0.001458 533.69421 712.01160
713.0 0.001403 533.89545 713.05151
731.0 0.001368 534.09711 712.10297
710.0 0.001408 534.29968 711.91925
723.0 0.001383 534.50275 715.59088
819.0 0.001221 534.70642 727.12268
859.0 0.001164 534.91064 751.35449
894.0 0.001119 535.11548 793.80951
961.0 0.001041 535.32080 860.38190
1044.0 0.000958 535.52643 956.78864
1159.0 0.000863 535.73273 1087.75513
1346.0 0.000743 535.93939 1256.48242
1563.0 0.000640 536.14630 1461.53247
1765.0 0.000567 536.35382 1698.72876
1777.0 0.000563 536.56152 1958.56165
2007.0 0.000498 536.76971 2226.53271
2270.0 0.000441 536.97797 2483.70068
2506.0 0.000399 537.18665 2708.04590
2665.0 0.000375 537.39545 2876.51001
2826.0 0.000354 537.60461 2970.67065
2906.0 0.0003441 537.81378 2979.80957
2949.0 0.0003391 538.02307 2901.86963
2951.0 0.0003389 538.23267 2749.05396
2797.0 0.000358 538.44214 2540.25610
2639.0 0.000379 538.65192 2297.53125
2409.0 0.000415 538.86151 2042.30017
2093.0 0.000478 539.07135 1792.84546
1794.0 0.000557 539.28088 1562.92395
1530.0 0.000654 539.49066 1360.43201
1310.0 0.000763 539.70032 1191.25122
1127.0 0.000887 539.90985 1055.53735
985.0 0.001015 540.11914 949.34460
895.0 0.001117 540.32837 869.50665
835.0 0.001198 540.53741 811.46460
778.0 0.001285 540.74634 770.69464
745.0 0.001342 540.95502 743.13184
756.0 0.001323 541.16327 725.37354
746.0 0.001340 541.37140 714.72614
700.0 0.001429 541.57916 709.16504
696.0 0.001437 541.78656 707.91302
735.0 0.001361 541.99384 708.83624
712.0 0.001404 542.20032 712.00751
736.0 0.001359 542.40674 717.07825
749.0 0.001335 542.61243 723.68518
722.0 0.001385 542.81793 731.32526
737.0 0.001357 543.02289 739.30255
761.0 0.001314 543.22736 746.75671
770.0 0.001299 543.43103 752.77441
768.0 0.001302 543.63428 740.98444
766.0 0.001305 543.83704 743.27692
758.0 0.001319 544.03906 743.00873
775.0 0.001290 544.24054 740.73383
781.0 0.001280 544.44135 737.20605
761.0 0.001314 544.64117 733.14246
774.0 0.001292 544.84064 729.05664
793.0 0.001261 545.03925 725.18164
781.0 0.001280 545.23718 721.48022
767.0 0.001304 545.43414 717.03497
792.0 0.001263 545.63031 713.07965
794.0 0.001259 545.82587 708.78918
774.0 0.001292 546.02026 704.29797
763.0 0.001311 546.21381 699.87244
769.0 0.001300 546.40668 695.78302
771.0 0.001297 546.59839 692.19293
772.0 0.001295 546.78925 689.10229
763.0 0.001311 546.97919 686.34131
749.0 0.001335 547.16797 683.61902
757.0 0.001321 547.35590 681.48926
749.0 0.001335 547.54254 678.16388
728.0 0.001374 547.72833 674.36768
705.0 0.001418 547.91290 670.23956
673.0 0.001486 548.09637 666.13885
667.0 0.001499 548.27881 661.89270
661.0 0.001513 548.46002 657.69281
649.0 0.001541 548.64014 653.44543
661.0 0.001513 548.81866 648.95526
662.0 0.001511 548.99646 642.88641
661.0 0.001513 549.17261 637.41168
663.0 0.001508 549.34784 631.38501
651.0 0.001536 549.52155 625.07648
642.0 0.001558 549.69397 619.44897
657.0 0.001522 549.86511 614.09174
659.0 0.001517 550.03497 610.11023
635.0 0.001575 550.20331 608.12445
674.0 0.001484 550.37030 608.69348
702.0 0.001425 550.53607 612.25305
678.0 0.001475 550.70020 618.27368
655.0 0.001527 550.86298 628.38428
693.0 0.001443 551.02417 641.47852
718.0 0.001393 551.18384 657.77393
721.0 0.001387 551.34210 674.86310
733.0 0.001364 551.49872 692.35724
737.0 0.001357 551.65393 708.92334
751.0 0.001332 551.80756 723.14185
774.0 0.001292 551.95972 733.67981
791.0 0.001264 552.11017 738.87555
794.0 0.001259 552.25891 739.63947
817.0 0.001224 552.40607 735.51929
829.0 0.001206 552.55170 733.56592
825.0 0.001212 552.69550 722.97552
843.0 0.001186 552.83771 710.96307
789.0 0.001267 552.97797 698.81110
737.0 0.001357 553.11682 687.61121
755.0 0.001325 553.25378 678.19763
763.0 0.001311 553.38916 671.13647
713.0 0.001403 553.52264 666.28339
705.0 0.001418 553.65417 664.71417
739.0 0.001353 553.78418 666.32800
682.0 0.001466 553.91229 670.07379
678.0 0.001475 554.03839 676.07697
679.0 0.001473 554.16296 683.97296
648.0 0.001543 554.28534 693.38269
668.0 0.001497 554.40619 703.98840
673.0 0.001486 554.52490 715.63568
677.0 0.001477 554.64185 728.45984
682.0 0.001466 554.75677 742.98193
652.0 0.001534 554.86987 760.12708
676.0 0.001479 554.98096 781.26752
718.0 0.001393 555.08997 807.62604
746.0 0.001340 555.19720 840.82452
801.0 0.001248 555.30249 882.27478
855.0 0.001170 555.40558 933.12665
912.0 0.001096 555.50690 994.10498
976.0 0.001025 555.60596 1063.97827
1040.0 0.000962 555.70325 1144.98669
1140.0 0.000877 555.79840 1234.08179
1250.0 0.000800 555.89136 1328.47827
1340.0 0.000746 555.98248 1424.01489
1416.0 0.000706 556.07135 1515.17651
1469.0 0.000681 556.15820 1595.36951
1548.0 0.000646 556.24292 1657.52112
1646.0 0.000608 556.32574 1695.08887
1674.0 0.000597 556.40637 1703.41675
1696.0 0.000590 556.48474 1680.98608
1736.0 0.000576 556.56104 1629.86926
1736.0 0.000576 556.63519 1557.59497
1638.0 0.000611 556.70721 1466.09253
1520.0 0.000658 556.77728 1364.87366
1411.0 0.000709 556.84485 1260.42444
1300.0 0.000769 556.91040 1158.64819
1187.0 0.000842 556.97369 1063.57874
1051.0 0.000951 557.03497 978.00867
920.0 0.001087 557.09381 903.43732
831.0 0.001203 557.15070 840.65027
772.0 0.001295 557.20538 788.55707
724.0 0.001381 557.25769 746.53076
681.0 0.001468 557.30804 713.27637
648.0 0.001543 557.35583 686.87067
635.0 0.001575 557.40155 667.02734
653.0 0.001531 557.44489 652.04211
655.0 0.001527 557.48621 641.02411
609.0 0.001642 557.52515 633.38715
603.0 0.001658 557.56195 629.26764
628.0 0.001592 557.59637 627.87445
638.0 0.001567 557.62878 629.83276
629.0 0.001590 557.65869 635.53815
660.0 0.001515 557.68634 644.64752
671.0 0.001490 557.71185 659.30444
658.0 0.001520 557.73505 678.97766
687.0 0.001456 557.75586 703.76501
729.0 0.001372 557.77441 733.41522
746.0 0.001340 557.79089 767.93066
756.0 0.001323 557.80487 804.79797
803.0 0.001245 557.81665 843.00861
828.0 0.001208 557.82611 880.46643
845.0 0.001183 557.83331 908.24384
877.0 0.001140 557.83838 937.18994
903.0 0.001107 557.84088 958.05304
903.0 0.001107 557.84131 969.09692
898.0 0.001114 557.83929 969.59601
902.0 0.001109 557.83514 961.17407
890.0 0.001124 557.82849 943.09473
881.0 0.001135 557.81976 918.60156
845.0 0.001183 557.80872 890.06097
788.0 0.001269 557.79529 859.72559
813.0 0.001230 557.77960 829.08783
793.0 0.001261 557.76166 800.58881
734.0 0.001362 557.74139 774.85394
741.0 0.001350 557.71887 752.59192
724.0 0.001381 557.69403 734.30176
688.0 0.001453 557.66699 719.85004
665.0 0.001504 557.63770 709.21606
657.0 0.001522 557.60614 702.07959
668.0 0.001497 557.57214 697.99127
675.0 0.001481 557.53601 696.32458
673.0 0.001486 557.49774 696.80145
683.0 0.001464 557.45703 698.86218
660.0 0.001515 557.41418 702.19183
641.0 0.001560 557.36920 707.29169
661.0 0.001513 557.32166 712.75458
674.0 0.001484 557.27203 719.16962
694.0 0.001441 557.22015 726.44421
701.0 0.001427 557.16595 734.40778
688.0 0.001453 557.10986 742.80615
717.0 0.001395 557.05127 751.32690
722.0 0.001385 556.99060 759.66205
706.0 0.001416 556.92761 767.56335
731.0 0.001368 556.86237 774.84930
737.0 0.001357 556.79504 781.35266
747.0 0.001339 556.72559 786.83954
784.0 0.001276 556.65393 790.95221
815.0 0.001227 556.58002 793.20514
812.0 0.001232 556.50409 790.67792
793.0 0.001261 556.42596 787.74048
786.0 0.001272 556.34564 781.61597
789.0 0.001267 556.26312 772.61920
778.0 0.001285 556.17871 760.81616
767.0 0.001304 556.09198 747.21423
780.0 0.001282 556.00311 732.76752
793.0 0.001261 555.91229 718.43732
783.0 0.001277 555.81940 705.08228
748.0 0.001337 555.72406 693.03149
699.0 0.001431 555.62720 683.50281
651.0 0.001536 555.52777 676.36591
643.0 0.001555 555.42664 672.35413
662.0 0.001511 555.32336 669.89154
648.0 0.001543 555.21783 669.25287
623.0 0.001605 555.11072 669.87378
609.0 0.001642 555.00128 671.06866
613.0 0.001631 554.88983 671.66479
625.0 0.001600 554.77649 671.84259
623.0 0.001605 554.66125 670.56744
623.0 0.001605 554.54388 667.49719
642.0 0.001558 554.42468 663.00354
637.0 0.001570 554.30359 656.50403
636.0 0.001572 554.18030 648.83228
644.0 0.001553 554.05536 640.53662
628.0 0.001592 553.92853 632.19104
631.0 0.001585 553.79968 623.61908
629.0 0.001590 553.66907 616.76495
604.0 0.001656 553.53638 611.23846
604.0 0.001656 553.40216 607.78363
619.0 0.001616 553.26581 605.61334
614.0 0.001629 553.12775 605.22827
595.0 0.001681 552.98785 606.58112
625.0 0.001600 552.84637 609.55078
635.0 0.001575 552.70294 613.95593
606.0 0.001650 552.55780 618.39520
608.0 0.001645 552.41077 625.05463
645.0 0.001550 552.26221 632.43958
651.0 0.001536 552.11163 640.31958
619.0 0.001616 551.95972 648.47900
628.0 0.001592 551.80597 656.69714
662.0 0.001511 551.65051 664.72821
670.0 0.001493 551.49353 672.28528
647.0 0.001546 551.33478 679.04358
667.0 0.001499 551.17444 684.55090
666.0 0.001502 551.01263 688.77301
654.0 0.001529 550.84888 691.41852
691.0 0.001447 550.68378 692.85779
691.0 0.001447 550.51709 692.56189
668.0 0.001497 550.34900 691.16125
666.0 0.001502 550.17908 688.97882
683.0 0.001464 550.00812 686.30695
691.0 0.001447 549.83514 683.36615
692.0 0.001445 549.66101 679.63177
703.0 0.001422 549.48541 676.55536
728.0 0.001374 549.30829 673.96765
735.0 0.001361 549.12970 670.93451
712.0 0.001404 548.95001 667.93109
684.0 0.001462 548.76855 664.92560
684.0 0.001462 548.58606 661.83264
678.0 0.001475 548.40210 658.50958
653.0 0.001531 548.21655 654.78064
654.0 0.001529 548.03003 650.48053
652.0 0.001534 547.84216 645.50726
661.0 0.001513 547.65302 639.87372
684.0 0.001462 547.46259 633.72327
650.0 0.001538 547.27094 627.31195
644.0 0.001553 547.07800 620.96210
674.0 0.001484 546.88373 615.01318
660.0 0.001515 546.68878 609.78528
647.0 0.001546 546.49237 605.32025
653.0 0.001531 546.29468 602.29144
654.0 0.001529 546.09619 637.56946
624.0 0.001603 545.89642 639.40295
650.0 0.001538 545.69550 642.76147
684.0 0.001462 545.49371 647.68103
659.0 0.001517 545.29095 653.76868
673.0 0.001486 545.08691 660.95746
690.0 0.001449 544.88202 669.05347
685.0 0.001460 544.67609 677.18610
689.0 0.001451 544.46918 686.76019
716.0 0.001397 544.26154 697.12390
736.0 0.001359 544.05273 708.61371
738.0 0.001355 543.84314 722.18292
752.0 0.001330 543.63275 738.19397
777.0 0.001287 543.42139 758.37549
802.0 0.001247 543.20923 784.67902
831.0 0.001203 542.99640 819.69073
880.0 0.001136 542.78265 866.32428
959.0 0.001043 542.56818 929.52380
1060.0 0.000943 542.35278 1013.71320
1172.0 0.000853 542.13696 1124.31042
1327.0 0.000754 541.92010 1267.53931
1529.0 0.000654 541.70276 1447.51245
1764.0 0.000567 541.48468 1669.10278
2021.0 0.000495 541.26605 1934.85486
2329.0 0.000429 541.04681 2244.28662
2677.0 0.000374 540.82690 2595.23047
3026.0 0.0003305 540.60645 2980.19727
3382.0 0.0002957 540.38544 3388.20703
3778.0 0.0002647 540.16382 3805.02856
4175.0 0.0002395 539.94177 4210.69580
4482.0 0.0002231 539.71918 4584.55615
4732.0 0.0002113 539.49622 4903.75293
4968.0 0.0002013 539.27283 5145.90527
5155.0 0.0001940 539.04883 5291.93848
5179.0 0.0001931 538.82446 5329.36133
5120.0 0.0001953 538.59979 5254.91748
5004.0 0.0001998 538.37482 5075.34082
4786.0 0.0002089 538.14941 4806.61230
4519.0 0.0002213 537.92365 4467.64258
4156.0 0.0002406 537.69775 4081.95923
3696.0 0.0002706 537.47137 3671.98413
3240.0 0.0003086 537.24487 3258.12524
2775.0 0.000360 537.01807 2857.34985
2329.0 0.000429 536.79108 2483.97534
1942.0 0.000515 536.56384 2147.26147
1586.0 0.000631 536.33655 1853.25952
1364.0 0.000733 536.10901 1603.52832
1220.0 0.000820 535.88147 1397.60376
1000.0 0.001000 535.65381 1232.47339
917.0 0.001091 535.42590 1103.64050
907.0 0.001103 535.19818 1005.33026
843.0 0.001186 534.97003 933.15094
801.0 0.001248 534.74213 881.41663
773.0 0.001294 534.51434 845.55121
773.0 0.001294 534.28638 821.67883
809.0 0.001236 534.05872 806.63263
803.0 0.001245 533.83093 797.89301
784.0 0.001276 533.60321 793.49536
780.0 0.001282 533.37567 791.94293
770.0 0.001299 533.14813 792.13593
781.0 0.001280 532.92090 793.31964
775.0 0.001290 532.69373 795.02460
729.0 0.001372 532.46692 798.13513
721.0 0.001387 532.24017 800.28436
740.0 0.001351 532.01373 802.45587
745.0 0.001342 531.78760 804.52094
719.0 0.001391 531.56152 806.30688
700.0 0.001429 531.33600 769.26019
699.0 0.001431 531.11053 772.02081
699.0 0.001431 530.88556 773.83099
687.0 0.001456 530.66107 775.25543
676.0 0.001479 530.43683 775.11896
665.0 0.001504 530.21289 773.98126
650.0 0.001538 529.98950 771.77997
652.0 0.001534 529.76666 768.39270
689.0 0.001451 529.54407 763.67206
715.0 0.001399 529.32202 757.50012
678.0 0.001475 529.10059 749.85730
668.0 0.001497 528.87946 740.85767
677.0 0.001477 528.65906 731.10327
676.0 0.001479 528.43921 720.22406
687.0 0.001456 528.21991 708.92017
684.0 0.001462 528.00122 697.42041
665.0 0.001504 527.78302 686.30927
654.0 0.001529 527.56567 675.77704
655.0 0.001527 527.34882 666.14966
683.0 0.001464 527.13263 657.77155
704.0 0.001420 526.91736 654.13458
677.0 0.001477 526.70251 649.48120
680.0 0.001471 526.48865 647.10809
702.0 0.001425 526.27527 646.91852
700.0 0.001429 526.06281 649.72687
703.0 0.001422 525.85114 655.19855
718.0 0.001393 525.64026 663.21606
729.0 0.001372 525.43024 673.52484
725.0 0.001379 525.22107 691.48566
722.0 0.001385 525.01257 705.36591
740.0 0.001351 524.80518 720.02423
762.0 0.001312 524.59857 734.75238
749.0 0.001335 524.39294 748.21014
757.0 0.001321 524.18811 760.89948
782.0 0.001279 523.98444 771.59985
782.0 0.001279 523.78156 779.92511
767.0 0.001304 523.57971 785.76208
773.0 0.001294 523.37891 789.65106
781.0 0.001280 523.17908 791.24011
759.0 0.001318 522.98035 791.42560
777.0 0.001287 522.78235 790.07996
792.0 0.001263 522.58582 789.40326
778.0 0.001285 522.39020 789.32574
799.0 0.001252 522.19550 790.62140
792.0 0.001263 522.00220 794.13141
781.0 0.001280 521.80988 801.47449
811.0 0.001233 521.61877 812.13831
809.0 0.001236 521.42889 827.66559
818.0 0.001222 521.23999 848.79211
854.0 0.001171 521.05231 875.27856
873.0 0.001145 520.86584 909.16003
902.0 0.001109 520.68066 949.74426
957.0 0.001045 520.49652 996.95648
1028.0 0.000973 520.31384 1050.46558
1097.0 0.000912 520.13232 1109.64539
1144.0 0.000874 519.95203 1173.53296
1198.0 0.000835 519.77313 1240.80164
1286.0 0.000778 519.59558 1309.44629
1377.0 0.000726 519.41913 1378.18176
1457.0 0.000686 519.24408 1444.58630
1514.0 0.000661 519.07056 1506.63135
1547.0 0.000646 518.89807 1562.47095
1618.0 0.000618 518.72705 1610.47266
1685.0 0.000593 518.55762 1649.14160
1707.0 0.000586 518.38940 1677.02234
1722.0 0.000581 518.22260 1692.66638
1764.0 0.000567 518.05713 1694.73853
1784.0 0.000561 517.89319 1682.26245
1739.0 0.000575 517.73071 1654.94336
1698.0 0.000589 517.56952 1613.42688
1644.0 0.000608 517.40985 1559.73291
1557.0 0.000642 517.25159 1495.57532
1457.0 0.000686 517.09491 1424.22400
1370.0 0.000730 516.93970 1348.68726
1287.0 0.000777 516.78595 1270.65906
1189.0 0.000841 516.63373 1194.93640
1084.0 0.000923 516.48303 1122.36487
1001.0 0.000999 516.33380 1054.50562
917.0 0.001091 516.18616 992.91425
826.0 0.001211 516.04004 937.26666
798.0 0.001253 515.89539 888.17896
760.0 0.001316 515.75250 845.42059
706.0 0.001416 515.61102 807.82898
699.0 0.001431 515.47113 775.92212
668.0 0.001497 515.33282 748.21088
655.0 0.001527 515.19617 723.88422
672.0 0.001488 515.06110 702.74274
648.0 0.001543 514.92755 683.27808
649.0 0.001541 514.79578 665.59412
665.0 0.001504 514.66553 649.46313
657.0 0.001522 514.53680 634.76855
654.0 0.001529 514.40997 621.13043
658.0 0.001520 514.28467 609.27527
659.0 0.001517 514.16083 598.89020
647.0 0.001546 514.03876 590.49579
625.0 0.001600 513.91852 583.25244
623.0 0.001605 513.79962 577.63409
637.0 0.001570 513.68274 573.65082
628.0 0.001592 513.56732 571.27808
637.0 0.001570 513.45349 567.33307
645.0 0.001550 513.34161 568.12634
630.0 0.001587 513.23132 570.25659
624.0 0.001603 513.12256 573.58075
626.0 0.001597 513.01563 578.59204
622.0 0.001608 512.91040 583.82648
610.0 0.001639 512.80688 589.71448
614.0 0.001629 512.70490 596.05023
611.0 0.001637 512.60480 596.70776
598.0 0.001672 512.50623 603.60925
610.0 0.001639 512.40948 610.36835
661.0 0.001513 512.31470 616.85498
678.0 0.001475 512.22125 623.57263
643.0 0.001555 512.12970 629.33081
640.0 0.001563 512.03979 634.66785
647.0 0.001546 511.95166 639.57001
646.0 0.001548 511.86526 644.01917
650.0 0.001538 511.78040 647.62982
672.0 0.001488 511.69754 651.13354
669.0 0.001495 511.61618 654.15326
674.0 0.001484 511.53671 656.72546
721.0 0.001387 511.45883 658.91022
703.0 0.001422 511.38269 661.17175
691.0 0.001447 511.30835 662.80951
720.0 0.001389 511.23557 664.24506
738.0 0.001355 511.16464 664.78589
749.0 0.001335 511.09540 665.91980
750.0 0.001333 511.02795 666.91547
738.0 0.001355 510.96210 667.81616
730.0 0.001370 510.89792 668.68585
745.0 0.001342 510.83548 669.71997
776.0 0.001289 510.77475 670.73700
799.0 0.001252 510.71585 671.89069
794.0 0.001259 510.65845 673.18097
768.0 0.001302 510.60281 674.58136
761.0 0.001314 510.54886 676.04980
785.0 0.001274 510.49670 677.54126
771.0 0.001297 510.44617 679.01215
755.0 0.001325 510.39725 681.17511
758.0 0.001319 510.34995 682.47095
758.0 0.001319 510.30444 683.53528
760.0 0.001316 510.26056 684.24396
744.0 0.001344 510.21838 684.45825
713.0 0.001403 510.17795 684.04883
703.0 0.001422 510.13889 682.91754
696.0 0.001437 510.10165 681.01355
670.0 0.001493 510.06592 678.92999
648.0 0.001543 510.03198 675.51672
666.0 0.001502 509.99951 671.38947
645.0 0.001550 509.96875 666.59857
627.0 0.001595 509.93958 660.83875
649.0 0.001541 509.91211 654.94971
624.0 0.001603 509.88605 648.67664
617.0 0.001621 509.86160 642.19855
634.0 0.001577 509.83887 635.73468
642.0 0.001558 509.81757 629.52435
656.0 0.001524 509.79773 623.80231
631.0 0.001585 509.77975 618.77600
601.0 0.001664 509.76306 614.13379
623.0 0.001605 509.74805 610.95575
642.0 0.001558 509.73441 608.79919
655.0 0.001527 509.72238 607.66534
655.0 0.001527 509.71185 608.12292
630.0 0.001587 509.70276 608.86896
612.0 0.001634 509.69522 610.37354
607.0 0.001647 509.68915 612.49292
621.0 0.001610 509.68457 614.57886
649.0 0.001541 509.68130 617.54523
629.0 0.001590 509.67963 620.78278
620.0 0.001613 509.67923 624.26764
644.0 0.001553 509.68036 628.74170
640.0 0.001563 509.68286 632.88763
631.0 0.001585 509.68680 637.47906
629.0 0.001590 509.69202 642.60144
628.0 0.001592 509.69861 647.84131
631.0 0.001585 509.70670 654.19470
634.0 0.001577 509.71600 661.13892
658.0 0.001520 509.72672 668.60095
695.0 0.001439 509.73865 676.45245
687.0 0.001456 509.75198 684.50757
680.0 0.001471 509.76642 692.52478
693.0 0.001443 509.78235 700.21393
704.0 0.001420 509.79944 707.25677
693.0 0.001443 509.81778 712.70618
700.0 0.001429 509.83740 717.57843
700.0 0.001429 509.85831 721.01031
676.0 0.001479 509.88022 722.89233
686.0 0.001458 509.90347 732.50031
681.0 0.001468 509.92776 731.69495
680.0 0.001471 509.95331 729.49908
706.0 0.001416 509.97989 726.05475
702.0 0.001425 510.00775 720.96716
695.0 0.001439 510.03656 715.63904
700.0 0.001429 510.06668 709.74927
704.0 0.001420 510.09766 703.63330
701.0 0.001427 510.12988 697.92957
687.0 0.001456 510.16290 692.50507
679.0 0.001473 510.19720 687.97650
687.0 0.001456 510.23239 684.65808
688.0 0.001453 510.26862 682.79694
685.0 0.001460 510.30557 682.56274
682.0 0.001466 510.34375 684.04639
684.0 0.001462 510.38284 687.25946
702.0 0.001425 510.42279 692.25616
704.0 0.001420 510.46375 698.70685
693.0 0.001443 510.50549 706.56696
693.0 0.001443 510.54825 715.67853
707.0 0.001414 510.59161 725.90979
730.0 0.001370 510.63593 737.19873
741.0 0.001350 510.68100 749.59326
747.0 0.001339 510.72690 763.28064
805.0 0.001242 510.77371 779.50916
826.0 0.001211 510.82098 796.98279
839.0 0.001192 510.86926 817.18073
899.0 0.001112 510.91824 840.42548
923.0 0.001083 510.96768 868.26202
988.0 0.001012 511.01801 901.09973
1068.0 0.000936 511.06891 939.73895
1113.0 0.000898 511.12051 984.91528
1202.0 0.000832 511.17252 1037.86487
1315.0 0.000760 511.22546 1097.68530
1406.0 0.000711 511.27875 1165.01123
1467.0 0.000682 511.33249 1239.31653
1530.0 0.000654 511.38696 1319.95422
1615.0 0.000619 511.44196 1405.37805
1700.0 0.000588 511.49734 1493.64380
1763.0 0.000567 511.55322 1582.30701
1814.0 0.000551 511.60953 1668.61938
1890.0 0.000529 511.66629 1749.08716
1936.0 0.000517 511.72351 1820.41064
1952.0 0.000512 511.78104 1878.40222
2010.0 0.000498 511.83884 1921.46191
1961.0 0.000510 511.89716 1946.26294
1915.0 0.000522 511.95578 1951.21863
1918.0 0.000521 512.01453 1935.92896
1826.0 0.000548 512.07373 1901.99915
1736.0 0.000576 512.13312 1849.87793
1678.0 0.000596 512.19269 1783.04980
1607.0 0.000622 512.25262 1704.14258
1500.0 0.000667 512.31250 1617.80530
1407.0 0.000711 512.37268 1526.77673
1319.0 0.000758 512.43298 1434.22083
1224.0 0.000817 512.49353 1342.98132
1143.0 0.000875 512.55408 1255.49915
1087.0 0.000920 512.61462 1173.76270
1009.0 0.000991 512.67535 1099.26892
926.0 0.001080 512.73584 1033.01965
885.0 0.001130 512.79669 975.54248
856.0 0.001168 512.85730 926.92847
893.0 0.001120 512.91785 886.90063
855.0 0.001170 512.97852 854.88013
816.0 0.001225 513.03888 830.57501
798.0 0.001253 513.09937 812.02203
796.0 0.001256 513.15948 798.66498
771.0 0.001297 513.21973 788.78967
779.0 0.001284 513.27954 782.64990
795.0 0.001258 513.33911 778.61035
797.0 0.001255 513.39868 775.82623
801.0 0.001248 513.45789 773.60706
809.0 0.001236 513.51678 771.56171
823.0 0.001215 513.57544 769.07416
837.0 0.001195 513.63361 766.04370
840.0 0.001190 513.69165 761.61377
822.0 0.001217 513.74927 757.25873
796.0 0.001256 513.80646 752.23712
784.0 0.001276 513.86328 746.63770
799.0 0.001252 513.91949 740.60022
799.0 0.001252 513.97546 734.30743
791.0 0.001264 514.03076 728.19861
785.0 0.001274 514.08569 722.02667
770.0 0.001299 514.13995 716.20099
748.0 0.001337 514.19385 710.86700
733.0 0.001364 514.24701 706.11713
735.0 0.001361 514.29968 701.98975
744.0 0.001344 514.35156 698.46838
710.0 0.001408 514.40289 695.48987
686.0 0.001458 514.45349 694.19354
695.0 0.001439 514.50354 692.00470
662.0 0.001511 514.55267 689.95679
645.0 0.001550 514.60132 678.78595
653.0 0.001531 514.64880 676.89099
650.0 0.001538 514.69580 674.66711
636.0 0.001572 514.74176 672.04700
638.0 0.001567 514.78711 669.02576
644.0 0.001553 514.83148 672.47583
632.0 0.001582 514.87494 669.16864
629.0 0.001590 514.91754 665.78088
634.0 0.001577 514.95911 662.19733
633.0 0.001580 514.99982 659.08582
625.0 0.001600 515.03955 656.29028
637.0 0.001570 515.07825 653.89624
656.0 0.001524 515.11603 651.95697
657.0 0.001522 515.15247 651.10535
630.0 0.001587 515.18817 650.12787
616.0 0.001623 515.22253 649.57751
622.0 0.001608 515.25586 649.29510
638.0 0.001567 515.28815 649.45581
647.0 0.001546 515.31915 649.91553
638.0 0.001567 515.34906 650.68311
627.0 0.001595 515.37769 651.81683
639.0 0.001565 515.40497 653.61066
672.0 0.001488 515.43121 655.89447
674.0 0.001484 515.45605 659.06506
656.0 0.001524 515.47955 662.48175
650.0 0.001538 515.50189 668.31763
664.0 0.001506 515.52277 675.96326
686.0 0.001458 515.54230 685.78870
699.0 0.001431 515.56055 698.18127
700.0 0.001429 515.57733 713.53485
717.0 0.001395 515.59253 732.88257
760.0 0.001316 515.60651 755.31140
785.0 0.001274 515.61890 781.10657
778.0 0.001285 515.62988 811.83875
829.0 0.001206 515.63922 846.98151
855.0 0.001170 515.64709 886.57605
862.0 0.001160 515.65350 930.52759
933.0 0.001072 515.65820 978.58344
976.0 0.001025 515.66138 1030.52197
1043.0 0.000959 515.66296 1085.30566
1132.0 0.000883 515.66278 1142.17505
1149.0 0.000870 515.66101 1200.40320
1195.0 0.000837 515.65765 1258.66943
1267.0 0.000789 515.65247 1315.66577
1327.0 0.000754 515.64569 1369.98840
1400.0 0.000714 515.63702 1420.16943
1411.0 0.000709 515.62671 1465.41150
1433.0 0.000698 515.61462 1502.85669
1523.0 0.000657 515.60071 1530.99207
1513.0 0.000661 515.58502 1550.18921
1532.0 0.000653 515.56744 1558.69995
1594.0 0.000627 515.54810 1556.01318
1589.0 0.000629 515.52679 1542.12085
1590.0 0.000629 515.50360 1517.54041
1560.0 0.000641 515.47858 1483.63660
1495.0 0.000669 515.45166 1440.99500
1461.0 0.000684 515.42279 1391.53857
1421.0 0.000704 515.39191 1336.91528
1382.0 0.000724 515.35907 1278.77637
1344.0 0.000744 515.32428 1218.70581
1270.0 0.000787 515.28735 1158.17859
1223.0 0.000818 515.24847 1098.52881
1185.0 0.000844 515.20758 1041.29211
1108.0 0.000903 515.16467 986.71533
1042.0 0.000960 515.11951 935.39899
983.0 0.001017 515.07251 889.00159
937.0 0.001067 515.02325 847.34064
911.0 0.001098 514.97192 810.60974
846.0 0.001182 514.91846 778.84521
808.0 0.001238 514.86273 751.95087
816.0 0.001225 514.80499 730.29779
777.0 0.001287 514.74500 712.47070
748.0 0.001337 514.68274 698.67554
748.0 0.001337 514.61841 688.39142
744.0 0.001344 514.55188 681.46674
712.0 0.001404 514.48291 677.33636
702.0 0.001425 514.41187 675.57166
716.0 0.001397 514.33850 675.75037
715.0 0.001399 514.26282 677.70227
699.0 0.001431 514.18494 680.58258
698.0 0.001433 514.10468 684.26331
714.0 0.001401 514.02222 688.20190
717.0 0.001395 513.93719 692.58704
715.0 0.001399 513.85004 696.97070
701.0 0.001427 513.76044 701.19983
680.0 0.001471 513.66858 705.18500
693.0 0.001443 513.57422 708.88843
698.0 0.001433 513.47748 712.31360
682.0 0.001466 513.37848 715.48810
671.0 0.001490 513.27698 717.23248
676.0 0.001479 513.17310 720.06067
675.0 0.001481 513.06665 722.73364
675.0 0.001481 512.95795 725.26636
706.0 0.001416 512.84668 727.65894
707.0 0.001414 512.73309 729.89545
697.0 0.001435 512.61688 733.41919
703.0 0.001422 512.49829 735.27710
687.0 0.001456 512.37726 730.14398
679.0 0.001473 512.25366 731.60229
689.0 0.001451 512.12756 732.62549
693.0 0.001443 511.99893 733.18329
672.0 0.001488 511.86783 733.27252
670.0 0.001493 511.73434 732.91809
694.0 0.001441 511.59821 732.50092
696.0 0.001437 511.45953 731.42194
695.0 0.001439 511.31833 729.46216
692.0 0.001445 511.17453 727.92450
680.0 0.001471 511.02829 726.23810
673.0 0.001486 510.87939 724.46417
694.0 0.001441 510.72797 722.65930
705.0 0.001418 510.57407 720.87415
670.0 0.001493 510.41754 719.44653
653.0 0.001531 510.25848 717.81256
667.0 0.001499 510.09674 716.08984
687.0 0.001456 509.93250 714.62177
690.0 0.001449 509.76575 713.19757
693.0 0.001443 509.59625 711.78040
694.0 0.001441 509.42426 710.32800
684.0 0.001462 509.24957 708.79993
669.0 0.001495 509.07242 707.86499
645.0 0.001550 508.89264 706.09491
639.0 0.001565 508.71027 704.14581
669.0 0.001495 508.52530 702.00287
658.0 0.001520 508.33771 699.67261
633.0 0.001580 508.14749 697.19220
632.0 0.001582 507.95471 694.63153
640.0 0.001563 507.75940 692.09375
667.0 0.001499 507.56143 689.70947
674.0 0.001484 507.36081 687.62628
649.0 0.001541 507.15778 686.00043
688.0 0.001453 506.95184 684.98486
718.0 0.001393 506.74350 684.72455
690.0 0.001449 506.53262 685.34772
665.0 0.001504 506.31903 686.96136
690.0 0.001449 506.10303 689.64526
695.0 0.001439 505.88422 693.61792
645.0 0.001550 505.66296 697.88928
635.0 0.001575 505.43912 703.90723
693.0 0.001443 505.21265 710.90240
734.0 0.001362 504.98367 718.72742
696.0 0.001437 504.75204 727.18494
704.0 0.001420 504.51791 736.03265
704.0 0.001420 504.28122 744.98749
667.0 0.001499 504.04205 754.06696
675.0 0.001481 503.80023 762.08777
703.0 0.001422 503.55591 769.47601
734.0 0.001362 503.30911 775.71497
759.0 0.001318 503.05963 780.55664
740.0 0.001351 502.80777 783.82599
737.0 0.001357 502.55353 785.43372
771.0 0.001297 502.29642 785.38000
791.0 0.001264 502.03720 783.74756
768.0 0.001302 501.77518 779.97272
749.0 0.001335 501.51086 775.69342
765.0 0.001307 501.24402 770.38947
773.0 0.001294 500.97470 764.28796
769.0 0.001300 500.70291 757.61389
759.0 0.001318 500.42877 750.58295
753.0 0.001328 500.15216 743.39160
776.0 0.001289 499.87317 750.13129
777.0 0.001287 499.59167 743.22021
743.0 0.001346 499.30786 736.99304
725.0 0.001379 499.02161 731.11206
720.0 0.001389 498.73294 725.60590
721.0 0.001387 498.44205 720.47113
730.0 0.001370 498.14868 715.67548
744.0 0.001344 497.85312 711.16644
723.0 0.001383 497.55511 706.87482
698.0 0.001433 497.25482 703.25446
725.0 0.001379 496.95221 699.21057
724.0 0.001381 496.64728 695.15631
712.0 0.001404 496.34021 691.03888
720.0 0.001389 496.03082 686.83356
701.0 0.001427 495.71918 682.55573
674.0 0.001484 495.40536 678.26294
664.0 0.001506 495.08929 674.05750
677.0 0.001477 494.77103 670.18805
691.0 0.001447 494.45062 666.66754
713.0 0.001403 494.12793 663.76318
725.0 0.001379 493.80325 661.70917
688.0 0.001453 493.47635 660.76135
673.0 0.001486 493.14734 661.20038
684.0 0.001462 492.81635 663.33002
688.0 0.001453 492.48315 667.48053
708.0 0.001412 492.14792 674.01074
708.0 0.001412 491.81079 684.02631
699.0 0.001431 491.47144 696.55542
727.0 0.001376 491.13022 712.72821
738.0 0.001355 490.78705 733.02441
743.0 0.001346 490.44180 757.94409
768.0 0.001302 490.09464 787.99805
785.0 0.001274 489.74557 823.68933
813.0 0.001230 489.39468 865.49384
859.0 0.001164 489.04187 914.24127
916.0 0.001092 488.68719 969.47290
984.0 0.001016 488.33063 1031.81519
1038.0 0.000963 487.97229 1101.36072
1082.0 0.000924 487.61209 1178.03113
1146.0 0.000873 487.25031 1261.55078
1200.0 0.000833 486.88672 1351.41943
1269.0 0.000788 486.52136 1446.89172
1383.0 0.000723 486.15411 1545.90320
1490.0 0.000671 485.78546 1649.36243
1577.0 0.000634 485.41507 1754.60864
1656.0 0.000604 485.04312 1859.85583
1739.0 0.000575 484.66949 1963.08923
1846.0 0.000542 484.29419 2062.10571
1939.0 0.000516 483.91751 2154.56494
2003.0 0.000499 483.53912 2238.06323
2098.0 0.000477 483.15939 2309.90161
2196.0 0.000455 482.77814 2368.54126
2270.0 0.000441 482.39536 2411.74170
2323.0 0.000430 482.01123 2438.06567
2354.0 0.000425 481.62570 2446.66968
2382.0 0.000420 481.23871 2437.38306
2395.0 0.000418 480.85043 2410.72095
2348.0 0.000426 480.46082 2367.81616
2338.0 0.000428 480.06995 2310.37158
2334.0 0.000428 479.67773 2240.25513
2270.0 0.000441 479.28445 2159.72144
2259.0 0.000443 478.88968 2071.07007
2195.0 0.000456 478.49393 1976.59692
2068.0 0.000484 478.09702 1878.52856
2018.0 0.000496 477.69888 1778.95789
1909.0 0.000524 477.29977 1679.80396
1782.0 0.000561 476.89951 1582.06238
1707.0 0.000586 476.49823 1488.74268
1571.0 0.000637 476.09607 1400.12073
1449.0 0.000690 475.69272 1317.24036
1365.0 0.000733 475.28857 1240.79260
1265.0 0.000791 474.88336 1171.21899
1174.0 0.000852 474.47742 1108.73730
1084.0 0.000923 474.07050 1053.36243
1002.0 0.000998 473.66278 1004.93042
977.0 0.001024 473.25436 963.43604
941.0 0.001063 472.84509 927.84662
888.0 0.001126 472.43506 897.93665
861.0 0.001161 472.02441 873.12128
854.0 0.001171 471.61310 852.77795
845.0 0.001183 471.20117 836.26996
828.0 0.001208 470.78851 822.96362
817.0 0.001224 470.37531 812.06799
812.0 0.001232 469.96161 804.81073
811.0 0.001233 469.54736 797.62659
812.0 0.001232 469.13275 791.44104
820.0 0.001220 468.71762 785.84430
823.0 0.001215 468.30203 780.49817
811.0 0.001233 467.88620 775.13928
790.0 0.001266 467.46994 769.57288
790.0 0.001266 467.05350 763.33252
790.0 0.001266 466.63651 759.12408
778.0 0.001285 466.21945 752.42523
779.0 0.001284 465.80222 745.27057
771.0 0.001297 465.38474 737.68256
766.0 0.001305 464.96722 729.70679
780.0 0.001282 464.54944 721.40503
764.0 0.001309 464.13174 712.85333
734.0 0.001362 463.71399 704.13489
718.0 0.001393 463.29614 695.81909
718.0 0.001393 462.87845 687.04462
695.0 0.001439 462.46072 678.36505
676.0 0.001479 462.04318 669.86389
686.0 0.001458 461.62573 661.62213
676.0 0.001479 461.20856 653.71948
651.0 0.001536 460.79150 646.23212
644.0 0.001553 460.37469 639.23303
662.0 0.001511 459.95831 618.80060
639.0 0.001565 459.54214 614.15381
623.0 0.001605 459.12625 609.46796
649.0 0.001541 458.71085 605.46002
666.0 0.001502 458.29581 602.15912
659.0 0.001517 457.88123 599.58478
643.0 0.001555 457.46713 597.74762
633.0 0.001580 457.05374 596.65387
629.0 0.001590 456.64084 595.41248
638.0 0.001567 456.22849 595.84314
651.0 0.001536 455.81686 597.02679
641.0 0.001560 455.40582 598.97852
616.0 0.001623 454.99561 601.72375
601.0 0.001664 454.58600 605.30023
612.0 0.001634 454.17731 609.75861
632.0 0.001582 453.76935 615.16034
622.0 0.001608 453.36246 621.07532
606.0 0.001650 452.95615 628.96362
626.0 0.001597 452.55109 637.64166
660.0 0.001515 452.14685 647.53387
676.0 0.001479 451.74347 658.69031
660.0 0.001515 451.34134 671.14520
640.0 0.001563 450.94022 684.91125
671.0 0.001490 450.54037 699.97772
706.0 0.001416 450.14151 716.30487
703.0 0.001422 449.74384 733.82220
719.0 0.001391 449.34756 752.55109
724.0 0.001381 448.95245 772.10986
720.0 0.001389 448.55856 792.44794
741.0 0.001350 448.16611 813.36224
769.0 0.001300 447.77502 834.61749
797.0 0.001255 447.38531 855.74982
818.0 0.001222 446.99707 876.87836
826.0 0.001211 446.61029 897.48840
848.0 0.001179 446.22516 917.49518
871.0 0.001148 445.84140 936.11804
883.0 0.001133 445.45932 953.27582
919.0 0.001088 445.07883 968.67950
928.0 0.001078 444.70016 982.07263
919.0 0.001088 444.32309 993.23260
933.0 0.001072 443.94766 1001.04443
917.0 0.001091 443.57416 1007.25562
911.0 0.001098 443.20230 1011.55334
929.0 0.001076 442.83243 1012.39850
921.0 0.001086 442.46451 1010.51215
914.0 0.001094 442.09827 1005.94183
926.0 0.001080 441.73419 998.79443
946.0 0.001057 441.37189 989.23273
948.0 0.001055 441.01187 977.06744
951.0 0.001052 440.65378 963.36780
937.0 0.001067 440.29770 947.99377
892.0 0.001121 439.94385 932.49261
886.0 0.001129 439.59213 914.66827
898.0 0.001114 439.24261 896.01941
889.0 0.001125 438.89520 876.80658
854.0 0.001171 438.55020 857.27106
819.0 0.001221 438.20749 837.24292
809.0 0.001236 437.86716 817.70367
815.0 0.001227 437.52914 798.42139
797.0 0.001255 437.19351 780.06049
760.0 0.001316 436.86029 761.71735
736.0 0.001359 436.52954 744.00098
738.0 0.001355 436.20129 726.99890
729.0 0.001372 435.87564 710.78625
706.0 0.001416 435.55246 695.42798
687.0 0.001456 435.23196 680.97748
682.0 0.001466 434.91415 667.47919
661.0 0.001513 434.59882 654.96539
640.0 0.001563 434.28629 643.45514
644.0 0.001553 433.97644 632.95575
666.0 0.001502 433.66937 623.46155
666.0 0.001502 433.36514 614.95569
663.0 0.001508 433.06366 607.03320
672.0 0.001488 432.76511 600.42743
651.0 0.001536 432.46933 594.70795
655.0 0.001527 432.17651 589.83240
660.0 0.001515 431.88663 586.49359
626.0 0.001597 431.59976 583.20172
650.0 0.001538 431.31595 580.63763
651.0 0.001536 431.03497 578.77295
619.0 0.001616 430.75723 577.58777
641.0 0.001560 430.48251 576.96942
624.0 0.001603 430.21097 577.10974
618.0 0.001618 429.94250 577.90253
654.0 0.001529 429.67722 579.34485
658.0 0.001520 429.41516 581.77692
662.0 0.001511 429.15628 584.51477
667.0 0.001499 428.90073 587.88281
662.0 0.001511 428.64847 591.86713
675.0 0.001481 428.39941 596.14307
660.0 0.001515 428.15378 601.29572
647.0 0.001546 427.91141 606.97510
678.0 0.001475 427.67267 613.13428
669.0 0.001495 427.43713 620.25720
657.0 0.001522 427.20511 627.21088
688.0 0.001453 426.97650 634.44623
737.0 0.001357 426.75150 641.87994
716.0 0.001397 426.52991 647.96631
684.0 0.001462 426.31186 655.56201
687.0 0.001456 426.09738 663.06274
683.0 0.001464 425.88654 670.36493
682.0 0.001466 425.67932 677.36328
695.0 0.001439 425.47559 684.57129
709.0 0.001410 425.27563 690.68610
700.0 0.001429 425.07935 696.22095
691.0 0.001447 424.88672 698.95892
695.0 0.001439 424.69785 703.19989
707.0 0.001414 424.51273 706.68292
706.0 0.001416 424.33130 709.37585
707.0 0.001414 424.15369 711.26080
724.0 0.001381 423.97992 712.33325
740.0 0.001351 423.80984 712.60547
711.0 0.001406 423.64371 712.10504
690.0 0.001449 423.48138 710.87720
701.0 0.001427 423.32306 708.49731
712.0 0.001404 423.16843 706.02130
703.0 0.001422 423.01794 703.03119
689.0 0.001451 422.87122 699.61298
682.0 0.001466 422.72842 695.85498
681.0 0.001468 422.58966 692.39807
695.0 0.001439 422.45483 688.23602
690.0 0.001449 422.32410 683.98779
677.0 0.001477 422.19727 679.03540
694.0 0.001441 422.07449 674.85376
654.0 0.001529 421.95569 670.79022
646.0 0.001548 421.84097 666.90118
701.0 0.001427 421.73035 663.23590
682.0 0.001466 421.62387 660.24091
670.0 0.001493 421.52139 657.16632
668.0 0.001497 421.42303 654.44049
650.0 0.001538 421.32877 652.09967
658.0 0.001520 421.23865 650.17596
663.0 0.001508 421.15262 648.69763
663.0 0.001508 421.07083 647.68597
664.0 0.001506 420.99316 647.15332
658.0 0.001520 420.91962 647.10138
673.0 0.001486 420.85031 647.52026
676.0 0.001479 420.78506 648.38678
660.0 0.001515 420.72418 649.28119
706.0 0.001416 420.66739 650.93658
703.0 0.001422 420.61481 652.89911
664.0 0.001506 420.56653 655.10297
664.0 0.001506 420.52243 657.47797
652.0 0.001534 420.48251 659.95337
641.0 0.001560 420.44690 665.37103
644.0 0.001553 420.41544 667.92847
655.0 0.001527 420.38824 670.40375
667.0 0.001499 420.36526 672.62982
683.0 0.001464 420.34656 674.82001
691.0 0.001447 420.33212 676.82147
679.0 0.001473 420.32193 678.61407
670.0 0.001493 420.31613 680.18304
678.0 0.001475 420.31442 681.51624
682.0 0.001466 420.31705 682.67212
669.0 0.001495 420.32388 683.50989
680.0 0.001471 420.33505 683.85278
685.0 0.001460 420.35043 684.17328
680.0 0.001471 420.37003 684.22327
686.0 0.001458 420.39395 683.99817
692.0 0.001445 420.42215 683.49463
694.0 0.001441 420.45453 682.71063
684.0 0.001462 420.49133 681.64740
670.0 0.001493 420.53217 681.06989
645.0 0.001550 420.57739 678.71326
631.0 0.001585 420.62671 676.90283
645.0 0.001550 420.68048 674.85986
646.0 0.001548 420.73825 672.60870
646.0 0.001548 420.80048 670.17896
654.0 0.001529 420.86685 667.60504
638.0 0.001567 420.93735 664.92712
627.0 0.001595 421.01212 662.56616
629.0 0.001590 421.09109 659.83356
642.0 0.001558 421.17429 656.18365
653.0 0.001531 421.26163 653.64716
626.0 0.001597 421.35312 651.29077
628.0 0.001592 421.44888 649.18451
662.0 0.001511 421.54865 647.39594
657.0 0.001522 421.65262 645.99176
637.0 0.001570 421.76083 645.03296
641.0 0.001560 421.87305 645.94489
657.0 0.001522 421.98941 646.07300
667.0 0.001499 422.10983 646.79242
692.0 0.001445 422.23431 648.13660
681.0 0.001468 422.36307 650.13348
675.0 0.001481 422.49570 652.80396
706.0 0.001416 422.63248 656.16583
696.0 0.001437 422.77316 660.23376
699.0 0.001431 422.91800 665.02032
717.0 0.001395 423.06668 670.51215
727.0 0.001376 423.21948 676.78339
743.0 0.001346 423.37616 683.80359
761.0 0.001314 423.53683 691.57709
763.0 0.001311 423.70148 700.10455
761.0 0.001314 423.87000 709.37811
786.0 0.001272 424.04233 719.38159
814.0 0.001229 424.21860 730.08838
818.0 0.001222 424.39868 741.45959
823.0 0.001215 424.58273 752.92181
868.0 0.001152 424.77045 765.46765
873.0 0.001145 424.96201 778.48004
868.0 0.001152 425.15735 791.86298
881.0 0.001135 425.35635 805.50287
891.0 0.001122 425.55927 819.26953
904.0 0.001106 425.76566 833.01514
912.0 0.001096 425.97592 846.57507
912.0 0.001096 426.18979 859.77026
921.0 0.001086 426.40720 873.08862
956.0 0.001046 426.62836 884.98932
944.0 0.001059 426.85287 895.93359
906.0 0.001104 427.08115 905.72614
924.0 0.001082 427.31290 914.18481
931.0 0.001074 427.54819 921.15106
936.0 0.001068 427.78690 926.50000
939.0 0.001065 428.02890 929.39557
922.0 0.001085 428.27463 931.32703
927.0 0.001079 428.52356 932.13922
927.0 0.001079 428.77585 930.69904
913.0 0.001095 429.03162 927.70251
908.0 0.001101 429.29044 923.28943
894.0 0.001119 429.55264 917.62701
876.0 0.001142 429.81815 910.89868
856.0 0.001168 430.08685 903.29584
834.0 0.001199 430.35873 894.66730
843.0 0.001186 430.63367 886.10388
846.0 0.001182 430.91187 877.00793
837.0 0.001195 431.19299 867.74774
832.0 0.001202 431.47723 858.46729
794.0 0.001259 431.76447 849.29333
790.0 0.001266 432.05478 840.33478
809.0 0.001236 432.34799 831.68298
775.0 0.001290 432.64404 822.86151
766.0 0.001305 432.94312 815.04749
777.0 0.001287 433.24484 808.24231
780.0 0.001282 433.54938 801.43665
778.0 0.001285 433.85690 795.15747
769.0 0.001300 434.16693 789.40436
758.0 0.001319 434.47980 784.16364
752.0 0.001330 434.79529 779.40808
753.0 0.001328 435.11328 775.09778
764.0 0.001309 435.43402 770.57721
767.0 0.001304 435.75735 767.01825
755.0 0.001325 436.08298 766.85114
741.0 0.001350 436.41116 763.84698
708.0 0.001412 436.74176 760.97937
694.0 0.001441 437.07486 758.17804
717.0 0.001395 437.41019 755.37677
717.0 0.001395 437.74786 752.51508
698.0 0.001433 438.08768 749.54034
690.0 0.001449 438.42987 746.41101
705.0 0.001418 438.77411 743.09833
710.0 0.001408 439.12076 739.88373
683.0 0.001464 439.46930 736.17371
666.0 0.001502 439.81998 732.26801
692.0 0.001445 440.17258 728.18536
688.0 0.001453 440.52725 723.95490
675.0 0.001481 440.88379 719.61237
671.0 0.001490 441.24225 714.65314
667.0 0.001499 441.60251 710.23798
665.0 0.001504 441.96463 705.85596
661.0 0.001513 442.32846 702.31482
654.0 0.001529 442.69403 698.19025
656.0 0.001524 443.06125 694.27380
656.0 0.001524 443.43021 690.62421
660.0 0.001515 443.80054 687.29639
674.0 0.001484 444.17245 683.93359
681.0 0.001468 444.54605 681.41638
687.0 0.001456 444.92087 679.36597
679.0 0.001473 445.29715 677.82104
664.0 0.001506 445.67484 676.81415
680.0 0.001471 446.05371 676.36945
670.0 0.001493 446.43405 676.50549
655.0 0.001527 446.81540 677.23212
674.0 0.001484 447.19812 678.55090
666.0 0.001502 447.58176 680.45593
651.0 0.001536 447.96649 682.93250
662.0 0.001511 448.35242 685.95966
692.0 0.001445 448.73920 689.50952
685.0 0.001460 449.12698 693.75201
687.0 0.001456 449.51559 698.25043
712.0 0.001404 449.90500 703.16431
703.0 0.001422 450.29541 708.45825
705.0 0.001418 450.68634 714.09778
715.0 0.001399 451.07800 717.12952
714.0 0.001401 451.47031 723.45947
712.0 0.001404 451.86334 730.06610
721.0 0.001387 452.25687 736.94440
738.0 0.001355 452.65085 744.60461
756.0 0.001323 453.04541 752.05621
763.0 0.001311 453.44019 759.81189
771.0 0.001297 453.83539 767.89642
776.0 0.001289 454.23108 776.27026
771.0 0.001297 454.62683 785.10352
773.0 0.001294 455.02295 794.35962
773.0 0.001294 455.41910 804.07251
785.0 0.001274 455.81552 814.27368
837.0 0.001195 456.21201 824.99023
833.0 0.001200 456.60840 836.62439
816.0 0.001225 457.00482 848.43054
853.0 0.001172 457.40118 860.78131
871.0 0.001148 457.79745 872.90710
876.0 0.001142 458.19360 886.30756
878.0 0.001139 458.58945 900.15833
882.0 0.001134 458.98514 914.39453
914.0 0.001094 459.38040 928.93170
951.0 0.001052 459.77542 943.66907
971.0 0.001030 460.17007 959.39508
979.0 0.001021 460.56412 974.17963
987.0 0.001013 460.95789 988.37524
994.0 0.001006 461.35092 1002.60089
1008.0 0.000992 461.74347 1016.28778
1044.0 0.000958 462.13535 1029.25549
1055.0 0.000948 462.52655 1041.32092
1035.0 0.000966 462.91714 1052.29932
1023.0 0.000978 463.30673 1062.01221
1034.0 0.000967 463.69571 1070.87805
1044.0 0.000958 464.08377 1077.57678
1049.0 0.000953 464.47089 1081.56848
1066.0 0.000938 464.85718 1084.73499
1080.0 0.000926 465.24225 1085.99109
1074.0 0.000931 465.62653 1085.29553
1053.0 0.000950 466.00952 1082.64539
1039.0 0.000962 466.39148 1078.07324
1036.0 0.000965 466.77231 1071.64856
1039.0 0.000962 467.15179 1063.46912
1034.0 0.000967 467.53015 1054.07825
1003.0 0.000997 467.90717 1042.79382
982.0 0.001018 468.28284 1030.18115
980.0 0.001020 468.65714 1016.40790
955.0 0.001047 469.02997 1001.64532
924.0 0.001082 469.40140 986.06378
901.0 0.001110 469.77118 969.83252
892.0 0.001121 470.13959 953.11609
907.0 0.001103 470.50629 936.07074
903.0 0.001107 470.87140 918.43719
875.0 0.001143 471.23483 901.18738
853.0 0.001172 471.59650 884.03345
810.0 0.001235 471.95651 867.10052
788.0 0.001269 472.31467 850.50323
807.0 0.001239 472.67102 834.34753
798.0 0.001253 473.02551 818.73041
782.0 0.001279 473.37814 803.73755
766.0 0.001305 473.72861 789.44452
738.0 0.001355 474.07736 776.40692
718.0 0.001393 474.42398 763.71826
721.0 0.001387 474.76855 751.88702
731.0 0.001368 475.11115 740.94183
719.0 0.001391 475.45160 730.89948
731.0 0.001368 475.78979 721.76563
726.0 0.001377 476.12585 713.53601
674.0 0.001484 476.45969 706.19757
680.0 0.001471 476.79129 699.72839
700.0 0.001429 477.12057 694.10071
704.0 0.001420 477.44757 689.40759
722.0 0.001385 477.77222 685.36157
725.0 0.001379 478.09448 682.04541
714.0 0.001401 478.41440 679.41815
704.0 0.001420 478.73184 677.43658
684.0 0.001462 479.04672 676.05865
678.0 0.001475 479.35922 675.24225
688.0 0.001453 479.66922 674.94775
696.0 0.001437 479.97668 674.46429
700.0 0.001429 480.28146 675.33795
688.0 0.001453 480.58368 676.41382
679.0 0.001473 480.88330 677.87781
722.0 0.001385 481.18033 679.70532
729.0 0.001372 481.47461 681.87573
714.0 0.001401 481.76620 684.37054
741.0 0.001350 482.05518 687.17554
742.0 0.001348 482.34125 690.27795
741.0 0.001350 482.62466 693.07190
752.0 0.001330 482.90527 696.75037
735.0 0.001361 483.18301 701.89392
764.0 0.001309 483.45804 706.11426
797.0 0.001255 483.73022 710.57245
770.0 0.001299 483.99960 715.25171
772.0 0.001295 484.26602 720.13232
772.0 0.001295 484.52954 725.19067
754.0 0.001326 484.79028 730.18256
757.0 0.001321 485.04794 735.51837
737.0 0.001357 485.30276 740.94025
753.0 0.001328 485.55466 746.41016
827.0 0.001209 485.80356 751.88623
808.0 0.001238 486.04944 757.32373
771.0 0.001297 486.29245 762.67554
780.0 0.001282 486.53244 767.89185
787.0 0.001271 486.76953 772.92328
777.0 0.001287 487.00336 777.18164
785.0 0.001274 487.23441 781.70367
822.0 0.001217 487.46228 785.89160
822.0 0.001217 487.68732 789.70087
800.0 0.001250 487.90921 794.07111
799.0 0.001252 488.12808 797.03076
825.0 0.001212 488.34393 799.51062
813.0 0.001230 488.55664 801.49060
795.0 0.001258 488.76651 802.95831
808.0 0.001238 488.97324 800.73511
797.0 0.001255 489.17691 801.24652
782.0 0.001279 489.37747 801.24896
781.0 0.001280 489.57507 800.75769
794.0 0.001259 489.76968 799.79510
811.0 0.001233 489.96133 798.82892
811.0 0.001233 490.14972 797.01794
790.0 0.001266 490.33527 794.83032
772.0 0.001295 490.51770 792.30627
770.0 0.001299 490.69724 789.18524
767.0 0.001304 490.87366 786.12506
748.0 0.001337 491.04724 782.86243
750.0 0.001333 491.21780 779.44403
754.0 0.001326 491.38535 775.91797
744.0 0.001344 491.54996 772.32971
757.0 0.001321 491.71158 780.67798
749.0 0.001335 491.87039 777.34729
733.0 0.001364 492.02618 774.09479
759.0 0.001318 492.17911 770.19873
757.0 0.001321 492.32916 767.23895
746.0 0.001340 492.47638 764.46649
755.0 0.001325 492.62070 761.91022
742.0 0.001348 492.76233 759.59430
752.0 0.001330 492.90088 757.53680
764.0 0.001309 493.03690 755.75244
728.0 0.001374 493.17004 754.62787
764.0 0.001309 493.30057 753.41882
798.0 0.001253 493.42828 752.49445
757.0 0.001321 493.55334 751.85193
748.0 0.001337 493.67572 751.48383
740.0 0.001351 493.79541 751.38062
722.0 0.001385 493.91260 751.53271
731.0 0.001368 494.02719 751.92938
747.0 0.001339 494.13916 752.56213
753.0 0.001328 494.24866 753.42230
753.0 0.001328 494.35574 754.62799
770.0 0.001299 494.46039 755.72290
769.0 0.001300 494.56244 757.24554
755.0 0.001325 494.66232 758.98450
766.0 0.001305 494.75977 760.94159
761.0 0.001314 494.85489 763.11890
767.0 0.001304 494.94778 765.51965
799.0 0.001252 495.03842 768.14691
795.0 0.001258 495.12692 771.00299
787.0 0.001271 495.21313 774.08978
801.0 0.001248 495.29736 777.73969
817.0 0.001224 495.37955 780.78888
820.0 0.001220 495.45966 784.58948
824.0 0.001214 495.53778 788.61914
837.0 0.001195 495.61392 792.87506
836.0 0.001196 495.68832 797.35614
845.0 0.001183 495.76089 802.05975
853.0 0.001172 495.83142 806.98370
827.0 0.001209 495.90042 812.12860
829.0 0.001206 495.96771 817.49658
847.0 0.001181 496.03342 823.41913
850.0 0.001176 496.09747 829.26428
868.0 0.001152 496.15997 835.35840
879.0 0.001138 496.22098 841.71997
881.0 0.001135 496.28064 848.37531
899.0 0.001112 496.33887 855.35736
891.0 0.001122 496.39578 862.70837
886.0 0.001129 496.45142 870.48004
918.0 0.001089 496.50595 878.73383
926.0 0.001080 496.55920 887.54114
915.0 0.001093 496.61163 897.21368
920.0 0.001087 496.66284 907.38507
953.0 0.001049 496.71301 918.37842
959.0 0.001043 496.76257 930.29791
973.0 0.001028 496.81107 943.25055
1025.0 0.000976 496.85886 957.34790
1011.0 0.000989 496.90594 972.70093
1011.0 0.000989 496.95245 989.42163
1067.0 0.000937 496.99835 1007.40070
1087.0 0.000920 497.04379 1027.17957
1089.0 0.000918 497.08871 1049.33191
1124.0 0.000890 497.13333 1072.56750
1190.0 0.000840 497.17761 1097.64978
1189.0 0.000841 497.22171 1124.64929
1210.0 0.000826 497.26563 1153.62268
1276.0 0.000784 497.30948 1184.61560
1270.0 0.000787 497.35327 1217.65613
1299.0 0.000770 497.39728 1251.84363
1385.0 0.000722 497.44128 1289.01465
1454.0 0.000688 497.48563 1328.20850
1469.0 0.000681 497.53009 1369.37463
1507.0 0.000664 497.57501 1412.75134
1592.0 0.000628 497.62039 1457.61914
1634.0 0.000612 497.66626 1504.15674
1663.0 0.000601 497.71271 1552.20728
1715.0 0.000583 497.75989 1601.58716
1789.0 0.000559 497.80771 1651.48169
1838.0 0.000544 497.85651 1702.85986
1882.0 0.000531 497.90607 1754.83508
1937.0 0.000516 497.95670 1807.10767
1988.0 0.000503 498.00839 1859.34814
2055.0 0.000487 498.06113 1911.64417
2093.0 0.000478 498.11533 1962.74805
2069.0 0.000483 498.17065 2012.69202
2115.0 0.000473 498.22748 2061.06396
2200.0 0.000455 498.28574 2107.43115
2253.0 0.000444 498.34555 2150.94604
2291.0 0.000436 498.40710 2191.99805
2339.0 0.000428 498.47021 2229.72705
2359.0 0.000424 498.53531 2263.70996
2324.0 0.000430 498.60217 2293.53735
2346.0 0.000426 498.67117 2318.83472
2368.0 0.000422 498.74213 2339.96509
2347.0 0.000426 498.81528 2355.25879
2380.0 0.000420 498.89069 2365.17529
2405.0 0.000416 498.96838 2369.56006
2392.0 0.000418 499.04855 2368.33374
2376.0 0.000421 499.13120 2361.48389
2358.0 0.000424 499.21643 2349.08936
2355.0 0.000425 499.30432 2331.29175
2346.0 0.000426 499.39502 2308.30640
2271.0 0.000440 499.48859 2280.41211
2252.0 0.000444 499.58502 2248.23169
2274.0 0.000440 499.68451 2211.54517
2205.0 0.000454 499.78702 2170.28467
2145.0 0.000466 499.89282 2126.42310
2111.0 0.000474 500.00195 2079.61914
2058.0 0.000486 500.11435 2030.31580
1979.0 0.000505 500.23019 1978.96167
1915.0 0.000522 500.34967 1925.99658
1871.0 0.000534 500.47275 1871.84985
1813.0 0.000552 500.59955 1816.93396
1755.0 0.000570 500.73010 1761.64307
1675.0 0.000597 500.86469 1710.04565
1570.0 0.000637 501.00314 1655.04053
1507.0 0.000664 501.14566 1600.83472
1479.0 0.000676 501.29230 1547.59106
1438.0 0.000695 501.44318 1495.57483
1357.0 0.000737 501.59851 1445.01892
1295.0 0.000772 501.75809 1396.12634
1266.0 0.000790 501.92206 1349.07031
1234.0 0.000810 502.09067 1303.99463
1161.0 0.000861 502.26401 1261.00891
1092.0 0.000916 502.44202 1220.67395
1065.0 0.000939 502.62497 1182.11609
1061.0 0.000943 502.81265 1145.82520
1019.0 0.000981 503.00531 1111.80920
970.0 0.001031 503.20319 1080.05493
955.0 0.001047 503.40591 1050.52942
938.0 0.001066 503.61398 1023.18481
917.0 0.001091 503.82736 997.95624
902.0 0.001109 504.04614 974.76685
886.0 0.001129 504.27017 953.52979
851.0 0.001175 504.49991 932.95197
842.0 0.001188 504.73526 915.54156
869.0 0.001151 504.97623 899.59918
851.0 0.001175 505.22284 885.20026
810.0 0.001235 505.47528 872.23804
789.0 0.001267 505.73370 860.60699
801.0 0.001248 505.99789 850.20160
818.0 0.001222 506.26816 840.92139
799.0 0.001252 506.54456 832.67059
763.0 0.001311 506.82715 825.35620
795.0 0.001258 507.11581 818.89172
803.0 0.001245 507.41086 813.19604
776.0 0.001289 507.71225 808.19409
792.0 0.001263 508.01984 803.81683
805.0 0.001242 508.33414 800.00195
792.0 0.001263 508.65482 796.69214
772.0 0.001295 508.98209 793.83795
779.0 0.001284 509.31592 791.39441
782.0 0.001279 509.65659 789.32483
772.0 0.001295 510.00394 786.60925
766.0 0.001305 510.35797 785.21808
768.0 0.001302 510.71902 784.12238
780.0 0.001282 511.08676 783.30640
792.0 0.001263 511.46136 782.76202
785.0 0.001274 511.84308 782.65106
776.0 0.001289 512.23181 782.64386
777.0 0.001287 512.62762 782.90802
780.0 0.001282 513.03046 783.45258
787.0 0.001271 513.44055 784.28723
780.0 0.001282 513.85760 785.42554
757.0 0.001321 514.28186 786.88245
754.0 0.001326 514.71350 788.67487
788.0 0.001269 515.15234 790.81830
822.0 0.001217 515.59839 793.33124
811.0 0.001233 516.05188 796.22876
779.0 0.001284 516.51251 799.95905
775.0 0.001290 516.98053 803.68091
804.0 0.001244 517.45605 807.83392
819.0 0.001221 517.93903 812.06665
832.0 0.001202 518.42902 817.12396
824.0 0.001214 518.92670 822.64508
793.0 0.001261 519.43182 828.63831
813.0 0.001230 519.94427 835.10986
822.0 0.001217 520.46417 842.06488
822.0 0.001217 520.99133 849.50598
890.0 0.001124 521.52612 857.43494
906.0 0.001104 522.06830 866.09924
885.0 0.001130 522.61804 875.00336
893.0 0.001120 523.17493 884.38611
903.0 0.001107 523.73932 894.23993
912.0 0.001096 524.31085 904.55493
933.0 0.001072 524.88995 915.31934
968.0 0.001033 525.47650 926.51678
969.0 0.001032 526.07019 938.12915
964.0 0.001037 526.67108 950.13568
987.0 0.001013 527.27942 962.51111
1013.0 0.000987 527.89502 975.22870
1018.0 0.000982 528.51764 988.25708
1021.0 0.000979 529.14752 990.09979
1049.0 0.000953 529.78442 1003.88806
1065.0 0.000939 530.42828 1017.86841
1065.0 0.000939 531.07935 1031.99756
1066.0 0.000938 531.73737 1046.22876
1086.0 0.000921 532.40216 1060.51318
1112.0 0.000899 533.07373 1074.79675
1131.0 0.000884 533.75226 1089.02515
1149.0 0.000870 534.43744 1103.13879
1167.0 0.000857 535.12915 1117.07788
1165.0 0.000858 535.82782 1130.40283
1169.0 0.000855 536.53253 1144.25916
1219.0 0.000820 537.24377 1157.29651
1220.0 0.000820 537.96143 1169.89075
1202.0 0.000832 538.68536 1181.96924
1222.0 0.000818 539.41553 1193.45972
1243.0 0.000805 540.15143 1204.28589
1260.0 0.000794 540.89349 1214.37427
1278.0 0.000782 541.64148 1223.65100
1287.0 0.000777 542.39508 1232.04004
1260.0 0.000794 543.15448 1239.35022
1241.0 0.000806 543.91913 1245.76013
1255.0 0.000797 544.68945 1251.08167
1265.0 0.000791 545.46490 1255.63489
1253.0 0.000798 546.24561 1258.62158
1251.0 0.000799 547.03131 1260.37244
1273.0 0.000786 547.82166 1260.85437
1273.0 0.000786 548.61700 1260.04736
1286.0 0.000778 549.41687 1257.94312
1298.0 0.000770 550.22137 1254.54211
1263.0 0.000792 551.03003 1249.53259
1242.0 0.000805 551.84259 1243.60083
1236.0 0.000809 552.65955 1236.45264
1223.0 0.000818 553.48016 1228.13354
1200.0 0.000833 554.30444 1218.70105
1196.0 0.000836 555.13226 1208.21997
1213.0 0.000824 555.96326 1197.30469
1218.0 0.000821 556.79755 1184.95898
1183.0 0.000845 557.63458 1171.79871
1158.0 0.000864 558.47449 1157.91028
1147.0 0.000872 559.31702 1142.89612
1122.0 0.000891 560.16156 1127.82922
1123.0 0.000890 561.00848 1112.30591
1128.0 0.000887 561.85718 1096.41577
1115.0 0.000897 562.70782 1080.25085
1098.0 0.000911 563.55994 1063.89905
1052.0 0.000951 564.41296 1047.44739
1017.0 0.000983 565.26727 1030.97986
1009.0 0.000991 566.12256 1014.75793
942.0 0.001062 566.97821 998.50159
930.0 0.001075 567.83423 982.23218
950.0 0.001053 568.68994 966.48077
898.0 0.001114 569.54602 951.07947
902.0 0.001109 570.40143 936.08569
911.0 0.001098 571.25623 921.55511
872.0 0.001147 572.10999 907.53583
844.0 0.001185 572.96234 894.07117
862.0 0.001160 573.81360 881.19989
861.0 0.001161 574.66272 868.95410
820.0 0.001220 575.50989 857.36078
835.0 0.001198 576.35455 845.91510
824.0 0.001214 577.19653 835.70465
802.0 0.001247 578.03564 826.19708
822.0 0.001217 578.87140 817.39978
815.0 0.001227 579.70361 809.31390
788.0 0.001269 580.53192 801.93854
778.0 0.001285 581.35583 795.26672
794.0 0.001259 582.17529 789.28857
792.0 0.001263 582.98975 783.99091
788.0 0.001269 583.79919 779.35767
785.0 0.001274 584.60284 775.36810
752.0 0.001330 585.40057 772.00110
756.0 0.001323 586.19208 770.38440
790.0 0.001266 586.97723 768.20471
801.0 0.001248 587.75507 766.56946
773.0 0.001294 588.52588 765.44977
772.0 0.001295 589.28851 764.81506
790.0 0.001266 590.04321 764.63428
785.0 0.001274 590.78961 764.87585
796.0 0.001256 591.52716 765.50897
800.0 0.001250 592.25519 766.50067
780.0 0.001282 592.97375 767.81964
763.0 0.001311 593.68219 769.43451
787.0 0.001271 594.38013 771.31415
796.0 0.001256 595.06750 773.42950
780.0 0.001282 595.74335 775.75024
797.0 0.001255 596.40747 778.34180
815.0 0.001227 597.05969 780.99152
806.0 0.001241 597.69940 783.76556
790.0 0.001266 598.32605 786.63904
819.0 0.001221 598.93921 789.58765
852.0 0.001174 599.53857 792.28143
847.0 0.001181 600.12360 795.32227
816.0 0.001225 600.69421 798.37689
809.0 0.001236 601.24939 801.42609
820.0 0.001220 601.78912 804.45508
829.0 0.001206 602.31262 807.44806
835.0 0.001198 602.81952 810.39172
843.0 0.001186 603.30975 813.27362
824.0 0.001214 603.78223 816.36774
819.0 0.001221 604.23676 819.09705
858.0 0.001166 604.67291 821.29340
840.0 0.001190 605.09003 823.83917
847.0 0.001181 605.48785 826.27698
877.0 0.001140 605.86578 828.60156
843.0 0.001186 606.22327 830.80603
817.0 0.001224 606.56006 832.88660
837.0 0.001195 606.87531 834.83813
864.0 0.001157 607.16870 836.65717
848.0 0.001179 607.43994 838.34052
846.0 0.001182 607.68811 839.88525
851.0 0.001175 607.91290 841.28949
853.0 0.001172 608.11389 841.85992
862.0 0.001160 608.29034 842.99011
852.0 0.001174 608.44208 843.97614
839.0 0.001192 608.56824 844.81677
830.0 0.001205 608.66840 845.51343
809.0 0.001236 608.74213 846.06628
823.0 0.001215 608.78888 846.47717
836.0 0.001196 608.80817 846.74829
829.0 0.001206 608.79926 846.88208
846.0 0.001182 608.76184 846.88129
863.0 0.001159 608.69525 846.44904
879.0 0.001138 608.59918 846.19556
883.0 0.001133 608.47278 845.81891
843.0 0.001186 608.31580 846.72345
832.0 0.001202 608.12744 846.13544
841.0 0.001189 607.90741 845.69824
840.0 0.001190 607.65515 844.90619
841.0 0.001189 607.37000 844.01886
807.0 0.001239 607.05139 843.04340
800.0 0.001250 606.69916 841.98767
837.0 0.001195 606.31238 840.85724
823.0 0.001215 605.89050 835.98602
824.0 0.001214 605.43323 834.79486
839.0 0.001192 604.94000 833.54913
832.0 0.001202 604.41028 832.25800
807.0 0.001239 603.84332 830.92828
800.0 0.001250 603.23895 829.56732
820.0 0.001220 602.59637 828.18317
847.0 0.001181 601.91510 827.04437
849.0 0.001178 601.19495 825.63855
813.0 0.001230 600.43512 824.23145
791.0 0.001264 599.63477 822.82806
804.0 0.001244 598.79413 820.73761
807.0 0.001239 597.91205 819.37415
828.0 0.001208 596.98871 818.03278
818.0 0.001222 596.02289 816.71741
780.0 0.001282 595.01440 815.43182
803.0 0.001245 593.96277 814.17932
819.0 0.001221 592.86749 812.96271
815.0 0.001227 591.72839 811.78363
812.0 0.001232 590.54468 810.64301
809.0 0.001236 589.31561 809.54047
811.0 0.001233 588.04120 808.54797
805.0 0.001242 586.72070 807.52643
799.0 0.001252 585.35455 806.54022
807.0 0.001239 583.94104 805.58594
788.0 0.001269 582.48010 804.65936
770.0 0.001299 580.97168 803.75848
783.0 0.001277 579.41498 802.87842
813.0 0.001230 577.81042 802.01587
837.0 0.001195 576.15656 801.16553
825.0 0.001212 574.45325 800.32214
805.0 0.001242 572.70044 799.48181
809.0 0.001236 570.89758 798.63922
783.0 0.001277 569.04492 797.79071
786.0 0.001272 567.14111 796.92950
810.0 0.001235 565.18597 796.05109
817.0 0.001224 563.17975 795.15106
817.0 0.001224 561.12164 794.22424
791.0 0.001264 559.01251 793.26611
788.0 0.001269 556.85028 792.26971
823.0 0.001215 554.63556 791.23157
823.0 0.001215 552.36816 790.14496
797.0 . . .
loop_
_refln_index_h
_refln_index_k
_refln_index_l
_refln_observed_status
_refln_F_squared_meas
_refln_F_squared_calc
_refln_phase_calc
_refln_d_spacing
_gsas_i100_meas
1 1 0 o 0.739 0.134 90.00 7.45595 0.39
1 1 1 o 9.075 11.737 103.50 6.08776 2.16
2 0 0 o 2.951 2.396 180.00 5.27215 0.39
2 1 0 o 0.038 0.028 0.00 4.71556 0.01
2 0 1 o 0.382 0.288 -90.00 4.71556 0.08
2 1 1 o 0.963 0.943 6.30 4.30470 0.34
2 2 0 o 1.141 0.526 0.00 3.72798 0.15
2 2 1 o 0.634 0.846 -90.93 3.51477 0.15
3 0 1 o 0.008 0.007 -90.00 3.33440 0.00
3 1 0 o 0.832 0.732 -90.00 3.33440 0.09
3 1 1 o 12.080 5.775 63.73 3.17923 2.38
2 2 2 o 339.824 359.340 -92.76 3.04388 20.51
3 0 2 o 0.041 0.092 0.00 2.92446 0.00
3 2 0 o 0.459 1.037 -90.00 2.92446 0.04
3 2 1 o 0.000 0.902 -170.71 2.81808 0.00
3 1 2 o 0.000 1.501 38.23 2.81808 0.00
4 0 0 o 207.656 265.960 0.00 2.63608 7.10
4 0 1 o 2.095 1.065 90.00 2.55737 0.14
3 2 2 o 2.557 1.300 163.79 2.55737 0.33
4 1 0 o 6.141 3.122 -180.00 2.55737 0.40
3 3 0 o 0.001 0.000 -90.00 2.48532 0.00
4 1 1 o 4.321 1.876 -176.54 2.48532 0.53
3 3 1 o 7.246 7.919 -137.54 2.41903 0.84
4 0 2 o 9.350 6.721 0.00 2.35778 0.52
4 2 0 o 5.788 4.161 0.00 2.35778 0.32
4 2 1 o 0.329 0.438 64.34 2.30096 0.03
4 1 2 o 4.742 6.315 -9.58 2.30096 0.50
3 3 2 o 2.715 1.471 103.80 2.24805 0.27
4 2 2 o 14.735 7.533 103.05 2.15235 1.36
4 3 0 o 0.476 5.540 0.00 2.10886 0.02
4 0 3 o 0.242 2.825 -90.00 2.10886 0.01
4 1 3 o 0.917 1.526 5.60 2.06791 0.08
5 1 0 o 0.015 0.026 -90.00 2.06791 0.00
5 0 1 o 2.282 3.798 90.00 2.06791 0.10
4 3 1 o 1.547 2.574 -169.77 2.06791 0.13
5 1 1 o 25.066 23.979 45.71 2.02925 2.07
3 3 3 o 70.895 67.819 98.82 2.02925 1.96
5 0 2 o 0.120 0.160 0.00 1.95803 0.00
4 3 2 o 2.643 3.514 -150.07 1.95803 0.20
5 2 0 o 0.000 0.000 90.02 1.95803 0.00
4 2 3 o 2.365 3.145 87.95 1.95803 0.18
5 1 2 o 1.463 0.994 96.67 1.92512 0.11
5 2 1 o 3.908 2.655 -73.78 1.92512 0.29
4 4 0 o 2836.126 2695.527 0.00 1.86399 100.00
4 4 1 o 7.869 7.873 -170.55 1.83553 0.54
5 2 2 o 0.929 0.930 -53.33 1.83553 0.06
5 0 3 o 9.812 5.876 -90.00 1.80833 0.33
4 3 3 o 5.961 3.569 -38.64 1.80833 0.40
5 3 0 o 0.000 0.000 89.99 1.80833 0.00
5 3 1 o 11.682 10.411 -109.49 1.78231 0.76
5 1 3 o 9.131 8.138 -111.75 1.78231 0.59
6 0 0 o 38.492 7.542 0.00 1.75738 0.61
4 4 2 o 3.782 0.741 -34.64 1.75738 0.24
6 0 1 o 3.884 3.064 -90.00 1.73347 0.12
6 1 0 o 2.123 1.675 0.00 1.73347 0.07
6 1 1 o 1.851 5.053 -4.72 1.71051 0.11
5 2 3 o 1.612 4.401 67.94 1.71051 0.10
5 3 2 o 0.548 1.497 131.33 1.71051 0.03
6 2 0 o 6.803 8.117 0.00 1.66720 0.20
6 0 2 o 2.833 3.380 0.00 1.66720 0.08
5 4 0 o 0.750 0.880 90.00 1.64674 0.02
4 4 3 o 0.623 0.732 1.95 1.64674 0.03
5 0 4 o 9.795 11.504 -180.00 1.64674 0.27
6 1 2 o 0.459 0.539 29.62 1.64674 0.03
6 2 1 o 2.942 3.455 -44.83 1.64674 0.16
5 1 4 o 0.407 0.522 100.17 1.62702 0.02
5 4 1 o 5.125 6.573 121.63 1.62702 0.28
5 3 3 o 9.457 8.877 -66.88 1.60799 0.51
6 2 2 o 352.480 346.449 98.67 1.58961 18.52
6 3 0 o 0.512 0.715 -180.00 1.57185 0.01
5 4 2 o 0.461 0.645 -75.62 1.57185 0.02
5 2 4 o 7.044 9.845 -9.06 1.57185 0.36
6 0 3 o 3.154 4.408 -90.00 1.57185 0.08
6 1 3 o 6.660 5.165 173.84 1.55467 0.34
6 3 1 o 5.854 4.540 22.88 1.55467 0.30
4 4 4 o 146.658 179.053 1.76 1.52194 2.37
6 2 3 o 0.480 0.724 -51.80 1.50633 0.02
6 3 2 o 1.181 1.782 -130.92 1.50633 0.06
5 5 0 o 6.605 9.435 90.00 1.49119 0.15
5 3 4 o 0.109 0.155 -22.93 1.49119 0.01
5 4 3 o 4.037 5.767 -130.18 1.49119 0.19
7 1 0 o 0.553 0.791 -90.00 1.49119 0.01
7 0 1 o 0.263 0.375 90.00 1.49119 0.01
7 1 1 o 4.033 5.316 166.48 1.47650 0.19
5 5 1 o 32.452 42.781 83.18 1.47650 1.49
6 4 0 o 8.635 15.816 -180.00 1.46223 0.20
6 0 4 o 9.540 17.475 -180.00 1.46223 0.22
7 0 2 o 0.015 0.029 180.00 1.44837 0.00
6 1 4 o 1.188 2.379 18.55 1.44837 0.05
7 2 0 o 0.776 1.554 -90.00 1.44837 0.02
6 4 1 o 3.867 7.744 -33.19 1.44837 0.17
5 5 2 o 0.991 1.487 -26.34 1.43490 0.04
7 2 1 o 2.183 3.273 -107.45 1.43490 0.10
6 3 3 o 5.169 7.752 164.38 1.43490 0.23
7 1 2 o 1.367 2.050 98.42 1.43490 0.06
6 2 4 o 13.259 11.396 -49.98 1.40904 0.56
6 4 2 o 10.568 9.083 -59.85 1.40904 0.45
5 4 4 o 12.413 7.791 128.73 1.39663 0.52
7 2 2 o 0.471 0.296 156.40 1.39663 0.02
7 0 3 o 6.936 5.280 -90.00 1.38454 0.14
7 3 0 o 6.878 5.235 -90.00 1.38454 0.14
5 5 3 o 21.212 18.787 -33.59 1.37275 0.86
7 1 3 o 59.485 52.684 -97.95 1.37275 2.41
7 3 1 o 52.101 46.144 -98.43 1.37275 2.11
6 5 0 o 4.346 3.998 0.00 1.35006 0.09
6 3 4 o 3.705 3.408 98.39 1.35006 0.15
6 0 5 o 1.573 1.447 -90.00 1.35006 0.03
6 4 3 o 9.552 8.787 -117.54 1.35006 0.38
6 5 1 o 3.015 2.957 24.35 1.33913 0.12
6 1 5 o 11.783 11.556 -40.64 1.33913 0.46
7 3 2 o 5.246 5.145 116.34 1.33913 0.20
7 2 3 o 10.751 10.543 116.73 1.33913 0.42
8 0 0 o 2441.316 2339.669 0.00 1.31804 23.02
7 4 0 o 0.735 0.654 -90.00 1.30786 0.01
6 2 5 o 11.331 10.089 -115.00 1.30786 0.42
8 0 1 o 1.540 1.372 -90.00 1.30786 0.03
8 1 0 o 20.027 17.832 -180.00 1.30786 0.37
7 0 4 o 1.087 0.968 0.00 1.30786 0.02
6 5 2 o 4.675 4.163 -114.59 1.30786 0.17
8 1 1 o 6.514 6.056 178.02 1.29791 0.24
7 1 4 o 5.470 5.086 -116.56 1.29791 0.20
5 5 4 o 1.175 1.092 103.29 1.29791 0.04
7 4 1 o 5.791 5.384 54.31 1.29791 0.21
7 3 3 o 44.723 39.172 115.30 1.28819 1.62
6 4 4 o 30.665 22.605 1.64 1.27868 1.10
8 2 0 o 1.664 1.226 0.00 1.27868 0.03
8 0 2 o 14.479 10.674 0.00 1.27868 0.26
7 4 2 o 10.422 7.567 79.01 1.26939 0.37
8 1 2 o 14.875 10.799 -15.02 1.26939 0.53
8 2 1 o 2.058 1.494 95.14 1.26939 0.07
7 2 4 o 4.684 3.400 -132.58 1.26939 0.17
6 5 3 o 4.049 2.971 126.91 1.26029 0.14
6 3 5 o 19.502 14.311 52.50 1.26029 0.68
6 6 0 o 39.374 27.510 0.00 1.24266 0.67
8 2 2 o 51.058 35.674 -118.36 1.24266 1.74
8 0 3 o 0.221 0.166 90.00 1.23412 0.00
6 6 1 o 10.788 8.131 -120.40 1.23412 0.36
8 3 0 o 0.522 0.394 0.00 1.23412 0.01
8 3 1 o 6.778 7.724 -173.63 1.22575 0.23
7 3 4 o 1.341 1.528 -47.06 1.22575 0.04
7 0 5 o 0.152 0.173 90.00 1.22575 0.00
7 5 0 o 9.456 10.776 -90.00 1.22575 0.16
8 1 3 o 6.378 7.268 18.19 1.22575 0.21
7 4 3 o 3.792 4.322 -56.33 1.22575 0.13
7 1 5 o 3.913 4.750 51.06 1.21755 0.13
7 5 1 o 7.241 8.789 62.34 1.21755 0.24
5 5 5 o 69.222 84.025 55.27 1.21755 0.76
6 6 2 o 327.857 328.785 -104.40 1.20951 10.71
8 2 3 o 8.553 8.326 92.12 1.20164 0.28
8 3 2 o 2.998 2.919 -154.55 1.20164 0.10
6 5 4 o 4.008 3.902 -23.59 1.20164 0.13
6 4 5 o 8.860 8.625 -17.38 1.20164 0.29
7 2 5 o 0.204 0.220 -155.62 1.19391 0.01
7 5 2 o 5.380 5.810 74.61 1.19391 0.17
8 4 0 o 110.079 127.410 0.00 1.17889 1.72
8 0 4 o 108.775 125.900 0.00 1.17889 1.70
7 4 4 o 8.001 9.499 -54.15 1.17159 0.25
8 1 4 o 2.341 2.780 140.57 1.17159 0.07
8 4 1 o 2.913 3.458 111.90 1.17159 0.09
6 6 3 o 3.023 3.589 159.92 1.17159 0.09
9 0 1 o 21.587 27.372 90.00 1.16442 0.33
8 3 3 o 5.681 7.203 -22.54 1.16442 0.17
9 1 0 o 1.944 2.466 90.00 1.16442 0.03
9 1 1 o 17.810 21.243 84.84 1.15739 0.54
7 5 3 o 7.084 8.450 -155.83 1.15739 0.22
7 3 5 o 6.104 7.280 -175.31 1.15739 0.19
8 2 4 o 22.867 22.496 8.28 1.15048 0.69
8 4 2 o 39.664 39.020 6.45 1.15048 1.20
7 6 0 o 11.941 12.360 -90.00 1.14369 0.18
9 2 0 o 0.301 0.312 -90.00 1.14369 0.00
7 0 6 o 0.047 0.048 0.00 1.14369 0.00
9 0 2 o 0.003 0.003 0.00 1.14369 0.00
7 1 6 o 4.742 5.718 47.97 1.13702 0.14
9 2 1 o 11.864 14.305 -69.15 1.13702 0.35
9 1 2 o 3.773 4.549 67.39 1.13702 0.11
7 6 1 o 7.301 8.804 -166.65 1.13702 0.22
6 5 5 o 1.878 2.265 -78.44 1.13702 0.06
6 6 4 o 11.451 11.837 46.94 1.12403 0.33
9 2 2 o 2.581 2.697 -94.61 1.11769 0.07
8 4 3 o 8.594 8.981 -63.82 1.11769 0.25
8 0 5 o 10.736 11.219 90.00 1.11769 0.15
7 6 2 o 3.946 4.124 137.35 1.11769 0.11
8 5 0 o 4.557 4.762 -180.00 1.11769 0.07
7 2 6 o 5.024 5.250 138.59 1.11769 0.14
8 3 4 o 8.343 8.718 -30.73 1.11769 0.24
9 3 0 o 0.069 0.061 -90.00 1.11147 0.00
9 0 3 o 18.886 16.796 -90.00 1.11147 0.27
8 1 5 o 7.025 6.248 179.24 1.11147 0.20
8 5 1 o 0.912 0.811 -137.43 1.11147 0.03
7 4 5 o 1.725 1.534 84.31 1.11147 0.05
7 5 4 o 5.540 4.927 -122.34 1.11147 0.16
9 3 1 o 17.108 13.384 -15.19 1.10534 0.48
9 1 3 o 16.360 12.799 1.94 1.10534 0.46
8 2 5 o 1.336 1.165 -37.08 1.09339 0.04
8 5 2 o 20.367 17.761 5.39 1.09339 0.57
7 3 6 o 1.960 1.820 93.84 1.08756 0.05
7 6 3 o 5.644 5.242 129.37 1.08756 0.16
9 3 2 o 5.105 4.741 68.04 1.08756 0.14
9 2 3 o 16.083 14.936 81.87 1.08756 0.44
8 4 4 o 1965.196 2011.366 0.49 1.07617 53.44
9 4 0 o 9.774 10.841 90.00 1.07061 0.13
9 0 4 o 1.674 1.857 -180.00 1.07061 0.02
6 6 5 o 2.469 2.739 -75.06 1.07061 0.07
9 4 1 o 9.012 10.666 114.21 1.06514 0.24
7 7 0 o 1.581 1.871 -90.00 1.06514 0.02
8 5 3 o 1.377 1.630 68.93 1.06514 0.04
9 1 4 o 1.059 1.253 -3.05 1.06514 0.03
8 3 5 o 7.974 9.438 -164.68 1.06514 0.21
7 7 1 o 21.881 26.496 -123.84 1.05974 0.58
9 3 3 o 3.988 4.829 153.23 1.05974 0.11
7 5 5 o 10.456 12.662 -108.01 1.05974 0.28
8 0 6 o 31.155 42.152 0.00 1.05443 0.41
8 6 0 o 23.429 31.699 0.00 1.05443 0.31
10 0 0 o 50.550 68.393 -180.00 1.05443 0.33
9 4 2 o 2.821 3.637 -85.68 1.04920 0.07
9 2 4 o 6.197 7.990 12.06 1.04920 0.16
7 4 6 o 6.150 7.929 105.78 1.04920 0.16
8 1 6 o 8.433 10.873 -25.43 1.04920 0.22
7 6 4 o 8.603 11.092 -108.76 1.04920 0.23
8 6 1 o 2.938 3.788 39.25 1.04920 0.08
10 0 1 o 3.859 4.976 -90.00 1.04920 0.05
10 1 0 o 19.396 25.007 0.00 1.04920 0.25
7 7 2 o 11.966 11.894 77.86 1.04404 0.31
10 1 1 o 11.944 11.872 -6.32 1.04404 0.31
8 2 6 o 27.143 25.814 102.16 1.03395 0.70
8 6 2 o 27.447 26.103 104.45 1.03395 0.70
10 2 0 o 49.278 46.865 0.00 1.03395 0.63
10 0 2 o 17.111 16.274 0.00 1.03395 0.22
8 4 5 o 5.903 6.055 164.03 1.02902 0.15
8 5 4 o 19.170 19.665 171.18 1.02902 0.49
10 2 1 o 10.460 10.730 -128.48 1.02902 0.27
10 1 2 o 8.104 8.313 -136.67 1.02902 0.21
9 5 0 o 1.495 1.552 90.00 1.02415 0.02
9 4 3 o 15.617 16.214 -112.10 1.02415 0.40
9 3 4 o 2.754 2.859 136.42 1.02415 0.07
9 0 5 o 11.420 11.857 90.00 1.02415 0.14
7 7 3 o 116.517 117.124 107.03 1.01936 2.93
9 1 5 o 58.499 58.803 45.11 1.01936 1.47
9 5 1 o 53.183 53.461 41.89 1.01936 1.34
6 6 6 o 338.865 336.925 107.04 1.01463 2.82
10 2 2 o 317.012 315.197 -106.36 1.01463 7.92
10 3 0 o 6.482 6.861 -180.00 1.00996 0.08
10 0 3 o 12.385 13.111 -90.00 1.00996 0.15
8 6 3 o 7.352 7.783 99.35 1.00996 0.18
8 3 6 o 8.884 9.405 -120.69 1.00996 0.22
9 2 5 o 7.320 7.149 -100.85 1.00536 0.18
9 5 2 o 2.735 2.671 144.59 1.00536 0.07
7 5 6 o 9.040 8.829 72.93 1.00536 0.22
10 1 3 o 15.484 15.122 170.98 1.00536 0.38
10 3 1 o 17.108 16.707 18.18 1.00536 0.42
7 6 5 o 2.461 2.403 159.15 1.00536 0.06
8 7 0 o 8.107 5.984 0.00 0.99192 0.10
10 2 3 o 5.442 4.017 -155.78 0.99192 0.13
9 4 4 o 13.899 10.260 140.84 0.99192 0.34
8 0 7 o 20.392 15.052 -90.00 0.99192 0.25
10 3 2 o 3.239 2.391 92.80 0.99192 0.08
8 7 1 o 4.888 3.818 -164.29 0.98756 0.12
7 7 4 o 20.692 16.162 -80.21 0.98756 0.50
8 1 7 o 15.995 12.493 55.29 0.98756 0.39
8 5 5 o 2.817 2.200 107.38 0.98756 0.07
9 5 3 o 18.660 13.365 -79.71 0.98326 0.45
9 3 5 o 32.483 23.265 -83.09 0.98326 0.78
10 0 4 o 45.902 32.446 0.00 0.97901 0.55
8 4 6 o 1.914 1.353 -102.23 0.97901 0.05
8 6 4 o 3.119 2.205 -128.18 0.97901 0.07
10 4 0 o 40.336 28.512 0.00 0.97901 0.48
9 0 6 o 0.721 0.587 0.00 0.97482 0.01
10 1 4 o 18.067 14.724 7.71 0.97482 0.43
8 7 2 o 4.777 3.893 -119.76 0.97482 0.11
10 4 1 o 15.272 12.447 -61.27 0.97482 0.36
8 2 7 o 18.912 15.413 90.31 0.97482 0.45
9 6 0 o 0.331 0.270 -90.00 0.97482 0.00
10 3 3 o 8.735 8.067 175.49 0.97068 0.21
9 1 6 o 5.708 5.271 129.81 0.97068 0.13
9 6 1 o 31.340 28.944 -70.46 0.97068 0.74
10 4 2 o 12.790 12.062 44.25 0.96256 0.30
10 2 4 o 26.916 25.384 28.69 0.96256 0.63
9 6 2 o 10.885 11.132 -63.18 0.95857 0.25
9 2 6 o 0.706 0.722 -42.48 0.95857 0.02
7 6 6 o 0.016 0.017 -111.74 0.95857 0.00
11 0 1 o 4.276 4.602 90.00 0.95464 0.05
11 1 0 o 14.527 15.634 -90.00 0.95464 0.17
9 5 4 o 8.503 9.151 64.51 0.95464 0.20
9 4 5 o 19.096 20.550 93.63 0.95464 0.44
8 7 3 o 9.779 10.524 -65.31 0.95464 0.23
8 3 7 o 21.695 23.348 -59.81 0.95464 0.50
11 1 1 o 19.974 21.277 96.62 0.95075 0.46
7 7 5 o 34.736 37.002 -94.81 0.95075 0.80
8 5 6 o 19.724 18.741 -15.61 0.94311 0.45
11 0 2 o 0.400 0.380 0.00 0.94311 0.00
8 6 5 o 3.294 3.130 -29.35 0.94311 0.07
11 2 0 o 2.406 2.286 -90.00 0.94311 0.03
10 3 4 o 15.405 14.638 154.25 0.94311 0.35
10 5 0 o 22.130 21.027 0.00 0.94311 0.25
10 0 5 o 10.065 9.563 -90.00 0.94311 0.11
10 4 3 o 7.844 7.454 -111.27 0.94311 0.18
11 1 2 o 5.902 5.186 73.57 0.93936 0.13
10 5 1 o 1.441 1.266 22.55 0.93936 0.03
9 6 3 o 32.498 28.556 62.97 0.93936 0.73
9 3 6 o 5.440 4.780 101.30 0.93936 0.12
11 2 1 o 10.345 9.090 -119.48 0.93936 0.23
10 1 5 o 23.762 20.879 -45.96 0.93936 0.54
8 8 0 o 1819.219 1763.567 0.00 0.93199 20.35
10 5 2 o 4.336 4.555 169.42 0.92837 0.10
8 7 4 o 0.208 0.218 -87.51 0.92837 0.00
8 4 7 o 0.062 0.065 -75.46 0.92837 0.00
11 2 2 o 2.117 2.224 118.32 0.92837 0.05
8 8 1 o 8.408 8.833 -156.67 0.92837 0.19
10 2 5 o 8.755 9.198 -57.09 0.92837 0.20
11 0 3 o 3.105 3.188 -90.00 0.92480 0.03
9 0 7 o 14.971 15.371 -90.00 0.92480 0.17
9 7 0 o 0.657 0.674 90.00 0.92480 0.01
11 3 0 o 1.747 1.793 -90.00 0.92480 0.02
9 5 5 o 46.509 43.354 70.74 0.92126 1.03
11 1 3 o 17.887 16.673 -136.33 0.92126 0.39
11 3 1 o 11.807 11.006 -152.94 0.92126 0.26
9 7 1 o 12.472 11.626 -122.99 0.92126 0.28
9 1 7 o 4.461 4.159 -147.68 0.92126 0.10
8 8 2 o 26.425 23.359 -20.65 0.91776 0.58
10 4 4 o 43.164 38.156 -172.18 0.91776 0.95
9 6 4 o 8.339 7.848 -23.84 0.91431 0.18
9 4 6 o 5.531 5.206 -61.48 0.91431 0.12
11 2 3 o 14.540 15.455 87.78 0.91089 0.32
7 7 6 o 8.900 9.460 130.61 0.91089 0.19
9 7 2 o 1.611 1.712 115.21 0.91089 0.04
11 3 2 o 6.773 7.199 64.10 0.91089 0.15
10 5 3 o 4.996 5.310 144.88 0.91089 0.11
10 3 5 o 21.955 23.337 44.01 0.91089 0.48
9 2 7 o 10.146 10.785 84.61 0.91089 0.22
10 0 6 o 13.703 14.950 0.00 0.90417 0.15
10 6 0 o 27.029 29.490 0.00 0.90417 0.29
8 6 6 o 24.831 27.092 -71.86 0.90417 0.54
10 1 6 o 0.734 0.780 173.79 0.90086 0.02
11 4 0 o 9.693 10.290 -90.00 0.90086 0.10
11 0 4 o 5.707 6.059 0.00 0.90086 0.06
10 6 1 o 2.129 2.260 -51.09 0.90086 0.05
8 8 3 o 1.189 1.262 134.23 0.90086 0.03
11 4 1 o 5.271 5.549 67.75 0.89759 0.11
11 1 4 o 2.945 3.100 -113.85 0.89759 0.06
8 7 5 o 4.697 4.945 -139.85 0.89759 0.10
8 5 7 o 7.481 7.876 70.28 0.89759 0.16
11 3 3 o 77.660 79.664 107.84 0.89436 1.66
9 3 7 o 22.053 22.622 -71.08 0.89436 0.47
9 7 3 o 12.496 12.818 -65.37 0.89436 0.27
10 6 2 o 327.412 313.761 108.97 0.89116 6.97
10 2 6 o 330.166 316.401 109.67 0.89116 7.03
10 4 5 o 14.058 12.363 -47.15 0.88799 0.30
11 4 2 o 12.731 11.196 103.07 0.88799 0.27
10 5 4 o 30.930 27.201 -10.10 0.88799 0.66
11 2 4 o 6.903 6.071 -133.19 0.88799 0.15
9 6 5 o 19.329 16.178 -62.58 0.88486 0.41
9 5 6 o 0.132 0.111 22.88 0.88486 0.00
12 0 0 o 80.278 77.817 0.00 0.87869 0.42
8 8 4 o 60.957 59.089 9.24 0.87869 1.28
9 8 0 o 6.450 7.112 90.00 0.87566 0.07
9 0 8 o 11.578 12.765 -180.00 0.87566 0.12
12 0 1 o 3.244 3.576 90.00 0.87566 0.03
10 6 3 o 6.561 7.234 -52.20 0.87566 0.14
10 3 6 o 5.869 6.470 -45.91 0.87566 0.12
12 1 0 o 0.047 0.052 0.00 0.87566 0.00
11 0 5 o 0.406 0.483 90.00 0.87265 0.00
11 3 4 o 14.154 16.835 -85.48 0.87265 0.30
9 8 1 o 10.592 12.598 135.00 0.87265 0.22
9 1 8 o 5.311 6.318 32.85 0.87265 0.11
9 4 7 o 10.537 12.533 -102.92 0.87265 0.22
9 7 4 o 1.256 1.494 129.74 0.87265 0.03
11 5 0 o 6.009 7.147 -90.00 0.87265 0.06
12 1 1 o 9.823 11.685 -167.49 0.87265 0.20
11 4 3 o 16.411 19.520 -73.40 0.87265 0.34
11 5 1 o 7.257 8.828 -151.67 0.86968 0.15
11 1 5 o 12.125 14.750 -133.74 0.86968 0.25
7 7 7 o 55.675 67.726 112.86 0.86968 0.39
12 0 2 o 60.326 73.321 0.00 0.86674 0.62
12 2 0 o 13.540 16.457 0.00 0.86674 0.14
9 2 8 o 11.961 14.274 -8.73 0.86382 0.25
9 8 2 o 4.863 5.804 -94.68 0.86382 0.10
10 7 0 o 11.101 13.248 -180.00 0.86382 0.11
8 6 7 o 14.714 17.560 91.76 0.86382 0.30
8 7 6 o 10.562 12.606 -102.57 0.86382 0.22
12 1 2 o 2.694 3.216 6.29 0.86382 0.06
12 2 1 o 4.380 5.227 58.79 0.86382 0.09
10 0 7 o 7.045 8.408 -90.00 0.86382 0.07
10 7 1 o 3.764 4.361 47.67 0.86094 0.08
10 1 7 o 8.776 10.168 -179.94 0.86094 0.18
10 5 5 o 6.434 7.455 -49.12 0.86094 0.13
11 2 5 o 0.767 0.889 -112.10 0.86094 0.02
11 5 2 o 4.756 5.511 103.86 0.86094 0.10
10 4 6 o 37.663 41.148 -19.98 0.85526 0.77
10 6 4 o 50.040 54.670 -16.50 0.85526 1.02
12 2 2 o 69.943 76.416 122.28 0.85526 1.43
10 2 7 o 1.361 1.391 -7.84 0.85246 0.03
8 8 5 o 9.141 9.342 104.89 0.85246 0.19
11 4 4 o 3.070 3.137 -41.68 0.85246 0.06
9 6 6 o 16.700 17.067 -113.05 0.85246 0.34
12 3 0 o 2.892 2.955 0.00 0.85246 0.03
12 0 3 o 10.390 10.618 -90.00 0.85246 0.11
10 7 2 o 1.359 1.389 -72.13 0.85246 0.03
12 1 3 o 11.604 11.199 24.40 0.84968 0.24
9 3 8 o 2.638 2.546 151.31 0.84968 0.05
9 8 3 o 8.354 8.062 -154.57 0.84968 0.17
12 3 1 o 13.499 13.027 179.78 0.84968 0.27
11 3 5 o 13.911 13.024 -95.38 0.84694 0.28
11 5 3 o 37.847 35.435 -93.48 0.84694 0.77
9 5 7 o 18.672 17.482 13.01 0.84694 0.38
9 7 5 o 17.753 16.622 -7.56 0.84694 0.36
11 0 6 o 3.749 3.753 180.00 0.84153 0.04
12 2 3 o 9.061 9.070 82.10 0.84153 0.18
11 6 0 o 13.136 13.149 -90.00 0.84153 0.13
12 3 2 o 2.807 2.810 -86.20 0.84153 0.06
10 3 7 o 18.654 19.874 169.84 0.83886 0.38
10 7 3 o 7.826 8.337 158.36 0.83886 0.16
11 6 1 o 4.954 5.278 -144.67 0.83886 0.10
11 1 6 o 4.460 4.752 112.59 0.83886 0.09
12 4 0 o 1603.300 1634.874 0.00 0.83360 16.08
12 0 4 o 1577.735 1608.805 0.00 0.83360 15.83
10 6 5 o 25.889 24.785 -135.58 0.83101 0.52
9 4 8 o 8.593 8.226 103.03 0.83101 0.17
11 6 2 o 3.153 3.018 74.00 0.83101 0.06
10 5 6 o 32.228 30.853 -139.30 0.83101 0.65
9 8 4 o 22.021 21.082 96.12 0.83101 0.44
11 2 6 o 0.046 0.044 -145.57 0.83101 0.00
12 1 4 o 8.966 8.583 -170.97 0.83101 0.18
12 4 1 o 6.242 5.976 -115.84 0.83101 0.12
9 9 0 o 25.003 23.297 90.00 0.82844 0.25
11 4 5 o 4.711 4.390 77.86 0.82844 0.09
12 3 3 o 14.645 13.646 -29.43 0.82844 0.29
11 5 4 o 16.670 15.533 -97.59 0.82844 0.33
8 7 7 o 12.392 11.547 -76.36 0.82844 0.25
9 9 1 o 30.825 28.721 62.92 0.82589 0.61
8 8 6 o 71.003 65.524 6.61 0.82337 1.41
10 0 8 o 18.274 16.864 -180.00 0.82337 0.18
10 8 0 o 26.296 24.267 -180.00 0.82337 0.26
12 2 4 o 9.228 8.515 -25.73 0.82337 0.18
12 4 2 o 44.785 41.329 -10.94 0.82337 0.89
10 1 8 o 15.362 13.839 13.55 0.82087 0.30
10 7 4 o 13.073 11.778 124.21 0.82087 0.26
10 4 7 o 20.544 18.508 -96.50 0.82087 0.41
10 8 1 o 15.683 14.129 -42.46 0.82087 0.31
9 9 2 o 1.392 1.223 -16.66 0.81840 0.03
9 7 6 o 6.261 5.502 75.41 0.81840 0.12
9 6 7 o 29.457 25.887 75.44 0.81840 0.58
11 3 6 o 5.604 4.925 110.54 0.81840 0.11
11 6 3 o 20.443 17.965 143.86 0.81840 0.41
10 2 8 o 27.930 25.602 -65.96 0.81351 0.55
10 8 2 o 29.739 27.260 -65.17 0.81351 0.59
12 4 3 o 2.621 2.616 118.34 0.81110 0.05
12 0 5 o 0.285 0.284 -90.00 0.81110 0.00
12 3 4 o 3.671 3.663 169.45 0.81110 0.07
12 5 0 o 15.390 15.360 -180.00 0.81110 0.15
11 7 0 o 16.839 18.087 -90.00 0.80871 0.17
9 8 5 o 0.720 0.774 151.45 0.80871 0.01
11 0 7 o 16.526 17.750 -90.00 0.80871 0.16
9 5 8 o 3.238 3.478 -15.55 0.80871 0.06
12 5 1 o 0.955 1.026 148.91 0.80871 0.02
13 1 0 o 0.318 0.341 90.00 0.80871 0.00
12 1 5 o 10.733 11.528 172.82 0.80871 0.21
13 0 1 o 14.405 15.472 90.00 0.80871 0.14
9 9 3 o 36.644 40.328 -21.01 0.80634 0.72
11 1 7 o 66.572 73.263 -105.62 0.80634 1.31
13 1 1 o 27.673 30.454 10.04 0.80634 0.54
11 5 5 o 6.201 6.825 37.50 0.80634 0.12
11 7 1 o 46.862 51.572 -108.34 0.80634 0.92
10 6 6 o 274.718 294.870 -114.82 0.80400 5.39
11 6 4 o 17.359 17.549 -109.33 0.80167 0.34
13 2 0 o 0.771 0.780 90.00 0.80167 0.01
10 8 3 o 13.628 13.777 -105.22 0.80167 0.27
12 2 5 o 0.126 0.128 141.65 0.80167 0.00
13 0 2 o 0.766 0.774 -180.00 0.80167 0.01
11 4 6 o 12.041 12.173 97.45 0.80167 0.24
10 3 8 o 12.140 12.273 124.80 0.80167 0.24
12 5 2 o 11.016 11.136 -15.63 0.80167 0.22
11 2 7 o 22.747 21.144 111.13 0.79936 0.45
10 7 5 o 25.645 23.837 57.45 0.79936 0.50
13 1 2 o 14.070 13.078 120.09 0.79936 0.28
13 2 1 o 20.393 18.956 -88.55 0.79936 0.40
10 5 7 o 7.334 6.817 144.72 0.79936 0.14
11 7 2 o 12.589 11.701 108.43 0.79936 0.25
12 4 4 o 65.243 51.538 7.04 0.79481 1.27
13 2 2 o 4.709 3.684 -45.92 0.79256 0.09
8 8 7 o 16.590 12.980 -69.87 0.79256 0.32
12 5 3 o 3.377 2.780 32.48 0.79033 0.07
12 3 5 o 14.825 12.205 174.53 0.79033 0.29
9 9 4 o 3.423 2.818 58.72 0.79033 0.07
13 3 0 o 4.602 3.789 90.00 0.79033 0.04
13 0 3 o 28.618 23.559 -90.00 0.79033 0.28
9 7 7 o 16.365 14.565 -168.49 0.78812 0.32
13 3 1 o 5.299 4.716 -108.84 0.78812 0.10
13 1 3 o 0.379 0.337 -158.03 0.78812 0.01
11 3 7 o 49.800 44.324 117.93 0.78812 0.97
11 7 3 o 42.617 37.930 120.18 0.78812 0.83
10 4 8 o 72.868 68.872 -0.64 0.78593 1.42
10 8 4 o 61.693 58.309 -0.53 0.78593 1.20
12 6 0 o 0.134 0.126 180.00 0.78593 0.00
12 0 6 o 4.559 4.309 0.00 0.78593 0.04
10 0 9 o 11.381 11.001 -90.00 0.78375 0.11
9 6 8 o 12.219 11.811 6.16 0.78375 0.24
12 6 1 o 3.534 3.416 62.55 0.78375 0.07
10 9 0 o 17.944 17.345 0.00 0.78375 0.17
9 8 6 o 7.827 7.566 -62.72 0.78375 0.15
12 1 6 o 10.204 9.864 -42.86 0.78375 0.20
11 5 6 o 12.166 11.747 77.60 0.78160 0.24
11 6 5 o 3.073 2.967 164.85 0.78160 0.06
13 3 2 o 9.465 9.139 108.28 0.78160 0.18
10 9 1 o 1.594 1.539 113.15 0.78160 0.03
13 2 3 o 17.595 16.989 73.56 0.78160 0.34
10 1 9 o 47.008 45.388 -55.75 0.78160 0.91
12 2 6 o 59.447 58.439 -104.81 0.77734 1.15
12 6 2 o 64.610 63.515 -112.69 0.77734 1.25
13 0 4 o 1.679 1.689 -180.00 0.77523 0.02
12 5 4 o 3.480 3.500 88.71 0.77523 0.07
10 2 9 o 16.834 16.933 -124.49 0.77523 0.33
10 6 7 o 4.032 4.056 150.18 0.77523 0.08
12 4 5 o 8.514 8.564 92.11 0.77523 0.17
11 0 8 o 1.945 1.957 0.00 0.77523 0.02
10 9 2 o 10.367 10.428 -130.94 0.77523 0.20
11 8 0 o 0.970 0.976 -90.00 0.77523 0.01
13 4 0 o 8.438 8.487 90.00 0.77523 0.08
10 7 6 o 5.804 5.838 102.97 0.77523 0.11
11 1 8 o 10.904 11.096 -100.98 0.77315 0.21
13 1 4 o 10.582 10.770 48.37 0.77315 0.21
11 4 7 o 7.810 7.948 -85.33 0.77315 0.15
11 7 4 o 4.226 4.300 -90.04 0.77315 0.08
11 8 1 o 29.806 30.333 64.59 0.77315 0.58
13 4 1 o 23.588 24.005 105.43 0.77315 0.46
9 9 5 o 74.886 74.784 46.82 0.77108 1.45
13 3 3 o 23.360 23.328 -42.48 0.77108 0.45
12 6 3 o 12.247 11.068 108.30 0.76699 0.24
11 2 8 o 5.242 4.737 -143.20 0.76699 0.10
11 8 2 o 24.785 22.399 87.90 0.76699 0.48
10 8 5 o 19.062 17.227 -33.76 0.76699 0.37
10 5 8 o 18.600 16.810 -10.73 0.76699 0.36
12 3 6 o 5.327 4.814 -93.95 0.76699 0.10
13 4 2 o 7.195 6.502 -99.48 0.76699 0.14
13 2 4 o 4.119 3.723 -21.79 0.76699 0.08
10 3 9 o 61.708 54.882 62.42 0.76496 1.20
10 9 3 o 10.099 8.982 63.55 0.76496 0.20
8 8 8 o 1421.111 1376.549 1.36 0.76097 9.18
12 7 0 o 3.158 3.239 -180.00 0.75900 0.03
12 0 7 o 1.312 1.345 90.00 0.75900 0.01
11 6 6 o 7.926 8.129 106.88 0.75900 0.15
11 8 3 o 21.792 23.284 -70.75 0.75704 0.42
11 3 8 o 4.492 4.800 -79.13 0.75704 0.09
12 7 1 o 4.388 4.688 -147.94 0.75704 0.09
13 5 0 o 9.583 10.240 90.00 0.75704 0.09
13 3 4 o 3.191 3.410 155.47 0.75704 0.06
13 4 3 o 8.599 9.188 -113.59 0.75704 0.17
12 1 7 o 24.878 26.582 50.66 0.75704 0.48
13 0 5 o 33.650 35.955 90.00 0.75704 0.33
9 8 7 o 4.773 5.100 -140.78 0.75704 0.09
9 7 8 o 12.408 13.258 120.54 0.75704 0.24
12 5 5 o 2.247 2.401 -129.57 0.75704 0.04
13 1 5 o 15.667 17.181 61.98 0.75509 0.30
11 7 5 o 12.090 13.258 -172.19 0.75509 0.23
11 5 7 o 16.505 18.100 -146.11 0.75509 0.32
13 5 1 o 8.337 9.143 46.70 0.75509 0.16
12 4 6 o 70.926 78.846 5.08 0.75316 1.38
12 6 4 o 45.673 50.773 5.20 0.75316 0.89
14 0 0 o 61.548 68.421 0.00 0.75316 0.30
10 4 9 o 9.916 10.973 -55.30 0.75125 0.19
10 9 4 o 11.261 12.462 -32.84 0.75125 0.22
14 0 1 o 18.910 20.926 -90.00 0.75125 0.18
14 1 0 o 48.592 53.772 0.00 0.75125 0.47
12 2 7 o 12.160 13.456 95.40 0.75125 0.24
12 7 2 o 1.235 1.366 -40.90 0.75125 0.02
10 7 7 o 1.194 1.295 119.86 0.74935 0.02
13 5 2 o 8.900 9.651 70.06 0.74935 0.17
13 2 5 o 11.318 12.274 -65.55 0.74935 0.22
9 9 6 o 6.037 6.547 -135.48 0.74935 0.12
14 1 1 o 16.574 17.974 -7.63 0.74935 0.32
10 6 8 o 22.188 23.138 72.41 0.74560 0.43
14 2 0 o 53.042 55.314 0.00 0.74560 0.52
14 0 2 o 5.680 5.924 0.00 0.74560 0.06
10 10 0 o 87.855 91.618 0.00 0.74560 0.85
10 8 6 o 22.481 23.443 70.45 0.74560 0.44
14 2 1 o 8.202 8.480 -47.62 0.74374 0.16
11 4 8 o 15.921 16.461 -43.66 0.74374 0.31
14 1 2 o 16.816 17.387 159.85 0.74374 0.33
10 10 1 o 29.279 30.273 -142.93 0.74374 0.57
13 4 4 o 12.729 13.161 87.01 0.74374 0.25
11 8 4 o 21.719 22.456 -69.03 0.74374 0.42
12 7 3 o 5.263 5.429 -49.45 0.74189 0.10
12 3 7 o 20.560 21.207 -56.97 0.74189 0.40
11 0 9 o 0.314 0.324 90.00 0.74189 0.00
11 9 0 o 22.752 23.469 -90.00 0.74189 0.22
11 1 9 o 6.438 6.669 41.09 0.74007 0.13
11 9 1 o 16.876 17.481 62.19 0.74007 0.33
13 5 3 o 33.748 34.959 11.71 0.74007 0.66
13 3 5 o 33.800 35.013 -17.82 0.74007 0.66
14 2 2 o 255.528 267.162 108.94 0.73825 4.99
10 10 2 o 272.840 285.263 -115.23 0.73825 5.33
13 0 6 o 0.241 0.253 -180.00 0.73645 0.00
12 6 5 o 6.672 7.010 4.61 0.73645 0.13
14 0 3 o 3.229 3.393 -90.00 0.73645 0.03
12 5 6 o 10.835 11.384 1.32 0.73645 0.21
13 6 0 o 1.917 2.014 -90.00 0.73645 0.02
14 3 0 o 59.204 62.201 -180.00 0.73645 0.58
10 9 5 o 6.339 6.573 -161.58 0.73466 0.12
11 6 7 o 6.634 6.879 86.86 0.73466 0.13
11 9 2 o 8.103 8.403 83.86 0.73466 0.16
11 7 6 o 5.664 5.874 51.71 0.73466 0.11
10 5 9 o 25.482 26.425 -82.10 0.73466 0.50
11 2 9 o 1.031 1.069 69.69 0.73466 0.02
14 3 1 o 16.300 16.903 14.85 0.73466 0.32
14 1 3 o 13.918 14.433 178.99 0.73466 0.27
13 1 6 o 6.612 6.857 91.22 0.73466 0.13
13 6 1 o 35.698 37.019 -60.74 0.73466 0.70
12 8 0 o 40.776 38.808 0.00 0.73112 0.40
12 0 8 o 32.064 30.517 0.00 0.73112 0.32
12 7 4 o 5.794 5.308 -67.92 0.72936 0.11
10 10 3 o 0.733 0.672 139.78 0.72936 0.01
14 3 2 o 15.684 14.369 -30.78 0.72936 0.31
12 1 8 o 6.139 5.624 52.86 0.72936 0.12
9 8 8 o 9.957 9.122 144.30 0.72936 0.20
13 6 2 o 17.343 15.889 -100.80 0.72936 0.34
13 2 6 o 6.411 5.874 -61.59 0.72936 0.13
12 8 1 o 5.429 4.974 65.45 0.72936 0.11
12 4 7 o 13.951 12.782 -84.74 0.72936 0.27
14 2 3 o 12.469 11.424 -46.89 0.72936 0.25
13 4 5 o 6.437 5.837 104.64 0.72763 0.13
13 5 4 o 3.991 3.619 10.03 0.72763 0.08
11 5 8 o 2.990 2.711 -139.72 0.72763 0.06
11 8 5 o 16.640 15.090 89.03 0.72763 0.33
11 9 3 o 13.859 12.821 -176.49 0.72590 0.27
11 3 9 o 19.527 18.065 153.42 0.72590 0.39
9 9 7 o 14.088 13.033 -73.15 0.72590 0.28
14 0 4 o 58.434 56.053 180.00 0.72419 0.58
14 4 0 o 71.378 68.470 -180.00 0.72419 0.71
12 2 8 o 49.530 47.512 17.66 0.72419 0.98
12 8 2 o 75.699 72.615 14.76 0.72419 1.50
14 4 1 o 8.914 8.848 -69.80 0.72248 0.18
10 7 8 o 23.421 23.247 123.41 0.72248 0.46
10 8 7 o 14.393 14.285 -98.09 0.72248 0.29
14 1 4 o 72.124 71.586 2.12 0.72248 1.43
13 3 6 o 16.838 16.993 57.11 0.72079 0.34
13 6 3 o 37.763 38.110 73.00 0.72079 0.75
14 3 3 o 26.057 26.297 174.54 0.72079 0.52
14 2 4 o 58.676 57.636 -14.91 0.71745 1.17
12 6 6 o 47.822 46.974 106.87 0.71745 0.96
10 10 4 o 23.609 23.190 32.54 0.71745 0.47
14 4 2 o 18.005 17.686 -30.30 0.71745 0.36
10 6 9 o 7.005 6.707 -57.28 0.71579 0.14
10 9 6 o 3.384 3.240 -104.64 0.71579 0.07
12 8 3 o 8.866 8.488 -81.24 0.71579 0.18
12 3 8 o 5.802 5.555 -74.74 0.71579 0.12
11 9 4 o 7.629 7.158 -100.75 0.71415 0.15
11 4 9 o 4.558 4.276 123.63 0.71415 0.09
12 7 5 o 7.260 6.812 -174.84 0.71415 0.15
12 5 7 o 16.769 15.734 80.26 0.71415 0.34
13 7 0 o 0.284 0.267 90.00 0.71415 0.00
13 0 7 o 15.743 14.771 -90.00 0.71415 0.16
11 7 7 o 127.596 118.336 117.60 0.71252 2.57
13 5 5 o 58.800 54.533 33.08 0.71252 1.19
13 7 1 o 17.292 16.037 24.21 0.71252 0.35
13 1 7 o 36.053 33.436 48.53 0.71252 0.73
14 0 5 o 19.602 18.129 -90.00 0.70929 0.20
11 8 6 o 29.887 27.640 111.53 0.70929 0.61
13 4 6 o 8.707 8.052 -114.30 0.70929 0.18
11 10 0 o 21.039 19.457 -90.00 0.70929 0.21
11 6 8 o 23.881 22.086 -109.74 0.70929 0.48
11 0 10 o 9.489 8.776 180.00 0.70929 0.10
14 3 4 o 33.651 31.121 162.79 0.70929 0.68
14 5 0 o 100.852 93.269 0.00 0.70929 1.02
13 6 4 o 2.362 2.185 12.10 0.70929 0.05
14 4 3 o 18.343 16.964 -90.13 0.70929 0.37
11 1 10 o 9.557 8.937 59.44 0.70769 0.19
11 10 1 o 23.310 21.797 -178.52 0.70769 0.47
13 7 2 o 9.737 9.105 64.47 0.70769 0.20
13 2 7 o 13.497 12.621 86.87 0.70769 0.27
14 1 5 o 25.177 23.543 -34.02 0.70769 0.51
14 5 1 o 2.772 2.592 2.00 0.70769 0.06
12 8 4 o 1306.736 1284.357 0.96 0.70452 26.80
12 4 8 o 1274.233 1252.410 0.96 0.70452 26.13
11 2 10 o 6.701 6.818 62.86 0.70295 0.14
11 10 2 o 3.748 3.814 127.41 0.70295 0.08
10 10 5 o 2.270 2.310 -133.96 0.70295 0.05
14 2 5 o 16.874 17.168 -143.59 0.70295 0.35
14 5 2 o 38.144 38.809 -154.78 0.70295 0.79
12 9 0 o 1.610 1.638 0.00 0.70295 0.02
12 0 9 o 18.147 18.464 90.00 0.70295 0.19
12 1 9 o 10.049 10.588 -170.96 0.70140 0.21
12 9 1 o 2.931 3.089 -16.91 0.70140 0.06
9 9 8 o 7.807 8.226 53.38 0.70140 0.16
15 1 0 o 6.960 7.334 -90.00 0.70140 0.07
15 0 1 o 0.014 0.014 90.00 0.70140 0.00
15 1 1 o 11.477 12.397 -151.61 0.69985 0.24
11 5 9 o 18.418 19.895 -104.37 0.69985 0.38
11 9 5 o 11.046 11.932 -107.51 0.69985 0.23
13 3 7 o 10.269 11.093 -164.02 0.69985 0.21
13 7 3 o 10.975 11.855 176.29 0.69985 0.23
10 8 8 o 9.858 10.701 -130.07 0.69831 0.21
14 4 4 o 80.651 87.547 -2.52 0.69831 1.68
15 0 2 o 2.079 2.225 180.00 0.69679 0.02
15 2 0 o 3.516 3.762 -90.00 0.69679 0.04
12 2 9 o 3.013 3.223 -47.30 0.69679 0.06
12 6 7 o 12.745 13.636 98.58 0.69679 0.27
12 7 6 o 16.231 17.367 -83.63 0.69679 0.34
12 9 2 o 7.734 8.276 27.62 0.69679 0.16
11 10 3 o 7.010 7.322 157.07 0.69527 0.15
10 9 7 o 5.362 5.601 89.67 0.69527 0.11
10 7 9 o 31.053 32.437 70.29 0.69527 0.65
14 3 5 o 35.030 36.590 37.99 0.69527 0.74
14 5 3 o 4.991 5.213 147.46 0.69527 0.10
15 1 2 o 7.077 7.392 114.05 0.69527 0.15
15 2 1 o 1.929 2.015 -91.43 0.69527 0.04
13 6 5 o 23.572 24.622 -86.64 0.69527 0.50
11 3 10 o 1.764 1.843 51.34 0.69527 0.04
13 5 6 o 12.975 13.553 147.08 0.69527 0.27
14 6 0 o 97.778 97.210 0.00 0.69227 1.04
14 0 6 o 45.047 44.785 0.00 0.69227 0.48
12 8 5 o 6.385 6.238 -154.69 0.69078 0.14
13 0 8 o 2.327 2.274 0.00 0.69078 0.02
14 1 6 o 42.975 41.985 -151.55 0.69078 0.92
14 6 1 o 26.014 25.414 -140.59 0.69078 0.56
15 2 2 o 0.657 0.642 73.07 0.69078 0.01
12 5 8 o 8.311 8.120 178.51 0.69078 0.18
13 8 0 o 32.027 31.290 90.00 0.69078 0.34
12 3 9 o 14.674 14.224 -164.13 0.68930 0.31
11 7 8 o 35.187 34.109 -90.62 0.68930 0.76
13 4 7 o 9.315 9.029 -100.41 0.68930 0.20
15 0 3 o 8.236 7.983 -90.00 0.68930 0.09
13 1 8 o 9.363 9.076 5.43 0.68930 0.20
13 7 4 o 8.809 8.539 129.53 0.68930 0.19
13 8 1 o 6.441 6.244 170.86 0.68930 0.14
12 9 3 o 10.386 10.068 127.79 0.68930 0.22
11 8 7 o 44.819 43.445 -81.72 0.68930 0.96
15 3 0 o 31.904 30.926 -90.00 0.68930 0.34
15 1 3 o 46.680 45.381 -105.11 0.68783 1.01
15 3 1 o 20.444 19.875 -111.85 0.68783 0.44
14 6 2 o 254.549 250.050 -111.46 0.68638 5.53
10 10 6 o 283.458 278.449 113.07 0.68638 6.15
14 2 6 o 265.881 261.181 -114.34 0.68638 5.77
11 4 10 o 35.164 34.937 144.25 0.68493 0.77
13 8 2 o 10.805 10.735 -94.12 0.68493 0.24
13 2 8 o 5.641 5.605 35.46 0.68493 0.12
14 4 5 o 29.668 29.476 -75.84 0.68493 0.65
11 10 4 o 14.421 14.328 -104.23 0.68493 0.32
14 5 4 o 53.589 53.243 -5.63 0.68493 1.17
11 9 6 o 13.350 13.321 92.61 0.68349 0.29
15 2 3 o 13.429 13.399 125.73 0.68349 0.30
11 6 9 o 3.680 3.672 93.91 0.68349 0.08
15 3 2 o 8.553 8.534 108.32 0.68349 0.19
14 3 6 o 7.489 7.158 45.05 0.67922 0.17
14 6 3 o 4.319 4.128 -147.02 0.67922 0.10
12 4 9 o 1.974 1.887 139.37 0.67922 0.04
12 9 4 o 6.544 6.254 148.52 0.67922 0.15
15 4 0 o 2.725 2.604 -90.00 0.67922 0.03
13 6 6 o 16.484 15.754 -45.56 0.67922 0.37
15 0 4 o 5.296 5.061 0.00 0.67922 0.06
15 4 1 o 7.614 7.243 63.69 0.67781 0.17
11 11 0 o 2.431 2.313 -90.00 0.67781 0.03
15 1 4 o 34.020 32.364 -97.39 0.67781 0.77
13 3 8 o 20.738 19.729 137.50 0.67781 0.47
13 8 3 o 9.283 8.831 -141.43 0.67781 0.21
12 7 7 o 31.623 30.084 -77.90 0.67781 0.71
13 5 7 o 0.235 0.226 -67.29 0.67642 0.01
13 7 5 o 12.928 12.420 -90.55 0.67642 0.29
11 11 1 o 22.512 21.626 -133.68 0.67642 0.51
9 9 9 o 23.393 22.472 54.65 0.67642 0.18
15 3 3 o 15.377 14.771 142.75 0.67642 0.35
12 6 8 o 10.786 10.550 -54.42 0.67503 0.25
12 8 6 o 13.748 13.449 -43.24 0.67503 0.32
12 0 10 o 72.264 70.689 0.00 0.67503 0.83
12 10 0 o 87.219 85.317 0.00 0.67503 1.00
10 9 8 o 16.589 16.505 -39.42 0.67365 0.38
14 7 0 o 28.358 28.216 -180.00 0.67365 0.33
15 2 4 o 6.710 6.677 -152.91 0.67365 0.16
14 0 7 o 16.137 16.056 -90.00 0.67365 0.19
12 10 1 o 12.854 12.790 29.22 0.67365 0.30
10 8 9 o 16.241 16.159 -39.15 0.67365 0.38
12 1 10 o 11.551 11.493 -47.23 0.67365 0.27
15 4 2 o 13.169 13.103 83.81 0.67365 0.30
11 10 5 o 4.184 4.203 148.70 0.67228 0.10
14 7 1 o 18.456 18.538 27.17 0.67228 0.43
11 11 2 o 14.067 14.129 66.86 0.67228 0.33
14 5 5 o 5.083 5.105 -68.76 0.67228 0.12
11 5 10 o 11.104 11.153 84.74 0.67228 0.26
14 1 7 o 26.616 26.734 -176.93 0.67228 0.62
14 4 6 o 12.424 12.430 41.12 0.66956 0.30
12 10 2 o 44.722 44.744 105.51 0.66956 1.06
12 2 10 o 43.225 43.246 86.12 0.66956 1.03
14 6 4 o 29.129 29.143 27.16 0.66956 0.69
