#------------------------------------------------------------------------------
#$Date: 2016-02-14 06:40:26 +0200 (Sun, 14 Feb 2016) $
#$Revision: 176432 $
#$URL: svn://www.crystallography.net/cod/cif/4/00/17/4001799.cif $
#------------------------------------------------------------------------------
#
# This file is available in the Crystallography Open Database (COD),
# http://www.crystallography.net/
#
# All data on this site have been placed in the public domain by the
# contributors.
#
data_4001799
loop_
_publ_author_name
'Dunstan, Matthew T.'
'Blanc, Fr\'ed\'eric'
'Avdeev, Maxim'
'McIntyre, Garry J.'
'Grey, Clare P.'
'Ling, Chris D.'
_publ_section_title
;
 Long-Range-Ordered Coexistence of 4-, 5-, and 6-Coordinate Niobium in the
 Mixed Ionic-Electronic Conductor \g-Ba4Nb2O9
;
_journal_issue                   15
_journal_name_full               'Chemistry of Materials'
_journal_page_first              3154
_journal_paper_doi               10.1021/cm4014656
_journal_volume                  25
_journal_year                    2013
_chemical_formula_sum            'Ba4 Nb2 O9'
_chemical_formula_weight         879.2
_chemical_name_systematic        ' ?'
_space_group_IT_number           29
_symmetry_cell_setting           orthorhombic
_symmetry_Int_Tables_number      29
_symmetry_space_group_name_Hall  'P 2c -2ac'
_symmetry_space_group_name_H-M   'P c a 21'
_cell_angle_alpha                90
_cell_angle_beta                 90
_cell_angle_gamma                90
_cell_formula_units_Z            24
_cell_length_a                   12.0872(7)
_cell_length_b                   24.8979(8)
_cell_length_c                   21.0015(10)
_cell_measurement_reflns_used    3461
_cell_measurement_temperature    293
_cell_measurement_theta_max      ??
_cell_measurement_theta_min      2
_cell_volume                     6320.3(5)
_computing_cell_refinement       RAFD19
_computing_data_collection       MAD
_computing_data_reduction        'RETREAT (Wilkinson et al., 1988)'
_computing_structure_refinement  'Jana2006 Version : 04/09/2012'
_diffrn_ambient_temperature      295
_diffrn_detector                 '3He multi-wire proportional counter'
_diffrn_detector_area_resol_mean '0.2 degrees'
_diffrn_measured_fraction_theta_full 0.91
_diffrn_measured_fraction_theta_max 0.7
_diffrn_measurement_device       D19
_diffrn_measurement_device_type  'Area detector based neutron diffractometer'
_diffrn_measurement_method       'omega scans'
_diffrn_measurement_specimen_support 'Ti pin'
_diffrn_radiation_monochromator  germanium
_diffrn_radiation_probe          neutron
_diffrn_radiation_source         'Institut Laue-Langevin'
_diffrn_radiation_type           Neutron
_diffrn_radiation_wavelength     1.2467
_diffrn_reflns_av_R_equivalents  0.0644
_diffrn_reflns_av_sigmaI/netI    0.0202
_diffrn_reflns_limit_h_max       11
_diffrn_reflns_limit_h_min       -14
_diffrn_reflns_limit_k_max       24
_diffrn_reflns_limit_k_min       -35
_diffrn_reflns_limit_l_max       27
_diffrn_reflns_limit_l_min       -26
_diffrn_reflns_number            27184
_diffrn_reflns_reduction_process
'3D minimum sigma(I)/I (Wilkinson et al., 1988)'
_diffrn_reflns_theta_full        26.06
_diffrn_reflns_theta_max         61.31
_diffrn_reflns_theta_min         2.87
_diffrn_standards_decay_%        0
_diffrn_standards_interval_count 'after every 82 degree omega scan'
_diffrn_standards_number         294
_exptl_absorpt_coefficient_mu    0.002
_exptl_crystal_density_diffrn    5.5418
_exptl_crystal_F_000             9072
_refine_diff_density_max         5.57
_refine_diff_density_min         -4.12
_refine_ls_extinction_method     none
_refine_ls_goodness_of_fit_gt    3.75
_refine_ls_goodness_of_fit_ref   3.48
_refine_ls_number_constraints    1
_refine_ls_number_parameters     813
_refine_ls_number_reflns         10365
_refine_ls_number_restraints     0
_refine_ls_R_factor_all          0.0822
_refine_ls_R_factor_gt           0.0669
_refine_ls_shift/su_max          0.0411
_refine_ls_shift/su_mean         0.0091
_refine_ls_structure_factor_coef F
_refine_ls_weighting_details     w=1/(\s^2^(F)+0.0001F^2^)
_refine_ls_weighting_scheme      sigma
_refine_ls_wR_factor_gt          0.0683
_refine_ls_wR_factor_ref         0.0696
_reflns_number_gt                8745
_reflns_number_total             10365
_reflns_threshold_expression     I>3\s(I)
_cod_data_source_file            cm4014656_si_002.cif
_cod_data_source_block           I
_cod_original_sg_symbol_Hall     'P -2xac;-2ya;2zc'
_cod_database_code               4001799
loop_
_symmetry_equiv_pos_site_id
_symmetry_equiv_pos_as_xyz
1 x,y,z
2 -x,-y,z+1/2
3 x+1/2,-y,z
4 -x+1/2,y,z+1/2
loop_
_atom_site_label
_atom_site_type_symbol
_atom_site_fract_x
_atom_site_fract_y
_atom_site_fract_z
_atom_site_adp_type
_atom_site_U_iso_or_equiv
_atom_site_symmetry_multiplicity
_atom_site_occupancy
_atom_site_calc_flag
Ba1 Ba 0.9976(4) -0.67550(14) 0.4496(2) Uani 0.0154(16) 4 1 d
Ba2 Ba 1.0003(4) -0.83694(14) 0.4415(2) Uani 0.0169(15) 4 1 d
Ba3 Ba 0.4944(4) -0.74993(12) 0.1131(3) Uani 0.0152(17) 4 1 d
Ba4 Ba 0.2407(4) -0.66567(15) 0.1924(2) Uani 0.0166(15) 4 1 d
Ba5 Ba 0.7474(4) -0.67170(14) 0.1927(2) Uani 0.0137(14) 4 1 d
Ba6 Ba 0.7429(5) -0.83191(16) 0.2003(2) Uani 0.0190(16) 4 1 d
Ba7 Ba 0.4914(4) -0.82459(14) 0.4453(2) Uani 0.0168(16) 4 1 d
Ba8 Ba 0.9667(5) -0.58160(12) 0.1107(2) Uani 0.0160(14) 4 1 d
Ba9 Ba 0.2469(4) -0.82407(13) 0.1994(2) Uani 0.0128(14) 4 1 d
Ba10 Ba 0.7106(5) -0.91889(12) 0.35712(19) Uani 0.0154(13) 4 1 d
Ba11 Ba 0.7483(5) -0.74916(13) 0.3645(3) Uani 0.0161(16) 4 1 d
Ba12 Ba 0.9969(4) -0.75499(15) 0.1159(3) Uani 0.0176(17) 4 1 d
Ba13 Ba 0.0444(5) -0.91945(12) 0.1086(2) Uani 0.0209(15) 4 1 d
Ba14 Ba 0.9953(4) -0.94458(13) 0.2748(2) Uani 0.0205(16) 4 1 d
Ba15 Ba 0.2688(4) -0.91669(12) 0.3591(2) Uani 0.0151(14) 4 1 d
Ba16 Ba 0.2445(5) -0.74569(15) 0.3646(3) Uani 0.0156(16) 4 1 d
Ba17 Ba 0.5261(5) -0.58274(13) 0.1024(2) Uani 0.0155(14) 4 1 d
Ba18 Ba 0.4966(5) -0.92284(14) 0.1337(2) Uani 0.0228(17) 4 1 d
Ba19 Ba 0.7765(5) -0.95527(12) 0.04137(19) Uani 0.0203(15) 4 1 d
Ba20 Ba 0.2008(4) -0.57911(12) 0.3619(2) Uani 0.0167(14) 4 1 d
Ba21 Ba 0.7508(4) -0.57740(13) 0.3822(2) Uani 0.0192(15) 4 1 d
Ba22 Ba 0.2541(5) -0.55400(12) 0.0284(2) Uani 0.0202(15) 4 1 d
Ba23 Ba 0.5030(4) -0.66655(16) 0.4532(3) Uani 0.0166(16) 4 1 d
Ba24 Ba 0.4718(4) -0.54395(11) 0.2878(2) Uani 0.0182(14) 4 1 d
Nb1 Nb 0.9939(3) -0.81013(9) 0.28011(18) Uani 0.0109(10) 4 1 d
Nb2 Nb 0.9865(3) -0.69036(9) 0.27941(17) Uani 0.0123(10) 4 1 d
Nb3 Nb 0.7272(4) -0.50240(8) 0.19580(17) Uani 0.0154(11) 4 1 d
Nb4 Nb 0.2477(3) -0.68952(9) 0.03104(16) Uani 0.0131(10) 4 1 d
Nb5 Nb 0.2432(3) -0.00368(9) 0.20667(18) Uani 0.0154(12) 4 1 d
Nb6 Nb 0.2583(3) -0.80955(9) 0.03033(16) Uani 0.0119(10) 4 1 d
Nb7 Nb 0.4768(4) -0.00070(8) 0.44521(18) Uani 0.0185(12) 4 1 d
Nb8 Nb 0.7497(3) -0.70198(10) 0.03102(16) Uani 0.0138(10) 4 1 d
Nb9 Nb 0.0008(3) -0.49446(10) 0.4573(2) Uani 0.0172(12) 4 1 d
Nb10 Nb 0.4908(3) -0.67811(9) 0.28301(17) Uani 0.0142(10) 4 1 d
Nb11 Nb 0.7496(3) -0.82109(9) 0.03124(16) Uani 0.0128(10) 4 1 d
Nb12 Nb 0.4939(3) -0.79804(9) 0.28138(18) Uani 0.0159(11) 4 1 d
O1 O 0.1046(5) -0.75129(10) 0.2446(2) Uani 0.0164(13) 4 1 d
O2 O 0.9821(4) -0.75541(13) 0.3536(2) Uani 0.0206(15) 4 1 d
O3 O 0.8828(5) -0.75183(10) 0.2423(2) Uani 0.0185(14) 4 1 d
O4 O 0.1097(4) -0.84694(13) 0.3196(2) Uani 0.0203(13) 4 1 d
O5 O 0.8641(5) -0.65666(13) 0.3153(2) Uani 0.0307(16) 4 1 d
O6 O 0.1033(5) -0.66221(12) 0.3270(2) Uani 0.0272(15) 4 1 d
O7 O 0.8744(4) -0.85322(13) 0.3115(2) Uani 0.0207(14) 4 1 d
O8 O 0.4800(4) -0.73648(13) 0.3551(2) Uani 0.0204(14) 4 1 d
O9 O 0.6087(4) -0.73759(12) 0.25158(19) Uani 0.0197(13) 4 1 d
O10 O 0.3877(5) -0.73785(12) 0.24008(19) Uani 0.0207(14) 4 1 d
O11 O 0.9970(4) -0.84753(14) 0.2000(2) Uani 0.0235(17) 4 1 d
O12 O 0.9993(4) -0.65554(15) 0.2004(2) Uani 0.0264(18) 4 1 d
O13 O 0.5029(4) -0.83244(15) 0.2026(2) Uani 0.0213(15) 4 1 d
O14 O 0.6107(4) -0.83008(12) 0.32722(19) Uani 0.0204(13) 4 1 d
O15 O 0.6301(5) -0.66915(13) 0.0745(2) Uani 0.0230(14) 4 1 d
O16 O 0.2534(4) -0.74700(11) 0.10338(19) Uani 0.0176(15) 4 1 d
O17 O 0.2480(4) -0.84349(14) 0.9513(2) Uani 0.0222(15) 4 1 d
O18 O 0.7564(4) -0.76271(14) 0.10417(19) Uani 0.0174(14) 4 1 d
O19 O 0.3676(4) -0.83152(12) 0.3166(2) Uani 0.0225(14) 4 1 d
O20 O 0.7248(6) -0.86031(17) 0.9558(2) Uani 0.039(2) 4 1 d
O21 O 0.2516(4) -0.65173(14) 0.9514(2) Uani 0.0253(16) 4 1 d
O22 O 0.3727(5) -0.65457(12) 0.0690(2) Uani 0.0231(14) 4 1 d
O23 O 0.5838(5) -0.63702(12) 0.3370(2) Uani 0.0286(16) 4 1 d
O24 O 0.1400(5) -0.74630(11) 0.9948(2) Uani 0.0193(14) 4 1 d
O25 O 0.0813(4) -0.49358(13) 0.37518(19) Uani 0.0234(14) 4 1 d
O26 O 0.3581(4) -0.63949(13) 0.3020(2) Uani 0.0249(14) 4 1 d
O27 O 0.6343(4) -0.76331(12) 0.99928(19) Uani 0.0178(13) 4 1 d
O28 O 0.3151(4) -0.00495(11) 0.29101(19) Uani 0.0222(14) 4 1 d
O29 O 0.9302(4) -0.49194(12) 0.54236(18) Uani 0.0230(14) 4 1 d
O30 O 0.3607(5) -0.75033(11) 0.9921(2) Uani 0.0169(13) 4 1 d
O31 O 0.7383(4) -0.66636(13) 0.9513(2) Uani 0.0223(15) 4 1 d
O32 O 0.1351(5) -0.64603(13) 0.0680(2) Uani 0.0237(14) 4 1 d
O33 O 0.3772(5) -0.84460(13) 0.0702(2) Uani 0.0311(16) 4 1 d
O34 O 0.5734(5) -0.49180(15) 0.19311(19) Uani 0.0245(15) 4 1 d
O35 O 0.8731(4) -0.66960(12) 0.0685(2) Uani 0.0217(14) 4 1 d
O36 O 0.5219(5) -0.00736(16) 0.5277(2) Uani 0.0280(17) 4 1 d
O37 O 0.1616(5) -0.00519(13) 0.12515(19) Uani 0.0257(15) 4 1 d
O38 O 0.6565(5) -0.86469(13) 0.0827(2) Uani 0.0328(17) 4 1 d
O39 O 0.3787(5) -0.02500(14) 0.16587(18) Uani 0.0271(16) 4 1 d
O40 O 0.8551(5) -0.75953(13) 0.9890(2) Uani 0.0206(14) 4 1 d
O41 O 0.2033(5) -0.93014(12) 0.2178(2) Uani 0.0339(17) 4 1 d
O42 O 0.1358(5) -0.83729(14) 0.0726(3) Uani 0.0361(18) 4 1 d
O43 O 0.3229(4) -0.00733(13) 0.43979(19) Uani 0.0232(14) 4 1 d
O44 O 0.8648(5) -0.47428(14) 0.4182(2) Uani 0.0296(16) 4 1 d
O45 O 0.0385(5) -0.56769(11) 0.46897(20) Uani 0.0271(15) 4 1 d
O46 O 0.5237(5) -0.63852(16) 0.2079(2) Uani 0.0289(16) 4 1 d
O47 O 0.8038(5) -0.44771(13) 0.15609(19) Uani 0.0320(17) 4 1 d
O48 O 0.7726(5) -0.50614(13) 0.2787(2) Uani 0.0294(16) 4 1 d
O49 O 0.7531(4) -0.56535(13) 0.1535(2) Uani 0.0264(16) 4 1 d
O50 O 0.1018(6) -0.44210(17) 0.4867(2) Uani 0.043(2) 4 1 d
O51 O 0.5094(5) -0.93195(14) 0.4190(2) Uani 0.0340(18) 4 1 d
O52 O 0.1416(6) -0.05559(17) 0.2374(2) Uani 0.044(2) 4 1 d
O53 O 0.5491(5) -0.05034(14) 0.39553(20) Uani 0.0330(17) 4 1 d
O54 O 0.8837(5) -0.85730(13) 0.0537(2) Uani 0.0314(16) 4 1 d
loop_
_atom_site_aniso_label
_atom_site_aniso_type_symbol
_atom_site_aniso_U_11
_atom_site_aniso_U_22
_atom_site_aniso_U_33
_atom_site_aniso_U_12
_atom_site_aniso_U_13
_atom_site_aniso_U_23
Ba1 Ba 0.025(4) 0.0089(13) 0.012(2) -0.0008(12) 0.0028(16) -0.0007(14)
Ba2 Ba 0.026(4) 0.0122(14) 0.013(2) 0.0003(13) 0.0028(17) 0.0019(13)
Ba3 Ba 0.022(4) 0.0136(17) 0.010(2) -0.0007(13) 0.0033(17) 0.0058(13)
Ba4 Ba 0.017(4) 0.0126(14) 0.020(2) -0.0016(14) -0.0048(19) -0.0011(13)
Ba5 Ba 0.015(4) 0.0080(12) 0.018(2) 0.0005(13) -0.0010(17) 0.0015(13)
Ba6 Ba 0.026(4) 0.0158(15) 0.015(2) 0.0006(15) -0.0060(19) -0.0017(14)
Ba7 Ba 0.024(4) 0.0127(14) 0.013(2) 0.0012(13) 0.0023(17) -0.0035(15)
Ba8 Ba 0.018(3) 0.0093(12) 0.021(2) -0.0019(14) 0.002(2) -0.0014(12)
Ba9 Ba 0.015(4) 0.0102(13) 0.013(2) -0.0006(13) -0.0067(16) 0.0007(12)
Ba10 Ba 0.025(3) 0.0106(12) 0.0106(18) 0.0044(15) 0.0018(19) 0.0013(11)
Ba11 Ba 0.024(4) 0.0133(16) 0.011(2) -0.0046(14) 0.0010(18) -0.0011(12)
Ba12 Ba 0.029(4) 0.0142(15) 0.010(2) 0.0031(13) -0.0005(17) 0.0034(14)
Ba13 Ba 0.032(4) 0.0114(12) 0.019(2) -0.0047(16) 0.003(2) 0.0006(12)
Ba14 Ba 0.029(4) 0.0164(12) 0.016(2) -0.0015(14) 0.0005(18) 0.0031(15)
Ba15 Ba 0.022(3) 0.0067(12) 0.016(2) 0.0018(13) -0.0019(19) 0.0000(11)
Ba16 Ba 0.020(4) 0.0156(16) 0.011(2) 0.0044(14) 0.0044(18) -0.0017(13)
Ba17 Ba 0.018(3) 0.0117(12) 0.017(2) -0.0014(14) -0.0074(19) 0.0004(12)
Ba18 Ba 0.041(4) 0.0121(14) 0.015(2) 0.0016(14) -0.0008(19) -0.0026(13)
Ba19 Ba 0.030(4) 0.0156(12) 0.015(2) 0.0002(15) -0.0009(19) 0.0006(12)
Ba20 Ba 0.017(3) 0.0127(12) 0.020(2) 0.0008(14) 0.0003(19) -0.0004(11)
Ba21 Ba 0.025(4) 0.0128(13) 0.020(2) -0.0003(13) -0.0007(19) 0.0000(12)
Ba22 Ba 0.023(4) 0.0178(13) 0.020(2) 0.0009(15) 0.0006(18) 0.0011(14)
Ba23 Ba 0.018(4) 0.0154(15) 0.016(2) -0.0029(13) -0.0015(17) 0.0008(14)
Ba24 Ba 0.023(3) 0.0113(11) 0.020(2) -0.0030(13) 0.006(2) -0.0006(13)
Nb1 Nb 0.007(2) 0.0139(10) 0.0116(15) -0.0010(8) 0.0005(11) -0.0002(10)
Nb2 Nb 0.013(2) 0.0135(10) 0.0100(14) -0.0011(9) 0.0007(12) -0.0021(10)
Nb3 Nb 0.020(3) 0.0122(10) 0.0141(17) 0.0000(10) 0.0061(14) 0.0004(7)
Nb4 Nb 0.015(2) 0.0115(9) 0.0130(14) 0.0008(10) -0.0005(11) -0.0007(10)
Nb5 Nb 0.026(3) 0.0134(10) 0.0070(16) -0.0017(10) -0.0006(12) -0.0013(8)
Nb6 Nb 0.013(2) 0.0100(9) 0.0132(14) -0.0009(9) -0.0014(11) -0.0015(9)
Nb7 Nb 0.031(3) 0.0101(10) 0.0143(17) -0.0004(9) -0.0012(15) -0.0009(8)
Nb8 Nb 0.015(2) 0.0150(10) 0.0117(14) 0.0008(10) -0.0055(11) 0.0009(10)
Nb9 Nb 0.019(3) 0.0098(8) 0.0231(19) 0.0005(9) 0.0009(13) 0.0008(10)
Nb10 Nb 0.017(2) 0.0136(10) 0.0119(15) -0.0026(9) -0.0006(12) 0.0019(11)
Nb11 Nb 0.015(2) 0.0121(9) 0.0114(14) 0.0007(10) -0.0027(11) -0.0011(10)
Nb12 Nb 0.022(3) 0.0102(9) 0.0152(16) -0.0023(9) -0.0020(13) 0.0007(11)
O1 O 0.013(3) 0.0123(12) 0.024(2) -0.0041(12) 0.0060(19) 0.0044(11)
O2 O 0.026(4) 0.0135(14) 0.022(2) -0.0023(13) -0.0050(19) 0.0017(13)
O3 O 0.013(3) 0.0116(12) 0.031(2) 0.0012(12) -0.004(2) 0.0005(12)
O4 O 0.014(3) 0.0240(14) 0.023(2) 0.0037(15) -0.0053(19) 0.0029(13)
O5 O 0.043(4) 0.0123(12) 0.037(2) 0.0035(16) 0.011(2) -0.0047(13)
O6 O 0.029(4) 0.0111(12) 0.041(3) -0.0024(14) -0.010(2) -0.0054(12)
O7 O 0.015(3) 0.0224(14) 0.025(2) -0.0011(14) 0.0069(19) 0.0058(13)
O8 O 0.032(4) 0.0110(12) 0.018(2) -0.0008(14) 0.0015(17) -0.0014(12)
O9 O 0.027(3) 0.0133(11) 0.0184(19) -0.0016(14) 0.0015(18) 0.0017(12)
O10 O 0.026(3) 0.0133(11) 0.023(2) 0.0016(14) -0.0086(18) -0.0042(12)
O11 O 0.043(5) 0.0152(15) 0.012(2) 0.0024(13) 0.0001(16) -0.0016(13)
O12 O 0.044(5) 0.0179(16) 0.017(2) 0.0032(14) 0.0075(17) 0.0026(14)
O13 O 0.029(4) 0.0163(16) 0.019(2) 0.0012(13) -0.0006(16) -0.0012(13)
O14 O 0.024(3) 0.0122(11) 0.025(2) -0.0003(14) -0.0080(18) 0.0029(11)
O15 O 0.027(4) 0.0184(13) 0.024(2) -0.0033(15) 0.0027(19) -0.0020(12)
O16 O 0.034(4) 0.0120(13) 0.0067(19) 0.0022(12) 0.0022(15) 0.0001(11)
O17 O 0.025(4) 0.0226(15) 0.018(2) 0.0016(15) -0.0067(17) -0.0081(13)
O18 O 0.024(3) 0.0156(13) 0.0128(18) -0.0007(13) -0.0039(15) -0.0027(12)
O19 O 0.023(3) 0.0135(12) 0.031(2) -0.0040(14) 0.005(2) 0.0005(12)
O20 O 0.062(5) 0.0346(19) 0.021(2) 0.021(2) -0.006(2) -0.0147(16)
O21 O 0.039(4) 0.0203(16) 0.017(2) -0.0037(16) 0.0029(18) 0.0021(13)
O22 O 0.022(3) 0.0170(13) 0.030(2) -0.0039(15) -0.0059(19) -0.0048(13)
O23 O 0.039(4) 0.0200(14) 0.027(2) -0.0103(16) -0.009(2) 0.0043(12)
O24 O 0.021(3) 0.0131(12) 0.024(2) 0.0005(14) -0.0058(18) -0.0039(11)
O25 O 0.026(4) 0.0214(13) 0.022(2) 0.0033(14) 0.0039(18) 0.0028(12)
O26 O 0.022(3) 0.0204(13) 0.032(2) 0.0030(15) 0.010(2) -0.0044(12)
O27 O 0.015(3) 0.0171(13) 0.0210(19) 0.0014(14) -0.0060(16) -0.0031(12)
O28 O 0.031(4) 0.0192(12) 0.0158(18) 0.0001(14) -0.0034(18) -0.0003(11)
O29 O 0.033(4) 0.0169(11) 0.0194(19) 0.0009(15) 0.0024(18) 0.0020(11)
O30 O 0.016(3) 0.0158(13) 0.0188(19) -0.0033(13) 0.0081(17) -0.0001(11)
O31 O 0.034(4) 0.0137(13) 0.020(2) 0.0007(14) -0.0006(18) 0.0004(12)
O32 O 0.026(4) 0.0186(13) 0.026(2) 0.0030(15) 0.0030(19) -0.0014(13)
O33 O 0.037(4) 0.0200(14) 0.037(2) 0.0064(17) -0.018(2) -0.0034(15)
O34 O 0.017(4) 0.0342(15) 0.022(2) 0.0011(17) -0.0032(18) 0.0077(14)
O35 O 0.017(3) 0.0206(13) 0.027(2) -0.0015(15) -0.0046(18) -0.0009(13)
O36 O 0.040(4) 0.0324(17) 0.011(2) -0.0022(18) 0.002(2) -0.0001(14)
O37 O 0.039(4) 0.0223(14) 0.0154(19) 0.0034(15) -0.0047(19) 0.0002(11)
O38 O 0.041(4) 0.0203(14) 0.037(2) -0.0092(16) 0.020(2) -0.0052(14)
O39 O 0.031(4) 0.0326(16) 0.018(2) 0.0096(16) 0.0007(19) -0.0037(12)
O40 O 0.024(3) 0.0152(12) 0.022(2) 0.0039(14) 0.0057(18) 0.0001(13)
O41 O 0.057(4) 0.0119(12) 0.033(2) 0.0023(16) -0.004(2) -0.0039(12)
O42 O 0.038(4) 0.0216(15) 0.049(3) -0.0038(18) 0.019(3) 0.0024(16)
O43 O 0.024(3) 0.0242(13) 0.022(2) -0.0034(15) -0.0068(18) 0.0032(12)
O44 O 0.029(4) 0.0363(17) 0.023(2) 0.0076(18) -0.003(2) 0.0003(14)
O45 O 0.043(4) 0.0124(11) 0.026(2) 0.0032(15) 0.007(2) 0.0029(11)
O46 O 0.033(4) 0.0274(16) 0.026(2) 0.0164(18) 0.016(2) 0.0113(15)
O47 O 0.050(4) 0.0212(14) 0.025(2) -0.0095(18) 0.006(2) 0.0044(12)
O48 O 0.048(4) 0.0250(14) 0.015(2) 0.0020(17) -0.004(2) 0.0034(13)
O49 O 0.032(4) 0.0198(14) 0.027(2) 0.0047(15) 0.0001(19) -0.0094(13)
O50 O 0.052(5) 0.044(2) 0.032(3) -0.029(2) 0.017(3) -0.0131(17)
O51 O 0.044(4) 0.0149(13) 0.043(3) -0.0072(15) 0.014(2) 0.0018(15)
O52 O 0.057(5) 0.046(2) 0.028(2) -0.029(2) -0.013(3) 0.0100(17)
O53 O 0.051(4) 0.0308(16) 0.017(2) 0.011(2) 0.001(2) -0.0072(13)
O54 O 0.029(4) 0.0199(14) 0.045(3) 0.0009(16) -0.012(2) 0.0028(14)
loop_
_atom_type_symbol
_atom_type_scat_length_neutron
_atom_type_scat_source
Ba 5.070 International_Tables_Vol_C
Nb 7.054 International_Tables_Vol_C
O 5.803 International_Tables_Vol_C
loop_
_geom_bond_atom_site_label_1
_geom_bond_atom_site_label_2
_geom_bond_site_symmetry_2
_geom_bond_distance
Ba1 Nb8 4_655 3.495(13)
Ba1 O2 . 2.765(10)
Ba1 O5 . 3.302(14)
Ba1 O6 1_655 2.981(14)
Ba1 O15 4_655 3.058(14)
Ba1 O21 4_654 3.052(17)
Ba1 O22 4_655 3.040(12)
Ba1 O27 4_654 2.856(12)
Ba1 O30 4_654 2.692(13)
Ba1 O31 4_654 2.869(15)
Ba1 O45 1_655 2.814(10)
Ba2 Nb1 . 3.463(11)
Ba2 Nb6 4_655 3.485(15)
Ba2 O2 . 2.695(12)
Ba2 O4 1_655 2.957(16)
Ba2 O7 . 3.187(15)
Ba2 O17 4_654 3.021(18)
Ba2 O20 4_654 2.87(2)
Ba2 O27 4_654 2.697(15)
Ba2 O30 4_654 2.870(14)
Ba2 O33 4_655 3.107(16)
Ba2 O38 4_655 3.464(19)
Ba2 O53 3_545 3.151(15)
Ba3 O9 . 3.333(12)
Ba3 O10 . 3.127(13)
Ba3 O13 . 2.815(11)
Ba3 O15 . 2.757(14)
Ba3 O16 . 2.936(16)
Ba3 O18 . 3.135(16)
Ba3 O22 . 2.892(12)
Ba3 O27 1_554 2.842(14)
Ba3 O30 1_554 2.903(14)
Ba3 O33 . 2.911(13)
Ba3 O38 . 3.356(16)
Ba4 O1 . 2.926(12)
Ba4 O6 . 3.207(16)
Ba4 O10 . 2.745(14)
Ba4 O12 1_455 2.924(17)
Ba4 O16 . 2.852(11)
Ba4 O22 . 3.017(14)
Ba4 O26 . 2.747(16)
Ba4 O32 . 2.972(15)
Ba4 O46 . 3.465(18)
Ba4 O47 3_445 2.938(14)
Ba5 Nb2 . 3.483(13)
Ba5 O3 . 2.826(13)
Ba5 O5 . 2.932(16)
Ba5 O9 . 2.739(14)
Ba5 O12 . 3.039(18)
Ba5 O15 . 2.878(15)
Ba5 O18 . 2.956(12)
Ba5 O35 . 3.029(15)
Ba5 O46 . 2.895(18)
Ba5 O49 . 2.637(12)
Ba6 O3 . 2.792(12)
Ba6 O7 . 2.877(14)
Ba6 O9 . 3.180(12)
Ba6 O11 . 3.035(16)
Ba6 O13 . 2.991(16)
Ba6 O14 . 3.148(13)
Ba6 O18 . 2.723(11)
Ba6 O38 . 2.827(17)
Ba6 O52 3_545 3.122(14)
Ba6 O54 . 3.419(15)
Ba7 Nb12 . 3.475(10)
Ba7 O8 . 2.864(10)
Ba7 O14 . 2.893(12)
Ba7 O17 4_554 3.009(16)
Ba7 O19 . 3.078(13)
Ba7 O20 4_654 3.459(18)
Ba7 O24 4_554 2.655(12)
Ba7 O40 4_654 2.588(13)
Ba7 O42 4_555 3.022(14)
Ba7 O51 . 2.836(11)
Ba7 O54 4_655 2.866(15)
Ba8 O12 . 2.626(13)
Ba8 O29 2_744 2.649(14)
Ba8 O32 1_655 2.777(16)
Ba8 O34 3_545 2.748(15)
Ba8 O35 . 2.591(13)
Ba8 O49 . 2.92(2)
Ba8 O50 2_644 2.873(18)
Ba9 O1 . 2.750(14)
Ba9 O4 . 3.049(16)
Ba9 O10 . 3.031(14)
Ba9 O11 1_455 3.006(18)
Ba9 O13 . 3.111(18)
Ba9 O16 . 2.801(12)
Ba9 O19 . 2.951(15)
Ba9 O33 . 3.095(16)
Ba9 O41 . 2.611(12)
Ba9 O42 . 3.045(16)
Ba10 O7 . 2.663(17)
Ba10 O14 . 2.623(13)
Ba10 O20 4_654 2.666(16)
Ba10 O28 3_545 2.602(16)
Ba10 O43 3_545 2.917(17)
Ba10 O51 . 2.85(2)
Ba10 O52 3_545 2.676(17)
Ba11 O2 . 2.728(17)
Ba11 O3 . 3.045(14)
Ba11 O5 . 2.845(14)
Ba11 O7 . 3.150(13)
Ba11 O8 . 3.394(17)
Ba11 O9 . 3.068(15)
Ba11 O14 . 2.782(14)
Ba11 O20 4_654 3.277(14)
Ba11 O27 4_654 3.074(15)
Ba11 O31 4_654 2.762(13)
Ba11 O40 4_654 3.023(15)
Ba12 O1 1_655 2.878(13)
Ba12 O3 . 2.840(13)
Ba12 O11 . 2.879(11)
Ba12 O12 . 2.918(11)
Ba12 O16 1_655 3.120(16)
Ba12 O18 . 2.948(16)
Ba12 O24 1_654 3.096(13)
Ba12 O32 1_655 3.268(13)
Ba12 O35 . 2.882(13)
Ba12 O40 1_554 3.183(14)
Ba12 O42 1_655 2.867(13)
Ba12 O54 . 3.103(14)
Ba13 O11 1_455 2.645(13)
Ba13 O36 4_544 2.921(19)
Ba13 O37 1_545 2.604(16)
Ba13 O39 3_445 2.63(2)
Ba13 O41 . 3.052(19)
Ba13 O42 . 2.430(14)
Ba13 O54 1_455 2.702(18)
Ba14 Nb1 . 3.412(8)
Ba14 O4 1_655 2.972(13)
Ba14 O7 . 2.841(13)
Ba14 O11 . 2.919(11)
Ba14 O28 3_545 2.505(18)
Ba14 O39 3_545 2.794(17)
Ba14 O41 1_655 2.789(19)
Ba14 O52 1_645 3.295(15)
Ba14 O53 3_545 2.656(16)
Ba15 O4 . 2.623(17)
Ba15 O17 4_554 2.683(13)
Ba15 O19 . 2.628(13)
Ba15 O28 1_545 2.695(14)
Ba15 O41 . 3.051(16)
Ba15 O43 1_545 2.929(15)
Ba15 O51 . 3.24(2)
Ba15 O53 3_445 2.89(2)
Ba16 O1 . 3.010(14)
Ba16 O2 1_455 2.950(16)
Ba16 O4 . 3.085(13)
Ba16 O6 . 2.749(15)
Ba16 O8 . 3.083(17)
Ba16 O10 . 3.228(15)
Ba16 O17 4_554 3.045(12)
Ba16 O19 . 2.805(13)
Ba16 O21 4_554 2.952(13)
Ba16 O24 4_554 3.185(14)
Ba16 O26 . 3.398(14)
Ba16 O30 4_554 2.914(14)
Ba17 O15 . 2.588(14)
Ba17 O22 . 2.665(14)
Ba17 O29 4_654 2.661(13)
Ba17 O34 . 2.964(13)
Ba17 O45 4_554 2.980(15)
Ba17 O46 . 2.605(14)
Ba17 O47 3_445 2.88(2)
Ba17 O49 . 2.962(19)
Ba18 O13 . 2.673(12)
Ba18 O33 . 2.753(15)
Ba18 O36 2_644 2.770(18)
Ba18 O37 3_545 2.692(17)
Ba18 O38 . 2.661(19)
Ba18 O39 1_545 2.967(16)
Ba18 O52 3_545 2.838(19)
Ba19 Nb11 . 3.389(10)
Ba19 O20 1_554 3.054(14)
Ba19 O36 4_644 2.77(3)
Ba19 O37 3_545 2.488(17)
Ba19 O38 . 2.965(17)
Ba19 O39 3_545 2.964(18)
Ba19 O43 2_644 2.565(18)
Ba19 O54 . 2.873(15)
Ba20 O6 . 2.434(14)
Ba20 O21 4_554 2.693(13)
Ba20 O25 . 2.672(17)
Ba20 O26 . 2.674(16)
Ba20 O44 3_445 2.676(16)
Ba20 O45 . 3.015(17)
Ba20 O48 3_445 2.882(13)
Ba21 O5 . 2.731(15)
Ba21 O23 . 2.753(18)
Ba21 O25 3_545 2.83(2)
Ba21 O31 4_654 2.631(12)
Ba21 O44 . 2.978(14)
Ba21 O48 . 2.846(15)
Ba21 O50 3_545 2.90(2)
Ba22 Nb4 . 3.427(11)
Ba22 O21 1_554 2.984(14)
Ba22 O22 . 3.053(14)
Ba22 O29 2_644 2.396(19)
Ba22 O32 . 2.867(15)
Ba22 O44 2_644 2.864(18)
Ba22 O45 4_554 2.94(2)
Ba22 O47 3_445 2.716(18)
Ba22 O50 4_554 3.351(18)
Ba23 Nb4 4_555 3.416(16)
Ba23 Nb8 4_655 3.454(16)
Ba23 O8 . 2.695(13)
Ba23 O21 4_554 3.12(2)
Ba23 O23 . 2.776(16)
Ba23 O24 4_554 2.669(15)
Ba23 O31 4_654 3.164(19)
Ba23 O32 4_555 2.908(17)
Ba23 O35 4_655 2.815(16)
Ba23 O40 4_654 2.847(15)
Ba23 O50 3_545 3.243(16)
Ba24 Nb10 . 3.363(10)
Ba24 O23 . 2.845(15)
Ba24 O25 3_545 2.375(19)
Ba24 O26 . 2.728(15)
Ba24 O34 . 2.721(16)
Ba24 O44 3_445 2.995(16)
Ba24 O46 . 2.899(14)
Ba24 O47 3_445 3.471(19)
Ba24 O48 3_445 2.70(2)
Nb1 Nb2 . 2.977(5)
Nb1 O1 1_655 2.145(10)
Nb1 O2 . 2.088(9)
Nb1 O3 . 2.160(10)
Nb1 O4 1_655 1.911(13)
Nb1 O7 . 1.959(12)
Nb1 O11 . 1.964(10)
Nb2 O1 1_655 2.188(10)
Nb2 O2 . 2.242(9)
Nb2 O3 . 2.180(10)
Nb2 O5 . 1.878(14)
Nb2 O6 1_655 1.874(15)
Nb2 O12 . 1.922(11)
Nb3 O34 . 1.938(16)
Nb3 O47 . 1.819(15)
Nb3 O48 . 1.754(14)
Nb3 O49 . 1.847(11)
Nb4 Nb6 . 2.972(7)
Nb4 O16 . 2.139(10)
Nb4 O21 1_554 1.886(12)
Nb4 O22 . 1.936(12)
Nb4 O24 1_554 2.074(11)
Nb4 O30 1_554 2.123(12)
Nb4 O32 . 1.891(14)
Nb5 O28 . 1.917(14)
Nb5 O37 . 2.061(14)
Nb5 O39 . 1.956(18)
Nb5 O41 1_565 1.856(10)
Nb5 O52 . 1.954(15)
Nb6 O16 . 2.198(10)
Nb6 O17 1_554 1.859(12)
Nb6 O24 1_554 2.235(11)
Nb6 O30 1_554 2.048(12)
Nb6 O33 . 1.876(14)
Nb6 O42 . 1.909(14)
Nb7 O36 . 1.965(17)
Nb7 O43 . 1.94(2)
Nb7 O51 1_565 1.697(12)
Nb7 O53 . 1.784(17)
Nb8 Nb11 . 2.975(7)
Nb8 O15 . 1.922(14)
Nb8 O18 . 2.176(10)
Nb8 O27 1_554 2.182(12)
Nb8 O31 1_554 1.852(11)
Nb8 O35 . 1.873(13)
Nb8 O40 1_554 2.090(12)
Nb9 O25 . 1.819(16)
Nb9 O29 1_455 2.131(14)
Nb9 O44 1_455 1.793(16)
Nb9 O45 . 1.960(10)
Nb9 O50 . 1.958(17)
Nb10 Nb12 . 2.982(7)
Nb10 O8 . 2.077(9)
Nb10 O9 . 2.148(11)
Nb10 O10 . 2.159(11)
Nb10 O23 . 1.843(14)
Nb10 O26 . 1.948(16)
Nb10 O46 . 1.913(12)
Nb11 O18 . 2.153(10)
Nb11 O20 1_554 1.883(13)
Nb11 O27 1_554 2.054(13)
Nb11 O38 . 1.870(17)
Nb11 O40 1_554 2.192(12)
Nb11 O54 . 1.936(16)
Nb12 O8 . 2.117(10)
Nb12 O9 . 2.124(12)
Nb12 O10 . 2.174(12)
Nb12 O13 . 1.906(11)
Nb12 O14 . 1.878(13)
Nb12 O19 . 1.870(13)
O1 O2 1_455 2.768(13)
O1 O3 1_455 2.668(16)
O1 O4 . 2.957(12)
O1 O6 . 2.864(12)
O1 O10 . 3.425(16)
O1 O11 1_455 2.902(12)
O1 O12 1_455 2.813(12)
O1 O16 . 3.386(13)
O2 O3 . 2.742(13)
O2 O4 1_655 2.903(13)
O2 O5 . 2.977(13)
O2 O6 1_655 2.838(14)
O2 O7 . 2.981(12)
O2 O27 4_654 3.406(13)
O2 O30 4_654 3.479(14)
O3 O5 . 2.882(12)
O3 O7 . 2.990(11)
O3 O9 . 3.377(16)
O3 O11 . 2.889(12)
O3 O12 . 2.884(12)
O3 O18 . 3.222(13)
O4 O7 1_455 2.893(18)
O4 O11 1_455 2.893(15)
O4 O17 4_554 3.217(16)
O4 O19 . 3.123(18)
O4 O41 . 3.145(15)
O4 O53 3_445 3.092(16)
O5 O6 1_655 2.93(2)
O5 O12 . 2.942(16)
O5 O31 4_654 3.164(15)
O6 O12 1_455 2.986(16)
O6 O21 4_554 3.131(17)
O6 O26 . 3.12(2)
O7 O11 . 2.822(14)
O7 O14 . 3.225(16)
O7 O20 4_654 3.229(16)
O8 O9 . 2.614(14)
O8 O10 . 2.640(13)
O8 O14 . 2.806(12)
O8 O19 . 2.767(12)
O8 O23 . 2.782(13)
O8 O24 4_554 3.350(13)
O8 O26 . 3.115(14)
O8 O40 4_654 3.496(14)
O9 O10 . 2.673(17)
O9 O13 . 2.837(12)
O9 O14 . 2.750(10)
O9 O23 . 3.139(12)
O9 O46 . 2.879(13)
O10 O13 . 2.823(12)
O10 O16 . 3.305(13)
O10 O19 . 2.804(11)
O10 O26 . 2.806(12)
O10 O46 . 3.070(14)
O11 O41 1_655 3.232(17)
O11 O42 1_655 3.147(15)
O11 O54 . 3.276(15)
O12 O32 1_655 3.183(15)
O12 O35 . 3.144(14)
O13 O14 . 2.985(13)
O13 O19 . 2.953(14)
O13 O33 . 3.141(14)
O13 O38 . 3.182(18)
O13 O52 3_545 3.388(15)
O14 O19 . 2.986(16)
O14 O20 4_654 3.351(16)
O14 O52 3_545 3.443(13)
O15 O18 . 2.871(13)
O15 O22 . 3.181(18)
O15 O27 1_554 2.893(12)
O15 O31 1_554 2.857(15)
O15 O35 . 2.908(18)
O15 O46 . 3.242(16)
O15 O49 . 3.285(15)
O16 O22 . 2.827(11)
O16 O24 1_554 2.676(13)
O16 O30 1_554 2.633(13)
O16 O32 . 2.969(12)
O16 O33 . 2.884(13)
O16 O42 . 2.819(13)
O17 O19 4_555 3.158(14)
O17 O24 . 2.927(12)
O17 O30 . 2.815(13)
O17 O33 1_556 2.939(15)
O17 O42 1_556 2.891(15)
O18 O27 1_554 2.632(14)
O18 O35 . 2.872(12)
O18 O38 . 2.831(15)
O18 O40 1_554 2.698(13)
O18 O54 . 2.969(14)
O20 O27 . 2.791(14)
O20 O38 1_556 2.820(19)
O20 O40 . 3.036(15)
O20 O43 2_645 3.454(14)
O20 O54 1_556 2.871(19)
O21 O22 1_556 2.856(15)
O21 O24 . 2.916(13)
O21 O26 4_555 3.468(16)
O21 O30 . 2.869(13)
O21 O32 1_556 2.831(16)
O21 O45 4_555 3.303(18)
O22 O30 1_554 2.880(11)
O22 O32 . 2.863(18)
O22 O45 4_554 3.266(13)
O22 O46 . 3.491(15)
O22 O47 3_445 3.210(14)
O23 O25 3_545 3.308(13)
O23 O26 . 2.77(2)
O23 O31 4_654 3.340(17)
O23 O46 . 2.777(16)
O24 O30 . 2.661(17)
O24 O32 1_556 2.864(11)
O24 O40 1_455 3.382(17)
O24 O42 1_556 2.748(11)
O25 O44 1_455 2.69(2)
O25 O45 . 2.724(14)
O25 O48 3_445 3.15(2)
O25 O50 . 2.688(18)
O26 O46 . 2.748(18)
O27 O30 . 3.403(18)
O27 O31 . 2.881(12)
O27 O38 1_556 2.946(15)
O27 O40 . 2.674(18)
O28 O39 . 2.791(18)
O28 O41 1_565 2.772(16)
O28 O43 . 3.179(17)
O28 O52 . 2.68(2)
O29 O34 4_655 3.137(15)
O29 O44 . 2.755(15)
O29 O45 1_655 2.804(15)
O29 O50 1_655 2.77(2)
O30 O33 1_556 2.856(12)
O31 O35 1_556 2.920(14)
O31 O40 . 2.831(12)
O31 O50 2_645 3.370(16)
O32 O35 1_455 3.176(18)
O33 O38 . 3.35(2)
O33 O42 . 2.970(19)
O34 O47 . 3.08(2)
O34 O48 . 3.028(19)
O34 O49 . 2.872(16)
O35 O40 1_554 2.809(11)
O35 O49 . 3.461(15)
O35 O50 2_644 3.208(14)
O36 O37 4_555 2.99(2)
O36 O39 2_655 3.17(2)
O36 O43 . 3.09(3)
O36 O51 1_565 3.01(2)
O36 O53 . 2.958(19)
O37 O38 3_445 3.496(14)
O37 O39 . 2.85(2)
O37 O41 1_565 2.746(15)
O37 O52 . 2.749(16)
O38 O54 . 2.90(2)
O39 O41 1_565 3.340(19)
O39 O52 . 3.41(2)
O40 O54 1_556 2.764(12)
O41 O52 1_545 3.226(13)
O42 O54 1_455 2.97(2)
O43 O51 1_565 2.94(2)
O43 O53 . 3.11(3)
O44 O45 1_655 3.251(17)
O44 O48 . 3.233(16)
O44 O50 1_655 3.37(2)
O45 O50 . 3.231(15)
O46 O49 . 3.387(18)
O47 O48 . 2.969(16)
O47 O49 . 3.060(15)
O48 O49 . 2.978(17)
O51 O53 1_545 2.955(16)
loop_
_refln_index_h
_refln_index_k
_refln_index_l
_refln_F_squared_calc
_refln_F_squared_meas
_refln_F_squared_sigma
_refln_observed_status
_jana_refln_twin_domain
2 0 0 4. 49. 12. o 1
-2 0 0 4. 23. 14. < 1
6 0 0 10. 173. 33. o 1
-4 0 12 1104880. 1162860. 1809. o -3
4 0 12 1104880. 1162860. 1809. o -2
8 0 0 1104880. 1162860. 1809. o 1
1 1 0 2. 16. 10. < 1
-1 1 3 248. 169. 19. o -3
1 1 3 248. 169. 19. o -2
2 1 0 248. 169. 19. o 1
1 1 -3 248. 171. 10. o -3
-1 1 -3 248. 171. 10. o -2
-2 1 0 248. 171. 10. o 1
3 1 0 42. 35. 19. < 1
-2 1 6 72. 43. 64. < -3
2 1 6 72. 43. 64. < -2
4 1 0 72. 43. 64. < 1
5 1 0 56. 101. 78. < 1
-3 1 9 15583. 15103. 222. o -3
3 1 9 15583. 15103. 222. o -2
6 1 0 15583. 15103. 222. o 1
7 1 0 37. 179. 49. o 1
-4 1 12 611. 476. 60. o -3
4 1 12 611. 476. 60. o -2
8 1 0 611. 476. 60. o 1
9 1 0 162. -19. 111. < 1
0 2 0 31988. 32698. 76. o -3
0 2 0 31988. 32698. 76. o -2
0 2 0 31988. 32698. 76. o 1
-1 2 3 611. 482. 17. o -3
1 2 3 611. 482. 17. o -2
2 2 0 611. 482. 17. o 1
3 2 0 658. 492. 16. o 1
-2 2 6 1157. 1321. 51. o -3
2 2 6 1157. 1321. 51. o -2
4 2 0 1157. 1321. 51. o 1
5 2 0 6521. 6088. 117. o 1
-4 2 12 217555. 238561. 894. o -3
4 2 12 217555. 238561. 894. o -2
8 2 0 217555. 238561. 894. o 1
9 2 0 1162. 1384. 84. o 1
-5 2 15 545. 591. 124. o -3
5 2 15 545. 591. 124. o -2
10 2 0 545. 591. 124. o 1
1 3 0 91. 74. 8. o 1
-1 3 3 37. 27. 17. < -3
1 3 3 37. 27. 17. < -2
2 3 0 37. 27. 17. < 1
1 3 -3 37. 64. 8. o -3
-1 3 -3 37. 64. 8. o -2
-2 3 0 37. 64. 8. o 1
3 3 0 20. 47. 16. o 1
-4 3 12 158. 290. 52. o -3
4 3 12 158. 290. 52. o -2
8 3 0 158. 290. 52. o 1
9 3 0 248. 525. 111. o 1
-5 3 15 1246. 1953. 93. o -3
5 3 15 1246. 1953. 93. o -2
10 3 0 1246. 1953. 93. o 1
0 4 0 37761. 33926. 93. o -3
0 4 0 37761. 33926. 93. o -2
0 4 0 37761. 33926. 93. o 1
1 4 0 1639. 1333. 16. o 1
-1 4 3 410. 389. 19. o -3
1 4 3 410. 389. 19. o -2
2 4 0 410. 389. 19. o 1
1 4 -3 410. 435. 14. o -3
-1 4 -3 410. 435. 14. o -2
-2 4 0 410. 435. 14. o 1
3 4 0 1. 8. 17. < 1
9 4 0 117. 270. 107. < 1
-5 4 15 797. 711. 68. o -3
5 4 15 797. 711. 68. o -2
10 4 0 797. 711. 68. o 1
11 4 0 727. 635. 70. o 1
1 5 0 281. 253. 12. o 1
-1 5 3 30. 56. 27. < -3
1 5 3 30. 56. 27. < -2
2 5 0 30. 56. 27. < 1
1 5 -3 30. 70. 17. o -3
-1 5 -3 30. 70. 17. o -2
-2 5 0 30. 70. 17. o 1
3 5 0 645. 589. 19. o 1
-2 5 6 81. 146. 29. o -3
2 5 6 81. 146. 29. o -2
4 5 0 81. 146. 29. o 1
9 5 0 1718. 1879. 107. o 1
-5 5 15 1125. 1652. 86. o -3
5 5 15 1125. 1652. 86. o -2
10 5 0 1125. 1652. 86. o 1
11 5 0 430. 12. 122. < 1
0 6 0 167837. 150297. 222. o -3
0 6 0 167837. 150297. 222. o -2
0 6 0 167837. 150297. 222. o 1
1 6 0 127. 128. 16. o 1
-1 6 3 323. 282. 17. o -3
1 6 3 323. 282. 17. o -2
2 6 0 323. 282. 17. o 1
1 6 -3 323. 278. 19. o -3
-1 6 -3 323. 278. 19. o -2
-2 6 0 323. 278. 19. o 1
3 6 0 636. 602. 21. o 1
-2 6 6 3656. 4337. 130. o -3
2 6 6 3656. 4337. 130. o -2
4 6 0 3656. 4337. 130. o 1
-5 6 15 175. 74. 51. < -3
5 6 15 175. 74. 51. < -2
10 6 0 175. 74. 51. < 1
11 6 0 511. 369. 62. o 1
-6 6 18 23494. 29621. 402. o -3
6 6 18 23494. 29621. 402. o -2
12 6 0 23494. 29621. 402. o 1
1 7 0 37. 41. 21. < 1
-1 7 3 6966. 6156. 74. o -3
1 7 3 6966. 6156. 74. o -2
2 7 0 6966. 6156. 74. o 1
1 7 -3 6966. 6213. 78. o -3
-1 7 -3 6966. 6213. 78. o -2
-2 7 0 6966. 6213. 78. o 1
3 7 0 574. 599. 21. o 1
-2 7 6 160. 130. 25. o -3
2 7 6 160. 130. 25. o -2
4 7 0 160. 130. 25. o 1
-5 7 15 956. 1147. 82. o -3
5 7 15 956. 1147. 82. o -2
10 7 0 956. 1147. 82. o 1
11 7 0 96. 86. 54. < 1
-6 7 18 786. 828. 89. o -3
6 7 18 786. 828. 89. o -2
12 7 0 786. 828. 89. o 1
0 8 0 1146. 1102. 25. o -3
0 8 0 1146. 1102. 25. o -2
0 8 0 1146. 1102. 25. o 1
1 8 0 3595. 3136. 35. o 1
-1 8 3 483. 451. 23. o -3
1 8 3 483. 451. 23. o -2
2 8 0 483. 451. 23. o 1
1 8 -3 483. 532. 25. o -3
-1 8 -3 483. 532. 25. o -2
-2 8 0 483. 532. 25. o 1
3 8 0 339. 387. 33. o 1
-2 8 6 173232. 169717. 410. o -3
2 8 6 173232. 169717. 410. o -2
4 8 0 173232. 169717. 410. o 1
5 8 0 2128. 1496. 70. o 1
11 8 0 144. 208. 126. < 1
-6 8 18 12702. 14281. 288. o -3
6 8 18 12702. 14281. 288. o -2
12 8 0 12702. 14281. 288. o 1
0 9 0 93. 198. 16. o -3
0 9 0 93. 198. 16. o -2
0 9 0 93. 198. 16. o 1
1 9 0 288. 266. 25. o 1
-1 9 3 3959. 3286. 54. o -3
1 9 3 3959. 3286. 54. o -2
2 9 0 3959. 3286. 54. o 1
1 9 -3 3959. 3471. 64. o -3
-1 9 -3 3959. 3471. 64. o -2
-2 9 0 3959. 3471. 64. o 1
3 9 0 1025. 954. 35. o 1
-2 9 6 61. 23. 35. < -3
2 9 6 61. 23. 35. < -2
4 9 0 61. 23. 35. < 1
5 9 0 22. 35. 72. < 1
11 9 0 98. 167. 60. < 1
-6 9 18 326. 389. 136. < -3
6 9 18 326. 389. 136. < -2
12 9 0 326. 389. 136. < 1
13 9 0 380. 134. 120. < 1
0 10 0 211900. 200253. 412. o -3
0 10 0 211900. 200253. 412. o -2
0 10 0 211900. 200253. 412. o 1
1 10 0 28125. 25972. 119. o 1
-1 10 3 163. 274. 49. o -3
1 10 3 163. 274. 49. o -2
2 10 0 163. 274. 49. o 1
1 10 -3 163. 190. 41. o -3
-1 10 -3 163. 190. 41. o -2
-2 10 0 163. 190. 41. o 1
3 10 0 974. 878. 35. o 1
-2 10 6 56390. 57966. 260. o -3
2 10 6 56390. 57966. 260. o -2
4 10 0 56390. 57966. 260. o 1
5 10 0 2239. 1965. 76. o 1
11 10 0 500. 231. 80. < 1
13 10 0 883. 1621. 126. o 1
0 11 0 338. 523. 29. o -3
0 11 0 338. 523. 29. o -2
0 11 0 338. 523. 29. o 1
1 11 0 4205. 3914. 51. o 1
-1 11 3 1958. 1838. 47. o -3
1 11 3 1958. 1838. 47. o -2
2 11 0 1958. 1838. 47. o 1
1 11 -3 1958. 2004. 49. o -3
-1 11 -3 1958. 2004. 49. o -2
-2 11 0 1958. 2004. 49. o 1
3 11 0 81. 140. 41. o 1
-2 11 6 169. 105. 54. < -3
2 11 6 169. 105. 54. < -2
4 11 0 169. 105. 54. < 1
5 11 0 254. 231. 37. o 1
-6 11 18 453. 690. 103. o -3
6 11 18 453. 690. 103. o -2
12 11 0 453. 690. 103. o 1
13 11 0 6. 80. 130. < 1
0 12 0 822046. 755103. 841. o -3
0 12 0 822046. 755103. 841. o -2
0 12 0 822046. 755103. 841. o 1
1 12 0 4261. 4543. 56. o 1
-1 12 3 3304. 3203. 62. o -3
1 12 3 3304. 3203. 62. o -2
2 12 0 3304. 3203. 62. o 1
1 12 -3 3304. 3053. 58. o -3
-1 12 -3 3304. 3053. 58. o -2
-2 12 0 3304. 3053. 58. o 1
3 12 0 927. 904. 31. o 1
-2 12 6 34777. 36608. 218. o -3
2 12 6 34777. 36608. 218. o -2
4 12 0 34777. 36608. 218. o 1
5 12 0 205. -31. 87. < 1
-3 12 9 586. 503. 87. o -3
3 12 9 586. 503. 87. o -2
6 12 0 586. 503. 87. o 1
-6 12 18 12163. 13720. 253. o -3
6 12 18 12163. 13720. 253. o -2
12 12 0 12163. 13720. 253. o 1
13 12 0 655. 733. 152. o 1
1 13 0 2. 29. 39. < 1
-1 13 3 1767. 1595. 74. o -3
1 13 3 1767. 1595. 74. o -2
2 13 0 1767. 1595. 74. o 1
1 13 -3 1767. 1805. 52. o -3
-1 13 -3 1767. 1805. 52. o -2
-2 13 0 1767. 1805. 52. o 1
3 13 0 2258. 2194. 45. o 1
-2 13 6 30. 17. 62. < -3
2 13 6 30. 17. 62. < -2
4 13 0 30. 17. 62. < 1
5 13 0 9. -113. 101. < 1
-3 13 9 12074. 12583. 218. o -3
3 13 9 12074. 12583. 218. o -2
6 13 0 12074. 12583. 218. o 1
-6 13 18 308. 344. 99. o -3
6 13 18 308. 344. 99. o -2
12 13 0 308. 344. 99. o 1
13 13 0 25. 76. 120. < 1
0 14 0 6345. 6537. 101. o -3
0 14 0 6345. 6537. 101. o -2
0 14 0 6345. 6537. 101. o 1
1 14 0 279. 330. 25. o 1
-1 14 3 2244. 2297. 84. o -3
1 14 3 2244. 2297. 84. o -2
2 14 0 2244. 2297. 84. o 1
1 14 -3 2244. 2175. 60. o -3
-1 14 -3 2244. 2175. 60. o -2
-2 14 0 2244. 2175. 60. o 1
3 14 0 302. 206. 49. o 1
-2 14 6 10981. 10917. 136. o -3
2 14 6 10981. 10917. 136. o -2
4 14 0 10981. 10917. 136. o 1
5 14 0 128. 239. 68. o 1
-3 14 9 4646. 4143. 126. o -3
3 14 9 4646. 4143. 126. o -2
6 14 0 4646. 4143. 126. o 1
-6 14 18 18906. 19598. 346. o -3
6 14 18 18906. 19598. 346. o -2
12 14 0 18906. 19598. 346. o 1
13 14 0 428. 834. 134. o 1
0 15 0 63. 138. 37. o -3
0 15 0 63. 138. 37. o -2
0 15 0 63. 138. 37. o 1
1 15 0 556. 647. 31. o 1
-1 15 3 2562. 2213. 91. o -3
1 15 3 2562. 2213. 91. o -2
2 15 0 2562. 2213. 91. o 1
1 15 -3 2562. 2771. 66. o -3
-1 15 -3 2562. 2771. 66. o -2
-2 15 0 2562. 2771. 66. o 1
3 15 0 3004. 2985. 56. o 1
-2 15 6 499. 420. 64. o -3
2 15 6 499. 420. 64. o -2
4 15 0 499. 420. 64. o 1
5 15 0 2035. 2396. 68. o 1
-3 15 9 20871. 24400. 297. o -3
3 15 9 20871. 24400. 297. o -2
6 15 0 20871. 24400. 297. o 1
7 15 0 920. 970. 72. o 1
-6 15 18 310. 552. 152. o -3
6 15 18 310. 552. 152. o -2
12 15 0 310. 552. 152. o 1
13 15 0 2240. 1391. 146. o 1
0 16 0 157282. 156187. 503. o -3
0 16 0 157282. 156187. 503. o -2
0 16 0 157282. 156187. 503. o 1
1 16 0 265. 431. 41. o 1
-1 16 3 387. 255. 109. < -3
1 16 3 387. 255. 109. < -2
2 16 0 387. 255. 109. < 1
1 16 -3 387. 472. 64. o -3
-1 16 -3 387. 472. 64. o -2
-2 16 0 387. 472. 64. o 1
3 16 0 4560. 4977. 80. o 1
-2 16 6 78363. 86165. 424. o -3
2 16 6 78363. 86165. 424. o -2
4 16 0 78363. 86165. 424. o 1
5 16 0 34231. 34701. 280. o 1
-3 16 9 941. 987. 78. o -3
3 16 9 941. 987. 78. o -2
6 16 0 941. 987. 78. o 1
7 16 0 4. 97. 109. < 1
-6 16 18 64806. 66237. 659. o -3
6 16 18 64806. 66237. 659. o -2
12 16 0 64806. 66237. 659. o 1
0 17 0 31. 286. 117. < -3
0 17 0 31. 286. 117. < -2
0 17 0 31. 286. 117. < 1
1 17 0 1069. 1088. 41. o 1
-1 17 3 4136. 4438. 126. o -3
1 17 3 4136. 4438. 126. o -2
2 17 0 4136. 4438. 126. o 1
1 17 -3 4136. 4291. 124. o -3
-1 17 -3 4136. 4291. 124. o -2
-2 17 0 4136. 4291. 124. o 1
3 17 0 967. 995. 39. o 1
-2 17 6 98. 25. 80. < -3
2 17 6 98. 25. 80. < -2
4 17 0 98. 25. 80. < 1
5 17 0 163. 295. 80. o 1
-3 17 9 9304. 8877. 198. o -3
3 17 9 9304. 8877. 198. o -2
6 17 0 9304. 8877. 198. o 1
7 17 0 752. 445. 115. o 1
-6 17 18 520. 692. 152. o -3
6 17 18 520. 692. 152. o -2
12 17 0 520. 692. 152. o 1
13 17 0 5163. 5031. 183. o 1
14 17 0 1079. 806. 115. o 1
1 18 0 1839. 1854. 49. o 1
-1 18 3 5984. 6407. 159. o -3
1 18 3 5984. 6407. 159. o -2
2 18 0 5984. 6407. 159. o 1
1 18 -3 5984. 5748. 120. o -3
-1 18 -3 5984. 5748. 120. o -2
-2 18 0 5984. 5748. 120. o 1
3 18 0 946. 820. 43. o 1
-2 18 6 4339. 4565. 91. o -3
2 18 6 4339. 4565. 91. o -2
4 18 0 4339. 4565. 91. o 1
5 18 0 609. 678. 72. o 1
-3 18 9 1882. 2004. 101. o -3
3 18 9 1882. 2004. 101. o -2
6 18 0 1882. 2004. 101. o 1
7 18 0 629. 346. 128. < 1
-6 18 18 3055. 3197. 163. o -3
6 18 18 3055. 3197. 163. o -2
12 18 0 3055. 3197. 163. o 1
13 18 0 777. 451. 113. o 1
14 18 0 36. 457. 117. o 1
0 19 0 98. 303. 52. o -3
0 19 0 98. 303. 52. o -2
0 19 0 98. 303. 52. o 1
1 19 0 11974. 11786. 120. o 1
-1 19 3 13744. 13832. 229. o -3
1 19 3 13744. 13832. 229. o -2
2 19 0 13744. 13832. 229. o 1
1 19 -3 13744. 12822. 177. o -3
-1 19 -3 13744. 12822. 177. o -2
-2 19 0 13744. 12822. 177. o 1
3 19 0 5012. 5062. 82. o 1
-2 19 6 265. 290. 82. o -3
2 19 6 265. 290. 82. o -2
4 19 0 265. 290. 82. o 1
5 19 0 181. 148. 87. < 1
-3 19 9 7953. 7785. 192. o -3
3 19 9 7953. 7785. 192. o -2
6 19 0 7953. 7785. 192. o 1
7 19 0 8841. 9674. 223. o 1
-4 19 12 369. 299. 117. < -3
4 19 12 369. 299. 117. < -2
8 19 0 369. 299. 117. < 1
-6 19 18 544. 45. 95. < -3
6 19 18 544. 45. 95. < -2
12 19 0 544. 45. 95. < 1
13 19 0 756. 523. 115. o 1
14 19 0 2401. 2268. 150. o 1
0 20 0 91047. 92918. 801. o -3
0 20 0 91047. 92918. 801. o -2
0 20 0 91047. 92918. 801. o 1
1 20 0 14987. 15294. 138. o 1
-1 20 3 7390. 8000. 171. o -3
1 20 3 7390. 8000. 171. o -2
2 20 0 7390. 8000. 171. o 1
1 20 -3 7390. 7524. 144. o -3
-1 20 -3 7390. 7524. 144. o -2
-2 20 0 7390. 7524. 144. o 1
3 20 0 1531. 1351. 47. o 1
-2 20 6 6025. 5548. 113. o -3
2 20 6 6025. 5548. 113. o -2
4 20 0 6025. 5548. 113. o 1
5 20 0 5240. 5435. 111. o 1
-3 20 9 1173. 1045. 78. o -3
3 20 9 1173. 1045. 78. o -2
6 20 0 1173. 1045. 78. o 1
7 20 0 7444. 7608. 194. o 1
-4 20 12 33117. 32342. 665. o -3
4 20 12 33117. 32342. 665. o -2
8 20 0 33117. 32342. 665. o 1
-6 20 18 3692. 3478. 177. o -3
6 20 18 3692. 3478. 177. o -2
12 20 0 3692. 3478. 177. o 1
13 20 0 2874. 2316. 138. o 1
0 21 0 397. 587. 136. o -3
0 21 0 397. 587. 136. o -2
0 21 0 397. 587. 136. o 1
1 21 0 3449. 3521. 66. o 1
-1 21 3 10396. 10709. 212. o -3
1 21 3 10396. 10709. 212. o -2
2 21 0 10396. 10709. 212. o 1
1 21 -3 10396. 10103. 173. o -3
-1 21 -3 10396. 10103. 173. o -2
-2 21 0 10396. 10103. 173. o 1
3 21 0 2054. 2293. 68. o 1
-2 21 6 60. -29. 82. < -3
2 21 6 60. -29. 82. < -2
4 21 0 60. -29. 82. < 1
5 21 0 544. 620. 80. o 1
-3 21 9 1281. 1403. 101. o -3
3 21 9 1281. 1403. 101. o -2
6 21 0 1281. 1403. 101. o 1
7 21 0 2649. 3032. 120. o 1
-4 21 12 438. -89. 136. < -3
4 21 12 438. -89. 136. < -2
8 21 0 438. -89. 136. < 1
-6 21 18 276. 241. 105. < -3
6 21 18 276. 241. 105. < -2
12 21 0 276. 241. 105. < 1
13 21 0 135. 185. 111. < 1
0 22 0 2375. 2396. 107. o -3
0 22 0 2375. 2396. 107. o -2
0 22 0 2375. 2396. 107. o 1
1 22 0 19394. 18724. 188. o 1
-1 22 3 330. 567. 122. o -3
1 22 3 330. 567. 122. o -2
2 22 0 330. 567. 122. o 1
1 22 -3 330. 463. 89. o -3
-1 22 -3 330. 463. 89. o -2
-2 22 0 330. 463. 89. o 1
3 22 0 191. 47. 80. < 1
-2 22 6 9315. 9254. 142. o -3
2 22 6 9315. 9254. 142. o -2
4 22 0 9315. 9254. 142. o 1
5 22 0 20. 321. 84. o 1
-3 22 9 722. 801. 93. o -3
3 22 9 722. 801. 93. o -2
6 22 0 722. 801. 93. o 1
7 22 0 1. 31. 91. < 1
-4 22 12 19433. 22027. 346. o -3
4 22 12 19433. 22027. 346. o -2
8 22 0 19433. 22027. 346. o 1
9 22 0 25166. 25884. 540. o 1
-6 22 18 4110. 2876. 144. o -3
6 22 18 4110. 2876. 144. o -2
12 22 0 4110. 2876. 144. o 1
13 22 0 164. -4. 95. < 1
0 23 0 87. 422. 132. o -3
0 23 0 87. 422. 132. o -2
0 23 0 87. 422. 132. o 1
1 23 0 3512. 3603. 101. o 1
-1 23 3 10666. 11450. 231. o -3
1 23 3 10666. 11450. 231. o -2
2 23 0 10666. 11450. 231. o 1
1 23 -3 10666. 11271. 163. o -3
-1 23 -3 10666. 11271. 163. o -2
-2 23 0 10666. 11271. 163. o 1
3 23 0 2356. 2682. 86. o 1
-2 23 6 85. 62. 86. < -3
2 23 6 85. 62. 86. < -2
4 23 0 85. 62. 86. < 1
5 23 0 5064. 5705. 119. o 1
-3 23 9 6580. 7394. 132. o -3
3 23 9 6580. 7394. 132. o -2
6 23 0 6580. 7394. 132. o 1
7 23 0 60. 99. 103. < 1
-4 23 12 749. 645. 152. o -3
4 23 12 749. 645. 152. o -2
8 23 0 749. 645. 152. o 1
9 23 0 473. 371. 126. < 1
-6 23 18 303. 136. 97. < -3
6 23 18 303. 136. 97. < -2
12 23 0 303. 136. 97. < 1
0 24 0 128242. 132930. 865. o -3
0 24 0 128242. 132930. 865. o -2
0 24 0 128242. 132930. 865. o 1
1 24 0 2071. 1996. 91. o 1
-1 24 3 1331. 970. 93. o -3
1 24 3 1331. 970. 93. o -2
2 24 0 1331. 970. 93. o 1
1 24 -3 1331. 1244. 84. o -3
-1 24 -3 1331. 1244. 84. o -2
-2 24 0 1331. 1244. 84. o 1
3 24 0 2696. 2816. 80. o 1
-2 24 6 28355. 30306. 404. o -3
2 24 6 28355. 30306. 404. o -2
4 24 0 28355. 30306. 404. o 1
5 24 0 109. 155. 95. < 1
-3 24 9 2898. 2388. 107. o -3
3 24 9 2898. 2388. 107. o -2
6 24 0 2898. 2388. 107. o 1
7 24 0 17. 194. 93. < 1
-4 24 12 34608. 39400. 750. o -3
4 24 12 34608. 39400. 750. o -2
8 24 0 34608. 39400. 750. o 1
9 24 0 753. 1117. 122. o 1
-6 24 18 2964. 1774. 128. o -3
6 24 18 2964. 1774. 128. o -2
12 24 0 2964. 1774. 128. o 1
0 25 0 375. 1187. 126. o -3
0 25 0 375. 1187. 126. o -2
0 25 0 375. 1187. 126. o 1
1 25 0 9731. 9839. 154. o 1
-1 25 3 4550. 4334. 152. o -3
1 25 3 4550. 4334. 152. o -2
2 25 0 4550. 4334. 152. o 1
1 25 -3 4550. 5451. 124. o -3
-1 25 -3 4550. 5451. 124. o -2
-2 25 0 4550. 5451. 124. o 1
3 25 0 4238. 5247. 115. o 1
-2 25 6 231. 76. 130. < -3
2 25 6 231. 76. 130. < -2
4 25 0 231. 76. 130. < 1
5 25 0 483. 305. 95. o 1
-3 25 9 8562. 9816. 117. o -3
3 25 9 8562. 9816. 117. o -2
6 25 0 8562. 9816. 117. o 1
7 25 0 2577. 2826. 119. o 1
-4 25 12 152. 80. 128. < -3
4 25 12 152. 80. 128. < -2
8 25 0 152. 80. 128. < 1
9 25 0 430. 451. 111. o 1
0 26 0 2889. 3138. 138. o -3
0 26 0 2889. 3138. 138. o -2
0 26 0 2889. 3138. 138. o 1
1 26 0 226. 268. 76. o 1
-1 26 3 11580. 11411. 253. o -3
1 26 3 11580. 11411. 253. o -2
2 26 0 11580. 11411. 253. o 1
1 26 -3 11580. 11838. 179. o -3
-1 26 -3 11580. 11838. 179. o -2
-2 26 0 11580. 11838. 179. o 1
3 26 0 2402. 3049. 93. o 1
-2 26 6 9443. 9940. 223. o -3
2 26 6 9443. 9940. 223. o -2
4 26 0 9443. 9940. 223. o 1
5 26 0 20. -159. 86. < 1
-3 26 9 9512. 10463. 130. o -3
3 26 9 9512. 10463. 130. o -2
6 26 0 9512. 10463. 130. o 1
7 26 0 546. 233. 97. < 1
-4 26 12 1921. 2851. 144. o -3
4 26 12 1921. 2851. 144. o -2
8 26 0 1921. 2851. 144. o 1
9 26 0 6877. 6516. 187. o 1
0 27 0 1629. 1959. 76. o -3
0 27 0 1629. 1959. 76. o -2
0 27 0 1629. 1959. 76. o 1
1 27 0 521. 562. 66. o 1
-1 27 3 6929. 7363. 165. o -3
1 27 3 6929. 7363. 165. o -2
2 27 0 6929. 7363. 165. o 1
1 27 -3 6929. 6926. 148. o -3
-1 27 -3 6929. 6926. 148. o -2
-2 27 0 6929. 6926. 148. o 1
3 27 0 682. 849. 78. o 1
-2 27 6 309. 196. 70. < -3
2 27 6 309. 196. 70. < -2
4 27 0 309. 196. 70. < 1
5 27 0 3963. 4030. 93. o 1
-3 27 9 7501. 7515. 120. o -3
3 27 9 7501. 7515. 120. o -2
6 27 0 7501. 7515. 120. o 1
7 27 0 6244. 6932. 150. o 1
-4 27 12 1. 39. 80. < -3
4 27 12 1. 39. 80. < -2
8 27 0 1. 39. 80. < 1
9 27 0 1. 120. 95. < 1
-5 27 15 757. 200. 107. < -3
5 27 15 757. 200. 107. < -2
10 27 0 757. 200. 107. < 1
0 28 0 20497. 20325. 222. o -3
0 28 0 20497. 20325. 222. o -2
0 28 0 20497. 20325. 222. o 1
1 28 0 72. 173. 66. < 1
-1 28 3 160. 301. 78. o -3
1 28 3 160. 301. 78. o -2
2 28 0 160. 301. 78. o 1
1 28 -3 160. 276. 70. o -3
-1 28 -3 160. 276. 70. o -2
-2 28 0 160. 276. 70. o 1
3 28 0 1993. 2101. 74. o 1
-2 28 6 7683. 8931. 126. o -3
2 28 6 7683. 8931. 126. o -2
4 28 0 7683. 8931. 126. o 1
5 28 0 131. 74. 68. < 1
-3 28 9 744. 880. 54. o -3
3 28 9 744. 880. 54. o -2
6 28 0 744. 880. 54. o 1
7 28 0 98. 227. 86. < 1
-4 28 12 1651. 1296. 89. o -3
4 28 12 1651. 1296. 89. o -2
8 28 0 1651. 1296. 89. o 1
9 28 0 5023. 3694. 165. o 1
-5 28 15 173. 51. 89. < -3
5 28 15 173. 51. 89. < -2
10 28 0 173. 51. 89. < 1
0 29 0 169. 360. 74. o -3
0 29 0 169. 360. 74. o -2
0 29 0 169. 360. 74. o 1
1 29 0 45. 0. 52. < 1
-1 29 3 682. 614. 86. o -3
1 29 3 682. 614. 86. o -2
2 29 0 682. 614. 86. o 1
1 29 -3 682. 548. 86. o -3
-1 29 -3 682. 548. 86. o -2
-2 29 0 682. 548. 86. o 1
3 29 0 1432. 1388. 56. o 1
-2 29 6 144. 66. 58. < -3
2 29 6 144. 66. 58. < -2
4 29 0 144. 66. 58. < 1
5 29 0 3. 56. 56. < 1
-3 29 9 6590. 7311. 105. o -3
3 29 9 6590. 7311. 105. o -2
6 29 0 6590. 7311. 105. o 1
7 29 0 11. 91. 80. < 1
-4 29 12 295. 398. 76. o -3
4 29 12 295. 398. 76. o -2
8 29 0 295. 398. 76. o 1
9 29 0 430. 437. 91. o 1
1 30 0 4861. 4775. 78. o 1
-1 30 3 4386. 4005. 130. o -3
1 30 3 4386. 4005. 130. o -2
2 30 0 4386. 4005. 130. o 1
1 30 -3 4386. 3986. 119. o -3
-1 30 -3 4386. 3986. 119. o -2
-2 30 0 4386. 3986. 119. o 1
3 30 0 405. 439. 51. o 1
-2 30 6 1451. 1572. 54. o -3
2 30 6 1451. 1572. 54. o -2
4 30 0 1451. 1572. 54. o 1
5 30 0 1720. 1226. 74. o 1
-3 30 9 403. 367. 56. o -3
3 30 9 403. 367. 56. o -2
6 30 0 403. 367. 56. o 1
7 30 0 202. -2. 82. < 1
-4 30 12 1373. 892. 82. o -3
4 30 12 1373. 892. 82. o -2
8 30 0 1373. 892. 82. o 1
0 31 0 216. 375. 74. o -3
0 31 0 216. 375. 74. o -2
0 31 0 216. 375. 74. o 1
1 31 0 31820. 35298. 268. o 1
-1 31 3 8558. 7736. 148. o -3
1 31 3 8558. 7736. 148. o -2
2 31 0 8558. 7736. 148. o 1
1 31 -3 8558. 8065. 171. o -3
-1 31 -3 8558. 8065. 171. o -2
-2 31 0 8558. 8065. 171. o 1
3 31 0 10239. 11372. 134. o 1
-2 31 6 122. 113. 49. < -3
2 31 6 122. 113. 49. < -2
4 31 0 122. 113. 49. < 1
5 31 0 951. 1032. 64. o 1
7 31 0 19682. 19130. 358. o 1
1 32 0 5676. 5348. 78. o 1
-1 32 3 2209. 2297. 103. o -3
1 32 3 2209. 2297. 103. o -2
2 32 0 2209. 2297. 103. o 1
1 32 -3 2208. 2227. 103. o -3
-1 32 -3 2208. 2227. 103. o -2
-2 32 0 2208. 2227. 103. o 1
3 32 0 1225. 1193. 56. o 1
-2 32 6 986. 1133. 54. o -3
2 32 6 986. 1133. 54. o -2
4 32 0 986. 1133. 54. o 1
5 32 0 315. 43. 54. < 1
0 33 0 1139. 1259. 91. o -3
0 33 0 1139. 1259. 91. o -2
0 33 0 1139. 1259. 91. o 1
1 33 0 3739. 3471. 66. o 1
-1 33 3 10990. 11184. 198. o -3
1 33 3 10990. 11184. 198. o -2
2 33 0 10990. 11184. 198. o 1
1 33 -3 10990. 10892. 260. o -3
-1 33 -3 10990. 10892. 260. o -2
-2 33 0 10990. 10892. 260. o 1
3 33 0 684. 328. 49. o 1
-2 33 6 293. -35. 43. < -3
2 33 6 293. -35. 43. < -2
4 33 0 293. -35. 43. < 1
5 33 0 301. 84. 47. < 1
0 34 0 214. 235. 82. < -3
0 34 0 214. 235. 82. < -2
0 34 0 214. 235. 82. < 1
1 34 0 988. 138. 56. < 1
-1 34 3 1267. 476. 87. o -3
1 34 3 1267. 476. 87. o -2
2 34 0 1267. 476. 87. o 1
1 34 -3 1267. 1133. 80. o -3
-1 34 -3 1267. 1133. 80. o -2
-2 34 0 1267. 1133. 80. o 1
3 34 0 607. 286. 47. o 1
-2 34 6 239. 220. 58. o -3
2 34 6 239. 220. 58. o -2
4 34 0 239. 220. 58. o 1
0 35 0 49. 45. 87. < -3
0 35 0 49. 45. 87. < -2
0 35 0 49. 45. 87. < 1
2 0 1 252. 126. 16. o 1
2 0 -1 252. 200. 8. o 1
6 0 1 563. 556. 45. o 1
6 0 -1 563. 585. 47. o 1
8 0 1 27275. 30166. 338. o 1
8 0 -1 27275. 29901. 387. o 1
0 1 2 270. 227. 8. o -3
1 1 1 270. 227. 8. o -2
1 1 -1 270. 227. 8. o 1
-1 1 5 1299. 1469. 25. o -3
2 1 4 1299. 1469. 25. o -2
3 1 -1 1299. 1469. 25. o 1
4 1 1 2951. 2278. 47. o 1
4 1 -1 2951. 2351. 72. o 1
6 1 1 672. 637. 47. o 1
6 1 -1 672. 564. 33. o 1
-4 1 10 2173. 1753. 54. o -3
3 1 11 2173. 1753. 54. o -2
7 1 1 2173. 1753. 54. o 1
8 1 1 2907. 2651. 91. o 1
8 1 -1 2907. 2530. 89. o 1
0 2 2 1282. 1063. 21. o -3
1 2 1 1282. 1063. 21. o -2
1 2 -1 1282. 1063. 21. o 1
-1 2 1 1356. 1117. 21. o -3
0 2 2 1356. 1117. 21. o -2
1 2 1 1356. 1117. 21. o 1
1 2 -1 1356. 1269. 16. o -3
0 2 -2 1356. 1269. 16. o -2
-1 2 -1 1356. 1269. 16. o 1
-2 2 4 1060. 1069. 39. o -3
1 2 5 1060. 1069. 39. o -2
3 2 1 1060. 1069. 39. o 1
4 2 1 2287. 1926. 41. o 1
4 2 -1 2287. 2007. 58. o 1
-2 2 8 2198. 2967. 82. o -3
3 2 7 2198. 2967. 82. o -2
5 2 -1 2198. 2967. 82. o 1
-4 2 10 2234. 2971. 99. o -3
3 2 11 2234. 2971. 99. o -2
7 2 1 2234. 2971. 99. o 1
8 2 1 1544. 1152. 66. o 1
8 2 -1 1544. 1110. 66. o 1
-5 2 13 875. 1238. 86. o -3
4 2 14 875. 1238. 86. o -2
9 2 1 875. 1238. 86. o 1
-4 2 14 855. 1485. 89. o -3
5 2 13 855. 1485. 89. o -2
9 2 -1 855. 1485. 89. o 1
10 2 1 2304. 2555. 124. o 1
10 2 -1 2304. 2668. 124. o 1
0 3 2 312. 299. 12. o -3
1 3 1 312. 299. 12. o -2
1 3 -1 312. 299. 12. o 1
1 3 -1 303. 210. 12. o -3
0 3 -2 303. 210. 12. o -2
-1 3 -1 303. 210. 12. o 1
2 3 -1 454. 338. 10. o 1
-2 3 4 265. 187. 23. o -3
1 3 5 265. 187. 23. o -2
3 3 1 265. 187. 23. o 1
-1 3 5 248. 202. 16. o -3
2 3 4 248. 202. 16. o -2
3 3 -1 248. 202. 16. o 1
4 3 1 819. 637. 37. o 1
8 3 1 51. 14. 101. < 1
8 3 -1 51. 27. 52. < 1
-5 3 13 2256. 3216. 122. o -3
4 3 14 2256. 3216. 122. o -2
9 3 1 2256. 3216. 122. o 1
-4 3 14 2366. 2577. 115. o -3
5 3 13 2366. 2577. 115. o -2
9 3 -1 2366. 2577. 115. o 1
10 3 1 813. 810. 120. o 1
10 3 -1 813. 966. 120. o 1
0 4 -2 1592. 1323. 23. o -3
-1 4 -1 1592. 1323. 23. o -2
-1 4 1 1592. 1323. 23. o 1
0 4 2 1592. 1325. 23. o -3
1 4 1 1592. 1325. 23. o -2
1 4 -1 1592. 1325. 23. o 1
-1 4 1 1684. 1728. 31. o -3
0 4 2 1684. 1728. 31. o -2
1 4 1 1684. 1728. 31. o 1
1 4 -1 1684. 1630. 25. o -3
0 4 -2 1684. 1630. 25. o -2
-1 4 -1 1684. 1630. 25. o 1
2 4 -1 1086. 882. 14. o 1
-2 4 4 191. 233. 14. o -3
1 4 5 191. 233. 14. o -2
3 4 1 191. 233. 14. o 1
-1 4 5 223. 177. 16. o -3
2 4 4 223. 177. 16. o -2
3 4 -1 223. 177. 16. o 1
4 4 1 894. 653. 25. o 1
-5 4 13 860. 1082. 78. o -3
4 4 14 860. 1082. 78. o -2
9 4 1 860. 1082. 78. o 1
-4 4 14 826. 1261. 82. o -3
5 4 13 826. 1261. 82. o -2
9 4 -1 826. 1261. 82. o 1
10 4 1 1940. 2038. 120. o 1
10 4 -1 1940. 2097. 120. o 1
0 5 -2 641. 690. 14. o -3
-1 5 -1 641. 690. 14. o -2
-1 5 1 641. 690. 14. o 1
0 5 2 641. 599. 17. o -3
1 5 1 641. 599. 17. o -2
1 5 -1 641. 599. 17. o 1
-1 5 1 607. 451. 16. o -3
0 5 2 607. 451. 16. o -2
1 5 1 607. 451. 16. o 1
2 5 1 1763. 1413. 17. o 1
2 5 -1 1763. 1438. 17. o 1
-1 5 5 2016. 1945. 35. o -3
2 5 4 2016. 1945. 35. o -2
3 5 -1 2016. 1945. 35. o 1
4 5 1 521. 317. 33. o 1
4 5 -1 521. 208. 33. o 1
-5 5 13 3154. 3766. 132. o -3
4 5 14 3154. 3766. 132. o -2
9 5 1 3154. 3766. 132. o 1
-4 5 14 3208. 3603. 130. o -3
5 5 13 3208. 3603. 130. o -2
9 5 -1 3208. 3603. 130. o 1
10 5 1 1739. 2009. 109. o 1
10 5 -1 1739. 1881. 107. o 1
0 6 -2 183. 150. 14. o -3
-1 6 -1 183. 150. 14. o -2
-1 6 1 183. 150. 14. o 1
0 6 2 183. 148. 23. o -3
1 6 1 183. 148. 23. o -2
1 6 -1 183. 148. 23. o 1
-1 6 1 192. 202. 21. o -3
0 6 2 192. 202. 21. o -2
1 6 1 192. 202. 21. o 1
1 6 -1 192. 223. 19. o -3
0 6 -2 192. 223. 19. o -2
-1 6 -1 192. 223. 19. o 1
2 6 1 3692. 3063. 33. o 1
2 6 -1 3692. 2993. 33. o 1
-2 6 4 844. 781. 19. o -3
1 6 5 844. 781. 19. o -2
3 6 1 844. 781. 19. o 1
-1 6 5 862. 764. 23. o -3
2 6 4 862. 764. 23. o -2
3 6 -1 862. 764. 23. o 1
4 6 1 8424. 7692. 136. o 1
4 6 -1 8424. 7346. 91. o 1
10 6 1 217. 350. 132. < 1
10 6 -1 217. 497. 78. o 1
-6 6 16 651. 1053. 84. o -3
5 6 17 651. 1053. 84. o -2
11 6 1 651. 1053. 84. o 1
-5 6 17 768. 773. 122. o -3
6 6 16 768. 773. 122. o -2
11 6 -1 768. 773. 122. o 1
12 6 1 3893. 3797. 140. o 1
12 6 -1 3893. 4067. 142. o 1
0 7 -2 5909. 6545. 58. o -3
-1 7 -1 5909. 6545. 58. o -2
-1 7 1 5909. 6545. 58. o 1
0 7 2 5909. 6786. 70. o -3
1 7 1 5909. 6786. 70. o -2
1 7 -1 5909. 6786. 70. o 1
2 7 1 5018. 4310. 54. o 1
2 7 -1 5018. 4073. 47. o 1
-1 7 5 1147. 1086. 25. o -3
2 7 4 1147. 1086. 25. o -2
3 7 -1 1147. 1086. 25. o 1
4 7 1 4297. 3883. 115. o 1
4 7 -1 4297. 3906. 76. o 1
10 7 1 824. 989. 82. o 1
10 7 -1 824. 1045. 82. o 1
-6 7 16 2020. 1557. 87. o -3
5 7 17 2020. 1557. 87. o -2
11 7 1 2020. 1557. 87. o 1
-5 7 17 1776. 2408. 101. o -3
6 7 16 1776. 2408. 101. o -2
11 7 -1 1776. 2408. 101. o 1
12 7 1 601. -8045. 210. < 1
12 7 -1 601. -7789. 208. < 1
0 8 -2 4917. 4407. 52. o -3
-1 8 -1 4917. 4407. 52. o -2
-1 8 1 4917. 4407. 52. o 1
0 8 2 4917. 4456. 64. o -3
1 8 1 4917. 4456. 64. o -2
1 8 -1 4917. 4456. 64. o 1
-1 8 1 5197. 6073. 76. o -3
0 8 2 5197. 6073. 76. o -2
1 8 1 5197. 6073. 76. o 1
1 8 -1 5197. 5748. 58. o -3
0 8 -2 5197. 5748. 58. o -2
-1 8 -1 5197. 5748. 58. o 1
2 8 1 6105. 5210. 64. o 1
2 8 -1 6105. 5066. 54. o 1
-2 8 4 1170. 1032. 27. o -3
1 8 5 1170. 1032. 27. o -2
3 8 1 1170. 1032. 27. o 1
-1 8 5 1207. 1044. 29. o -3
2 8 4 1207. 1044. 29. o -2
3 8 -1 1207. 1044. 29. o 1
4 8 1 3823. 3768. 115. o 1
4 8 -1 3823. 3478. 76. o 1
-3 8 7 6406. 5985. 134. o -3
2 8 8 6406. 5985. 134. o -2
5 8 1 6406. 5985. 134. o 1
-6 8 16 505. 612. 82. o -3
5 8 17 505. 612. 82. o -2
11 8 1 505. 612. 82. o 1
-5 8 17 507. 544. 130. o -3
6 8 16 507. 544. 130. o -2
11 8 -1 507. 544. 130. o 1
12 8 1 33. 49. 97. < 1
12 8 -1 33. 17. 97. < 1
0 9 -2 7355. 8284. 72. o -3
-1 9 -1 7355. 8284. 72. o -2
-1 9 1 7355. 8284. 72. o 1
0 9 2 7355. 8405. 86. o -3
1 9 1 7355. 8405. 86. o -2
1 9 -1 7355. 8405. 86. o 1
2 9 1 5359. 4592. 64. o 1
2 9 -1 5359. 4446. 49. o 1
-1 9 5 7789. 8043. 82. o -3
2 9 4 7789. 8043. 82. o -2
3 9 -1 7789. 8043. 82. o 1
4 9 1 924. 733. 49. o 1
4 9 -1 924. 705. 33. o 1
-2 9 8 2239. 2159. 78. o -3
3 9 7 2239. 2159. 78. o -2
5 9 -1 2239. 2159. 78. o 1
-6 9 16 782. 554. 91. o -3
5 9 17 782. 554. 91. o -2
11 9 1 782. 554. 91. o 1
-5 9 17 834. 567. 91. o -3
6 9 16 834. 567. 91. o -2
11 9 -1 834. 567. 91. o 1
12 9 1 662. 773. 80. o 1
12 9 -1 662. 1108. 86. o 1
0 10 2 32241. 26868. 179. o -3
1 10 1 32241. 26868. 179. o -2
1 10 -1 32241. 26868. 179. o 1
-1 10 1 34097. 35247. 212. o -3
0 10 2 34097. 35247. 212. o -2
1 10 1 34097. 35247. 212. o 1
1 10 -1 34097. 36330. 218. o -3
0 10 -2 34097. 36330. 218. o -2
-1 10 -1 34097. 36330. 218. o 1
2 10 1 5255. 4685. 66. o 1
2 10 -1 5256. 4806. 54. o 1
-2 10 4 4021. 4468. 66. o -3
1 10 5 4021. 4468. 66. o -2
3 10 1 4021. 4468. 66. o 1
-1 10 5 4296. 4219. 58. o -3
2 10 4 4296. 4219. 58. o -2
3 10 -1 4296. 4219. 58. o 1
4 10 1 619. 645. 54. o 1
4 10 -1 619. 457. 41. o 1
-3 10 7 2526. 1831. 76. o -3
2 10 8 2526. 1831. 76. o -2
5 10 1 2526. 1831. 76. o 1
-2 10 8 2287. 2456. 82. o -3
3 10 7 2287. 2456. 82. o -2
5 10 -1 2287. 2456. 82. o 1
-6 10 16 3049. 4145. 150. o -3
5 10 17 3049. 4145. 150. o -2
11 10 1 3049. 4145. 150. o 1
-5 10 17 3355. 2264. 126. o -3
6 10 16 3355. 2264. 126. o -2
11 10 -1 3355. 2264. 126. o 1
12 10 1 4144. 3531. 138. o 1
12 10 -1 4144. 3751. 142. o 1
13 10 1 635. 1496. 132. o 1
0 11 -2 6023. 6597. 74. o -3
-1 11 -1 6023. 6597. 74. o -2
-1 11 1 6023. 6597. 74. o 1
0 11 2 6023. 6605. 89. o -3
1 11 1 6023. 6605. 89. o -2
1 11 -1 6023. 6605. 89. o 1
-1 11 1 5603. 4450. 76. o -3
0 11 2 5603. 4450. 76. o -2
1 11 1 5603. 4450. 76. o 1
1 11 -1 5603. 4438. 76. o -3
0 11 -2 5603. 4438. 76. o -2
-1 11 -1 5603. 4438. 76. o 1
2 11 1 2626. 2612. 45. o 1
2 11 -1 2626. 2592. 41. o 1
-2 11 4 432. 346. 35. o -3
1 11 5 432. 346. 35. o -2
3 11 1 432. 346. 35. o 1
-1 11 5 374. 375. 33. o -3
2 11 4 374. 375. 33. o -2
3 11 -1 374. 375. 33. o 1
4 11 1 470. 358. 43. o 1
4 11 -1 470. 387. 45. o 1
-3 11 7 2081. 1840. 74. o -3
2 11 8 2081. 1840. 74. o -2
5 11 1 2081. 1840. 74. o 1
-2 11 8 2109. 1613. 70. o -3
3 11 7 2109. 1613. 70. o -2
5 11 -1 2109. 1613. 70. o 1
6 11 1 147. 99. 93. < 1
12 11 1 1009. 402. 82. o 1
12 11 -1 1009. 229. 80. < 1
13 11 -1 429. 1407. 130. o 1
0 12 -2 9134. 7814. 84. o -3
-1 12 -1 9134. 7814. 84. o -2
-1 12 1 9134. 7814. 84. o 1
0 12 2 9134. 7948. 103. o -3
1 12 1 9134. 7948. 103. o -2
1 12 -1 9134. 7948. 103. o 1
-1 12 1 9659. 10369. 117. o -3
0 12 2 9659. 10369. 117. o -2
1 12 1 9659. 10369. 117. o 1
1 12 -1 9659. 10937. 124. o -3
0 12 -2 9659. 10937. 124. o -2
-1 12 -1 9659. 10937. 124. o 1
2 12 1 1970. 1992. 41. o 1
2 12 -1 1970. 1912. 35. o 1
-2 12 4 442. 511. 37. o -3
1 12 5 442. 511. 37. o -2
3 12 1 442. 511. 37. o 1
-1 12 5 459. 499. 37. o -3
2 12 4 459. 499. 37. o -2
3 12 -1 459. 499. 37. o 1
4 12 1 42. -16. 60. < 1
4 12 -1 42. 76. 58. < 1
-3 12 7 1715. 1788. 78. o -3
2 12 8 1715. 1788. 78. o -2
5 12 1 1715. 1788. 78. o 1
-2 12 8 1663. 1996. 56. o -3
3 12 7 1663. 1996. 56. o -2
5 12 -1 1663. 1996. 56. o 1
6 12 1 3269. 3208. 101. o 1
12 12 1 1122. 1351. 97. o 1
12 12 -1 1122. 1321. 97. o 1
13 12 1 664. 803. 132. o 1
13 12 -1 664. 863. 185. o 1
0 13 -2 2680. 2594. 80. o -3
-1 13 -1 2680. 2594. 80. o -2
-1 13 1 2680. 2594. 80. o 1
0 13 2 2680. 2738. 64. o -3
1 13 1 2680. 2738. 64. o -2
1 13 -1 2680. 2738. 64. o 1
-1 13 1 2610. 2464. 60. o -3
0 13 2 2610. 2464. 60. o -2
1 13 1 2610. 2464. 60. o 1
1 13 -1 2610. 2342. 62. o -3
0 13 -2 2610. 2342. 62. o -2
-1 13 -1 2610. 2342. 62. o 1
2 13 1 1847. 1875. 43. o 1
2 13 -1 1847. 1821. 35. o 1
-2 13 4 901. 762. 31. o -3
1 13 5 901. 762. 31. o -2
3 13 1 901. 762. 31. o 1
-1 13 5 903. 894. 43. o -3
2 13 4 903. 894. 43. o -2
3 13 -1 903. 894. 43. o 1
4 13 1 1117. 927. 43. o 1
4 13 -1 1117. 869. 43. o 1
-3 13 7 4725. 6636. 165. o -3
2 13 8 4725. 6636. 165. o -2
5 13 1 4725. 6636. 165. o 1
-2 13 8 5565. 4985. 89. o -3
3 13 7 5565. 4985. 89. o -2
5 13 -1 5565. 4985. 89. o 1
6 13 1 2575. 2491. 89. o 1
6 13 -1 2575. 2167. 89. o 1
12 13 1 591. 663. 78. o 1
12 13 -1 591. 766. 80. o 1
0 14 -2 1587. 1364. 64. o -3
-1 14 -1 1587. 1364. 64. o -2
-1 14 1 1587. 1364. 64. o 1
0 14 2 1587. 1436. 47. o -3
1 14 1 1587. 1436. 47. o -2
1 14 -1 1587. 1436. 47. o 1
-1 14 1 1677. 1928. 54. o -3
0 14 2 1677. 1928. 54. o -2
1 14 1 1677. 1928. 54. o 1
1 14 -1 1677. 1897. 80. o -3
0 14 -2 1677. 1897. 80. o -2
-1 14 -1 1677. 1897. 80. o 1
2 14 1 2088. 2023. 45. o 1
2 14 -1 2088. 1885. 39. o 1
-2 14 4 5872. 6285. 84. o -3
1 14 5 5872. 6285. 84. o -2
3 14 1 5872. 6285. 84. o 1
-1 14 5 6142. 5608. 86. o -3
2 14 4 6142. 5608. 86. o -2
3 14 -1 6142. 5608. 86. o 1
4 14 1 4324. 4114. 80. o 1
4 14 -1 4324. 4089. 80. o 1
-3 14 7 5332. 4153. 113. o -3
2 14 8 5332. 4153. 113. o -2
5 14 1 5332. 4153. 113. o 1
-2 14 8 4999. 5676. 111. o -3
3 14 7 4999. 5676. 111. o -2
5 14 -1 4999. 5676. 111. o 1
6 14 1 4569. 4355. 134. o 1
6 14 -1 4569. 4862. 138. o 1
12 14 1 3181. 2532. 107. o 1
12 14 -1 3181. 2769. 111. o 1
13 14 1 901. 1465. 159. o 1
0 15 -2 3125. 3770. 111. o -3
-1 15 -1 3125. 3770. 111. o -2
-1 15 1 3125. 3770. 111. o 1
0 15 2 3125. 3548. 76. o -3
1 15 1 3125. 3548. 76. o -2
1 15 -1 3125. 3548. 76. o 1
-1 15 1 2902. 2299. 60. o -3
0 15 2 2902. 2299. 60. o -2
1 15 1 2902. 2299. 60. o 1
1 15 -1 2902. 2410. 101. o -3
0 15 -2 2902. 2410. 101. o -2
-1 15 -1 2902. 2410. 101. o 1
2 15 1 2608. 2283. 52. o 1
2 15 -1 2608. 2347. 45. o 1
-2 15 4 8257. 7145. 95. o -3
1 15 5 8257. 7145. 95. o -2
3 15 1 8257. 7145. 95. o 1
-1 15 5 7614. 8208. 97. o -3
2 15 4 7614. 8208. 97. o -2
3 15 -1 7614. 8208. 97. o 1
4 15 1 4326. 3957. 87. o 1
4 15 -1 4326. 3984. 82. o 1
-2 15 8 16774. 15750. 167. o -3
3 15 7 16774. 15750. 167. o -2
5 15 -1 16774. 15750. 167. o 1
6 15 1 2515. 2501. 97. o 1
6 15 -1 2515. 2713. 105. o 1
-4 15 10 2082. 1261. 78. o -3
3 15 11 2082. 1261. 78. o -2
7 15 1 2082. 1261. 78. o 1
12 15 1 1683. 1442. 167. o 1
12 15 -1 1683. 1698. 161. o 1
13 15 -1 3341. 4864. 157. o 1
14 15 1 570. 546. 124. o 1
14 15 -1 570. 488. 124. o 1
0 16 -2 2474. 2204. 86. o -3
-1 16 -1 2474. 2204. 86. o -2
-1 16 1 2474. 2204. 86. o 1
0 16 2 2474. 2188. 60. o -3
1 16 1 2474. 2188. 60. o -2
1 16 -1 2474. 2188. 60. o 1
-1 16 1 2614. 3020. 66. o -3
0 16 2 2614. 3020. 66. o -2
1 16 1 2614. 3020. 66. o 1
1 16 -1 2614. 2993. 91. o -3
0 16 -2 2614. 2993. 91. o -2
-1 16 -1 2614. 2993. 91. o 1
2 16 1 1932. 1706. 60. o 1
2 16 -1 1932. 1836. 51. o 1
-2 16 4 9840. 10533. 115. o -3
1 16 5 9840. 10533. 115. o -2
3 16 1 9840. 10533. 115. o 1
-1 16 5 10023. 9957. 111. o -3
2 16 4 10023. 9957. 111. o -2
3 16 -1 10023. 9957. 111. o 1
4 16 1 300. 264. 78. o 1
4 16 -1 300. 420. 76. o 1
-3 16 7 18350. 19404. 264. o -3
2 16 8 18350. 19404. 264. o -2
5 16 1 18350. 19404. 264. o 1
-2 16 8 16687. 19429. 194. o -3
3 16 7 16687. 19429. 194. o -2
5 16 -1 16687. 19429. 194. o 1
6 16 1 1300. 1562. 89. o 1
6 16 -1 1300. 1080. 76. o 1
-4 16 10 1513. 2256. 97. o -3
3 16 11 1513. 2256. 97. o -2
7 16 1 1513. 2256. 97. o 1
12 16 1 8613. 11603. 295. o 1
12 16 -1 8613. 10875. 291. o 1
14 16 1 508. 12. 113. < 1
14 16 -1 508. 449. 107. o 1
0 17 -2 2213. 2573. 109. o -3
-1 17 -1 2213. 2573. 109. o -2
-1 17 1 2213. 2573. 109. o 1
0 17 2 2213. 2763. 70. o -3
1 17 1 2213. 2763. 70. o -2
1 17 -1 2213. 2763. 70. o 1
-1 17 1 2097. 1889. 60. o -3
0 17 2 2097. 1889. 60. o -2
1 17 1 2097. 1889. 60. o 1
1 17 -1 2097. 2089. 91. o -3
0 17 -2 2097. 2089. 91. o -2
-1 17 -1 2097. 2089. 91. o 1
2 17 1 3199. 2874. 70. o 1
2 17 -1 3199. 3103. 54. o 1
-2 17 4 5832. 5571. 87. o -3
1 17 5 5832. 5571. 87. o -2
3 17 1 5832. 5571. 87. o 1
-1 17 5 5594. 5731. 86. o -3
2 17 4 5594. 5731. 86. o -2
3 17 -1 5594. 5731. 86. o 1
4 17 1 248. 183. 80. < 1
4 17 -1 248. 262. 82. o 1
-3 17 7 5765. 6051. 107. o -3
2 17 8 5765. 6051. 107. o -2
5 17 1 5765. 6051. 107. o 1
-2 17 8 5766. 5606. 101. o -3
3 17 7 5766. 5606. 101. o -2
5 17 -1 5766. 5606. 101. o 1
6 17 1 2446. 2717. 120. o 1
6 17 -1 2446. 2503. 120. o 1
-4 17 10 3849. 3169. 134. o -3
3 17 11 3849. 3169. 134. o -2
7 17 1 3849. 3169. 134. o 1
-3 17 11 3672. 3461. 119. o -3
4 17 10 3672. 3461. 119. o -2
7 17 -1 3672. 3461. 119. o 1
12 17 1 2042. 1516. 150. o 1
12 17 -1 2042. 2392. 124. o 1
13 17 1 2925. 3405. 161. o 1
13 17 -1 2925. 3296. 165. o 1
14 17 1 395. 519. 105. o 1
14 17 -1 395. 270. 103. < 1
0 18 -2 1950. 1860. 86. o -3
-1 18 -1 1950. 1860. 86. o -2
-1 18 1 1950. 1860. 86. o 1
0 18 2 1950. 1996. 64. o -3
1 18 1 1950. 1996. 64. o -2
1 18 -1 1950. 1996. 64. o 1
-1 18 1 2052. 2670. 70. o -3
0 18 2 2052. 2670. 70. o -2
1 18 1 2052. 2670. 70. o 1
1 18 -1 2052. 2861. 97. o -3
0 18 -2 2052. 2861. 97. o -2
-1 18 -1 2052. 2861. 97. o 1
2 18 1 1667. 1790. 62. o 1
2 18 -1 1667. 1937. 68. o 1
-2 18 4 2037. 2643. 60. o -3
1 18 5 2037. 2643. 60. o -2
3 18 1 2037. 2643. 60. o 1
-1 18 5 2181. 2268. 47. o -3
2 18 4 2181. 2268. 47. o -2
3 18 -1 2181. 2268. 47. o 1
4 18 1 1879. 1735. 64. o 1
4 18 -1 1879. 1805. 62. o 1
-3 18 7 564. 731. 68. o -3
2 18 8 564. 731. 68. o -2
5 18 1 564. 731. 68. o 1
-2 18 8 533. 715. 72. o -3
3 18 7 533. 715. 72. o -2
5 18 -1 533. 715. 72. o 1
6 18 1 2382. 2771. 113. o 1
6 18 -1 2382. 2017. 78. o 1
-4 18 10 1178. 1702. 99. o -3
3 18 11 1178. 1702. 99. o -2
7 18 1 1178. 1702. 99. o 1
-3 18 11 1279. 1042. 82. o -3
4 18 10 1279. 1042. 82. o -2
7 18 -1 1279. 1042. 82. o 1
8 18 1 164. 305. 109. < 1
12 18 1 1361. 1028. 128. o 1
12 18 -1 1361. 1067. 128. o 1
13 18 1 566. 715. 120. o 1
13 18 -1 566. 1285. 126. o 1
14 18 1 1076. 680. 128. o 1
14 18 -1 1076. 861. 124. o 1
0 19 -2 16280. 19419. 258. o -3
-1 19 -1 16280. 19419. 258. o -2
-1 19 1 16280. 19419. 258. o 1
0 19 2 16280. 19726. 185. o -3
1 19 1 16280. 19726. 185. o -2
1 19 -1 16280. 19726. 185. o 1
-1 19 1 15048. 13720. 155. o -3
0 19 2 15048. 13720. 155. o -2
1 19 1 15048. 13720. 155. o 1
1 19 -1 15048. 13498. 218. o -3
0 19 -2 15048. 13498. 218. o -2
-1 19 -1 15048. 13498. 218. o 1
2 19 1 738. 886. 49. o 1
2 19 -1 738. 944. 70. o 1
-2 19 4 3113. 2864. 62. o -3
1 19 5 3113. 2864. 62. o -2
3 19 1 3113. 2864. 62. o 1
-1 19 5 2874. 3451. 58. o -3
2 19 4 2874. 3451. 58. o -2
3 19 -1 2874. 3451. 58. o 1
4 19 1 845. 725. 76. o 1
4 19 -1 845. 1032. 78. o 1
-3 19 7 1328. 1382. 82. o -3
2 19 8 1328. 1382. 82. o -2
5 19 1 1328. 1382. 82. o 1
-2 19 8 1379. 1084. 78. o -3
3 19 7 1379. 1084. 78. o -2
5 19 -1 1379. 1084. 78. o 1
6 19 1 2184. 2443. 109. o 1
6 19 -1 2184. 2437. 76. o 1
-4 19 10 12326. 11518. 257. o -3
3 19 11 12326. 11518. 257. o -2
7 19 1 12326. 11518. 257. o 1
8 19 1 622. 954. 126. o 1
12 19 1 460. 630. 107. o 1
12 19 -1 460. 628. 107. o 1
13 19 1 387. 1034. 124. o 1
13 19 -1 387. 818. 113. o 1
14 19 1 426. 113. 115. < 1
14 19 -1 426. 87. 109. < 1
0 20 -2 23793. 20587. 268. o -3
-1 20 -1 23793. 20587. 268. o -2
-1 20 1 23793. 20587. 268. o 1
0 20 2 23794. 20276. 264. o -3
1 20 1 23794. 20276. 264. o -2
1 20 -1 23794. 20276. 264. o 1
-1 20 1 25162. 27408. 216. o -3
0 20 2 25162. 27408. 216. o -2
1 20 1 25162. 27408. 216. o 1
1 20 -1 25162. 28092. 317. o -3
0 20 -2 25162. 28092. 317. o -2
-1 20 -1 25162. 28092. 317. o 1
2 20 1 710. 715. 78. o 1
2 20 -1 710. 635. 87. o 1
-2 20 4 3530. 3863. 87. o -3
1 20 5 3530. 3863. 87. o -2
3 20 1 3530. 3863. 87. o 1
-1 20 5 3592. 3659. 60. o -3
2 20 4 3592. 3659. 60. o -2
3 20 -1 3592. 3659. 60. o 1
4 20 1 1248. 1036. 54. o 1
4 20 -1 1248. 1378. 62. o 1
-3 20 7 6774. 7602. 134. o -3
2 20 8 6774. 7602. 134. o -2
5 20 1 6774. 7602. 134. o 1
-2 20 8 6240. 7243. 130. o -3
3 20 7 6240. 7243. 130. o -2
5 20 -1 6240. 7243. 130. o 1
6 20 1 3067. 3241. 119. o 1
6 20 -1 3067. 3156. 84. o 1
-4 20 10 5304. 6732. 185. o -3
3 20 11 5304. 6732. 185. o -2
7 20 1 5304. 6732. 185. o 1
-3 20 11 5696. 4862. 154. o -3
4 20 10 5696. 4862. 154. o -2
7 20 -1 5696. 4862. 154. o 1
8 20 1 1162. 1011. 132. o 1
8 20 -1 1162. 1057. 132. o 1
12 20 1 2523. 1621. 136. o 1
12 20 -1 2523. 1724. 134. o 1
13 20 1 430. 513. 117. o 1
13 20 -1 430. 888. 122. o 1
0 21 -2 28582. 31893. 332. o -3
-1 21 -1 28582. 31893. 332. o -2
-1 21 1 28582. 31893. 332. o 1
0 21 2 28582. 29748. 340. o -3
1 21 1 28582. 29748. 340. o -2
1 21 -1 28582. 29748. 340. o 1
-1 21 1 28151. 27536. 222. o -3
0 21 2 28151. 27536. 222. o -2
1 21 1 28151. 27536. 222. o 1
1 21 -1 28151. 28597. 276. o -3
0 21 -2 28151. 28597. 276. o -2
-1 21 -1 28151. 28597. 276. o 1
2 21 1 402. 542. 78. o 1
2 21 -1 402. 369. 70. o 1
-2 21 4 1560. 1485. 60. o -3
1 21 5 1560. 1485. 60. o -2
3 21 1 1560. 1485. 60. o 1
-1 21 5 1473. 1825. 58. o -3
2 21 4 1473. 1825. 58. o -2
3 21 -1 1473. 1825. 58. o 1
4 21 1 669. 583. 86. o 1
4 21 -1 669. 612. 82. o 1
-3 21 7 1325. 1098. 86. o -3
2 21 8 1325. 1098. 86. o -2
5 21 1 1325. 1098. 86. o 1
-2 21 8 1166. 1271. 84. o -3
3 21 7 1166. 1271. 84. o -2
5 21 -1 1166. 1271. 84. o 1
6 21 1 804. 812. 70. o 1
6 21 -1 804. 505. 89. o 1
-4 21 10 2451. 1908. 140. o -3
3 21 11 2451. 1908. 140. o -2
7 21 1 2451. 1908. 140. o 1
-3 21 11 2275. 2167. 122. o -3
4 21 10 2275. 2167. 122. o -2
7 21 -1 2275. 2167. 122. o 1
8 21 1 1243. 1314. 155. o 1
8 21 -1 1243. 1397. 144. o 1
12 21 1 665. 468. 107. o 1
12 21 -1 665. 659. 107. o 1
13 21 1 1291. 1749. 136. o 1
13 21 -1 1291. 1508. 132. o 1
0 22 -2 26212. 24779. 309. o -3
-1 22 -1 26212. 24779. 309. o -2
-1 22 1 26212. 24779. 309. o 1
0 22 2 26212. 24989. 317. o -3
1 22 1 26212. 24989. 317. o -2
1 22 -1 26212. 24989. 317. o 1
-1 22 1 27711. 33422. 247. o -3
0 22 2 27711. 33422. 247. o -2
1 22 1 27711. 33422. 247. o 1
1 22 -1 27711. 31635. 299. o -3
0 22 -2 27711. 31635. 299. o -2
-1 22 -1 27711. 31635. 299. o 1
2 22 1 1892. 1970. 86. o 1
2 22 -1 1892. 1755. 58. o 1
-2 22 4 2054. 2680. 80. o -3
1 22 5 2054. 2680. 80. o -2
3 22 1 2054. 2680. 80. o 1
-1 22 5 2217. 2544. 66. o -3
2 22 4 2217. 2544. 66. o -2
3 22 -1 2217. 2544. 66. o 1
4 22 1 728. 1170. 76. o 1
4 22 -1 728. 538. 72. o 1
-3 22 7 1151. 1065. 84. o -3
2 22 8 1151. 1065. 84. o -2
5 22 1 1151. 1065. 84. o 1
-2 22 8 1113. 1226. 87. o -3
3 22 7 1113. 1226. 87. o -2
5 22 -1 1113. 1226. 87. o 1
6 22 1 1350. 1300. 76. o 1
6 22 -1 1350. 1386. 97. o 1
-4 22 10 863. 906. 152. o -3
3 22 11 863. 906. 152. o -2
7 22 1 863. 906. 152. o 1
-3 22 11 913. 902. 82. o -3
4 22 10 913. 902. 82. o -2
7 22 -1 913. 902. 82. o 1
8 22 1 1661. 1452. 148. o 1
8 22 -1 1661. 1045. 152. o 1
-5 22 13 19793. 18479. 367. o -3
4 22 14 19793. 18479. 367. o -2
9 22 1 19793. 18479. 367. o 1
12 22 1 2418. 1722. 124. o 1
12 22 -1 2418. 1615. 126. o 1
13 22 1 614. 575. 115. o 1
13 22 -1 614. 501. 122. o 1
0 23 -2 1750. 1980. 115. o -3
-1 23 -1 1750. 1980. 115. o -2
-1 23 1 1750. 1980. 115. o 1
0 23 2 1750. 2027. 120. o -3
1 23 1 1750. 2027. 120. o -2
1 23 -1 1750. 2027. 120. o 1
-1 23 1 1666. 1386. 78. o -3
0 23 2 1666. 1386. 78. o -2
1 23 1 1666. 1386. 78. o 1
1 23 -1 1666. 1559. 113. o -3
0 23 -2 1666. 1559. 113. o -2
-1 23 -1 1666. 1559. 113. o 1
2 23 1 2024. 2029. 70. o 1
2 23 -1 2024. 2097. 68. o 1
-2 23 4 8318. 8692. 136. o -3
1 23 5 8318. 8692. 136. o -2
3 23 1 8318. 8692. 136. o 1
-1 23 5 8045. 8335. 122. o -3
2 23 4 8045. 8335. 122. o -2
3 23 -1 8045. 8335. 122. o 1
4 23 1 879. 587. 84. o 1
4 23 -1 879. 632. 93. o 1
-3 23 7 7770. 7899. 130. o -3
2 23 8 7770. 7899. 130. o -2
5 23 1 7770. 7899. 130. o 1
-2 23 8 7599. 8434. 136. o -3
3 23 7 7599. 8434. 136. o -2
5 23 -1 7599. 8434. 136. o 1
6 23 1 607. 678. 93. o 1
6 23 -1 607. 579. 97. o 1
-4 23 10 1989. 1156. 157. o -3
3 23 11 1989. 1156. 157. o -2
7 23 1 1989. 1156. 157. o 1
-3 23 11 1784. 1731. 91. o -3
4 23 10 1784. 1731. 91. o -2
7 23 -1 1784. 1731. 91. o 1
8 23 1 1862. 1751. 117. o 1
8 23 -1 1862. 2347. 144. o 1
-5 23 13 2300. 3657. 260. o -3
4 23 14 2300. 3657. 260. o -2
9 23 1 2300. 3657. 260. o 1
-4 23 14 2494. 1419. 297. o -3
5 23 13 2494. 1419. 297. o -2
9 23 -1 2494. 1419. 297. o 1
12 23 1 279. 286. 109. < 1
12 23 -1 279. 239. 109. < 1
0 24 -2 4264. 4262. 120. o -3
-1 24 -1 4264. 4262. 120. o -2
-1 24 1 4264. 4262. 120. o 1
0 24 2 4264. 4403. 148. o -3
1 24 1 4264. 4403. 148. o -2
1 24 -1 4264. 4403. 148. o 1
-1 24 1 4473. 5921. 165. o -3
0 24 2 4473. 5921. 165. o -2
1 24 1 4473. 5921. 165. o 1
1 24 -1 4473. 5548. 119. o -3
0 24 -2 4473. 5548. 119. o -2
-1 24 -1 4473. 5548. 119. o 1
2 24 1 1794. 1990. 76. o 1
2 24 -1 1794. 1784. 58. o 1
-2 24 4 3333. 3477. 99. o -3
1 24 5 3333. 3477. 99. o -2
3 24 1 3333. 3477. 99. o 1
-1 24 5 3458. 3344. 74. o -3
2 24 4 3458. 3344. 74. o -2
3 24 -1 3458. 3344. 74. o 1
4 24 1 459. 600. 130. o 1
4 24 -1 459. 719. 89. o 1
-3 24 7 8826. 9256. 183. o -3
2 24 8 8826. 9256. 183. o -2
5 24 1 8826. 9256. 183. o 1
-2 24 8 8245. 7684. 128. o -3
3 24 7 8245. 7684. 128. o -2
5 24 -1 8245. 7684. 128. o 1
6 24 1 996. 690. 101. o 1
6 24 -1 996. 692. 103. o 1
-4 24 10 1134. 1218. 124. o -3
3 24 11 1134. 1218. 124. o -2
7 24 1 1134. 1218. 124. o 1
-3 24 11 1136. 1485. 107. o -3
4 24 10 1136. 1485. 107. o -2
7 24 -1 1136. 1485. 107. o 1
8 24 1 2383. 2402. 154. o 1
8 24 -1 2383. 2629. 154. o 1
-5 24 13 1656. 1452. 154. o -3
4 24 14 1656. 1452. 154. o -2
9 24 1 1656. 1452. 154. o 1
-4 24 14 1663. 2126. 136. o -3
5 24 13 1663. 2126. 136. o -2
9 24 -1 1663. 2126. 136. o 1
12 24 1 353. 237. 99. < 1
12 24 -1 353. 206. 99. < 1
0 25 -2 6956. 6646. 155. o -3
-1 25 -1 6956. 6646. 155. o -2
-1 25 1 6956. 6646. 155. o 1
0 25 2 6956. 7278. 163. o -3
1 25 1 6956. 7278. 163. o -2
1 25 -1 6956. 7278. 163. o 1
-1 25 1 7299. 9409. 214. o -3
0 25 2 7299. 9409. 214. o -2
1 25 1 7299. 9409. 214. o 1
1 25 -1 7299. 8994. 200. o -3
0 25 -2 7299. 8994. 200. o -2
-1 25 -1 7299. 8994. 200. o 1
2 25 1 236. 237. 89. < 1
2 25 -1 236. 212. 74. < 1
-2 25 4 3264. 3764. 105. o -3
1 25 5 3264. 3764. 105. o -2
3 25 1 3264. 3764. 105. o 1
-1 25 5 3547. 3329. 91. o -3
2 25 4 3547. 3329. 91. o -2
3 25 -1 3547. 3329. 91. o 1
4 25 1 1205. 1104. 155. o 1
4 25 -1 1205. 1353. 150. o 1
-3 25 7 8084. 8545. 165. o -3
2 25 8 8084. 8545. 165. o -2
5 25 1 8084. 8545. 165. o 1
-2 25 8 8017. 8591. 107. o -3
3 25 7 8017. 8591. 107. o -2
5 25 -1 8017. 8591. 107. o 1
6 25 1 549. 614. 95. o 1
6 25 -1 549. 503. 58. o 1
-4 25 10 10068. 10012. 235. o -3
3 25 11 10068. 10012. 235. o -2
7 25 1 10068. 10012. 235. o 1
-3 25 11 10721. 12052. 190. o -3
4 25 10 10721. 12052. 190. o -2
7 25 -1 10721. 12052. 190. o 1
8 25 1 1553. 2161. 212. o 1
8 25 -1 1553. 1553. 154. o 1
-5 25 13 3794. 4079. 150. o -3
4 25 14 3794. 4079. 150. o -2
9 25 1 3794. 4079. 150. o 1
-4 25 14 3783. 4345. 155. o -3
5 25 13 3783. 4345. 155. o -2
9 25 -1 3783. 4345. 155. o 1
10 25 1 60. 56. 89. < 1
0 26 -2 9012. 8521. 148. o -3
-1 26 -1 9012. 8521. 148. o -2
-1 26 1 9012. 8521. 148. o 1
0 26 2 9012. 8317. 146. o -3
1 26 1 9012. 8317. 146. o -2
1 26 -1 9012. 8317. 146. o 1
-1 26 1 9506. 11627. 237. o -3
0 26 2 9506. 11627. 237. o -2
1 26 1 9506. 11627. 237. o 1
1 26 -1 9506. 11275. 175. o -3
0 26 -2 9506. 11275. 175. o -2
-1 26 -1 9506. 11275. 175. o 1
2 26 1 55. 4. 76. < 1
2 26 -1 55. 328. 89. o 1
-2 26 4 13622. 14425. 196. o -3
1 26 5 13622. 14425. 196. o -2
3 26 1 13622. 14425. 196. o 1
-1 26 5 13839. 13957. 159. o -3
2 26 4 13839. 13957. 159. o -2
3 26 -1 13839. 13957. 159. o 1
4 26 1 1806. 2326. 138. o 1
4 26 -1 1806. 2002. 72. o 1
-3 26 7 2514. 2950. 107. o -3
2 26 8 2514. 2950. 107. o -2
5 26 1 2514. 2950. 107. o 1
-2 26 8 2370. 2598. 86. o -3
3 26 7 2370. 2598. 86. o -2
5 26 -1 2370. 2598. 86. o 1
6 26 1 60. -29. 93. < 1
6 26 -1 60. 113. 60. < 1
-4 26 10 2508. 3381. 150. o -3
3 26 11 2508. 3381. 150. o -2
7 26 1 2508. 3381. 150. o 1
-3 26 11 2526. 2023. 99. o -3
4 26 10 2526. 2023. 99. o -2
7 26 -1 2526. 2023. 99. o 1
8 26 1 1321. 1428. 119. o 1
8 26 -1 1321. 1189. 93. o 1
-5 26 13 2094. 2210. 171. o -3
4 26 14 2094. 2210. 171. o -2
9 26 1 2094. 2210. 171. o 1
-4 26 14 2041. 2295. 140. o -3
5 26 13 2041. 2295. 140. o -2
9 26 -1 2041. 2295. 140. o 1
10 26 1 81. 31. 97. < 1
0 27 -2 4582. 4792. 113. o -3
-1 27 -1 4582. 4792. 113. o -2
-1 27 1 4582. 4792. 113. o 1
0 27 2 4582. 4957. 111. o -3
1 27 1 4582. 4957. 111. o -2
1 27 -1 4582. 4957. 111. o 1
-1 27 1 4598. 5468. 148. o -3
0 27 2 4598. 5468. 148. o -2
1 27 1 4598. 5468. 148. o 1
1 27 -1 4598. 5515. 122. o -3
0 27 -2 4598. 5515. 122. o -2
-1 27 -1 4598. 5515. 122. o 1
2 27 1 124. 323. 86. o 1
2 27 -1 124. 150. 62. < 1
-2 27 4 6983. 7734. 136. o -3
1 27 5 6983. 7734. 136. o -2
3 27 1 6983. 7734. 136. o 1
-1 27 5 6794. 6739. 91. o -3
2 27 4 6794. 6739. 91. o -2
3 27 -1 6794. 6739. 91. o 1
4 27 1 569. 525. 74. o 1
4 27 -1 569. 599. 70. o 1
-3 27 7 5915. 6426. 171. o -3
2 27 8 5915. 6426. 171. o -2
5 27 1 5915. 6426. 171. o 1
-2 27 8 5768. 6197. 105. o -3
3 27 7 5768. 6197. 105. o -2
5 27 -1 5768. 6197. 105. o 1
6 27 1 762. 709. 62. o 1
6 27 -1 762. 766. 66. o 1
-4 27 10 6947. 7229. 140. o -3
3 27 11 6947. 7229. 140. o -2
7 27 1 6947. 7229. 140. o 1
-3 27 11 6493. 6471. 126. o -3
4 27 10 6493. 6471. 126. o -2
7 27 -1 6493. 6471. 126. o 1
8 27 1 1056. 670. 152. o 1
8 27 -1 1056. 1092. 97. o 1
-5 27 13 2520. 2412. 142. o -3
4 27 14 2520. 2412. 142. o -2
9 27 1 2520. 2412. 142. o 1
-4 27 14 2551. 2050. 136. o -3
5 27 13 2551. 2050. 136. o -2
9 27 -1 2551. 2050. 136. o 1
10 27 1 154. 229. 99. < 1
10 27 -1 154. 37. 105. < 1
0 28 -2 3352. 2827. 89. o -3
-1 28 -1 3352. 2827. 89. o -2
-1 28 1 3352. 2827. 89. o 1
0 28 2 3352. 3274. 82. o -3
1 28 1 3352. 3274. 82. o -2
1 28 -1 3352. 3274. 82. o 1
-1 28 1 3545. 4417. 130. o -3
0 28 2 3545. 4417. 130. o -2
1 28 1 3545. 4417. 130. o 1
1 28 -1 3545. 4106. 115. o -3
0 28 -2 3545. 4106. 115. o -2
-1 28 -1 3545. 4106. 115. o 1
2 28 1 254. 103. 89. < 1
2 28 -1 254. 262. 62. o 1
-2 28 4 2445. 2857. 134. o -3
1 28 5 2445. 2857. 134. o -2
3 28 1 2445. 2857. 134. o 1
-1 28 5 2543. 3220. 82. o -3
2 28 4 2543. 3220. 82. o -2
3 28 -1 2543. 3220. 82. o 1
4 28 1 572. 459. 126. o 1
4 28 -1 572. 616. 72. o 1
-3 28 7 824. 1224. 84. o -3
2 28 8 824. 1224. 84. o -2
5 28 1 824. 1224. 84. o 1
-2 28 8 747. 641. 70. o -3
3 28 7 747. 641. 70. o -2
5 28 -1 747. 641. 70. o 1
6 28 1 1425. 1397. 51. o 1
6 28 -1 1425. 1401. 72. o 1
-4 28 10 2480. 2651. 124. o -3
3 28 11 2480. 2651. 124. o -2
7 28 1 2480. 2651. 124. o 1
-3 28 11 2670. 3274. 119. o -3
4 28 10 2670. 3274. 119. o -2
7 28 -1 2670. 3274. 119. o 1
8 28 1 920. 805. 120. o 1
8 28 -1 920. 991. 89. o 1
-5 28 13 360. 321. 103. o -3
4 28 14 360. 321. 103. o -2
9 28 1 360. 321. 103. o 1
-4 28 14 340. 243. 109. < -3
5 28 13 340. 243. 109. < -2
9 28 -1 340. 243. 109. < 1
10 28 1 42. -56. 82. < 1
10 28 -1 42. 204. 86. < 1
0 29 -2 3664. 4209. 128. o -3
-1 29 -1 3664. 4209. 128. o -2
-1 29 1 3664. 4209. 128. o 1
0 29 2 3664. 4266. 107. o -3
1 29 1 3664. 4266. 107. o -2
1 29 -1 3664. 4266. 107. o 1
-1 29 1 3671. 4143. 150. o -3
0 29 2 3671. 4143. 150. o -2
1 29 1 3671. 4143. 150. o 1
1 29 -1 3671. 4110. 134. o -3
0 29 -2 3671. 4110. 134. o -2
-1 29 -1 3671. 4110. 134. o 1
2 29 1 798. 814. 86. o 1
2 29 -1 798. 1049. 56. o 1
-2 29 4 4083. 4819. 89. o -3
1 29 5 4083. 4819. 89. o -2
3 29 1 4083. 4819. 89. o 1
-1 29 5 3910. 4056. 99. o -3
2 29 4 3910. 4056. 99. o -2
3 29 -1 3910. 4056. 99. o 1
4 29 1 822. 805. 68. o 1
4 29 -1 822. 880. 45. o 1
-3 29 7 4041. 4289. 91. o -3
2 29 8 4041. 4289. 91. o -2
5 29 1 4041. 4289. 91. o 1
6 29 1 1385. 1578. 70. o 1
6 29 -1 1385. 1689. 66. o 1
-4 29 10 2203. 1920. 101. o -3
3 29 11 2203. 1920. 101. o -2
7 29 1 2203. 1920. 101. o 1
-3 29 11 1998. 2270. 101. o -3
4 29 10 1998. 2270. 101. o -2
7 29 -1 1998. 2270. 101. o 1
8 29 1 384. 290. 74. o 1
8 29 -1 384. 360. 72. o 1
-5 29 13 632. 527. 93. o -3
4 29 14 632. 527. 93. o -2
9 29 1 632. 527. 93. o 1
-4 29 14 547. 472. 119. o -3
5 29 13 547. 472. 119. o -2
9 29 -1 547. 472. 119. o 1
0 30 -2 4248. 3284. 103. o -3
-1 30 -1 4248. 3284. 103. o -2
-1 30 1 4248. 3284. 103. o 1
-1 30 1 4409. 4691. 97. o -3
0 30 2 4409. 4691. 97. o -2
1 30 1 4409. 4691. 97. o 1
1 30 -1 4409. 5251. 130. o -3
0 30 -2 4409. 5251. 130. o -2
-1 30 -1 4409. 5251. 130. o 1
2 30 1 2325. 2587. 86. o 1
2 30 -1 2325. 2684. 64. o 1
-2 30 4 713. 610. 56. o -3
1 30 5 713. 610. 56. o -2
3 30 1 713. 610. 56. o 1
-1 30 5 786. 919. 43. o -3
2 30 4 786. 919. 43. o -2
3 30 -1 786. 919. 43. o 1
4 30 1 2439. 2507. 58. o 1
4 30 -1 2439. 2616. 62. o 1
-3 30 7 2181. 2612. 76. o -3
2 30 8 2181. 2612. 76. o -2
5 30 1 2181. 2612. 76. o 1
-2 30 8 1938. 1236. 72. o -3
3 30 7 1938. 1236. 72. o -2
5 30 -1 1938. 1236. 72. o 1
6 30 1 138. 134. 54. < 1
6 30 -1 138. 206. 54. o 1
-4 30 10 854. 668. 82. o -3
3 30 11 854. 668. 82. o -2
7 30 1 854. 668. 82. o 1
-3 30 11 974. 389. 87. o -3
4 30 10 974. 389. 87. o -2
7 30 -1 974. 389. 87. o 1
8 30 1 210. 99. 78. < 1
8 30 -1 210. 181. 70. < 1
0 31 -2 36486. 32416. 424. o -3
-1 31 -1 36486. 32416. 424. o -2
-1 31 1 36486. 32416. 424. o 1
0 31 2 36486. 33619. 319. o -3
1 31 1 36486. 33619. 319. o -2
1 31 -1 36486. 33619. 319. o 1
-1 31 1 38570. 43228. 490. o -3
0 31 2 38570. 43228. 490. o -2
1 31 1 38570. 43228. 490. o 1
1 31 -1 38570. 43211. 474. o -3
0 31 -2 38570. 43211. 474. o -2
-1 31 -1 38570. 43211. 474. o 1
2 31 1 1803. 1831. 66. o 1
2 31 -1 1803. 1840. 58. o 1
-2 31 4 6255. 6533. 80. o -3
1 31 5 6255. 6533. 80. o -2
3 31 1 6255. 6533. 80. o 1
-1 31 5 6197. 6623. 97. o -3
2 31 4 6197. 6623. 97. o -2
3 31 -1 6197. 6623. 97. o 1
4 31 1 767. 793. 45. o 1
4 31 -1 767. 841. 60. o 1
-2 31 8 2543. 2901. 74. o -3
3 31 7 2543. 2901. 74. o -2
5 31 -1 2543. 2901. 74. o 1
6 31 1 1073. 410. 74. o 1
6 31 -1 1073. 641. 60. o 1
0 32 -2 11344. 10298. 266. o -3
-1 32 -1 11344. 10298. 266. o -2
-1 32 1 11344. 10298. 266. o 1
0 32 2 11344. 10698. 188. o -3
1 32 1 11344. 10698. 188. o -2
1 32 -1 11344. 10698. 188. o 1
-1 32 1 11972. 13391. 332. o -3
0 32 2 11972. 13391. 332. o -2
1 32 1 11972. 13391. 332. o 1
1 32 -1 11973. 13830. 342. o -3
0 32 -2 11973. 13830. 342. o -2
-1 32 -1 11973. 13830. 342. o 1
2 32 1 319. 424. 68. o 1
2 32 -1 319. 290. 56. o 1
-2 32 4 2612. 2328. 56. o -3
1 32 5 2612. 2328. 56. o -2
3 32 1 2612. 2328. 56. o 1
-1 32 5 2688. 2717. 64. o -3
2 32 4 2688. 2717. 64. o -2
3 32 -1 2688. 2717. 64. o 1
4 32 1 288. 342. 45. o 1
4 32 -1 288. 313. 56. o 1
6 32 1 468. 241. 66. o 1
6 32 -1 468. 340. 58. o 1
0 33 -2 16010. 13224. 317. o -3
-1 33 -1 16010. 13224. 317. o -2
-1 33 1 16010. 13224. 317. o 1
0 33 2 16010. 13346. 303. o -3
1 33 1 16010. 13346. 303. o -2
1 33 -1 16010. 13346. 303. o 1
-1 33 1 16887. 18335. 325. o -3
0 33 2 16887. 18335. 325. o -2
1 33 1 16887. 18335. 325. o 1
1 33 -1 16887. 17789. 340. o -3
0 33 -2 16887. 17789. 340. o -2
-1 33 -1 16887. 17789. 340. o 1
2 33 1 511. 163. 64. < 1
2 33 -1 510. 132. 54. < 1
4 33 1 130. -25. 39. < 1
4 33 -1 130. 76. 56. < 1
-3 33 7 1576. 995. 58. o -3
2 33 8 1576. 995. 58. o -2
5 33 1 1576. 995. 58. o 1
-2 33 8 1674. 1691. 62. o -3
3 33 7 1674. 1691. 62. o -2
5 33 -1 1674. 1691. 62. o 1
1 34 -1 3434. 2213. 109. o -3
0 34 -2 3434. 2213. 109. o -2
-1 34 -1 3434. 2213. 109. o 1
2 34 1 667. 190. 60. o 1
2 34 -1 667. 227. 54. o 1
-2 34 4 866. 663. 49. o -3
1 34 5 866. 663. 49. o -2
3 34 1 866. 663. 49. o 1
-1 34 5 941. 459. 51. o -3
2 34 4 941. 459. 51. o -2
3 34 -1 941. 459. 51. o 1
4 34 1 38. -29. 52. < 1
4 34 -1 38. -43. 51. < 1
0 0 4 33467. 30084. 82. o -3
2 0 2 33467. 30084. 82. o -2
2 0 -2 33467. 30084. 82. o 1
0 0 -2 6. 19. 6. o 1
2 0 -2 33254. 28106. 84. o -3
0 0 -4 33254. 28106. 84. o -2
-2 0 -2 33254. 28106. 84. o 1
4 0 -2 34. -10. 52. < 1
-4 0 8 5615. 6267. 150. o -3
2 0 10 5615. 6267. 150. o -2
6 0 2 5615. 6267. 150. o 1
-2 0 10 5584. 6032. 148. o -3
4 0 8 5584. 6032. 148. o -2
6 0 -2 5584. 6032. 148. o 1
8 0 2 2168. 2068. 89. o 1
8 0 -2 2168. 1901. 87. o 1
0 1 -4 5. 45. 27. < -3
-2 1 -2 5. 45. 27. < -2
-2 1 2 5. 45. 27. < 1
0 1 4 5. 39. 8. o -3
2 1 2 5. 39. 8. o -2
2 1 -2 5. 39. 8. o 1
1 1 -2 35. 29. 4. o 1
-2 1 2 6. -4. 12. < -3
0 1 4 6. -4. 12. < -2
2 1 2 6. -4. 12. < 1
2 1 -2 6. 25. 14. < -3
0 1 -4 6. 25. 14. < -2
-2 1 -2 6. 25. 14. < 1
3 1 2 60. 148. 41. o 1
3 1 -2 60. 93. 16. o 1
-3 1 5 4650. 3968. 91. o -3
1 1 7 4650. 3968. 91. o -2
4 1 2 4650. 3968. 91. o 1
-1 1 7 4658. 3844. 60. o -3
3 1 5 4658. 3844. 60. o -2
4 1 -2 4658. 3844. 60. o 1
5 1 2 360. 274. 33. o 1
5 1 -2 360. 375. 74. o 1
-4 1 8 134. 173. 47. o -3
2 1 10 134. 173. 47. o -2
6 1 2 134. 173. 47. o 1
-2 1 10 143. 260. 58. o -3
4 1 8 143. 260. 58. o -2
6 1 -2 143. 260. 58. o 1
7 1 2 159. 187. 64. < 1
7 1 -2 159. 95. 64. < 1
-5 1 11 5260. 6265. 150. o -3
3 1 13 5260. 6265. 150. o -2
8 1 2 5260. 6265. 150. o 1
-3 1 13 5193. 6189. 150. o -3
5 1 11 5193. 6189. 150. o -2
8 1 -2 5193. 6189. 150. o 1
9 1 2 3203. 2726. 97. o 1
9 1 -2 3203. 2614. 95. o 1
0 2 4 101238. 96805. 101. o -3
2 2 2 101238. 96805. 101. o -2
2 2 -2 101238. 96805. 101. o 1
1 2 1 798. 657. 8. o -3
1 2 -1 798. 657. 8. o -2
0 2 -2 798. 657. 8. o 1
2 2 -2 101766. 94034. 128. o -3
0 2 -4 101766. 94034. 128. o -2
-2 2 -2 101766. 94034. 128. o 1
3 2 -2 2254. 2083. 43. o 1
-3 2 5 668. 476. 35. o -3
1 2 7 668. 476. 35. o -2
4 2 2 668. 476. 35. o 1
-1 2 7 590. 715. 27. o -3
3 2 5 590. 715. 27. o -2
4 2 -2 590. 715. 27. o 1
5 2 2 846. 657. 29. o 1
5 2 -2 846. 764. 45. o 1
7 2 2 2834. 2709. 99. o 1
7 2 -2 2834. 3066. 97. o 1
-5 2 11 231. 258. 115. < -3
3 2 13 231. 258. 115. < -2
8 2 2 231. 258. 115. < 1
-3 2 13 242. 179. 43. o -3
5 2 11 242. 179. 43. o -2
8 2 -2 242. 179. 43. o 1
9 2 2 411. 332. 117. < 1
9 2 -2 411. 497. 111. o 1
-6 2 14 48742. 49773. 583. o -3
4 2 16 48742. 49773. 583. o -2
10 2 2 48742. 49773. 583. o 1
-4 2 16 47544. 55055. 597. o -3
6 2 14 47544. 55055. 597. o -2
10 2 -2 47544. 55055. 597. o 1
0 3 -4 10. 56. 19. < -3
-2 3 -2 10. 56. 19. < -2
-2 3 2 10. 56. 19. < 1
0 3 4 10. 31. 12. < -3
2 3 2 10. 31. 12. < -2
2 3 -2 10. 31. 12. < 1
1 3 1 369. 291. 14. o -3
1 3 -1 369. 291. 14. o -2
0 3 -2 369. 291. 14. o 1
1 3 2 152. 150. 12. o 1
1 3 -2 152. 150. 8. o 1
-2 3 2 9. 60. 29. < -3
0 3 4 9. 60. 29. < -2
2 3 2 9. 60. 29. < 1
2 3 -2 9. 33. 12. < -3
0 3 -4 9. 33. 12. < -2
-2 3 -2 9. 33. 12. < 1
3 3 -2 282. 239. 12. o 1
-3 3 5 5807. 5711. 111. o -3
1 3 7 5807. 5711. 111. o -2
4 3 2 5807. 5711. 111. o 1
-1 3 7 5806. 5307. 105. o -3
3 3 5 5806. 5307. 105. o -2
4 3 -2 5806. 5307. 105. o 1
5 3 2 490. 336. 35. o 1
-4 3 8 89. -23. 39. < -3
2 3 10 89. -23. 39. < -2
6 3 2 89. -23. 39. < 1
-5 3 11 7094. 7833. 171. o -3
3 3 13 7094. 7833. 171. o -2
8 3 2 7094. 7833. 171. o 1
-3 3 13 7089. 7460. 179. o -3
5 3 11 7089. 7460. 179. o -2
8 3 -2 7089. 7460. 179. o 1
9 3 2 3516. 3667. 107. o 1
9 3 -2 3516. 4347. 120. o 1
-6 3 14 178. 93. 111. < -3
4 3 16 178. 93. 111. < -2
10 3 2 178. 93. 111. < 1
-4 3 16 182. 161. 115. < -3
6 3 14 182. 161. 115. < -2
10 3 -2 182. 161. 115. < 1
0 4 4 26196. 25657. 117. o -3
2 4 2 26196. 25657. 117. o -2
2 4 -2 26196. 25657. 117. o 1
-1 4 -1 990. 966. 37. o -3
-1 4 1 990. 966. 37. o -2
0 4 2 990. 966. 37. o 1
1 4 1 990. 865. 16. o -3
1 4 -1 990. 865. 16. o -2
0 4 -2 990. 865. 16. o 1
1 4 2 437. 342. 17. o 1
1 4 -2 437. 373. 8. o 1
-2 4 2 26129. 23214. 165. o -3
0 4 4 26129. 23214. 165. o -2
2 4 2 26129. 23214. 165. o 1
2 4 -2 26129. 23312. 82. o -3
0 4 -4 26129. 23312. 82. o -2
-2 4 -2 26129. 23312. 82. o 1
3 4 -2 3228. 2763. 41. o 1
-3 4 5 580. 400. 35. o -3
1 4 7 580. 400. 35. o -2
4 4 2 580. 400. 35. o 1
-1 4 7 579. 525. 23. o -3
3 4 5 579. 525. 23. o -2
4 4 -2 579. 525. 23. o 1
5 4 2 2914. 2369. 82. o 1
9 4 2 561. 449. 52. o 1
9 4 -2 561. 845. 113. o 1
-4 4 16 6190. 6644. 155. o -3
6 4 14 6190. 6644. 155. o -2
10 4 -2 6190. 6644. 155. o 1
11 4 2 1195. 717. 107. o 1
11 4 -2 1195. 896. 109. o 1
0 5 4 7. 93. 29. o -3
2 5 2 7. 93. 29. o -2
2 5 -2 7. 93. 29. o 1
-1 5 -1 866. 754. 21. o -3
-1 5 1 866. 754. 21. o -2
0 5 2 866. 754. 21. o 1
1 5 1 866. 801. 17. o -3
1 5 -1 866. 801. 17. o -2
0 5 -2 866. 801. 17. o 1
1 5 2 109. 119. 23. o 1
1 5 -2 109. 119. 14. o 1
-2 5 2 6. -14. 41. < -3
0 5 4 6. -14. 41. < -2
2 5 2 6. -14. 41. < 1
2 5 -2 6. 17. 16. < -3
0 5 -4 6. 17. 16. < -2
-2 5 -2 6. 17. 16. < 1
3 5 2 778. 628. 35. o 1
3 5 -2 778. 670. 21. o 1
-3 5 5 3197. 2857. 54. o -3
1 5 7 3197. 2857. 54. o -2
4 5 2 3197. 2857. 54. o 1
-1 5 7 3326. 3247. 58. o -3
3 5 5 3326. 3247. 58. o -2
4 5 -2 3326. 3247. 58. o 1
5 5 2 770. 482. 39. o 1
9 5 2 1654. 1840. 87. o 1
9 5 -2 1654. 1323. 76. o 1
-6 5 14 252. 350. 124. < -3
4 5 16 252. 350. 124. < -2
10 5 2 252. 350. 124. < 1
-4 5 16 280. 120. 52. < -3
6 5 14 280. 120. 52. < -2
10 5 -2 280. 120. 52. < 1
11 5 2 835. 1234. 97. o 1
11 5 -2 835. 1302. 99. o 1
0 6 -4 45013. 49614. 179. o -3
-2 6 -2 45013. 49614. 179. o -2
-2 6 2 45013. 49614. 179. o 1
0 6 4 45013. 50500. 185. o -3
2 6 2 45013. 50500. 185. o -2
2 6 -2 45013. 50500. 185. o 1
-1 6 -1 122. 136. 16. o -3
-1 6 1 122. 136. 16. o -2
0 6 2 122. 136. 16. o 1
1 6 1 122. 154. 16. o -3
1 6 -1 122. 154. 16. o -2
0 6 -2 122. 154. 16. o 1
1 6 2 63. 72. 14. o 1
1 6 -2 63. 68. 16. o 1
-2 6 2 43534. 39962. 255. o -3
0 6 4 43534. 39962. 255. o -2
2 6 2 43534. 39962. 255. o 1
2 6 -2 43534. 42385. 124. o -3
0 6 -4 43534. 42385. 124. o -2
-2 6 -2 43534. 42385. 124. o 1
3 6 2 3058. 2736. 41. o 1
3 6 -2 3058. 2730. 43. o 1
-3 6 5 3304. 3539. 60. o -3
1 6 7 3304. 3539. 60. o -2
4 6 2 3304. 3539. 60. o 1
-1 6 7 3473. 3125. 54. o -3
3 6 5 3473. 3125. 54. o -2
4 6 -2 3473. 3125. 54. o 1
5 6 2 495. 521. 45. o 1
-4 6 16 44233. 53536. 562. o -3
6 6 14 44233. 53536. 562. o -2
10 6 -2 44233. 53536. 562. o 1
11 6 2 1113. 1119. 97. o 1
11 6 -2 1113. 1236. 99. o 1
-7 6 17 775. 847. 87. o -3
5 6 19 775. 847. 87. o -2
12 6 2 775. 847. 87. o 1
-5 6 19 803. 738. 86. o -3
7 6 17 803. 738. 86. o -2
12 6 -2 803. 738. 86. o 1
0 7 -4 21. 51. 16. o -3
-2 7 -2 21. 51. 16. o -2
-2 7 2 21. 51. 16. o 1
0 7 4 21. 122. 41. o -3
2 7 2 21. 122. 41. o -2
2 7 -2 21. 122. 41. o 1
-1 7 -1 11880. 10158. 70. o -3
-1 7 1 11880. 10158. 70. o -2
0 7 2 11880. 10158. 70. o 1
1 7 1 11880. 10097. 74. o -3
1 7 -1 11880. 10097. 74. o -2
0 7 -2 11880. 10097. 74. o 1
1 7 2 609. 560. 14. o 1
1 7 -2 609. 494. 14. o 1
-2 7 2 21. 29. 19. < -3
0 7 4 21. 29. 19. < -2
2 7 2 21. 29. 19. < 1
2 7 -2 21. 86. 27. o -3
0 7 -4 21. 86. 27. o -2
-2 7 -2 21. 86. 27. o 1
3 7 2 520. 451. 17. o 1
3 7 -2 520. 499. 21. o 1
-3 7 5 6005. 5737. 93. o -3
1 7 7 6005. 5737. 93. o -2
4 7 2 6005. 5737. 93. o 1
-1 7 7 5970. 5773. 72. o -3
3 7 5 5970. 5773. 72. o -2
4 7 -2 5970. 5773. 72. o 1
5 7 2 95. 58. 66. < 1
-6 7 14 447. 499. 80. o -3
4 7 16 447. 499. 80. o -2
10 7 2 447. 499. 80. o 1
-4 7 16 469. 389. 117. o -3
6 7 14 469. 389. 117. o -2
10 7 -2 469. 389. 117. o 1
11 7 2 249. 303. 86. o 1
11 7 -2 249. 394. 115. o 1
-7 7 17 3220. 3527. 134. o -3
5 7 19 3220. 3527. 134. o -2
12 7 2 3220. 3527. 134. o 1
-5 7 19 3212. 3644. 136. o -3
7 7 17 3212. 3644. 136. o -2
12 7 -2 3212. 3644. 136. o 1
0 8 -4 27744. 25187. 103. o -3
-2 8 -2 27744. 25187. 103. o -2
-2 8 2 27744. 25187. 103. o 1
0 8 4 27744. 25494. 183. o -3
2 8 2 27744. 25494. 183. o -2
2 8 -2 27744. 25494. 183. o 1
-1 8 -1 3074. 3135. 47. o -3
-1 8 1 3074. 3135. 47. o -2
0 8 2 3074. 3135. 47. o 1
1 8 1 3074. 3216. 45. o -3
1 8 -1 3074. 3216. 45. o -2
0 8 -2 3074. 3216. 45. o 1
1 8 2 1417. 1356. 21. o 1
1 8 -2 1417. 1477. 27. o 1
-2 8 2 29005. 28889. 260. o -3
0 8 4 29005. 28889. 260. o -2
2 8 2 29005. 28889. 260. o 1
2 8 -2 29005. 28508. 144. o -3
0 8 -4 29005. 28508. 144. o -2
-2 8 -2 29005. 28508. 144. o 1
3 8 2 3037. 2868. 41. o 1
3 8 -2 3037. 2907. 45. o 1
-3 8 5 6769. 7489. 105. o -3
1 8 7 6769. 7489. 105. o -2
4 8 2 6769. 7489. 105. o 1
-1 8 7 7126. 6411. 76. o -3
3 8 5 7126. 6411. 76. o -2
4 8 -2 7126. 6411. 76. o 1
5 8 2 3330. 2952. 89. o 1
11 8 2 1582. 1467. 93. o 1
11 8 -2 1582. 1518. 95. o 1
-7 8 17 1159. 1597. 113. o -3
5 8 19 1159. 1597. 113. o -2
12 8 2 1159. 1597. 113. o 1
-5 8 19 1254. 1339. 111. o -3
7 8 17 1254. 1339. 111. o -2
12 8 -2 1254. 1339. 111. o 1
0 9 -4 146. 154. 37. o -3
-2 9 -2 146. 154. 37. o -2
-2 9 2 146. 154. 37. o 1
0 9 4 146. 171. 39. o -3
2 9 2 146. 171. 39. o -2
2 9 -2 146. 171. 39. o 1
-1 9 -1 14629. 12614. 109. o -3
-1 9 1 14629. 12614. 109. o -2
0 9 2 14629. 12614. 109. o 1
1 9 1 14629. 12672. 86. o -3
1 9 -1 14629. 12672. 86. o -2
0 9 -2 14629. 12672. 86. o 1
1 9 2 1190. 1119. 21. o 1
1 9 -2 1190. 1036. 23. o 1
-2 9 2 145. 49. 72. < -3
0 9 4 145. 49. 72. < -2
2 9 2 145. 49. 72. < 1
2 9 -2 145. 97. 33. < -3
0 9 -4 145. 97. 33. < -2
-2 9 -2 145. 97. 33. < 1
3 9 2 309. 387. 37. o 1
3 9 -2 309. 338. 37. o 1
-3 9 5 7616. 7328. 144. o -3
1 9 7 7616. 7328. 144. o -2
4 9 2 7616. 7328. 144. o 1
-1 9 7 7588. 7297. 87. o -3
3 9 5 7588. 7297. 87. o -2
4 9 -2 7588. 7297. 87. o 1
5 9 2 393. 286. 37. o 1
11 9 2 147. 194. 66. < 1
11 9 -2 147. 93. 124. < 1
-7 9 17 4402. 4536. 157. o -3
5 9 19 4402. 4536. 157. o -2
12 9 2 4402. 4536. 157. o 1
-5 9 19 4573. 4231. 154. o -3
7 9 17 4573. 4231. 154. o -2
12 9 -2 4573. 4231. 154. o 1
13 9 2 920. 630. 87. o 1
13 9 -2 920. 431. 84. o 1
0 10 -4 14057. 12002. 120. o -3
-2 10 -2 14057. 12002. 120. o -2
-2 10 2 14057. 12002. 120. o 1
0 10 4 14057. 12167. 117. o -3
2 10 2 14057. 12167. 117. o -2
2 10 -2 14057. 12167. 117. o 1
-1 10 -1 20025. 18442. 132. o -3
-1 10 1 20025. 18442. 132. o -2
0 10 2 20025. 18442. 132. o 1
1 10 1 20025. 18663. 111. o -3
1 10 -1 20025. 18663. 111. o -2
0 10 -2 20025. 18663. 111. o 1
1 10 2 4815. 4574. 49. o 1
1 10 -2 4815. 4882. 51. o 1
-2 10 2 14716. 14903. 247. o -3
0 10 4 14716. 14903. 247. o -2
2 10 2 14716. 14903. 247. o 1
2 10 -2 14716. 14205. 124. o -3
0 10 -4 14716. 14205. 124. o -2
-2 10 -2 14716. 14205. 124. o 1
3 10 2 8420. 7853. 87. o 1
3 10 -2 8420. 7676. 82. o 1
-3 10 5 2049. 2344. 76. o -3
1 10 7 2049. 2344. 76. o -2
4 10 2 2049. 2344. 76. o 1
-1 10 7 2206. 1720. 41. o -3
3 10 5 2206. 1720. 41. o -2
4 10 -2 2206. 1720. 41. o 1
5 10 2 1820. 2229. 80. o 1
5 10 -2 1820. 1877. 56. o 1
-4 10 8 19335. 24514. 412. o -3
2 10 10 19335. 24514. 412. o -2
6 10 2 19335. 24514. 412. o 1
11 10 2 2551. 2445. 130. o 1
11 10 -2 2551. 2441. 128. o 1
13 10 2 443. 396. 113. o 1
13 10 -2 443. 694. 117. o 1
0 11 -4 101. 157. 51. o -3
-2 11 -2 101. 157. 51. o -2
-2 11 2 101. 157. 51. o 1
0 11 4 101. 198. 52. o -3
2 11 2 101. 198. 52. o -2
2 11 -2 101. 198. 52. o 1
-1 11 -1 8790. 8473. 101. o -3
-1 11 1 8790. 8473. 101. o -2
0 11 2 8790. 8473. 101. o 1
1 11 1 8790. 8525. 82. o -3
1 11 -1 8790. 8525. 82. o -2
0 11 -2 8790. 8525. 82. o 1
1 11 2 455. 344. 23. o 1
1 11 -2 455. 385. 31. o 1
-2 11 2 87. 97. 80. < -3
0 11 4 87. 97. 80. < -2
2 11 2 87. 97. 80. < 1
2 11 -2 87. 80. 52. < -3
0 11 -4 87. 80. 52. < -2
-2 11 -2 87. 80. 52. < 1
3 11 2 3. 91. 43. < 1
3 11 -2 3. 49. 37. < 1
-3 11 5 3382. 3414. 99. o -3
1 11 7 3382. 3414. 99. o -2
4 11 2 3382. 3414. 99. o 1
-1 11 7 3409. 2965. 52. o -3
3 11 5 3409. 2965. 52. o -2
4 11 -2 3409. 2965. 52. o 1
5 11 2 3555. 3679. 111. o 1
5 11 -2 3555. 3307. 76. o 1
-4 11 8 154. 255. 101. < -3
2 11 10 154. 255. 101. < -2
6 11 2 154. 255. 101. < 1
11 11 2 1475. 1673. 107. o 1
11 11 -2 1475. 1568. 107. o 1
-7 11 17 1480. 1792. 130. o -3
5 11 19 1480. 1792. 130. o -2
12 11 2 1480. 1792. 130. o 1
-5 11 19 1464. 1731. 130. o -3
7 11 17 1464. 1731. 130. o -2
12 11 -2 1464. 1731. 130. o 1
13 11 2 1555. 1621. 126. o 1
13 11 -2 1555. 1590. 126. o 1
0 12 -4 60881. 58044. 243. o -3
-2 12 -2 60881. 58044. 243. o -2
-2 12 2 60881. 58044. 243. o 1
0 12 4 60881. 57834. 241. o -3
2 12 2 60881. 57834. 241. o -2
2 12 -2 60881. 57834. 241. o 1
-1 12 -1 5680. 5509. 87. o -3
-1 12 1 5680. 5509. 87. o -2
0 12 2 5680. 5509. 87. o 1
1 12 1 5680. 5517. 87. o -3
1 12 -1 5680. 5517. 87. o -2
0 12 -2 5680. 5517. 87. o 1
1 12 2 2346. 2386. 39. o 1
1 12 -2 2346. 2334. 41. o 1
-2 12 2 62843. 65248. 439. o -3
0 12 4 62843. 65248. 439. o -2
2 12 2 62843. 65248. 439. o 1
2 12 -2 62843. 65271. 264. o -3
0 12 -4 62843. 65271. 264. o -2
-2 12 -2 62843. 65271. 264. o 1
3 12 2 200. 311. 41. o 1
3 12 -2 200. 272. 49. o 1
-3 12 5 2466. 2450. 62. o -3
1 12 7 2466. 2450. 62. o -2
4 12 2 2466. 2450. 62. o 1
-1 12 7 2528. 2060. 49. o -3
3 12 5 2528. 2060. 49. o -2
4 12 -2 2528. 2060. 49. o 1
5 12 2 1728. 1821. 78. o 1
5 12 -2 1728. 1518. 52. o 1
-4 12 8 66513. 70873. 538. o -3
2 12 10 66513. 70873. 538. o -2
6 12 2 66513. 70873. 538. o 1
-7 12 17 1104. 1141. 113. o -3
5 12 19 1104. 1141. 113. o -2
12 12 2 1104. 1141. 113. o 1
-5 12 19 1073. 1473. 117. o -3
7 12 17 1073. 1473. 117. o -2
12 12 -2 1073. 1473. 117. o 1
13 12 2 90. -16. 109. < 1
13 12 -2 90. 86. 113. < 1
0 13 -4 6. 25. 52. < -3
-2 13 -2 6. 25. 52. < -2
-2 13 2 6. 25. 52. < 1
0 13 4 6. 4. 58. < -3
2 13 2 6. 4. 58. < -2
2 13 -2 6. 4. 58. < 1
-1 13 -1 3136. 3101. 66. o -3
-1 13 1 3136. 3101. 66. o -2
0 13 2 3136. 3101. 66. o 1
1 13 1 3136. 3224. 86. o -3
1 13 -1 3136. 3224. 86. o -2
0 13 -2 3136. 3224. 86. o 1
1 13 2 1243. 1104. 29. o 1
1 13 -2 1243. 1098. 29. o 1
-2 13 2 6. -2. 86. < -3
0 13 4 6. -2. 86. < -2
2 13 2 6. -2. 86. < 1
2 13 -2 6. -39. 62. < -3
0 13 -4 6. -39. 62. < -2
-2 13 -2 6. -39. 62. < 1
3 13 2 217. 280. 51. o 1
3 13 -2 217. 257. 45. o 1
-3 13 5 2584. 2552. 70. o -3
1 13 7 2584. 2552. 70. o -2
4 13 2 2584. 2552. 70. o 1
-1 13 7 2489. 2773. 56. o -3
3 13 5 2489. 2773. 56. o -2
4 13 -2 2489. 2773. 56. o 1
5 13 2 2784. 2839. 97. o 1
5 13 -2 2784. 2740. 66. o 1
-4 13 8 95. 70. 111. < -3
2 13 10 95. 70. 111. < -2
6 13 2 95. 70. 111. < 1
-2 13 10 104. 157. 84. < -3
4 13 8 104. 157. 84. < -2
6 13 -2 104. 157. 84. < 1
-7 13 17 4721. 5542. 165. o -3
5 13 19 4721. 5542. 165. o -2
12 13 2 4721. 5542. 165. o 1
-5 13 19 4738. 5206. 161. o -3
7 13 17 4738. 5206. 161. o -2
12 13 -2 4738. 5206. 161. o 1
13 13 2 1317. 1601. 113. o 1
13 13 -2 1316. 1720. 115. o 1
0 14 -4 35304. 33024. 206. o -3
-2 14 -2 35304. 33024. 206. o -2
-2 14 2 35304. 33024. 206. o 1
0 14 4 35304. 33067. 208. o -3
2 14 2 35304. 33067. 208. o -2
2 14 -2 35304. 33067. 208. o 1
-1 14 -1 999. 1045. 41. o -3
-1 14 1 999. 1045. 41. o -2
0 14 2 999. 1045. 41. o 1
1 14 1 999. 1018. 58. o -3
1 14 -1 999. 1018. 58. o -2
0 14 -2 999. 1018. 58. o 1
1 14 2 10. 95. 39. < 1
1 14 -2 10. -2. 43. < 1
-2 14 2 36523. 37655. 429. o -3
0 14 4 36523. 37655. 429. o -2
2 14 2 36523. 37655. 429. o 1
2 14 -2 36523. 37886. 227. o -3
0 14 -4 36523. 37886. 227. o -2
-2 14 -2 36523. 37886. 227. o 1
3 14 2 5286. 5089. 80. o 1
3 14 -2 5286. 4979. 76. o 1
-3 14 5 5479. 5191. 95. o -3
1 14 7 5479. 5191. 95. o -2
4 14 2 5479. 5191. 95. o 1
-1 14 7 5355. 4998. 97. o -3
3 14 5 5355. 4998. 97. o -2
4 14 -2 5355. 4998. 97. o 1
5 14 2 6799. 7122. 175. o 1
5 14 -2 6799. 6823. 119. o 1
-4 14 8 10344. 10756. 223. o -3
2 14 10 10344. 10756. 223. o -2
6 14 2 10344. 10756. 223. o 1
-2 14 10 10290. 10579. 159. o -3
4 14 8 10290. 10579. 159. o -2
6 14 -2 10290. 10579. 159. o 1
7 14 2 9123. 9938. 204. o 1
-7 14 17 2386. 1811. 154. o -3
5 14 19 2386. 1811. 154. o -2
12 14 2 2386. 1811. 154. o 1
-5 14 19 2302. 2596. 157. o -3
7 14 17 2302. 2596. 157. o -2
12 14 -2 2302. 2596. 157. o 1
13 14 2 1907. 1525. 111. o 1
13 14 -2 1907. 2038. 117. o 1
0 15 -4 70. 41. 58. < -3
-2 15 -2 70. 41. 58. < -2
-2 15 2 70. 41. 58. < 1
0 15 4 70. 56. 66. < -3
2 15 2 70. 56. 66. < -2
2 15 -2 70. 56. 66. < 1
-1 15 -1 4591. 4786. 91. o -3
-1 15 1 4591. 4786. 91. o -2
0 15 2 4591. 4786. 91. o 1
1 15 1 4591. 4573. 120. o -3
1 15 -1 4591. 4573. 120. o -2
0 15 -2 4591. 4573. 120. o 1
1 15 2 578. 548. 29. o 1
1 15 -2 578. 472. 39. o 1
-2 15 2 59. 101. 103. < -3
0 15 4 59. 101. 103. < -2
2 15 2 59. 101. 103. < 1
2 15 -2 59. 260. 62. o -3
0 15 -4 59. 260. 62. o -2
-2 15 -2 59. 260. 62. o 1
3 15 2 3247. 3329. 60. o 1
3 15 -2 3247. 3094. 60. o 1
-3 15 5 16251. 16477. 188. o -3
1 15 7 16251. 16477. 188. o -2
4 15 2 16251. 16477. 188. o 1
-1 15 7 16795. 16611. 171. o -3
3 15 5 16795. 16611. 171. o -2
4 15 -2 16795. 16611. 171. o 1
5 15 2 1009. 1012. 74. o 1
5 15 -2 1009. 954. 49. o 1
-4 15 8 367. 383. 117. o -3
2 15 10 367. 383. 117. o -2
6 15 2 367. 383. 117. o 1
-2 15 10 364. 429. 93. o -3
4 15 8 364. 429. 93. o -2
6 15 -2 364. 429. 93. o 1
7 15 2 172. 360. 101. o 1
-7 15 17 4069. 4487. 179. o -3
5 15 19 4069. 4487. 179. o -2
12 15 2 4069. 4487. 179. o 1
-5 15 19 3960. 5449. 192. o -3
7 15 17 3960. 5449. 192. o -2
12 15 -2 3960. 5449. 192. o 1
13 15 2 4599. 3477. 136. o 1
13 15 -2 4599. 4124. 146. o 1
0 16 -4 40490. 41440. 346. o -3
-2 16 -2 40490. 41440. 346. o -2
-2 16 2 40490. 41440. 346. o 1
0 16 4 40490. 42049. 295. o -3
2 16 2 40490. 42049. 295. o -2
2 16 -2 40490. 42049. 295. o 1
-1 16 -1 1550. 1514. 52. o -3
-1 16 1 1550. 1514. 52. o -2
0 16 2 1550. 1514. 52. o 1
1 16 1 1550. 1710. 76. o -3
1 16 -1 1550. 1710. 76. o -2
0 16 -2 1550. 1710. 76. o 1
1 16 2 856. 882. 35. o 1
1 16 -2 856. 775. 33. o 1
-2 16 2 40536. 41922. 389. o -3
0 16 4 40536. 41922. 389. o -2
2 16 2 40536. 41922. 389. o 1
2 16 -2 40536. 41887. 260. o -3
0 16 -4 40536. 41887. 260. o -2
-2 16 -2 40536. 41887. 260. o 1
3 16 2 13152. 12217. 120. o 1
3 16 -2 13152. 12076. 117. o 1
-3 16 5 5868. 6061. 111. o -3
1 16 7 5868. 6061. 111. o -2
4 16 2 5868. 6061. 111. o 1
-1 16 7 6545. 6487. 115. o -3
3 16 5 6545. 6487. 115. o -2
4 16 -2 6545. 6487. 115. o 1
5 16 2 4511. 5008. 140. o 1
5 16 -2 4511. 5670. 105. o 1
-4 16 8 28556. 28524. 361. o -3
2 16 10 28556. 28524. 361. o -2
6 16 2 28556. 28524. 361. o 1
-2 16 10 27930. 28988. 233. o -3
4 16 8 27930. 28988. 233. o -2
6 16 -2 27930. 28988. 233. o 1
7 16 2 6972. 7083. 163. o 1
-7 16 17 2680. 3096. 159. o -3
5 16 19 2680. 3096. 159. o -2
12 16 2 2680. 3096. 159. o 1
-5 16 19 2948. 2208. 167. o -3
7 16 17 2948. 2208. 167. o -2
12 16 -2 2948. 2208. 167. o 1
13 16 2 447. 120. 113. < 1
13 16 -2 447. 290. 113. < 1
0 17 -4 86. 144. 97. < -3
-2 17 -2 86. 144. 97. < -2
-2 17 2 86. 144. 97. < 1
0 17 4 86. 4. 51. < -3
2 17 2 86. 4. 51. < -2
2 17 -2 86. 4. 51. < 1
-1 17 -1 2977. 3140. 76. o -3
-1 17 1 2977. 3140. 76. o -2
0 17 2 2977. 3140. 76. o 1
1 17 1 2977. 3362. 115. o -3
1 17 -1 2977. 3362. 115. o -2
0 17 -2 2977. 3362. 115. o 1
1 17 2 1783. 1813. 49. o 1
1 17 -2 1783. 1895. 52. o 1
-2 17 2 90. 124. 113. < -3
0 17 4 90. 124. 113. < -2
2 17 2 90. 124. 113. < 1
2 17 -2 90. 111. 70. < -3
0 17 -4 90. 111. 70. < -2
-2 17 -2 90. 111. 70. < 1
3 17 2 42. 47. 60. < 1
3 17 -2 42. 138. 52. < 1
-3 17 5 13273. 13444. 163. o -3
1 17 7 13273. 13444. 163. o -2
4 17 2 13273. 13444. 163. o 1
-1 17 7 12590. 13030. 163. o -3
3 17 5 12590. 13030. 163. o -2
4 17 -2 12590. 13030. 163. o 1
5 17 2 12774. 14203. 233. o 1
5 17 -2 12774. 13722. 165. o 1
-4 17 8 327. 383. 120. o -3
2 17 10 327. 383. 120. o -2
6 17 2 327. 383. 120. o 1
-2 17 10 345. 264. 78. o -3
4 17 8 345. 264. 78. o -2
6 17 -2 345. 264. 78. o 1
7 17 2 330. 466. 119. o 1
7 17 -2 330. 428. 60. o 1
-5 17 11 4319. 4349. 152. o -3
3 17 13 4319. 4349. 152. o -2
8 17 2 4319. 4349. 152. o 1
-7 17 17 4555. 4143. 140. o -3
5 17 19 4555. 4143. 140. o -2
12 17 2 4555. 4143. 140. o 1
13 17 2 1580. 865. 124. o 1
13 17 -2 1580. 781. 128. o 1
14 17 2 330. 183. 103. < 1
14 17 -2 330. 346. 103. o 1
0 18 -4 120034. 123428. 647. o -3
-2 18 -2 120034. 123428. 647. o -2
-2 18 2 120034. 123428. 647. o 1
0 18 4 120034. 124121. 457. o -3
2 18 2 120034. 124121. 457. o -2
2 18 -2 120034. 124121. 457. o 1
-1 18 -1 1278. 1259. 52. o -3
-1 18 1 1278. 1259. 52. o -2
0 18 2 1278. 1259. 52. o 1
1 18 1 1278. 1176. 72. o -3
1 18 -1 1278. 1176. 72. o -2
0 18 -2 1278. 1176. 72. o 1
1 18 2 5736. 5670. 82. o 1
1 18 -2 5736. 5647. 82. o 1
-2 18 2 121686. 130025. 770. o -3
0 18 4 121686. 130025. 770. o -2
2 18 2 121686. 130025. 770. o 1
2 18 -2 121686. 131535. 418. o -3
0 18 -4 121686. 131535. 418. o -2
-2 18 -2 121686. 131535. 418. o 1
3 18 2 1679. 1792. 49. o 1
3 18 -2 1679. 1860. 51. o 1
-3 18 5 7583. 7925. 128. o -3
1 18 7 7583. 7925. 128. o -2
4 18 2 7583. 7925. 128. o 1
-1 18 7 7455. 7987. 130. o -3
3 18 5 7455. 7987. 130. o -2
4 18 -2 7455. 7987. 130. o 1
5 18 2 1163. 1011. 51. o 1
5 18 -2 1163. 1215. 74. o 1
-4 18 8 35529. 37398. 402. o -3
2 18 10 35529. 37398. 402. o -2
6 18 2 35529. 37398. 402. o 1
-2 18 10 35241. 38528. 291. o -3
4 18 8 35241. 38528. 291. o -2
6 18 -2 35241. 38528. 291. o 1
7 18 2 2450. 1904. 150. o 1
7 18 -2 2450. 2491. 109. o 1
-5 18 11 2211. 1055. 132. o -3
3 18 13 2211. 1055. 132. o -2
8 18 2 2211. 1055. 132. o 1
-7 18 17 1740. 1494. 130. o -3
5 18 19 1740. 1494. 130. o -2
12 18 2 1740. 1494. 130. o 1
-5 18 19 1640. 1564. 136. o -3
7 18 17 1640. 1564. 136. o -2
12 18 -2 1640. 1564. 136. o 1
13 18 2 144. 142. 93. < 1
13 18 -2 144. 288. 89. o 1
14 18 2 1151. 1082. 146. o 1
14 18 -2 1151. 1220. 142. o 1
0 19 -4 377. 130. 41. o -3
-2 19 -2 377. 130. 41. o -2
-2 19 2 377. 130. 41. o 1
0 19 4 377. 260. 58. o -3
2 19 2 377. 260. 58. o -2
2 19 -2 377. 260. 58. o 1
-1 19 -1 24388. 24794. 204. o -3
-1 19 1 24388. 24794. 204. o -2
0 19 2 24388. 24794. 204. o 1
1 19 1 24388. 24868. 305. o -3
1 19 -1 24388. 24868. 305. o -2
0 19 -2 24388. 24868. 305. o 1
1 19 2 1728. 1739. 51. o 1
1 19 -2 1728. 1866. 68. o 1
-2 19 2 388. 167. 47. o -3
0 19 4 388. 167. 47. o -2
2 19 2 388. 167. 47. o 1
2 19 -2 388. 225. 82. < -3
0 19 -4 388. 225. 82. < -2
-2 19 -2 388. 225. 82. < 1
3 19 2 492. 581. 70. o 1
3 19 -2 492. 474. 70. o 1
-3 19 5 1768. 1644. 68. o -3
1 19 7 1768. 1644. 68. o -2
4 19 2 1768. 1644. 68. o 1
-1 19 7 1663. 1551. 72. o -3
3 19 5 1663. 1551. 72. o -2
4 19 -2 1663. 1551. 72. o 1
5 19 2 2213. 2163. 70. o 1
5 19 -2 2213. 2449. 78. o 1
-4 19 8 74. 120. 128. < -3
2 19 10 74. 120. 128. < -2
6 19 2 74. 120. 128. < 1
-2 19 10 72. -12. 89. < -3
4 19 8 72. -12. 89. < -2
6 19 -2 72. -12. 89. < 1
7 19 2 2139. 2107. 111. o 1
7 19 -2 2139. 1650. 82. o 1
-5 19 11 10269. 12515. 245. o -3
3 19 13 10269. 12515. 245. o -2
8 19 2 10269. 12515. 245. o 1
-7 19 17 2447. 2474. 113. o -3
5 19 19 2447. 2474. 113. o -2
12 19 2 2447. 2474. 113. o 1
-5 19 19 2590. 2326. 109. o -3
7 19 17 2590. 2326. 109. o -2
12 19 -2 2590. 2326. 109. o 1
13 19 2 286. 103. 103. < 1
13 19 -2 286. 173. 101. < 1
0 20 -4 27798. 29412. 319. o -3
-2 20 -2 27798. 29412. 319. o -2
-2 20 2 27798. 29412. 319. o 1
0 20 4 27798. 30393. 249. o -3
2 20 2 27798. 30393. 249. o -2
2 20 -2 27798. 30393. 249. o 1
-1 20 -1 14784. 14491. 233. o -3
-1 20 1 14784. 14491. 233. o -2
0 20 2 14784. 14491. 233. o 1
1 20 1 14784. 14458. 233. o -3
1 20 -1 14784. 14458. 233. o -2
0 20 -2 14784. 14458. 233. o 1
1 20 2 7184. 7322. 105. o 1
1 20 -2 7184. 7480. 115. o 1
-2 20 2 26682. 23848. 311. o -3
0 20 4 26682. 23848. 311. o -2
2 20 2 26682. 23848. 311. o 1
2 20 -2 26682. 23743. 206. o -3
0 20 -4 26682. 23743. 206. o -2
-2 20 -2 26682. 23743. 206. o 1
3 20 2 337. 637. 87. o 1
3 20 -2 337. 429. 68. o 1
-3 20 5 2227. 2515. 80. o -3
1 20 7 2227. 2515. 80. o -2
4 20 2 2227. 2515. 80. o 1
-1 20 7 2222. 2437. 76. o -3
3 20 5 2222. 2437. 76. o -2
4 20 -2 2222. 2437. 76. o 1
5 20 2 1565. 1617. 66. o 1
5 20 -2 1565. 1461. 62. o 1
-4 20 8 8600. 8671. 187. o -3
2 20 10 8600. 8671. 187. o -2
6 20 2 8600. 8671. 187. o 1
-2 20 10 8778. 9161. 144. o -3
4 20 8 8778. 9161. 144. o -2
6 20 -2 8778. 9161. 144. o 1
7 20 2 9322. 9604. 202. o 1
7 20 -2 9322. 9188. 140. o 1
-5 20 11 5992. 4905. 157. o -3
3 20 13 5992. 4905. 157. o -2
8 20 2 5992. 4905. 157. o 1
-3 20 13 5669. 5558. 202. o -3
5 20 11 5669. 5558. 202. o -2
8 20 -2 5669. 5558. 202. o 1
-7 20 17 2943. 1578. 140. o -3
5 20 19 2943. 1578. 140. o -2
12 20 2 2943. 1578. 140. o 1
-5 20 19 2641. 2921. 159. o -3
7 20 17 2641. 2921. 159. o -2
12 20 -2 2641. 2921. 159. o 1
13 20 2 568. 449. 109. o 1
13 20 -2 568. 532. 117. o 1
0 21 -4 82. 142. 115. < -3
-2 21 -2 82. 142. 115. < -2
-2 21 2 82. 142. 115. < 1
0 21 4 82. 35. 80. < -3
2 21 2 82. 35. 80. < -2
2 21 -2 82. 35. 80. < 1
-1 21 -1 31422. 30978. 328. o -3
-1 21 1 31422. 30978. 328. o -2
0 21 2 31422. 30978. 328. o 1
1 21 1 31422. 32727. 356. o -3
1 21 -1 31422. 32727. 356. o -2
0 21 -2 31422. 32727. 356. o 1
1 21 2 14724. 15336. 146. o 1
1 21 -2 14724. 15235. 167. o 1
-2 21 2 85. 204. 122. < -3
0 21 4 85. 204. 122. < -2
2 21 2 85. 204. 122. < 1
2 21 -2 85. 70. 87. < -3
0 21 -4 85. 70. 87. < -2
-2 21 -2 85. 70. 87. < 1
3 21 2 2482. 2878. 78. o 1
3 21 -2 2482. 2536. 72. o 1
-3 21 5 3064. 3166. 80. o -3
1 21 7 3064. 3166. 80. o -2
4 21 2 3064. 3166. 80. o 1
-1 21 7 3036. 3325. 89. o -3
3 21 5 3036. 3325. 89. o -2
4 21 -2 3036. 3325. 89. o 1
5 21 2 439. 694. 87. o 1
5 21 -2 439. 536. 78. o 1
-4 21 8 440. 334. 126. < -3
2 21 10 440. 334. 126. < -2
6 21 2 440. 334. 126. < 1
-2 21 10 443. 428. 93. o -3
4 21 8 443. 428. 93. o -2
6 21 -2 443. 428. 93. o 1
7 21 2 2114. 2316. 113. o 1
7 21 -2 2114. 2033. 109. o 1
-5 21 11 7212. 7258. 194. o -3
3 21 13 7212. 7258. 194. o -2
8 21 2 7212. 7258. 194. o 1
-3 21 13 7270. 7196. 235. o -3
5 21 11 7270. 7196. 235. o -2
8 21 -2 7270. 7196. 235. o 1
9 21 2 16726. 17579. 309. o 1
-5 21 19 6215. 6139. 175. o -3
7 21 17 6215. 6139. 175. o -2
12 21 -2 6215. 6139. 175. o 1
13 21 2 1125. 723. 124. o 1
13 21 -2 1125. 843. 126. o 1
0 22 -4 9900. 9920. 220. o -3
-2 22 -2 9900. 9920. 220. o -2
-2 22 2 9900. 9920. 220. o 1
0 22 4 9900. 9899. 150. o -3
2 22 2 9900. 9899. 150. o -2
2 22 -2 9900. 9899. 150. o 1
-1 22 -1 16346. 17614. 264. o -3
-1 22 1 16346. 17614. 264. o -2
0 22 2 16346. 17614. 264. o 1
1 22 1 16346. 16236. 212. o -3
1 22 -1 16346. 16236. 212. o -2
0 22 -2 16346. 16236. 212. o 1
1 22 2 6129. 6094. 95. o 1
1 22 -2 6129. 6234. 111. o 1
-2 22 2 9984. 9446. 223. o -3
0 22 4 9984. 9446. 223. o -2
2 22 2 9984. 9446. 223. o 1
2 22 -2 9984. 9347. 146. o -3
0 22 -4 9984. 9347. 146. o -2
-2 22 -2 9984. 9347. 146. o 1
3 22 2 7021. 7315. 126. o 1
3 22 -2 7021. 7472. 144. o 1
-3 22 5 1382. 1292. 64. o -3
1 22 7 1382. 1292. 64. o -2
4 22 2 1382. 1292. 64. o 1
-1 22 7 1349. 1059. 91. o -3
3 22 5 1349. 1059. 91. o -2
4 22 -2 1349. 1059. 91. o 1
5 22 2 38. 45. 82. < 1
5 22 -2 38. 8. 93. < 1
-4 22 8 5581. 5231. 175. o -3
2 22 10 5581. 5231. 175. o -2
6 22 2 5581. 5231. 175. o 1
-2 22 10 5750. 5103. 103. o -3
4 22 8 5750. 5103. 103. o -2
6 22 -2 5750. 5103. 103. o 1
7 22 2 526. 472. 138. o 1
7 22 -2 526. 562. 95. o 1
9 22 2 2443. 2497. 220. o 1
-7 22 17 2361. 1901. 144. o -3
5 22 19 2361. 1901. 144. o -2
12 22 2 2361. 1901. 144. o 1
-5 22 19 2582. 1566. 130. o -3
7 22 17 2582. 1566. 130. o -2
12 22 -2 2582. 1566. 130. o 1
13 22 2 793. 239. 115. < 1
13 22 -2 793. 369. 117. o 1
0 23 -4 172. 319. 113. < -3
-2 23 -2 172. 319. 113. < -2
-2 23 2 172. 319. 113. < 1
0 23 4 172. 305. 76. o -3
2 23 2 172. 305. 76. o -2
2 23 -2 172. 305. 76. o 1
-1 23 -1 2302. 2381. 124. o -3
-1 23 1 2302. 2381. 124. o -2
0 23 2 2302. 2381. 124. o 1
1 23 1 2302. 2320. 103. o -3
1 23 -1 2302. 2320. 103. o -2
0 23 -2 2302. 2320. 103. o 1
1 23 2 658. 643. 45. o 1
1 23 -2 658. 651. 64. o 1
-2 23 2 177. 290. 95. o -3
0 23 4 177. 290. 95. o -2
2 23 2 177. 290. 95. o 1
2 23 -2 177. 175. 82. < -3
0 23 -4 177. 175. 82. < -2
-2 23 -2 177. 175. 82. < 1
3 23 2 3207. 3762. 99. o 1
3 23 -2 3207. 3741. 101. o 1
-3 23 5 7649. 7991. 144. o -3
1 23 7 7649. 7991. 144. o -2
4 23 2 7649. 7991. 144. o 1
-1 23 7 7979. 8146. 142. o -3
3 23 5 7979. 8146. 142. o -2
4 23 -2 7979. 8146. 142. o 1
5 23 2 8896. 8232. 144. o 1
5 23 -2 8896. 9015. 113. o 1
-4 23 8 123. 111. 84. < -3
2 23 10 123. 111. 84. < -2
6 23 2 123. 111. 84. < 1
-2 23 10 133. 132. 82. < -3
4 23 8 133. 132. 82. < -2
6 23 -2 133. 132. 82. < 1
7 23 2 174. 222. 148. < 1
7 23 -2 174. 278. 93. < 1
-5 23 11 1480. 1044. 167. o -3
3 23 13 1480. 1044. 167. o -2
8 23 2 1480. 1044. 167. o 1
-3 23 13 1489. 1316. 111. o -3
5 23 11 1489. 1316. 111. o -2
8 23 -2 1489. 1316. 111. o 1
9 23 2 2204. 1193. 84. o 1
-7 23 17 5099. 3521. 179. o -3
5 23 19 5099. 3521. 179. o -2
12 23 2 5099. 3521. 179. o 1
-5 23 19 5250. 3294. 177. o -3
7 23 17 5250. 3294. 177. o -2
12 23 -2 5250. 3294. 177. o 1
0 24 -4 32508. 33912. 375. o -3
-2 24 -2 32508. 33912. 375. o -2
-2 24 2 32508. 33912. 375. o 1
0 24 4 32508. 36378. 381. o -3
2 24 2 32508. 36378. 381. o -2
2 24 -2 32508. 36378. 381. o 1
-1 24 -1 2889. 3183. 126. o -3
-1 24 1 2889. 3183. 126. o -2
0 24 2 2889. 3183. 126. o 1
1 24 1 2889. 3183. 111. o -3
1 24 -1 2889. 3183. 111. o -2
0 24 -2 2889. 3183. 111. o 1
1 24 2 1013. 849. 80. o 1
1 24 -2 1013. 1119. 74. o 1
-2 24 2 33068. 35914. 416. o -3
0 24 4 33068. 35914. 416. o -2
2 24 2 33068. 35914. 416. o 1
2 24 -2 33068. 35515. 290. o -3
0 24 -4 33068. 35515. 290. o -2
-2 24 -2 33068. 35515. 290. o 1
3 24 2 9102. 9643. 159. o 1
3 24 -2 9102. 9932. 181. o 1
-3 24 5 3595. 3622. 97. o -3
1 24 7 3595. 3622. 97. o -2
4 24 2 3595. 3622. 97. o 1
-1 24 7 3697. 3815. 74. o -3
3 24 5 3697. 3815. 74. o -2
4 24 -2 3697. 3815. 74. o 1
5 24 2 7850. 8704. 163. o 1
5 24 -2 7850. 8768. 105. o 1
-4 24 8 38539. 41763. 381. o -3
2 24 10 38539. 41763. 381. o -2
6 24 2 38539. 41763. 381. o 1
-2 24 10 39260. 42616. 319. o -3
4 24 8 39260. 42616. 319. o -2
6 24 -2 39260. 42616. 319. o 1
7 24 2 5253. 6885. 237. o 1
7 24 -2 5253. 5915. 126. o 1
-5 24 11 197. 554. 130. o -3
3 24 13 197. 554. 130. o -2
8 24 2 197. 554. 130. o 1
-3 24 13 229. 466. 89. o -3
5 24 11 229. 466. 89. o -2
8 24 -2 229. 466. 89. o 1
9 24 2 1024. 952. 140. o 1
9 24 -2 1024. 1133. 122. o 1
-7 24 17 886. 820. 109. o -3
5 24 19 886. 820. 109. o -2
12 24 2 886. 820. 109. o 1
-5 24 19 885. 641. 115. o -3
7 24 17 885. 641. 115. o -2
12 24 -2 885. 641. 115. o 1
0 25 -4 243. -45. 126. < -3
-2 25 -2 243. -45. 126. < -2
-2 25 2 243. -45. 126. < 1
0 25 4 243. 356. 119. < -3
2 25 2 243. 356. 119. < -2
2 25 -2 243. 356. 119. < 1
-1 25 -1 4697. 5218. 148. o -3
-1 25 1 4697. 5218. 148. o -2
0 25 2 4697. 5218. 148. o 1
1 25 1 4697. 5325. 132. o -3
1 25 -1 4697. 5325. 132. o -2
0 25 -2 4697. 5325. 132. o 1
1 25 2 1287. 1648. 91. o 1
1 25 -2 1287. 1465. 76. o 1
-2 25 2 239. -115. 128. < -3
0 25 4 239. -115. 128. < -2
2 25 2 239. -115. 128. < 1
2 25 -2 239. 216. 91. < -3
0 25 -4 239. 216. 91. < -2
-2 25 -2 239. 216. 91. < 1
3 25 2 297. 422. 86. o 1
3 25 -2 297. 274. 62. o 1
-3 25 5 15350. 17056. 210. o -3
1 25 7 15350. 17056. 210. o -2
4 25 2 15350. 17056. 210. o 1
-1 25 7 14661. 15303. 130. o -3
3 25 5 14661. 15303. 130. o -2
4 25 -2 14661. 15303. 130. o 1
5 25 2 3100. 3535. 115. o 1
5 25 -2 3100. 3546. 84. o 1
-4 25 8 98. 268. 70. o -3
2 25 10 98. 268. 70. o -2
6 25 2 98. 268. 70. o 1
-2 25 10 102. 52. 64. < -3
4 25 8 102. 52. 64. < -2
6 25 -2 102. 52. 64. < 1
7 25 2 505. 488. 111. o 1
7 25 -2 505. 770. 101. o 1
-5 25 11 3438. 3978. 150. o -3
3 25 13 3438. 3978. 150. o -2
8 25 2 3438. 3978. 150. o 1
-3 25 13 3274. 3002. 91. o -3
5 25 11 3274. 3002. 91. o -2
8 25 -2 3274. 3002. 91. o 1
9 25 2 6377. 5931. 183. o 1
9 25 -2 6377. 7245. 200. o 1
-6 25 14 67. 82. 89. < -3
4 25 16 67. 82. 89. < -2
10 25 2 67. 82. 89. < 1
0 26 -4 5772. 6642. 177. o -3
-2 26 -2 5772. 6642. 177. o -2
-2 26 2 5772. 6642. 177. o 1
0 26 4 5772. 6597. 115. o -3
2 26 2 5772. 6597. 115. o -2
2 26 -2 5772. 6597. 115. o 1
-1 26 -1 5766. 6555. 150. o -3
-1 26 1 5766. 6555. 150. o -2
0 26 2 5766. 6555. 150. o 1
1 26 1 5766. 6448. 109. o -3
1 26 -1 5766. 6448. 109. o -2
0 26 -2 5766. 6448. 109. o 1
1 26 2 5424. 6152. 159. o 1
1 26 -2 5424. 5964. 95. o 1
-2 26 2 5925. 7283. 216. o -3
0 26 4 5925. 7283. 216. o -2
2 26 2 5925. 7283. 216. o 1
2 26 -2 5925. 7072. 138. o -3
0 26 -4 5925. 7072. 138. o -2
-2 26 -2 5925. 7072. 138. o 1
3 26 2 5515. 5538. 128. o 1
3 26 -2 5515. 5604. 78. o 1
-3 26 5 2803. 2971. 111. o -3
1 26 7 2803. 2971. 111. o -2
4 26 2 2803. 2971. 111. o 1
-1 26 7 3084. 3661. 87. o -3
3 26 5 3084. 3661. 87. o -2
4 26 -2 3084. 3661. 87. o 1
5 26 2 9749. 9384. 214. o 1
5 26 -2 9749. 10591. 109. o 1
-4 26 8 5711. 6393. 165. o -3
2 26 10 5711. 6393. 165. o -2
6 26 2 5711. 6393. 165. o 1
-2 26 10 5927. 6108. 113. o -3
4 26 8 5927. 6108. 113. o -2
6 26 -2 5927. 6108. 113. o 1
7 26 2 2955. 2802. 140. o 1
7 26 -2 2955. 2806. 128. o 1
-5 26 11 1585. 970. 124. o -3
3 26 13 1585. 970. 124. o -2
8 26 2 1585. 970. 124. o 1
-3 26 13 1472. 1137. 80. o -3
5 26 11 1472. 1137. 80. o -2
8 26 -2 1472. 1137. 80. o 1
9 26 2 1936. 1660. 122. o 1
9 26 -2 1936. 1625. 134. o 1
0 27 -4 1015. 871. 89. o -3
-2 27 -2 1015. 871. 89. o -2
-2 27 2 1015. 871. 89. o 1
0 27 4 1015. 826. 74. o -3
2 27 2 1015. 826. 74. o -2
2 27 -2 1015. 826. 74. o 1
-1 27 -1 4478. 4757. 140. o -3
-1 27 1 4478. 4757. 140. o -2
0 27 2 4478. 4757. 140. o 1
1 27 1 4478. 4508. 101. o -3
1 27 -1 4478. 4508. 101. o -2
0 27 -2 4478. 4508. 101. o 1
1 27 2 3358. 3556. 120. o 1
1 27 -2 3358. 3941. 66. o 1
-2 27 2 1015. 1244. 113. o -3
0 27 4 1015. 1244. 113. o -2
2 27 2 1015. 1244. 113. o 1
2 27 -2 1015. 1086. 87. o -3
0 27 -4 1015. 1086. 87. o -2
-2 27 -2 1015. 1086. 87. o 1
3 27 2 4902. 5101. 120. o 1
3 27 -2 4902. 5987. 84. o 1
-3 27 5 8446. 9079. 171. o -3
1 27 7 8446. 9079. 171. o -2
4 27 2 8446. 9079. 171. o 1
-1 27 7 8289. 8690. 113. o -3
3 27 5 8289. 8690. 113. o -2
4 27 -2 8289. 8690. 113. o 1
5 27 2 7096. 7287. 223. o 1
5 27 -2 7096. 7112. 136. o 1
-4 27 8 305. 482. 86. o -3
2 27 10 305. 482. 86. o -2
6 27 2 305. 482. 86. o 1
-2 27 10 289. 264. 58. o -3
4 27 8 289. 264. 58. o -2
6 27 -2 289. 264. 58. o 1
7 27 2 2466. 2176. 86. o 1
7 27 -2 2466. 2365. 93. o 1
-5 27 11 4497. 5453. 212. o -3
3 27 13 4497. 5453. 212. o -2
8 27 2 4497. 5453. 212. o 1
-3 27 13 4717. 3787. 120. o -3
5 27 11 4717. 3787. 120. o -2
8 27 -2 4717. 3787. 120. o 1
9 27 2 320. 97. 115. < 1
9 27 -2 320. 235. 103. < 1
-6 27 14 289. 33. 97. < -3
4 27 16 289. 33. 97. < -2
10 27 2 289. 33. 97. < 1
-4 27 16 258. -21. 87. < -3
6 27 14 258. -21. 87. < -2
10 27 -2 258. -21. 87. < 1
0 28 -4 19838. 19301. 309. o -3
-2 28 -2 19838. 19301. 309. o -2
-2 28 2 19838. 19301. 309. o 1
0 28 4 19838. 19029. 154. o -3
2 28 2 19838. 19029. 154. o -2
2 28 -2 19838. 19029. 154. o 1
-1 28 -1 2086. 2517. 120. o -3
-1 28 1 2086. 2517. 120. o -2
0 28 2 2086. 2517. 120. o 1
1 28 1 2086. 1741. 89. o -3
1 28 -1 2086. 1741. 89. o -2
0 28 -2 2086. 1741. 89. o 1
1 28 2 986. 805. 93. o 1
1 28 -2 986. 1170. 49. o 1
-2 28 2 20400. 23259. 369. o -3
0 28 4 20400. 23259. 369. o -2
2 28 2 20400. 23259. 369. o 1
2 28 -2 20400. 22033. 239. o -3
0 28 -4 20400. 22033. 239. o -2
-2 28 -2 20400. 22033. 239. o 1
3 28 2 907. 1216. 86. o 1
3 28 -2 907. 810. 54. o 1
-3 28 5 1836. 1947. 128. o -3
1 28 7 1836. 1947. 128. o -2
4 28 2 1836. 1947. 128. o 1
-1 28 7 1915. 2412. 70. o -3
3 28 5 1915. 2412. 70. o -2
4 28 -2 1915. 2412. 70. o 1
5 28 2 128. 249. 128. < 1
5 28 -2 128. 87. 54. < 1
-4 28 8 14909. 13480. 136. o -3
2 28 10 14909. 13480. 136. o -2
6 28 2 14909. 13480. 136. o 1
-2 28 10 15394. 14312. 150. o -3
4 28 8 15394. 14312. 150. o -2
6 28 -2 15394. 14312. 150. o 1
7 28 2 8500. 8486. 167. o 1
7 28 -2 8500. 7676. 155. o 1
-5 28 11 262. 200. 109. < -3
3 28 13 262. 200. 109. < -2
8 28 2 262. 200. 109. < 1
-3 28 13 262. 146. 91. < -3
5 28 11 262. 146. 91. < -2
8 28 -2 262. 146. 91. < 1
9 28 2 646. 424. 101. o 1
9 28 -2 646. 206. 124. < 1
-6 28 14 2406. 1325. 109. o -3
4 28 16 2406. 1325. 109. o -2
10 28 2 2406. 1325. 109. o 1
0 29 -4 60. 86. 126. < -3
-2 29 -2 60. 86. 126. < -2
-2 29 2 60. 86. 126. < 1
0 29 4 60. 210. 54. o -3
2 29 2 60. 210. 54. o -2
2 29 -2 60. 210. 54. o 1
-1 29 -1 3617. 4069. 138. o -3
-1 29 1 3617. 4069. 138. o -2
0 29 2 3617. 4069. 138. o 1
1 29 1 3617. 3578. 115. o -3
1 29 -1 3617. 3578. 115. o -2
0 29 -2 3617. 3578. 115. o 1
1 29 2 3396. 3267. 144. o 1
1 29 -2 3396. 4032. 91. o 1
-2 29 2 63. 136. 82. < -3
0 29 4 63. 136. 82. < -2
2 29 2 63. 136. 82. < 1
2 29 -2 63. 258. 84. o -3
0 29 -4 63. 258. 84. o -2
-2 29 -2 63. 258. 84. o 1
3 29 2 373. 336. 86. o 1
3 29 -2 373. 420. 51. o 1
-3 29 5 7514. 7478. 148. o -3
1 29 7 7514. 7478. 148. o -2
4 29 2 7514. 7478. 148. o 1
-1 29 7 7265. 6899. 99. o -3
3 29 5 7265. 6899. 99. o -2
4 29 -2 7265. 6899. 99. o 1
5 29 2 1013. 1020. 76. o 1
5 29 -2 1013. 855. 80. o 1
-4 29 8 187. 154. 54. < -3
2 29 10 187. 154. 54. < -2
6 29 2 187. 154. 54. < 1
-2 29 10 192. 142. 60. < -3
4 29 8 192. 142. 60. < -2
6 29 -2 192. 142. 60. < 1
7 29 2 1253. 816. 87. o 1
7 29 -2 1253. 1216. 87. o 1
-5 29 11 1455. 383. 134. < -3
3 29 13 1455. 383. 134. < -2
8 29 2 1455. 383. 134. < 1
-3 29 13 1472. 1162. 87. o -3
5 29 11 1472. 1162. 87. o -2
8 29 -2 1472. 1162. 87. o 1
9 29 2 1077. 606. 107. o 1
9 29 -2 1077. 536. 58. o 1
0 30 -4 59163. 59909. 628. o -3
-2 30 -2 59163. 59909. 628. o -2
-2 30 2 59163. 59909. 628. o 1
0 30 4 59164. 62100. 484. o -3
2 30 2 59164. 62100. 484. o -2
2 30 -2 59164. 62100. 484. o 1
-1 30 -1 3190. 2950. 97. o -3
-1 30 1 3190. 2950. 97. o -2
0 30 2 3190. 2950. 97. o 1
1 30 1 3190. 2814. 78. o -3
1 30 -1 3190. 2814. 78. o -2
0 30 -2 3190. 2814. 78. o 1
1 30 2 3866. 3743. 87. o 1
1 30 -2 3866. 4269. 70. o 1
-2 30 2 60496. 64393. 336. o -3
0 30 4 60496. 64393. 336. o -2
2 30 2 60496. 64393. 336. o 1
2 30 -2 60496. 60934. 515. o -3
0 30 -4 60496. 60934. 515. o -2
-2 30 -2 60496. 60934. 515. o 1
3 30 2 862. 896. 62. o 1
3 30 -2 862. 834. 47. o 1
-3 30 5 3264. 3809. 66. o -3
1 30 7 3264. 3809. 66. o -2
4 30 2 3264. 3809. 66. o 1
5 30 2 18. -62. 66. < 1
5 30 -2 18. 99. 66. < 1
-4 30 8 26331. 23992. 260. o -3
2 30 10 26331. 23992. 260. o -2
6 30 2 26331. 23992. 260. o 1
-2 30 10 27646. 28597. 274. o -3
4 30 8 27646. 28597. 274. o -2
6 30 -2 27646. 28597. 274. o 1
-5 30 11 1456. 991. 80. o -3
3 30 13 1456. 991. 80. o -2
8 30 2 1456. 991. 80. o 1
-3 30 13 1273. 970. 87. o -3
5 30 11 1273. 970. 87. o -2
8 30 -2 1273. 970. 87. o 1
0 31 -4 45. 51. 128. < -3
-2 31 -2 45. 51. 128. < -2
-2 31 2 45. 51. 128. < 1
0 31 4 45. 0. 86. < -3
2 31 2 45. 0. 86. < -2
2 31 -2 45. 0. 86. < 1
-1 31 -1 22769. 23399. 381. o -3
-1 31 1 22769. 23399. 381. o -2
0 31 2 22769. 23399. 381. o 1
1 31 1 22769. 23731. 348. o -3
1 31 -1 22769. 23731. 348. o -2
0 31 -2 22769. 23731. 348. o 1
1 31 2 12219. 12433. 161. o 1
1 31 -2 12219. 12484. 132. o 1
-2 31 2 42. 109. 64. < -3
0 31 4 42. 109. 64. < -2
2 31 2 42. 109. 64. < 1
2 31 -2 42. 97. 84. < -3
0 31 -4 42. 97. 84. < -2
-2 31 -2 42. 97. 84. < 1
3 31 2 836. 997. 64. o 1
3 31 -2 836. 911. 68. o 1
-3 31 5 7393. 8582. 95. o -3
1 31 7 7393. 8582. 95. o -2
4 31 2 7393. 8582. 95. o 1
-1 31 7 7097. 7213. 119. o -3
3 31 5 7097. 7213. 119. o -2
4 31 -2 7097. 7213. 119. o 1
5 31 2 1595. 1308. 64. o 1
5 31 -2 1595. 1388. 64. o 1
-4 31 8 216. 89. 60. < -3
2 31 10 216. 89. 60. < -2
6 31 2 216. 89. 60. < 1
-2 31 10 206. 29. 54. < -3
4 31 8 206. 29. 54. < -2
6 31 -2 206. 29. 54. < 1
7 31 2 1175. 622. 86. o 1
7 31 -2 1175. 676. 54. o 1
-1 32 -1 7210. 6992. 136. o -3
-1 32 1 7210. 6992. 136. o -2
0 32 2 7210. 6992. 136. o 1
1 32 1 7210. 7795. 144. o -3
1 32 -1 7210. 7795. 144. o -2
0 32 -2 7210. 7795. 144. o 1
1 32 2 2882. 2452. 82. o 1
1 32 -2 2883. 2629. 74. o 1
-2 32 2 3121. 3442. 111. o -3
0 32 4 3121. 3442. 111. o -2
2 32 2 3121. 3442. 111. o 1
2 32 -2 3121. 3352. 105. o -3
0 32 -4 3121. 3352. 105. o -2
-2 32 -2 3121. 3352. 105. o 1
3 32 2 1965. 1749. 54. o 1
3 32 -2 1965. 1885. 56. o 1
-3 32 5 389. 363. 43. o -3
1 32 7 389. 363. 43. o -2
4 32 2 389. 363. 43. o 1
-1 32 7 379. 426. 66. o -3
3 32 5 379. 426. 66. o -2
4 32 -2 379. 426. 66. o 1
5 32 2 833. 272. 49. o 1
5 32 -2 833. 187. 54. o 1
-4 32 8 1004. 424. 60. o -3
2 32 10 1004. 424. 60. o -2
6 32 2 1004. 424. 60. o 1
-2 32 10 1002. 297. 56. o -3
4 32 8 1002. 297. 56. o -2
6 32 -2 1002. 297. 56. o 1
0 33 -4 83. 107. 105. < -3
-2 33 -2 83. 107. 105. < -2
-2 33 2 83. 107. 105. < 1
0 33 4 83. 64. 68. < -3
2 33 2 83. 64. 68. < -2
2 33 -2 83. 64. 68. < 1
-1 33 -1 10235. 10158. 284. o -3
-1 33 1 10235. 10158. 284. o -2
0 33 2 10235. 10158. 284. o 1
1 33 1 10236. 10169. 414. o -3
1 33 -1 10236. 10169. 414. o -2
0 33 -2 10236. 10169. 414. o 1
1 33 2 12251. 12159. 210. o 1
1 33 -2 12251. 11792. 220. o 1
-2 33 2 84. 119. 70. < -3
0 33 4 84. 119. 70. < -2
2 33 2 84. 119. 70. < 1
2 33 -2 84. 12. 78. < -3
0 33 -4 84. 12. 78. < -2
-2 33 -2 84. 12. 78. < 1
3 33 2 1076. 921. 51. o 1
3 33 -2 1076. 527. 52. o 1
-3 33 5 1010. 375. 51. o -3
1 33 7 1010. 375. 51. o -2
4 33 2 1010. 375. 51. o 1
-1 33 7 1023. 496. 64. o -3
3 33 5 1023. 496. 64. o -2
4 33 -2 1023. 496. 64. o 1
0 34 -4 11198. 10439. 350. o -3
-2 34 -2 11198. 10439. 350. o -2
-2 34 2 11198. 10439. 350. o 1
0 34 4 11198. 10871. 272. o -3
2 34 2 11198. 10871. 272. o -2
2 34 -2 11198. 10871. 272. o 1
1 34 1 2087. 904. 142. o -3
1 34 -1 2087. 904. 142. o -2
0 34 -2 2087. 904. 142. o 1
-2 34 2 11419. 11889. 274. o -3
0 34 4 11419. 11889. 274. o -2
2 34 2 11419. 11889. 274. o 1
2 34 -2 11419. 11572. 361. o -3
0 34 -4 11419. 11572. 361. o -2
-2 34 -2 11419. 11572. 361. o 1
3 34 -2 1840. 1345. 51. o 1
2 0 -3 1040. 902. 12. o 1
4 0 3 1577. 1514. 49. o 1
4 0 -3 1577. 1123. 37. o 1
6 0 3 2390. 2826. 89. o 1
6 0 -3 2390. 2742. 87. o 1
8 0 3 19759. 20719. 282. o 1
8 0 -3 19759. 20037. 315. o 1
1 1 3 105. 78. 8. o -3
2 1 0 105. 78. 8. o -2
1 1 -3 105. 78. 8. o 1
2 1 0 124. 138. 6. o -3
1 1 -3 124. 138. 6. o -2
-1 1 -3 124. 138. 6. o 1
2 1 3 603. 523. 27. o 1
2 1 -3 603. 532. 6. o 1
-3 1 3 1760. 1967. 51. o -3
0 1 6 1760. 1967. 51. o -2
3 1 3 1760. 1967. 51. o 1
0 1 6 2101. 1772. 21. o -3
3 1 3 2101. 1772. 21. o -2
3 1 -3 2101. 1772. 21. o 1
4 1 3 1803. 1607. 51. o 1
4 1 -3 1803. 1555. 35. o 1
-1 1 9 3327. 4388. 115. o -3
4 1 6 3327. 4388. 115. o -2
5 1 -3 3327. 4388. 115. o 1
6 1 3 1192. 1267. 45. o 1
6 1 -3 1192. 1220. 43. o 1
8 1 3 1217. 1454. 80. o 1
8 1 -3 1217. 1492. 80. o 1
-6 1 12 1637. 1123. 76. o -3
3 1 15 1637. 1123. 76. o -2
9 1 3 1637. 1123. 76. o 1
-3 1 15 1521. 1856. 91. o -3
6 1 12 1521. 1856. 91. o -2
9 1 -3 1521. 1856. 91. o 1
1 2 3 1034. 1094. 12. o -3
2 2 0 1034. 1094. 12. o -2
1 2 -3 1034. 1094. 12. o 1
2 2 3 57. 62. 19. o 1
2 2 -3 57. 80. 8. o 1
0 2 6 6435. 6016. 56. o -3
3 2 3 6435. 6016. 56. o -2
3 2 -3 6435. 6016. 56. o 1
4 2 -3 3037. 2633. 66. o 1
-5 2 9 2150. 1852. 78. o -3
2 2 12 2150. 1852. 78. o -2
7 2 3 2150. 1852. 78. o 1
-2 2 12 2077. 2396. 87. o -3
5 2 9 2077. 2396. 87. o -2
7 2 -3 2077. 2396. 87. o 1
8 2 3 4562. 4334. 115. o 1
8 2 -3 4562. 4584. 117. o 1
-6 2 12 1322. 847. 74. o -3
3 2 15 1322. 847. 74. o -2
9 2 3 1322. 847. 74. o 1
-3 2 15 1207. 1152. 80. o -3
6 2 12 1207. 1152. 80. o -2
9 2 -3 1207. 1152. 80. o 1
10 2 3 1031. 976. 78. o 1
10 2 -3 1031. 1030. 76. o 1
1 3 3 61. 101. 12. o -3
2 3 0 61. 101. 12. o -2
1 3 -3 61. 101. 12. o 1
-2 3 0 58. 64. 25. < -3
-1 3 3 58. 64. 25. < -2
1 3 3 58. 64. 25. < 1
2 3 0 58. 87. 10. o -3
1 3 -3 58. 87. 10. o -2
-1 3 -3 58. 87. 10. o 1
2 3 3 5. -17. 23. < 1
2 3 -3 5. 17. 12. < 1
4 3 -3 1033. 923. 29. o 1
-4 3 6 1899. 1349. 64. o -3
1 3 9 1899. 1349. 64. o -2
5 3 3 1899. 1349. 64. o 1
6 3 3 1234. 927. 54. o 1
8 3 3 1640. 1737. 78. o 1
8 3 -3 1640. 1755. 78. o 1
-6 3 12 6424. 7715. 188. o -3
3 3 15 6424. 7715. 188. o -2
9 3 3 6424. 7715. 188. o 1
10 3 3 234. 476. 105. o 1
10 3 -3 234. 367. 58. o 1
1 4 3 681. 744. 17. o -3
2 4 0 681. 744. 17. o -2
1 4 -3 681. 744. 17. o 1
-2 4 0 645. 507. 27. o -3
-1 4 3 645. 507. 27. o -2
1 4 3 645. 507. 27. o 1
2 4 0 645. 565. 10. o -3
1 4 -3 645. 565. 10. o -2
-1 4 -3 645. 565. 10. o 1
2 4 3 232. 181. 19. o 1
2 4 -3 232. 255. 14. o 1
0 4 6 5182. 4790. 43. o -3
3 4 3 5182. 4790. 43. o -2
3 4 -3 5182. 4790. 43. o 1
4 4 -3 284. 260. 31. o 1
-4 4 6 7969. 9526. 258. o -3
1 4 9 7969. 9526. 258. o -2
5 4 3 7969. 9526. 258. o 1
6 4 3 5594. 5435. 150. o 1
-6 4 12 1418. 1506. 86. o -3
3 4 15 1418. 1506. 86. o -2
9 4 3 1418. 1506. 86. o 1
-3 4 15 1424. 1378. 84. o -3
6 4 12 1424. 1378. 84. o -2
9 4 -3 1424. 1378. 84. o 1
10 4 3 380. 461. 111. o 1
10 4 -3 380. 418. 60. o 1
-7 4 15 1838. 2406. 113. o -3
4 4 18 1838. 2406. 113. o -2
11 4 3 1838. 2406. 113. o 1
-4 4 18 1837. 2746. 115. o -3
7 4 15 1837. 2746. 115. o -2
11 4 -3 1837. 2746. 115. o 1
1 5 3 31. 47. 16. o -3
2 5 0 31. 47. 16. o -2
1 5 -3 31. 47. 16. o 1
-2 5 0 31. 64. 17. o -3
-1 5 3 31. 64. 17. o -2
1 5 3 31. 64. 17. o 1
2 5 0 31. 72. 12. o -3
1 5 -3 31. 72. 12. o -2
-1 5 -3 31. 72. 12. o 1
2 5 3 46. 35. 16. < 1
2 5 -3 46. 39. 17. < 1
0 5 6 3787. 3331. 54. o -3
3 5 3 3787. 3331. 54. o -2
3 5 -3 3787. 3331. 54. o 1
4 5 -3 2992. 2845. 52. o 1
6 5 3 3266. 3133. 97. o 1
-6 5 12 9276. 9128. 214. o -3
3 5 15 9276. 9128. 214. o -2
9 5 3 9276. 9128. 214. o 1
10 5 3 929. 1257. 82. o 1
10 5 -3 929. 1084. 78. o 1
-4 5 18 4432. 3962. 138. o -3
7 5 15 4432. 3962. 138. o -2
11 5 -3 4432. 3962. 138. o 1
1 6 3 549. 554. 17. o -3
2 6 0 549. 554. 17. o -2
1 6 -3 549. 554. 17. o 1
-2 6 0 519. 369. 23. o -3
-1 6 3 519. 369. 23. o -2
1 6 3 519. 369. 23. o 1
2 6 0 519. 412. 12. o -3
1 6 -3 519. 412. 12. o -2
-1 6 -3 519. 412. 12. o 1
2 6 3 44. 122. 21. o 1
2 6 -3 44. 130. 17. o 1
0 6 6 11781. 11030. 89. o -3
3 6 3 11781. 11030. 89. o -2
3 6 -3 11781. 11030. 89. o 1
4 6 3 10363. 9689. 159. o 1
4 6 -3 10363. 10144. 111. o 1
-4 6 6 6744. 7610. 109. o -3
1 6 9 6744. 7610. 109. o -2
5 6 3 6744. 7610. 109. o 1
6 6 3 1031. 1028. 58. o 1
10 6 3 5096. 5169. 150. o 1
10 6 -3 5096. 5000. 148. o 1
-7 6 15 2047. 2147. 115. o -3
4 6 18 2047. 2147. 115. o -2
11 6 3 2047. 2147. 115. o 1
-4 6 18 1953. 2907. 124. o -3
7 6 15 1953. 2907. 124. o -2
11 6 -3 1953. 2907. 124. o 1
12 6 3 3463. 3729. 144. o 1
12 6 -3 3463. 3986. 148. o 1
-2 7 0 3327. 3984. 62. o -3
-1 7 3 3327. 3984. 62. o -2
1 7 3 3327. 3984. 62. o 1
2 7 0 3327. 4017. 52. o -3
1 7 -3 3327. 4017. 52. o -2
-1 7 -3 3327. 4017. 52. o 1
2 7 3 81. 70. 21. o 1
2 7 -3 81. 70. 19. o 1
-3 7 3 2434. 2239. 64. o -3
0 7 6 2434. 2239. 64. o -2
3 7 3 2434. 2239. 64. o 1
4 7 3 9143. 8582. 103. o 1
4 7 -3 9143. 8617. 86. o 1
10 7 3 2342. 2705. 120. o 1
10 7 -3 2342. 2864. 122. o 1
-7 7 15 984. 972. 86. o -3
4 7 18 984. 972. 86. o -2
11 7 3 984. 972. 86. o 1
-4 7 18 1073. 608. 78. o -3
7 7 15 1073. 608. 78. o -2
11 7 -3 1073. 608. 78. o 1
12 7 3 1187. 1547. 109. o 1
12 7 -3 1187. 1479. 107. o 1
-1 8 -3 804. 1022. 25. o -3
-2 8 0 804. 1022. 25. o -2
-1 8 3 804. 1022. 25. o 1
1 8 3 804. 1014. 25. o -3
2 8 0 804. 1014. 25. o -2
1 8 -3 804. 1014. 25. o 1
-2 8 0 762. 721. 27. o -3
-1 8 3 762. 721. 27. o -2
1 8 3 762. 721. 27. o 1
2 8 0 762. 672. 39. o -3
1 8 -3 762. 672. 39. o -2
-1 8 -3 762. 672. 39. o 1
2 8 3 100. 144. 27. o 1
2 8 -3 100. 148. 21. o 1
-3 8 3 6522. 6217. 64. o -3
0 8 6 6522. 6217. 64. o -2
3 8 3 6522. 6217. 64. o 1
0 8 6 6175. 7066. 78. o -3
3 8 3 6175. 7066. 78. o -2
3 8 -3 6175. 7066. 78. o 1
4 8 3 11706. 10680. 117. o 1
4 8 -3 11706. 10983. 95. o 1
-4 8 6 3925. 4924. 95. o -3
1 8 9 3925. 4924. 95. o -2
5 8 3 3925. 4924. 95. o 1
-1 8 9 4399. 5777. 138. o -3
4 8 6 4399. 5777. 138. o -2
5 8 -3 4399. 5777. 138. o 1
-7 8 15 1155. 1024. 95. o -3
4 8 18 1155. 1024. 95. o -2
11 8 3 1155. 1024. 95. o 1
-4 8 18 1121. 1640. 105. o -3
7 8 15 1121. 1640. 105. o -2
11 8 -3 1121. 1640. 105. o 1
12 8 3 8453. 9266. 223. o 1
12 8 -3 8453. 10624. 257. o 1
-2 9 0 1927. 2145. 45. o -3
-1 9 3 1927. 2145. 45. o -2
1 9 3 1927. 2145. 45. o 1
2 9 0 1927. 2256. 45. o -3
1 9 -3 1927. 2256. 45. o -2
-1 9 -3 1927. 2256. 45. o 1
2 9 3 569. 499. 19. o 1
2 9 -3 569. 531. 16. o 1
-3 9 3 16320. 19168. 111. o -3
0 9 6 16320. 19168. 111. o -2
3 9 3 16320. 19168. 111. o 1
4 9 3 4211. 3923. 72. o 1
4 9 -3 4211. 3982. 64. o 1
-4 9 6 3978. 3131. 103. o -3
1 9 9 3978. 3131. 103. o -2
5 9 3 3978. 3131. 103. o 1
-1 9 9 3871. 3622. 86. o -3
4 9 6 3871. 3622. 86. o -2
5 9 -3 3871. 3622. 86. o 1
-7 9 15 3218. 3185. 132. o -3
4 9 18 3218. 3185. 132. o -2
11 9 3 3218. 3185. 132. o 1
-4 9 18 3170. 3375. 134. o -3
7 9 15 3170. 3375. 134. o -2
11 9 -3 3170. 3375. 134. o 1
12 9 3 993. 871. 107. o 1
12 9 -3 993. 641. 109. o 1
-1 10 -3 277. 360. 25. o -3
-2 10 0 277. 360. 25. o -2
-1 10 3 277. 360. 25. o 1
1 10 3 277. 315. 23. o -3
2 10 0 277. 315. 23. o -2
1 10 -3 277. 315. 23. o 1
-2 10 0 262. 258. 39. o -3
-1 10 3 262. 258. 39. o -2
1 10 3 262. 258. 39. o 1
2 10 0 262. 360. 39. o -3
1 10 -3 262. 360. 39. o -2
-1 10 -3 262. 360. 39. o 1
2 10 3 601. 567. 21. o 1
2 10 -3 601. 513. 21. o 1
-3 10 3 15909. 15163. 124. o -3
0 10 6 15909. 15163. 124. o -2
3 10 3 15909. 15163. 124. o 1
0 10 6 15046. 16807. 136. o -3
3 10 3 15046. 16807. 136. o -2
3 10 -3 15046. 16807. 136. o 1
4 10 3 853. 869. 37. o 1
4 10 -3 853. 801. 29. o 1
-4 10 6 14505. 17064. 241. o -3
1 10 9 14505. 17064. 241. o -2
5 10 3 14505. 17064. 241. o 1
-1 10 9 15081. 16067. 175. o -3
4 10 6 15081. 16067. 175. o -2
5 10 -3 15081. 16067. 175. o 1
6 10 3 1963. 1994. 99. o 1
-7 10 15 1466. 1397. 111. o -3
4 10 18 1466. 1397. 111. o -2
11 10 3 1466. 1397. 111. o 1
-4 10 18 1371. 2435. 126. o -3
7 10 15 1371. 2435. 126. o -2
11 10 -3 1371. 2435. 126. o 1
12 10 3 1466. 1448. 119. o 1
12 10 -3 1466. 1123. 115. o 1
13 10 -3 2007. 3655. 202. o 1
-1 11 -3 1963. 1926. 49. o -3
-2 11 0 1963. 1926. 49. o -2
-1 11 3 1963. 1926. 49. o 1
1 11 3 1963. 1813. 47. o -3
2 11 0 1963. 1813. 47. o -2
1 11 -3 1963. 1813. 47. o 1
-2 11 0 1962. 1827. 47. o -3
-1 11 3 1962. 1827. 47. o -2
1 11 3 1962. 1827. 47. o 1
2 11 0 1962. 1803. 47. o -3
1 11 -3 1962. 1803. 47. o -2
-1 11 -3 1962. 1803. 47. o 1
2 11 3 306. 336. 39. o 1
2 11 -3 306. 332. 33. o 1
-3 11 3 3936. 4287. 68. o -3
0 11 6 3936. 4287. 68. o -2
3 11 3 3936. 4287. 68. o 1
0 11 6 4453. 3609. 56. o -3
3 11 3 4453. 3609. 56. o -2
3 11 -3 4453. 3609. 56. o 1
4 11 3 1736. 1834. 74. o 1
4 11 -3 1736. 1599. 41. o 1
-1 11 9 13287. 11598. 128. o -3
4 11 6 13287. 11598. 128. o -2
5 11 -3 13287. 11598. 128. o 1
6 11 3 3441. 3442. 120. o 1
-7 11 15 6181. 7763. 194. o -3
4 11 18 6181. 7763. 194. o -2
11 11 3 6181. 7763. 194. o 1
12 11 3 1670. 1869. 140. o 1
12 11 -3 1670. 1737. 136. o 1
-1 12 -3 5609. 6117. 93. o -3
-2 12 0 5609. 6117. 93. o -2
-1 12 3 5609. 6117. 93. o 1
1 12 3 5609. 6139. 87. o -3
2 12 0 5609. 6139. 87. o -2
1 12 -3 5609. 6139. 87. o 1
-2 12 0 5305. 4411. 86. o -3
-1 12 3 5305. 4411. 86. o -2
1 12 3 5305. 4411. 86. o 1
2 12 0 5305. 4254. 84. o -3
1 12 -3 5305. 4254. 84. o -2
-1 12 -3 5305. 4254. 84. o 1
2 12 3 195. 270. 39. o 1
2 12 -3 195. 177. 35. o 1
-3 12 3 1727. 1582. 39. o -3
0 12 6 1727. 1582. 39. o -2
3 12 3 1727. 1582. 39. o 1
0 12 6 1639. 1726. 43. o -3
3 12 3 1639. 1726. 43. o -2
3 12 -3 1639. 1726. 43. o 1
4 12 3 1972. 2105. 84. o 1
4 12 -3 1972. 1941. 47. o 1
-4 12 6 1327. 1739. 80. o -3
1 12 9 1327. 1739. 80. o -2
5 12 3 1327. 1739. 80. o 1
-1 12 9 1412. 1838. 76. o -3
4 12 6 1412. 1838. 76. o -2
5 12 -3 1412. 1838. 76. o 1
6 12 3 1922. 2518. 95. o 1
12 12 3 4078. 4470. 165. o 1
12 12 -3 4078. 4159. 161. o 1
13 12 3 900. 1057. 82. o 1
13 12 -3 900. 1174. 144. o 1
-1 13 -3 2526. 2711. 62. o -3
-2 13 0 2526. 2711. 62. o -2
-1 13 3 2526. 2711. 62. o 1
1 13 3 2526. 2664. 58. o -3
2 13 0 2526. 2664. 58. o -2
1 13 -3 2526. 2664. 58. o 1
-2 13 0 2426. 2062. 56. o -3
-1 13 3 2426. 2062. 56. o -2
1 13 3 2426. 2062. 56. o 1
2 13 0 2426. 2140. 56. o -3
1 13 -3 2426. 2140. 56. o -2
-1 13 -3 2426. 2140. 56. o 1
2 13 3 1128. 958. 33. o 1
2 13 -3 1128. 974. 25. o 1
-3 13 3 4648. 4953. 78. o -3
0 13 6 4648. 4953. 78. o -2
3 13 3 4648. 4953. 78. o 1
0 13 6 5064. 4609. 70. o -3
3 13 3 5064. 4609. 70. o -2
3 13 -3 5064. 4609. 70. o 1
4 13 3 255. 295. 45. o 1
4 13 -3 255. 257. 49. o 1
-4 13 6 4394. 3854. 109. o -3
1 13 9 4394. 3854. 109. o -2
5 13 3 4394. 3854. 109. o 1
-1 13 9 4148. 4574. 87. o -3
4 13 6 4148. 4574. 87. o -2
5 13 -3 4148. 4574. 87. o 1
6 13 3 406. 410. 113. o 1
6 13 -3 406. 637. 115. o 1
-5 13 9 1535. 785. 107. o -3
2 13 12 1535. 785. 107. o -2
7 13 3 1535. 785. 107. o 1
12 13 3 616. 546. 124. o 1
12 13 -3 616. 389. 130. < 1
13 13 3 2131. 1605. 97. o 1
13 13 -3 2131. 2699. 119. o 1
-1 14 -3 3784. 4256. 82. o -3
-2 14 0 3784. 4256. 82. o -2
-1 14 3 3784. 4256. 82. o 1
1 14 3 3784. 4557. 86. o -3
2 14 0 3784. 4557. 86. o -2
1 14 -3 3784. 4557. 86. o 1
-2 14 0 3581. 3230. 74. o -3
-1 14 3 3581. 3230. 74. o -2
1 14 3 3581. 3230. 74. o 1
2 14 0 3581. 3280. 66. o -3
1 14 -3 3581. 3280. 66. o -2
-1 14 -3 3581. 3280. 66. o 1
2 14 3 1998. 2097. 45. o 1
2 14 -3 1998. 1974. 35. o 1
-3 14 3 5406. 5439. 80. o -3
0 14 6 5406. 5439. 80. o -2
3 14 3 5406. 5439. 80. o 1
0 14 6 5135. 5779. 82. o -3
3 14 3 5135. 5779. 82. o -2
3 14 -3 5135. 5779. 82. o 1
4 14 3 426. 379. 54. o 1
4 14 -3 426. 595. 58. o 1
-4 14 6 4889. 6077. 148. o -3
1 14 9 4889. 6077. 148. o -2
5 14 3 4889. 6077. 148. o 1
-1 14 9 5025. 5482. 97. o -3
4 14 6 5025. 5482. 97. o -2
5 14 -3 5025. 5482. 97. o 1
6 14 3 952. 832. 62. o 1
6 14 -3 952. 929. 64. o 1
-5 14 9 7225. 5639. 148. o -3
2 14 12 7225. 5639. 148. o -2
7 14 3 7225. 5639. 148. o 1
12 14 3 1075. 577. 148. o 1
12 14 -3 1075. 770. 220. o 1
13 14 3 2513. 2382. 146. o 1
13 14 -3 2513. 2513. 148. o 1
-1 15 -3 2808. 3026. 70. o -3
-2 15 0 2808. 3026. 70. o -2
-1 15 3 2808. 3026. 70. o 1
1 15 3 2808. 2835. 72. o -3
2 15 0 2808. 2835. 72. o -2
1 15 -3 2808. 2835. 72. o 1
-2 15 0 2776. 2546. 64. o -3
-1 15 3 2776. 2546. 64. o -2
1 15 3 2776. 2546. 64. o 1
2 15 0 2776. 2839. 68. o -3
1 15 -3 2776. 2839. 68. o -2
-1 15 -3 2776. 2839. 68. o 1
2 15 3 3215. 3442. 72. o 1
2 15 -3 3215. 3133. 45. o 1
-3 15 3 16347. 19472. 144. o -3
0 15 6 16347. 19472. 144. o -2
3 15 3 16347. 19472. 144. o 1
4 15 3 45. -25. 76. < 1
4 15 -3 45. -14. 56. < 1
-4 15 6 10719. 10671. 220. o -3
1 15 9 10719. 10671. 220. o -2
5 15 3 10719. 10671. 220. o 1
-1 15 9 10513. 11246. 150. o -3
4 15 6 10513. 11246. 150. o -2
5 15 -3 10513. 11246. 150. o 1
6 15 3 621. 536. 115. o 1
6 15 -3 621. 731. 74. o 1
-5 15 9 2079. 2342. 99. o -3
2 15 12 2079. 2342. 99. o -2
7 15 3 2079. 2342. 99. o 1
12 15 3 1163. 1366. 188. o 1
12 15 -3 1163. 1549. 154. o 1
-1 16 -3 497. 560. 51. o -3
-2 16 0 497. 560. 51. o -2
-1 16 3 497. 560. 51. o 1
1 16 3 497. 756. 43. o -3
2 16 0 497. 756. 43. o -2
1 16 -3 497. 756. 43. o 1
-2 16 0 482. 453. 66. o -3
-1 16 3 482. 453. 66. o -2
1 16 3 482. 453. 66. o 1
2 16 0 482. 488. 84. o -3
1 16 -3 482. 488. 84. o -2
-1 16 -3 482. 488. 84. o 1
2 16 3 2452. 2769. 72. o 1
2 16 -3 2452. 2503. 41. o 1
-3 16 3 16687. 14689. 132. o -3
0 16 6 16687. 14689. 132. o -2
3 16 3 16687. 14689. 132. o 1
0 16 6 15796. 16594. 136. o -3
3 16 3 15796. 16594. 136. o -2
3 16 -3 15796. 16594. 136. o 1
4 16 3 204. 138. 58. < 1
4 16 -3 204. 196. 56. o 1
-1 16 9 41574. 46122. 313. o -3
4 16 6 41574. 46122. 313. o -2
5 16 -3 41574. 46122. 313. o 1
6 16 3 1455. 1341. 80. o 1
6 16 -3 1455. 1574. 76. o 1
-5 16 9 2979. 1908. 101. o -3
2 16 12 2979. 1908. 101. o -2
7 16 3 2979. 1908. 101. o 1
12 16 3 863. 457. 126. o 1
12 16 -3 863. 622. 122. o 1
13 16 3 2846. 3379. 204. o 1
13 16 -3 2846. 2660. 167. o 1
-1 17 -3 5965. 6343. 157. o -3
-2 17 0 5965. 6343. 157. o -2
-1 17 3 5965. 6343. 157. o 1
1 17 3 5965. 6386. 155. o -3
2 17 0 5965. 6386. 155. o -2
1 17 -3 5965. 6386. 155. o 1
-2 17 0 5723. 5373. 136. o -3
-1 17 3 5723. 5373. 136. o -2
1 17 3 5723. 5373. 136. o 1
2 17 0 5723. 5212. 93. o -3
1 17 -3 5723. 5212. 93. o -2
-1 17 -3 5723. 5212. 93. o 1
2 17 3 203. 360. 52. o 1
2 17 -3 203. 257. 45. o 1
-3 17 3 6032. 6337. 95. o -3
0 17 6 6032. 6337. 95. o -2
3 17 3 6032. 6337. 95. o 1
0 17 6 5963. 6073. 87. o -3
3 17 3 5963. 6073. 87. o -2
3 17 -3 5963. 6073. 87. o 1
4 17 3 3476. 3337. 62. o 1
4 17 -3 3476. 3453. 70. o 1
-4 17 6 13767. 10970. 216. o -3
1 17 9 13767. 10970. 216. o -2
5 17 3 13767. 10970. 216. o 1
-1 17 9 12871. 13603. 169. o -3
4 17 6 12871. 13603. 169. o -2
5 17 -3 12871. 13603. 169. o 1
6 17 3 1667. 1524. 86. o 1
6 17 -3 1667. 1856. 84. o 1
-5 17 9 7548. 9911. 225. o -3
2 17 12 7548. 9911. 225. o -2
7 17 3 7548. 9911. 225. o 1
8 17 3 1176. 979. 115. o 1
12 17 3 812. 379. 119. o 1
12 17 -3 812. 295. 117. < 1
13 17 3 2150. 2820. 163. o 1
-1 18 -3 10166. 11761. 210. o -3
-2 18 0 10166. 11761. 210. o -2
-1 18 3 10166. 11761. 210. o 1
1 18 3 10166. 11965. 212. o -3
2 18 0 10166. 11965. 212. o -2
1 18 -3 10166. 11965. 212. o 1
-2 18 0 9614. 8323. 187. o -3
-1 18 3 9614. 8323. 187. o -2
1 18 3 9614. 8323. 187. o 1
2 18 0 9614. 8057. 119. o -3
1 18 -3 9614. 8057. 119. o -2
-1 18 -3 9614. 8057. 119. o 1
2 18 3 130. 321. 76. o 1
2 18 -3 130. 225. 47. o 1
-3 18 3 7779. 8362. 111. o -3
0 18 6 7779. 8362. 111. o -2
3 18 3 7779. 8362. 111. o 1
0 18 6 7387. 9114. 111. o -3
3 18 3 7387. 9114. 111. o -2
3 18 -3 7387. 9114. 111. o 1
4 18 3 3104. 3366. 64. o 1
4 18 -3 3104. 3220. 64. o 1
-4 18 6 3010. 3937. 122. o -3
1 18 9 3010. 3937. 122. o -2
5 18 3 3010. 3937. 122. o 1
-1 18 9 3120. 3923. 95. o -3
4 18 6 3120. 3923. 95. o -2
5 18 -3 3120. 3923. 95. o 1
6 18 3 492. 579. 136. o 1
6 18 -3 492. 482. 87. o 1
-5 18 9 4782. 4850. 192. o -3
2 18 12 4782. 4850. 192. o -2
7 18 3 4782. 4850. 192. o 1
-2 18 12 4510. 5097. 105. o -3
5 18 9 4510. 5097. 105. o -2
7 18 -3 4510. 5097. 105. o 1
8 18 3 2048. 1910. 103. o 1
12 18 3 1715. 1086. 101. o 1
12 18 -3 1715. 1568. 122. o 1
13 18 3 1216. 501. 120. o 1
13 18 -3 1216. 768. 115. o 1
-2 19 0 7264. 9238. 198. o -3
-1 19 3 7264. 9238. 198. o -2
1 19 3 7264. 9238. 198. o 1
2 19 0 7264. 8395. 120. o -3
1 19 -3 7264. 8395. 120. o -2
-1 19 -3 7264. 8395. 120. o 1
2 19 3 498. 398. 58. o 1
2 19 -3 498. 379. 58. o 1
-3 19 3 8320. 8628. 134. o -3
0 19 6 8320. 8628. 134. o -2
3 19 3 8320. 8628. 134. o 1
0 19 6 9816. 7884. 99. o -3
3 19 3 9816. 7884. 99. o -2
3 19 -3 9816. 7884. 99. o 1
4 19 3 1002. 909. 43. o 1
4 19 -3 1002. 1014. 43. o 1
-4 19 6 2481. 2777. 80. o -3
1 19 9 2481. 2777. 80. o -2
5 19 3 2481. 2777. 80. o 1
-1 19 9 2513. 2441. 68. o -3
4 19 6 2513. 2441. 68. o -2
5 19 -3 2513. 2441. 68. o 1
6 19 3 268. 317. 130. < 1
6 19 -3 268. 581. 86. o 1
-2 19 12 5554. 4516. 105. o -3
5 19 9 5554. 4516. 105. o -2
7 19 -3 5554. 4516. 105. o 1
8 19 3 1331. 1424. 136. o 1
12 19 3 1158. 853. 109. o 1
12 19 -3 1158. 878. 113. o 1
13 19 3 1341. 944. 124. o 1
13 19 -3 1341. 1646. 128. o 1
-1 20 -3 12484. 15700. 255. o -3
-2 20 0 12484. 15700. 255. o -2
-1 20 3 12484. 15700. 255. o 1
1 20 3 12484. 15301. 243. o -3
2 20 0 12484. 15301. 243. o -2
1 20 -3 12484. 15301. 243. o 1
-2 20 0 11812. 10284. 222. o -3
-1 20 3 11812. 10284. 222. o -2
1 20 3 11812. 10284. 222. o 1
2 20 0 11812. 9903. 132. o -3
1 20 -3 11812. 9903. 132. o -2
-1 20 -3 11812. 9903. 132. o 1
2 20 3 2179. 2130. 78. o 1
2 20 -3 2179. 2270. 49. o 1
-3 20 3 2859. 2993. 82. o -3
0 20 6 2859. 2993. 82. o -2
3 20 3 2859. 2993. 82. o 1
0 20 6 2724. 3385. 80. o -3
3 20 3 2724. 3385. 80. o -2
3 20 -3 2724. 3385. 80. o 1
4 20 3 909. 970. 45. o 1
4 20 -3 909. 993. 64. o 1
-4 20 6 1822. 1728. 80. o -3
1 20 9 1822. 1728. 80. o -2
5 20 3 1822. 1728. 80. o 1
-1 20 9 1898. 1883. 64. o -3
4 20 6 1898. 1883. 64. o -2
5 20 -3 1898. 1883. 64. o 1
6 20 3 585. 573. 128. o 1
6 20 -3 585. 713. 78. o 1
-5 20 9 9464. 10014. 225. o -3
2 20 12 9464. 10014. 225. o -2
7 20 3 9464. 10014. 225. o 1
-2 20 12 9233. 10214. 152. o -3
5 20 9 9233. 10214. 152. o -2
7 20 -3 9233. 10214. 152. o 1
8 20 3 186. 70. 126. < 1
12 20 3 443. 278. 103. < 1
12 20 -3 443. 321. 99. o 1
13 20 3 979. 777. 117. o 1
13 20 -3 979. 762. 109. o 1
-1 21 -3 12966. 14058. 239. o -3
-2 21 0 12966. 14058. 239. o -2
-1 21 3 12966. 14058. 239. o 1
1 21 3 12966. 14299. 243. o -3
2 21 0 12966. 14299. 243. o -2
1 21 -3 12966. 14299. 243. o 1
-2 21 0 12627. 11644. 227. o -3
-1 21 3 12627. 11644. 227. o -2
1 21 3 12627. 11644. 227. o 1
2 21 0 12627. 12093. 148. o -3
1 21 -3 12627. 12093. 148. o -2
-1 21 -3 12627. 12093. 148. o 1
2 21 3 2687. 2732. 80. o 1
2 21 -3 2687. 2697. 54. o 1
-3 21 3 8347. 8298. 134. o -3
0 21 6 8347. 8298. 134. o -2
3 21 3 8347. 8298. 134. o 1
0 21 6 8379. 8568. 117. o -3
3 21 3 8379. 8568. 117. o -2
3 21 -3 8379. 8568. 117. o 1
4 21 3 159. 210. 58. o 1
4 21 -3 159. 165. 66. < 1
-4 21 6 2960. 2728. 87. o -3
1 21 9 2960. 2728. 87. o -2
5 21 3 2960. 2728. 87. o 1
-1 21 9 3192. 3173. 76. o -3
4 21 6 3192. 3173. 76. o -2
5 21 -3 3192. 3173. 76. o 1
6 21 3 1533. 1568. 103. o 1
6 21 -3 1533. 1716. 68. o 1
-5 21 9 1943. 1298. 148. o -3
2 21 12 1943. 1298. 148. o -2
7 21 3 1943. 1298. 148. o 1
-2 21 12 1716. 1716. 76. o -3
5 21 9 1716. 1716. 76. o -2
7 21 -3 1716. 1716. 76. o 1
8 21 3 390. 387. 138. < 1
8 21 -3 390. 393. 122. o 1
-6 21 12 7393. 8813. 262. o -3
3 21 15 7393. 8813. 262. o -2
9 21 3 7393. 8813. 262. o 1
12 21 3 531. 426. 99. o 1
12 21 -3 531. 394. 97. o 1
13 21 3 1159. 1197. 124. o 1
13 21 -3 1159. 1226. 132. o 1
-1 22 -3 505. 457. 62. o -3
-2 22 0 505. 457. 62. o -2
-1 22 3 505. 457. 62. o 1
1 22 3 505. 748. 115. o -3
2 22 0 505. 748. 115. o -2
1 22 -3 505. 748. 115. o 1
-2 22 0 482. 694. 76. o -3
-1 22 3 482. 694. 76. o -2
1 22 3 482. 694. 76. o 1
2 22 0 482. 470. 74. o -3
1 22 -3 482. 470. 74. o -2
-1 22 -3 482. 470. 74. o 1
2 22 3 1422. 1397. 60. o 1
2 22 -3 1422. 1588. 52. o 1
-3 22 3 7772. 8607. 148. o -3
0 22 6 7772. 8607. 148. o -2
3 22 3 7772. 8607. 148. o 1
0 22 6 7373. 8442. 113. o -3
3 22 3 7373. 8442. 113. o -2
3 22 -3 7373. 8442. 113. o 1
4 22 3 549. 554. 74. o 1
4 22 -3 549. 515. 54. o 1
-4 22 6 9467. 9711. 150. o -3
1 22 9 9467. 9711. 150. o -2
5 22 3 9467. 9711. 150. o 1
-1 22 9 9754. 10958. 115. o -3
4 22 6 9754. 10958. 115. o -2
5 22 -3 9754. 10958. 115. o 1
6 22 3 645. 626. 130. o 1
6 22 -3 645. 921. 101. o 1
-5 22 9 1753. 1576. 119. o -3
2 22 12 1753. 1576. 119. o -2
7 22 3 1753. 1576. 119. o 1
-2 22 12 1715. 1560. 91. o -3
5 22 9 1715. 1560. 91. o -2
7 22 -3 1715. 1560. 91. o 1
8 22 3 636. 239. 154. < 1
8 22 -3 636. 433. 134. o 1
12 22 3 34. 72. 101. < 1
12 22 -3 34. -29. 101. < 1
13 22 3 1992. 1370. 146. o 1
13 22 -3 1992. 1203. 134. o 1
-1 23 -3 4409. 3288. 128. o -3
-2 23 0 4409. 3288. 128. o -2
-1 23 3 4409. 3288. 128. o 1
1 23 3 4409. 3201. 107. o -3
2 23 0 4409. 3201. 107. o -2
1 23 -3 4409. 3201. 107. o 1
2 23 3 492. 569. 84. o 1
2 23 -3 492. 552. 76. o 1
-3 23 3 8326. 8484. 146. o -3
0 23 6 8326. 8484. 146. o -2
3 23 3 8326. 8484. 146. o 1
0 23 6 8274. 8949. 105. o -3
3 23 3 8274. 8949. 105. o -2
3 23 -3 8274. 8949. 105. o 1
4 23 3 875. 810. 78. o 1
4 23 -3 875. 995. 54. o 1
-4 23 6 20986. 22184. 231. o -3
1 23 9 20986. 22184. 231. o -2
5 23 3 20986. 22184. 231. o 1
-1 23 9 20267. 20243. 163. o -3
4 23 6 20267. 20243. 163. o -2
5 23 -3 20267. 20243. 163. o 1
6 23 3 225. 418. 128. o 1
6 23 -3 225. 286. 99. < 1
-5 23 9 2718. 3498. 157. o -3
2 23 12 2718. 3498. 157. o -2
7 23 3 2718. 3498. 157. o 1
-2 23 12 3060. 3006. 101. o -3
5 23 9 3060. 3006. 101. o -2
7 23 -3 3060. 3006. 101. o 1
8 23 3 244. 410. 124. o 1
8 23 -3 244. 321. 87. o 1
-6 23 12 1506. 941. 76. o -3
3 23 15 1506. 941. 76. o -2
9 23 3 1506. 941. 76. o 1
12 23 3 736. 599. 89. o 1
12 23 -3 736. 468. 86. o 1
-1 24 -3 1996. 2466. 122. o -3
-2 24 0 1996. 2466. 122. o -2
-1 24 3 1996. 2466. 122. o 1
1 24 3 1996. 2419. 101. o -3
2 24 0 1996. 2419. 101. o -2
1 24 -3 1996. 2419. 101. o 1
-2 24 0 1908. 1858. 95. o -3
-1 24 3 1908. 1858. 95. o -2
1 24 3 1908. 1858. 95. o 1
2 24 0 1908. 1479. 68. o -3
1 24 -3 1908. 1479. 68. o -2
-1 24 -3 1908. 1479. 68. o 1
2 24 3 823. 979. 84. o 1
2 24 -3 823. 1063. 56. o 1
-3 24 3 7542. 8337. 148. o -3
0 24 6 7542. 8337. 148. o -2
3 24 3 7542. 8337. 148. o 1
0 24 6 7134. 6895. 93. o -3
3 24 3 7134. 6895. 93. o -2
3 24 -3 7134. 6895. 93. o 1
4 24 3 1299. 1380. 74. o 1
4 24 -3 1299. 1467. 56. o 1
-4 24 6 6720. 7954. 144. o -3
1 24 9 6720. 7954. 144. o -2
5 24 3 6720. 7954. 144. o 1
-1 24 9 7216. 8786. 95. o -3
4 24 6 7216. 8786. 95. o -2
5 24 -3 7216. 8786. 95. o 1
6 24 -3 699. 871. 66. o 1
-5 24 9 8442. 7855. 188. o -3
2 24 12 8442. 7855. 188. o -2
7 24 3 8442. 7855. 188. o 1
-2 24 12 8123. 9089. 146. o -3
5 24 9 8123. 9089. 146. o -2
7 24 -3 8123. 9089. 146. o 1
8 24 3 24. -37. 187. < 1
8 24 -3 24. 43. 87. < 1
10 24 3 1337. 1407. 148. o 1
12 24 3 2343. 1588. 117. o 1
12 24 -3 2343. 1465. 115. o 1
-1 25 -3 4490. 5227. 154. o -3
-2 25 0 4490. 5227. 154. o -2
-1 25 3 4490. 5227. 154. o 1
1 25 3 4490. 5088. 89. o -3
2 25 0 4490. 5088. 89. o -2
1 25 -3 4490. 5088. 89. o 1
-2 25 0 4498. 4808. 150. o -3
-1 25 3 4498. 4808. 150. o -2
1 25 3 4498. 4808. 150. o 1
2 25 0 4498. 5062. 115. o -3
1 25 -3 4498. 5062. 115. o -2
-1 25 -3 4498. 5062. 115. o 1
2 25 3 1058. 1487. 74. o 1
2 25 -3 1058. 1312. 58. o 1
-3 25 3 7232. 7771. 142. o -3
0 25 6 7232. 7771. 142. o -2
3 25 3 7232. 7771. 142. o 1
0 25 6 7696. 8931. 111. o -3
3 25 3 7696. 8931. 111. o -2
3 25 -3 7696. 8931. 111. o 1
4 25 3 105. 268. 89. o 1
4 25 -3 105. 313. 60. o 1
-4 25 6 10758. 11840. 187. o -3
1 25 9 10758. 11840. 187. o -2
5 25 3 10758. 11840. 187. o 1
-1 25 9 10832. 13267. 134. o -3
4 25 6 10832. 13267. 134. o -2
5 25 -3 10832. 13267. 134. o 1
6 25 3 838. 1110. 84. o 1
6 25 -3 838. 898. 64. o 1
-5 25 9 3715. 4839. 210. o -3
2 25 12 3715. 4839. 210. o -2
7 25 3 3715. 4839. 210. o 1
-2 25 12 4090. 3982. 130. o -3
5 25 9 4090. 3982. 130. o -2
7 25 -3 4090. 3982. 130. o 1
8 25 3 87. 111. 117. < 1
8 25 -3 87. 119. 87. < 1
-6 25 12 3918. 2917. 120. o -3
3 25 15 3918. 2917. 120. o -2
9 25 3 3918. 2917. 120. o 1
-3 25 15 3593. 4184. 218. o -3
6 25 12 3593. 4184. 218. o -2
9 25 -3 3593. 4184. 218. o 1
10 25 3 74. 148. 93. < 1
-1 26 -3 19641. 24478. 330. o -3
-2 26 0 19641. 24478. 330. o -2
-1 26 3 19641. 24478. 330. o 1
1 26 3 19641. 23473. 188. o -3
2 26 0 19641. 23473. 188. o -2
1 26 -3 19641. 23473. 188. o 1
-2 26 0 18578. 17216. 325. o -3
-1 26 3 18578. 17216. 325. o -2
1 26 3 18578. 17216. 325. o 1
2 26 0 18578. 16174. 212. o -3
1 26 -3 18578. 16174. 212. o -2
-1 26 -3 18578. 16174. 212. o 1
2 26 3 103. 10. 87. < 1
2 26 -3 103. 14. 49. < 1
-3 26 3 10738. 11598. 181. o -3
0 26 6 10738. 11598. 181. o -2
3 26 3 10738. 11598. 181. o 1
0 26 6 10178. 9988. 103. o -3
3 26 3 10178. 9988. 103. o -2
3 26 -3 10178. 9988. 103. o 1
4 26 3 302. 204. 91. < 1
4 26 -3 302. 360. 54. o 1
-4 26 6 14133. 12762. 262. o -3
1 26 9 14133. 12762. 262. o -2
5 26 3 14133. 12762. 262. o 1
-1 26 9 14603. 16104. 142. o -3
4 26 6 14603. 16104. 142. o -2
5 26 -3 14603. 16104. 142. o 1
6 26 3 1614. 1634. 148. o 1
6 26 -3 1614. 1551. 91. o 1
-5 26 9 8230. 9334. 235. o -3
2 26 12 8230. 9334. 235. o -2
7 26 3 8230. 9334. 235. o 1
-2 26 12 8004. 9652. 173. o -3
5 26 9 8004. 9652. 173. o -2
7 26 -3 8004. 9652. 173. o 1
8 26 3 545. 154. 128. < 1
8 26 -3 545. 334. 86. o 1
-6 26 12 5601. 4975. 167. o -3
3 26 15 5601. 4975. 167. o -2
9 26 3 5601. 4975. 167. o 1
-3 26 15 5741. 4178. 171. o -3
6 26 12 5741. 4178. 171. o -2
9 26 -3 5741. 4178. 171. o 1
10 26 3 424. 426. 99. o 1
-1 27 -3 3713. 3416. 138. o -3
-2 27 0 3713. 3416. 138. o -2
-1 27 3 3713. 3416. 138. o 1
1 27 3 3713. 2907. 84. o -3
2 27 0 3713. 2907. 84. o -2
1 27 -3 3713. 2907. 84. o 1
-2 27 0 4137. 5266. 196. o -3
-1 27 3 4137. 5266. 196. o -2
1 27 3 4137. 5266. 196. o 1
2 27 0 4137. 5245. 128. o -3
1 27 -3 4137. 5245. 128. o -2
-1 27 -3 4137. 5245. 128. o 1
2 27 3 1712. 1798. 89. o 1
2 27 -3 1712. 2004. 47. o 1
-3 27 3 7710. 7802. 130. o -3
0 27 6 7710. 7802. 130. o -2
3 27 3 7710. 7802. 130. o 1
0 27 6 7455. 7373. 93. o -3
3 27 3 7455. 7373. 93. o -2
3 27 -3 7455. 7373. 93. o 1
4 27 3 13. -86. 87. < 1
4 27 -3 13. 74. 52. < 1
-4 27 6 13266. 12888. 280. o -3
1 27 9 13266. 12888. 280. o -2
5 27 3 13266. 12888. 280. o 1
-1 27 9 14293. 16539. 155. o -3
4 27 6 14293. 16539. 155. o -2
5 27 -3 14293. 16539. 155. o 1
6 27 3 465. 229. 122. < 1
6 27 -3 465. 494. 64. o 1
-5 27 9 7644. 7711. 159. o -3
2 27 12 7644. 7711. 159. o -2
7 27 3 7644. 7711. 159. o 1
-2 27 12 7712. 7991. 144. o -3
5 27 9 7712. 7991. 144. o -2
7 27 -3 7712. 7991. 144. o 1
8 27 3 490. 319. 115. < 1
8 27 -3 490. 531. 91. o 1
-6 27 12 2518. 2266. 142. o -3
3 27 15 2518. 2266. 142. o -2
9 27 3 2518. 2266. 142. o 1
-3 27 15 2472. 1957. 142. o -3
6 27 12 2472. 1957. 142. o -2
9 27 -3 2472. 1957. 142. o 1
10 27 3 1530. 1114. 117. o 1
-1 28 -3 102. 348. 128. < -3
-2 28 0 102. 348. 128. < -2
-1 28 3 102. 348. 128. < 1
1 28 3 102. 192. 76. < -3
2 28 0 102. 192. 76. < -2
1 28 -3 102. 192. 76. < 1
2 28 0 110. 134. 89. < -3
1 28 -3 110. 134. 89. < -2
-1 28 -3 110. 134. 89. < 1
2 28 3 1342. 1792. 87. o 1
2 28 -3 1342. 1638. 58. o 1
-3 28 3 1700. 2165. 99. o -3
0 28 6 1700. 2165. 99. o -2
3 28 3 1700. 2165. 99. o 1
0 28 6 1635. 1967. 80. o -3
3 28 3 1635. 1967. 80. o -2
3 28 -3 1635. 1967. 80. o 1
4 28 3 626. 499. 86. o 1
4 28 -3 626. 453. 68. o 1
-1 28 9 11154. 11932. 122. o -3
4 28 6 11154. 11932. 122. o -2
5 28 -3 11154. 11932. 122. o 1
6 28 3 1415. 1316. 86. o 1
6 28 -3 1415. 1502. 62. o 1
-5 28 9 3289. 4141. 134. o -3
2 28 12 3289. 4141. 134. o -2
7 28 3 3289. 4141. 134. o 1
-2 28 12 2967. 3918. 146. o -3
5 28 9 2967. 3918. 146. o -2
7 28 -3 2967. 3918. 146. o 1
8 28 3 74. 103. 105. < 1
8 28 -3 74. 155. 86. < 1
-6 28 12 690. 200. 111. < -3
3 28 15 690. 200. 111. < -2
9 28 3 690. 200. 111. < 1
-3 28 15 707. 311. 58. o -3
6 28 12 707. 311. 58. o -2
9 28 -3 707. 311. 58. o 1
10 28 3 249. -8. 89. < 1
-1 29 -3 1122. 1209. 126. o -3
-2 29 0 1122. 1209. 126. o -2
-1 29 3 1122. 1209. 126. o 1
1 29 3 1122. 989. 86. o -3
2 29 0 1122. 989. 86. o -2
1 29 -3 1122. 989. 86. o 1
-2 29 0 1064. 942. 152. o -3
-1 29 3 1064. 942. 152. o -2
1 29 3 1064. 942. 152. o 1
2 29 0 1064. 976. 89. o -3
1 29 -3 1064. 976. 89. o -2
-1 29 -3 1064. 976. 89. o 1
2 29 3 618. 497. 76. o 1
2 29 -3 618. 680. 51. o 1
-3 29 3 1549. 1840. 89. o -3
0 29 6 1549. 1840. 89. o -2
3 29 3 1549. 1840. 89. o 1
0 29 6 1619. 1514. 52. o -3
3 29 3 1619. 1514. 52. o -2
3 29 -3 1619. 1514. 52. o 1
4 29 3 481. 554. 89. o 1
4 29 -3 481. 602. 52. o 1
-4 29 6 3731. 4608. 148. o -3
1 29 9 3731. 4608. 148. o -2
5 29 3 3731. 4608. 148. o 1
-1 29 9 3286. 2952. 70. o -3
4 29 6 3286. 2952. 70. o -2
5 29 -3 3286. 2952. 70. o 1
6 29 3 3409. 2882. 113. o 1
6 29 -3 3409. 2800. 78. o 1
-5 29 9 2882. 2272. 109. o -3
2 29 12 2882. 2272. 109. o -2
7 29 3 2882. 2272. 109. o 1
-2 29 12 3246. 3185. 113. o -3
5 29 9 3246. 3185. 113. o -2
7 29 -3 3246. 3185. 113. o 1
8 29 3 49. 33. 95. < 1
8 29 -3 49. 58. 74. < 1
-1 30 -3 7466. 7272. 187. o -3
-2 30 0 7466. 7272. 187. o -2
-1 30 3 7466. 7272. 187. o 1
1 30 3 7466. 8411. 117. o -3
2 30 0 7466. 8411. 117. o -2
1 30 -3 7466. 8411. 117. o 1
-2 30 0 7060. 6218. 194. o -3
-1 30 3 7060. 6218. 194. o -2
1 30 3 7060. 6218. 194. o 1
2 30 0 7060. 6619. 136. o -3
1 30 -3 7060. 6619. 136. o -2
-1 30 -3 7060. 6619. 136. o 1
2 30 3 118. 188. 76. < 1
2 30 -3 118. 202. 56. o 1
-3 30 3 746. 657. 78. o -3
0 30 6 746. 657. 78. o -2
3 30 3 746. 657. 78. o 1
0 30 6 757. 647. 64. o -3
3 30 3 757. 647. 64. o -2
3 30 -3 757. 647. 64. o 1
4 30 3 1275. 1228. 54. o 1
4 30 -3 1275. 1094. 70. o 1
-4 30 6 405. 253. 70. o -3
1 30 9 405. 253. 70. o -2
5 30 3 405. 253. 70. o 1
-1 30 9 422. 406. 76. o -3
4 30 6 422. 406. 76. o -2
5 30 -3 422. 406. 76. o 1
6 30 3 5137. 4549. 97. o 1
6 30 -3 5137. 4786. 89. o 1
8 30 3 77. 169. 111. < 1
8 30 -3 77. 14. 58. < 1
-1 31 -3 13879. 14926. 340. o -3
-2 31 0 13879. 14926. 340. o -2
-1 31 3 13879. 14926. 340. o 1
1 31 3 13879. 14765. 192. o -3
2 31 0 13879. 14765. 192. o -2
1 31 -3 13879. 14765. 192. o 1
-2 31 0 13177. 10445. 274. o -3
-1 31 3 13177. 10445. 274. o -2
1 31 3 13177. 10445. 274. o 1
2 31 0 13177. 10853. 181. o -3
1 31 -3 13177. 10853. 181. o -2
-1 31 -3 13177. 10853. 181. o 1
2 31 3 880. 785. 78. o 1
2 31 -3 880. 573. 72. o 1
0 31 6 5064. 5552. 87. o -3
3 31 3 5064. 5552. 87. o -2
3 31 -3 5064. 5552. 87. o 1
4 31 3 1058. 1090. 62. o 1
4 31 -3 1058. 1069. 62. o 1
-4 31 6 2408. 2151. 70. o -3
1 31 9 2408. 2151. 70. o -2
5 31 3 2408. 2151. 70. o 1
-1 31 9 2389. 2219. 82. o -3
4 31 6 2389. 2219. 82. o -2
5 31 -3 2389. 2219. 82. o 1
6 31 3 798. 463. 52. o 1
6 31 -3 798. 321. 58. o 1
-1 32 -3 3672. 4219. 163. o -3
-2 32 0 3672. 4219. 163. o -2
-1 32 3 3672. 4219. 163. o 1
1 32 3 3672. 4069. 115. o -3
2 32 0 3672. 4069. 115. o -2
1 32 -3 3672. 4069. 115. o 1
-2 32 0 3479. 3239. 152. o -3
-1 32 3 3479. 3239. 152. o -2
1 32 3 3479. 3239. 152. o 1
2 32 0 3479. 3113. 115. o -3
1 32 -3 3479. 3113. 115. o -2
-1 32 -3 3479. 3113. 115. o 1
2 32 3 1072. 816. 62. o 1
2 32 -3 1072. 1063. 62. o 1
-3 32 3 2837. 2946. 62. o -3
0 32 6 2837. 2946. 62. o -2
3 32 3 2837. 2946. 62. o 1
0 32 6 2779. 2711. 62. o -3
3 32 3 2779. 2711. 62. o -2
3 32 -3 2779. 2711. 62. o 1
4 32 3 675. 358. 49. o 1
4 32 -3 675. 604. 54. o 1
-4 32 6 665. 171. 56. o -3
1 32 9 665. 171. 56. o -2
5 32 3 665. 171. 56. o 1
-1 32 9 753. 422. 70. o -3
4 32 6 753. 422. 70. o -2
5 32 -3 753. 422. 70. o 1
6 32 3 184. 115. 47. < 1
6 32 -3 184. 120. 47. < 1
-1 33 -3 18716. 20086. 494. o -3
-2 33 0 18716. 20086. 494. o -2
-1 33 3 18716. 20086. 494. o 1
1 33 3 18716. 20096. 361. o -3
2 33 0 18716. 20096. 361. o -2
1 33 -3 18716. 20096. 361. o 1
-2 33 0 17697. 14248. 437. o -3
-1 33 3 17697. 14248. 437. o -2
1 33 3 17697. 14248. 437. o 1
2 33 0 17697. 13352. 509. o -3
1 33 -3 17697. 13352. 509. o -2
-1 33 -3 17697. 13352. 509. o 1
2 33 3 149. 72. 47. < 1
2 33 -3 149. 225. 56. o 1
-3 33 3 204. 70. 37. < -3
0 33 6 204. 70. 37. < -2
3 33 3 204. 70. 37. < 1
0 33 6 224. 157. 49. o -3
3 33 3 224. 157. 49. o -2
3 33 -3 224. 157. 49. o 1
4 33 3 521. 332. 45. o 1
4 33 -3 521. 338. 58. o 1
-4 33 6 780. 608. 49. o -3
1 33 9 780. 608. 49. o -2
5 33 3 780. 608. 49. o 1
-1 33 9 729. 220. 49. o -3
4 33 6 729. 220. 49. o -2
5 33 -3 729. 220. 49. o 1
-1 34 -3 2157. 1658. 138. o -3
-2 34 0 2157. 1658. 138. o -2
-1 34 3 2157. 1658. 138. o 1
1 34 3 2157. 1656. 99. o -3
2 34 0 2157. 1656. 99. o -2
1 34 -3 2157. 1656. 99. o 1
-2 34 0 2040. 412. 128. o -3
-1 34 3 2040. 412. 128. o -2
1 34 3 2040. 412. 128. o 1
2 34 0 2040. 826. 136. o -3
1 34 -3 2040. 826. 136. o -2
-1 34 -3 2040. 826. 136. o 1
2 34 3 171. 16. 56. < 1
2 34 -3 171. 146. 54. < 1
-3 34 3 893. 534. 49. o -3
0 34 6 893. 534. 49. o -2
3 34 3 893. 534. 49. o 1
0 34 6 858. 665. 51. o -3
3 34 3 858. 665. 51. o -2
3 34 -3 858. 665. 51. o 1
2 0 -4 35. 60. 16. o 1
2 0 2 34870. 31427. 76. o -3
2 0 -2 34870. 31427. 76. o -2
0 0 -4 34870. 31427. 76. o 1
-2 0 -4 35. 64. 16. o 1
0 0 8 122654. 130907. 323. o -3
4 0 4 122654. 130907. 323. o -2
4 0 -4 122654. 130907. 323. o 1
6 0 -4 514. 389. 41. o 1
-2 0 14 42645. 48852. 501. o -3
6 0 10 42645. 48852. 501. o -2
8 0 -4 42645. 48852. 501. o 1
1 1 5 3212. 2802. 29. o -3
3 1 1 3212. 2802. 29. o -2
2 1 -4 3212. 2802. 29. o 1
2 1 2 4. 14. 10. < -3
2 1 -2 4. 14. 10. < -2
0 1 -4 4. 14. 10. < 1
1 1 -4 10. 21. 6. o 1
3 1 -1 3211. 2771. 23. o -3
1 1 -5 3211. 2771. 23. o -2
-2 1 -4 3211. 2771. 23. o 1
3 1 -4 160. 187. 14. o 1
0 1 8 24. 60. 21. < -3
4 1 4 24. 60. 21. < -2
4 1 -4 24. 60. 21. < 1
5 1 -4 299. 192. 49. o 1
-1 1 11 474. 571. 43. o -3
5 1 7 474. 571. 43. o -2
6 1 -4 474. 571. 43. o 1
7 1 -4 67. 68. 74. < 1
-2 1 14 231. 733. 68. o -3
6 1 10 231. 733. 68. o -2
8 1 -4 231. 733. 68. o 1
9 1 -4 324. 325. 56. o 1
1 2 5 718. 659. 12. o -3
3 2 1 718. 659. 12. o -2
2 2 -4 718. 659. 12. o 1
2 2 2 97769. 95967. 97. o -3
2 2 -2 97769. 95967. 97. o -2
0 2 -4 97769. 95967. 97. o 1
1 2 -4 1608. 1471. 10. o 1
3 2 -1 703. 645. 17. o -3
1 2 -5 703. 645. 17. o -2
-2 2 -4 703. 645. 17. o 1
3 2 -4 1839. 1805. 19. o 1
0 2 8 36639. 40257. 146. o -3
4 2 4 36639. 40257. 146. o -2
4 2 -4 36639. 40257. 146. o 1
5 2 -4 4153. 3894. 95. o 1
7 2 -4 368. 468. 84. o 1
-2 2 14 50957. 56573. 503. o -3
6 2 10 50957. 56573. 503. o -2
8 2 -4 50957. 56573. 503. o 1
9 2 -4 7084. 7929. 185. o 1
1 3 5 376. 326. 12. o -3
3 3 1 376. 326. 12. o -2
2 3 -4 376. 326. 12. o 1
2 3 2 14. 35. 12. < -3
2 3 -2 14. 35. 12. < -2
0 3 -4 14. 35. 12. < 1
1 3 -4 19. 43. 8. o 1
3 3 -1 376. 309. 19. o -3
1 3 -5 376. 309. 19. o -2
-2 3 -4 376. 309. 19. o 1
3 3 -4 618. 567. 17. o 1
0 3 8 93. 66. 43. < -3
4 3 4 93. 66. 43. < -2
4 3 -4 93. 66. 43. < 1
5 3 -4 1855. 1928. 66. o 1
-5 3 7 4107. 3803. 103. o -3
1 3 11 4107. 3803. 103. o -2
6 3 4 4107. 3803. 103. o 1
-2 3 14 256. 82. 56. < -3
6 3 10 256. 82. 56. < -2
8 3 -4 256. 82. 56. < 1
9 3 -4 3309. 3587. 113. o 1
-3 3 17 856. 799. 68. o -3
7 3 13 856. 799. 68. o -2
10 3 -4 856. 799. 68. o 1
1 4 5 203. 249. 17. o -3
3 4 1 203. 249. 17. o -2
2 4 -4 203. 249. 17. o 1
2 4 2 26639. 25824. 66. o -3
2 4 -2 26639. 25824. 66. o -2
0 4 -4 26639. 25824. 66. o 1
1 4 -4 837. 744. 10. o 1
-3 4 1 174. 107. 17. o -3
-1 4 5 174. 107. 17. o -2
2 4 4 174. 107. 17. o 1
3 4 -1 174. 146. 21. o -3
1 4 -5 174. 146. 21. o -2
-2 4 -4 174. 146. 21. o 1
3 4 -4 600. 519. 12. o 1
0 4 8 246142. 248138. 466. o -3
4 4 4 246142. 248138. 466. o -2
4 4 -4 246142. 248138. 466. o 1
5 4 -4 17061. 16930. 202. o 1
-5 4 7 951. 466. 45. o -3
1 4 11 951. 466. 45. o -2
6 4 4 951. 466. 45. o 1
9 4 -4 10272. 11973. 249. o 1
-3 4 17 775. 886. 70. o -3
7 4 13 775. 886. 70. o -2
10 4 -4 775. 886. 70. o 1
11 4 -4 1177. 1251. 117. o 1
2 5 2 14. 41. 12. o -3
2 5 -2 14. 41. 12. o -2
0 5 -4 14. 41. 12. o 1
1 5 4 250. 188. 19. o 1
1 5 -4 250. 218. 10. o 1
-3 5 1 2172. 2062. 76. o -3
-1 5 5 2172. 2062. 76. o -2
2 5 4 2172. 2062. 76. o 1
3 5 -1 2172. 2173. 33. o -3
1 5 -5 2172. 2173. 33. o -2
-2 5 -4 2172. 2173. 33. o 1
3 5 -4 739. 595. 19. o 1
0 5 8 48. 183. 35. o -3
4 5 4 48. 183. 35. o -2
4 5 -4 48. 183. 35. o 1
5 5 -4 2427. 2721. 86. o 1
-5 5 7 2393. 2190. 78. o -3
1 5 11 2393. 2190. 78. o -2
6 5 4 2393. 2190. 78. o 1
7 5 4 1526. 1139. 66. o 1
9 5 -4 1257. 1222. 74. o 1
-3 5 17 3533. 3752. 138. o -3
7 5 13 3533. 3752. 138. o -2
10 5 -4 3533. 3752. 138. o 1
11 5 -4 2169. 2153. 126. o 1
1 6 5 511. 422. 19. o -3
3 6 1 511. 422. 19. o -2
2 6 -4 511. 422. 19. o 1
2 6 2 54746. 55436. 119. o -3
2 6 -2 54746. 55436. 119. o -2
0 6 -4 54746. 55436. 119. o 1
1 6 4 256. 260. 17. o 1
1 6 -4 256. 272. 14. o 1
-3 6 1 539. 626. 37. o -3
-1 6 5 539. 626. 37. o -2
2 6 4 539. 626. 37. o 1
3 6 -1 539. 589. 21. o -3
1 6 -5 539. 589. 21. o -2
-2 6 -4 539. 589. 21. o 1
3 6 -4 4665. 4372. 47. o 1
0 6 8 816331. 805756. 845. o -3
4 6 4 816331. 805756. 845. o -2
4 6 -4 816331. 805756. 845. o 1
5 6 4 10771. 10807. 185. o 1
5 6 -4 10771. 11186. 122. o 1
-5 6 7 877. 688. 52. o -3
1 6 11 877. 688. 52. o -2
6 6 4 877. 688. 52. o 1
7 6 4 921. 661. 58. o 1
-3 6 17 1973. 1724. 115. o -3
7 6 13 1973. 1724. 115. o -2
10 6 -4 1973. 1724. 115. o 1
11 6 -4 1061. 1319. 119. o 1
1 7 5 2204. 1858. 29. o -3
3 7 1 2204. 1858. 29. o -2
2 7 -4 2204. 1858. 29. o 1
-2 7 -2 24. 31. 35. < -3
-2 7 2 24. 31. 35. < -2
0 7 4 24. 31. 35. < 1
2 7 2 24. 33. 25. < -3
2 7 -2 24. 33. 25. < -2
0 7 -4 24. 33. 25. < 1
1 7 4 238. 231. 19. o 1
1 7 -4 238. 204. 14. o 1
-3 7 1 2193. 1662. 56. o -3
-1 7 5 2193. 1662. 56. o -2
2 7 4 2193. 1662. 56. o 1
3 7 -1 2193. 1813. 35. o -3
1 7 -5 2193. 1813. 35. o -2
-2 7 -4 2193. 1813. 35. o 1
3 7 -4 856. 665. 19. o 1
0 7 8 115. 8. 39. < -3
4 7 4 115. 8. 39. < -2
4 7 -4 115. 8. 39. < 1
5 7 4 272. 293. 54. o 1
5 7 -4 272. 155. 54. < 1
-5 7 7 8455. 7874. 177. o -3
1 7 11 8455. 7874. 177. o -2
6 7 4 8455. 7874. 177. o 1
-3 7 17 952. 803. 107. o -3
7 7 13 952. 803. 107. o -2
10 7 -4 952. 803. 107. o 1
11 7 -4 206. 251. 99. < 1
-4 7 20 347. 266. 109. < -3
8 7 16 347. 266. 109. < -2
12 7 -4 347. 266. 109. < 1
1 8 5 713. 503. 25. o -3
3 8 1 713. 503. 25. o -2
2 8 -4 713. 503. 25. o 1
-2 8 -2 19444. 20416. 132. o -3
-2 8 2 19444. 20416. 132. o -2
0 8 4 19444. 20416. 132. o 1
2 8 2 19444. 20160. 95. o -3
2 8 -2 19444. 20160. 95. o -2
0 8 -4 19444. 20160. 95. o 1
1 8 4 445. 437. 17. o 1
1 8 -4 445. 428. 12. o 1
-3 8 1 741. 946. 47. o -3
-1 8 5 741. 946. 47. o -2
2 8 4 741. 946. 47. o 1
3 8 -1 741. 661. 23. o -3
1 8 -5 741. 661. 23. o -2
-2 8 -4 741. 661. 23. o 1
3 8 -4 1457. 1467. 29. o 1
-4 8 4 87331. 91995. 354. o -3
0 8 8 87331. 91995. 354. o -2
4 8 4 87331. 91995. 354. o 1
0 8 8 88777. 91165. 282. o -3
4 8 4 88777. 91165. 282. o -2
4 8 -4 88777. 91165. 282. o 1
5 8 4 6040. 5754. 97. o 1
5 8 -4 6040. 5684. 97. o 1
-5 8 7 1002. 735. 58. o -3
1 8 11 1002. 735. 58. o -2
6 8 4 1002. 735. 58. o 1
-3 8 17 1092. 822. 105. o -3
7 8 13 1092. 822. 105. o -2
10 8 -4 1092. 822. 105. o 1
11 8 -4 56. 8. 95. < 1
-4 8 20 62248. 70230. 624. o -3
8 8 16 62248. 70230. 624. o -2
12 8 -4 62248. 70230. 624. o 1
-1 9 -5 17918. 16190. 107. o -3
-3 9 -1 17918. 16190. 107. o -2
-2 9 4 17918. 16190. 107. o 1
1 9 5 17918. 16475. 136. o -3
3 9 1 17918. 16475. 136. o -2
2 9 -4 17918. 16475. 136. o 1
-2 9 -2 158. 144. 33. o -3
-2 9 2 158. 144. 33. o -2
0 9 4 158. 144. 33. o 1
2 9 2 158. 152. 47. o -3
2 9 -2 158. 152. 47. o -2
0 9 -4 158. 152. 47. o 1
1 9 4 523. 507. 17. o 1
1 9 -4 523. 439. 16. o 1
-3 9 1 17757. 15241. 183. o -3
-1 9 5 17757. 15241. 183. o -2
2 9 4 17757. 15241. 183. o 1
3 9 -1 17757. 15286. 111. o -3
1 9 -5 17757. 15286. 111. o -2
-2 9 -4 17757. 15286. 111. o 1
3 9 4 3262. 3136. 49. o 1
3 9 -4 3262. 3092. 45. o 1
-4 9 4 50. 113. 62. < -3
0 9 8 50. 113. 62. < -2
4 9 4 50. 113. 62. < 1
0 9 8 48. 161. 33. o -3
4 9 4 48. 161. 33. o -2
4 9 -4 48. 161. 33. o 1
5 9 4 905. 871. 41. o 1
5 9 -4 905. 822. 41. o 1
-5 9 7 9242. 10340. 140. o -3
1 9 11 9242. 10340. 140. o -2
6 9 4 9242. 10340. 140. o 1
11 9 -4 4732. 3581. 146. o 1
-4 9 20 451. 358. 107. o -3
8 9 16 451. 358. 107. o -2
12 9 -4 451. 358. 107. o 1
-1 10 -5 2731. 2767. 47. o -3
-3 10 -1 2731. 2767. 47. o -2
-2 10 4 2731. 2767. 47. o 1
1 10 5 2731. 2934. 58. o -3
3 10 1 2731. 2934. 58. o -2
2 10 -4 2731. 2934. 58. o 1
-2 10 -2 9718. 9689. 105. o -3
-2 10 2 9718. 9689. 105. o -2
0 10 4 9718. 9689. 105. o 1
2 10 2 9718. 9734. 109. o -3
2 10 -2 9718. 9734. 109. o -2
0 10 -4 9718. 9734. 109. o 1
1 10 4 1725. 1698. 27. o 1
1 10 -4 1725. 1592. 27. o 1
-3 10 1 2662. 2647. 84. o -3
-1 10 5 2662. 2647. 84. o -2
2 10 4 2662. 2647. 84. o 1
3 10 -1 2662. 2526. 47. o -3
1 10 -5 2662. 2526. 47. o -2
-2 10 -4 2662. 2526. 47. o 1
3 10 4 6422. 6215. 76. o 1
3 10 -4 6422. 6263. 70. o 1
-4 10 4 186190. 177394. 379. o -3
0 10 8 186190. 177394. 379. o -2
4 10 4 186190. 177394. 379. o 1
0 10 8 182361. 183471. 394. o -3
4 10 4 182361. 183471. 394. o -2
4 10 -4 182361. 183471. 394. o 1
5 10 4 11327. 11296. 134. o 1
5 10 -4 11327. 11675. 144. o 1
-5 10 7 3186. 3807. 111. o -3
1 10 11 3186. 3807. 111. o -2
6 10 4 3186. 3807. 111. o 1
11 10 -4 1373. 1403. 119. o 1
13 10 -4 8438. 9054. 255. o 1
-1 11 -5 840. 839. 29. o -3
-3 11 -1 840. 839. 29. o -2
-2 11 4 840. 839. 29. o 1
1 11 5 840. 873. 37. o -3
3 11 1 840. 873. 37. o -2
2 11 -4 840. 873. 37. o 1
-2 11 -2 194. 305. 51. o -3
-2 11 2 194. 305. 51. o -2
0 11 4 194. 305. 51. o 1
2 11 2 194. 255. 52. o -3
2 11 -2 194. 255. 52. o -2
0 11 -4 194. 255. 52. o 1
1 11 4 179. 233. 37. o 1
1 11 -4 179. 167. 41. o 1
-3 11 1 836. 661. 45. o -3
-1 11 5 836. 661. 45. o -2
2 11 4 836. 661. 45. o 1
3 11 -1 836. 812. 29. o -3
1 11 -5 836. 812. 29. o -2
-2 11 -4 836. 812. 29. o 1
3 11 4 2625. 2336. 45. o 1
3 11 -4 2625. 2398. 41. o 1
-4 11 4 100. 52. 41. < -3
0 11 8 100. 52. 41. < -2
4 11 4 100. 52. 41. < 1
0 11 8 96. 103. 51. < -3
4 11 4 96. 103. 51. < -2
4 11 -4 96. 103. 51. < 1
5 11 4 1690. 1590. 74. o 1
5 11 -4 1690. 1687. 45. o 1
-5 11 7 5275. 4819. 124. o -3
1 11 11 5275. 4819. 124. o -2
6 11 4 5275. 4819. 124. o 1
-1 11 11 5034. 4594. 122. o -3
5 11 7 5034. 4594. 122. o -2
6 11 -4 5034. 4594. 122. o 1
11 11 -4 29. 222. 103. < 1
-4 11 20 392. 233. 105. < -3
8 11 16 392. 233. 105. < -2
12 11 -4 392. 233. 105. < 1
13 11 -4 455. 253. 103. < 1
-1 12 -5 264. 323. 29. o -3
-3 12 -1 264. 323. 29. o -2
-2 12 4 264. 323. 29. o 1
1 12 5 264. 264. 64. o -3
3 12 1 264. 264. 64. o -2
2 12 -4 264. 264. 64. o 1
-2 12 -2 47966. 49958. 227. o -3
-2 12 2 47966. 49958. 227. o -2
0 12 4 47966. 49958. 227. o 1
2 12 2 47966. 50001. 241. o -3
2 12 -2 47966. 50001. 241. o -2
0 12 -4 47966. 50001. 241. o 1
1 12 4 3889. 3723. 56. o 1
1 12 -4 3889. 3550. 47. o 1
-3 12 1 272. 463. 86. o -3
-1 12 5 272. 463. 86. o -2
2 12 4 272. 463. 86. o 1
3 12 -1 272. 356. 49. o -3
1 12 -5 272. 356. 49. o -2
-2 12 -4 272. 356. 49. o 1
3 12 4 1265. 1236. 37. o 1
3 12 -4 1265. 1234. 31. o 1
-4 12 4 202197. 209830. 536. o -3
0 12 8 202197. 209830. 536. o -2
4 12 4 202197. 209830. 536. o 1
0 12 8 203654. 208421. 455. o -3
4 12 4 203654. 208421. 455. o -2
4 12 -4 203654. 208421. 455. o 1
5 12 4 2909. 2903. 97. o 1
5 12 -4 2909. 2876. 56. o 1
-5 12 7 701. 869. 103. o -3
1 12 11 701. 869. 103. o -2
6 12 4 701. 869. 103. o 1
-1 12 11 752. 713. 105. o -3
5 12 7 752. 713. 105. o -2
6 12 -4 752. 713. 105. o 1
7 12 4 398. 412. 91. o 1
-4 12 20 73863. 84923. 668. o -3
8 12 16 73863. 84923. 668. o -2
12 12 -4 73863. 84923. 668. o 1
13 12 -4 1677. 1695. 128. o 1
-1 13 -5 615. 750. 37. o -3
-3 13 -1 615. 750. 37. o -2
-2 13 4 615. 750. 37. o 1
1 13 5 615. 723. 68. o -3
3 13 1 615. 723. 68. o -2
2 13 -4 615. 723. 68. o 1
-2 13 -2 10. -97. 52. < -3
-2 13 2 10. -97. 52. < -2
0 13 4 10. -97. 52. < 1
2 13 2 10. 161. 89. < -3
2 13 -2 10. 161. 89. < -2
0 13 -4 10. 161. 89. < 1
1 13 4 353. 356. 33. o 1
1 13 -4 353. 396. 43. o 1
-3 13 1 650. 733. 51. o -3
-1 13 5 650. 733. 51. o -2
2 13 4 650. 733. 51. o 1
3 13 -1 650. 723. 31. o -3
1 13 -5 650. 723. 31. o -2
-2 13 -4 650. 723. 31. o 1
3 13 4 5588. 5018. 78. o 1
3 13 -4 5588. 5443. 66. o 1
-4 13 4 135. 278. 52. o -3
0 13 8 135. 278. 52. o -2
4 13 4 135. 278. 52. o 1
0 13 8 163. 86. 51. < -3
4 13 4 163. 86. 51. < -2
4 13 -4 163. 86. 51. < 1
5 13 4 966. 913. 64. o 1
5 13 -4 966. 944. 56. o 1
-5 13 7 5841. 5674. 142. o -3
1 13 11 5841. 5674. 142. o -2
6 13 4 5841. 5674. 142. o 1
-1 13 11 5874. 6510. 146. o -3
5 13 7 5874. 6510. 146. o -2
6 13 -4 5874. 6510. 146. o 1
7 13 4 301. 233. 107. < 1
-4 13 20 511. 474. 107. o -3
8 13 16 511. 474. 107. o -2
12 13 -4 511. 474. 107. o 1
13 13 -4 84. 348. 101. o 1
-1 14 -5 3429. 3238. 101. o -3
-3 14 -1 3429. 3238. 101. o -2
-2 14 4 3429. 3238. 101. o 1
1 14 5 3429. 3026. 66. o -3
3 14 1 3429. 3026. 66. o -2
2 14 -4 3429. 3026. 66. o 1
-2 14 -2 27280. 28170. 185. o -3
-2 14 2 27280. 28170. 185. o -2
0 14 4 27280. 28170. 185. o 1
2 14 2 27280. 28290. 278. o -3
2 14 -2 27280. 28290. 278. o -2
0 14 -4 27280. 28290. 278. o 1
1 14 4 2419. 2419. 52. o 1
1 14 -4 2419. 2388. 41. o 1
-3 14 1 3516. 3533. 95. o -3
-1 14 5 3516. 3533. 95. o -2
2 14 4 3516. 3533. 95. o 1
3 14 -1 3516. 3461. 56. o -3
1 14 -5 3516. 3461. 56. o -2
-2 14 -4 3516. 3461. 56. o 1
3 14 4 4243. 4289. 68. o 1
3 14 -4 4243. 4155. 58. o 1
-4 14 4 70755. 68345. 406. o -3
0 14 8 70755. 68345. 406. o -2
4 14 4 70755. 68345. 406. o 1
0 14 8 69378. 73744. 309. o -3
4 14 4 69378. 73744. 309. o -2
4 14 -4 69378. 73744. 309. o 1
5 14 4 3998. 3556. 111. o 1
5 14 -4 3998. 4104. 72. o 1
-5 14 7 6407. 8535. 202. o -3
1 14 11 6407. 8535. 202. o -2
6 14 4 6407. 8535. 202. o 1
-1 14 11 7065. 8387. 190. o -3
5 14 7 7065. 8387. 190. o -2
6 14 -4 7065. 8387. 190. o 1
7 14 4 192. 95. 99. < 1
-4 14 20 8141. 8364. 200. o -3
8 14 16 8141. 8364. 200. o -2
12 14 -4 8141. 8364. 200. o 1
13 14 -4 1382. 1145. 122. o 1
-1 15 -5 10626. 9588. 183. o -3
-3 15 -1 10626. 9588. 183. o -2
-2 15 4 10626. 9588. 183. o 1
1 15 5 10626. 9819. 126. o -3
3 15 1 10626. 9819. 126. o -2
2 15 -4 10626. 9819. 126. o 1
-2 15 -2 146. 113. 49. < -3
-2 15 2 146. 113. 49. < -2
0 15 4 146. 113. 49. < 1
2 15 2 146. -6. 101. < -3
2 15 -2 146. -6. 101. < -2
0 15 -4 146. -6. 101. < 1
1 15 4 197. 245. 25. o 1
1 15 -4 197. 290. 54. o 1
-3 15 1 10872. 11285. 190. o -3
-1 15 5 10872. 11285. 190. o -2
2 15 4 10872. 11285. 190. o 1
3 15 -1 10872. 10972. 109. o -3
1 15 -5 10872. 10972. 109. o -2
-2 15 -4 10872. 10972. 109. o 1
3 15 4 3631. 3033. 62. o 1
3 15 -4 3631. 3234. 60. o 1
-4 15 4 374. 361. 60. o -3
0 15 8 374. 361. 60. o -2
4 15 4 374. 361. 60. o 1
0 15 8 391. 171. 60. < -3
4 15 4 391. 171. 60. < -2
4 15 -4 391. 171. 60. < 1
5 15 4 1638. 1654. 86. o 1
5 15 -4 1638. 1601. 66. o 1
-5 15 7 7158. 7268. 165. o -3
1 15 11 7158. 7268. 165. o -2
6 15 4 7158. 7268. 165. o 1
-1 15 11 7096. 7905. 126. o -3
5 15 7 7096. 7905. 126. o -2
6 15 -4 7096. 7905. 126. o 1
7 15 4 1158. 942. 76. o 1
-4 15 20 287. 152. 107. < -3
8 15 16 287. 152. 107. < -2
12 15 -4 287. 152. 107. < 1
13 15 -4 262. 204. 95. < 1
-1 16 -5 4868. 4578. 122. o -3
-3 16 -1 4868. 4578. 122. o -2
-2 16 4 4868. 4578. 122. o 1
1 16 5 4868. 4009. 84. o -3
3 16 1 4868. 4009. 84. o -2
2 16 -4 4868. 4009. 84. o 1
-2 16 -2 40188. 42406. 243. o -3
-2 16 2 40188. 42406. 243. o -2
0 16 4 40188. 42406. 243. o 1
2 16 2 40188. 41339. 326. o -3
2 16 -2 40188. 41339. 326. o -2
0 16 -4 40188. 41339. 326. o 1
1 16 4 1092. 952. 37. o 1
1 16 -4 1092. 981. 54. o 1
-3 16 1 5365. 6149. 163. o -3
-1 16 5 5365. 6149. 163. o -2
2 16 4 5365. 6149. 163. o 1
3 16 -1 5365. 6840. 91. o -3
1 16 -5 5365. 6840. 91. o -2
-2 16 -4 5365. 6840. 91. o 1
3 16 4 4487. 4512. 72. o 1
3 16 -4 4487. 4584. 70. o 1
-4 16 4 88518. 91711. 352. o -3
0 16 8 88518. 91711. 352. o -2
4 16 4 88518. 91711. 352. o 1
0 16 8 90864. 88153. 338. o -3
4 16 4 90864. 88153. 338. o -2
4 16 -4 90864. 88153. 338. o 1
5 16 4 45281. 48100. 447. o 1
5 16 -4 45281. 48549. 235. o 1
-5 16 7 2383. 1372. 84. o -3
1 16 11 2383. 1372. 84. o -2
6 16 4 2383. 1372. 84. o 1
-1 16 11 2216. 2120. 70. o -3
5 16 7 2216. 2120. 70. o -2
6 16 -4 2216. 2120. 70. o 1
7 16 4 382. 529. 111. o 1
7 16 -4 382. 548. 97. o 1
-6 16 10 8513. 8661. 185. o -3
2 16 14 8513. 8661. 185. o -2
8 16 4 8513. 8661. 185. o 1
-4 16 20 46547. 49346. 686. o -3
8 16 16 46547. 49346. 686. o -2
12 16 -4 46547. 49346. 686. o 1
13 16 -4 20638. 21996. 461. o 1
-1 17 -5 10410. 11112. 202. o -3
-3 17 -1 10410. 11112. 202. o -2
-2 17 4 10410. 11112. 202. o 1
1 17 5 10410. 11528. 138. o -3
3 17 1 10410. 11528. 138. o -2
2 17 -4 10410. 11528. 138. o 1
-2 17 -2 55. 45. 60. < -3
-2 17 2 55. 45. 60. < -2
0 17 4 55. 45. 60. < 1
2 17 2 55. -49. 78. < -3
2 17 -2 55. -49. 78. < -2
0 17 -4 55. -49. 78. < 1
1 17 4 4995. 4870. 84. o 1
1 17 -4 4995. 4837. 74. o 1
-3 17 1 10012. 8887. 198. o -3
-1 17 5 10012. 8887. 198. o -2
2 17 4 10012. 8887. 198. o 1
3 17 -1 10012. 9413. 109. o -3
1 17 -5 10012. 9413. 109. o -2
-2 17 -4 10012. 9413. 109. o 1
3 17 4 8029. 8414. 109. o 1
3 17 -4 8029. 8121. 105. o 1
-4 17 4 275. 264. 62. o -3
0 17 8 275. 264. 62. o -2
4 17 4 275. 264. 62. o 1
0 17 8 286. 332. 70. o -3
4 17 4 286. 332. 70. o -2
4 17 -4 286. 332. 70. o 1
5 17 4 1558. 1634. 86. o 1
5 17 -4 1558. 1726. 54. o 1
-5 17 7 2694. 3181. 109. o -3
1 17 11 2694. 3181. 109. o -2
6 17 4 2694. 3181. 109. o 1
-1 17 11 2836. 2631. 80. o -3
5 17 7 2836. 2631. 80. o -2
6 17 -4 2836. 2631. 80. o 1
7 17 4 912. 915. 128. o 1
7 17 -4 912. 873. 119. o 1
-6 17 10 175. 126. 117. < -3
2 17 14 175. 126. 117. < -2
8 17 4 175. 126. 117. < 1
-4 17 20 323. 159. 95. < -3
8 17 16 323. 159. 95. < -2
12 17 -4 323. 159. 95. < 1
13 17 -4 17. 37. 82. < 1
-1 18 -5 1449. 1786. 95. o -3
-3 18 -1 1449. 1786. 95. o -2
-2 18 4 1449. 1786. 95. o 1
1 18 5 1449. 1450. 56. o -3
3 18 1 1449. 1450. 56. o -2
2 18 -4 1449. 1450. 56. o 1
-2 18 -2 109162. 115703. 431. o -3
-2 18 2 109162. 115703. 431. o -2
0 18 4 109162. 115703. 431. o 1
2 18 2 109162. 115198. 459. o -3
2 18 -2 109162. 115198. 459. o -2
0 18 -4 109162. 115198. 459. o 1
1 18 4 1778. 1805. 62. o 1
1 18 -4 1778. 1916. 45. o 1
-3 18 1 1402. 1471. 91. o -3
-1 18 5 1402. 1471. 91. o -2
2 18 4 1402. 1471. 91. o 1
3 18 -1 1402. 1356. 47. o -3
1 18 -5 1402. 1356. 47. o -2
-2 18 -4 1402. 1356. 47. o 1
3 18 4 6443. 6844. 117. o 1
3 18 -4 6443. 6561. 93. o 1
-4 18 4 197082. 208720. 529. o -3
0 18 8 197082. 208720. 529. o -2
4 18 4 197082. 208720. 529. o 1
0 18 8 196168. 208922. 496. o -3
4 18 4 196168. 208922. 496. o -2
4 18 -4 196168. 208922. 496. o 1
5 18 4 3178. 3298. 111. o 1
5 18 -4 3178. 2948. 62. o 1
-5 18 7 1486. 1912. 99. o -3
1 18 11 1486. 1912. 99. o -2
6 18 4 1486. 1912. 99. o 1
-1 18 11 1608. 1908. 70. o -3
5 18 7 1608. 1908. 70. o -2
6 18 -4 1608. 1908. 70. o 1
7 18 4 2395. 3000. 140. o 1
7 18 -4 2395. 2691. 82. o 1
-6 18 10 33941. 32748. 546. o -3
2 18 14 33941. 32748. 546. o -2
8 18 4 33941. 32748. 546. o 1
-4 18 20 54980. 55333. 581. o -3
8 18 16 54980. 55333. 581. o -2
12 18 -4 54980. 55333. 581. o 1
13 18 -4 3630. 2460. 124. o 1
-1 19 -5 4132. 4380. 126. o -3
-3 19 -1 4132. 4380. 126. o -2
-2 19 4 4132. 4380. 126. o 1
1 19 5 4132. 4355. 87. o -3
3 19 1 4132. 4355. 87. o -2
2 19 -4 4132. 4355. 87. o 1
-2 19 -2 308. 188. 56. o -3
-2 19 2 308. 188. 56. o -2
0 19 4 308. 188. 56. o 1
2 19 2 308. 377. 89. o -3
2 19 -2 308. 377. 89. o -2
0 19 -4 308. 377. 89. o 1
1 19 4 96. 43. 74. < 1
1 19 -4 96. -41. 58. < 1
-3 19 1 4205. 4557. 138. o -3
-1 19 5 4205. 4557. 138. o -2
2 19 4 4205. 4557. 138. o 1
3 19 -1 4205. 4580. 74. o -3
1 19 -5 4205. 4580. 74. o -2
-2 19 -4 4205. 4580. 74. o 1
3 19 4 235. 169. 84. < 1
3 19 -4 235. 206. 62. o 1
-4 19 4 58. 154. 51. o -3
0 19 8 58. 154. 51. o -2
4 19 4 58. 154. 51. o 1
0 19 8 67. 37. 58. < -3
4 19 4 67. 37. 58. < -2
4 19 -4 67. 37. 58. < 1
5 19 4 1411. 1625. 97. o 1
5 19 -4 1411. 1306. 62. o 1
-5 19 7 2778. 2674. 115. o -3
1 19 11 2778. 2674. 115. o -2
6 19 4 2778. 2674. 115. o 1
-1 19 11 2745. 3548. 105. o -3
5 19 7 2745. 3548. 105. o -2
6 19 -4 2745. 3548. 105. o 1
7 19 4 94. 276. 134. < 1
7 19 -4 94. 245. 86. < 1
-6 19 10 224. 303. 117. < -3
2 19 14 224. 303. 117. < -2
8 19 4 224. 303. 117. < 1
-4 19 20 233. 358. 87. o -3
8 19 16 233. 358. 87. o -2
12 19 -4 233. 358. 87. o 1
13 19 -4 1090. 674. 103. o 1
-1 20 -5 1690. 1516. 86. o -3
-3 20 -1 1690. 1516. 86. o -2
-2 20 4 1690. 1516. 86. o 1
1 20 5 1690. 1133. 54. o -3
3 20 1 1690. 1133. 54. o -2
2 20 -4 1690. 1133. 54. o 1
-2 20 -2 35144. 34880. 241. o -3
-2 20 2 35144. 34880. 241. o -2
0 20 4 35144. 34880. 241. o 1
2 20 2 35144. 33982. 243. o -3
2 20 -2 35144. 33982. 243. o -2
0 20 -4 35144. 33982. 243. o 1
1 20 4 4478. 4578. 97. o 1
1 20 -4 4478. 4390. 66. o 1
-3 20 1 1879. 2421. 101. o -3
-1 20 5 1879. 2421. 101. o -2
2 20 4 1879. 2421. 101. o 1
3 20 -1 1879. 2151. 70. o -3
1 20 -5 1879. 2151. 70. o -2
-2 20 -4 1879. 2151. 70. o 1
3 20 4 1099. 1055. 54. o 1
3 20 -4 1099. 1172. 43. o 1
-4 20 4 2580. 2878. 68. o -3
0 20 8 2580. 2878. 68. o -2
4 20 4 2580. 2878. 68. o 1
0 20 8 2741. 3183. 56. o -3
4 20 4 2741. 3183. 56. o -2
4 20 -4 2741. 3183. 56. o 1
5 20 4 2444. 2163. 99. o 1
5 20 -4 2444. 2414. 68. o 1
-5 20 7 3417. 4337. 148. o -3
1 20 11 3417. 4337. 148. o -2
6 20 4 3417. 4337. 148. o 1
-1 20 11 3825. 3636. 105. o -3
5 20 7 3825. 3636. 105. o -2
6 20 -4 3825. 3636. 105. o 1
7 20 4 124. 305. 132. < 1
7 20 -4 124. 43. 76. < 1
-6 20 10 19972. 22447. 356. o -3
2 20 14 19972. 22447. 356. o -2
8 20 4 19972. 22447. 356. o 1
9 20 4 8964. 10278. 257. o 1
-4 20 20 5220. 3869. 146. o -3
8 20 16 5220. 3869. 146. o -2
12 20 -4 5220. 3869. 146. o 1
13 20 -4 523. 406. 91. o 1
-1 21 -5 1834. 2258. 95. o -3
-3 21 -1 1834. 2258. 95. o -2
-2 21 4 1834. 2258. 95. o 1
1 21 5 1834. 1891. 78. o -3
3 21 1 1834. 1891. 78. o -2
2 21 -4 1834. 1891. 78. o 1
-2 21 -2 63. 10. 72. < -3
-2 21 2 63. 10. 72. < -2
0 21 4 63. 10. 72. < 1
2 21 2 63. 192. 91. < -3
2 21 -2 63. 192. 91. < -2
0 21 -4 63. 192. 91. < 1
1 21 4 1061. 1096. 58. o 1
1 21 -4 1061. 974. 47. o 1
-3 21 1 1874. 1745. 86. o -3
-1 21 5 1874. 1745. 86. o -2
2 21 4 1874. 1745. 86. o 1
3 21 -1 1874. 1842. 66. o -3
1 21 -5 1874. 1842. 66. o -2
-2 21 -4 1874. 1842. 66. o 1
3 21 4 2620. 2690. 80. o 1
3 21 -4 2620. 2759. 58. o 1
-4 21 4 95. 140. 68. < -3
0 21 8 95. 140. 68. < -2
4 21 4 95. 140. 68. < 1
0 21 8 100. 187. 56. o -3
4 21 4 100. 187. 56. o -2
4 21 -4 100. 187. 56. o 1
5 21 4 761. 703. 60. o 1
5 21 -4 761. 890. 52. o 1
-5 21 7 3591. 3300. 142. o -3
1 21 11 3591. 3300. 142. o -2
6 21 4 3591. 3300. 142. o 1
-1 21 11 3492. 4100. 105. o -3
5 21 7 3492. 4100. 105. o -2
6 21 -4 3492. 4100. 105. o 1
7 21 4 1539. 1720. 126. o 1
7 21 -4 1539. 1553. 93. o 1
-6 21 10 412. 278. 152. < -3
2 21 14 412. 278. 152. < -2
8 21 4 412. 278. 152. < 1
-2 21 14 417. 231. 103. < -3
6 21 10 417. 231. 103. < -2
8 21 -4 417. 231. 103. < 1
9 21 4 96. 4. 117. < 1
-4 21 20 294. 171. 78. < -3
8 21 16 294. 171. 78. < -2
12 21 -4 294. 171. 78. < 1
13 21 -4 401. 443. 82. o 1
-1 22 -5 1761. 2295. 105. o -3
-3 22 -1 1761. 2295. 105. o -2
-2 22 4 1761. 2295. 105. o 1
1 22 5 1761. 2287. 80. o -3
3 22 1 1761. 2287. 80. o -2
2 22 -4 1761. 2287. 80. o 1
-2 22 -2 9340. 10022. 154. o -3
-2 22 2 9340. 10022. 154. o -2
0 22 4 9340. 10022. 154. o 1
2 22 2 9341. 9882. 124. o -3
2 22 -2 9341. 9882. 124. o -2
0 22 -4 9341. 9882. 124. o 1
1 22 4 15. -14. 84. < 1
1 22 -4 15. -4. 62. < 1
-3 22 1 1657. 1479. 87. o -3
-1 22 5 1657. 1479. 87. o -2
2 22 4 1657. 1479. 87. o 1
3 22 -1 1657. 1339. 60. o -3
1 22 -5 1657. 1339. 60. o -2
-2 22 -4 1657. 1339. 60. o 1
3 22 4 4207. 4604. 111. o 1
3 22 -4 4207. 4685. 68. o 1
-4 22 4 32859. 34452. 284. o -3
0 22 8 32859. 34452. 284. o -2
4 22 4 32859. 34452. 284. o 1
0 22 8 32482. 33866. 212. o -3
4 22 4 32482. 33866. 212. o -2
4 22 -4 32482. 33866. 212. o 1
5 22 4 10533. 10991. 173. o 1
5 22 -4 10533. 11632. 111. o 1
-5 22 7 795. 1312. 97. o -3
1 22 11 795. 1312. 97. o -2
6 22 4 795. 1312. 97. o 1
-1 22 11 857. 960. 84. o -3
5 22 7 857. 960. 84. o -2
6 22 -4 857. 960. 84. o 1
7 22 4 414. 286. 82. o 1
7 22 -4 414. 447. 93. o 1
-6 22 10 17903. 20432. 490. o -3
2 22 14 17903. 20432. 490. o -2
8 22 4 17903. 20432. 490. o 1
-2 22 14 18173. 21341. 274. o -3
6 22 10 18173. 21341. 274. o -2
8 22 -4 18173. 21341. 274. o 1
9 22 4 6513. 6856. 243. o 1
-1 23 -5 8029. 8241. 177. o -3
-3 23 -1 8029. 8241. 177. o -2
-2 23 4 8029. 8241. 177. o 1
1 23 5 8029. 7388. 103. o -3
3 23 1 8029. 7388. 103. o -2
2 23 -4 8029. 7388. 103. o 1
-2 23 -2 138. 39. 76. < -3
-2 23 2 138. 39. 76. < -2
0 23 4 138. 39. 76. < 1
2 23 2 138. 140. 68. < -3
2 23 -2 138. 140. 68. < -2
0 23 -4 138. 140. 68. < 1
1 23 4 84. 200. 82. < 1
1 23 -4 84. 78. 58. < 1
-3 23 1 8304. 9268. 194. o -3
-1 23 5 8304. 9268. 194. o -2
2 23 4 8304. 9268. 194. o 1
3 23 -1 8304. 8945. 148. o -3
1 23 -5 8304. 8945. 148. o -2
-2 23 -4 8304. 8945. 148. o 1
3 23 4 2104. 2283. 76. o 1
3 23 -4 2104. 2202. 60. o 1
-4 23 4 233. 447. 64. o -3
0 23 8 233. 447. 64. o -2
4 23 4 233. 447. 64. o 1
0 23 8 252. 303. 58. o -3
4 23 4 252. 303. 58. o -2
4 23 -4 252. 303. 58. o 1
5 23 4 1103. 1005. 72. o 1
5 23 -4 1103. 1125. 58. o 1
-5 23 7 6392. 5398. 157. o -3
1 23 11 6392. 5398. 157. o -2
6 23 4 6392. 5398. 157. o 1
-1 23 11 5756. 6166. 134. o -3
5 23 7 5756. 6166. 134. o -2
6 23 -4 5756. 6166. 134. o 1
7 23 4 1977. 2213. 117. o 1
7 23 -4 1977. 1867. 80. o 1
-6 23 10 629. 1009. 134. o -3
2 23 14 629. 1009. 134. o -2
8 23 4 629. 1009. 134. o 1
-2 23 14 694. 602. 97. o -3
6 23 10 694. 602. 97. o -2
8 23 -4 694. 602. 97. o 1
9 23 4 2151. 1430. 93. o 1
-7 23 13 732. 707. 89. o -3
3 23 17 732. 707. 89. o -2
10 23 4 732. 707. 89. o 1
-4 23 20 398. 130. 86. < -3
8 23 16 398. 130. 86. < -2
12 23 -4 398. 130. 86. < 1
-1 24 -5 1991. 2295. 117. o -3
-3 24 -1 1991. 2295. 117. o -2
-2 24 4 1991. 2295. 117. o 1
1 24 5 1991. 1976. 54. o -3
3 24 1 1991. 1976. 54. o -2
2 24 -4 1991. 1976. 54. o 1
-2 24 -2 28819. 32713. 363. o -3
-2 24 2 28819. 32713. 363. o -2
0 24 4 28819. 32713. 363. o 1
2 24 2 28819. 31988. 223. o -3
2 24 -2 28819. 31988. 223. o -2
0 24 -4 28819. 31988. 223. o 1
1 24 4 2873. 3224. 93. o 1
1 24 -4 2873. 2940. 52. o 1
-3 24 1 2059. 2765. 126. o -3
-1 24 5 2059. 2765. 126. o -2
2 24 4 2059. 2765. 126. o 1
3 24 -1 2059. 2347. 82. o -3
1 24 -5 2059. 2347. 82. o -2
-2 24 -4 2059. 2347. 82. o 1
3 24 4 1683. 1916. 78. o 1
3 24 -4 1683. 1928. 68. o 1
-4 24 4 41694. 48874. 451. o -3
0 24 8 41694. 48874. 451. o -2
4 24 4 41694. 48874. 451. o 1
0 24 8 43361. 49904. 260. o -3
4 24 4 43361. 49904. 260. o -2
4 24 -4 43361. 49904. 260. o 1
5 24 4 6754. 7454. 167. o 1
5 24 -4 6754. 7124. 91. o 1
-5 24 7 3825. 5280. 173. o -3
1 24 11 3825. 5280. 173. o -2
6 24 4 3825. 5280. 173. o 1
-1 24 11 4053. 4609. 99. o -3
5 24 7 4053. 4609. 99. o -2
6 24 -4 4053. 4609. 99. o 1
7 24 4 1158. 834. 86. o 1
7 24 -4 1158. 1224. 86. o 1
-6 24 10 21166. 27985. 484. o -3
2 24 14 21166. 27985. 484. o -2
8 24 4 21166. 27985. 484. o 1
-2 24 14 22451. 22045. 321. o -3
6 24 10 22451. 22045. 321. o -2
8 24 -4 22451. 22045. 321. o 1
9 24 4 7111. 6531. 183. o 1
-7 24 13 766. 435. 109. o -3
3 24 17 766. 435. 109. o -2
10 24 4 766. 435. 109. o 1
-4 24 20 22552. 21784. 412. o -3
8 24 16 22552. 21784. 412. o -2
12 24 -4 22552. 21784. 412. o 1
-1 25 -5 4256. 5696. 167. o -3
-3 25 -1 4256. 5696. 167. o -2
-2 25 4 4256. 5696. 167. o 1
1 25 5 4256. 5247. 82. o -3
3 25 1 4256. 5247. 82. o -2
2 25 -4 4256. 5247. 82. o 1
-2 25 -2 267. -39. 109. < -3
-2 25 2 267. -39. 109. < -2
0 25 4 267. -39. 109. < 1
2 25 2 267. 179. 78. < -3
2 25 -2 267. 179. 78. < -2
0 25 -4 267. 179. 78. < 1
1 25 4 2558. 2952. 87. o 1
1 25 -4 2558. 2892. 62. o 1
-3 25 1 3879. 3162. 138. o -3
-1 25 5 3879. 3162. 138. o -2
2 25 4 3879. 3162. 138. o 1
3 25 -1 3879. 3352. 99. o -3
1 25 -5 3879. 3352. 99. o -2
-2 25 -4 3879. 3352. 99. o 1
3 25 4 16033. 18916. 214. o 1
3 25 -4 16033. 18428. 144. o 1
-4 25 4 170. 56. 93. < -3
0 25 8 170. 56. 93. < -2
4 25 4 170. 56. 93. < 1
0 25 8 168. 150. 54. < -3
4 25 4 168. 150. 54. < -2
4 25 -4 168. 150. 54. < 1
5 25 4 7020. 7798. 225. o 1
5 25 -4 7020. 8747. 105. o 1
-1 25 11 7373. 8803. 144. o -3
5 25 7 7373. 8803. 144. o -2
6 25 -4 7373. 8803. 144. o 1
7 25 4 3881. 5173. 188. o 1
7 25 -4 3881. 4709. 142. o 1
-6 25 10 166. 305. 115. < -3
2 25 14 166. 305. 115. < -2
8 25 4 166. 305. 115. < 1
-2 25 14 170. 229. 89. < -3
6 25 10 170. 229. 89. < -2
8 25 -4 170. 229. 89. < 1
9 25 4 522. 196. 163. < 1
9 25 -4 521. 756. 107. o 1
-7 25 13 1730. 1953. 124. o -3
3 25 17 1730. 1953. 124. o -2
10 25 4 1730. 1953. 124. o 1
-1 26 -5 6649. 5676. 181. o -3
-3 26 -1 6649. 5676. 181. o -2
-2 26 4 6649. 5676. 181. o 1
1 26 5 6649. 5921. 93. o -3
3 26 1 6649. 5921. 93. o -2
2 26 -4 6649. 5921. 93. o 1
-2 26 -2 4763. 6358. 206. o -3
-2 26 2 4763. 6358. 206. o -2
0 26 4 4763. 6358. 206. o 1
2 26 2 4763. 6001. 101. o -3
2 26 -2 4763. 6001. 101. o -2
0 26 -4 4763. 6001. 101. o 1
1 26 4 3820. 4182. 136. o 1
1 26 -4 3820. 4351. 72. o 1
-3 26 1 7380. 7964. 200. o -3
-1 26 5 7380. 7964. 200. o -2
2 26 4 7380. 7964. 200. o 1
3 26 4 5026. 6030. 134. o 1
3 26 -4 5026. 5974. 89. o 1
-4 26 4 7063. 7346. 134. o -3
0 26 8 7063. 7346. 134. o -2
4 26 4 7063. 7346. 134. o 1
0 26 8 6986. 7369. 93. o -3
4 26 4 6986. 7369. 93. o -2
4 26 -4 6986. 7369. 93. o 1
5 26 4 4659. 4386. 161. o 1
5 26 -4 4659. 4351. 74. o 1
-5 26 7 10710. 11386. 297. o -3
1 26 11 10710. 11386. 297. o -2
6 26 4 10710. 11386. 297. o 1
-1 26 11 10271. 10470. 150. o -3
5 26 7 10271. 10470. 150. o -2
6 26 -4 10271. 10470. 150. o 1
7 26 4 1406. 698. 109. o 1
7 26 -4 1406. 1354. 99. o 1
-6 26 10 901. 1053. 109. o -3
2 26 14 901. 1053. 109. o -2
8 26 4 901. 1053. 109. o 1
-2 26 14 907. 909. 66. o -3
6 26 10 907. 909. 66. o -2
8 26 -4 907. 909. 66. o 1
9 26 4 4066. 3144. 159. o 1
9 26 -4 4066. 3488. 86. o 1
-7 26 13 1490. 983. 111. o -3
3 26 17 1490. 983. 111. o -2
10 26 4 1490. 983. 111. o 1
-1 27 -5 5376. 5328. 190. o -3
-3 27 -1 5376. 5328. 190. o -2
-2 27 4 5376. 5328. 190. o 1
1 27 5 5376. 5012. 99. o -3
3 27 1 5376. 5012. 99. o -2
2 27 -4 5376. 5012. 99. o 1
-2 27 -2 1016. 921. 117. o -3
-2 27 2 1016. 921. 117. o -2
0 27 4 1016. 921. 117. o 1
2 27 2 1016. 760. 76. o -3
2 27 -2 1016. 760. 76. o -2
0 27 -4 1016. 760. 76. o 1
1 27 4 1353. 1442. 91. o 1
1 27 -4 1353. 1389. 52. o 1
-3 27 1 5752. 6879. 200. o -3
-1 27 5 5752. 6879. 200. o -2
2 27 4 5752. 6879. 200. o 1
3 27 4 3689. 3626. 101. o 1
3 27 -4 3689. 3420. 70. o 1
-4 27 4 1236. 1240. 105. o -3
0 27 8 1236. 1240. 105. o -2
4 27 4 1236. 1240. 105. o 1
0 27 8 1228. 1065. 64. o -3
4 27 4 1228. 1065. 64. o -2
4 27 -4 1228. 1065. 64. o 1
5 27 4 2431. 2690. 192. o 1
5 27 -4 2431. 2528. 80. o 1
-5 27 7 12260. 14334. 194. o -3
1 27 11 12260. 14334. 194. o -2
6 27 4 12260. 14334. 194. o 1
-1 27 11 11909. 13263. 126. o -3
5 27 7 11909. 13263. 126. o -2
6 27 -4 11909. 13263. 126. o 1
7 27 4 1753. 1316. 113. o 1
7 27 -4 1753. 1834. 87. o 1
-6 27 10 58. 86. 107. < -3
2 27 14 58. 86. 107. < -2
8 27 4 58. 86. 107. < 1
-2 27 14 61. 54. 80. < -3
6 27 10 61. 54. 80. < -2
8 27 -4 61. 54. 80. < 1
9 27 4 7. 66. 109. < 1
9 27 -4 7. 58. 41. < 1
-7 27 13 789. 554. 99. o -3
3 27 17 789. 554. 99. o -2
10 27 4 789. 554. 99. o 1
-1 28 -5 1592. 1456. 132. o -3
-3 28 -1 1592. 1456. 132. o -2
-2 28 4 1592. 1456. 132. o 1
1 28 5 1592. 1300. 80. o -3
3 28 1 1592. 1300. 80. o -2
2 28 -4 1592. 1300. 80. o 1
-2 28 -2 16137. 17698. 270. o -3
-2 28 2 16137. 17698. 270. o -2
0 28 4 16137. 17698. 270. o 1
2 28 2 16137. 16607. 169. o -3
2 28 -2 16137. 16607. 169. o -2
0 28 -4 16137. 16607. 169. o 1
1 28 4 504. 76. 97. < 1
1 28 -4 504. 552. 54. o 1
-3 28 1 1620. 2347. 177. o -3
-1 28 5 1620. 2347. 177. o -2
2 28 4 1620. 2347. 177. o 1
3 28 -1 1620. 1737. 119. o -3
1 28 -5 1620. 1737. 119. o -2
-2 28 -4 1620. 1737. 119. o 1
3 28 4 548. 356. 89. o 1
3 28 -4 548. 482. 60. o 1
-4 28 4 11180. 13430. 206. o -3
0 28 8 11180. 13430. 206. o -2
4 28 4 11180. 13430. 206. o 1
0 28 8 10985. 12575. 138. o -3
4 28 4 10985. 12575. 138. o -2
4 28 -4 10985. 12575. 138. o 1
5 28 4 14065. 11668. 237. o 1
5 28 -4 14065. 15451. 152. o 1
-5 28 7 1842. 119. 115. < -3
1 28 11 1842. 119. 115. < -2
6 28 4 1842. 119. 115. < 1
-1 28 11 1973. 1628. 64. o -3
5 28 7 1973. 1628. 64. o -2
6 28 -4 1973. 1628. 64. o 1
7 28 4 273. 459. 87. o 1
7 28 -4 273. 295. 93. o 1
-6 28 10 8124. 7857. 192. o -3
2 28 14 8124. 7857. 192. o -2
8 28 4 8124. 7857. 192. o 1
-2 28 14 8236. 7522. 155. o -3
6 28 10 8236. 7522. 155. o -2
8 28 -4 8236. 7522. 155. o 1
9 28 4 1523. 363. 124. < 1
-1 29 -5 5437. 5350. 235. o -3
-3 29 -1 5437. 5350. 235. o -2
-2 29 4 5437. 5350. 235. o 1
1 29 5 5437. 5663. 206. o -3
3 29 1 5437. 5663. 206. o -2
2 29 -4 5437. 5663. 206. o 1
-2 29 -2 38. 17. 99. < -3
-2 29 2 38. 17. 99. < -2
0 29 4 38. 17. 99. < 1
2 29 2 38. 41. 74. < -3
2 29 -2 38. 41. 74. < -2
0 29 -4 38. 41. 74. < 1
1 29 4 236. 383. 80. o 1
1 29 -4 236. 408. 51. o 1
-3 29 1 5409. 4460. 144. o -3
-1 29 5 5409. 4460. 144. o -2
2 29 4 5409. 4460. 144. o 1
3 29 -1 5409. 5426. 140. o -3
1 29 -5 5409. 5426. 140. o -2
-2 29 -4 5409. 5426. 140. o 1
3 29 4 4434. 4234. 111. o 1
3 29 -4 4434. 4506. 76. o 1
-4 29 4 180. 86. 89. < -3
0 29 8 180. 86. 89. < -2
4 29 4 180. 86. 89. < 1
0 29 8 213. 19. 58. < -3
4 29 4 213. 19. 58. < -2
4 29 -4 213. 19. 58. < 1
5 29 4 498. 375. 119. o 1
5 29 -4 498. 354. 62. o 1
-5 29 7 4087. 4530. 120. o -3
1 29 11 4087. 4530. 120. o -2
6 29 4 4087. 4530. 120. o 1
-1 29 11 4106. 5179. 103. o -3
5 29 7 4106. 5179. 103. o -2
6 29 -4 4106. 5179. 103. o 1
7 29 4 1231. 1123. 89. o 1
7 29 -4 1231. 1226. 97. o 1
-6 29 10 257. -87. 91. < -3
2 29 14 257. -87. 91. < -2
8 29 4 257. -87. 91. < 1
-2 29 14 269. 19. 58. < -3
6 29 10 269. 19. 58. < -2
8 29 -4 269. 19. 58. < 1
9 29 4 564. 439. 99. o 1
9 29 -4 564. 700. 68. o 1
-1 30 -5 692. 970. 101. o -3
-3 30 -1 692. 970. 101. o -2
-2 30 4 692. 970. 101. o 1
1 30 5 692. 729. 134. o -3
3 30 1 692. 729. 134. o -2
2 30 -4 692. 729. 134. o 1
-2 30 -2 50390. 53061. 459. o -3
-2 30 2 50390. 53061. 459. o -2
0 30 4 50390. 53061. 459. o 1
2 30 2 50390. 54993. 406. o -3
2 30 -2 50390. 54993. 406. o -2
0 30 -4 50390. 54993. 406. o 1
1 30 4 3935. 3212. 140. o 1
1 30 -4 3935. 3846. 74. o 1
-3 30 1 631. 690. 113. o -3
-1 30 5 631. 690. 113. o -2
2 30 4 631. 690. 113. o 1
3 30 -1 631. 548. 91. o -3
1 30 -5 631. 548. 91. o -2
-2 30 -4 631. 548. 91. o 1
3 30 4 2792. 2466. 91. o 1
3 30 -4 2792. 2647. 62. o 1
-4 30 4 62967. 66946. 482. o -3
0 30 8 62967. 66946. 482. o -2
4 30 4 62967. 66946. 482. o 1
0 30 8 62821. 67614. 445. o -3
4 30 4 62821. 67614. 445. o -2
4 30 -4 62821. 67614. 445. o 1
5 30 4 175. 253. 72. o 1
5 30 -4 175. 295. 56. o 1
-5 30 7 1423. 1537. 80. o -3
1 30 11 1423. 1537. 80. o -2
6 30 4 1423. 1537. 80. o 1
-1 30 11 1315. 762. 64. o -3
5 30 7 1315. 762. 64. o -2
6 30 -4 1315. 762. 64. o 1
7 30 4 320. 167. 72. < 1
7 30 -4 320. 43. 84. < 1
-1 31 -5 3222. 2520. 152. o -3
-3 31 -1 3222. 2520. 152. o -2
-2 31 4 3222. 2520. 152. o 1
1 31 5 3222. 2740. 157. o -3
3 31 1 3222. 2740. 157. o -2
2 31 -4 3222. 2740. 157. o 1
-2 31 -2 65. 132. 72. < -3
-2 31 2 65. 132. 72. < -2
0 31 4 65. 132. 72. < 1
2 31 2 65. -31. 86. < -3
2 31 -2 65. -31. 86. < -2
0 31 -4 65. -31. 86. < 1
1 31 4 464. 369. 87. o 1
1 31 -4 464. 552. 62. o 1
-3 31 1 3672. 5247. 150. o -3
-1 31 5 3672. 5247. 150. o -2
2 31 4 3672. 5247. 150. o 1
3 31 -1 3672. 4390. 124. o -3
1 31 -5 3672. 4390. 124. o -2
-2 31 -4 3672. 4390. 124. o 1
3 31 4 2242. 2559. 111. o 1
3 31 -4 2242. 2744. 74. o 1
-4 31 4 275. 185. 62. < -3
0 31 8 275. 185. 62. < -2
4 31 4 275. 185. 62. < 1
0 31 8 293. 198. 58. o -3
4 31 4 293. 198. 58. o -2
4 31 -4 293. 198. 58. o 1
5 31 4 1454. 1306. 72. o 1
5 31 -4 1454. 1413. 76. o 1
-5 31 7 970. 354. 68. o -3
1 31 11 970. 354. 68. o -2
6 31 4 970. 354. 68. o 1
-1 31 11 1056. 1224. 60. o -3
5 31 7 1056. 1224. 60. o -2
6 31 -4 1056. 1224. 60. o 1
-1 32 -5 1976. 1294. 144. o -3
-3 32 -1 1976. 1294. 144. o -2
-2 32 4 1976. 1294. 144. o 1
1 32 5 1976. 1459. 140. o -3
3 32 1 1976. 1459. 140. o -2
2 32 -4 1976. 1459. 140. o 1
-2 32 -2 6729. 7723. 216. o -3
-2 32 2 6729. 7723. 216. o -2
0 32 4 6729. 7723. 216. o 1
2 32 2 6729. 7989. 167. o -3
2 32 -2 6729. 7989. 167. o -2
0 32 -4 6729. 7989. 167. o 1
1 32 4 888. 564. 82. o 1
1 32 -4 888. 670. 68. o 1
-3 32 1 1994. 1537. 76. o -3
-1 32 5 1994. 1537. 76. o -2
2 32 4 1994. 1537. 76. o 1
3 32 -1 1994. 1574. 138. o -3
1 32 -5 1994. 1574. 138. o -2
-2 32 -4 1994. 1574. 138. o 1
3 32 4 205. 132. 51. < 1
3 32 -4 205. 152. 52. < 1
-4 32 4 756. 641. 60. o -3
0 32 8 756. 641. 60. o -2
4 32 4 756. 641. 60. o 1
0 32 8 743. 496. 58. o -3
4 32 4 743. 496. 58. o -2
4 32 -4 743. 496. 58. o 1
5 32 4 744. 527. 60. o 1
5 32 -4 744. 183. 66. < 1
-1 33 -5 1301. 1119. 126. o -3
-3 33 -1 1301. 1119. 126. o -2
-2 33 4 1301. 1119. 126. o 1
1 33 5 1301. 546. 117. o -3
3 33 1 1301. 546. 117. o -2
2 33 -4 1301. 546. 117. o 1
-2 33 -2 76. 60. 68. < -3
-2 33 2 76. 60. 68. < -2
0 33 4 76. 60. 68. < 1
2 33 2 76. 68. 68. < -3
2 33 -2 76. 68. 68. < -2
0 33 -4 76. 68. 68. < 1
-3 33 1 1301. 185. 68. < -3
-1 33 5 1301. 185. 68. < -2
2 33 4 1301. 185. 68. < 1
3 33 -1 1301. 385. 113. o -3
1 33 -5 1301. 385. 113. o -2
-2 33 -4 1301. 385. 113. o 1
3 33 4 90. 43. 43. < 1
3 33 -4 90. 54. 51. < 1
-4 33 4 326. 346. 39. o -3
0 33 8 326. 346. 39. o -2
4 33 4 326. 346. 39. o 1
0 33 8 362. 231. 51. o -3
4 33 4 362. 231. 51. o -2
4 33 -4 362. 231. 51. o 1
5 33 4 448. 103. 41. < 1
5 33 -4 448. -51. 70. < 1
-1 34 -5 701. 274. 113. < -3
-3 34 -1 701. 274. 113. < -2
-2 34 4 701. 274. 113. < 1
1 34 5 701. 981. 109. o -3
3 34 1 701. 981. 109. o -2
2 34 -4 701. 981. 109. o 1
-2 34 -2 9750. 8788. 291. o -3
-2 34 2 9750. 8788. 291. o -2
0 34 4 9750. 8788. 291. o 1
2 34 2 9750. 9273. 249. o -3
2 34 -2 9750. 9273. 249. o -2
0 34 -4 9750. 9273. 249. o 1
1 34 4 174. -12. 70. < 1
1 34 -4 174. 91. 54. < 1
-3 34 1 658. 216. 58. o -3
-1 34 5 658. 216. 58. o -2
2 34 4 658. 216. 58. o 1
3 34 -1 658. 396. 97. o -3
1 34 -5 658. 396. 97. o -2
-2 34 -4 658. 396. 97. o 1
3 34 4 515. 190. 35. o 1
3 34 -4 515. 245. 45. o 1
2 0 -5 2864. 2839. 25. o 1
4 0 -5 425. 398. 25. o 1
2 1 4 1561. 1930. 17. o -3
3 1 -1 1561. 1930. 17. o -2
1 1 -5 1561. 1930. 17. o 1
2 1 -5 688. 698. 10. o 1
1 1 7 1974. 1967. 27. o -3
4 1 2 1974. 1967. 27. o -2
3 1 -5 1974. 1967. 27. o 1
4 1 -5 507. 167. 27. o 1
6 1 -5 5905. 6034. 142. o 1
2 2 4 1177. 1114. 14. o -3
3 2 -1 1177. 1114. 14. o -2
1 2 -5 1177. 1114. 14. o 1
3 2 1 1232. 1351. 16. o -3
2 2 -4 1232. 1351. 16. o -2
-1 2 -5 1232. 1351. 16. o 1
2 2 -5 164. 206. 14. o 1
1 2 7 1271. 1216. 23. o -3
4 2 2 1271. 1216. 23. o -2
3 2 -5 1271. 1216. 23. o 1
4 2 -5 441. 360. 43. o 1
6 2 -5 4667. 4617. 130. o 1
2 3 4 267. 276. 12. o -3
3 3 -1 267. 276. 12. o -2
1 3 -5 267. 276. 12. o 1
3 3 1 250. 227. 14. o -3
2 3 -4 250. 227. 14. o -2
-1 3 -5 250. 227. 14. o 1
2 3 -5 91. 113. 12. o 1
1 3 7 2646. 2297. 31. o -3
4 3 2 2646. 2297. 31. o -2
3 3 -5 2646. 2297. 31. o 1
4 3 -5 887. 867. 19. o 1
0 3 10 6908. 7235. 142. o -3
5 3 5 6908. 7235. 142. o -2
5 3 -5 6908. 7235. 142. o 1
6 3 -5 3047. 2526. 89. o 1
2 4 4 413. 428. 21. o -3
3 4 -1 413. 428. 21. o -2
1 4 -5 413. 428. 21. o 1
3 4 1 416. 431. 12. o -3
2 4 -4 416. 431. 12. o -2
-1 4 -5 416. 431. 12. o 1
2 4 -5 184. 188. 16. o 1
1 4 7 962. 1007. 19. o -3
4 4 2 962. 1007. 19. o -2
3 4 -5 962. 1007. 19. o 1
4 4 -5 3487. 3315. 60. o 1
-6 4 8 2652. 2985. 107. o -3
1 4 13 2652. 2985. 107. o -2
7 4 5 2652. 2985. 107. o 1
2 5 4 1386. 1230. 23. o -3
3 5 -1 1386. 1230. 23. o -2
1 5 -5 1386. 1230. 23. o 1
3 5 1 1378. 1259. 19. o -3
2 5 -4 1378. 1259. 19. o -2
-1 5 -5 1378. 1259. 19. o 1
2 5 -5 1212. 1042. 17. o 1
1 5 7 2065. 1809. 27. o -3
4 5 2 2065. 1809. 27. o -2
3 5 -5 2065. 1809. 27. o 1
4 5 -5 636. 538. 29. o 1
0 5 10 8439. 8160. 109. o -3
5 5 5 8439. 8160. 109. o -2
5 5 -5 8439. 8160. 109. o 1
6 5 5 2950. 2421. 86. o 1
-6 5 8 3029. 2629. 97. o -3
1 5 13 3029. 2629. 97. o -2
7 5 5 3029. 2629. 97. o 1
2 6 4 629. 511. 16. o -3
3 6 -1 629. 511. 16. o -2
1 6 -5 629. 511. 16. o 1
-3 6 -1 675. 742. 39. o -3
-2 6 4 675. 742. 39. o -2
1 6 5 675. 742. 39. o 1
3 6 1 675. 752. 16. o -3
2 6 -4 675. 752. 16. o -2
-1 6 -5 675. 752. 16. o 1
2 6 5 10361. 9248. 130. o 1
2 6 -5 10361. 9198. 56. o 1
1 6 7 4950. 5070. 49. o -3
4 6 2 4950. 5070. 49. o -2
3 6 -5 4950. 5070. 49. o 1
4 6 -5 2141. 2248. 51. o 1
0 6 10 3253. 4034. 72. o -3
5 6 5 3253. 4034. 72. o -2
5 6 -5 3253. 4034. 72. o 1
6 6 5 4291. 4285. 115. o 1
-6 6 8 899. 661. 56. o -3
1 6 13 899. 661. 56. o -2
7 6 5 899. 661. 56. o 1
2 7 4 1363. 1345. 19. o -3
3 7 -1 1363. 1345. 19. o -2
1 7 -5 1363. 1345. 19. o 1
2 7 5 7176. 5941. 122. o 1
2 7 -5 7176. 6137. 51. o 1
1 7 7 2861. 2820. 39. o -3
4 7 2 2861. 2820. 39. o -2
3 7 -5 2861. 2820. 39. o 1
4 7 -5 1285. 1079. 37. o 1
0 7 10 5412. 5606. 99. o -3
5 7 5 5412. 5606. 99. o -2
5 7 -5 5412. 5606. 99. o 1
6 7 5 811. 608. 51. o 1
2 8 4 956. 639. 27. o -3
3 8 -1 956. 639. 27. o -2
1 8 -5 956. 639. 27. o 1
-3 8 -1 1021. 923. 43. o -3
-2 8 4 1021. 923. 43. o -2
1 8 5 1021. 923. 43. o 1
3 8 1 1021. 1090. 19. o -3
2 8 -4 1021. 1090. 19. o -2
-1 8 -5 1021. 1090. 19. o 1
1 8 7 10584. 10888. 72. o -3
4 8 2 10584. 10888. 72. o -2
3 8 -5 10584. 10888. 72. o 1
4 8 -5 1404. 1152. 33. o 1
-5 8 5 2800. 2691. 68. o -3
0 8 10 2800. 2691. 68. o -2
5 8 5 2800. 2691. 68. o 1
0 8 10 2702. 2876. 60. o -3
5 8 5 2702. 2876. 60. o -2
5 8 -5 2702. 2876. 60. o 1
6 8 5 16. 68. 60. < 1
-6 8 8 6921. 7402. 150. o -3
1 8 13 6921. 7402. 150. o -2
7 8 5 6921. 7402. 150. o 1
-2 9 -4 10180. 11456. 113. o -3
-3 9 1 10180. 11456. 113. o -2
-1 9 5 10180. 11456. 113. o 1
2 9 4 10180. 11901. 74. o -3
3 9 -1 10180. 11901. 74. o -2
1 9 -5 10180. 11901. 74. o 1
2 9 5 3490. 3016. 86. o 1
2 9 -5 3490. 3191. 33. o 1
1 9 7 5704. 5200. 52. o -3
4 9 2 5704. 5200. 52. o -2
3 9 -5 5704. 5200. 52. o 1
4 9 5 415. 375. 60. o 1
4 9 -5 415. 338. 31. o 1
-5 9 5 3658. 4151. 74. o -3
0 9 10 3658. 4151. 74. o -2
5 9 5 3658. 4151. 74. o 1
0 9 10 4063. 3247. 72. o -3
5 9 5 4063. 3247. 72. o -2
5 9 -5 4063. 3247. 72. o 1
6 9 5 694. 737. 60. o 1
-2 10 -4 4542. 4353. 76. o -3
-3 10 1 4542. 4353. 76. o -2
-1 10 5 4542. 4353. 76. o 1
2 10 4 4542. 4141. 54. o -3
3 10 -1 4542. 4141. 54. o -2
1 10 -5 4542. 4141. 54. o 1
-3 10 -1 4749. 5762. 132. o -3
-2 10 4 4749. 5762. 132. o -2
1 10 5 4749. 5762. 132. o 1
3 10 1 4749. 5398. 62. o -3
2 10 -4 4749. 5398. 62. o -2
-1 10 -5 4749. 5398. 62. o 1
2 10 5 2253. 1984. 37. o 1
2 10 -5 2253. 2095. 29. o 1
1 10 7 3084. 3642. 43. o -3
4 10 2 3084. 3642. 43. o -2
3 10 -5 3084. 3642. 43. o 1
4 10 5 683. 665. 31. o 1
4 10 -5 683. 626. 21. o 1
-5 10 5 5372. 4578. 84. o -3
0 10 10 5372. 4578. 84. o -2
5 10 5 5372. 4578. 84. o 1
0 10 10 5131. 5847. 101. o -3
5 10 5 5131. 5847. 101. o -2
5 10 -5 5131. 5847. 101. o 1
6 10 5 2955. 2977. 74. o 1
6 10 -5 2955. 2907. 103. o 1
-2 11 -4 459. 616. 31. o -3
-3 11 1 459. 616. 31. o -2
-1 11 5 459. 616. 31. o 1
2 11 4 459. 657. 35. o -3
3 11 -1 459. 657. 35. o -2
1 11 -5 459. 657. 35. o 1
-3 11 -1 398. 206. 76. < -3
-2 11 4 398. 206. 76. < -2
1 11 5 398. 206. 76. < 1
3 11 1 398. 315. 41. o -3
2 11 -4 398. 315. 41. o -2
-1 11 -5 398. 315. 41. o 1
2 11 5 2586. 2423. 41. o 1
2 11 -5 2586. 2351. 31. o 1
1 11 7 1542. 1286. 37. o -3
4 11 2 1542. 1286. 37. o -2
3 11 -5 1542. 1286. 37. o 1
4 11 5 3026. 2730. 56. o 1
4 11 -5 3026. 2649. 37. o 1
0 11 10 15880. 15031. 169. o -3
5 11 5 15880. 15031. 169. o -2
5 11 -5 15880. 15031. 169. o 1
6 11 5 777. 773. 103. o 1
6 11 -5 777. 913. 62. o 1
-2 12 -4 377. 443. 31. o -3
-3 12 1 377. 443. 31. o -2
-1 12 5 377. 443. 31. o 1
2 12 4 377. 544. 45. o -3
3 12 -1 377. 544. 45. o -2
1 12 -5 377. 544. 45. o 1
-3 12 -1 402. 536. 45. o -3
-2 12 4 402. 536. 45. o -2
1 12 5 402. 536. 45. o 1
3 12 1 402. 637. 45. o -3
2 12 -4 402. 637. 45. o -2
-1 12 -5 402. 637. 45. o 1
2 12 5 2950. 2775. 45. o 1
2 12 -5 2950. 2759. 35. o 1
-4 12 2 3781. 3762. 66. o -3
-1 12 7 3781. 3762. 66. o -2
3 12 5 3781. 3762. 66. o 1
1 12 7 4043. 4367. 51. o -3
4 12 2 4043. 4367. 51. o -2
3 12 -5 4043. 4367. 51. o 1
4 12 5 7304. 7313. 113. o 1
4 12 -5 7305. 7544. 74. o 1
-5 12 5 5407. 4518. 89. o -3
0 12 10 5407. 4518. 89. o -2
5 12 5 5407. 4518. 89. o 1
0 12 10 5122. 5338. 78. o -3
5 12 5 5122. 5338. 78. o -2
5 12 -5 5122. 5338. 78. o 1
6 12 5 482. 635. 105. o 1
6 12 -5 482. 624. 107. o 1
-6 12 8 4178. 4576. 136. o -3
1 12 13 4178. 4576. 136. o -2
7 12 5 4178. 4576. 136. o 1
-2 13 -4 634. 647. 60. o -3
-3 13 1 634. 647. 60. o -2
-1 13 5 634. 647. 60. o 1
2 13 4 634. 645. 54. o -3
3 13 -1 634. 645. 54. o -2
1 13 -5 634. 645. 54. o 1
-3 13 -1 672. 705. 51. o -3
-2 13 4 672. 705. 51. o -2
1 13 5 672. 705. 51. o 1
3 13 1 672. 748. 37. o -3
2 13 -4 672. 748. 37. o -2
-1 13 -5 672. 748. 37. o 1
2 13 5 2315. 2110. 39. o 1
2 13 -5 2315. 2153. 31. o 1
-4 13 2 2450. 2482. 52. o -3
-1 13 7 2450. 2482. 52. o -2
3 13 5 2450. 2482. 52. o 1
1 13 7 2334. 2346. 45. o -3
4 13 2 2334. 2346. 45. o -2
3 13 -5 2334. 2346. 45. o 1
4 13 5 2666. 2509. 68. o 1
4 13 -5 2666. 2579. 54. o 1
6 13 5 52. 103. 105. < 1
6 13 -5 52. 89. 99. < 1
-2 14 -4 5206. 4295. 80. o -3
-3 14 1 5206. 4295. 80. o -2
-1 14 5 5206. 4295. 80. o 1
2 14 4 5206. 4588. 68. o -3
3 14 -1 5206. 4588. 68. o -2
1 14 -5 5206. 4588. 68. o 1
-3 14 -1 5564. 6355. 154. o -3
-2 14 4 5564. 6355. 154. o -2
1 14 5 5564. 6355. 154. o 1
3 14 1 5564. 6384. 70. o -3
2 14 -4 5564. 6384. 70. o -2
-1 14 -5 5564. 6384. 70. o 1
2 14 5 3804. 3787. 80. o 1
2 14 -5 3804. 3537. 41. o 1
-4 14 2 9009. 8933. 103. o -3
-1 14 7 9009. 8933. 103. o -2
3 14 5 9009. 8933. 103. o 1
1 14 7 9421. 9357. 74. o -3
4 14 2 9421. 9357. 74. o -2
3 14 -5 9421. 9357. 74. o 1
4 14 5 2407. 2536. 70. o 1
4 14 -5 2407. 2447. 52. o 1
-5 14 5 5685. 4709. 130. o -3
0 14 10 5685. 4709. 130. o -2
5 14 5 5685. 4709. 130. o 1
0 14 10 5380. 5793. 89. o -3
5 14 5 5380. 5793. 89. o -2
5 14 -5 5380. 5793. 89. o 1
6 14 5 458. 389. 54. o 1
6 14 -5 458. 733. 107. o 1
-6 14 8 2145. 2435. 103. o -3
1 14 13 2145. 2435. 103. o -2
7 14 5 2145. 2435. 103. o 1
-2 15 -4 6392. 6767. 111. o -3
-3 15 1 6392. 6767. 111. o -2
-1 15 5 6392. 6767. 111. o 1
2 15 4 6392. 7031. 86. o -3
3 15 -1 6392. 7031. 86. o -2
1 15 -5 6392. 7031. 86. o 1
-3 15 -1 5995. 4792. 124. o -3
-2 15 4 5995. 4792. 124. o -2
1 15 5 5995. 4792. 124. o 1
3 15 1 5995. 4979. 62. o -3
2 15 -4 5995. 4979. 62. o -2
-1 15 -5 5995. 4979. 62. o 1
2 15 5 2818. 2719. 64. o 1
2 15 -5 2818. 2678. 35. o 1
-4 15 2 11206. 11232. 115. o -3
-1 15 7 11206. 11232. 115. o -2
3 15 5 11206. 11232. 115. o 1
1 15 7 10983. 10876. 80. o -3
4 15 2 10983. 10876. 80. o -2
3 15 -5 10983. 10876. 80. o 1
4 15 5 70. 167. 74. < 1
4 15 -5 70. 76. 52. < 1
-5 15 5 6768. 6584. 146. o -3
0 15 10 6768. 6584. 146. o -2
5 15 5 6768. 6584. 146. o 1
0 15 10 6672. 6786. 93. o -3
5 15 5 6672. 6786. 93. o -2
5 15 -5 6672. 6786. 93. o 1
6 15 5 37. 82. 113. < 1
6 15 -5 37. 84. 70. < 1
-6 15 8 7866. 6051. 155. o -3
1 15 13 7866. 6051. 155. o -2
7 15 5 7866. 6051. 155. o 1
-1 15 13 6993. 5717. 157. o -3
6 15 8 6993. 5717. 157. o -2
7 15 -5 6993. 5717. 157. o 1
8 15 5 1177. 1117. 86. o 1
-2 16 -4 6069. 5534. 97. o -3
-3 16 1 6069. 5534. 97. o -2
-1 16 5 6069. 5534. 97. o 1
2 16 4 6069. 5154. 82. o -3
3 16 -1 6069. 5154. 82. o -2
1 16 -5 6069. 5154. 82. o 1
2 16 5 503. 534. 43. o 1
2 16 -5 503. 494. 41. o 1
1 16 7 8290. 10088. 80. o -3
4 16 2 8290. 10088. 80. o -2
3 16 -5 8290. 10088. 80. o 1
4 16 5 437. 437. 64. o 1
4 16 -5 437. 334. 52. o 1
-5 16 5 33931. 29752. 326. o -3
0 16 10 33931. 29752. 326. o -2
5 16 5 33931. 29752. 326. o 1
0 16 10 32088. 36262. 218. o -3
5 16 5 32088. 36262. 218. o -2
5 16 -5 32088. 36262. 218. o 1
6 16 5 3644. 4376. 138. o 1
6 16 -5 3644. 3653. 82. o 1
-6 16 8 7127. 8731. 183. o -3
1 16 13 7127. 8731. 183. o -2
7 16 5 7127. 8731. 183. o 1
-1 16 13 7515. 8821. 188. o -3
6 16 8 7515. 8821. 188. o -2
7 16 -5 7515. 8821. 188. o 1
8 16 5 1814. 1695. 103. o 1
-2 17 -4 8844. 9932. 140. o -3
-3 17 1 8844. 9932. 140. o -2
-1 17 5 8844. 9932. 140. o 1
2 17 4 8844. 10247. 117. o -3
3 17 -1 8844. 10247. 117. o -2
1 17 -5 8844. 10247. 117. o 1
-3 17 -1 8209. 7019. 173. o -3
-2 17 4 8209. 7019. 173. o -2
1 17 5 8209. 7019. 173. o 1
3 17 1 8209. 6716. 87. o -3
2 17 -4 8209. 6716. 87. o -2
-1 17 -5 8209. 6716. 87. o 1
2 17 5 308. 284. 74. o 1
2 17 -5 308. 241. 47. o 1
-4 17 2 12959. 12610. 159. o -3
-1 17 7 12959. 12610. 159. o -2
3 17 5 12959. 12610. 159. o 1
1 17 7 12228. 11257. 86. o -3
4 17 2 12228. 11257. 86. o -2
3 17 -5 12228. 11257. 86. o 1
4 17 5 179. 202. 51. o 1
4 17 -5 179. 260. 54. o 1
0 17 10 34243. 34783. 179. o -3
5 17 5 34243. 34783. 179. o -2
5 17 -5 34243. 34783. 179. o 1
6 17 5 1011. 1051. 78. o 1
6 17 -5 1011. 929. 76. o 1
-6 17 8 644. 702. 128. o -3
1 17 13 644. 702. 128. o -2
7 17 5 644. 702. 128. o 1
-1 17 13 677. 684. 120. o -3
6 17 8 677. 684. 120. o -2
7 17 -5 677. 684. 120. o 1
8 17 5 982. 806. 130. o 1
-2 18 -4 2392. 2095. 66. o -3
-3 18 1 2392. 2095. 66. o -2
-1 18 5 2392. 2095. 66. o 1
2 18 4 2392. 2227. 72. o -3
3 18 -1 2392. 2227. 72. o -2
1 18 -5 2392. 2227. 72. o 1
-3 18 -1 2489. 2872. 105. o -3
-2 18 4 2489. 2872. 105. o -2
1 18 5 2489. 2872. 105. o 1
3 18 1 2489. 2482. 58. o -3
2 18 -4 2489. 2482. 58. o -2
-1 18 -5 2489. 2482. 58. o 1
2 18 5 834. 865. 52. o 1
2 18 -5 834. 793. 49. o 1
-4 18 2 12556. 13348. 161. o -3
-1 18 7 12556. 13348. 161. o -2
3 18 5 12556. 13348. 161. o 1
1 18 7 13184. 14814. 97. o -3
4 18 2 13184. 14814. 97. o -2
3 18 -5 13184. 14814. 97. o 1
4 18 5 886. 738. 41. o 1
4 18 -5 886. 952. 49. o 1
-5 18 5 3916. 4242. 138. o -3
0 18 10 3916. 4242. 138. o -2
5 18 5 3916. 4242. 138. o 1
0 18 10 3713. 3955. 58. o -3
5 18 5 3713. 3955. 58. o -2
5 18 -5 3713. 3955. 58. o 1
6 18 5 549. 332. 124. < 1
6 18 -5 549. 812. 91. o 1
-6 18 8 747. 913. 132. o -3
1 18 13 747. 913. 132. o -2
7 18 5 747. 913. 132. o 1
-1 18 13 737. 748. 136. o -3
6 18 8 737. 748. 136. o -2
7 18 -5 737. 748. 136. o 1
8 18 5 1542. 1461. 97. o 1
-2 19 -4 2562. 3127. 82. o -3
-3 19 1 2562. 3127. 82. o -2
-1 19 5 2562. 3127. 82. o 1
2 19 4 2562. 3018. 70. o -3
3 19 -1 2562. 3018. 70. o -2
1 19 -5 2562. 3018. 70. o 1
-3 19 -1 2396. 2013. 89. o -3
-2 19 4 2396. 2013. 89. o -2
1 19 5 2396. 2013. 89. o 1
3 19 1 2396. 1891. 52. o -3
2 19 -4 2396. 1891. 52. o -2
-1 19 -5 2396. 1891. 52. o 1
2 19 5 1836. 1704. 60. o 1
2 19 -5 1836. 1998. 54. o 1
-4 19 2 1905. 1764. 66. o -3
-1 19 7 1905. 1764. 66. o -2
3 19 5 1905. 1764. 66. o 1
1 19 7 1821. 1358. 45. o -3
4 19 2 1821. 1358. 45. o -2
3 19 -5 1821. 1358. 45. o 1
4 19 5 503. 501. 62. o 1
4 19 -5 503. 437. 56. o 1
-5 19 5 3299. 3424. 113. o -3
0 19 10 3299. 3424. 113. o -2
5 19 5 3299. 3424. 113. o 1
0 19 10 3187. 3533. 56. o -3
5 19 5 3187. 3533. 56. o -2
5 19 -5 3187. 3533. 56. o 1
6 19 5 270. 286. 64. o 1
6 19 -5 270. 379. 91. o 1
-6 19 8 2151. 1286. 99. o -3
1 19 13 2151. 1286. 99. o -2
7 19 5 2151. 1286. 99. o 1
-1 19 13 1843. 1576. 91. o -3
6 19 8 1843. 1576. 91. o -2
7 19 -5 1843. 1576. 91. o 1
8 19 5 2326. 2353. 126. o 1
-7 19 11 6024. 7526. 214. o -3
2 19 16 6024. 7526. 214. o -2
9 19 5 6024. 7526. 214. o 1
-2 20 -4 2099. 1716. 89. o -3
-3 20 1 2099. 1716. 89. o -2
-1 20 5 2099. 1716. 89. o 1
-3 20 -1 2350. 3191. 113. o -3
-2 20 4 2350. 3191. 113. o -2
1 20 5 2350. 3191. 113. o 1
3 20 1 2350. 2901. 62. o -3
2 20 -4 2350. 2901. 62. o -2
-1 20 -5 2350. 2901. 62. o 1
2 20 5 2348. 2536. 72. o 1
2 20 -5 2348. 2454. 54. o 1
-4 20 2 3598. 3727. 95. o -3
-1 20 7 3598. 3727. 95. o -2
3 20 5 3598. 3727. 95. o 1
1 20 7 3801. 4413. 60. o -3
4 20 2 3801. 4413. 60. o -2
3 20 -5 3801. 4413. 60. o 1
4 20 5 981. 1088. 56. o 1
4 20 -5 981. 964. 51. o 1
-5 20 5 1209. 1331. 103. o -3
0 20 10 1209. 1331. 103. o -2
5 20 5 1209. 1331. 103. o 1
0 20 10 1163. 1298. 51. o -3
5 20 5 1163. 1298. 51. o -2
5 20 -5 1163. 1298. 51. o 1
6 20 5 284. 280. 122. < 1
6 20 -5 284. 241. 95. < 1
-1 20 13 11122. 11786. 169. o -3
6 20 8 11122. 11786. 169. o -2
7 20 -5 11122. 11786. 169. o 1
8 20 5 238. 282. 136. < 1
8 20 -5 238. 441. 119. o 1
-7 20 11 3582. 3224. 202. o -3
2 20 16 3582. 3224. 202. o -2
9 20 5 3582. 3224. 202. o 1
-2 21 -4 1258. 1494. 89. o -3
-3 21 1 1258. 1494. 89. o -2
-1 21 5 1258. 1494. 89. o 1
2 21 4 1258. 1310. 45. o -3
3 21 -1 1258. 1310. 45. o -2
1 21 -5 1258. 1310. 45. o 1
-3 21 -1 1211. 1325. 89. o -3
-2 21 4 1211. 1325. 89. o -2
1 21 5 1211. 1325. 89. o 1
3 21 1 1211. 1154. 45. o -3
2 21 -4 1211. 1154. 45. o -2
-1 21 -5 1211. 1154. 45. o 1
2 21 5 3882. 4104. 91. o 1
2 21 -5 3882. 3803. 58. o 1
-4 21 2 4544. 4775. 99. o -3
-1 21 7 4544. 4775. 99. o -2
3 21 5 4544. 4775. 99. o 1
1 21 7 4741. 5272. 70. o -3
4 21 2 4741. 5272. 70. o -2
3 21 -5 4741. 5272. 70. o 1
4 21 5 1807. 1924. 84. o 1
4 21 -5 1807. 1924. 45. o 1
-5 21 5 713. 764. 78. o -3
0 21 10 713. 764. 78. o -2
5 21 5 713. 764. 78. o 1
0 21 10 745. 649. 58. o -3
5 21 5 745. 649. 58. o -2
5 21 -5 745. 649. 58. o 1
6 21 5 1603. 1588. 93. o 1
6 21 -5 1603. 1726. 76. o 1
-6 21 8 1722. 1877. 122. o -3
1 21 13 1722. 1877. 122. o -2
7 21 5 1722. 1877. 122. o 1
-1 21 13 1602. 1560. 87. o -3
6 21 8 1602. 1560. 87. o -2
7 21 -5 1602. 1560. 87. o 1
8 21 5 584. 509. 138. o 1
8 21 -5 584. 453. 126. o 1
-7 21 11 4449. 5488. 194. o -3
2 21 16 4449. 5488. 194. o -2
9 21 5 4449. 5488. 194. o 1
-2 22 -4 2839. 3278. 128. o -3
-3 22 1 2839. 3278. 128. o -2
-1 22 5 2839. 3278. 128. o 1
2 22 4 2839. 2730. 80. o -3
3 22 -1 2839. 2730. 80. o -2
1 22 -5 2839. 2730. 80. o 1
-3 22 -1 2899. 3735. 140. o -3
-2 22 4 2899. 3735. 140. o -2
1 22 5 2899. 3735. 140. o 1
3 22 1 2899. 3434. 74. o -3
2 22 -4 2899. 3434. 74. o -2
-1 22 -5 2899. 3434. 74. o 1
2 22 5 2261. -325. 87. < 1
2 22 -5 2261. 2278. 47. o 1
-4 22 2 2290. 2758. 80. o -3
-1 22 7 2290. 2758. 80. o -2
3 22 5 2290. 2758. 80. o 1
1 22 7 2395. 2653. 49. o -3
4 22 2 2395. 2653. 49. o -2
3 22 -5 2395. 2653. 49. o 1
4 22 5 1493. 1673. 72. o 1
4 22 -5 1493. 1658. 41. o 1
-5 22 5 8123. 6821. 179. o -3
0 22 10 8123. 6821. 179. o -2
5 22 5 8123. 6821. 179. o 1
0 22 10 7689. 7913. 95. o -3
5 22 5 7689. 7913. 95. o -2
5 22 -5 7689. 7913. 95. o 1
6 22 5 4424. 5398. 179. o 1
6 22 -5 4424. 5088. 115. o 1
-6 22 8 1109. 1356. 119. o -3
1 22 13 1109. 1356. 119. o -2
7 22 5 1109. 1356. 119. o 1
-1 22 13 1149. 1123. 89. o -3
6 22 8 1149. 1123. 89. o -2
7 22 -5 1149. 1123. 89. o 1
8 22 5 526. 426. 128. o 1
8 22 -5 526. 612. 134. o 1
-7 22 11 2532. 1525. 91. o -3
2 22 16 2532. 1525. 91. o -2
9 22 5 2532. 1525. 91. o 1
10 22 5 1252. 1319. 113. o 1
-2 23 -4 6232. 6273. 177. o -3
-3 23 1 6232. 6273. 177. o -2
-1 23 5 6232. 6273. 177. o 1
2 23 4 6232. 6850. 119. o -3
3 23 -1 6232. 6850. 119. o -2
1 23 -5 6232. 6850. 119. o 1
-3 23 -1 6234. 5999. 190. o -3
-2 23 4 6234. 5999. 190. o -2
1 23 5 6234. 5999. 190. o 1
3 23 1 6234. 6836. 107. o -3
2 23 -4 6234. 6836. 107. o -2
-1 23 -5 6234. 6836. 107. o 1
2 23 5 1316. 1479. 66. o 1
2 23 -5 1316. 1465. 43. o 1
-4 23 2 4771. 4751. 111. o -3
-1 23 7 4771. 4751. 111. o -2
3 23 5 4771. 4751. 111. o 1
1 23 7 4663. 4852. 64. o -3
4 23 2 4663. 4852. 64. o -2
3 23 -5 4663. 4852. 64. o 1
4 23 5 772. 997. 78. o 1
4 23 -5 772. 705. 60. o 1
-5 23 5 12013. 14433. 192. o -3
0 23 10 12013. 14433. 192. o -2
5 23 5 12013. 14433. 192. o 1
0 23 10 12900. 14697. 140. o -3
5 23 5 12900. 14697. 140. o -2
5 23 -5 12900. 14697. 140. o 1
6 23 5 2160. 2342. 109. o 1
6 23 -5 2160. 2311. 89. o 1
-6 23 8 3801. 4405. 157. o -3
1 23 13 3801. 4405. 157. o -2
7 23 5 3801. 4405. 157. o 1
-1 23 13 3975. 4306. 107. o -3
6 23 8 3975. 4306. 107. o -2
7 23 -5 3975. 4306. 107. o 1
8 23 5 1249. 1403. 126. o 1
8 23 -5 1249. 1654. 122. o 1
-7 23 11 9937. 13286. 387. o -3
2 23 16 9937. 13286. 387. o -2
9 23 5 9937. 13286. 387. o 1
10 23 5 943. 746. 109. o 1
-2 24 -4 2816. 2697. 122. o -3
-3 24 1 2816. 2697. 122. o -2
-1 24 5 2816. 2697. 122. o 1
2 24 4 2816. 2690. 68. o -3
3 24 -1 2816. 2690. 68. o -2
1 24 -5 2816. 2690. 68. o 1
-3 24 -1 3010. 3356. 140. o -3
-2 24 4 3010. 3356. 140. o -2
1 24 5 3010. 3356. 140. o 1
3 24 1 3010. 3632. 78. o -3
2 24 -4 3010. 3632. 78. o -2
-1 24 -5 3010. 3632. 78. o 1
2 24 5 1804. 2132. 78. o 1
2 24 -5 1804. 1811. 43. o 1
-4 24 2 5366. 5608. 113. o -3
-1 24 7 5366. 5608. 113. o -2
3 24 5 5366. 5608. 113. o 1
1 24 7 5737. 6234. 89. o -3
4 24 2 5737. 6234. 89. o -2
3 24 -5 5737. 6234. 89. o 1
4 24 5 310. 616. 56. o 1
4 24 -5 310. 367. 58. o 1
-5 24 5 5409. 7456. 214. o -3
0 24 10 5409. 7456. 214. o -2
5 24 5 5409. 7456. 214. o 1
0 24 10 5196. 5350. 80. o -3
5 24 5 5196. 5350. 80. o -2
5 24 -5 5196. 5350. 80. o 1
6 24 5 3310. 3731. 169. o 1
6 24 -5 3311. 3723. 82. o 1
-6 24 8 3116. 4571. 183. o -3
1 24 13 3116. 4571. 183. o -2
7 24 5 3116. 4571. 183. o 1
-1 24 13 3233. 4040. 122. o -3
6 24 8 3233. 4040. 122. o -2
7 24 -5 3233. 4040. 122. o 1
8 24 5 2911. 3535. 163. o 1
8 24 -5 2911. 2775. 163. o 1
-7 24 11 2842. 1906. 105. o -3
2 24 16 2842. 1906. 105. o -2
9 24 5 2842. 1906. 105. o 1
10 24 5 202. 468. 97. o 1
-2 25 -4 6120. 7243. 188. o -3
-3 25 1 6120. 7243. 188. o -2
-1 25 5 6120. 7243. 188. o 1
2 25 4 6120. 6430. 113. o -3
3 25 -1 6120. 6430. 113. o -2
1 25 -5 6120. 6430. 113. o 1
-3 25 -1 6027. 6125. 165. o -3
-2 25 4 6027. 6125. 165. o -2
1 25 5 6027. 6125. 165. o 1
3 25 1 6027. 6345. 103. o -3
2 25 -4 6027. 6345. 103. o -2
-1 25 -5 6027. 6345. 103. o 1
2 25 5 1561. 1897. 76. o 1
2 25 -5 1561. 1743. 49. o 1
-4 25 2 20663. 24118. 237. o -3
-1 25 7 20663. 24118. 237. o -2
3 25 5 20663. 24118. 237. o 1
1 25 7 20782. 23957. 187. o -3
4 25 2 20782. 23957. 187. o -2
3 25 -5 20782. 23957. 187. o 1
4 25 5 189. 192. 91. < 1
4 25 -5 189. 58. 62. < 1
0 25 10 12082. 14102. 136. o -3
5 25 5 12082. 14102. 136. o -2
5 25 -5 12082. 14102. 136. o 1
6 25 5 351. 375. 84. o 1
6 25 -5 351. 196. 68. < 1
-6 25 8 8547. 9192. 231. o -3
1 25 13 8547. 9192. 231. o -2
7 25 5 8547. 9192. 231. o 1
-1 25 13 8295. 10591. 204. o -3
6 25 8 8295. 10591. 204. o -2
7 25 -5 8295. 10591. 204. o 1
8 25 5 1313. 1073. 109. o 1
8 25 -5 1313. 1625. 89. o 1
10 25 5 371. 325. 99. o 1
-2 26 -4 8079. 6504. 210. o -3
-3 26 1 8079. 6504. 210. o -2
-1 26 5 8079. 6504. 210. o 1
2 26 4 8079. 6765. 107. o -3
3 26 -1 8079. 6765. 107. o -2
1 26 -5 8079. 6765. 107. o 1
2 26 5 3445. 3632. 99. o 1
2 26 -5 3445. 3906. 66. o 1
-4 26 2 3356. 3723. 101. o -3
-1 26 7 3356. 3723. 101. o -2
3 26 5 3356. 3723. 101. o 1
1 26 7 3720. 3632. 82. o -3
4 26 2 3720. 3632. 82. o -2
3 26 -5 3720. 3632. 82. o 1
4 26 5 1045. 1170. 93. o 1
4 26 -5 1045. 960. 62. o 1
-5 26 5 1938. 2581. 140. o -3
0 26 10 1938. 2581. 140. o -2
5 26 5 1938. 2581. 140. o 1
0 26 10 1840. 1949. 54. o -3
5 26 5 1840. 1949. 54. o -2
5 26 -5 1840. 1949. 54. o 1
6 26 5 635. 1321. 181. o 1
6 26 -5 635. 587. 72. o 1
-6 26 8 2992. 3731. 128. o -3
1 26 13 2992. 3731. 128. o -2
7 26 5 2992. 3731. 128. o 1
-1 26 13 3206. 3480. 107. o -3
6 26 8 3206. 3480. 107. o -2
7 26 -5 3206. 3480. 107. o 1
8 26 5 688. 29. 105. < 1
8 26 -5 688. 781. 91. o 1
10 26 5 261. -41. 107. < 1
-2 27 -4 4133. 4501. 161. o -3
-3 27 1 4133. 4501. 161. o -2
-1 27 5 4133. 4501. 161. o 1
2 27 4 4133. 4007. 93. o -3
3 27 -1 4133. 4007. 93. o -2
1 27 -5 4133. 4007. 93. o 1
-3 27 -1 4320. 4973. 175. o -3
-2 27 4 4320. 4973. 175. o -2
1 27 5 4320. 4973. 175. o 1
3 27 1 4320. 5064. 113. o -3
2 27 -4 4320. 5064. 113. o -2
-1 27 -5 4320. 5064. 113. o 1
2 27 5 2000. 1978. 74. o 1
2 27 -5 2000. 2295. 70. o 1
-4 27 2 7948. 7987. 150. o -3
-1 27 7 7948. 7987. 150. o -2
3 27 5 7948. 7987. 150. o 1
1 27 7 7715. 7870. 95. o -3
4 27 2 7715. 7870. 95. o -2
3 27 -5 7715. 7870. 95. o 1
4 27 5 1098. 1625. 105. o 1
4 27 -5 1098. 1506. 78. o 1
-5 27 5 22369. 22573. 383. o -3
0 27 10 22369. 22573. 383. o -2
5 27 5 22369. 22573. 383. o 1
0 27 10 22852. 23964. 171. o -3
5 27 5 22852. 23964. 171. o -2
5 27 -5 22852. 23964. 171. o 1
6 27 5 1391. 1319. 122. o 1
6 27 -5 1391. 1588. 60. o 1
-1 27 13 4448. 4291. 109. o -3
6 27 8 4448. 4291. 109. o -2
7 27 -5 4448. 4291. 109. o 1
8 27 5 281. 260. 109. < 1
8 27 -5 281. 208. 64. o 1
10 27 5 1260. 564. 105. o 1
-2 28 -4 2231. 2147. 175. o -3
-3 28 1 2231. 2147. 175. o -2
-1 28 5 2231. 2147. 175. o 1
2 28 4 2231. 2202. 86. o -3
3 28 -1 2231. 2202. 86. o -2
1 28 -5 2231. 2202. 86. o 1
-3 28 -1 2357. 2808. 181. o -3
-2 28 4 2357. 2808. 181. o -2
1 28 5 2357. 2808. 181. o 1
3 28 1 2357. 2728. 109. o -3
2 28 -4 2357. 2728. 109. o -2
-1 28 -5 2357. 2728. 109. o 1
2 28 5 715. 836. 84. o 1
2 28 -5 715. 569. 62. o 1
-4 28 2 2700. 2754. 132. o -3
-1 28 7 2700. 2754. 132. o -2
3 28 5 2700. 2754. 132. o 1
1 28 7 2909. 3125. 78. o -3
4 28 2 2909. 3125. 78. o -2
3 28 -5 2909. 3125. 78. o 1
4 28 5 670. 408. 74. o 1
4 28 -5 670. 645. 58. o 1
-5 28 5 20501. 21442. 257. o -3
0 28 10 20501. 21442. 257. o -2
5 28 5 20501. 21442. 257. o 1
0 28 10 19409. 19835. 161. o -3
5 28 5 19409. 19835. 161. o -2
5 28 -5 19409. 19835. 161. o 1
6 28 -5 770. 676. 60. o 1
-6 28 8 1697. 2140. 157. o -3
1 28 13 1697. 2140. 157. o -2
7 28 5 1697. 2140. 157. o 1
-1 28 13 1907. 1858. 105. o -3
6 28 8 1907. 1858. 105. o -2
7 28 -5 1907. 1858. 105. o 1
8 28 5 1309. 1164. 119. o 1
8 28 -5 1309. 1487. 56. o 1
-7 28 11 821. 214. 91. < -3
2 28 16 821. 214. 91. < -2
9 28 5 821. 214. 91. < 1
-2 28 16 705. 363. 84. o -3
7 28 11 705. 363. 84. o -2
9 28 -5 705. 363. 84. o 1
-2 29 -4 4294. 3995. 130. o -3
-3 29 1 4294. 3995. 130. o -2
-1 29 5 4294. 3995. 130. o 1
2 29 4 4294. 5785. 165. o -3
3 29 -1 4294. 5785. 165. o -2
1 29 -5 4294. 5785. 165. o 1
-3 29 -1 4093. 4098. 196. o -3
-2 29 4 4093. 4098. 196. o -2
1 29 5 4093. 4098. 196. o 1
3 29 1 4093. 4623. 134. o -3
2 29 -4 4093. 4623. 134. o -2
-1 29 -5 4093. 4623. 134. o 1
2 29 5 43. -56. 82. < 1
2 29 -5 43. -27. 66. < 1
-4 29 2 10416. 11269. 177. o -3
-1 29 7 10416. 11269. 177. o -2
3 29 5 10416. 11269. 177. o 1
1 29 7 10608. 11572. 126. o -3
4 29 2 10608. 11572. 126. o -2
3 29 -5 10608. 11572. 126. o 1
4 29 5 624. 439. 86. o 1
4 29 -5 624. 249. 58. o 1
-5 29 5 12185. 10908. 216. o -3
0 29 10 12185. 10908. 216. o -2
5 29 5 12185. 10908. 216. o 1
0 29 10 13044. 13278. 128. o -3
5 29 5 13044. 13278. 128. o -2
5 29 -5 13044. 13278. 128. o 1
6 29 5 153. 109. 97. < 1
6 29 -5 153. 95. 56. < 1
-6 29 8 1709. 1630. 138. o -3
1 29 13 1709. 1630. 138. o -2
7 29 5 1709. 1630. 138. o 1
-1 29 13 1753. 1877. 103. o -3
6 29 8 1753. 1877. 103. o -2
7 29 -5 1753. 1877. 103. o 1
8 29 5 1093. 641. 113. o 1
8 29 -5 1093. 1333. 54. o 1
-2 30 -4 1173. -120. 138. < -3
-3 30 1 1173. -120. 138. < -2
-1 30 5 1173. -120. 138. < 1
2 30 4 1173. 896. 82. o -3
3 30 -1 1173. 896. 82. o -2
1 30 -5 1173. 896. 82. o 1
-3 30 -1 1185. 1255. 109. o -3
-2 30 4 1185. 1255. 109. o -2
1 30 5 1185. 1255. 109. o 1
3 30 1 1185. 1102. 84. o -3
2 30 -4 1185. 1102. 84. o -2
-1 30 -5 1185. 1102. 84. o 1
2 30 5 21. -17. 80. < 1
2 30 -5 21. -54. 72. < 1
-4 30 2 5898. 5461. 136. o -3
-1 30 7 5898. 5461. 136. o -2
3 30 5 5898. 5461. 136. o 1
1 30 7 6061. 5690. 87. o -3
4 30 2 6061. 5690. 87. o -2
3 30 -5 6061. 5690. 87. o 1
4 30 5 933. 812. 91. o 1
4 30 -5 933. 898. 70. o 1
-5 30 5 55. 105. 76. < -3
0 30 10 55. 105. 76. < -2
5 30 5 55. 105. 76. < 1
0 30 10 58. 117. 52. < -3
5 30 5 58. 117. 52. < -2
5 30 -5 58. 117. 52. < 1
6 30 5 916. 725. 72. o 1
6 30 -5 916. 917. 60. o 1
-6 30 8 1216. 775. 72. o -3
1 30 13 1216. 775. 72. o -2
7 30 5 1216. 775. 72. o 1
-1 30 13 1225. 764. 54. o -3
6 30 8 1225. 764. 54. o -2
7 30 -5 1225. 764. 54. o 1
8 30 5 1067. 1032. 111. o 1
8 30 -5 1067. 801. 80. o 1
-2 31 -4 2841. 1996. 142. o -3
-3 31 1 2841. 1996. 142. o -2
-1 31 5 2841. 1996. 142. o 1
2 31 4 2841. 2198. 132. o -3
3 31 -1 2841. 2198. 132. o -2
1 31 -5 2841. 2198. 132. o 1
3 31 1 3234. 3669. 171. o -3
2 31 -4 3234. 3669. 171. o -2
-1 31 -5 3234. 3669. 171. o 1
2 31 5 364. 307. 76. o 1
2 31 -5 364. 290. 87. o 1
-4 31 2 7169. 7861. 144. o -3
-1 31 7 7169. 7861. 144. o -2
3 31 5 7169. 7861. 144. o 1
1 31 7 6839. 6693. 95. o -3
4 31 2 6839. 6693. 95. o -2
3 31 -5 6839. 6693. 95. o 1
4 31 5 408. 270. 82. o 1
4 31 -5 408. 383. 56. o 1
-5 31 5 1721. 1623. 70. o -3
0 31 10 1721. 1623. 70. o -2
5 31 5 1721. 1623. 70. o 1
0 31 10 1685. 1764. 68. o -3
5 31 5 1685. 1764. 68. o -2
5 31 -5 1685. 1764. 68. o 1
6 31 5 720. 472. 60. o 1
6 31 -5 720. 144. 58. < 1
-6 31 8 3258. 1936. 122. o -3
1 31 13 3258. 1936. 122. o -2
7 31 5 3258. 1936. 122. o 1
-2 32 -4 2471. 1893. 132. o -3
-3 32 1 2471. 1893. 132. o -2
-1 32 5 2471. 1893. 132. o 1
2 32 4 2471. 1984. 97. o -3
3 32 -1 2471. 1984. 97. o -2
1 32 -5 2471. 1984. 97. o 1
-3 32 -1 2565. 2655. 132. o -3
-2 32 4 2565. 2655. 132. o -2
1 32 5 2565. 2655. 132. o 1
3 32 1 2565. 2862. 150. o -3
2 32 -4 2565. 2862. 150. o -2
-1 32 -5 2565. 2862. 150. o 1
2 32 5 4. 4. 62. < 1
2 32 -5 4. 14. 87. < 1
-4 32 2 556. 532. 60. o -3
-1 32 7 556. 532. 60. o -2
3 32 5 556. 532. 60. o 1
1 32 7 571. 451. 58. o -3
4 32 2 571. 451. 58. o -2
3 32 -5 571. 451. 58. o 1
4 32 5 187. 91. 49. < 1
4 32 -5 187. -54. 51. < 1
6 32 5 280. 290. 49. o 1
6 32 -5 280. 218. 37. o 1
-2 33 -4 1550. 517. 130. o -3
-3 33 1 1550. 517. 130. o -2
-1 33 5 1550. 517. 130. o 1
2 33 4 1550. 591. 86. o -3
3 33 -1 1550. 591. 86. o -2
1 33 -5 1550. 591. 86. o 1
-3 33 -1 1587. 348. 120. < -3
-2 33 4 1587. 348. 120. < -2
1 33 5 1587. 348. 120. < 1
3 33 1 1587. 1632. 130. o -3
2 33 -4 1587. 1632. 130. o -2
-1 33 -5 1587. 1632. 130. o 1
2 33 5 194. 99. 51. < 1
2 33 -5 194. 103. 72. < 1
-4 33 2 957. 431. 51. o -3
-1 33 7 957. 431. 51. o -2
3 33 5 957. 431. 51. o 1
1 33 7 962. 408. 56. o -3
4 33 2 962. 408. 56. o -2
3 33 -5 962. 408. 56. o 1
4 33 5 228. 64. 43. < 1
4 33 -5 228. 105. 45. < 1
-2 34 -4 1197. 89. 115. < -3
-3 34 1 1197. 89. 115. < -2
-1 34 5 1197. 89. 115. < 1
2 34 4 1197. 552. 78. o -3
3 34 -1 1197. 552. 78. o -2
1 34 -5 1197. 552. 78. o 1
-3 34 -1 1229. 379. 113. o -3
-2 34 4 1229. 379. 113. o -2
1 34 5 1229. 379. 113. o 1
3 34 1 1229. 805. 111. o -3
2 34 -4 1229. 805. 111. o -2
-1 34 -5 1229. 805. 111. o 1
2 34 5 58. 35. 43. < 1
2 34 -5 58. 109. 66. < 1
2 0 6 173802. 172074. 282. o -3
4 0 0 173802. 172074. 282. o -2
2 0 -6 173802. 172074. 282. o 1
0 0 -6 69. 163. 19. o 1
4 0 0 176246. 181794. 243. o -3
2 0 -6 176246. 181794. 243. o -2
-2 0 -6 176246. 181794. 243. o 1
4 0 -6 71. 194. 56. o 1
2 1 6 53. 115. 16. o -3
4 1 0 53. 115. 16. o -2
2 1 -6 53. 115. 16. o 1
1 1 -6 12. 21. 10. < 1
4 1 0 56. 103. 16. o -3
2 1 -6 56. 103. 16. o -2
-2 1 -6 56. 103. 16. o 1
3 1 -6 285. 253. 19. o 1
1 1 9 7745. 6889. 74. o -3
5 1 3 7745. 6889. 74. o -2
4 1 -6 7745. 6889. 74. o 1
5 1 -6 114. 214. 87. < 1
0 1 12 88. 146. 91. < -3
6 1 6 88. 146. 91. < -2
6 1 -6 88. 146. 91. < 1
2 2 6 1793. 2052. 23. o -3
4 2 0 1793. 2052. 23. o -2
2 2 -6 1793. 2052. 23. o 1
3 2 3 4003. 3760. 29. o -3
3 2 -3 4003. 3760. 29. o -2
0 2 -6 4003. 3760. 29. o 1
1 2 -6 203. 222. 10. o 1
4 2 0 1709. 1673. 31. o -3
2 2 -6 1709. 1673. 31. o -2
-2 2 -6 1709. 1673. 31. o 1
3 2 -6 53. 107. 23. o 1
1 2 9 1961. 1949. 37. o -3
5 2 3 1961. 1949. 37. o -2
4 2 -6 1961. 1949. 37. o 1
5 2 -6 814. 828. 52. o 1
2 3 6 10. 29. 17. < -3
4 3 0 10. 29. 17. < -2
2 3 -6 10. 29. 17. < 1
3 3 3 3491. 3082. 31. o -3
3 3 -3 3491. 3082. 31. o -2
0 3 -6 3491. 3082. 31. o 1
1 3 -6 156. 140. 10. o 1
4 3 0 10. 41. 31. < -3
2 3 -6 10. 41. 31. < -2
-2 3 -6 10. 41. 31. < 1
3 3 -6 918. 810. 17. o 1
1 3 9 1998. 2091. 51. o -3
5 3 3 1998. 2091. 51. o -2
4 3 -6 1998. 2091. 51. o 1
5 3 -6 160. 202. 52. o 1
0 3 12 28. 62. 43. < -3
6 3 6 28. 62. 43. < -2
6 3 -6 28. 62. 43. < 1
3 4 3 3221. 3035. 33. o -3
3 4 -3 3221. 3035. 33. o -2
0 4 -6 3221. 3035. 33. o 1
1 4 -6 303. 282. 14. o 1
3 4 -6 1411. 1168. 17. o 1
1 4 9 4748. 4953. 58. o -3
5 4 3 4748. 4953. 58. o -2
4 4 -6 4748. 4953. 58. o 1
5 4 -6 2635. 2627. 58. o 1
0 4 12 59239. 64439. 478. o -3
6 4 6 59239. 64439. 478. o -2
6 4 -6 59239. 64439. 478. o 1
7 4 6 4418. 4215. 124. o 1
2 5 6 103. 208. 23. o -3
4 5 0 103. 208. 23. o -2
2 5 -6 103. 208. 23. o 1
3 5 3 7913. 6800. 58. o -3
3 5 -3 7913. 6800. 58. o -2
0 5 -6 7913. 6800. 58. o 1
1 5 -6 678. 614. 12. o 1
4 5 0 100. 247. 31. o -3
2 5 -6 100. 247. 31. o -2
-2 5 -6 100. 247. 31. o 1
3 5 -6 254. 266. 29. o 1
1 5 9 14215. 14837. 111. o -3
5 5 3 14215. 14837. 111. o -2
4 5 -6 14215. 14837. 111. o 1
5 5 -6 762. 707. 27. o 1
0 5 12 97. 257. 89. < -3
6 5 6 97. 257. 89. < -2
6 5 -6 97. 257. 89. < 1
7 5 6 755. 464. 111. o 1
2 6 6 4135. 4790. 72. o -3
4 6 0 4135. 4790. 72. o -2
2 6 -6 4135. 4790. 72. o 1
3 6 3 7333. 7033. 62. o -3
3 6 -3 7333. 7033. 62. o -2
0 6 -6 7333. 7033. 62. o 1
1 6 -6 1047. 993. 14. o 1
4 6 0 4072. 4847. 68. o -3
2 6 -6 4072. 4847. 68. o -2
-2 6 -6 4072. 4847. 68. o 1
3 6 -6 1575. 1562. 25. o 1
1 6 9 4621. 4285. 82. o -3
5 6 3 4621. 4285. 82. o -2
4 6 -6 4621. 4285. 82. o 1
5 6 -6 192. 235. 47. o 1
0 6 12 91405. 91012. 550. o -3
6 6 6 91405. 91012. 550. o -2
6 6 -6 91405. 91012. 550. o 1
7 6 6 788. 705. 58. o 1
-7 6 9 970. 762. 60. o -3
1 6 15 970. 762. 60. o -2
8 6 6 970. 762. 60. o 1
2 7 6 68. 80. 25. o -3
4 7 0 68. 80. 25. o -2
2 7 -6 68. 80. 25. o 1
3 7 3 5211. 4252. 49. o -3
3 7 -3 5211. 4252. 49. o -2
0 7 -6 5211. 4252. 49. o 1
1 7 6 82. 89. 58. < 1
1 7 -6 82. 89. 16. o 1
4 7 0 80. 157. 17. o -3
2 7 -6 80. 157. 17. o -2
-2 7 -6 80. 157. 17. o 1
3 7 -6 631. 501. 16. o 1
1 7 9 8506. 8362. 111. o -3
5 7 3 8506. 8362. 111. o -2
4 7 -6 8506. 8362. 111. o 1
5 7 -6 520. 486. 52. o 1
-6 7 6 443. 589. 113. o -3
0 7 12 443. 589. 113. o -2
6 7 6 443. 589. 113. o 1
0 7 12 447. 396. 45. o -3
6 7 6 447. 396. 45. o -2
6 7 -6 447. 396. 45. o 1
7 7 6 93. 2. 107. < 1
-7 7 9 22669. 26720. 515. o -3
1 7 15 22669. 26720. 515. o -2
8 7 6 22669. 26720. 515. o 1
2 8 6 202958. 209519. 371. o -3
4 8 0 202958. 209519. 371. o -2
2 8 -6 202958. 209519. 371. o 1
-3 8 -3 3889. 4252. 89. o -3
-3 8 3 3889. 4252. 89. o -2
0 8 6 3889. 4252. 89. o 1
3 8 3 3889. 4061. 47. o -3
3 8 -3 3889. 4061. 47. o -2
0 8 -6 3889. 4061. 47. o 1
1 8 6 1808. 1625. 60. o 1
1 8 -6 1808. 1640. 21. o 1
-4 8 0 199037. 191297. 579. o -3
-2 8 6 199037. 191297. 579. o -2
2 8 6 199037. 191297. 579. o 1
4 8 0 199037. 188697. 354. o -3
2 8 -6 199037. 188697. 354. o -2
-2 8 -6 199037. 188697. 354. o 1
3 8 -6 9271. 9065. 62. o 1
1 8 9 3526. 3152. 68. o -3
5 8 3 3526. 3152. 68. o -2
4 8 -6 3526. 3152. 68. o 1
5 8 -6 1595. 1492. 47. o 1
-6 8 6 40572. 34169. 291. o -3
0 8 12 40572. 34169. 291. o -2
6 8 6 40572. 34169. 291. o 1
0 8 12 38808. 41273. 317. o -3
6 8 6 38808. 41273. 317. o -2
6 8 -6 38808. 41273. 317. o 1
7 8 6 17948. 17964. 295. o 1
2 9 6 53. 101. 31. o -3
4 9 0 53. 101. 31. o -2
2 9 -6 53. 101. 31. o 1
-3 9 -3 35432. 32336. 179. o -3
-3 9 3 35432. 32336. 179. o -2
0 9 6 35432. 32336. 179. o 1
3 9 3 35432. 31689. 115. o -3
3 9 -3 35432. 31689. 115. o -2
0 9 -6 35432. 31689. 115. o 1
1 9 6 1674. 1492. 60. o 1
1 9 -6 1674. 1597. 19. o 1
-4 9 0 54. 49. 62. < -3
-2 9 6 54. 49. 62. < -2
2 9 6 54. 49. 62. < 1
4 9 0 54. -68. 49. < -3
2 9 -6 54. -68. 49. < -2
-2 9 -6 54. -68. 49. < 1
3 9 -6 2517. 2454. 37. o 1
1 9 9 3402. 3364. 56. o -3
5 9 3 3402. 3364. 56. o -2
4 9 -6 3402. 3364. 56. o 1
5 9 6 2019. 1854. 56. o 1
5 9 -6 2019. 2056. 58. o 1
-6 9 6 53. -49. 68. < -3
0 9 12 53. -49. 68. < -2
6 9 6 53. -49. 68. < 1
0 9 12 56. 103. 31. o -3
6 9 6 56. 103. 31. o -2
6 9 -6 56. 103. 31. o 1
7 9 6 374. 451. 109. o 1
-2 10 -6 48757. 50345. 330. o -3
-4 10 0 48757. 50345. 330. o -2
-2 10 6 48757. 50345. 330. o 1
2 10 6 48757. 51174. 152. o -3
4 10 0 48757. 51174. 152. o -2
2 10 -6 48757. 51174. 152. o 1
-3 10 -3 9362. 9594. 113. o -3
-3 10 3 9362. 9594. 113. o -2
0 10 6 9362. 9594. 113. o 1
3 10 3 9362. 9808. 66. o -3
3 10 -3 9362. 9808. 66. o -2
0 10 -6 9362. 9808. 66. o 1
1 10 6 5696. 5224. 74. o 1
1 10 -6 5696. 5328. 39. o 1
-4 10 0 49764. 54488. 360. o -3
-2 10 6 49764. 54488. 360. o -2
2 10 6 49764. 54488. 360. o 1
4 10 0 49764. 53706. 237. o -3
2 10 -6 49764. 53706. 237. o -2
-2 10 -6 49764. 53706. 237. o 1
3 10 -6 856. 707. 23. o 1
-5 10 3 8409. 7460. 161. o -3
-1 10 9 8409. 7460. 161. o -2
4 10 6 8409. 7460. 161. o 1
1 10 9 8058. 8309. 78. o -3
5 10 3 8058. 8309. 78. o -2
4 10 -6 8058. 8309. 78. o 1
5 10 6 881. 966. 45. o 1
5 10 -6 881. 1141. 47. o 1
-6 10 6 93456. 101362. 402. o -3
0 10 12 93456. 101362. 402. o -2
6 10 6 93456. 101362. 402. o 1
0 10 12 97320. 96661. 420. o -3
6 10 6 97320. 96661. 420. o -2
6 10 -6 97320. 96661. 420. o 1
7 10 6 1367. 1434. 82. o 1
-2 11 -6 133. -23. 45. < -3
-4 11 0 133. -23. 45. < -2
-2 11 6 133. -23. 45. < 1
2 11 6 133. 78. 33. < -3
4 11 0 133. 78. 33. < -2
2 11 -6 133. 78. 33. < 1
-3 11 -3 7854. 7383. 105. o -3
-3 11 3 7854. 7383. 105. o -2
0 11 6 7854. 7383. 105. o 1
3 11 3 7854. 7522. 58. o -3
3 11 -3 7854. 7522. 58. o -2
0 11 -6 7854. 7522. 58. o 1
1 11 6 223. 241. 39. o 1
1 11 -6 223. 115. 25. o 1
-4 11 0 138. 29. 68. < -3
-2 11 6 138. 29. 68. < -2
2 11 6 138. 29. 68. < 1
4 11 0 138. 109. 41. < -3
2 11 -6 138. 109. 41. < -2
-2 11 -6 138. 109. 41. < 1
3 11 6 561. 635. 39. o 1
3 11 -6 561. 620. 29. o 1
-5 11 3 26332. 25550. 198. o -3
-1 11 9 26332. 25550. 198. o -2
4 11 6 26332. 25550. 198. o 1
1 11 9 26297. 26829. 142. o -3
5 11 3 26297. 26829. 142. o -2
4 11 -6 26297. 26829. 142. o 1
5 11 6 1625. 1648. 52. o 1
5 11 -6 1625. 1881. 60. o 1
-6 11 6 169. 51. 76. < -3
0 11 12 169. 51. 76. < -2
6 11 6 169. 51. 76. < 1
0 11 12 190. 148. 31. o -3
6 11 6 190. 148. 31. o -2
6 11 -6 190. 148. 31. o 1
7 11 6 424. 377. 52. o 1
-2 12 -6 26017. 24814. 154. o -3
-4 12 0 26017. 24814. 154. o -2
-2 12 6 26017. 24814. 154. o 1
2 12 6 26017. 25329. 146. o -3
4 12 0 26017. 25329. 146. o -2
2 12 -6 26017. 25329. 146. o 1
-3 12 -3 1058. 985. 41. o -3
-3 12 3 1058. 985. 41. o -2
0 12 6 1058. 985. 41. o 1
3 12 3 1058. 925. 23. o -3
3 12 -3 1058. 925. 23. o -2
0 12 -6 1058. 925. 23. o 1
1 12 6 248. 251. 39. o 1
1 12 -6 248. 212. 29. o 1
-4 12 0 27172. 30657. 274. o -3
-2 12 6 27172. 30657. 274. o -2
2 12 6 27172. 30657. 274. o 1
4 12 0 27172. 30863. 222. o -3
2 12 -6 27172. 30863. 222. o -2
-2 12 -6 27172. 30863. 222. o 1
3 12 6 605. 653. 37. o 1
3 12 -6 605. 550. 29. o 1
-5 12 3 914. 972. 47. o -3
-1 12 9 914. 972. 47. o -2
4 12 6 914. 972. 47. o 1
1 12 9 936. 1009. 31. o -3
5 12 3 936. 1009. 31. o -2
4 12 -6 936. 1009. 31. o 1
5 12 6 2086. 2058. 62. o 1
5 12 -6 2086. 2435. 68. o 1
0 12 12 51318. 57568. 358. o -3
6 12 6 51318. 57568. 358. o -2
6 12 -6 51318. 57568. 358. o 1
7 12 6 4500. 4334. 122. o 1
-2 13 -6 31. 62. 51. < -3
-4 13 0 31. 62. 51. < -2
-2 13 6 31. 62. 51. < 1
2 13 6 31. 95. 45. < -3
4 13 0 31. 95. 45. < -2
2 13 -6 31. 95. 45. < 1
-3 13 -3 7807. 7515. 115. o -3
-3 13 3 7807. 7515. 115. o -2
0 13 6 7807. 7515. 115. o 1
3 13 3 7807. 7824. 64. o -3
3 13 -3 7807. 7824. 64. o -2
0 13 -6 7807. 7824. 64. o 1
1 13 6 67. 70. 41. < 1
1 13 -6 67. 86. 29. < 1
-4 13 0 31. 64. 31. < -3
-2 13 6 31. 64. 31. < -2
2 13 6 31. 64. 31. < 1
4 13 0 31. 70. 54. < -3
2 13 -6 31. 70. 54. < -2
-2 13 -6 31. 70. 54. < 1
3 13 6 1425. 1366. 41. o 1
3 13 -6 1425. 1401. 29. o 1
-5 13 3 4538. 3622. 80. o -3
-1 13 9 4538. 3622. 80. o -2
4 13 6 4538. 3622. 80. o 1
1 13 9 4314. 4376. 54. o -3
5 13 3 4314. 4376. 54. o -2
4 13 -6 4314. 4376. 54. o 1
5 13 6 259. 247. 49. o 1
5 13 -6 259. 266. 58. o 1
-6 13 6 224. 12. 103. < -3
0 13 12 224. 12. 103. < -2
6 13 6 224. 12. 103. < 1
0 13 12 238. 128. 41. o -3
6 13 6 238. 128. 41. o -2
6 13 -6 238. 128. 41. o 1
7 13 6 2635. 2653. 101. o 1
7 13 -6 2635. 2573. 103. o 1
-2 14 -6 18689. 19856. 175. o -3
-4 14 0 18689. 19856. 175. o -2
-2 14 6 18689. 19856. 175. o 1
2 14 6 18689. 19897. 128. o -3
4 14 0 18689. 19897. 128. o -2
2 14 -6 18689. 19897. 128. o 1
-3 14 -3 3348. 3199. 70. o -3
-3 14 3 3348. 3199. 70. o -2
0 14 6 3348. 3199. 70. o 1
3 14 3 3348. 3395. 47. o -3
3 14 -3 3348. 3395. 47. o -2
0 14 -6 3348. 3395. 47. o 1
1 14 6 3828. 3960. 62. o 1
1 14 -6 3828. 4050. 39. o 1
-4 14 0 17672. 14843. 227. o -3
-2 14 6 17672. 14843. 227. o -2
2 14 6 17672. 14843. 227. o 1
4 14 0 17672. 15206. 124. o -3
2 14 -6 17672. 15206. 124. o -2
-2 14 -6 17672. 15206. 124. o 1
3 14 6 5246. 5148. 87. o 1
3 14 -6 5246. 5122. 49. o 1
-5 14 3 2745. 2211. 68. o -3
-1 14 9 2745. 2211. 68. o -2
4 14 6 2745. 2211. 68. o 1
1 14 9 2554. 2421. 43. o -3
5 14 3 2554. 2421. 43. o -2
4 14 -6 2554. 2421. 43. o 1
5 14 6 5873. 6203. 142. o 1
5 14 -6 5873. 5210. 95. o 1
-6 14 6 20051. 24526. 315. o -3
0 14 12 20051. 24526. 315. o -2
6 14 6 20051. 24526. 315. o 1
0 14 12 21505. 21751. 214. o -3
6 14 6 21505. 21751. 214. o -2
6 14 -6 21505. 21751. 214. o 1
7 14 6 2502. 2590. 101. o 1
7 14 -6 2502. 2571. 103. o 1
-2 15 -6 765. 834. 47. o -3
-4 15 0 765. 834. 47. o -2
-2 15 6 765. 834. 47. o 1
2 15 6 765. 985. 49. o -3
4 15 0 765. 985. 49. o -2
2 15 -6 765. 985. 49. o 1
-3 15 -3 38412. 36701. 223. o -3
-3 15 3 38412. 36701. 223. o -2
0 15 6 38412. 36701. 223. o 1
3 15 3 38412. 37618. 183. o -3
3 15 -3 38412. 37618. 183. o -2
0 15 -6 38412. 37618. 183. o 1
1 15 6 2967. 2824. 56. o 1
1 15 -6 2967. 2954. 35. o 1
-4 15 0 729. 587. 54. o -3
-2 15 6 729. 587. 54. o -2
2 15 6 729. 587. 54. o 1
4 15 0 729. 705. 54. o -3
2 15 -6 729. 705. 54. o -2
-2 15 -6 729. 705. 54. o 1
3 15 6 1970. 2180. 54. o 1
3 15 -6 1970. 1974. 33. o 1
-5 15 3 14313. 15657. 171. o -3
-1 15 9 14313. 15657. 171. o -2
4 15 6 14313. 15657. 171. o 1
1 15 9 14654. 15171. 107. o -3
5 15 3 14654. 15171. 107. o -2
4 15 -6 14654. 15171. 107. o 1
5 15 6 11183. 12350. 222. o 1
5 15 -6 11183. 12200. 128. o 1
-6 15 6 522. 583. 76. o -3
0 15 12 522. 583. 76. o -2
6 15 6 522. 583. 76. o 1
0 15 12 543. 577. 84. o -3
6 15 6 543. 577. 84. o -2
6 15 -6 543. 577. 84. o 1
7 15 6 6048. 6055. 183. o 1
7 15 -6 6048. 6761. 165. o 1
-7 15 9 6391. 7264. 171. o -3
1 15 15 6391. 7264. 171. o -2
8 15 6 6391. 7264. 171. o 1
-2 16 -6 69483. 71987. 540. o -3
-4 16 0 69483. 71987. 540. o -2
-2 16 6 69483. 71987. 540. o 1
2 16 6 69483. 73304. 262. o -3
4 16 0 69483. 73304. 262. o -2
2 16 -6 69483. 73304. 262. o 1
-3 16 -3 9933. 9503. 134. o -3
-3 16 3 9933. 9503. 134. o -2
0 16 6 9933. 9503. 134. o 1
3 16 3 9933. 9868. 107. o -3
3 16 -3 9933. 9868. 107. o -2
0 16 -6 9933. 9868. 107. o 1
1 16 6 10514. 10058. 117. o 1
1 16 -6 10514. 10111. 66. o 1
-4 16 0 70654. 79016. 686. o -3
-2 16 6 70654. 79016. 686. o -2
2 16 6 70654. 79016. 686. o 1
4 16 0 70654. 80662. 301. o -3
2 16 -6 70654. 80662. 301. o -2
-2 16 -6 70654. 80662. 301. o 1
3 16 6 11352. 11386. 152. o 1
3 16 -6 11352. 11300. 76. o 1
-5 16 3 23499. 22630. 204. o -3
-1 16 9 23499. 22630. 204. o -2
4 16 6 23499. 22630. 204. o 1
1 16 9 22856. 25624. 136. o -3
5 16 3 22856. 25624. 136. o -2
4 16 -6 22856. 25624. 136. o 1
5 16 6 2887. 3354. 115. o 1
5 16 -6 2887. 3317. 68. o 1
-6 16 6 97881. 96857. 637. o -3
0 16 12 97881. 96857. 637. o -2
6 16 6 97881. 96857. 637. o 1
0 16 12 95996. 107432. 445. o -3
6 16 6 95996. 107432. 445. o -2
6 16 -6 95996. 107432. 445. o 1
7 16 6 4527. 3918. 155. o 1
7 16 -6 4527. 4318. 148. o 1
-7 16 9 3415. 4067. 144. o -3
1 16 15 3415. 4067. 144. o -2
8 16 6 3415. 4067. 144. o 1
-2 17 -6 152. 206. 113. < -3
-4 17 0 152. 206. 113. < -2
-2 17 6 152. 206. 113. < 1
2 17 6 152. 179. 54. o -3
4 17 0 152. 179. 54. o -2
2 17 -6 152. 179. 54. o 1
-3 17 -3 5514. 5851. 109. o -3
-3 17 3 5514. 5851. 109. o -2
0 17 6 5514. 5851. 109. o 1
3 17 3 5514. 5466. 80. o -3
3 17 -3 5514. 5466. 80. o -2
0 17 -6 5514. 5466. 80. o 1
1 17 6 3270. 3148. 64. o 1
1 17 -6 3270. 3121. 37. o 1
-4 17 0 145. 138. 111. < -3
-2 17 6 145. 138. 111. < -2
2 17 6 145. 138. 111. < 1
4 17 0 145. 132. 62. < -3
2 17 -6 145. 132. 62. < -2
-2 17 -6 145. 132. 62. < 1
3 17 6 2195. 2058. 68. o 1
3 17 -6 2195. 2248. 37. o 1
-5 17 3 19130. 18620. 192. o -3
-1 17 9 19130. 18620. 192. o -2
4 17 6 19130. 18620. 192. o 1
1 17 9 19049. 19019. 122. o -3
5 17 3 19049. 19019. 122. o -2
4 17 -6 19049. 19019. 122. o 1
5 17 6 1631. 1838. 101. o 1
5 17 -6 1631. 1512. 43. o 1
-6 17 6 159. 218. 58. o -3
0 17 12 159. 218. 58. o -2
6 17 6 159. 218. 58. o 1
0 17 12 186. 255. 70. o -3
6 17 6 186. 255. 70. o -2
6 17 -6 186. 255. 70. o 1
7 17 6 2011. 2565. 128. o 1
7 17 -6 2011. 1978. 120. o 1
-7 17 9 7554. 7614. 188. o -3
1 17 15 7554. 7614. 188. o -2
8 17 6 7554. 7614. 188. o 1
-2 18 -6 6882. 7730. 192. o -3
-4 18 0 6882. 7730. 192. o -2
-2 18 6 6882. 7730. 192. o 1
2 18 6 6882. 8424. 91. o -3
4 18 0 6882. 8424. 91. o -2
2 18 -6 6882. 8424. 91. o 1
-3 18 -3 4806. 5503. 107. o -3
-3 18 3 4806. 5503. 107. o -2
0 18 6 4806. 5503. 107. o 1
3 18 3 4806. 5179. 80. o -3
3 18 -3 4806. 5179. 80. o -2
0 18 -6 4806. 5179. 80. o 1
1 18 6 1394. 1331. 49. o 1
1 18 -6 1394. 1164. 27. o 1
-4 18 0 6547. 5688. 144. o -3
-2 18 6 6547. 5688. 144. o -2
2 18 6 6547. 5688. 144. o 1
4 18 0 6547. 6069. 87. o -3
2 18 -6 6547. 6069. 87. o -2
-2 18 -6 6547. 6069. 87. o 1
3 18 6 2439. 2237. 68. o 1
3 18 -6 2439. 2649. 39. o 1
-5 18 3 1790. 1733. 62. o -3
-1 18 9 1790. 1733. 62. o -2
4 18 6 1790. 1733. 62. o 1
1 18 9 1715. 1654. 39. o -3
5 18 3 1715. 1654. 39. o -2
4 18 -6 1715. 1654. 39. o 1
5 18 6 3171. 3772. 136. o 1
5 18 -6 3171. 3482. 54. o 1
-6 18 6 5721. 6648. 171. o -3
0 18 12 5721. 6648. 171. o -2
6 18 6 5721. 6648. 171. o 1
0 18 12 6107. 5305. 89. o -3
6 18 6 6107. 5305. 89. o -2
6 18 -6 6107. 5305. 89. o 1
7 18 6 307. 488. 84. o 1
7 18 -6 307. 678. 128. o 1
-7 18 9 3949. 2897. 124. o -3
1 18 15 3949. 2897. 124. o -2
8 18 6 3949. 2897. 124. o 1
9 18 6 877. 515. 120. o 1
-2 19 -6 213. 206. 113. < -3
-4 19 0 213. 206. 113. < -2
-2 19 6 213. 206. 113. < 1
2 19 6 213. 208. 56. o -3
4 19 0 213. 208. 56. o -2
2 19 -6 213. 208. 56. o 1
-3 19 -3 19664. 19652. 200. o -3
-3 19 3 19664. 19652. 200. o -2
0 19 6 19664. 19652. 200. o 1
3 19 3 19664. 19738. 154. o -3
3 19 -3 19664. 19738. 154. o -2
0 19 -6 19664. 19738. 154. o 1
1 19 6 1687. 1498. 52. o 1
1 19 -6 1687. 1461. 31. o 1
-4 19 0 220. 206. 119. < -3
-2 19 6 220. 206. 119. < -2
2 19 6 220. 206. 119. < 1
4 19 0 220. 128. 82. < -3
2 19 -6 220. 128. 82. < -2
-2 19 -6 220. 128. 82. < 1
3 19 6 1017. 1114. 60. o 1
3 19 -6 1017. 1042. 39. o 1
-5 19 3 1668. 1749. 56. o -3
-1 19 9 1668. 1749. 56. o -2
4 19 6 1668. 1749. 56. o 1
1 19 9 1576. 1630. 49. o -3
5 19 3 1576. 1630. 49. o -2
4 19 -6 1576. 1630. 49. o 1
5 19 6 221. 258. 87. < 1
5 19 -6 221. 260. 54. o 1
-6 19 6 80. 154. 58. < -3
0 19 12 80. 154. 58. < -2
6 19 6 80. 154. 58. < 1
0 19 12 92. 239. 68. o -3
6 19 6 92. 239. 68. o -2
6 19 -6 92. 239. 68. o 1
7 19 6 694. 711. 107. o 1
7 19 -6 694. 878. 140. o 1
-7 19 9 4879. 6732. 210. o -3
1 19 15 4879. 6732. 210. o -2
8 19 6 4879. 6732. 210. o 1
-1 19 15 4857. 5871. 177. o -3
7 19 9 4857. 5871. 177. o -2
8 19 -6 4857. 5871. 177. o 1
9 19 6 631. 972. 119. o 1
-2 20 -6 10220. 11104. 216. o -3
-4 20 0 10220. 11104. 216. o -2
-2 20 6 10220. 11104. 216. o 1
2 20 6 10220. 11430. 113. o -3
4 20 0 10220. 11430. 113. o -2
2 20 -6 10220. 11430. 113. o 1
-3 20 -3 1836. 2122. 68. o -3
-3 20 3 1836. 2122. 68. o -2
0 20 6 1836. 2122. 68. o 1
3 20 3 1836. 1564. 51. o -3
3 20 -3 1836. 1564. 51. o -2
0 20 -6 1836. 1564. 51. o 1
1 20 6 1199. 1263. 45. o 1
1 20 -6 1199. 1152. 31. o 1
-4 20 0 9667. 7571. 165. o -3
-2 20 6 9667. 7571. 165. o -2
2 20 6 9667. 7571. 165. o 1
4 20 0 9667. 8168. 122. o -3
2 20 -6 9667. 8168. 122. o -2
-2 20 -6 9667. 8168. 122. o 1
3 20 6 3428. 3733. 97. o 1
3 20 -6 3428. 3490. 45. o 1
-5 20 3 1062. 1395. 66. o -3
-1 20 9 1062. 1395. 66. o -2
4 20 6 1062. 1395. 66. o 1
1 20 9 1023. 1003. 58. o -3
5 20 3 1023. 1003. 58. o -2
4 20 -6 1023. 1003. 58. o 1
5 20 6 1625. 1547. 113. o 1
5 20 -6 1625. 1728. 47. o 1
-6 20 6 7215. 8185. 216. o -3
0 20 12 7215. 8185. 216. o -2
6 20 6 7215. 8185. 216. o 1
0 20 12 7411. 7476. 105. o -3
6 20 6 7411. 7476. 105. o -2
6 20 -6 7411. 7476. 105. o 1
7 20 6 8907. 9891. 233. o 1
7 20 -6 8907. 9990. 155. o 1
-7 20 9 385. 241. 136. < -3
1 20 15 385. 241. 136. < -2
8 20 6 385. 241. 136. < 1
-1 20 15 352. 173. 130. < -3
7 20 9 352. 173. 130. < -2
8 20 -6 352. 173. 130. < 1
9 20 6 3245. 2870. 142. o 1
-2 21 -6 48. -192. 111. < -3
-4 21 0 48. -192. 111. < -2
-2 21 6 48. -192. 111. < 1
2 21 6 48. 4. 60. < -3
4 21 0 48. 4. 60. < -2
2 21 -6 48. 4. 60. < 1
-3 21 -3 8585. 9221. 155. o -3
-3 21 3 8585. 9221. 155. o -2
0 21 6 8585. 9221. 155. o 1
3 21 3 8585. 9419. 119. o -3
3 21 -3 8585. 9419. 119. o -2
0 21 -6 8585. 9419. 119. o 1
1 21 6 641. 655. 54. o 1
1 21 -6 641. 595. 45. o 1
-4 21 0 50. 74. 109. < -3
-2 21 6 50. 74. 109. < -2
2 21 6 50. 74. 109. < 1
4 21 0 50. 93. 80. < -3
2 21 -6 50. 93. 80. < -2
-2 21 -6 50. 93. 80. < 1
3 21 6 3609. 3515. 87. o 1
3 21 -6 3609. 3995. 54. o 1
-5 21 3 2926. 2938. 86. o -3
-1 21 9 2926. 2938. 86. o -2
4 21 6 2926. 2938. 86. o 1
1 21 9 3153. 3255. 56. o -3
5 21 3 3153. 3255. 56. o -2
4 21 -6 3153. 3255. 56. o 1
5 21 6 1885. 1963. 80. o 1
5 21 -6 1885. 2060. 47. o 1
-6 21 6 478. 490. 78. o -3
0 21 12 478. 490. 78. o -2
6 21 6 478. 490. 78. o 1
0 21 12 505. 630. 76. o -3
6 21 6 505. 630. 76. o -2
6 21 -6 505. 630. 76. o 1
7 21 6 1225. 1022. 115. o 1
7 21 -6 1225. 1609. 84. o 1
-7 21 9 1980. 1772. 107. o -3
1 21 15 1980. 1772. 107. o -2
8 21 6 1980. 1772. 107. o 1
-1 21 15 1878. 1735. 142. o -3
7 21 9 1878. 1735. 142. o -2
8 21 -6 1878. 1735. 142. o 1
9 21 6 2185. 3169. 171. o 1
-2 22 -6 7735. 9186. 214. o -3
-4 22 0 7735. 9186. 214. o -2
-2 22 6 7735. 9186. 214. o 1
2 22 6 7735. 9013. 103. o -3
4 22 0 7735. 9013. 103. o -2
2 22 -6 7735. 9013. 103. o 1
-3 22 -3 4746. 4817. 148. o -3
-3 22 3 4746. 4817. 148. o -2
0 22 6 4746. 4817. 148. o 1
3 22 3 4746. 4833. 91. o -3
3 22 -3 4746. 4833. 91. o -2
0 22 -6 4746. 4833. 91. o 1
1 22 6 2775. 3012. 86. o 1
1 22 -6 2775. 2886. 54. o 1
-4 22 0 7943. 9108. 188. o -3
-2 22 6 7943. 9108. 188. o -2
2 22 6 7943. 9108. 188. o 1
4 22 0 7943. 8846. 185. o -3
2 22 -6 7943. 8846. 185. o -2
-2 22 -6 7943. 8846. 185. o 1
3 22 6 1122. 1327. 66. o 1
3 22 -6 1122. 1201. 58. o 1
-5 22 3 5608. 5748. 113. o -3
-1 22 9 5608. 5748. 113. o -2
4 22 6 5608. 5748. 113. o 1
1 22 9 5310. 5204. 72. o -3
5 22 3 5310. 5204. 72. o -2
4 22 -6 5310. 5204. 72. o 1
5 22 6 194. 155. 68. < 1
5 22 -6 194. 126. 56. < 1
-6 22 6 34837. 43592. 548. o -3
0 22 12 34837. 43592. 548. o -2
6 22 6 34837. 43592. 548. o 1
0 22 12 36083. 36780. 303. o -3
6 22 6 36083. 36780. 303. o -2
6 22 -6 36083. 36780. 303. o 1
7 22 6 5894. 7136. 212. o 1
7 22 -6 5894. 6897. 138. o 1
-7 22 9 2105. 2116. 109. o -3
1 22 15 2105. 2116. 109. o -2
8 22 6 2105. 2116. 109. o 1
-1 22 15 2312. 2548. 128. o -3
7 22 9 2312. 2548. 128. o -2
8 22 -6 2312. 2548. 128. o 1
9 22 6 152. 113. 51. < 1
-8 22 12 10904. 12958. 369. o -3
2 22 18 10904. 12958. 369. o -2
10 22 6 10904. 12958. 369. o 1
-2 23 -6 89. 187. 119. < -3
-4 23 0 89. 187. 119. < -2
-2 23 6 89. 187. 119. < 1
2 23 6 89. 109. 62. < -3
4 23 0 89. 109. 62. < -2
2 23 -6 89. 109. 62. < 1
-3 23 -3 7937. 7793. 210. o -3
-3 23 3 7937. 7793. 210. o -2
0 23 6 7937. 7793. 210. o 1
3 23 3 7937. 8072. 115. o -3
3 23 -3 7937. 8072. 115. o -2
0 23 -6 7937. 8072. 115. o 1
1 23 6 5549. 5937. 124. o 1
1 23 -6 5549. 5816. 72. o 1
-4 23 0 88. 107. 132. < -3
-2 23 6 88. 107. 132. < -2
2 23 6 88. 107. 132. < 1
4 23 0 88. 6. 130. < -3
2 23 -6 88. 6. 130. < -2
-2 23 -6 88. 6. 130. < 1
3 23 6 2621. 2388. 82. o 1
3 23 -6 2621. 2468. 64. o 1
-5 23 3 29750. 30881. 274. o -3
-1 23 9 29750. 30881. 274. o -2
4 23 6 29750. 30881. 274. o 1
1 23 9 30362. 31083. 214. o -3
5 23 3 30362. 31083. 214. o -2
4 23 -6 30362. 31083. 214. o 1
5 23 6 5256. 5470. 165. o 1
5 23 -6 5256. 5795. 82. o 1
-6 23 6 155. 218. 115. < -3
0 23 12 155. 218. 115. < -2
6 23 6 155. 218. 115. < 1
0 23 12 184. 216. 58. o -3
6 23 6 184. 216. 58. o -2
6 23 -6 184. 216. 58. o 1
7 23 6 332. 270. 66. o 1
7 23 -6 332. 154. 93. < 1
-7 23 9 16804. 19812. 332. o -3
1 23 15 16804. 19812. 332. o -2
8 23 6 16804. 19812. 332. o 1
-1 23 15 17019. 19800. 264. o -3
7 23 9 17019. 19800. 264. o -2
8 23 -6 17019. 19800. 264. o 1
9 23 6 3727. 3204. 122. o 1
9 23 -6 3727. 3782. 66. o 1
-8 23 12 128. 198. 101. < -3
2 23 18 128. 198. 101. < -2
10 23 6 128. 198. 101. < 1
-2 24 -6 30764. 32688. 410. o -3
-4 24 0 30764. 32688. 410. o -2
-2 24 6 30764. 32688. 410. o 1
2 24 6 30764. 33178. 260. o -3
4 24 0 30764. 33178. 260. o -2
2 24 -6 30764. 33178. 260. o 1
-3 24 -3 4446. 4425. 146. o -3
-3 24 3 4446. 4425. 146. o -2
0 24 6 4446. 4425. 146. o 1
3 24 3 4446. 4839. 101. o -3
3 24 -3 4446. 4839. 101. o -2
0 24 -6 4446. 4839. 101. o 1
1 24 6 240. 354. 86. o 1
1 24 -6 240. 115. 60. < 1
-4 24 0 30446. 30064. 429. o -3
-2 24 6 30446. 30064. 429. o -2
2 24 6 30446. 30064. 429. o 1
4 24 0 30447. 28976. 394. o -3
2 24 -6 30447. 28976. 394. o -2
-2 24 -6 30447. 28976. 394. o 1
3 24 6 4778. 4506. 105. o 1
3 24 -6 4778. 4592. 72. o 1
-5 24 3 4615. 5227. 117. o -3
-1 24 9 4615. 5227. 117. o -2
4 24 6 4615. 5227. 117. o 1
1 24 9 4791. 4897. 74. o -3
5 24 3 4791. 4897. 74. o -2
4 24 -6 4791. 4897. 74. o 1
5 24 6 2458. 2627. 169. o 1
5 24 -6 2458. 2441. 58. o 1
-6 24 6 38635. 46136. 583. o -3
0 24 12 38635. 46136. 583. o -2
6 24 6 38635. 46136. 583. o 1
0 24 12 39381. 42531. 284. o -3
6 24 6 39381. 42531. 284. o -2
6 24 -6 39381. 42531. 284. o 1
7 24 6 7570. 8422. 278. o 1
7 24 -6 7570. 8414. 175. o 1
-7 24 9 5724. 6088. 268. o -3
1 24 15 5724. 6088. 268. o -2
8 24 6 5724. 6088. 268. o 1
-1 24 15 6072. 6003. 169. o -3
7 24 9 6072. 6003. 169. o -2
8 24 -6 6072. 6003. 169. o 1
9 24 6 90. -262. 82. < 1
9 24 -6 90. 2. 51. < 1
-8 24 12 5430. 5163. 171. o -3
2 24 18 5430. 5163. 171. o -2
10 24 6 5430. 5163. 171. o 1
-2 25 -6 222. 12. 124. < -3
-4 25 0 222. 12. 124. < -2
-2 25 6 222. 12. 124. < 1
2 25 6 222. 134. 72. < -3
4 25 0 222. 134. 72. < -2
2 25 -6 222. 134. 72. < 1
-3 25 -3 10746. 10888. 241. o -3
-3 25 3 10746. 10888. 241. o -2
0 25 6 10746. 10888. 241. o 1
3 25 3 10746. 11498. 154. o -3
3 25 -3 10746. 11498. 154. o -2
0 25 -6 10746. 11498. 154. o 1
1 25 6 7204. 7540. 136. o 1
1 25 -6 7204. 7845. 95. o 1
-4 25 0 223. -101. 130. < -3
-2 25 6 223. -101. 130. < -2
2 25 6 223. -101. 130. < 1
4 25 0 223. 74. 132. < -3
2 25 -6 223. 74. 132. < -2
-2 25 -6 223. 74. 132. < 1
3 25 6 1780. 1883. 76. o 1
3 25 -6 1780. 2085. 56. o 1
-5 25 3 6457. 6866. 144. o -3
-1 25 9 6457. 6866. 144. o -2
4 25 6 6457. 6866. 144. o 1
1 25 9 5876. 6287. 86. o -3
5 25 3 5876. 6287. 86. o -2
4 25 -6 5876. 6287. 86. o 1
5 25 6 13703. 14818. 210. o 1
5 25 -6 13703. 14378. 150. o 1
-6 25 6 90. 614. 173. o -3
0 25 12 90. 614. 173. o -2
6 25 6 90. 614. 173. o 1
0 25 12 101. 272. 70. o -3
6 25 6 101. 272. 70. o -2
6 25 -6 101. 272. 70. o 1
7 25 6 2357. 2901. 157. o 1
7 25 -6 2357. 3111. 115. o 1
-7 25 9 2518. 2868. 128. o -3
1 25 15 2518. 2868. 128. o -2
8 25 6 2518. 2868. 128. o 1
-1 25 15 2475. 1937. 82. o -3
7 25 9 2475. 1937. 82. o -2
8 25 -6 2475. 1937. 82. o 1
9 25 6 7707. 5698. 192. o 1
-8 25 12 356. 128. 101. < -3
2 25 18 356. 128. 101. < -2
10 25 6 356. 128. 101. < 1
11 25 6 433. 120. 82. < 1
-2 26 -6 4596. 5095. 161. o -3
-4 26 0 4596. 5095. 161. o -2
-2 26 6 4596. 5095. 161. o 1
2 26 6 4596. 4495. 111. o -3
4 26 0 4596. 4495. 111. o -2
2 26 -6 4596. 4495. 111. o 1
-3 26 -3 6488. 7122. 231. o -3
-3 26 3 6488. 7122. 231. o -2
0 26 6 6488. 7122. 231. o 1
3 26 3 6488. 6831. 109. o -3
3 26 -3 6488. 6831. 109. o -2
0 26 -6 6488. 6831. 109. o 1
1 26 6 3002. 3591. 101. o 1
1 26 -6 3002. 3224. 66. o 1
3 26 6 2797. 2520. 95. o 1
3 26 -6 2797. 2713. 74. o 1
-5 26 3 7901. 7863. 136. o -3
-1 26 9 7901. 7863. 136. o -2
4 26 6 7901. 7863. 136. o 1
1 26 9 7425. 8135. 111. o -3
5 26 3 7425. 8135. 111. o -2
4 26 -6 7425. 8135. 111. o 1
5 26 6 3763. 4907. 138. o 1
5 26 -6 3763. 4654. 84. o 1
7 26 6 228. -144. 103. < 1
7 26 -6 228. 93. 89. < 1
-7 26 9 3411. 2756. 142. o -3
1 26 15 3411. 2756. 142. o -2
8 26 6 3411. 2756. 142. o 1
-1 26 15 3108. 2635. 101. o -3
7 26 9 3108. 2635. 101. o -2
8 26 -6 3108. 2635. 101. o 1
9 26 6 1305. 937. 132. o 1
9 26 -6 1305. 822. 117. o 1
-2 27 -6 459. 274. 124. < -3
-4 27 0 459. 274. 124. < -2
-2 27 6 459. 274. 124. < 1
2 27 6 459. 105. 74. < -3
4 27 0 459. 105. 74. < -2
2 27 -6 459. 105. 74. < 1
-3 27 -3 5775. 5531. 165. o -3
-3 27 3 5775. 5531. 165. o -2
0 27 6 5775. 5531. 165. o 1
3 27 3 5775. 6026. 105. o -3
3 27 -3 5775. 6026. 105. o -2
0 27 -6 5775. 6026. 105. o 1
1 27 6 4143. 4186. 107. o 1
1 27 -6 4143. 4182. 78. o 1
-4 27 0 440. 253. 134. < -3
-2 27 6 440. 253. 134. < -2
2 27 6 440. 253. 134. < 1
4 27 0 440. 229. 78. < -3
2 27 -6 440. 229. 78. < -2
-2 27 -6 440. 229. 78. < 1
3 27 6 3962. 4180. 107. o 1
3 27 -6 3962. 4248. 72. o 1
-5 27 3 15103. 16460. 225. o -3
-1 27 9 15103. 16460. 225. o -2
4 27 6 15103. 16460. 225. o 1
1 27 9 16409. 17307. 152. o -3
5 27 3 16409. 17307. 152. o -2
4 27 -6 16409. 17307. 152. o 1
5 27 6 10813. 11442. 202. o 1
5 27 -6 10813. 12476. 124. o 1
0 27 12 613. 562. 58. o -3
6 27 6 613. 562. 58. o -2
6 27 -6 613. 562. 58. o 1
7 27 6 2023. 1593. 148. o 1
7 27 -6 2023. 2184. 109. o 1
-7 27 9 5633. 5307. 169. o -3
1 27 15 5633. 5307. 169. o -2
8 27 6 5633. 5307. 169. o 1
-1 27 15 5320. 5278. 78. o -3
7 27 9 5320. 5278. 78. o -2
8 27 -6 5320. 5278. 78. o 1
-8 27 12 693. -154. 95. < -3
2 27 18 693. -154. 95. < -2
10 27 6 693. -154. 95. < 1
-2 28 -6 9141. 9724. 227. o -3
-4 28 0 9141. 9724. 227. o -2
-2 28 6 9141. 9724. 227. o 1
2 28 6 9142. 8751. 136. o -3
4 28 0 9142. 8751. 136. o -2
2 28 -6 9142. 8751. 136. o 1
3 28 3 1206. 1605. 101. o -3
3 28 -3 1206. 1605. 101. o -2
0 28 -6 1206. 1605. 101. o 1
1 28 6 686. 803. 117. o 1
1 28 -6 686. 750. 62. o 1
-4 28 0 8949. 8892. 220. o -3
-2 28 6 8949. 8892. 220. o -2
2 28 6 8949. 8892. 220. o 1
4 28 0 8949. 8877. 192. o -3
2 28 -6 8949. 8877. 192. o -2
-2 28 -6 8949. 8877. 192. o 1
3 28 6 2032. 2256. 113. o 1
3 28 -6 2032. 1448. 60. o 1
-5 28 3 6413. 5713. 109. o -3
-1 28 9 6413. 5713. 109. o -2
4 28 6 6413. 5713. 109. o 1
1 28 9 6310. 5946. 87. o -3
5 28 3 6310. 5946. 87. o -2
4 28 -6 6310. 5946. 87. o 1
5 28 6 4463. 4429. 117. o 1
5 28 -6 4463. 4913. 72. o 1
0 28 12 12674. 13148. 126. o -3
6 28 6 12674. 13148. 126. o -2
6 28 -6 12674. 13148. 126. o 1
7 28 6 596. 431. 126. o 1
7 28 -6 596. 812. 74. o 1
-7 28 9 474. 361. 115. o -3
1 28 15 474. 361. 115. o -2
8 28 6 474. 361. 115. o 1
-1 28 15 534. 319. 62. o -3
7 28 9 534. 319. 62. o -2
8 28 -6 534. 319. 62. o 1
9 28 6 678. 229. 99. < 1
9 28 -6 678. 257. 107. < 1
-2 29 -6 95. -157. 122. < -3
-4 29 0 95. -157. 122. < -2
-2 29 6 95. -157. 122. < 1
2 29 6 95. -49. 119. < -3
4 29 0 95. -49. 119. < -2
2 29 -6 95. -49. 119. < 1
3 29 3 2080. 1308. 78. o -3
3 29 -3 2080. 1308. 78. o -2
0 29 -6 2080. 1308. 78. o 1
1 29 6 1041. 595. 72. o 1
1 29 -6 1041. 915. 89. o 1
-4 29 0 101. 276. 119. < -3
-2 29 6 101. 276. 119. < -2
2 29 6 101. 276. 119. < 1
4 29 0 101. 128. 76. < -3
2 29 -6 101. 128. 76. < -2
-2 29 -6 101. 128. 76. < 1
3 29 6 2297. 2120. 91. o 1
3 29 -6 2297. 2759. 64. o 1
-5 29 3 6691. 6240. 128. o -3
-1 29 9 6691. 6240. 128. o -2
4 29 6 6691. 6240. 128. o 1
1 29 9 6696. 6438. 113. o -3
5 29 3 6696. 6438. 113. o -2
4 29 -6 6696. 6438. 113. o 1
5 29 6 5521. 5224. 130. o 1
5 29 -6 5521. 5295. 84. o 1
0 29 12 210. 330. 58. o -3
6 29 6 210. 330. 58. o -2
6 29 -6 210. 330. 58. o 1
7 29 6 2668. 890. 138. o 1
7 29 -6 2668. 2629. 64. o 1
-7 29 9 1216. 342. 111. o -3
1 29 15 1216. 342. 111. o -2
8 29 6 1216. 342. 111. o 1
-1 29 15 1191. 874. 97. o -3
7 29 9 1191. 874. 97. o -2
8 29 -6 1191. 874. 97. o 1
-2 30 -6 2438. 3125. 130. o -3
-4 30 0 2438. 3125. 130. o -2
-2 30 6 2438. 3125. 130. o 1
2 30 6 2438. 2864. 150. o -3
4 30 0 2438. 2864. 150. o -2
2 30 -6 2438. 2864. 150. o 1
3 30 3 828. 575. 86. o -3
3 30 -3 828. 575. 86. o -2
0 30 -6 828. 575. 86. o 1
1 30 6 2368. 2279. 84. o 1
1 30 -6 2368. 1801. 91. o 1
-4 30 0 2308. 1881. 109. o -3
-2 30 6 2308. 1881. 109. o -2
2 30 6 2308. 1881. 109. o 1
4 30 0 2308. 2151. 126. o -3
2 30 -6 2308. 2151. 126. o -2
-2 30 -6 2308. 2151. 126. o 1
3 30 6 1695. 1864. 101. o 1
3 30 -6 1695. 1504. 66. o 1
-5 30 3 248. 136. 89. < -3
-1 30 9 248. 136. 89. < -2
4 30 6 248. 136. 89. < 1
1 30 9 241. 216. 58. o -3
5 30 3 241. 216. 58. o -2
4 30 -6 241. 216. 58. o 1
5 30 6 893. 892. 82. o 1
5 30 -6 893. 1065. 56. o 1
-6 30 6 2873. 1934. 173. o -3
0 30 12 2873. 1934. 173. o -2
6 30 6 2873. 1934. 173. o 1
7 30 6 243. 120. 76. < 1
7 30 -6 243. 99. 45. < 1
-7 30 9 381. 227. 80. < -3
1 30 15 381. 227. 80. < -2
8 30 6 381. 227. 80. < 1
-1 30 15 410. 323. 97. o -3
7 30 9 410. 323. 97. o -2
8 30 -6 410. 323. 97. o 1
-2 31 -6 206. 175. 117. < -3
-4 31 0 206. 175. 117. < -2
-2 31 6 206. 175. 117. < 1
2 31 6 206. 206. 120. < -3
4 31 0 206. 206. 120. < -2
2 31 -6 206. 206. 120. < 1
3 31 3 10292. 10556. 185. o -3
3 31 -3 10292. 10556. 185. o -2
0 31 -6 10292. 10556. 185. o 1
1 31 6 308. 274. 76. o 1
1 31 -6 308. 229. 89. < 1
-4 31 0 195. -43. 95. < -3
-2 31 6 195. -43. 95. < -2
2 31 6 195. -43. 95. < 1
4 31 0 195. 155. 122. < -3
2 31 -6 195. 155. 122. < -2
-2 31 -6 195. 155. 122. < 1
3 31 6 601. 670. 87. o 1
3 31 -6 601. 532. 58. o 1
-5 31 3 2013. 2231. 97. o -3
-1 31 9 2013. 2231. 97. o -2
4 31 6 2013. 2231. 97. o 1
1 31 9 1934. 1782. 70. o -3
5 31 3 1934. 1782. 70. o -2
4 31 -6 1934. 1782. 70. o 1
5 31 6 705. 606. 84. o 1
5 31 -6 705. 262. 68. o 1
-6 31 6 272. 41. 60. < -3
0 31 12 272. 41. 60. < -2
6 31 6 272. 41. 60. < 1
0 31 12 297. 157. 41. o -3
6 31 6 297. 157. 41. o -2
6 31 -6 297. 157. 41. o 1
7 31 -6 1147. 723. 111. o 1
-2 32 -6 1658. 1757. 136. o -3
-4 32 0 1658. 1757. 136. o -2
-2 32 6 1658. 1757. 136. o 1
2 32 6 1658. 1735. 136. o -3
4 32 0 1658. 1735. 136. o -2
2 32 -6 1658. 1735. 136. o 1
3 32 3 2402. 2180. 99. o -3
3 32 -3 2402. 2180. 99. o -2
0 32 -6 2402. 2180. 99. o 1
1 32 6 102. 202. 68. < 1
1 32 -6 102. 188. 80. < 1
-4 32 0 1569. 1222. 80. o -3
-2 32 6 1569. 1222. 80. o -2
2 32 6 1569. 1222. 80. o 1
4 32 0 1569. 2000. 132. o -3
2 32 -6 1569. 2000. 132. o -2
-2 32 -6 1569. 2000. 132. o 1
3 32 6 2328. 1739. 82. o 1
-5 32 3 659. 350. 56. o -3
-1 32 9 659. 350. 56. o -2
4 32 6 659. 350. 56. o 1
1 32 9 746. 474. 56. o -3
5 32 3 746. 474. 56. o -2
4 32 -6 746. 474. 56. o 1
5 32 6 400. 293. 51. o 1
5 32 -6 400. 196. 58. o 1
-2 33 -6 228. 52. 95. < -3
-4 33 0 228. 52. 95. < -2
-2 33 6 228. 52. 95. < 1
2 33 6 228. 126. 105. < -3
4 33 0 228. 126. 105. < -2
2 33 -6 228. 126. 105. < 1
3 33 3 354. 91. 74. < -3
3 33 -3 354. 91. 74. < -2
0 33 -6 354. 91. 74. < 1
1 33 6 1214. 414. 84. o 1
1 33 -6 1214. 950. 87. o 1
-4 33 0 237. -39. 70. < -3
-2 33 6 237. -39. 70. < -2
2 33 6 237. -39. 70. < 1
4 33 0 237. 16. 109. < -3
2 33 -6 237. 16. 109. < -2
-2 33 -6 237. 16. 109. < 1
3 33 -6 1371. 841. 52. o 1
-5 33 3 1075. 696. 43. o -3
-1 33 9 1075. 696. 43. o -2
4 33 6 1075. 696. 43. o 1
1 33 9 1069. 865. 51. o -3
5 33 3 1069. 865. 51. o -2
4 33 -6 1069. 865. 51. o 1
-2 34 -6 407. 208. 93. < -3
-4 34 0 407. 208. 93. < -2
-2 34 6 407. 208. 93. < 1
2 34 6 407. 95. 109. < -3
4 34 0 407. 95. 109. < -2
2 34 -6 407. 95. 109. < 1
3 34 3 625. 428. 68. o -3
3 34 -3 625. 428. 68. o -2
0 34 -6 625. 428. 68. o 1
1 34 6 817. 486. 97. o 1
1 34 -6 817. 260. 72. o 1
4 34 0 384. 323. 93. o -3
2 34 -6 384. 323. 93. o -2
-2 34 -6 384. 323. 93. o 1
2 0 -7 31828. 28827. 86. o 1
4 0 -7 7391. 6681. 78. o 1
3 1 5 2026. 1766. 16. o -3
4 1 -2 2026. 1766. 16. o -2
1 1 -7 2026. 1766. 16. o 1
2 1 -7 16158. 14454. 54. o 1
4 1 -7 4172. 3718. 49. o 1
1 1 11 320. 394. 47. o -3
6 1 4 320. 394. 47. o -2
5 1 -7 320. 394. 47. o 1
6 1 -7 4088. 3712. 99. o 1
3 2 5 759. 733. 10. o -3
4 2 -2 759. 733. 10. o -2
1 2 -7 759. 733. 10. o 1
2 2 -7 12368. 11609. 52. o 1
2 2 8 4085. 4240. 45. o -3
5 2 1 4085. 4240. 45. o -2
3 2 -7 4085. 4240. 45. o 1
4 2 -7 385. 342. 31. o 1
1 2 11 1561. 1226. 49. o -3
6 2 4 1561. 1226. 49. o -2
5 2 -7 1561. 1226. 49. o 1
6 2 -7 2053. 1916. 80. o 1
3 3 5 2640. 2256. 21. o -3
4 3 -2 2640. 2256. 21. o -2
1 3 -7 2640. 2256. 21. o 1
2 3 -7 4059. 3809. 33. o 1
2 3 8 3395. 3195. 37. o -3
5 3 1 3395. 3195. 37. o -2
3 3 -7 3395. 3195. 37. o 1
4 3 -7 197. 136. 45. o 1
1 3 11 4529. 4543. 86. o -3
6 3 4 4529. 4543. 86. o -2
5 3 -7 4529. 4543. 86. o 1
6 3 -7 267. 54. 99. < 1
0 3 14 3473. 3354. 107. o -3
7 3 7 3473. 3354. 107. o -2
7 3 -7 3473. 3354. 107. o 1
3 4 5 957. 931. 17. o -3
4 4 -2 957. 931. 17. o -2
1 4 -7 957. 931. 17. o 1
2 4 -7 247. 253. 19. o 1
2 4 8 10383. 10620. 64. o -3
5 4 1 10383. 10620. 64. o -2
3 4 -7 10383. 10620. 64. o 1
4 4 -7 1473. 1454. 43. o 1
1 4 11 1175. 958. 41. o -3
6 4 4 1175. 958. 41. o -2
5 4 -7 1175. 958. 41. o 1
6 4 -7 872. 801. 56. o 1
0 4 14 887. 1409. 78. o -3
7 4 7 887. 1409. 78. o -2
7 4 -7 887. 1409. 78. o 1
3 5 5 2917. 2571. 21. o -3
4 5 -2 2917. 2571. 21. o -2
1 5 -7 2917. 2571. 21. o 1
2 5 -7 1039. 884. 19. o 1
2 5 8 799. 820. 17. o -3
5 5 1 799. 820. 17. o -2
3 5 -7 799. 820. 17. o 1
4 5 -7 478. 573. 31. o 1
1 5 11 2632. 2569. 58. o -3
6 5 4 2632. 2569. 58. o -2
5 5 -7 2632. 2569. 58. o 1
6 5 -7 790. 777. 56. o 1
-7 5 7 1551. 1457. 76. o -3
0 5 14 1551. 1457. 76. o -2
7 5 7 1551. 1457. 76. o 1
0 5 14 1723. 1115. 72. o -3
7 5 7 1723. 1115. 72. o -2
7 5 -7 1723. 1115. 72. o 1
3 6 5 6063. 6203. 43. o -3
4 6 -2 6063. 6203. 43. o -2
1 6 -7 6063. 6203. 43. o 1
2 6 -7 6310. 5740. 52. o 1
2 6 8 1344. 1331. 23. o -3
5 6 1 1344. 1331. 23. o -2
3 6 -7 1344. 1331. 23. o 1
4 6 -7 3095. 3236. 52. o 1
1 6 11 1364. 1539. 31. o -3
6 6 4 1364. 1539. 31. o -2
5 6 -7 1364. 1539. 31. o 1
6 6 -7 2886. 3080. 99. o 1
-7 6 7 566. 391. 51. o -3
0 6 14 566. 391. 51. o -2
7 6 7 566. 391. 51. o 1
0 6 14 542. 1016. 101. o -3
7 6 7 542. 1016. 101. o -2
7 6 -7 542. 1016. 101. o 1
8 6 7 8618. 10620. 214. o 1
-4 7 -2 3039. 3692. 113. o -3
-3 7 5 3039. 3692. 113. o -2
1 7 7 3039. 3692. 113. o 1
3 7 5 2629. 2965. 29. o -3
4 7 -2 2629. 2965. 29. o -2
1 7 -7 2629. 2965. 29. o 1
2 7 -7 2536. 2262. 29. o 1
2 7 8 6208. 5923. 56. o -3
5 7 1 6208. 5923. 56. o -2
3 7 -7 6208. 5923. 56. o 1
4 7 -7 1509. 1286. 45. o 1
1 7 11 5458. 4685. 74. o -3
6 7 4 5458. 4685. 74. o -2
5 7 -7 5458. 4685. 74. o 1
6 7 -7 1048. 1051. 31. o 1
-7 7 7 9099. 11862. 216. o -3
0 7 14 9099. 11862. 216. o -2
7 7 7 9099. 11862. 216. o 1
8 7 7 998. 723. 62. o 1
-4 8 -2 12477. 11133. 169. o -3
-3 8 5 12477. 11133. 169. o -2
1 8 7 12477. 11133. 169. o 1
3 8 5 12933. 12861. 72. o -3
4 8 -2 12933. 12861. 72. o -2
1 8 -7 12933. 12861. 72. o 1
2 8 -7 22. 27. 21. < 1
2 8 8 5054. 5964. 58. o -3
5 8 1 5054. 5964. 58. o -2
3 8 -7 5054. 5964. 58. o 1
4 8 -7 313. 323. 47. o 1
1 8 11 1627. 1559. 56. o -3
6 8 4 1627. 1559. 56. o -2
5 8 -7 1627. 1559. 56. o 1
6 8 7 777. 632. 56. o 1
6 8 -7 777. 851. 39. o 1
-7 8 7 13009. 12254. 247. o -3
0 8 14 13009. 12254. 247. o -2
7 8 7 13009. 12254. 247. o 1
8 8 7 1583. 1267. 76. o 1
-4 9 -2 5769. 5979. 138. o -3
-3 9 5 5769. 5979. 138. o -2
1 9 7 5769. 5979. 138. o 1
3 9 5 5521. 5651. 52. o -3
4 9 -2 5521. 5651. 52. o -2
1 9 -7 5521. 5651. 52. o 1
2 9 -7 169. 173. 31. o 1
2 9 8 3493. 3191. 37. o -3
5 9 1 3493. 3191. 37. o -2
3 9 -7 3493. 3191. 37. o 1
4 9 -7 613. 536. 72. o 1
1 9 11 5683. 5810. 101. o -3
6 9 4 5683. 5810. 101. o -2
5 9 -7 5683. 5810. 101. o 1
6 9 7 1885. 1436. 58. o 1
6 9 -7 1885. 1796. 58. o 1
-7 9 7 4993. 6218. 150. o -3
0 9 14 4993. 6218. 150. o -2
7 9 7 4993. 6218. 150. o 1
8 9 7 1475. 1216. 80. o 1
-4 10 -2 4003. 4466. 70. o -3
-3 10 5 4003. 4466. 70. o -2
1 10 7 4003. 4466. 70. o 1
3 10 5 4118. 4089. 39. o -3
4 10 -2 4118. 4089. 39. o -2
1 10 -7 4118. 4089. 39. o 1
2 10 7 544. 480. 41. o 1
2 10 -7 544. 474. 27. o 1
2 10 8 3447. 3321. 43. o -3
5 10 1 3447. 3321. 43. o -2
3 10 -7 3447. 3321. 43. o 1
4 10 -7 2042. 1807. 35. o 1
-6 10 4 4013. 4635. 84. o -3
-1 10 11 4013. 4635. 84. o -2
5 10 7 4013. 4635. 84. o 1
1 10 11 4406. 4137. 84. o -3
6 10 4 4406. 4137. 84. o -2
5 10 -7 4406. 4137. 84. o 1
6 10 7 3730. 3618. 87. o 1
6 10 -7 3730. 3508. 80. o 1
-7 10 7 2478. 2314. 68. o -3
0 10 14 2478. 2314. 68. o -2
7 10 7 2478. 2314. 68. o 1
-4 11 -2 1968. 1522. 39. o -3
-3 11 5 1968. 1522. 39. o -2
1 11 7 1968. 1522. 39. o 1
3 11 5 1722. 1597. 27. o -3
4 11 -2 1722. 1597. 27. o -2
1 11 -7 1722. 1597. 27. o 1
2 11 7 1061. 1102. 37. o 1
2 11 -7 1061. 931. 25. o 1
-5 11 1 2453. 2587. 64. o -3
-2 11 8 2453. 2587. 64. o -2
3 11 7 2453. 2587. 64. o 1
2 11 8 2537. 2437. 39. o -3
5 11 1 2537. 2437. 39. o -2
3 11 -7 2537. 2437. 39. o 1
4 11 7 38. 210. 64. o 1
4 11 -7 38. -47. 43. < 1
-6 11 4 6136. 5925. 95. o -3
-1 11 11 6136. 5925. 95. o -2
5 11 7 6136. 5925. 95. o 1
1 11 11 6025. 6481. 107. o -3
6 11 4 6025. 6481. 107. o -2
5 11 -7 6025. 6481. 107. o 1
6 11 7 2149. 2147. 66. o 1
6 11 -7 2149. 2134. 66. o 1
-4 12 -2 4249. 4285. 70. o -3
-3 12 5 4249. 4285. 70. o -2
1 12 7 4249. 4285. 70. o 1
3 12 5 4449. 4403. 43. o -3
4 12 -2 4449. 4403. 43. o -2
1 12 -7 4449. 4403. 43. o 1
2 12 7 949. 841. 33. o 1
2 12 -7 949. 812. 23. o 1
-5 12 1 1420. 1218. 47. o -3
-2 12 8 1420. 1218. 47. o -2
3 12 7 1420. 1218. 47. o 1
2 12 8 1322. 1395. 33. o -3
5 12 1 1322. 1395. 33. o -2
3 12 -7 1322. 1395. 33. o 1
4 12 7 2307. 2414. 66. o 1
4 12 -7 2307. 2497. 43. o 1
-6 12 4 760. 931. 47. o -3
-1 12 11 760. 931. 47. o -2
5 12 7 760. 931. 47. o 1
1 12 11 821. 942. 49. o -3
6 12 4 821. 942. 49. o -2
5 12 -7 821. 942. 49. o 1
6 12 7 5398. 5836. 111. o 1
6 12 -7 5398. 6061. 113. o 1
-7 12 7 246. 313. 56. o -3
0 12 14 246. 313. 56. o -2
7 12 7 246. 313. 56. o 1
0 12 14 256. 556. 87. o -3
7 12 7 256. 556. 87. o -2
7 12 -7 256. 556. 87. o 1
-4 13 -2 1726. 1840. 45. o -3
-3 13 5 1726. 1840. 45. o -2
1 13 7 1726. 1840. 45. o 1
3 13 5 1706. 1867. 29. o -3
4 13 -2 1706. 1867. 29. o -2
1 13 -7 1706. 1867. 29. o 1
2 13 7 382. 223. 39. o 1
2 13 -7 382. 350. 33. o 1
2 13 8 5528. 5700. 64. o -3
5 13 1 5528. 5700. 64. o -2
3 13 -7 5528. 5700. 64. o 1
4 13 7 1268. 857. 54. o 1
4 13 -7 1268. 1273. 33. o 1
-6 13 4 5616. 5299. 140. o -3
-1 13 11 5616. 5299. 140. o -2
5 13 7 5616. 5299. 140. o 1
1 13 11 5615. 6143. 91. o -3
6 13 4 5615. 6143. 91. o -2
5 13 -7 5615. 6143. 91. o 1
6 13 7 3278. 2812. 72. o 1
6 13 -7 3278. 3274. 80. o 1
-7 13 7 9531. 12078. 241. o -3
0 13 14 9531. 12078. 241. o -2
7 13 7 9531. 12078. 241. o 1
0 13 14 10574. 12705. 233. o -3
7 13 7 10574. 12705. 233. o -2
7 13 -7 10574. 12705. 233. o 1
-4 14 -2 8072. 8426. 103. o -3
-3 14 5 8072. 8426. 103. o -2
1 14 7 8072. 8426. 103. o 1
3 14 5 8608. 8208. 60. o -3
4 14 -2 8608. 8208. 60. o -2
1 14 -7 8608. 8208. 60. o 1
2 14 7 4071. 3480. 68. o 1
2 14 -7 4071. 3593. 41. o 1
-5 14 1 5915. 5352. 103. o -3
-2 14 8 5915. 5352. 103. o -2
3 14 7 5915. 5352. 103. o 1
2 14 8 5671. 5606. 60. o -3
5 14 1 5671. 5606. 60. o -2
3 14 -7 5671. 5606. 60. o 1
4 14 7 2399. 2382. 66. o 1
4 14 -7 2399. 2287. 43. o 1
1 14 11 9260. 8741. 101. o -3
6 14 4 9260. 8741. 101. o -2
5 14 -7 9260. 8741. 101. o 1
6 14 7 5237. 5583. 152. o 1
6 14 -7 5237. 5237. 97. o 1
-7 14 7 3292. 3030. 119. o -3
0 14 14 3292. 3030. 119. o -2
7 14 7 3292. 3030. 119. o 1
0 14 14 3283. 3463. 128. o -3
7 14 7 3283. 3463. 128. o -2
7 14 -7 3283. 3463. 128. o 1
8 14 7 3390. 3391. 126. o 1
-4 15 -2 15328. 13762. 130. o -3
-3 15 5 15328. 13762. 130. o -2
1 15 7 15328. 13762. 130. o 1
3 15 5 14561. 15039. 78. o -3
4 15 -2 14561. 15039. 78. o -2
1 15 -7 14561. 15039. 78. o 1
2 15 7 5963. 5705. 86. o 1
2 15 -7 5963. 5795. 54. o 1
-5 15 1 16406. 19359. 148. o -3
-2 15 8 16406. 19359. 148. o -2
3 15 7 16406. 19359. 148. o 1
2 15 8 18841. 18720. 128. o -3
5 15 1 18841. 18720. 128. o -2
3 15 -7 18841. 18720. 128. o 1
4 15 7 2583. 2715. 78. o 1
4 15 -7 2583. 2765. 47. o 1
-6 15 4 6015. 5138. 97. o -3
-1 15 11 6015. 5138. 97. o -2
5 15 7 6015. 5138. 97. o 1
1 15 11 5780. 5573. 84. o -3
6 15 4 5780. 5573. 84. o -2
5 15 -7 5780. 5573. 84. o 1
6 15 7 3993. 4604. 144. o 1
6 15 -7 3993. 4118. 97. o 1
-7 15 7 12033. 14277. 394. o -3
0 15 14 12033. 14277. 394. o -2
7 15 7 12033. 14277. 394. o 1
0 15 14 12424. 14639. 243. o -3
7 15 7 12424. 14639. 243. o -2
7 15 -7 12424. 14639. 243. o 1
8 15 7 490. 435. 68. o 1
-4 16 -2 12520. 13310. 130. o -3
-3 16 5 12520. 13310. 130. o -2
1 16 7 12520. 13310. 130. o 1
3 16 5 12750. 13195. 76. o -3
4 16 -2 12750. 13195. 76. o -2
1 16 -7 12750. 13195. 76. o 1
2 16 7 2852. 2866. 58. o 1
2 16 -7 2852. 2763. 37. o 1
-5 16 1 24817. 26003. 233. o -3
-2 16 8 24817. 26003. 233. o -2
3 16 7 24817. 26003. 233. o 1
2 16 8 24136. 26067. 148. o -3
5 16 1 24136. 26067. 148. o -2
3 16 -7 24136. 26067. 148. o 1
4 16 7 428. 381. 60. o 1
4 16 -7 428. 330. 54. o 1
-6 16 4 4248. 5124. 101. o -3
-1 16 11 4248. 5124. 101. o -2
5 16 7 4248. 5124. 101. o 1
1 16 11 4364. 4681. 58. o -3
6 16 4 4364. 4681. 58. o -2
5 16 -7 4364. 4681. 58. o 1
6 16 7 4174. 4334. 148. o 1
6 16 -7 4174. 4100. 91. o 1
-7 16 7 7942. 8251. 196. o -3
0 16 14 7942. 8251. 196. o -2
7 16 7 7942. 8251. 196. o 1
0 16 14 7535. 7192. 177. o -3
7 16 7 7535. 7192. 177. o -2
7 16 -7 7535. 7192. 177. o 1
8 16 7 706. 981. 87. o 1
-4 17 -2 7780. 7643. 105. o -3
-3 17 5 7780. 7643. 105. o -2
1 17 7 7780. 7643. 105. o 1
3 17 5 7733. 7606. 60. o -3
4 17 -2 7733. 7606. 60. o -2
1 17 -7 7733. 7606. 60. o 1
2 17 7 1313. 1430. 49. o 1
2 17 -7 1313. 1257. 29. o 1
-5 17 1 2784. 2948. 82. o -3
-2 17 8 2784. 2948. 82. o -2
3 17 7 2784. 2948. 82. o 1
2 17 8 2333. 2132. 43. o -3
5 17 1 2333. 2132. 43. o -2
3 17 -7 2333. 2132. 43. o 1
4 17 7 143. 84. 72. < 1
4 17 -7 143. 227. 51. o 1
-6 17 4 2586. 3090. 86. o -3
-1 17 11 2586. 3090. 86. o -2
5 17 7 2586. 3090. 86. o 1
1 17 11 2712. 2489. 47. o -3
6 17 4 2712. 2489. 47. o -2
5 17 -7 2712. 2489. 47. o 1
6 17 7 1809. 1518. 89. o 1
6 17 -7 1809. 1628. 54. o 1
-7 17 7 811. 1220. 126. o -3
0 17 14 811. 1220. 126. o -2
7 17 7 811. 1220. 126. o 1
0 17 14 796. 927. 140. o -3
7 17 7 796. 927. 140. o -2
7 17 -7 796. 927. 140. o 1
8 17 7 3476. 4337. 140. o 1
8 17 -7 3476. 3842. 105. o 1
-8 17 10 12897. 11809. 332. o -3
1 17 17 12897. 11809. 332. o -2
9 17 7 12897. 11809. 332. o 1
-4 18 -2 11587. 13617. 136. o -3
-3 18 5 11587. 13617. 136. o -2
1 18 7 11587. 13617. 136. o 1
3 18 5 12343. 13352. 82. o -3
4 18 -2 12343. 13352. 82. o -2
1 18 -7 12343. 13352. 82. o 1
2 18 7 39. -4. 76. < 1
2 18 -7 39. 78. 43. < 1
-5 18 1 916. 1176. 56. o -3
-2 18 8 916. 1176. 56. o -2
3 18 7 916. 1176. 56. o 1
2 18 8 938. 1152. 35. o -3
5 18 1 938. 1152. 35. o -2
3 18 -7 938. 1152. 35. o 1
4 18 7 188. 54. 60. < 1
4 18 -7 188. 206. 54. o 1
-6 18 4 2012. 2445. 72. o -3
-1 18 11 2012. 2445. 72. o -2
5 18 7 2012. 2445. 72. o 1
1 18 11 2214. 2050. 47. o -3
6 18 4 2214. 2050. 47. o -2
5 18 -7 2214. 2050. 47. o 1
6 18 7 1538. 1148. 89. o 1
6 18 -7 1538. 1366. 54. o 1
-7 18 7 107. 412. 132. o -3
0 18 14 107. 412. 132. o -2
7 18 7 107. 412. 132. o 1
0 18 14 116. 428. 142. o -3
7 18 7 116. 428. 142. o -2
7 18 -7 116. 428. 142. o 1
8 18 7 7552. 9722. 241. o 1
8 18 -7 7552. 8731. 200. o 1
-8 18 10 5727. 8103. 249. o -3
1 18 17 5727. 8103. 249. o -2
9 18 7 5727. 8103. 249. o 1
-4 19 -2 1108. 1139. 45. o -3
-3 19 5 1108. 1139. 45. o -2
1 19 7 1108. 1139. 45. o 1
3 19 5 1129. 1016. 35. o -3
4 19 -2 1129. 1016. 35. o -2
1 19 -7 1129. 1016. 35. o 1
2 19 7 142. 150. 84. < 1
2 19 -7 142. 146. 43. o 1
-5 19 1 907. 816. 62. o -3
-2 19 8 907. 816. 62. o -2
3 19 7 907. 816. 62. o 1
2 19 8 895. 1106. 60. o -3
5 19 1 895. 1106. 60. o -2
3 19 -7 895. 1106. 60. o 1
4 19 7 218. 358. 124. < 1
4 19 -7 218. 235. 54. o 1
-6 19 4 2336. 2182. 78. o -3
-1 19 11 2336. 2182. 78. o -2
5 19 7 2336. 2182. 78. o 1
1 19 11 2235. 2309. 60. o -3
6 19 4 2235. 2309. 60. o -2
5 19 -7 2235. 2309. 60. o 1
6 19 7 284. 338. 128. < 1
6 19 -7 284. 369. 68. o 1
-7 19 7 3104. 3442. 142. o -3
0 19 14 3104. 3442. 142. o -2
7 19 7 3104. 3442. 142. o 1
0 19 14 3030. 2969. 165. o -3
7 19 7 3030. 2969. 165. o -2
7 19 -7 3030. 2969. 165. o 1
8 19 7 2766. 2266. 111. o 1
8 19 -7 2766. 2647. 122. o 1
-4 20 -2 3556. 4114. 78. o -3
-3 20 5 3556. 4114. 78. o -2
1 20 7 3556. 4114. 78. o 1
3 20 5 3764. 3694. 47. o -3
4 20 -2 3764. 3694. 47. o -2
1 20 -7 3764. 3694. 47. o 1
2 20 7 582. 680. 74. o 1
2 20 -7 582. 717. 47. o 1
-5 20 1 8442. 9413. 154. o -3
-2 20 8 8442. 9413. 154. o -2
3 20 7 8442. 9413. 154. o 1
2 20 8 8161. 8168. 97. o -3
5 20 1 8161. 8168. 97. o -2
3 20 -7 8161. 8168. 97. o 1
4 20 7 30. 29. 117. < 1
4 20 -7 30. 128. 54. < 1
1 20 11 4721. 4699. 66. o -3
6 20 4 4721. 4699. 66. o -2
5 20 -7 4721. 4699. 66. o 1
6 20 7 987. 1082. 80. o 1
6 20 -7 987. 1137. 68. o 1
-7 20 7 2258. 2705. 134. o -3
0 20 14 2258. 2705. 134. o -2
7 20 7 2258. 2705. 134. o 1
0 20 14 2154. 2596. 95. o -3
7 20 7 2154. 2596. 95. o -2
7 20 -7 2154. 2596. 95. o 1
8 20 7 225. 381. 76. o 1
8 20 -7 225. 229. 86. < 1
-8 20 10 1056. 1852. 122. o -3
1 20 17 1056. 1852. 122. o -2
9 20 7 1056. 1852. 122. o 1
-4 21 -2 4331. 4718. 87. o -3
-3 21 5 4331. 4718. 87. o -2
1 21 7 4331. 4718. 87. o 1
3 21 5 4556. 4458. 56. o -3
4 21 -2 4556. 4458. 56. o -2
1 21 -7 4556. 4458. 56. o 1
2 21 7 1510. 1248. 58. o 1
2 21 -7 1510. 1601. 39. o 1
-5 21 1 2572. 2989. 84. o -3
-2 21 8 2572. 2989. 84. o -2
3 21 7 2572. 2989. 84. o 1
2 21 8 2604. 2942. 58. o -3
5 21 1 2604. 2942. 58. o -2
3 21 -7 2604. 2942. 58. o 1
4 21 7 87. 159. 78. < 1
4 21 -7 87. 161. 54. < 1
-6 21 4 3132. 2233. 87. o -3
-1 21 11 3132. 2233. 87. o -2
5 21 7 3132. 2233. 87. o 1
1 21 11 2964. 2925. 54. o -3
6 21 4 2964. 2925. 54. o -2
5 21 -7 2964. 2925. 54. o 1
6 21 7 1306. 1792. 124. o 1
6 21 -7 1306. 1518. 78. o 1
-7 21 7 1068. 1224. 93. o -3
0 21 14 1068. 1224. 93. o -2
7 21 7 1068. 1224. 93. o 1
0 21 14 1217. 1051. 97. o -3
7 21 7 1217. 1051. 97. o -2
7 21 -7 1217. 1051. 97. o 1
8 21 7 1105. 1088. 87. o 1
8 21 -7 1105. 1265. 95. o 1
-8 21 10 2400. 3729. 187. o -3
1 21 17 2400. 3729. 187. o -2
9 21 7 2400. 3729. 187. o 1
10 21 7 1313. 865. 97. o 1
-4 22 -2 2039. 2602. 66. o -3
-3 22 5 2039. 2602. 66. o -2
1 22 7 2039. 2602. 66. o 1
3 22 5 2177. 2293. 49. o -3
4 22 -2 2177. 2293. 49. o -2
1 22 -7 2177. 2293. 49. o 1
2 22 7 2801. 2868. 82. o 1
2 22 -7 2801. 3197. 70. o 1
-5 22 1 1487. 1609. 70. o -3
-2 22 8 1487. 1609. 70. o -2
3 22 7 1487. 1609. 70. o 1
2 22 8 1499. 1539. 58. o -3
5 22 1 1499. 1539. 58. o -2
3 22 -7 1499. 1539. 58. o 1
4 22 7 591. 676. 87. o 1
4 22 -7 591. 678. 58. o 1
-6 22 4 790. 1014. 68. o -3
-1 22 11 790. 1014. 68. o -2
5 22 7 790. 1014. 68. o 1
1 22 11 851. 985. 60. o -3
6 22 4 851. 985. 60. o -2
5 22 -7 851. 985. 60. o 1
6 22 7 2641. 3453. 140. o 1
6 22 -7 2641. 3171. 82. o 1
-7 22 7 3739. 4028. 150. o -3
0 22 14 3739. 4028. 150. o -2
7 22 7 3739. 4028. 150. o 1
0 22 14 3538. 4094. 132. o -3
7 22 7 3538. 4094. 132. o -2
7 22 -7 3538. 4094. 132. o 1
8 22 7 2302. 1341. 171. o 1
8 22 -7 2302. 3302. 134. o 1
-8 22 10 5456. 5249. 175. o -3
1 22 17 5456. 5249. 175. o -2
9 22 7 5456. 5249. 175. o 1
-1 22 17 5563. 5101. 120. o -3
8 22 10 5563. 5101. 120. o -2
9 22 -7 5563. 5101. 120. o 1
10 22 7 1820. 921. 117. o 1
-4 23 -2 7270. 6735. 103. o -3
-3 23 5 7270. 6735. 103. o -2
1 23 7 7270. 6735. 103. o 1
3 23 5 6832. 7433. 84. o -3
4 23 -2 6832. 7433. 84. o -2
1 23 -7 6832. 7433. 84. o 1
2 23 7 1017. 1001. 80. o 1
2 23 -7 1017. 1199. 58. o 1
-5 23 1 7742. 8230. 140. o -3
-2 23 8 7742. 8230. 140. o -2
3 23 7 7742. 8230. 140. o 1
2 23 8 7567. 7363. 91. o -3
5 23 1 7567. 7363. 91. o -2
3 23 -7 7567. 7363. 91. o 1
4 23 7 69. 76. 80. < 1
4 23 -7 69. 29. 56. < 1
-6 23 4 9829. 10688. 237. o -3
-1 23 11 9829. 10688. 237. o -2
5 23 7 9829. 10688. 237. o 1
1 23 11 9715. 10554. 107. o -3
6 23 4 9715. 10554. 107. o -2
5 23 -7 9715. 10554. 107. o 1
6 23 7 1283. 1805. 124. o 1
6 23 -7 1283. 1469. 58. o 1
-7 23 7 2331. 2278. 113. o -3
0 23 14 2331. 2278. 113. o -2
7 23 7 2331. 2278. 113. o 1
0 23 14 2325. 2382. 84. o -3
7 23 7 2325. 2382. 84. o -2
7 23 -7 2325. 2382. 84. o 1
8 23 7 383. 408. 140. < 1
8 23 -7 383. 342. 86. o 1
-8 23 10 7062. 5249. 152. o -3
1 23 17 7062. 5249. 152. o -2
9 23 7 7062. 5249. 152. o 1
-1 23 17 6567. 4946. 154. o -3
8 23 10 6567. 4946. 154. o -2
9 23 -7 6567. 4946. 154. o 1
10 23 7 90. 95. 105. < 1
-4 24 -2 6143. 5851. 117. o -3
-3 24 5 6143. 5851. 117. o -2
1 24 7 6143. 5851. 117. o 1
3 24 5 6412. 6189. 80. o -3
4 24 -2 6412. 6189. 80. o -2
1 24 -7 6412. 6189. 80. o 1
2 24 7 763. 878. 86. o 1
2 24 -7 763. 729. 66. o 1
-5 24 1 10060. 10925. 163. o -3
-2 24 8 10060. 10925. 163. o -2
3 24 7 10060. 10925. 163. o 1
2 24 8 9666. 10029. 109. o -3
5 24 1 9666. 10029. 109. o -2
3 24 -7 9666. 10029. 109. o 1
4 24 7 367. 466. 84. o 1
4 24 -7 367. 385. 64. o 1
1 24 11 5864. 6708. 86. o -3
6 24 4 5864. 6708. 86. o -2
5 24 -7 5864. 6708. 86. o 1
6 24 7 3424. 3764. 210. o 1
6 24 -7 3424. 3807. 84. o 1
-7 24 7 4986. 4400. 222. o -3
0 24 14 4986. 4400. 222. o -2
7 24 7 4986. 4400. 222. o 1
0 24 14 4720. 5731. 165. o -3
7 24 7 4720. 5731. 165. o -2
7 24 -7 4720. 5731. 165. o 1
8 24 7 2121. 2124. 132. o 1
8 24 -7 2121. 2140. 56. o 1
-8 24 10 1973. 2221. 140. o -3
1 24 17 1973. 2221. 140. o -2
9 24 7 1973. 2221. 140. o 1
-1 24 17 2125. 1821. 130. o -3
8 24 10 2125. 1821. 130. o -2
9 24 -7 2125. 1821. 130. o 1
10 24 7 948. 873. 111. o 1
-9 24 13 2179. 1154. 103. o -3
2 24 20 2179. 1154. 103. o -2
11 24 7 2179. 1154. 103. o 1
-4 25 -2 15440. 17359. 202. o -3
-3 25 5 15440. 17359. 202. o -2
1 25 7 15440. 17359. 202. o 1
3 25 5 16248. 15385. 144. o -3
4 25 -2 16248. 15385. 144. o -2
1 25 -7 16248. 15385. 144. o 1
2 25 7 1369. 1498. 78. o 1
2 25 -7 1369. 1696. 64. o 1
-5 25 1 5081. 5443. 120. o -3
-2 25 8 5081. 5443. 120. o -2
3 25 7 5081. 5443. 120. o 1
2 25 8 4558. 5014. 80. o -3
5 25 1 4558. 5014. 80. o -2
3 25 -7 4558. 5014. 80. o 1
4 25 7 204. 27. 87. < 1
4 25 -7 204. 218. 64. o 1
-6 25 4 6660. 9516. 291. o -3
-1 25 11 6660. 9516. 291. o -2
5 25 7 6660. 9516. 291. o 1
1 25 11 7558. 7470. 86. o -3
6 25 4 7558. 7470. 86. o -2
5 25 -7 7558. 7470. 86. o 1
6 25 7 2638. 1906. 270. o 1
6 25 -7 2638. 3129. 99. o 1
0 25 14 16293. 14901. 190. o -3
7 25 7 16293. 14901. 190. o -2
7 25 -7 16293. 14901. 190. o 1
8 25 7 1551. 1368. 109. o 1
8 25 -7 1551. 1397. 56. o 1
-8 25 10 7433. 7967. 210. o -3
1 25 17 7433. 7967. 210. o -2
9 25 7 7433. 7967. 210. o 1
-1 25 17 7850. 6922. 200. o -3
8 25 10 7850. 6922. 200. o -2
9 25 -7 7850. 6922. 200. o 1
10 25 7 174. 196. 113. < 1
-4 26 -2 5485. 5667. 124. o -3
-3 26 5 5485. 5667. 124. o -2
1 26 7 5485. 5667. 124. o 1
3 26 5 5569. 5898. 97. o -3
4 26 -2 5569. 5898. 97. o -2
1 26 -7 5569. 5898. 97. o 1
2 26 7 1387. 1658. 89. o 1
2 26 -7 1387. 1595. 72. o 1
-5 26 1 2644. 2738. 91. o -3
-2 26 8 2644. 2738. 91. o -2
3 26 7 2644. 2738. 91. o 1
2 26 8 2520. 2524. 72. o -3
5 26 1 2520. 2524. 72. o -2
3 26 -7 2520. 2524. 72. o 1
4 26 7 425. 323. 74. o 1
4 26 -7 425. 260. 64. o 1
-6 26 4 18215. 23733. 435. o -3
-1 26 11 18215. 23733. 435. o -2
5 26 7 18215. 23733. 435. o 1
1 26 11 18916. 19380. 196. o -3
6 26 4 18916. 19380. 196. o -2
5 26 -7 18916. 19380. 196. o 1
6 26 -7 5240. 5540. 87. o 1
-7 26 7 4345. 3611. 146. o -3
0 26 14 4345. 3611. 146. o -2
7 26 7 4345. 3611. 146. o 1
0 26 14 4131. 4475. 91. o -3
7 26 7 4131. 4475. 91. o -2
7 26 -7 4131. 4475. 91. o 1
8 26 7 254. 290. 105. < 1
8 26 -7 254. 225. 54. o 1
-8 26 10 1457. 1477. 130. o -3
1 26 17 1457. 1477. 130. o -2
9 26 7 1457. 1477. 130. o 1
-1 26 17 1522. 1051. 124. o -3
8 26 10 1522. 1051. 124. o -2
9 26 -7 1522. 1051. 124. o 1
10 26 7 106. 6. 91. < 1
-4 27 -2 6756. 7901. 154. o -3
-3 27 5 6756. 7901. 154. o -2
1 27 7 6756. 7901. 154. o 1
3 27 5 6680. 8004. 117. o -3
4 27 -2 6680. 8004. 117. o -2
1 27 -7 6680. 8004. 117. o 1
2 27 7 936. 1222. 58. o 1
2 27 -7 936. 900. 68. o 1
-5 27 1 5961. 5799. 150. o -3
-2 27 8 5961. 5799. 150. o -2
3 27 7 5961. 5799. 150. o 1
2 27 8 5820. 5383. 101. o -3
5 27 1 5820. 5383. 101. o -2
3 27 -7 5820. 5383. 101. o 1
4 27 7 142. 148. 84. < 1
4 27 -7 142. 190. 62. o 1
-6 27 4 12984. 12384. 183. o -3
-1 27 11 12984. 12384. 183. o -2
5 27 7 12984. 12384. 183. o 1
1 27 11 12743. 13844. 128. o -3
6 27 4 12743. 13844. 128. o -2
5 27 -7 12743. 13844. 128. o 1
6 27 -7 3090. 3080. 58. o 1
-7 27 7 1008. 1222. 134. o -3
0 27 14 1008. 1222. 134. o -2
7 27 7 1008. 1222. 134. o 1
0 27 14 1071. 1216. 56. o -3
7 27 7 1071. 1216. 56. o -2
7 27 -7 1071. 1216. 56. o 1
8 27 7 942. 1316. 115. o 1
8 27 -7 942. 1121. 91. o 1
10 27 7 1310. 379. 111. o 1
-4 28 -2 3292. 3904. 130. o -3
-3 28 5 3292. 3904. 130. o -2
1 28 7 3292. 3904. 130. o 1
3 28 5 3423. 3199. 120. o -3
4 28 -2 3423. 3199. 120. o -2
1 28 -7 3423. 3199. 120. o 1
2 28 7 1251. 1514. 109. o 1
2 28 -7 1251. 1356. 107. o 1
-5 28 1 1318. 1522. 119. o -3
-2 28 8 1318. 1522. 119. o -2
3 28 7 1318. 1522. 119. o 1
2 28 8 1316. 935. 51. o -3
5 28 1 1316. 935. 51. o -2
3 28 -7 1316. 935. 51. o 1
4 28 7 82. 45. 86. < 1
4 28 -7 82. 72. 58. < 1
-6 28 4 2541. 1679. 87. o -3
-1 28 11 2541. 1679. 87. o -2
5 28 7 2541. 1679. 87. o 1
1 28 11 2778. 2575. 54. o -3
6 28 4 2778. 2575. 54. o -2
5 28 -7 2778. 2575. 54. o 1
6 28 -7 1274. 1386. 56. o 1
-7 28 7 3956. 3374. 157. o -3
0 28 14 3956. 3374. 157. o -2
7 28 7 3956. 3374. 157. o 1
0 28 14 3799. 3442. 74. o -3
7 28 7 3799. 3442. 74. o -2
7 28 -7 3799. 3442. 74. o 1
8 28 7 51. -107. 97. < 1
8 28 -7 51. 196. 107. < 1
-4 29 -2 8532. 7563. 173. o -3
-3 29 5 8532. 7563. 173. o -2
1 29 7 8532. 7563. 173. o 1
3 29 5 8973. 8970. 140. o -3
4 29 -2 8973. 8970. 140. o -2
1 29 -7 8973. 8970. 140. o 1
2 29 7 873. 703. 72. o 1
2 29 -7 873. 962. 80. o 1
-5 29 1 5028. 4707. 115. o -3
-2 29 8 5028. 4707. 115. o -2
3 29 7 5028. 4707. 115. o 1
2 29 8 4876. 4236. 74. o -3
5 29 1 4876. 4236. 74. o -2
3 29 -7 4876. 4236. 74. o 1
4 29 7 487. 383. 70. o 1
4 29 -7 487. 474. 66. o 1
-6 29 4 2962. 2643. 140. o -3
-1 29 11 2962. 2643. 140. o -2
5 29 7 2962. 2643. 140. o 1
1 29 11 2811. 2759. 84. o -3
6 29 4 2811. 2759. 84. o -2
5 29 -7 2811. 2759. 84. o 1
6 29 -7 394. 484. 41. o 1
-7 29 7 2713. 1422. 126. o -3
0 29 14 2713. 1422. 126. o -2
7 29 7 2713. 1422. 126. o 1
8 29 7 281. 95. 91. < 1
8 29 -7 281. 95. 97. < 1
-4 30 -2 4095. 4744. 115. o -3
-3 30 5 4095. 4744. 115. o -2
1 30 7 4095. 4744. 115. o 1
3 30 5 4495. 3935. 91. o -3
4 30 -2 4495. 3935. 91. o -2
1 30 -7 4495. 3935. 91. o 1
2 30 7 831. 904. 97. o 1
2 30 -7 831. 890. 89. o 1
-5 30 1 3486. 4032. 140. o -3
-2 30 8 3486. 4032. 140. o -2
3 30 7 3486. 4032. 140. o 1
2 30 8 3441. 2936. 87. o -3
5 30 1 3441. 2936. 87. o -2
3 30 -7 3441. 2936. 87. o 1
4 30 7 643. 558. 84. o 1
4 30 -7 643. 634. 70. o 1
-6 30 4 2347. 2107. 95. o -3
-1 30 11 2347. 2107. 95. o -2
5 30 7 2347. 2107. 95. o 1
1 30 11 2380. 2771. 84. o -3
6 30 4 2380. 2771. 84. o -2
5 30 -7 2380. 2771. 84. o 1
6 30 7 667. 871. 142. o 1
6 30 -7 667. 406. 47. o 1
0 30 14 1535. 764. 70. o -3
7 30 7 1535. 764. 70. o -2
7 30 -7 1535. 764. 70. o 1
-4 31 -2 4925. 5363. 120. o -3
-3 31 5 4925. 5363. 120. o -2
1 31 7 4925. 5363. 120. o 1
3 31 5 4891. 4839. 101. o -3
4 31 -2 4891. 4839. 101. o -2
1 31 -7 4891. 4839. 101. o 1
2 31 7 394. 223. 76. < 1
2 31 -7 394. 400. 86. o 1
-5 31 1 2320. 2493. 103. o -3
-2 31 8 2320. 2493. 103. o -2
3 31 7 2320. 2493. 103. o 1
2 31 8 2639. 2482. 72. o -3
5 31 1 2639. 2482. 72. o -2
3 31 -7 2639. 2482. 72. o 1
4 31 7 510. 435. 82. o 1
4 31 -7 510. 494. 68. o 1
-6 31 4 1175. 476. 82. o -3
-1 31 11 1175. 476. 82. o -2
5 31 7 1175. 476. 82. o 1
1 31 11 1293. 515. 78. o -3
6 31 4 1293. 515. 78. o -2
5 31 -7 1293. 515. 78. o 1
6 31 7 503. 190. 66. < 1
6 31 -7 503. 87. 54. < 1
-4 32 -2 476. 206. 76. < -3
-3 32 5 476. 206. 76. < -2
1 32 7 476. 206. 76. < 1
3 32 5 501. 496. 89. o -3
4 32 -2 501. 496. 89. o -2
1 32 -7 501. 496. 89. o 1
2 32 7 709. 214. 64. o 1
2 32 -7 709. 325. 86. o 1
4 32 7 85. 173. 66. < 1
4 32 -7 85. -49. 47. < 1
-4 33 -2 1061. 865. 82. o -3
-3 33 5 1061. 865. 82. o -2
1 33 7 1061. 865. 82. o 1
3 33 5 1053. 291. 84. o -3
4 33 -2 1053. 291. 84. o -2
1 33 -7 1053. 291. 84. o 1
2 33 7 575. 334. 54. o 1
2 33 -7 575. 340. 78. o 1
4 33 7 205. 117. 41. < 1
4 33 -7 205. 132. 78. < 1
4 0 4 112595. 118843. 222. o -3
4 0 -4 112595. 118843. 222. o -2
0 0 -8 112595. 118843. 222. o 1
2 0 -8 295. 319. 23. o 1
2 0 10 5310. 5754. 76. o -3
6 0 2 5310. 5754. 76. o -2
4 0 -8 5310. 5754. 76. o 1
4 1 4 24. 54. 19. < -3
4 1 -4 24. 54. 19. < -2
0 1 -8 24. 54. 19. < 1
1 1 -8 238. 218. 16. o 1
3 1 7 27637. 25002. 74. o -3
5 1 -1 27637. 25002. 74. o -2
2 1 -8 27637. 25002. 74. o 1
3 1 -8 312. 309. 29. o 1
2 1 10 143. 183. 37. o -3
6 1 2 143. 183. 37. o -2
4 1 -8 143. 183. 37. o 1
5 1 -8 196. 245. 27. o 1
4 2 4 41137. 43149. 107. o -3
4 2 -4 41137. 43149. 107. o -2
0 2 -8 41137. 43149. 107. o 1
1 2 -8 1053. 874. 14. o 1
3 2 7 2122. 2046. 19. o -3
5 2 -1 2122. 2046. 19. o -2
2 2 -8 2122. 2046. 19. o 1
3 2 -8 1451. 1393. 27. o 1
5 2 -8 1384. 1559. 51. o 1
1 2 13 127. 157. 43. o -3
7 2 5 127. 157. 43. o -2
6 2 -8 127. 157. 43. o 1
4 3 4 93. 173. 27. o -3
4 3 -4 93. 173. 27. o -2
0 3 -8 93. 173. 27. o 1
1 3 -8 208. 159. 16. o 1
3 3 7 4258. 3923. 35. o -3
5 3 -1 4258. 3923. 35. o -2
2 3 -8 4258. 3923. 35. o 1
3 3 -8 3309. 3383. 39. o 1
2 3 10 158. 245. 33. o -3
6 3 2 158. 245. 33. o -2
4 3 -8 158. 245. 33. o 1
5 3 -8 205. 231. 64. o 1
1 3 13 5313. 6421. 165. o -3
7 3 5 5313. 6421. 165. o -2
6 3 -8 5313. 6421. 165. o 1
7 3 -8 1631. 1557. 82. o 1
4 4 4 241209. 241921. 379. o -3
4 4 -4 241209. 241921. 379. o -2
0 4 -8 241209. 241921. 379. o 1
1 4 -8 5277. 4847. 39. o 1
3 4 7 6227. 6343. 45. o -3
5 4 -1 6227. 6343. 45. o -2
2 4 -8 6227. 6343. 45. o 1
3 4 -8 1176. 1174. 23. o 1
2 4 10 37665. 40177. 183. o -3
6 4 2 37665. 40177. 183. o -2
4 4 -8 37665. 40177. 183. o 1
5 4 -8 2515. 2509. 60. o 1
1 4 13 1302. 1358. 68. o -3
7 4 5 1302. 1358. 68. o -2
6 4 -8 1302. 1358. 68. o 1
7 4 -8 471. 480. 54. o 1
4 5 4 56. 62. 25. < -3
4 5 -4 56. 62. 25. < -2
0 5 -8 56. 62. 25. < 1
1 5 -8 412. 309. 19. o 1
3 5 7 1313. 1269. 27. o -3
5 5 -1 1313. 1269. 27. o -2
2 5 -8 1313. 1269. 27. o 1
3 5 -8 913. 851. 19. o 1
2 5 10 77. 187. 45. o -3
6 5 2 77. 187. 45. o -2
4 5 -8 77. 187. 45. o 1
5 5 -8 319. 360. 45. o 1
1 5 13 2349. 2507. 62. o -3
7 5 5 2349. 2507. 62. o -2
6 5 -8 2349. 2507. 62. o 1
7 5 -8 28. 64. 43. < 1
-8 5 8 151. 19. 111. < -3
0 5 16 151. 19. 111. < -2
8 5 8 151. 19. 111. < 1
4 6 4 856984. 845345. 713. o -3
4 6 -4 856984. 845345. 713. o -2
0 6 -8 856984. 845345. 713. o 1
1 6 -8 1566. 1424. 19. o 1
3 6 7 1277. 1026. 19. o -3
5 6 -1 1277. 1026. 19. o -2
2 6 -8 1277. 1026. 19. o 1
3 6 -8 1523. 1430. 23. o 1
5 6 -8 4214. 4275. 78. o 1
1 6 13 778. 517. 37. o -3
7 6 5 778. 517. 37. o -2
6 6 -8 778. 517. 37. o 1
7 6 -8 287. 204. 49. o 1
-8 6 8 324885. 340735. 1102. o -3
0 6 16 324885. 340735. 1102. o -2
8 6 8 324885. 340735. 1102. o 1
4 7 4 241. 231. 35. o -3
4 7 -4 241. 231. 35. o -2
0 7 -8 241. 231. 35. o 1
1 7 -8 547. 443. 16. o 1
3 7 7 9161. 9318. 62. o -3
5 7 -1 9161. 9318. 62. o -2
2 7 -8 9161. 9318. 62. o 1
3 7 -8 1320. 1281. 23. o 1
2 7 10 197. 321. 35. o -3
6 7 2 197. 321. 35. o -2
4 7 -8 197. 321. 35. o 1
5 7 -8 275. 237. 37. o 1
1 7 13 3930. 4242. 87. o -3
7 7 5 3930. 4242. 87. o -2
6 7 -8 3930. 4242. 87. o 1
7 7 8 228. 301. 122. < 1
7 7 -8 228. 109. 113. < 1
-8 7 8 52. 8. 132. < -3
0 7 16 52. 8. 132. < -2
8 7 8 52. 8. 132. < 1
9 7 8 98. 352. 103. o 1
4 8 4 98296. 102992. 293. o -3
4 8 -4 98296. 102992. 293. o -2
0 8 -8 98296. 102992. 293. o 1
1 8 8 9663. 9405. 159. o 1
1 8 -8 9663. 9370. 72. o 1
3 8 7 3520. 3776. 43. o -3
5 8 -1 3520. 3776. 43. o -2
2 8 -8 3520. 3776. 43. o 1
3 8 -8 340. 387. 29. o 1
2 8 10 113623. 115583. 344. o -3
6 8 2 113623. 115583. 344. o -2
4 8 -8 113623. 115583. 344. o 1
5 8 -8 641. 585. 35. o 1
1 8 13 4396. 3789. 54. o -3
7 8 5 4396. 3789. 54. o -2
6 8 -8 4396. 3789. 54. o 1
7 8 8 1968. 1953. 97. o 1
7 8 -8 1968. 1980. 87. o 1
-8 8 8 124058. 121012. 740. o -3
0 8 16 124058. 121012. 740. o -2
8 8 8 124058. 121012. 740. o 1
-4 9 -4 35. 37. 29. < -3
-4 9 4 35. 37. 29. < -2
0 9 8 35. 37. 29. < 1
4 9 4 35. 52. 29. < -3
4 9 -4 35. 52. 29. < -2
0 9 -8 35. 52. 29. < 1
1 9 8 458. 363. 39. o 1
1 9 -8 458. 402. 29. o 1
3 9 7 1942. 1700. 29. o -3
5 9 -1 1942. 1700. 29. o -2
2 9 -8 1942. 1700. 29. o 1
3 9 -8 462. 358. 27. o 1
2 9 10 73. 130. 33. o -3
6 9 2 73. 130. 33. o -2
4 9 -8 73. 130. 33. o 1
5 9 -8 1585. 1763. 47. o 1
-7 9 5 5486. 5309. 130. o -3
-1 9 13 5486. 5309. 130. o -2
6 9 8 5486. 5309. 130. o 1
1 9 13 5193. 5062. 60. o -3
7 9 5 5193. 5062. 60. o -2
6 9 -8 5193. 5062. 60. o 1
7 9 8 3506. 3181. 111. o 1
7 9 -8 3506. 3995. 124. o 1
-8 9 8 600. 542. 146. o -3
0 9 16 600. 542. 146. o -2
8 9 8 600. 542. 146. o 1
-4 10 -4 157161. 162089. 670. o -3
-4 10 4 157161. 162089. 670. o -2
0 10 8 157161. 162089. 670. o 1
4 10 4 157161. 162365. 358. o -3
4 10 -4 157161. 162365. 358. o -2
0 10 -8 157161. 162365. 358. o 1
1 10 8 5581. 5490. 140. o 1
1 10 -8 5581. 5373. 60. o 1
3 10 7 1869. 1838. 31. o -3
5 10 -1 1869. 1838. 31. o -2
2 10 -8 1869. 1838. 31. o 1
3 10 -8 3555. 3204. 43. o 1
2 10 10 18650. 23207. 179. o -3
6 10 2 18650. 23207. 179. o -2
4 10 -8 18650. 23207. 179. o 1
5 10 -8 7746. 7894. 126. o 1
-7 10 5 810. 499. 66. o -3
-1 10 13 810. 499. 66. o -2
6 10 8 810. 499. 66. o 1
1 10 13 727. 614. 58. o -3
7 10 5 727. 614. 58. o -2
6 10 -8 727. 614. 58. o 1
7 10 8 603. 564. 60. o 1
7 10 -8 603. 614. 35. o 1
-8 10 8 57360. 58765. 614. o -3
0 10 16 57360. 58765. 614. o -2
8 10 8 57360. 58765. 614. o 1
-4 11 -4 70. 274. 91. o -3
-4 11 4 70. 274. 91. o -2
0 11 8 70. 274. 91. o 1
4 11 4 70. 82. 17. o -3
4 11 -4 70. 82. 17. o -2
0 11 -8 70. 82. 17. o 1
1 11 8 2776. 2493. 51. o 1
1 11 -8 2776. 2643. 41. o 1
-5 11 -1 2664. 2476. 66. o -3
-3 11 7 2664. 2476. 66. o -2
2 11 8 2664. 2476. 66. o 1
3 11 7 2721. 2454. 37. o -3
5 11 -1 2721. 2454. 37. o -2
2 11 -8 2721. 2454. 37. o 1
3 11 -8 517. 509. 21. o 1
2 11 10 136. 163. 37. o -3
6 11 2 136. 163. 37. o -2
4 11 -8 136. 163. 37. o 1
5 11 8 1039. 946. 47. o 1
5 11 -8 1039. 1228. 54. o 1
-7 11 5 8046. 8673. 140. o -3
-1 11 13 8046. 8673. 140. o -2
6 11 8 8046. 8673. 140. o 1
1 11 13 8038. 8828. 113. o -3
7 11 5 8038. 8828. 113. o -2
6 11 -8 8038. 8828. 113. o 1
7 11 8 1586. 1524. 64. o 1
7 11 -8 1586. 1696. 41. o 1
-4 12 -4 213243. 215067. 787. o -3
-4 12 4 213243. 215067. 787. o -2
0 12 8 213243. 215067. 787. o 1
4 12 4 213243. 218656. 334. o -3
4 12 -4 213243. 218656. 334. o -2
0 12 -8 213243. 218656. 334. o 1
1 12 8 1798. 1665. 43. o 1
1 12 -8 1798. 1813. 35. o 1
-5 12 -1 1019. 993. 35. o -3
-3 12 7 1019. 993. 35. o -2
2 12 8 1019. 993. 35. o 1
3 12 7 974. 1038. 27. o -3
5 12 -1 974. 1038. 27. o -2
2 12 -8 974. 1038. 27. o 1
3 12 8 560. 591. 31. o 1
3 12 -8 560. 573. 37. o 1
-6 12 2 63574. 64789. 360. o -3
-2 12 10 63574. 64789. 360. o -2
4 12 8 63574. 64789. 360. o 1
2 12 10 64104. 66254. 231. o -3
6 12 2 64104. 66254. 231. o -2
4 12 -8 64104. 66254. 231. o 1
5 12 8 43. 58. 51. < 1
5 12 -8 43. 93. 64. < 1
-7 12 5 2810. 2279. 66. o -3
-1 12 13 2810. 2279. 66. o -2
6 12 8 2810. 2279. 66. o 1
1 12 13 2905. 2645. 76. o -3
7 12 5 2905. 2645. 76. o -2
6 12 -8 2905. 2645. 76. o 1
7 12 8 807. 931. 72. o 1
7 12 -8 807. 836. 47. o 1
-4 13 -4 344. 511. 58. o -3
-4 13 4 344. 511. 58. o -2
0 13 8 344. 511. 58. o 1
4 13 4 344. 375. 29. o -3
4 13 -4 344. 375. 29. o -2
0 13 -8 344. 375. 29. o 1
1 13 8 1787. 1636. 47. o 1
1 13 -8 1787. 1722. 35. o 1
-5 13 -1 11066. 10218. 113. o -3
-3 13 7 11066. 10218. 113. o -2
2 13 8 11066. 10218. 113. o 1
3 13 7 11062. 10476. 86. o -3
5 13 -1 11062. 10476. 86. o -2
2 13 -8 11062. 10476. 86. o 1
3 13 8 743. 779. 43. o 1
3 13 -8 743. 682. 31. o 1
-6 13 2 81. -54. 80. < -3
-2 13 10 81. -54. 80. < -2
4 13 8 81. -54. 80. < 1
2 13 10 88. 111. 43. < -3
6 13 2 88. 111. 43. < -2
4 13 -8 88. 111. 43. < 1
5 13 8 1476. 1502. 56. o 1
5 13 -8 1476. 1489. 64. o 1
-7 13 5 5259. 5297. 99. o -3
-1 13 13 5259. 5297. 99. o -2
6 13 8 5259. 5297. 99. o 1
1 13 13 5265. 5571. 103. o -3
7 13 5 5265. 5571. 103. o -2
6 13 -8 5265. 5571. 103. o 1
7 13 8 689. 999. 76. o 1
7 13 -8 689. 655. 60. o 1
-8 13 8 175. 183. 99. < -3
0 13 16 175. 183. 99. < -2
8 13 8 175. 183. 99. < 1
-4 14 -4 60311. 61274. 548. o -3
-4 14 4 60311. 61274. 548. o -2
0 14 8 60311. 61274. 548. o 1
4 14 4 60311. 62992. 214. o -3
4 14 -4 60311. 62992. 214. o -2
0 14 -8 60311. 62992. 214. o 1
1 14 8 2466. 2468. 58. o 1
1 14 -8 2466. 2526. 35. o 1
-5 14 -1 3391. 3344. 72. o -3
-3 14 7 3391. 3344. 72. o -2
2 14 8 3391. 3344. 72. o 1
3 14 7 3479. 3272. 45. o -3
5 14 -1 3479. 3272. 45. o -2
2 14 -8 3479. 3272. 45. o 1
3 14 8 1025. 1024. 51. o 1
3 14 -8 1025. 855. 29. o 1
-6 14 2 11944. 13055. 167. o -3
-2 14 10 11944. 13055. 167. o -2
4 14 8 11944. 13055. 167. o 1
2 14 10 12134. 12956. 113. o -3
6 14 2 12134. 12956. 113. o -2
4 14 -8 12134. 12956. 113. o 1
5 14 8 4095. 4135. 91. o 1
5 14 -8 4095. 3993. 72. o 1
-7 14 5 1346. 1393. 91. o -3
-1 14 13 1346. 1393. 91. o -2
6 14 8 1346. 1393. 91. o 1
1 14 13 1294. 1539. 68. o -3
7 14 5 1294. 1539. 68. o -2
6 14 -8 1294. 1539. 68. o 1
7 14 8 594. 527. 134. o 1
7 14 -8 594. 583. 62. o 1
-8 14 8 18020. 18607. 381. o -3
0 14 16 18020. 18607. 381. o -2
8 14 8 18020. 18607. 381. o 1
-4 15 -4 506. 330. 107. o -3
-4 15 4 506. 330. 107. o -2
0 15 8 506. 330. 107. o 1
4 15 4 506. 375. 60. o -3
4 15 -4 506. 375. 60. o -2
0 15 -8 506. 375. 60. o 1
1 15 8 6622. 6368. 93. o 1
1 15 -8 6621. 6609. 56. o 1
-5 15 -1 32799. 31926. 260. o -3
-3 15 7 32799. 31926. 260. o -2
2 15 8 32799. 31926. 260. o 1
3 15 7 33072. 33094. 134. o -3
5 15 -1 33072. 33094. 134. o -2
2 15 -8 33072. 33094. 134. o 1
3 15 8 952. 1077. 82. o 1
3 15 -8 952. 892. 31. o 1
-6 15 2 396. 457. 64. o -3
-2 15 10 396. 457. 64. o -2
4 15 8 396. 457. 64. o 1
2 15 10 398. 464. 56. o -3
6 15 2 398. 464. 56. o -2
4 15 -8 398. 464. 56. o 1
5 15 8 164. 187. 76. < 1
5 15 -8 164. 276. 66. o 1
-7 15 5 12462. 13805. 251. o -3
-1 15 13 12462. 13805. 251. o -2
6 15 8 12462. 13805. 251. o 1
1 15 13 12287. 14788. 177. o -3
7 15 5 12287. 14788. 177. o -2
6 15 -8 12287. 14788. 177. o 1
7 15 8 4319. 4644. 159. o 1
7 15 -8 4319. 4736. 86. o 1
-8 15 8 192. 214. 117. < -3
0 15 16 192. 214. 117. < -2
8 15 8 192. 214. 117. < 1
0 15 16 220. 175. 52. o -3
8 15 8 220. 175. 52. o -2
8 15 -8 220. 175. 52. o 1
-4 16 -4 106305. 102864. 657. o -3
-4 16 4 106305. 102864. 657. o -2
0 16 8 106305. 102864. 657. o 1
4 16 4 106305. 107990. 511. o -3
4 16 -4 106305. 107990. 511. o -2
0 16 -8 106305. 107990. 511. o 1
1 16 8 21779. 22744. 171. o 1
1 16 -8 21779. 23356. 97. o 1
-5 16 -1 12207. 13842. 136. o -3
-3 16 7 12207. 13842. 136. o -2
2 16 8 12207. 13842. 136. o 1
3 16 7 13190. 13817. 93. o -3
5 16 -1 13190. 13817. 93. o -2
2 16 -8 13190. 13817. 93. o 1
3 16 8 18254. 17977. 266. o 1
3 16 -8 18254. 18871. 128. o 1
-6 16 2 36499. 39857. 338. o -3
-2 16 10 36499. 39857. 338. o -2
4 16 8 36499. 39857. 338. o 1
2 16 10 37080. 39373. 206. o -3
6 16 2 37080. 39373. 206. o -2
4 16 -8 37080. 39373. 206. o 1
5 16 8 1905. 2120. 76. o 1
5 16 -8 1905. 2103. 43. o 1
-7 16 5 4524. 3968. 132. o -3
-1 16 13 4524. 3968. 132. o -2
6 16 8 4524. 3968. 132. o 1
1 16 13 4516. 3412. 87. o -3
7 16 5 4516. 3412. 87. o -2
6 16 -8 4516. 3412. 87. o 1
7 16 8 2669. 2693. 115. o 1
7 16 -8 2669. 2664. 89. o 1
-8 16 8 87454. 85106. 657. o -3
0 16 16 87454. 85106. 657. o -2
8 16 8 87454. 85106. 657. o 1
0 16 16 86205. 95821. 319. o -3
8 16 8 86205. 95821. 319. o -2
8 16 -8 86205. 95821. 319. o 1
-4 17 -4 360. 344. 60. o -3
-4 17 4 360. 344. 60. o -2
0 17 8 360. 344. 60. o 1
4 17 4 360. 696. 89. o -3
4 17 -4 360. 696. 89. o -2
0 17 -8 360. 696. 89. o 1
1 17 8 1173. 1261. 45. o 1
1 17 -8 1173. 1180. 27. o 1
-5 17 -1 2797. 2241. 58. o -3
-3 17 7 2797. 2241. 58. o -2
2 17 8 2797. 2241. 58. o 1
3 17 7 2344. 2314. 43. o -3
5 17 -1 2344. 2314. 43. o -2
2 17 -8 2344. 2314. 43. o 1
3 17 8 163. 190. 76. < 1
3 17 -8 163. 210. 51. o 1
-6 17 2 301. 340. 58. o -3
-2 17 10 301. 340. 58. o -2
4 17 8 301. 340. 58. o 1
2 17 10 315. 286. 54. o -3
6 17 2 315. 286. 54. o -2
4 17 -8 315. 286. 54. o 1
5 17 8 1251. 1182. 64. o 1
5 17 -8 1251. 1133. 45. o 1
-7 17 5 657. 595. 119. o -3
-1 17 13 657. 595. 119. o -2
6 17 8 657. 595. 119. o 1
1 17 13 691. 785. 89. o -3
7 17 5 691. 785. 89. o -2
6 17 -8 691. 785. 89. o 1
7 17 8 973. 1047. 134. o 1
7 17 -8 973. 913. 99. o 1
-8 17 8 340. 439. 74. o -3
0 17 16 340. 439. 74. o -2
8 17 8 340. 439. 74. o 1
0 17 16 340. 363. 62. o -3
8 17 8 340. 363. 62. o -2
8 17 -8 340. 363. 62. o 1
9 17 8 181. 124. 111. < 1
-4 18 -4 190148. 198580. 847. o -3
-4 18 4 190148. 198580. 847. o -2
0 18 8 190148. 198580. 847. o 1
4 18 4 190148. 204880. 577. o -3
4 18 -4 190148. 204880. 577. o -2
0 18 -8 190148. 204880. 577. o 1
1 18 8 2551. 2534. 64. o 1
1 18 -8 2551. 2515. 37. o 1
-5 18 -1 678. 717. 45. o -3
-3 18 7 678. 717. 45. o -2
2 18 8 678. 717. 45. o 1
3 18 7 732. 783. 51. o -3
5 18 -1 732. 783. 51. o -2
2 18 -8 732. 783. 51. o 1
3 18 8 1038. 1016. 70. o 1
3 18 -8 1038. 1119. 70. o 1
-6 18 2 41030. 45131. 538. o -3
-2 18 10 41030. 45131. 538. o -2
4 18 8 41030. 45131. 538. o 1
2 18 10 41577. 45790. 251. o -3
6 18 2 41577. 45790. 251. o -2
4 18 -8 41577. 45790. 251. o 1
5 18 8 240. 97. 70. < 1
5 18 -8 240. 99. 56. < 1
-7 18 5 533. 229. 120. < -3
-1 18 13 533. 229. 120. < -2
6 18 8 533. 229. 120. < 1
1 18 13 492. 461. 76. o -3
7 18 5 492. 461. 76. o -2
6 18 -8 492. 461. 76. o 1
7 18 8 380. 303. 120. < 1
7 18 -8 380. 494. 93. o 1
-8 18 8 111463. 131910. 740. o -3
0 18 16 111463. 131910. 740. o -2
8 18 8 111463. 131910. 740. o 1
0 18 16 114791. 137909. 373. o -3
8 18 8 114791. 137909. 373. o -2
8 18 -8 114791. 137909. 373. o 1
9 18 8 7079. 8438. 237. o 1
-4 19 -4 125. 93. 120. < -3
-4 19 4 125. 93. 120. < -2
0 19 8 125. 93. 120. < 1
4 19 4 125. 111. 89. < -3
4 19 -4 125. 111. 89. < -2
0 19 -8 125. 111. 89. < 1
1 19 8 122. 253. 62. o 1
1 19 -8 122. 109. 45. < 1
-5 19 -1 1296. 1265. 52. o -3
-3 19 7 1296. 1265. 52. o -2
2 19 8 1296. 1265. 52. o 1
3 19 7 1232. 1386. 47. o -3
5 19 -1 1232. 1386. 47. o -2
2 19 -8 1232. 1386. 47. o 1
3 19 8 1164. 1189. 64. o 1
3 19 -8 1164. 1080. 49. o 1
-6 19 2 52. 14. 132. < -3
-2 19 10 52. 14. 132. < -2
4 19 8 52. 14. 132. < 1
2 19 10 47. 87. 56. < -3
6 19 2 47. 87. 56. < -2
4 19 -8 47. 87. 56. < 1
5 19 8 640. 738. 64. o 1
5 19 -8 640. 711. 58. o 1
-7 19 5 4088. 3741. 142. o -3
-1 19 13 4088. 3741. 142. o -2
6 19 8 4088. 3741. 142. o 1
1 19 13 4075. 3949. 78. o -3
7 19 5 4075. 3949. 78. o -2
6 19 -8 4075. 3949. 78. o 1
7 19 8 1456. 2256. 124. o 1
7 19 -8 1456. 1813. 103. o 1
-8 19 8 213. 138. 124. < -3
0 19 16 213. 138. 124. < -2
8 19 8 213. 138. 124. < 1
0 19 16 256. 328. 62. o -3
8 19 8 256. 328. 62. o -2
8 19 -8 256. 328. 62. o 1
9 19 8 829. 843. 117. o 1
-4 20 -4 3798. 3463. 115. o -3
-4 20 4 3798. 3463. 115. o -2
0 20 8 3798. 3463. 115. o 1
4 20 4 3798. 3863. 87. o -3
4 20 -4 3798. 3863. 87. o -2
0 20 -8 3798. 3863. 87. o 1
1 20 8 390. 391. 62. o 1
1 20 -8 390. 377. 43. o 1
-5 20 -1 4391. 3144. 109. o -3
-3 20 7 4391. 3144. 109. o -2
2 20 8 4391. 3144. 109. o 1
3 20 7 4644. 5220. 62. o -3
5 20 -1 4644. 5220. 62. o -2
2 20 -8 4644. 5220. 62. o 1
3 20 8 541. 707. 70. o 1
3 20 -8 541. 665. 62. o 1
-6 20 2 7603. 8591. 204. o -3
-2 20 10 7603. 8591. 204. o -2
4 20 8 7603. 8591. 204. o 1
2 20 10 7629. 8251. 82. o -3
6 20 2 7629. 8251. 82. o -2
4 20 -8 7629. 8251. 82. o 1
5 20 8 5684. 6156. 115. o 1
5 20 -8 5684. 6112. 74. o 1
-7 20 5 6690. 6829. 167. o -3
-1 20 13 6690. 6829. 167. o -2
6 20 8 6690. 6829. 167. o 1
1 20 13 6739. 6368. 99. o -3
7 20 5 6739. 6368. 99. o -2
6 20 -8 6739. 6368. 99. o 1
7 20 8 79. -122. 126. < 1
7 20 -8 79. 2. 87. < 1
-8 20 8 17706. 19617. 443. o -3
0 20 16 17706. 19617. 443. o -2
8 20 8 17706. 19617. 443. o 1
0 20 16 16936. 18654. 150. o -3
8 20 8 16936. 18654. 150. o -2
8 20 -8 16936. 18654. 150. o 1
9 20 8 3609. 4950. 179. o 1
-9 20 11 2431. 1578. 136. o -3
1 20 19 2431. 1578. 136. o -2
10 20 8 2431. 1578. 136. o 1
-4 21 -4 137. 66. 86. < -3
-4 21 4 137. 66. 86. < -2
0 21 8 137. 66. 86. < 1
4 21 4 137. 101. 86. < -3
4 21 -4 137. 101. 86. < -2
0 21 -8 137. 101. 86. < 1
1 21 8 2880. 2876. 68. o 1
1 21 -8 2880. 2855. 54. o 1
-5 21 -1 1374. 1524. 84. o -3
-3 21 7 1374. 1524. 84. o -2
2 21 8 1374. 1524. 84. o 1
3 21 7 1563. 1559. 49. o -3
5 21 -1 1563. 1559. 49. o -2
2 21 -8 1563. 1559. 49. o 1
3 21 8 1669. 1986. 76. o 1
3 21 -8 1669. 1901. 52. o 1
-6 21 2 274. 138. 126. < -3
-2 21 10 274. 138. 126. < -2
4 21 8 274. 138. 126. < 1
2 21 10 253. 272. 54. o -3
6 21 2 253. 272. 54. o -2
4 21 -8 253. 272. 54. o 1
5 21 8 55. 105. 54. < 1
5 21 -8 55. 52. 56. < 1
-7 21 5 2722. 2670. 130. o -3
-1 21 13 2722. 2670. 130. o -2
6 21 8 2722. 2670. 130. o 1
1 21 13 2755. 3238. 74. o -3
7 21 5 2755. 3238. 74. o -2
6 21 -8 2755. 3238. 74. o 1
7 21 8 2292. 2614. 134. o 1
7 21 -8 2292. 2575. 86. o 1
-8 21 8 216. 80. 70. < -3
0 21 16 216. 80. 70. < -2
8 21 8 216. 80. 70. < 1
0 21 16 231. 229. 64. o -3
8 21 8 231. 229. 64. o -2
8 21 -8 231. 229. 64. o 1
9 21 8 1419. 1627. 119. o 1
9 21 -8 1419. 964. 140. o 1
-9 21 11 2659. 3274. 146. o -3
1 21 19 2659. 3274. 146. o -2
10 21 8 2659. 3274. 146. o 1
-4 22 -4 29999. 30941. 486. o -3
-4 22 4 29999. 30941. 486. o -2
0 22 8 29999. 30941. 486. o 1
4 22 4 29999. 31370. 352. o -3
4 22 -4 29999. 31370. 352. o -2
0 22 -8 29999. 31370. 352. o 1
1 22 8 3591. 3813. 78. o 1
1 22 -8 3591. 3632. 68. o 1
-5 22 -1 1195. 1259. 64. o -3
-3 22 7 1195. 1259. 64. o -2
2 22 8 1195. 1259. 64. o 1
3 22 7 1246. 1230. 49. o -3
5 22 -1 1246. 1230. 49. o -2
2 22 -8 1246. 1230. 49. o 1
3 22 8 308. 441. 87. o 1
3 22 -8 308. 387. 66. o 1
-6 22 2 6486. 7668. 185. o -3
-2 22 10 6486. 7668. 185. o -2
4 22 8 6486. 7668. 185. o 1
2 22 10 6793. 6778. 82. o -3
6 22 2 6793. 6778. 82. o -2
4 22 -8 6793. 6778. 82. o 1
5 22 8 5108. 5276. 155. o 1
5 22 -8 5108. 4961. 74. o 1
-7 22 5 637. 820. 103. o -3
-1 22 13 637. 820. 103. o -2
6 22 8 637. 820. 103. o 1
1 22 13 605. 494. 80. o -3
7 22 5 605. 494. 80. o -2
6 22 -8 605. 494. 80. o 1
7 22 8 347. 243. 68. o 1
7 22 -8 347. 525. 66. o 1
0 22 16 6602. 7894. 105. o -3
8 22 8 6602. 7894. 105. o -2
8 22 -8 6602. 7894. 105. o 1
9 22 8 19180. 22594. 338. o 1
9 22 -8 19180. 22082. 472. o 1
-9 22 11 512. 727. 148. o -3
1 22 19 512. 727. 148. o -2
10 22 8 512. 727. 148. o 1
-4 23 -4 376. 443. 70. o -3
-4 23 4 376. 443. 70. o -2
0 23 8 376. 443. 70. o 1
4 23 4 376. 550. 101. o -3
4 23 -4 376. 550. 101. o -2
0 23 -8 376. 550. 101. o 1
1 23 8 7877. 8267. 115. o 1
1 23 -8 7877. 8609. 111. o 1
-5 23 -1 6450. 6520. 128. o -3
-3 23 7 6450. 6520. 128. o -2
2 23 8 6450. 6520. 128. o 1
3 23 7 6446. 6226. 78. o -3
5 23 -1 6446. 6226. 78. o -2
2 23 -8 6446. 6226. 78. o 1
3 23 8 2279. 2588. 89. o 1
3 23 -8 2279. 2314. 62. o 1
-6 23 2 113. 175. 72. < -3
-2 23 10 113. 175. 72. < -2
4 23 8 113. 175. 72. < 1
2 23 10 121. 101. 66. < -3
6 23 2 121. 101. 66. < -2
4 23 -8 121. 101. 66. < 1
5 23 8 2697. 2997. 132. o 1
5 23 -8 2697. 3078. 60. o 1
1 23 13 5136. 5521. 91. o -3
7 23 5 5136. 5521. 91. o -2
6 23 -8 5136. 5521. 91. o 1
7 23 8 1859. 2169. 194. o 1
7 23 -8 1859. 2101. 89. o 1
-8 23 8 497. 585. 138. o -3
0 23 16 497. 585. 138. o -2
8 23 8 497. 585. 138. o 1
0 23 16 520. 562. 66. o -3
8 23 8 520. 562. 66. o -2
8 23 -8 520. 562. 66. o 1
9 23 8 471. 408. 101. o 1
9 23 -8 471. 670. 107. o 1
-9 23 11 2317. 1506. 128. o -3
1 23 19 2317. 1506. 128. o -2
10 23 8 2317. 1506. 128. o 1
-4 24 -4 54333. 57682. 632. o -3
-4 24 4 54333. 57682. 632. o -2
0 24 8 54333. 57682. 632. o 1
4 24 4 54333. 57747. 900. o -3
4 24 -4 54333. 57747. 900. o -2
0 24 -8 54333. 57747. 900. o 1
1 24 8 8867. 9384. 120. o 1
1 24 -8 8867. 9015. 124. o 1
-5 24 -1 5656. 5923. 128. o -3
-3 24 7 5656. 5923. 128. o -2
2 24 8 5656. 5923. 128. o 1
3 24 7 5844. 5764. 84. o -3
5 24 -1 5844. 5764. 84. o -2
2 24 -8 5844. 5764. 84. o 1
3 24 8 2488. 2717. 86. o 1
3 24 -8 2488. 2810. 62. o 1
-6 24 2 32987. 36269. 429. o -3
-2 24 10 32987. 36269. 429. o -2
4 24 8 32987. 36269. 429. o 1
2 24 10 32864. 34724. 280. o -3
6 24 2 32864. 34724. 280. o -2
4 24 -8 32864. 34724. 280. o 1
5 24 8 7270. 7004. 208. o 1
5 24 -8 7270. 7932. 95. o 1
-7 24 5 2040. 1959. 185. o -3
-1 24 13 2040. 1959. 185. o -2
6 24 8 2040. 1959. 185. o 1
1 24 13 1994. 2274. 78. o -3
7 24 5 1994. 2274. 78. o -2
6 24 -8 1994. 2274. 78. o 1
7 24 8 796. 921. 111. o 1
7 24 -8 796. 832. 62. o 1
-8 24 8 41852. 44971. 618. o -3
0 24 16 41852. 44971. 618. o -2
8 24 8 41852. 44971. 618. o 1
0 24 16 41555. 39851. 274. o -3
8 24 8 41555. 39851. 274. o -2
8 24 -8 41555. 39851. 274. o 1
9 24 8 3821. 2903. 155. o 1
9 24 -8 3821. 2960. 144. o 1
-9 24 11 2156. 1588. 122. o -3
1 24 19 2156. 1588. 122. o -2
10 24 8 2156. 1588. 122. o 1
11 24 8 170. 163. 82. < 1
-4 25 -4 155. 66. 128. < -3
-4 25 4 155. 66. 128. < -2
0 25 8 155. 66. 128. < 1
4 25 4 155. 188. 128. < -3
4 25 -4 155. 188. 128. < -2
0 25 -8 155. 188. 128. < 1
1 25 8 7124. 6774. 107. o 1
1 25 -8 7124. 7456. 120. o 1
-5 25 -1 4575. 4617. 111. o -3
-3 25 7 4575. 4617. 111. o -2
2 25 8 4575. 4617. 111. o 1
3 25 7 4119. 3762. 78. o -3
5 25 -1 4119. 3762. 78. o -2
2 25 -8 4119. 3762. 78. o 1
3 25 8 7294. 7507. 140. o 1
3 25 -8 7294. 7977. 101. o 1
-6 25 2 65. 264. 91. < -3
-2 25 10 65. 264. 91. < -2
4 25 8 65. 264. 91. < 1
2 25 10 63. 130. 68. < -3
6 25 2 63. 130. 68. < -2
4 25 -8 63. 130. 68. < 1
5 25 8 627. 999. 124. o 1
5 25 -8 627. 834. 56. o 1
-7 25 5 7581. 7824. 299. o -3
-1 25 13 7581. 7824. 299. o -2
6 25 8 7581. 7824. 299. o 1
1 25 13 7182. 8651. 109. o -3
7 25 5 7182. 8651. 109. o -2
6 25 -8 7182. 8651. 109. o 1
7 25 8 5964. 6168. 173. o 1
7 25 -8 5964. 5704. 74. o 1
-8 25 8 348. 216. 113. < -3
0 25 16 348. 216. 113. < -2
8 25 8 348. 216. 113. < 1
0 25 16 362. 225. 87. < -3
8 25 8 362. 225. 87. < -2
8 25 -8 362. 225. 87. < 1
9 25 8 2960. 2371. 152. o 1
9 25 -8 2960. 2433. 138. o 1
-4 26 -4 6478. 7083. 198. o -3
-4 26 4 6478. 7083. 198. o -2
0 26 8 6478. 7083. 198. o 1
4 26 4 6478. 6584. 188. o -3
4 26 -4 6478. 6584. 188. o -2
0 26 -8 6478. 6584. 188. o 1
1 26 8 5306. 5554. 130. o 1
1 26 -8 5306. 5692. 113. o 1
-5 26 -1 1555. 2038. 80. o -3
-3 26 7 1555. 2038. 80. o -2
2 26 8 1555. 2038. 80. o 1
3 26 7 1575. 1551. 82. o -3
5 26 -1 1575. 1551. 82. o -2
2 26 -8 1575. 1551. 82. o 1
3 26 8 285. 513. 91. o 1
3 26 -8 285. 142. 56. < 1
-6 26 2 3784. 4623. 142. o -3
-2 26 10 3784. 4623. 142. o -2
4 26 8 3784. 4623. 142. o 1
2 26 10 3707. 3982. 87. o -3
6 26 2 3707. 3982. 87. o -2
4 26 -8 3707. 3982. 87. o 1
5 26 8 8935. 8179. 183. o 1
5 26 -8 8935. 10756. 119. o 1
1 26 13 2059. 1846. 49. o -3
7 26 5 2059. 1846. 49. o -2
6 26 -8 2059. 1846. 49. o 1
7 26 8 3971. 2295. 142. o 1
7 26 -8 3971. 3729. 58. o 1
-8 26 8 5589. 4528. 173. o -3
0 26 16 5589. 4528. 173. o -2
8 26 8 5589. 4528. 173. o 1
0 26 16 5415. 4547. 130. o -3
8 26 8 5415. 4547. 130. o -2
8 26 -8 5415. 4547. 130. o 1
9 26 -8 8324. 10536. 373. o 1
-9 26 11 1707. 762. 122. o -3
1 26 19 1707. 762. 122. o -2
10 26 8 1707. 762. 122. o 1
-1 26 19 1792. 369. 109. o -3
9 26 11 1792. 369. 109. o -2
10 26 -8 1792. 369. 109. o 1
-4 27 -4 1176. 1440. 157. o -3
-4 27 4 1176. 1440. 157. o -2
0 27 8 1176. 1440. 157. o 1
4 27 4 1176. 1047. 128. o -3
4 27 -4 1176. 1047. 128. o -2
0 27 -8 1176. 1047. 128. o 1
1 27 8 3276. 3232. 134. o 1
1 27 -8 3276. 4129. 107. o 1
-5 27 -1 4843. 4672. 146. o -3
-3 27 7 4843. 4672. 146. o -2
2 27 8 4843. 4672. 146. o 1
3 27 7 4850. 5595. 99. o -3
5 27 -1 4850. 5595. 99. o -2
2 27 -8 4850. 5595. 99. o 1
3 27 8 6663. 7637. 165. o 1
-6 27 2 407. 301. 84. o -3
-2 27 10 407. 301. 84. o -2
4 27 8 407. 301. 84. o 1
2 27 10 406. 360. 64. o -3
6 27 2 406. 360. 64. o -2
4 27 -8 406. 360. 64. o 1
5 27 8 4454. 5119. 159. o 1
5 27 -8 4454. 4670. 68. o 1
1 27 13 4413. 4975. 60. o -3
7 27 5 4413. 4975. 60. o -2
6 27 -8 4413. 4975. 60. o 1
7 27 8 3751. 3119. 159. o 1
7 27 -8 3751. 4170. 74. o 1
-8 27 8 333. 136. 103. < -3
0 27 16 333. 136. 103. < -2
8 27 8 333. 136. 103. < 1
0 27 16 330. 107. 111. < -3
8 27 8 330. 107. 111. < -2
8 27 -8 330. 107. 111. < 1
9 27 8 1986. 1384. 119. o 1
9 27 -8 1986. 560. 126. o 1
-4 28 -4 9700. 11885. 321. o -3
-4 28 4 9700. 11885. 321. o -2
0 28 8 9700. 11885. 321. o 1
4 28 4 9700. 12577. 251. o -3
4 28 -4 9700. 12577. 251. o -2
0 28 -8 9700. 12577. 251. o 1
1 28 8 5666. 5414. 142. o 1
1 28 -8 5666. 6265. 128. o 1
-5 28 -1 731. 715. 93. o -3
-3 28 7 731. 715. 93. o -2
2 28 8 731. 715. 93. o 1
3 28 7 806. 871. 80. o -3
5 28 -1 806. 871. 80. o -2
2 28 -8 806. 871. 80. o 1
3 28 8 466. 680. 89. o 1
3 28 -8 466. 725. 54. o 1
-6 28 2 13506. 13249. 194. o -3
-2 28 10 13506. 13249. 194. o -2
4 28 8 13506. 13249. 194. o 1
2 28 10 13778. 14069. 155. o -3
6 28 2 13778. 14069. 155. o -2
4 28 -8 13778. 14069. 155. o 1
5 28 8 4102. 3372. 146. o 1
5 28 -8 4102. 3663. 82. o 1
1 28 13 1687. 1731. 52. o -3
7 28 5 1687. 1731. 52. o -2
6 28 -8 1687. 1731. 52. o 1
7 28 8 97. 86. 105. < 1
7 28 -8 97. -27. 111. < 1
-8 28 8 2675. 1638. 140. o -3
0 28 16 2675. 1638. 140. o -2
8 28 8 2675. 1638. 140. o 1
0 28 16 2908. 653. 148. o -3
8 28 8 2908. 653. 148. o -2
8 28 -8 2908. 653. 148. o 1
-4 29 -4 433. 313. 115. < -3
-4 29 4 433. 313. 115. < -2
0 29 8 433. 313. 115. < 1
4 29 4 433. 29. 120. < -3
4 29 -4 433. 29. 120. < -2
0 29 -8 433. 29. 120. < 1
1 29 8 3590. 2971. 97. o 1
1 29 -8 3590. 4096. 86. o 1
-5 29 -1 2744. 2847. 89. o -3
-3 29 7 2744. 2847. 89. o -2
2 29 8 2744. 2847. 89. o 1
3 29 7 2894. 1976. 86. o -3
5 29 -1 2894. 1976. 86. o -2
2 29 -8 2894. 1976. 86. o 1
3 29 8 4395. 3743. 101. o 1
3 29 -8 4395. 4244. 74. o 1
-6 29 2 112. 159. 84. < -3
-2 29 10 112. 159. 84. < -2
4 29 8 112. 159. 84. < 1
2 29 10 106. 196. 64. o -3
6 29 2 106. 196. 64. o -2
4 29 -8 106. 196. 64. o 1
5 29 8 1410. 1300. 84. o 1
5 29 -8 1410. 1695. 76. o 1
1 29 13 1184. 909. 51. o -3
7 29 5 1184. 909. 51. o -2
6 29 -8 1184. 909. 51. o 1
7 29 -8 2206. 585. 134. o 1
-8 29 8 177. 2. 86. < -3
0 29 16 177. 2. 86. < -2
8 29 8 177. 2. 86. < 1
0 29 16 172. 97. 97. < -3
8 29 8 172. 97. 97. < -2
8 29 -8 172. 97. 97. < 1
-4 30 -4 61861. 62698. 655. o -3
-4 30 4 61861. 62698. 655. o -2
0 30 8 61861. 62698. 655. o 1
4 30 4 61861. 66157. 1047. o -3
4 30 -4 61861. 66157. 1047. o -2
0 30 -8 61861. 66157. 1047. o 1
1 30 8 682. 719. 99. o 1
1 30 -8 682. 748. 76. o 1
-5 30 -1 1640. 1597. 103. o -3
-3 30 7 1640. 1597. 103. o -2
2 30 8 1640. 1597. 103. o 1
3 30 7 1838. 1632. 97. o -3
5 30 -1 1838. 1632. 97. o -2
2 30 -8 1838. 1632. 97. o 1
3 30 8 1745. 1967. 99. o 1
3 30 -8 1745. 1864. 66. o 1
-6 30 2 24352. 24635. 365. o -3
-2 30 10 24352. 24635. 365. o -2
4 30 8 24352. 24635. 365. o 1
2 30 10 25366. 26600. 334. o -3
6 30 2 25366. 26600. 334. o -2
4 30 -8 25366. 26600. 334. o 1
5 30 8 25. -86. 68. < 1
5 30 -8 25. 163. 62. < 1
1 30 13 556. 412. 54. o -3
7 30 5 556. 412. 54. o -2
6 30 -8 556. 412. 54. o 1
7 30 -8 975. 595. 64. o 1
-4 31 -4 412. 305. 93. o -3
-4 31 4 412. 305. 93. o -2
0 31 8 412. 305. 93. o 1
4 31 4 412. 404. 113. o -3
4 31 -4 412. 404. 113. o -2
0 31 -8 412. 404. 113. o 1
1 31 8 693. 492. 76. o 1
1 31 -8 693. 379. 68. o 1
-5 31 -1 4640. 3741. 113. o -3
-3 31 7 4640. 3741. 113. o -2
2 31 8 4640. 3741. 113. o 1
3 31 7 4652. 4246. 117. o -3
5 31 -1 4652. 4246. 117. o -2
2 31 -8 4652. 4246. 117. o 1
3 31 8 2183. 2330. 101. o 1
3 31 -8 2183. 2128. 66. o 1
-6 31 2 289. 144. 74. < -3
-2 31 10 289. 144. 74. < -2
4 31 8 289. 144. 74. < 1
2 31 10 289. 169. 62. < -3
6 31 2 289. 169. 62. < -2
4 31 -8 289. 169. 62. < 1
5 31 8 622. 214. 62. o 1
5 31 -8 622. 218. 70. o 1
4 32 4 663. 49. 120. < -3
4 32 -4 663. 49. 120. < -2
0 32 -8 663. 49. 120. < 1
1 32 8 939. 410. 80. o 1
1 32 -8 939. 649. 68. o 1
3 32 8 747. 328. 68. o 1
3 32 -8 747. 517. 54. o 1
-6 32 2 1334. 754. 86. o -3
-2 32 10 1334. 754. 86. o -2
4 32 8 1334. 754. 86. o 1
2 32 10 1383. 496. 76. o -3
6 32 2 1383. 496. 76. o -2
4 32 -8 1383. 496. 76. o 1
4 33 4 596. 268. 107. < -3
4 33 -4 596. 268. 107. < -2
0 33 -8 596. 268. 107. < 1
1 33 8 178. 99. 60. < 1
1 33 -8 178. 97. 52. < 1
-5 33 -1 2012. 888. 93. o -3
-3 33 7 2012. 888. 93. o -2
2 33 8 2012. 888. 93. o 1
3 33 7 1965. 974. 87. o -3
5 33 -1 1965. 974. 87. o -2
2 33 -8 1965. 974. 87. o 1
3 33 8 1235. 544. 68. o 1
3 33 -8 1235. 814. 54. o 1
2 0 -9 8967. 7960. 54. o 1
4 0 -9 430. 387. 27. o 1
2 1 -9 3363. 2944. 25. o 1
3 1 9 6320. 7198. 62. o -3
6 1 0 6320. 7198. 62. o -2
3 1 -9 6320. 7198. 62. o 1
4 1 -9 2610. 2313. 37. o 1
2 1 12 4253. 4120. 70. o -3
7 1 3 4253. 4120. 70. o -2
5 1 -9 4253. 4120. 70. o 1
4 2 6 3053. 3144. 25. o -3
5 2 -3 3053. 3144. 25. o -2
1 2 -9 3053. 3144. 25. o 1
2 2 -9 1044. 902. 16. o 1
3 2 9 466. 606. 21. o -3
6 2 0 466. 606. 21. o -2
3 2 -9 466. 606. 21. o 1
4 2 -9 8235. 8210. 78. o 1
2 2 12 1670. 1922. 58. o -3
7 2 3 1670. 1922. 58. o -2
5 2 -9 1670. 1922. 58. o 1
6 2 -9 662. 740. 122. o 1
4 3 6 1260. 1115. 16. o -3
5 3 -3 1260. 1115. 16. o -2
1 3 -9 1260. 1115. 16. o 1
2 3 -9 1734. 1568. 23. o 1
3 3 9 3137. 2645. 37. o -3
6 3 0 3137. 2645. 37. o -2
3 3 -9 3137. 2645. 37. o 1
4 3 -9 5434. 5119. 64. o 1
2 3 12 2080. 2037. 56. o -3
7 3 3 2080. 2037. 56. o -2
5 3 -9 2080. 2037. 56. o 1
6 3 -9 211. 455. 115. o 1
1 3 15 4429. 3974. 117. o -3
8 3 6 4429. 3974. 117. o -2
7 3 -9 4429. 3974. 117. o 1
4 4 6 7273. 7571. 52. o -3
5 4 -3 7273. 7571. 52. o -2
1 4 -9 7273. 7571. 52. o 1
2 4 -9 3306. 2826. 31. o 1
3 4 9 668. 808. 21. o -3
6 4 0 668. 808. 21. o -2
3 4 -9 668. 808. 21. o 1
4 4 -9 9281. 9499. 84. o 1
2 4 12 1945. 2159. 58. o -3
7 4 3 1945. 2159. 58. o -2
5 4 -9 1945. 2159. 58. o 1
6 4 -9 602. 585. 41. o 1
1 4 15 471. 447. 54. o -3
8 4 6 471. 447. 54. o -2
7 4 -9 471. 447. 54. o 1
4 5 6 7581. 7355. 60. o -3
5 5 -3 7581. 7355. 60. o -2
1 5 -9 7581. 7355. 60. o 1
2 5 -9 743. 670. 33. o 1
3 5 9 6543. 5939. 60. o -3
6 5 0 6543. 5939. 60. o -2
3 5 -9 6543. 5939. 60. o 1
4 5 -9 1889. 2029. 41. o 1
2 5 12 3530. 3362. 74. o -3
7 5 3 3530. 3362. 74. o -2
5 5 -9 3530. 3362. 74. o 1
6 5 -9 1657. 1897. 56. o 1
1 5 15 3516. 4775. 124. o -3
8 5 6 3516. 4775. 124. o -2
7 5 -9 3516. 4775. 124. o 1
8 5 9 1997. 1452. 82. o 1
8 5 -9 1997. 1936. 91. o 1
4 6 6 7261. 7550. 62. o -3
5 6 -3 7261. 7550. 62. o -2
1 6 -9 7261. 7550. 62. o 1
2 6 -9 1185. 1203. 25. o 1
3 6 9 957. 1032. 37. o -3
6 6 0 957. 1032. 37. o -2
3 6 -9 957. 1032. 37. o 1
4 6 -9 622. 647. 52. o 1
2 6 12 401. 534. 54. o -3
7 6 3 401. 534. 54. o -2
5 6 -9 401. 534. 54. o 1
6 6 -9 4092. 4394. 84. o 1
1 6 15 939. 581. 64. o -3
8 6 6 939. 581. 64. o -2
7 6 -9 939. 581. 64. o 1
8 6 9 8950. 9812. 225. o 1
8 6 -9 8950. 8914. 225. o 1
4 7 6 4819. 4458. 47. o -3
5 7 -3 4819. 4458. 47. o -2
1 7 -9 4819. 4458. 47. o 1
2 7 -9 79. 115. 27. o 1
3 7 9 90. 161. 27. o -3
6 7 0 90. 161. 27. o -2
3 7 -9 90. 161. 27. o 1
4 7 -9 7. 82. 60. < 1
2 7 12 2337. 2328. 62. o -3
7 7 3 2337. 2328. 62. o -2
5 7 -9 2337. 2328. 62. o 1
6 7 -9 4649. 5325. 105. o 1
8 7 9 831. 773. 82. o 1
8 7 -9 831. 577. 76. o 1
-9 7 9 2642. 2775. 124. o -3
0 7 18 2642. 2775. 124. o -2
9 7 9 2642. 2775. 124. o 1
-5 8 -3 6761. 6629. 148. o -3
-4 8 6 6761. 6629. 148. o -2
1 8 9 6761. 6629. 148. o 1
4 8 6 6646. 6061. 72. o -3
5 8 -3 6646. 6061. 72. o -2
1 8 -9 6646. 6061. 72. o 1
2 8 -9 1271. 1209. 21. o 1
3 8 9 272. 350. 21. o -3
6 8 0 272. 350. 21. o -2
3 8 -9 272. 350. 21. o 1
4 8 -9 1380. 1304. 33. o 1
2 8 12 4005. 4691. 89. o -3
7 8 3 4005. 4691. 89. o -2
5 8 -9 4005. 4691. 89. o 1
6 8 -9 5001. 4711. 99. o 1
-8 8 6 5161. 4913. 150. o -3
-1 8 15 5161. 4913. 150. o -2
7 8 9 5161. 4913. 150. o 1
1 8 15 5348. 4295. 119. o -3
8 8 6 5348. 4295. 119. o -2
7 8 -9 5348. 4295. 119. o 1
8 8 9 2529. 1796. 89. o 1
8 8 -9 2529. 2579. 103. o 1
-9 8 9 2644. 2748. 103. o -3
0 8 18 2644. 2748. 103. o -2
9 8 9 2644. 2748. 103. o 1
-5 9 -3 2760. 2254. 78. o -3
-4 9 6 2760. 2254. 78. o -2
1 9 9 2760. 2254. 78. o 1
4 9 6 2698. 2266. 45. o -3
5 9 -3 2698. 2266. 45. o -2
1 9 -9 2698. 2266. 45. o 1
2 9 -9 958. 845. 21. o 1
3 9 9 4818. 4860. 47. o -3
6 9 0 4818. 4860. 47. o -2
3 9 -9 4818. 4860. 47. o 1
4 9 -9 1302. 1337. 27. o 1
2 9 12 1823. 1850. 43. o -3
7 9 3 1823. 1850. 43. o -2
5 9 -9 1823. 1850. 43. o 1
6 9 -9 1018. 1092. 52. o 1
-8 9 6 4049. 3869. 84. o -3
-1 9 15 4049. 3869. 84. o -2
7 9 9 4049. 3869. 84. o 1
1 9 15 4042. 4260. 93. o -3
8 9 6 4042. 4260. 93. o -2
7 9 -9 4042. 4260. 93. o 1
8 9 9 668. 451. 56. o 1
8 9 -9 668. 805. 80. o 1
-5 10 -3 12771. 15735. 223. o -3
-4 10 6 12771. 15735. 223. o -2
1 10 9 12771. 15735. 223. o 1
4 10 6 11845. 12342. 101. o -3
5 10 -3 11845. 12342. 101. o -2
1 10 -9 11845. 12342. 101. o 1
2 10 -9 1292. 1248. 27. o 1
3 10 9 3217. 3131. 43. o -3
6 10 0 3217. 3131. 43. o -2
3 10 -9 3217. 3131. 43. o 1
4 10 -9 1203. 1189. 33. o 1
2 10 12 5090. 5294. 64. o -3
7 10 3 5090. 5294. 64. o -2
5 10 -9 5090. 5294. 64. o 1
6 10 9 2480. 2489. 70. o 1
6 10 -9 2480. 2775. 52. o 1
-8 10 6 4997. 5309. 109. o -3
-1 10 15 4997. 5309. 109. o -2
7 10 9 4997. 5309. 109. o 1
1 10 15 5113. 6133. 132. o -3
8 10 6 5113. 6133. 132. o -2
7 10 -9 5113. 6133. 132. o 1
8 10 9 985. 791. 66. o 1
8 10 -9 985. 1240. 87. o 1
-5 11 -3 13056. 15383. 126. o -3
-4 11 6 13056. 15383. 126. o -2
1 11 9 13056. 15383. 126. o 1
4 11 6 14772. 14926. 101. o -3
5 11 -3 14772. 14926. 101. o -2
1 11 -9 14772. 14926. 101. o 1
2 11 -9 810. 680. 25. o 1
3 11 9 2528. 2355. 37. o -3
6 11 0 2528. 2355. 37. o -2
3 11 -9 2528. 2355. 37. o 1
4 11 -9 1359. 1244. 33. o 1
-7 11 3 944. 713. 64. o -3
-2 11 12 944. 713. 64. o -2
5 11 9 944. 713. 64. o 1
2 11 12 994. 845. 52. o -3
7 11 3 994. 845. 52. o -2
5 11 -9 994. 845. 52. o 1
6 11 9 3609. 3088. 72. o 1
6 11 -9 3609. 3863. 56. o 1
1 11 15 7676. 8570. 140. o -3
8 11 6 7676. 8570. 140. o -2
7 11 -9 7676. 8570. 140. o 1
8 11 9 234. 307. 136. < 1
8 11 -9 234. 393. 103. o 1
-5 12 -3 1556. 1648. 47. o -3
-4 12 6 1556. 1648. 47. o -2
1 12 9 1556. 1648. 47. o 1
4 12 6 1493. 1498. 33. o -3
5 12 -3 1493. 1498. 33. o -2
1 12 -9 1493. 1498. 33. o 1
2 12 9 950. 820. 43. o 1
2 12 -9 950. 806. 31. o 1
-6 12 0 795. 744. 74. o -3
-3 12 9 795. 744. 74. o -2
3 12 9 795. 744. 74. o 1
3 12 9 827. 632. 29. o -3
6 12 0 827. 632. 29. o -2
3 12 -9 827. 632. 29. o 1
4 12 9 3020. 2868. 72. o 1
4 12 -9 3020. 2884. 47. o 1
-7 12 3 1090. 783. 49. o -3
-2 12 12 1090. 783. 49. o -2
5 12 9 1090. 783. 49. o 1
2 12 12 966. 1156. 45. o -3
7 12 3 966. 1156. 45. o -2
5 12 -9 966. 1156. 45. o 1
6 12 9 779. 618. 43. o 1
6 12 -9 779. 878. 54. o 1
-8 12 6 831. 810. 52. o -3
-1 12 15 831. 810. 52. o -2
7 12 9 831. 810. 52. o 1
1 12 15 981. 1279. 56. o -3
8 12 6 981. 1279. 56. o -2
7 12 -9 981. 1279. 56. o 1
8 12 9 2296. 2330. 128. o 1
8 12 -9 2296. 2188. 124. o 1
-5 13 -3 2674. 2715. 68. o -3
-4 13 6 2674. 2715. 68. o -2
1 13 9 2674. 2715. 68. o 1
4 13 6 2696. 2602. 43. o -3
5 13 -3 2696. 2602. 43. o -2
1 13 -9 2696. 2602. 43. o 1
2 13 9 2113. 2147. 56. o 1
2 13 -9 2113. 2077. 41. o 1
3 13 9 6396. 6823. 66. o -3
6 13 0 6396. 6823. 66. o -2
3 13 -9 6396. 6823. 66. o 1
4 13 9 2262. 1951. 64. o 1
4 13 -9 2262. 2077. 41. o 1
-7 13 3 3126. 2911. 76. o -3
-2 13 12 3126. 2911. 76. o -2
5 13 9 3126. 2911. 76. o 1
2 13 12 3143. 2726. 78. o -3
7 13 3 3143. 2726. 78. o -2
5 13 -9 3143. 2726. 78. o 1
6 13 9 173. -97. 64. < 1
6 13 -9 173. 291. 45. o 1
-8 13 6 2831. 3068. 91. o -3
-1 13 15 2831. 3068. 91. o -2
7 13 9 2831. 3068. 91. o 1
1 13 15 2874. 3049. 62. o -3
8 13 6 2874. 3049. 62. o -2
7 13 -9 2874. 3049. 62. o 1
8 13 9 8. -8. 64. < 1
8 13 -9 8. 27. 99. < 1
-5 14 -3 3774. 3535. 70. o -3
-4 14 6 3774. 3535. 70. o -2
1 14 9 3774. 3535. 70. o 1
4 14 6 3448. 3585. 49. o -3
5 14 -3 3448. 3585. 49. o -2
1 14 -9 3448. 3585. 49. o 1
2 14 9 1025. 983. 39. o 1
2 14 -9 1025. 1045. 31. o 1
-6 14 0 7027. 7868. 140. o -3
-3 14 9 7027. 7868. 140. o -2
3 14 9 7027. 7868. 140. o 1
3 14 9 7388. 7359. 72. o -3
6 14 0 7388. 7359. 72. o -2
3 14 -9 7388. 7359. 72. o 1
4 14 9 1026. 1160. 56. o 1
4 14 -9 1026. 1082. 41. o 1
-7 14 3 8012. 7589. 138. o -3
-2 14 12 8012. 7589. 138. o -2
5 14 9 8012. 7589. 138. o 1
2 14 12 7720. 8580. 136. o -3
7 14 3 7720. 8580. 136. o -2
5 14 -9 7720. 8580. 136. o 1
6 14 9 48. 99. 120. < 1
6 14 -9 48. -8. 74. < 1
-8 14 6 4130. 5684. 157. o -3
-1 14 15 4130. 5684. 157. o -2
7 14 9 4130. 5684. 157. o 1
1 14 15 4639. 5418. 68. o -3
8 14 6 4639. 5418. 68. o -2
7 14 -9 4639. 5418. 68. o 1
8 14 9 129. 264. 68. o 1
8 14 -9 129. 218. 109. < 1
-5 15 -3 12758. 13854. 136. o -3
-4 15 6 12758. 13854. 136. o -2
1 15 9 12758. 13854. 136. o 1
4 15 6 13304. 14132. 105. o -3
5 15 -3 13304. 14132. 105. o -2
1 15 -9 13304. 14132. 105. o 1
2 15 9 313. 429. 52. o 1
2 15 -9 313. 365. 52. o 1
3 15 9 11561. 13210. 107. o -3
6 15 0 11561. 13210. 107. o -2
3 15 -9 11561. 13210. 107. o 1
4 15 9 942. 803. 52. o 1
4 15 -9 942. 1077. 43. o 1
-7 15 3 2447. 3121. 84. o -3
-2 15 12 2447. 3121. 84. o -2
5 15 9 2447. 3121. 84. o 1
2 15 12 2617. 2116. 60. o -3
7 15 3 2617. 2116. 60. o -2
5 15 -9 2617. 2116. 60. o 1
6 15 9 338. 352. 124. < 1
6 15 -9 338. 332. 76. o 1
-8 15 6 4858. 4831. 148. o -3
-1 15 15 4858. 4831. 148. o -2
7 15 9 4858. 4831. 148. o 1
1 15 15 4879. 4611. 70. o -3
8 15 6 4879. 4611. 70. o -2
7 15 -9 4879. 4611. 70. o 1
8 15 9 403. 202. 82. < 1
8 15 -9 403. 472. 115. o 1
-5 16 -3 37339. 38397. 266. o -3
-4 16 6 37339. 38397. 266. o -2
1 16 9 37339. 38397. 266. o 1
4 16 6 34871. 39210. 177. o -3
5 16 -3 34871. 39210. 177. o -2
1 16 -9 34871. 39210. 177. o 1
2 16 9 790. 789. 41. o 1
2 16 -9 790. 694. 41. o 1
-6 16 0 1514. 2429. 117. o -3
-3 16 9 1514. 2429. 117. o -2
3 16 9 1514. 2429. 117. o 1
3 16 9 1601. 1522. 43. o -3
6 16 0 1601. 1522. 43. o -2
3 16 -9 1601. 1522. 43. o 1
4 16 9 4069. 3710. 93. o 1
4 16 -9 4069. 4112. 58. o 1
-7 16 3 5505. 6850. 124. o -3
-2 16 12 5505. 6850. 124. o -2
5 16 9 5505. 6850. 124. o 1
2 16 12 5469. 5943. 68. o -3
7 16 3 5469. 5943. 68. o -2
5 16 -9 5469. 5943. 68. o 1
6 16 9 1581. 1110. 80. o 1
6 16 -9 1581. 1679. 89. o 1
1 16 15 4325. 5111. 68. o -3
8 16 6 4325. 5111. 68. o -2
7 16 -9 4325. 5111. 68. o 1
8 16 9 499. 346. 84. o 1
8 16 -9 499. 484. 119. o 1
-9 16 9 13309. 14303. 332. o -3
0 16 18 13309. 14303. 332. o -2
9 16 9 13309. 14303. 332. o 1
-5 17 -3 12338. 13399. 136. o -3
-4 17 6 12338. 13399. 136. o -2
1 17 9 12338. 13399. 136. o 1
4 17 6 13153. 13030. 107. o -3
5 17 -3 13153. 13030. 107. o -2
1 17 -9 13153. 13030. 107. o 1
2 17 9 1201. 1127. 45. o 1
2 17 -9 1201. 1108. 39. o 1
3 17 9 4807. 4229. 62. o -3
6 17 0 4807. 4229. 62. o -2
3 17 -9 4807. 4229. 62. o 1
4 17 9 6058. 5828. 115. o 1
4 17 -9 6058. 6300. 72. o 1
-7 17 3 5331. 6481. 124. o -3
-2 17 12 5331. 6481. 124. o -2
5 17 9 5331. 6481. 124. o 1
2 17 12 5587. 5521. 68. o -3
7 17 3 5587. 5521. 68. o -2
5 17 -9 5587. 5521. 68. o 1
6 17 9 702. 538. 70. o 1
6 17 -9 702. 624. 99. o 1
-8 17 6 5476. 4951. 154. o -3
-1 17 15 5476. 4951. 154. o -2
7 17 9 5476. 4951. 154. o 1
1 17 15 5035. 4112. 70. o -3
8 17 6 5035. 4112. 70. o -2
7 17 -9 5035. 4112. 70. o 1
8 17 9 2312. 2814. 140. o 1
8 17 -9 2312. 2888. 132. o 1
-9 17 9 5794. 6199. 227. o -3
0 17 18 5794. 6199. 227. o -2
9 17 9 5794. 6199. 227. o 1
-5 18 -3 2626. 2886. 66. o -3
-4 18 6 2626. 2886. 66. o -2
1 18 9 2626. 2886. 66. o 1
4 18 6 2441. 2425. 45. o -3
5 18 -3 2441. 2425. 45. o -2
1 18 -9 2441. 2425. 45. o 1
2 18 9 226. 223. 54. o 1
2 18 -9 226. 286. 47. o 1
-6 18 0 2862. 3321. 126. o -3
-3 18 9 2862. 3321. 126. o -2
3 18 9 2862. 3321. 126. o 1
3 18 9 3011. 2930. 56. o -3
6 18 0 3011. 2930. 56. o -2
3 18 -9 3011. 2930. 56. o 1
4 18 9 6225. 6700. 210. o 1
4 18 -9 6225. 6912. 78. o 1
-7 18 3 4925. 5272. 117. o -3
-2 18 12 4925. 5272. 117. o -2
5 18 9 4925. 5272. 117. o 1
2 18 12 4675. 5336. 68. o -3
7 18 3 4675. 5336. 68. o -2
5 18 -9 4675. 5336. 68. o 1
6 18 9 668. 715. 95. o 1
6 18 -9 668. 752. 72. o 1
-8 18 6 7215. 9532. 210. o -3
-1 18 15 7215. 9532. 210. o -2
7 18 9 7215. 9532. 210. o 1
1 18 15 7390. 8945. 89. o -3
8 18 6 7390. 8945. 89. o -2
7 18 -9 7390. 8945. 89. o 1
8 18 9 4545. 3692. 146. o 1
8 18 -9 4545. 5128. 167. o 1
-9 18 9 2745. 2701. 140. o -3
0 18 18 2745. 2701. 140. o -2
9 18 9 2745. 2701. 140. o 1
-5 19 -3 1909. 1879. 58. o -3
-4 19 6 1909. 1879. 58. o -2
1 19 9 1909. 1879. 58. o 1
4 19 6 1785. 1634. 43. o -3
5 19 -3 1785. 1634. 43. o -2
1 19 -9 1785. 1634. 43. o 1
2 19 9 872. 927. 56. o 1
2 19 -9 872. 760. 51. o 1
-6 19 0 3946. 3923. 91. o -3
-3 19 9 3946. 3923. 91. o -2
3 19 9 3946. 3923. 91. o 1
3 19 9 3337. 2740. 56. o -3
6 19 0 3337. 2740. 56. o -2
3 19 -9 3337. 2740. 56. o 1
4 19 9 3685. 4161. 132. o 1
4 19 -9 3685. 4188. 74. o 1
2 19 12 5416. 5078. 70. o -3
7 19 3 5416. 5078. 70. o -2
5 19 -9 5416. 5078. 70. o 1
6 19 9 340. 433. 128. o 1
6 19 -9 340. 354. 72. o 1
-8 19 6 3296. 3447. 146. o -3
-1 19 15 3296. 3447. 146. o -2
7 19 9 3296. 3447. 146. o 1
1 19 15 3034. 2816. 72. o -3
8 19 6 3034. 2816. 72. o -2
7 19 -9 3034. 2816. 72. o 1
8 19 9 938. 789. 87. o 1
8 19 -9 938. 785. 124. o 1
-9 19 9 1353. 1572. 181. o -3
0 19 18 1353. 1572. 181. o -2
9 19 9 1353. 1572. 181. o 1
0 19 18 1553. 2126. 159. o -3
9 19 9 1553. 2126. 159. o -2
9 19 -9 1553. 2126. 159. o 1
10 19 9 368. 412. 113. o 1
-5 20 -3 1639. 1405. 52. o -3
-4 20 6 1639. 1405. 52. o -2
1 20 9 1639. 1405. 52. o 1
4 20 6 1524. 1296. 56. o -3
5 20 -3 1524. 1296. 56. o -2
1 20 -9 1524. 1296. 56. o 1
2 20 9 900. 1028. 45. o 1
2 20 -9 900. 855. 51. o 1
-6 20 0 1839. 1928. 70. o -3
-3 20 9 1839. 1928. 70. o -2
3 20 9 1839. 1928. 70. o 1
3 20 9 1940. 1902. 54. o -3
6 20 0 1940. 1902. 54. o -2
3 20 -9 1940. 1902. 54. o 1
4 20 9 1723. 1609. 101. o 1
4 20 -9 1723. 2101. 54. o 1
-7 20 3 6705. 5690. 119. o -3
-2 20 12 6705. 5690. 119. o -2
5 20 9 6705. 5690. 119. o 1
2 20 12 6056. 5960. 76. o -3
7 20 3 6056. 5960. 76. o -2
5 20 -9 6056. 5960. 76. o 1
6 20 9 2246. 2571. 136. o 1
6 20 -9 2246. 2404. 70. o 1
-8 20 6 516. 620. 87. o -3
-1 20 15 516. 620. 87. o -2
7 20 9 516. 620. 87. o 1
1 20 15 503. 797. 66. o -3
8 20 6 503. 797. 66. o -2
7 20 -9 503. 797. 66. o 1
8 20 9 752. 649. 80. o 1
8 20 -9 752. 552. 132. o 1
-9 20 9 2892. 4425. 169. o -3
0 20 18 2892. 4425. 169. o -2
9 20 9 2892. 4425. 169. o 1
0 20 18 2769. 3191. 270. o -3
9 20 9 2769. 3191. 270. o -2
9 20 -9 2769. 3191. 270. o 1
10 20 9 312. 472. 113. o 1
-5 21 -3 4685. 4506. 84. o -3
-4 21 6 4685. 4506. 84. o -2
1 21 9 4685. 4506. 84. o 1
4 21 6 4680. 4697. 117. o -3
5 21 -3 4680. 4697. 117. o -2
1 21 -9 4680. 4697. 117. o 1
2 21 9 839. 956. 68. o 1
2 21 -9 839. 915. 49. o 1
-6 21 0 2061. 1984. 74. o -3
-3 21 9 2061. 1984. 74. o -2
3 21 9 2061. 1984. 74. o 1
3 21 9 2180. 2161. 54. o -3
6 21 0 2180. 2161. 54. o -2
3 21 -9 2180. 2161. 54. o 1
4 21 9 249. 431. 115. o 1
4 21 -9 249. 387. 64. o 1
-7 21 3 3481. 3626. 146. o -3
-2 21 12 3481. 3626. 146. o -2
5 21 9 3481. 3626. 146. o 1
2 21 12 3488. 3698. 62. o -3
7 21 3 3488. 3698. 62. o -2
5 21 -9 3488. 3698. 62. o 1
6 21 9 5571. 6467. 187. o 1
6 21 -9 5571. 6386. 91. o 1
-8 21 6 3097. 3688. 148. o -3
-1 21 15 3097. 3688. 148. o -2
7 21 9 3097. 3688. 148. o 1
1 21 15 3163. 3135. 74. o -3
8 21 6 3163. 3135. 74. o -2
7 21 -9 3163. 3135. 74. o 1
8 21 9 2001. 3459. 165. o 1
8 21 -9 2001. 3059. 161. o 1
-9 21 9 5428. 5768. 177. o -3
0 21 18 5428. 5768. 177. o -2
9 21 9 5428. 5768. 177. o 1
0 21 18 5471. 4979. 290. o -3
9 21 9 5471. 4979. 290. o -2
9 21 -9 5471. 4979. 290. o 1
10 21 9 504. 703. 117. o 1
-5 22 -3 7789. 7050. 103. o -3
-4 22 6 7789. 7050. 103. o -2
1 22 9 7789. 7050. 103. o 1
4 22 6 7203. 7563. 138. o -3
5 22 -3 7203. 7563. 138. o -2
1 22 -9 7203. 7563. 138. o 1
2 22 9 519. 521. 76. o 1
2 22 -9 519. 513. 49. o 1
-6 22 0 1114. 1209. 64. o -3
-3 22 9 1114. 1209. 64. o -2
3 22 9 1114. 1209. 64. o 1
3 22 9 1174. 1034. 68. o -3
6 22 0 1174. 1034. 68. o -2
3 22 -9 1174. 1034. 68. o 1
4 22 9 661. 618. 97. o 1
4 22 -9 661. 634. 68. o 1
-7 22 3 1243. 1483. 97. o -3
-2 22 12 1243. 1483. 97. o -2
5 22 9 1243. 1483. 97. o 1
2 22 12 1128. 1143. 62. o -3
7 22 3 1128. 1143. 62. o -2
5 22 -9 1128. 1143. 62. o 1
6 22 9 822. 979. 124. o 1
6 22 -9 822. 770. 68. o 1
-8 22 6 2221. 2783. 122. o -3
-1 22 15 2221. 2783. 122. o -2
7 22 9 2221. 2783. 122. o 1
1 22 15 2446. 2631. 68. o -3
8 22 6 2446. 2631. 68. o -2
7 22 -9 2446. 2631. 68. o 1
8 22 9 449. 445. 169. < 1
8 22 -9 449. 752. 124. o 1
0 22 18 7451. 6413. 181. o -3
9 22 9 7451. 6413. 181. o -2
9 22 -9 7451. 6413. 181. o 1
10 22 9 1487. 1541. 126. o 1
-5 23 -3 24298. 27025. 206. o -3
-4 23 6 24298. 27025. 206. o -2
1 23 9 24298. 27025. 206. o 1
4 23 6 25629. 25927. 268. o -3
5 23 -3 25629. 25927. 268. o -2
1 23 -9 25629. 25927. 268. o 1
2 23 9 1189. 1378. 68. o 1
2 23 -9 1189. 1137. 51. o 1
-6 23 0 5217. 5583. 119. o -3
-3 23 9 5217. 5583. 119. o -2
3 23 9 5217. 5583. 119. o 1
3 23 9 5010. 5700. 86. o -3
6 23 0 5010. 5700. 86. o -2
3 23 -9 5010. 5700. 86. o 1
4 23 9 602. 781. 87. o 1
4 23 -9 602. 645. 76. o 1
-7 23 3 3228. 4586. 163. o -3
-2 23 12 3228. 4586. 163. o -2
5 23 9 3228. 4586. 163. o 1
2 23 12 3647. 4225. 70. o -3
7 23 3 3647. 4225. 70. o -2
5 23 -9 3647. 4225. 70. o 1
6 23 9 34. 241. 109. < 1
6 23 -9 34. 78. 51. < 1
-8 23 6 9310. 8465. 251. o -3
-1 23 15 9310. 8465. 251. o -2
7 23 9 9310. 8465. 251. o 1
1 23 15 8387. 7643. 87. o -3
8 23 6 8387. 7643. 87. o -2
7 23 -9 8387. 7643. 87. o 1
8 23 9 502. 486. 111. o 1
8 23 -9 502. 478. 122. o 1
-9 23 9 7751. 7750. 202. o -3
0 23 18 7751. 7750. 202. o -2
9 23 9 7751. 7750. 202. o 1
0 23 18 8661. 6518. 188. o -3
9 23 9 8661. 6518. 188. o -2
9 23 -9 8661. 6518. 188. o 1
10 23 9 1166. 1566. 124. o 1
-10 23 12 2710. 1467. 124. o -3
1 23 21 2710. 1467. 124. o -2
11 23 9 2710. 1467. 124. o 1
-5 24 -3 8378. 8543. 122. o -3
-4 24 6 8378. 8543. 122. o -2
1 24 9 8378. 8543. 122. o 1
4 24 6 8059. 7977. 138. o -3
5 24 -3 8059. 7977. 138. o -2
1 24 -9 8059. 7977. 138. o 1
2 24 9 352. 554. 80. o 1
2 24 -9 352. 443. 60. o 1
-6 24 0 4624. 4730. 111. o -3
-3 24 9 4624. 4730. 111. o -2
3 24 9 4624. 4730. 111. o 1
3 24 9 4886. 4763. 80. o -3
6 24 0 4886. 4763. 80. o -2
3 24 -9 4886. 4763. 80. o 1
4 24 9 209. 330. 76. o 1
4 24 -9 209. 291. 70. o 1
-7 24 3 7637. 6965. 196. o -3
-2 24 12 7637. 6965. 196. o -2
5 24 9 7637. 6965. 196. o 1
2 24 12 7197. 7178. 91. o -3
7 24 3 7197. 7178. 91. o -2
5 24 -9 7197. 7178. 91. o 1
6 24 9 22. 109. 111. < 1
6 24 -9 22. 0. 47. < 1
-8 24 6 8132. 7227. 179. o -3
-1 24 15 8132. 7227. 179. o -2
7 24 9 8132. 7227. 179. o 1
1 24 15 8846. 9468. 119. o -3
8 24 6 8846. 9468. 119. o -2
7 24 -9 8846. 9468. 119. o 1
8 24 9 927. 911. 124. o 1
8 24 -9 927. 855. 113. o 1
-9 24 9 4280. 3286. 161. o -3
0 24 18 4280. 3286. 161. o -2
9 24 9 4280. 3286. 161. o 1
0 24 18 4066. 2656. 146. o -3
9 24 9 4066. 2656. 146. o -2
9 24 -9 4066. 2656. 146. o 1
10 24 9 2291. 1057. 119. o 1
10 24 -9 2291. 1351. 122. o 1
-5 25 -3 7011. 6908. 120. o -3
-4 25 6 7011. 6908. 120. o -2
1 25 9 7011. 6908. 120. o 1
4 25 6 6357. 7099. 142. o -3
5 25 -3 6357. 7099. 142. o -2
1 25 -9 6357. 7099. 142. o 1
2 25 9 235. 441. 84. o 1
2 25 -9 235. 297. 56. o 1
-6 25 0 4487. 4994. 111. o -3
-3 25 9 4487. 4994. 111. o -2
3 25 9 4487. 4994. 111. o 1
3 25 9 3868. 3152. 74. o -3
6 25 0 3868. 3152. 74. o -2
3 25 -9 3868. 3152. 74. o 1
4 25 9 125. 239. 89. < 1
4 25 -9 125. 138. 66. < 1
-7 25 3 2954. 4738. 185. o -3
-2 25 12 2954. 4738. 185. o -2
5 25 9 2954. 4738. 185. o 1
2 25 12 3214. 3288. 72. o -3
7 25 3 3214. 3288. 72. o -2
5 25 -9 3214. 3288. 72. o 1
6 25 -9 1577. 1595. 56. o 1
-8 25 6 2982. 2808. 136. o -3
-1 25 15 2982. 2808. 136. o -2
7 25 9 2982. 2808. 136. o 1
1 25 15 3010. 2569. 62. o -3
8 25 6 3010. 2569. 62. o -2
7 25 -9 3010. 2569. 62. o 1
8 25 9 274. 346. 119. < 1
8 25 -9 274. 171. 113. < 1
-9 25 9 7564. 7833. 202. o -3
0 25 18 7564. 7833. 202. o -2
9 25 9 7564. 7833. 202. o 1
0 25 18 7542. 5634. 188. o -3
9 25 9 7542. 5634. 188. o -2
9 25 -9 7542. 5634. 188. o 1
10 25 9 134. -21. 89. < 1
10 25 -9 134. 284. 87. o 1
-5 26 -3 11466. 10554. 171. o -3
-4 26 6 11466. 10554. 171. o -2
1 26 9 11466. 10554. 171. o 1
4 26 6 10519. 10958. 167. o -3
5 26 -3 10519. 10958. 167. o -2
1 26 -9 10519. 10958. 167. o 1
2 26 9 477. 497. 72. o 1
2 26 -9 477. 521. 64. o 1
-6 26 0 15193. 16528. 227. o -3
-3 26 9 15193. 16528. 227. o -2
3 26 9 15193. 16528. 227. o 1
3 26 9 16056. 18533. 200. o -3
6 26 0 16056. 18533. 200. o -2
3 26 -9 16056. 18533. 200. o 1
4 26 9 783. 651. 91. o 1
4 26 -9 783. 791. 74. o 1
2 26 12 6161. 7843. 140. o -3
7 26 3 6161. 7843. 140. o -2
5 26 -9 6161. 7843. 140. o 1
6 26 9 178. 245. 95. < 1
6 26 -9 178. 352. 43. o 1
-8 26 6 6379. 5564. 286. o -3
-1 26 15 6379. 5564. 286. o -2
7 26 9 6379. 5564. 286. o 1
1 26 15 6527. 6436. 142. o -3
8 26 6 6527. 6436. 142. o -2
7 26 -9 6527. 6436. 142. o 1
8 26 9 484. 433. 124. o 1
8 26 -9 484. 622. 119. o 1
-9 26 9 5657. 4240. 157. o -3
0 26 18 5657. 4240. 157. o -2
9 26 9 5657. 4240. 157. o 1
10 26 9 959. 472. 97. o 1
10 26 -9 959. 305. 86. o 1
-5 27 -3 22890. 23760. 266. o -3
-4 27 6 22890. 23760. 266. o -2
1 27 9 22890. 23760. 266. o 1
4 27 6 23169. 24604. 247. o -3
5 27 -3 23169. 24604. 247. o -2
1 27 -9 23169. 24604. 247. o 1
2 27 9 838. 612. 101. o 1
2 27 -9 838. 972. 54. o 1
-6 27 0 4191. 4442. 128. o -3
-3 27 9 4191. 4442. 128. o -2
3 27 9 4191. 4442. 128. o 1
4 27 9 388. 307. 89. o 1
4 27 -9 388. 441. 66. o 1
-7 27 3 9531. 10595. 237. o -3
-2 27 12 9531. 10595. 237. o -2
5 27 9 9531. 10595. 237. o 1
2 27 12 9886. 11296. 148. o -3
7 27 3 9886. 11296. 148. o -2
5 27 -9 9886. 11296. 148. o 1
6 27 9 285. 132. 91. < 1
6 27 -9 285. 257. 47. o 1
-8 27 6 6190. 4742. 177. o -3
-1 27 15 6190. 4742. 177. o -2
7 27 9 6190. 4742. 177. o 1
1 27 15 5962. 5655. 130. o -3
8 27 6 5962. 5655. 130. o -2
7 27 -9 5962. 5655. 130. o 1
8 27 9 55. 56. 93. < 1
8 27 -9 55. 39. 109. < 1
-5 28 -3 10470. 10126. 239. o -3
-4 28 6 10470. 10126. 239. o -2
1 28 9 10470. 10126. 239. o 1
4 28 6 9832. 10797. 161. o -3
5 28 -3 9832. 10797. 161. o -2
1 28 -9 9832. 10797. 161. o 1
2 28 9 188. 169. 82. < 1
2 28 -9 188. 412. 80. o 1
-6 28 0 1074. 1257. 74. o -3
-3 28 9 1074. 1257. 74. o -2
3 28 9 1074. 1257. 74. o 1
3 28 9 1124. 1207. 52. o -3
6 28 0 1124. 1207. 52. o -2
3 28 -9 1124. 1207. 52. o 1
4 28 9 314. 220. 86. < 1
4 28 -9 314. 328. 58. o 1
-7 28 3 4811. 4159. 155. o -3
-2 28 12 4811. 4159. 155. o -2
5 28 9 4811. 4159. 155. o 1
2 28 12 4720. 5045. 103. o -3
7 28 3 4720. 5045. 103. o -2
5 28 -9 4720. 5045. 103. o 1
6 28 9 283. 111. 89. < 1
6 28 -9 283. 138. 54. < 1
1 28 15 647. 408. 86. o -3
8 28 6 647. 408. 86. o -2
7 28 -9 647. 408. 86. o 1
8 28 9 372. 21. 95. < 1
8 28 -9 372. 227. 109. < 1
-5 29 -3 3317. 2890. 126. o -3
-4 29 6 3317. 2890. 126. o -2
1 29 9 3317. 2890. 126. o 1
4 29 6 3767. 3480. 97. o -3
5 29 -3 3767. 3480. 97. o -2
1 29 -9 3767. 3480. 97. o 1
2 29 9 45. -29. 84. < 1
2 29 -9 45. 62. 76. < 1
-6 29 0 3305. 3298. 109. o -3
-3 29 9 3305. 3298. 109. o -2
3 29 9 3305. 3298. 109. o 1
3 29 9 2805. 2606. 80. o -3
6 29 0 2805. 2606. 80. o -2
3 29 -9 2805. 2606. 80. o 1
4 29 9 1219. 1007. 87. o 1
4 29 -9 1219. 1207. 74. o 1
-7 29 3 3022. 3333. 150. o -3
-2 29 12 3022. 3333. 150. o -2
5 29 9 3022. 3333. 150. o 1
2 29 12 3407. 3721. 89. o -3
7 29 3 3407. 3721. 89. o -2
5 29 -9 3407. 3721. 89. o 1
6 29 9 167. -86. 99. < 1
6 29 -9 167. 134. 51. < 1
1 29 15 1404. 888. 58. o -3
8 29 6 1404. 888. 58. o -2
7 29 -9 1404. 888. 58. o 1
8 29 -9 875. 690. 95. o 1
-5 30 -3 374. 597. 128. o -3
-4 30 6 374. 597. 128. o -2
1 30 9 374. 597. 128. o 1
4 30 6 350. 406. 84. o -3
5 30 -3 350. 406. 84. o -2
1 30 -9 350. 406. 84. o 1
2 30 9 311. 253. 82. o 1
2 30 -9 311. 241. 78. o 1
-6 30 0 608. 643. 86. o -3
-3 30 9 608. 643. 86. o -2
3 30 9 608. 643. 86. o 1
3 30 9 639. 573. 56. o -3
6 30 0 639. 573. 56. o -2
3 30 -9 639. 573. 56. o 1
4 30 9 847. 863. 82. o 1
4 30 -9 847. 941. 70. o 1
6 30 9 189. 204. 93. < 1
6 30 -9 189. 157. 49. o 1
1 30 15 510. 348. 95. o -3
8 30 6 510. 348. 95. o -2
7 30 -9 510. 348. 95. o 1
-5 31 -3 1867. 1840. 138. o -3
-4 31 6 1867. 1840. 138. o -2
1 31 9 1867. 1840. 138. o 1
4 31 6 1807. 1582. 99. o -3
5 31 -3 1807. 1582. 99. o -2
1 31 -9 1807. 1582. 99. o 1
2 31 9 558. 534. 78. o 1
2 31 -9 558. 490. 80. o 1
4 31 9 939. 476. 84. o 1
4 31 -9 939. 342. 70. o 1
-5 32 -3 1329. 352. 117. o -3
-4 32 6 1329. 352. 117. o -2
1 32 9 1329. 352. 117. o 1
4 32 6 1329. 725. 84. o -3
5 32 -3 1329. 725. 84. o -2
1 32 -9 1329. 725. 84. o 1
2 32 9 294. 95. 72. < 1
2 32 -9 294. 58. 74. < 1
4 32 9 708. 255. 70. o 1
4 32 -9 708. 249. 58. o 1
-5 33 -3 690. 185. 99. < -3
-4 33 6 690. 185. 99. < -2
1 33 9 690. 185. 99. < 1
4 33 6 735. 441. 52. o -3
5 33 -3 735. 441. 52. o -2
1 33 -9 735. 441. 52. o 1
2 33 9 440. 68. 68. < 1
2 33 -9 440. 412. 66. o 1
0 0 -10 567. 600. 27. o 1
4 0 8 5109. 5690. 66. o -3
6 0 -2 5109. 5690. 66. o -2
2 0 -10 5109. 5690. 66. o 1
4 0 -10 90. 167. 66. < 1
5 1 5 23752. 21907. 93. o -3
5 1 -5 23752. 21907. 93. o -2
0 1 -10 23752. 21907. 93. o 1
1 1 -10 113. 117. 21. o 1
4 1 8 198. 206. 25. o -3
6 1 -2 198. 206. 25. o -2
2 1 -10 198. 206. 25. o 1
3 1 -10 243. 155. 41. o 1
3 1 11 3881. 3696. 47. o -3
7 1 1 3881. 3696. 47. o -2
4 1 -10 3881. 3696. 47. o 1
5 1 -10 322. 325. 51. o 1
5 2 5 987. 935. 19. o -3
5 2 -5 987. 935. 19. o -2
0 2 -10 987. 935. 19. o 1
1 2 -10 1233. 1117. 16. o 1
3 2 -10 772. 729. 19. o 1
3 2 11 2231. 1743. 39. o -3
7 2 1 2231. 1743. 39. o -2
4 2 -10 2231. 1743. 39. o 1
5 2 -10 563. 534. 29. o 1
2 2 14 60872. 70242. 377. o -3
8 2 4 60872. 70242. 377. o -2
6 2 -10 60872. 70242. 377. o 1
5 3 5 7657. 7581. 66. o -3
5 3 -5 7657. 7581. 66. o -2
0 3 -10 7657. 7581. 66. o 1
1 3 -10 138. 124. 19. o 1
4 3 8 109. 146. 29. o -3
6 3 -2 109. 146. 29. o -2
2 3 -10 109. 146. 29. o 1
3 3 -10 1710. 1687. 29. o 1
3 3 11 4164. 4118. 56. o -3
7 3 1 4164. 4118. 56. o -2
4 3 -10 4164. 4118. 56. o 1
5 3 -10 14. 21. 52. < 1
2 3 14 207. 223. 70. o -3
8 3 4 207. 223. 70. o -2
6 3 -10 207. 223. 70. o 1
5 4 5 8309. 9058. 93. o -3
5 4 -5 8309. 9058. 93. o -2
0 4 -10 8309. 9058. 93. o 1
1 4 -10 5180. 5018. 45. o 1
4 4 8 41909. 42910. 130. o -3
6 4 -2 41909. 42910. 130. o -2
2 4 -10 41909. 42910. 130. o 1
3 4 -10 2386. 2210. 33. o 1
3 4 11 4412. 4446. 64. o -3
7 4 1 4412. 4446. 64. o -2
4 4 -10 4412. 4446. 64. o 1
5 4 -10 772. 781. 41. o 1
2 4 14 12515. 14464. 169. o -3
8 4 4 12515. 14464. 169. o -2
6 4 -10 12515. 14464. 169. o 1
7 4 -10 3605. 3772. 132. o 1
5 5 5 11990. 11800. 111. o -3
5 5 -5 11990. 11800. 111. o -2
0 5 -10 11990. 11800. 111. o 1
1 5 -10 1856. 1609. 29. o 1
4 5 8 60. 169. 43. o -3
6 5 -2 60. 169. 43. o -2
2 5 -10 60. 169. 43. o 1
3 5 -10 126. 66. 35. < 1
3 5 11 3101. 3041. 49. o -3
7 5 1 3101. 3041. 49. o -2
4 5 -10 3101. 3041. 49. o 1
5 5 -10 281. 270. 31. o 1
2 5 14 79. 330. 62. o -3
8 5 4 79. 330. 62. o -2
6 5 -10 79. 330. 62. o 1
7 5 -10 4301. 4831. 142. o 1
1 5 17 8233. 7921. 212. o -3
9 5 7 8233. 7921. 212. o -2
8 5 -10 8233. 7921. 212. o 1
5 6 5 2050. 2035. 43. o -3
5 6 -5 2050. 2035. 43. o -2
0 6 -10 2050. 2035. 43. o 1
1 6 -10 3309. 2843. 39. o 1
4 6 8 23585. 28372. 140. o -3
6 6 -2 23585. 28372. 140. o -2
2 6 -10 23585. 28372. 140. o 1
3 6 -10 705. 585. 21. o 1
3 6 11 922. 874. 49. o -3
7 6 1 922. 874. 49. o -2
4 6 -10 922. 874. 49. o 1
5 6 -10 188. 387. 52. o 1
2 6 14 27648. 28747. 223. o -3
8 6 4 27648. 28747. 223. o -2
6 6 -10 27648. 28747. 223. o 1
7 6 -10 1850. 1698. 86. o 1
-9 6 7 812. 468. 64. o -3
-1 6 17 812. 468. 64. o -2
8 6 10 812. 468. 64. o 1
1 6 17 787. 797. 93. o -3
9 6 7 787. 797. 93. o -2
8 6 -10 787. 797. 93. o 1
5 7 5 7008. 7058. 89. o -3
5 7 -5 7008. 7058. 89. o -2
0 7 -10 7008. 7058. 89. o 1
1 7 -10 423. 457. 37. o 1
4 7 8 258. 340. 27. o -3
6 7 -2 258. 340. 27. o -2
2 7 -10 258. 340. 27. o 1
3 7 -10 414. 361. 23. o 1
3 7 11 2357. 2384. 52. o -3
7 7 1 2357. 2384. 52. o -2
4 7 -10 2357. 2384. 52. o 1
5 7 -10 144. 89. 70. < 1
2 7 14 280. 311. 78. o -3
8 7 4 280. 311. 78. o -2
6 7 -10 280. 311. 78. o 1
7 7 -10 1020. 1174. 74. o 1
-9 7 7 6471. 6298. 194. o -3
-1 7 17 6471. 6298. 194. o -2
8 7 10 6471. 6298. 194. o 1
1 7 17 6509. 7493. 204. o -3
9 7 7 6509. 7493. 204. o -2
8 7 -10 6509. 7493. 204. o 1
9 7 10 892. 560. 78. o 1
5 8 5 2054. 1873. 43. o -3
5 8 -5 2054. 1873. 43. o -2
0 8 -10 2054. 1873. 43. o 1
1 8 -10 3175. 2954. 49. o 1
4 8 8 112503. 114382. 278. o -3
6 8 -2 112503. 114382. 278. o -2
2 8 -10 112503. 114382. 278. o 1
3 8 -10 291. 365. 37. o 1
3 8 11 580. 531. 41. o -3
7 8 1 580. 531. 41. o -2
4 8 -10 580. 531. 41. o 1
5 8 -10 1838. 2072. 66. o 1
2 8 14 31730. 35611. 358. o -3
8 8 4 31730. 35611. 358. o -2
6 8 -10 31730. 35611. 358. o 1
7 8 -10 5252. 5183. 109. o 1
-9 8 7 2200. 1461. 84. o -3
-1 8 17 2200. 1461. 84. o -2
8 8 10 2200. 1461. 84. o 1
1 8 17 2165. 2211. 111. o -3
9 8 7 2165. 2211. 111. o -2
8 8 -10 2165. 2211. 111. o 1
9 8 10 150. 185. 113. < 1
5 9 5 6728. 6681. 89. o -3
5 9 -5 6728. 6681. 89. o -2
0 9 -10 6728. 6681. 89. o 1
1 9 10 789. 766. 56. o 1
1 9 -10 789. 754. 27. o 1
4 9 8 93. 136. 29. o -3
6 9 -2 93. 136. 29. o -2
2 9 -10 93. 136. 29. o 1
3 9 -10 1431. 1481. 27. o 1
3 9 11 1928. 1844. 41. o -3
7 9 1 1928. 1844. 41. o -2
4 9 -10 1928. 1844. 41. o 1
5 9 -10 79. 80. 82. < 1
2 9 14 255. 597. 72. o -3
8 9 4 255. 597. 72. o -2
6 9 -10 255. 597. 72. o 1
7 9 10 109. -2. 124. < 1
7 9 -10 109. 8. 66. < 1
-9 9 7 6288. 6125. 167. o -3
-1 9 17 6288. 6125. 167. o -2
8 9 10 6288. 6125. 167. o 1
1 9 17 6410. 7188. 196. o -3
9 9 7 6410. 7188. 196. o -2
8 9 -10 6410. 7188. 196. o 1
9 9 10 1324. 1049. 105. o 1
-5 10 -5 3544. 3502. 109. o -3
-5 10 5 3544. 3502. 109. o -2
0 10 10 3544. 3502. 109. o 1
5 10 5 3544. 3272. 58. o -3
5 10 -5 3544. 3272. 58. o -2
0 10 -10 3544. 3272. 58. o 1
1 10 10 4190. 3706. 115. o 1
1 10 -10 4190. 4102. 58. o 1
4 10 8 24510. 27663. 188. o -3
6 10 -2 24510. 27663. 188. o -2
2 10 -10 24510. 27663. 188. o 1
3 10 -10 808. 834. 21. o 1
3 10 11 719. 466. 31. o -3
7 10 1 719. 466. 31. o -2
4 10 -10 719. 466. 31. o 1
5 10 -10 438. 587. 66. o 1
2 10 14 26163. 29707. 297. o -3
8 10 4 26163. 29707. 297. o -2
6 10 -10 26163. 29707. 297. o 1
7 10 10 6743. 7425. 134. o 1
7 10 -10 6743. 7831. 126. o 1
-9 10 7 2674. 1539. 154. o -3
-1 10 17 2674. 1539. 154. o -2
8 10 10 2674. 1539. 154. o 1
1 10 17 2450. 2895. 124. o -3
9 10 7 2450. 2895. 124. o -2
8 10 -10 2450. 2895. 124. o 1
-5 11 -5 30477. 29435. 422. o -3
-5 11 5 30477. 29435. 422. o -2
0 11 10 30477. 29435. 422. o 1
5 11 5 30477. 30226. 200. o -3
5 11 -5 30477. 30226. 200. o -2
0 11 -10 30477. 30226. 200. o 1
1 11 10 529. 624. 56. o 1
1 11 -10 529. 472. 39. o 1
4 11 8 109. 82. 33. < -3
6 11 -2 109. 82. 33. < -2
2 11 -10 109. 82. 33. < 1
3 11 -10 1980. 1831. 29. o 1
3 11 11 4478. 4821. 56. o -3
7 11 1 4478. 4821. 56. o -2
4 11 -10 4478. 4821. 56. o 1
5 11 -10 766. 768. 49. o 1
-8 11 4 566. 288. 37. o -3
-2 11 14 566. 288. 37. o -2
6 11 10 566. 288. 37. o 1
2 11 14 565. 546. 49. o -3
8 11 4 565. 546. 49. o -2
6 11 -10 565. 546. 49. o 1
7 11 10 543. 482. 74. o 1
7 11 -10 543. 484. 56. o 1
-9 11 7 5020. 4606. 150. o -3
-1 11 17 5020. 4606. 150. o -2
8 11 10 5020. 4606. 150. o 1
1 11 17 4871. 5834. 198. o -3
9 11 7 4871. 5834. 198. o -2
8 11 -10 4871. 5834. 198. o 1
-5 12 -5 3242. 2695. 93. o -3
-5 12 5 3242. 2695. 93. o -2
0 12 10 3242. 2695. 93. o 1
5 12 5 3242. 3105. 58. o -3
5 12 -5 3242. 3105. 58. o -2
0 12 -10 3242. 3105. 58. o 1
1 12 10 2539. 2573. 56. o 1
1 12 -10 2539. 2244. 47. o 1
-6 12 -2 70973. 68963. 393. o -3
-4 12 8 70973. 68963. 393. o -2
2 12 10 70973. 68963. 393. o 1
4 12 8 70526. 71725. 268. o -3
6 12 -2 70526. 71725. 268. o -2
2 12 -10 70526. 71725. 268. o 1
3 12 -10 757. 773. 31. o 1
3 12 11 3830. 3927. 43. o -3
7 12 1 3830. 3927. 43. o -2
4 12 -10 3830. 3927. 43. o 1
5 12 10 678. 771. 62. o 1
5 12 -10 678. 754. 49. o 1
-8 12 4 30411. 35410. 326. o -3
-2 12 14 30411. 35410. 326. o -2
6 12 10 30411. 35410. 326. o 1
2 12 14 31840. 34285. 346. o -3
8 12 4 31840. 34285. 346. o -2
6 12 -10 31840. 34285. 346. o 1
7 12 10 3687. 3554. 87. o 1
7 12 -10 3687. 4232. 91. o 1
-9 12 7 1802. 1508. 66. o -3
-1 12 17 1802. 1508. 66. o -2
8 12 10 1802. 1508. 66. o 1
1 12 17 1895. 1327. 111. o -3
9 12 7 1895. 1327. 111. o -2
8 12 -10 1895. 1327. 111. o 1
-5 13 -5 27337. 27086. 330. o -3
-5 13 5 27337. 27086. 330. o -2
0 13 10 27337. 27086. 330. o 1
5 13 5 27337. 26502. 169. o -3
5 13 -5 27337. 26502. 169. o -2
0 13 -10 27337. 26502. 169. o 1
1 13 10 673. 758. 41. o 1
1 13 -10 673. 721. 37. o 1
-6 13 -2 146. 91. 80. < -3
-4 13 8 146. 91. 80. < -2
2 13 10 146. 91. 80. < 1
4 13 8 144. 220. 47. o -3
6 13 -2 144. 220. 47. o -2
2 13 -10 144. 220. 47. o 1
3 13 10 3776. 3743. 91. o 1
3 13 -10 3776. 3529. 47. o 1
-7 13 1 7554. 9196. 146. o -3
-3 13 11 7554. 9196. 146. o -2
4 13 10 7554. 9196. 146. o 1
3 13 11 7796. 8681. 82. o -3
7 13 1 7796. 8681. 82. o -2
4 13 -10 7796. 8681. 82. o 1
5 13 10 1987. 2058. 68. o 1
5 13 -10 1987. 2085. 45. o 1
-8 13 4 360. 328. 84. o -3
-2 13 14 360. 328. 84. o -2
6 13 10 360. 328. 84. o 1
2 13 14 346. 257. 33. o -3
8 13 4 346. 257. 33. o -2
6 13 -10 346. 257. 33. o 1
7 13 10 36. -70. 82. < 1
7 13 -10 36. 101. 49. < 1
-9 13 7 7787. 6539. 169. o -3
-1 13 17 7787. 6539. 169. o -2
8 13 10 7787. 6539. 169. o 1
1 13 17 7705. 8222. 146. o -3
9 13 7 7705. 8222. 146. o -2
8 13 -10 7705. 8222. 146. o 1
-5 14 -5 3369. 3484. 122. o -3
-5 14 5 3369. 3484. 122. o -2
0 14 10 3369. 3484. 122. o 1
5 14 5 3369. 3307. 113. o -3
5 14 -5 3369. 3307. 113. o -2
0 14 -10 3369. 3307. 113. o 1
1 14 10 4584. 4777. 80. o 1
1 14 -10 4584. 4749. 64. o 1
-6 14 -2 11536. 14304. 179. o -3
-4 14 8 11536. 14304. 179. o -2
2 14 10 11536. 14304. 179. o 1
4 14 8 11779. 13724. 122. o -3
6 14 -2 11779. 13724. 122. o -2
2 14 -10 11779. 13724. 122. o 1
3 14 10 1516. 1714. 64. o 1
3 14 -10 1516. 1512. 33. o 1
-7 14 1 3962. 3216. 86. o -3
-3 14 11 3962. 3216. 86. o -2
4 14 10 3962. 3216. 86. o 1
3 14 11 3666. 3704. 52. o -3
7 14 1 3666. 3704. 52. o -2
4 14 -10 3666. 3704. 52. o 1
5 14 10 15. 142. 76. < 1
5 14 -10 15. 111. 54. < 1
-8 14 4 13395. 17210. 414. o -3
-2 14 14 13395. 17210. 414. o -2
6 14 10 13395. 17210. 414. o 1
2 14 14 14568. 16770. 113. o -3
8 14 4 14568. 16770. 113. o -2
6 14 -10 14568. 16770. 113. o 1
7 14 10 4972. 4639. 107. o 1
7 14 -10 4972. 5686. 122. o 1
-9 14 7 2279. 2382. 115. o -3
-1 14 17 2279. 2382. 115. o -2
8 14 10 2279. 2382. 115. o 1
1 14 17 2348. 1899. 76. o -3
9 14 7 2348. 1899. 76. o -2
8 14 -10 2348. 1899. 76. o 1
-5 15 -5 6040. 6263. 165. o -3
-5 15 5 6040. 6263. 165. o -2
0 15 10 6040. 6263. 165. o 1
5 15 5 6040. 6489. 155. o -3
5 15 -5 6040. 6489. 155. o -2
0 15 -10 6040. 6489. 155. o 1
1 15 10 4936. 4831. 87. o 1
1 15 -10 4936. 5550. 70. o 1
-6 15 -2 372. 369. 64. o -3
-4 15 8 372. 369. 64. o -2
2 15 10 372. 369. 64. o 1
4 15 8 377. 406. 62. o -3
6 15 -2 377. 406. 62. o -2
2 15 -10 377. 406. 62. o 1
3 15 10 602. 556. 82. o 1
3 15 -10 602. 593. 51. o 1
-7 15 1 3127. 3504. 86. o -3
-3 15 11 3127. 3504. 86. o -2
4 15 10 3127. 3504. 86. o 1
3 15 11 3114. 3113. 51. o -3
7 15 1 3114. 3113. 51. o -2
4 15 -10 3114. 3113. 51. o 1
5 15 10 3065. 2787. 93. o 1
5 15 -10 3065. 3274. 70. o 1
-8 15 4 332. 276. 124. < -3
-2 15 14 332. 276. 124. < -2
6 15 10 332. 276. 124. < 1
2 15 14 351. 286. 51. o -3
8 15 4 351. 286. 51. o -2
6 15 -10 351. 286. 51. o 1
7 15 10 461. 363. 84. o 1
7 15 -10 461. 544. 97. o 1
-9 15 7 7146. 6461. 167. o -3
-1 15 17 7146. 6461. 167. o -2
8 15 10 7146. 6461. 167. o 1
1 15 17 7026. 7349. 144. o -3
9 15 7 7026. 7349. 144. o -2
8 15 -10 7026. 7349. 144. o 1
9 15 10 13278. 13704. 270. o 1
-5 16 -5 19953. 20414. 286. o -3
-5 16 5 19953. 20414. 286. o -2
0 16 10 19953. 20414. 286. o 1
5 16 5 19953. 20811. 272. o -3
5 16 -5 19953. 20811. 272. o -2
0 16 -10 19953. 20811. 272. o 1
1 16 10 7366. 7962. 107. o 1
1 16 -10 7366. 7829. 89. o 1
-6 16 -2 31755. 34307. 280. o -3
-4 16 8 31755. 34307. 280. o -2
2 16 10 31755. 34307. 280. o 1
4 16 8 32961. 35100. 233. o -3
6 16 -2 32961. 35100. 233. o -2
2 16 -10 32961. 35100. 233. o 1
3 16 10 551. 661. 68. o 1
3 16 -10 551. 558. 52. o 1
-7 16 1 1537. 2091. 74. o -3
-3 16 11 1537. 2091. 74. o -2
4 16 10 1537. 2091. 74. o 1
3 16 11 1827. 1819. 54. o -3
7 16 1 1827. 1819. 54. o -2
4 16 -10 1827. 1819. 54. o 1
5 16 10 1001. 838. 78. o 1
5 16 -10 1001. 1193. 52. o 1
-8 16 4 6587. 5744. 154. o -3
-2 16 14 6587. 5744. 154. o -2
6 16 10 6587. 5744. 154. o 1
2 16 14 6049. 5053. 66. o -3
8 16 4 6049. 5053. 66. o -2
6 16 -10 6049. 5053. 66. o 1
7 16 10 4023. 3733. 146. o 1
7 16 -10 4023. 3966. 93. o 1
-9 16 7 7425. 5657. 179. o -3
-1 16 17 7425. 5657. 179. o -2
8 16 10 7425. 5657. 179. o 1
1 16 17 6993. 6669. 157. o -3
9 16 7 6993. 6669. 157. o -2
8 16 -10 6993. 6669. 157. o 1
9 16 10 1783. 2019. 144. o 1
-5 17 -5 59538. 59707. 569. o -3
-5 17 5 59538. 59707. 569. o -2
0 17 10 59538. 59707. 569. o 1
5 17 5 59538. 61993. 449. o -3
5 17 -5 59538. 61993. 449. o -2
0 17 -10 59538. 61993. 449. o 1
1 17 10 5381. 4924. 84. o 1
1 17 -10 5381. 4683. 68. o 1
-6 17 -2 437. 470. 51. o -3
-4 17 8 437. 470. 51. o -2
2 17 10 437. 470. 51. o 1
4 17 8 433. 480. 62. o -3
6 17 -2 433. 480. 62. o -2
2 17 -10 433. 480. 62. o 1
3 17 10 1465. 1625. 74. o 1
3 17 -10 1465. 1481. 41. o 1
-7 17 1 6148. 6483. 175. o -3
-3 17 11 6148. 6483. 175. o -2
4 17 10 6148. 6483. 175. o 1
3 17 11 6320. 6504. 74. o -3
7 17 1 6320. 6504. 74. o -2
4 17 -10 6320. 6504. 74. o 1
5 17 10 3932. 4135. 97. o 1
5 17 -10 3932. 3820. 56. o 1
-8 17 4 131. 414. 124. o -3
-2 17 14 131. 414. 124. o -2
6 17 10 131. 414. 124. o 1
2 17 14 137. 239. 56. o -3
8 17 4 137. 239. 56. o -2
6 17 -10 137. 239. 56. o 1
7 17 10 1386. 1593. 103. o 1
7 17 -10 1386. 1434. 70. o 1
-9 17 7 17318. 18669. 410. o -3
-1 17 17 17318. 18669. 410. o -2
8 17 10 17318. 18669. 410. o 1
1 17 17 17593. 19365. 214. o -3
9 17 7 17593. 19365. 214. o -2
8 17 -10 17593. 19365. 214. o 1
9 17 10 1724. 1665. 146. o 1
-5 18 -5 2379. 2571. 109. o -3
-5 18 5 2379. 2571. 109. o -2
0 18 10 2379. 2571. 109. o 1
5 18 5 2379. 1695. 93. o -3
5 18 -5 2379. 1695. 93. o -2
0 18 -10 2379. 1695. 93. o 1
1 18 10 3204. 3294. 68. o 1
1 18 -10 3204. 3152. 56. o 1
-6 18 -2 38845. 42943. 309. o -3
-4 18 8 38845. 42943. 309. o -2
2 18 10 38845. 42943. 309. o 1
4 18 8 39681. 43168. 251. o -3
6 18 -2 39681. 43168. 251. o -2
2 18 -10 39681. 43168. 251. o 1
3 18 10 662. 564. 124. o 1
3 18 -10 662. 744. 64. o 1
-7 18 1 1021. 1300. 130. o -3
-3 18 11 1021. 1300. 130. o -2
4 18 10 1021. 1300. 130. o 1
3 18 11 1097. 1011. 60. o -3
7 18 1 1097. 1011. 60. o -2
4 18 -10 1097. 1011. 60. o 1
5 18 10 1903. 1842. 80. o 1
5 18 -10 1903. 1893. 45. o 1
-8 18 4 43143. 45370. 536. o -3
-2 18 14 43143. 45370. 536. o -2
6 18 10 43143. 45370. 536. o 1
2 18 14 44291. 46058. 245. o -3
8 18 4 44291. 46058. 245. o -2
6 18 -10 44291. 46058. 245. o 1
7 18 10 8408. 9256. 235. o 1
7 18 -10 8408. 9285. 101. o 1
-9 18 7 3376. 2585. 120. o -3
-1 18 17 3376. 2585. 120. o -2
8 18 10 3376. 2585. 120. o 1
1 18 17 3227. 2899. 122. o -3
9 18 7 3227. 2899. 122. o -2
8 18 -10 3227. 2899. 122. o 1
9 18 10 981. 696. 105. o 1
9 18 -10 981. 1090. 122. o 1
-5 19 -5 2450. 2870. 113. o -3
-5 19 5 2450. 2870. 113. o -2
0 19 10 2450. 2870. 113. o 1
5 19 5 2450. 2027. 97. o -3
5 19 -5 2450. 2027. 97. o -2
0 19 -10 2450. 2027. 97. o 1
1 19 10 1669. 1566. 51. o 1
1 19 -10 1669. 1582. 47. o 1
-6 19 -2 41. 142. 66. < -3
-4 19 8 41. 142. 66. < -2
2 19 10 41. 142. 66. < 1
4 19 8 38. 82. 45. < -3
6 19 -2 38. 82. 45. < -2
2 19 -10 38. 82. 45. < 1
3 19 10 1329. 1162. 84. o 1
3 19 -10 1329. 1281. 60. o 1
-7 19 1 14579. 14827. 257. o -3
-3 19 11 14579. 14827. 257. o -2
4 19 10 14579. 14827. 257. o 1
3 19 11 14314. 14217. 117. o -3
7 19 1 14314. 14217. 117. o -2
4 19 -10 14314. 14217. 117. o 1
5 19 10 790. 705. 80. o 1
5 19 -10 790. 816. 54. o 1
-8 19 4 325. 239. 82. < -3
-2 19 14 325. 239. 82. < -2
6 19 10 325. 239. 82. < 1
2 19 14 324. 165. 52. o -3
8 19 4 324. 165. 52. o -2
6 19 -10 324. 165. 52. o 1
7 19 10 764. 750. 86. o 1
7 19 -10 764. 775. 70. o 1
-9 19 7 2621. 2239. 117. o -3
-1 19 17 2621. 2239. 117. o -2
8 19 10 2621. 2239. 117. o 1
1 19 17 2478. 2880. 111. o -3
9 19 7 2478. 2880. 111. o -2
8 19 -10 2478. 2880. 111. o 1
9 19 10 28. 72. 119. < 1
9 19 -10 28. 29. 120. < 1
-10 19 10 116. 291. 111. < -3
0 19 20 116. 291. 111. < -2
10 19 10 116. 291. 111. < 1
-5 20 -5 860. 948. 82. o -3
-5 20 5 860. 948. 82. o -2
0 20 10 860. 948. 82. o 1
5 20 5 860. 985. 140. o -3
5 20 -5 860. 985. 140. o -2
0 20 -10 860. 985. 140. o 1
1 20 10 2646. 2763. 82. o 1
1 20 -10 2646. 2594. 62. o 1
-6 20 -2 8947. 9089. 117. o -3
-4 20 8 8947. 9089. 117. o -2
2 20 10 8947. 9089. 117. o 1
4 20 8 8796. 8939. 87. o -3
6 20 -2 8796. 8939. 87. o -2
2 20 -10 8796. 8939. 87. o 1
3 20 10 5816. 5694. 171. o 1
3 20 -10 5816. 5259. 84. o 1
-7 20 1 3521. 3148. 150. o -3
-3 20 11 3521. 3148. 150. o -2
4 20 10 3521. 3148. 150. o 1
3 20 11 3642. 3224. 64. o -3
7 20 1 3642. 3224. 64. o -2
4 20 -10 3642. 3224. 64. o 1
5 20 10 10535. 12081. 163. o 1
5 20 -10 10535. 10519. 95. o 1
-8 20 4 16595. 14341. 227. o -3
-2 20 14 16595. 14341. 227. o -2
6 20 10 16595. 14341. 227. o 1
2 20 14 15766. 13366. 99. o -3
8 20 4 15766. 13366. 99. o -2
6 20 -10 15766. 13366. 99. o 1
7 20 10 132. 272. 80. o 1
7 20 -10 132. 200. 64. o 1
-9 20 7 773. 1242. 134. o -3
-1 20 17 773. 1242. 134. o -2
8 20 10 773. 1242. 134. o 1
1 20 17 807. 822. 89. o -3
9 20 7 807. 822. 89. o -2
8 20 -10 807. 822. 89. o 1
9 20 10 749. 904. 128. o 1
9 20 -10 749. 647. 103. o 1
-10 20 10 4304. 3613. 155. o -3
0 20 20 4304. 3613. 155. o -2
10 20 10 4304. 3613. 155. o 1
-5 21 -5 960. 956. 128. o -3
-5 21 5 960. 956. 128. o -2
0 21 10 960. 956. 128. o 1
5 21 5 960. 600. 142. o -3
5 21 -5 960. 600. 142. o -2
0 21 -10 960. 600. 142. o 1
1 21 10 1091. 1139. 58. o 1
1 21 -10 1091. 1092. 93. o 1
-6 21 -2 300. 109. 62. < -3
-4 21 8 300. 109. 62. < -2
2 21 10 300. 109. 62. < 1
4 21 8 275. 218. 49. o -3
6 21 -2 275. 218. 49. o -2
2 21 -10 275. 218. 49. o 1
3 21 10 72. 270. 80. o 1
3 21 -10 72. 303. 66. o 1
-7 21 1 3264. 2598. 122. o -3
-3 21 11 3264. 2598. 122. o -2
4 21 10 3264. 2598. 122. o 1
3 21 11 3212. 3461. 68. o -3
7 21 1 3212. 3461. 68. o -2
4 21 -10 3212. 3461. 68. o 1
5 21 10 8240. 8957. 200. o 1
5 21 -10 8240. 9176. 84. o 1
-8 21 4 560. 657. 74. o -3
-2 21 14 560. 657. 74. o -2
6 21 10 560. 657. 74. o 1
2 21 14 587. 550. 54. o -3
8 21 4 587. 550. 54. o -2
6 21 -10 587. 550. 54. o 1
7 21 10 1807. 1148. 120. o 1
7 21 -10 1807. 2470. 97. o 1
-9 21 7 1906. 2744. 154. o -3
-1 21 17 1906. 2744. 154. o -2
8 21 10 1906. 2744. 154. o 1
1 21 17 1967. 1285. 105. o -3
9 21 7 1967. 1285. 105. o -2
8 21 -10 1967. 1285. 105. o 1
9 21 10 5080. 4936. 140. o 1
9 21 -10 5080. 5960. 167. o 1
-10 21 10 233. 146. 119. < -3
0 21 20 233. 146. 119. < -2
10 21 10 233. 146. 119. < 1
-5 22 -5 4837. 5035. 155. o -3
-5 22 5 4837. 5035. 155. o -2
0 22 10 4837. 5035. 155. o 1
5 22 5 4837. 4615. 165. o -3
5 22 -5 4837. 4615. 165. o -2
0 22 -10 4837. 4615. 165. o 1
1 22 10 493. 756. 78. o 1
1 22 -10 493. 641. 93. o 1
-6 22 -2 7771. 7089. 109. o -3
-4 22 8 7771. 7089. 109. o -2
2 22 10 7771. 7089. 109. o 1
4 22 8 7909. 7274. 87. o -3
6 22 -2 7909. 7274. 87. o -2
2 22 -10 7909. 7274. 87. o 1
3 22 10 86. 148. 84. < 1
3 22 -10 86. 119. 64. < 1
-7 22 1 556. 532. 126. o -3
-3 22 11 556. 532. 126. o -2
4 22 10 556. 532. 126. o 1
3 22 11 560. 667. 72. o -3
7 22 1 560. 667. 72. o -2
4 22 -10 560. 667. 72. o 1
5 22 10 997. 970. 130. o 1
5 22 -10 997. 927. 58. o 1
-8 22 4 18358. 20177. 284. o -3
-2 22 14 18358. 20177. 284. o -2
6 22 10 18358. 20177. 284. o 1
2 22 14 18698. 17960. 117. o -3
8 22 4 18698. 17960. 117. o -2
6 22 -10 18698. 17960. 117. o 1
7 22 10 2660. 2759. 154. o 1
7 22 -10 2660. 2903. 111. o 1
-9 22 7 3016. 2258. 194. o -3
-1 22 17 3016. 2258. 194. o -2
8 22 10 3016. 2258. 194. o 1
9 22 10 923. 832. 134. o 1
9 22 -10 923. 764. 117. o 1
-10 22 10 18928. 19728. 455. o -3
0 22 20 18928. 19728. 455. o -2
10 22 10 18928. 19728. 455. o 1
11 22 10 676. 192. 93. < 1
-5 23 -5 18737. 20053. 307. o -3
-5 23 5 18737. 20053. 307. o -2
0 23 10 18737. 20053. 307. o 1
5 23 5 18737. 20558. 330. o -3
5 23 -5 18737. 20558. 330. o -2
0 23 -10 18737. 20558. 330. o 1
1 23 10 2337. 2075. 93. o 1
1 23 -10 2337. 2713. 93. o 1
-6 23 -2 188. 218. 68. o -3
-4 23 8 188. 218. 68. o -2
2 23 10 188. 218. 68. o 1
4 23 8 186. 37. 54. < -3
6 23 -2 186. 37. 54. < -2
2 23 -10 186. 37. 54. < 1
3 23 10 1170. 1145. 78. o 1
3 23 -10 1170. 1135. 78. o 1
-7 23 1 3242. 3053. 132. o -3
-3 23 11 3242. 3053. 132. o -2
4 23 10 3242. 3053. 132. o 1
3 23 11 3229. 3622. 76. o -3
7 23 1 3229. 3622. 76. o -2
4 23 -10 3229. 3622. 76. o 1
5 23 10 1747. 2077. 109. o 1
5 23 -10 1747. 1784. 49. o 1
-8 23 4 737. 873. 103. o -3
-2 23 14 737. 873. 103. o -2
6 23 10 737. 873. 103. o 1
2 23 14 819. 694. 45. o -3
8 23 4 819. 694. 45. o -2
6 23 -10 819. 694. 45. o 1
7 23 10 118. 330. 113. < 1
7 23 -10 118. 243. 86. < 1
-9 23 7 10260. 10721. 278. o -3
-1 23 17 10260. 10721. 278. o -2
8 23 10 10260. 10721. 278. o 1
1 23 17 10250. 9835. 157. o -3
9 23 7 10250. 9835. 157. o -2
8 23 -10 10250. 9835. 157. o 1
9 23 10 3107. 2781. 152. o 1
9 23 -10 3107. 2956. 154. o 1
-10 23 10 365. 373. 111. o -3
0 23 20 365. 373. 111. o -2
10 23 10 365. 373. 111. o 1
0 23 20 390. 229. 99. < -3
10 23 10 390. 229. 99. < -2
10 23 -10 390. 229. 99. < 1
11 23 10 15. 165. 91. < 1
-5 24 -5 3793. 3059. 128. o -3
-5 24 5 3793. 3059. 128. o -2
0 24 10 3793. 3059. 128. o 1
5 24 5 3793. 4005. 157. o -3
5 24 -5 3793. 4005. 157. o -2
0 24 -10 3793. 4005. 157. o 1
1 24 10 8755. 9250. 154. o 1
1 24 -10 8755. 9145. 146. o 1
-6 24 -2 38452. 40951. 369. o -3
-4 24 8 38452. 40951. 369. o -2
2 24 10 38452. 40951. 369. o 1
4 24 8 37609. 37321. 258. o -3
6 24 -2 37609. 37321. 258. o -2
2 24 -10 37609. 37321. 258. o 1
3 24 10 3507. 3531. 103. o 1
3 24 -10 3507. 3533. 89. o 1
-7 24 1 1385. 1741. 95. o -3
-3 24 11 1385. 1741. 95. o -2
4 24 10 1385. 1741. 95. o 1
3 24 11 1425. 1492. 91. o -3
7 24 1 1425. 1492. 91. o -2
4 24 -10 1425. 1492. 91. o 1
5 24 10 511. 185. 122. < 1
5 24 -10 511. 567. 39. o 1
-8 24 4 22803. 25385. 484. o -3
-2 24 14 22803. 25385. 484. o -2
6 24 10 22803. 25385. 484. o 1
2 24 14 24337. 25008. 185. o -3
8 24 4 24337. 25008. 185. o -2
6 24 -10 24337. 25008. 185. o 1
7 24 10 7003. 6778. 229. o 1
7 24 -10 7003. 7246. 134. o 1
-9 24 7 1537. 1343. 140. o -3
-1 24 17 1537. 1343. 140. o -2
8 24 10 1537. 1343. 140. o 1
1 24 17 1622. 968. 86. o -3
9 24 7 1622. 968. 86. o -2
8 24 -10 1622. 968. 86. o 1
9 24 10 1427. 1288. 132. o 1
9 24 -10 1427. 977. 117. o 1
-10 24 10 30650. 28281. 470. o -3
0 24 20 30650. 28281. 470. o -2
10 24 10 30650. 28281. 470. o 1
0 24 20 30354. 23900. 476. o -3
10 24 10 30354. 23900. 476. o -2
10 24 -10 30354. 23900. 476. o 1
-5 25 -5 8091. 8710. 235. o -3
-5 25 5 8091. 8710. 235. o -2
0 25 10 8091. 8710. 235. o 1
5 25 5 8091. 8900. 237. o -3
5 25 -5 8091. 8900. 237. o -2
0 25 -10 8091. 8900. 237. o 1
1 25 10 3327. 3719. 103. o 1
1 25 -10 3327. 3644. 105. o 1
-6 25 -2 92. -6. 87. < -3
-4 25 8 92. -6. 87. < -2
2 25 10 92. -6. 87. < 1
4 25 8 87. 122. 56. < -3
6 25 -2 87. 122. 56. < -2
2 25 -10 87. 122. 56. < 1
3 25 10 1934. 1759. 74. o 1
3 25 -10 1934. 1875. 66. o 1
-7 25 1 10413. 13265. 262. o -3
-3 25 11 10413. 13265. 262. o -2
4 25 10 10413. 13265. 262. o 1
3 25 11 11119. 11906. 154. o -3
7 25 1 11119. 11906. 154. o -2
4 25 -10 11119. 11906. 154. o 1
5 25 10 1354. 1485. 124. o 1
5 25 -10 1354. 1321. 74. o 1
-8 25 4 118. 167. 99. < -3
-2 25 14 118. 167. 99. < -2
6 25 10 118. 167. 99. < 1
2 25 14 115. 146. 54. < -3
8 25 4 115. 146. 54. < -2
6 25 -10 115. 146. 54. < 1
7 25 10 338. 206. 130. < 1
7 25 -10 338. 319. 74. o 1
-9 25 7 5354. 5890. 198. o -3
-1 25 17 5354. 5890. 198. o -2
8 25 10 5354. 5890. 198. o 1
1 25 17 5455. 4487. 124. o -3
9 25 7 5455. 4487. 124. o -2
8 25 -10 5455. 4487. 124. o 1
-10 25 10 364. 146. 111. < -3
0 25 20 364. 146. 111. < -2
10 25 10 364. 146. 111. < 1
0 25 20 375. 239. 86. < -3
10 25 10 375. 239. 86. < -2
10 25 -10 375. 239. 86. < 1
-5 26 -5 1196. 880. 89. o -3
-5 26 5 1196. 880. 89. o -2
0 26 10 1196. 880. 89. o 1
5 26 5 1196. 1314. 130. o -3
5 26 -5 1196. 1314. 130. o -2
0 26 -10 1196. 1314. 130. o 1
1 26 10 3247. 3912. 120. o 1
1 26 -10 3247. 4157. 113. o 1
-6 26 -2 5420. 5033. 136. o -3
-4 26 8 5420. 5033. 136. o -2
2 26 10 5420. 5033. 136. o 1
4 26 8 5127. 5115. 101. o -3
6 26 -2 5127. 5115. 101. o -2
2 26 -10 5127. 5115. 101. o 1
3 26 10 5222. 4994. 155. o 1
3 26 -10 5222. 5350. 115. o 1
-7 26 1 1282. 919. 126. o -3
-3 26 11 1282. 919. 126. o -2
4 26 10 1282. 919. 126. o 1
3 26 11 1113. 723. 99. o -3
7 26 1 1113. 723. 99. o -2
4 26 -10 1113. 723. 99. o 1
5 26 10 737. 628. 119. o 1
5 26 -10 737. 499. 66. o 1
-8 26 4 755. 583. 115. o -3
-2 26 14 755. 583. 115. o -2
6 26 10 755. 583. 115. o 1
2 26 14 740. 616. 51. o -3
8 26 4 740. 616. 51. o -2
6 26 -10 740. 616. 51. o 1
7 26 10 7455. 5836. 198. o 1
7 26 -10 7455. 7165. 132. o 1
-9 26 7 1125. 787. 138. o -3
-1 26 17 1125. 787. 138. o -2
8 26 10 1125. 787. 138. o 1
1 26 17 1139. 698. 82. o -3
9 26 7 1139. 698. 82. o -2
8 26 -10 1139. 698. 82. o 1
9 26 10 2074. 1100. 126. o 1
9 26 -10 2074. 431. 122. o 1
-5 27 -5 26028. 27365. 439. o -3
-5 27 5 26028. 27365. 439. o -2
0 27 10 26028. 27365. 439. o 1
5 27 5 26028. 27692. 377. o -3
5 27 -5 26028. 27692. 377. o -2
0 27 -10 26028. 27692. 377. o 1
1 27 10 15556. 15760. 225. o 1
1 27 -10 15556. 16172. 225. o 1
-6 27 -2 281. 291. 84. o -3
-4 27 8 281. 291. 84. o -2
2 27 10 281. 291. 84. o 1
4 27 8 297. 264. 82. o -3
6 27 -2 297. 264. 82. o -2
2 27 -10 297. 264. 82. o 1
3 27 10 1817. 1784. 87. o 1
3 27 -10 1817. 2062. 72. o 1
-7 27 1 7738. 7365. 134. o -3
-3 27 11 7738. 7365. 134. o -2
4 27 10 7738. 7365. 134. o 1
3 27 11 7404. 8206. 124. o -3
7 27 1 7404. 8206. 124. o -2
4 27 -10 7404. 8206. 124. o 1
5 27 10 5942. 5161. 163. o 1
5 27 -10 5942. 6844. 107. o 1
-8 27 4 76. 146. 93. < -3
-2 27 14 76. 146. 93. < -2
6 27 10 76. 146. 93. < 1
2 27 14 81. 122. 56. < -3
8 27 4 81. 122. 56. < -2
6 27 -10 81. 122. 56. < 1
7 27 10 4434. 3820. 154. o 1
7 27 -10 4434. 4297. 115. o 1
9 27 -10 9903. 10474. 338. o 1
-5 28 -5 12223. 12736. 249. o -3
-5 28 5 12223. 12736. 249. o -2
0 28 10 12223. 12736. 249. o 1
5 28 5 12223. 13150. 257. o -3
5 28 -5 12223. 13150. 257. o -2
0 28 -10 12223. 13150. 257. o 1
1 28 10 8217. 7482. 152. o 1
1 28 -10 8217. 8358. 152. o 1
-6 28 -2 17188. 15612. 253. o -3
-4 28 8 17188. 15612. 253. o -2
2 28 10 17188. 15612. 253. o 1
4 28 8 16975. 16842. 222. o -3
6 28 -2 16975. 16842. 222. o -2
2 28 -10 16975. 16842. 222. o 1
3 28 10 3369. 2758. 97. o 1
3 28 -10 3369. 3667. 80. o 1
-7 28 1 1886. 2048. 107. o -3
-3 28 11 1886. 2048. 107. o -2
4 28 10 1886. 2048. 107. o 1
3 28 11 1985. 1663. 80. o -3
7 28 1 1985. 1663. 80. o -2
4 28 -10 1985. 1663. 80. o 1
5 28 10 1557. 1516. 128. o 1
5 28 -10 1557. 1904. 80. o 1
-8 28 4 8602. 6846. 190. o -3
-2 28 14 8602. 6846. 190. o -2
6 28 10 8602. 6846. 190. o 1
2 28 14 8787. 7124. 107. o -3
8 28 4 8787. 7124. 107. o -2
6 28 -10 8787. 7124. 107. o 1
7 28 -10 276. 218. 74. < 1
-5 29 -5 18699. 17122. 371. o -3
-5 29 5 18699. 17122. 371. o -2
0 29 10 18699. 17122. 371. o 1
5 29 5 18699. 18088. 305. o -3
5 29 -5 18699. 18088. 305. o -2
0 29 -10 18699. 18088. 305. o 1
1 29 10 1040. 851. 89. o 1
1 29 -10 1040. 1036. 89. o 1
-6 29 -2 153. 223. 82. < -3
-4 29 8 153. 223. 82. < -2
2 29 10 153. 223. 82. < 1
4 29 8 142. 109. 78. < -3
6 29 -2 142. 109. 78. < -2
2 29 -10 142. 109. 78. < 1
3 29 10 858. 808. 89. o 1
3 29 -10 858. 682. 58. o 1
-7 29 1 3149. 2476. 101. o -3
-3 29 11 3149. 2476. 101. o -2
4 29 10 3149. 2476. 101. o 1
3 29 11 3088. 2686. 86. o -3
7 29 1 3088. 2686. 86. o -2
4 29 -10 3088. 2686. 86. o 1
5 29 10 2944. 2771. 157. o 1
5 29 -10 2944. 3278. 86. o 1
-8 29 4 227. 163. 103. < -3
-2 29 14 227. 163. 103. < -2
6 29 10 227. 163. 103. < 1
2 29 14 235. -16. 49. < -3
8 29 4 235. -16. 49. < -2
6 29 -10 235. -16. 49. < 1
7 29 -10 323. 64. 49. < 1
-5 30 -5 81. 212. 117. < -3
-5 30 5 81. 212. 117. < -2
0 30 10 81. 212. 117. < 1
5 30 5 81. 241. 122. < -3
5 30 -5 81. 241. 122. < -2
0 30 -10 81. 241. 122. < 1
1 30 10 648. 756. 119. o 1
1 30 -10 648. 482. 84. o 1
-6 30 -2 34320. 33275. 396. o -3
-4 30 8 34320. 33275. 396. o -2
2 30 10 34320. 33275. 396. o 1
4 30 8 34020. 34402. 358. o -3
6 30 -2 34020. 34402. 358. o -2
2 30 -10 34020. 34402. 358. o 1
3 30 10 2338. 2233. 101. o 1
3 30 -10 2338. 2176. 68. o 1
-7 30 1 750. 282. 76. o -3
-3 30 11 750. 282. 76. o -2
4 30 10 750. 282. 76. o 1
3 30 11 854. 412. 68. o -3
7 30 1 854. 412. 68. o -2
4 30 -10 854. 412. 68. o 1
-5 31 -5 1451. 579. 132. o -3
-5 31 5 1451. 579. 132. o -2
0 31 10 1451. 579. 132. o 1
5 31 5 1451. 1104. 132. o -3
5 31 -5 1451. 1104. 132. o -2
0 31 -10 1451. 1104. 132. o 1
1 31 10 203. 41. 95. < 1
1 31 -10 203. 12. 82. < 1
-6 31 -2 209. -41. 72. < -3
-4 31 8 209. -41. 72. < -2
2 31 10 209. -41. 72. < 1
4 31 8 220. 264. 72. o -3
6 31 -2 220. 264. 72. o -2
2 31 -10 220. 264. 72. o 1
3 31 10 735. 309. 76. o 1
3 31 -10 735. 188. 56. o 1
-5 32 -5 1866. 501. 119. o -3
-5 32 5 1866. 501. 119. o -2
0 32 10 1866. 501. 119. o 1
5 32 5 1866. 845. 122. o -3
5 32 -5 1866. 845. 122. o -2
0 32 -10 1866. 845. 122. o 1
1 32 10 1548. 941. 113. o 1
1 32 -10 1548. 793. 82. o 1
-6 32 -2 1319. 635. 82. o -3
-4 32 8 1319. 635. 82. o -2
2 32 10 1319. 635. 82. o 1
4 32 8 1369. 593. 87. o -3
6 32 -2 1369. 593. 87. o -2
2 32 -10 1369. 593. 87. o 1
2 0 -11 1509. 1479. 33. o 1
4 0 -11 2371. 2748. 64. o 1
5 1 7 302. 276. 19. o -3
6 1 -4 302. 276. 19. o -2
1 1 -11 302. 276. 19. o 1
2 1 -11 3021. 2688. 27. o 1
4 1 10 2568. 2289. 43. o -3
7 1 -1 2568. 2289. 43. o -2
3 1 -11 2568. 2289. 43. o 1
4 1 -11 601. 616. 27. o 1
3 1 13 4634. 4190. 91. o -3
8 1 2 4634. 4190. 91. o -2
5 1 -11 4634. 4190. 91. o 1
6 1 -11 332. 278. 86. o 1
2 2 -11 6843. 6376. 45. o 1
4 2 10 4224. 3966. 49. o -3
7 2 -1 4224. 3966. 49. o -2
3 2 -11 4224. 3966. 49. o 1
4 2 -11 1418. 1236. 35. o 1
3 2 13 212. 198. 47. o -3
8 2 2 212. 198. 47. o -2
5 2 -11 212. 198. 47. o 1
6 2 -11 3780. 4464. 117. o 1
5 3 7 5301. 5501. 45. o -3
6 3 -4 5301. 5501. 45. o -2
1 3 -11 5301. 5501. 45. o 1
2 3 -11 4199. 3601. 39. o 1
4 3 10 2945. 2851. 43. o -3
7 3 -1 2945. 2851. 43. o -2
3 3 -11 2945. 2851. 43. o 1
4 3 -11 480. 385. 47. o 1
3 3 13 4132. 3811. 66. o -3
8 3 2 4132. 3811. 66. o -2
5 3 -11 4132. 3811. 66. o 1
6 3 -11 14. 86. 76. < 1
5 4 7 1813. 1650. 27. o -3
6 4 -4 1813. 1650. 27. o -2
1 4 -11 1813. 1650. 27. o 1
2 4 -11 9283. 8916. 72. o 1
4 4 10 8128. 9153. 72. o -3
7 4 -1 8128. 9153. 72. o -2
3 4 -11 8128. 9153. 72. o 1
4 4 -11 465. 406. 39. o 1
3 4 13 1311. 1329. 45. o -3
8 4 2 1311. 1329. 45. o -2
5 4 -11 1311. 1329. 45. o 1
6 4 -11 2252. 2239. 70. o 1
5 5 7 3301. 3119. 43. o -3
6 5 -4 3301. 3119. 43. o -2
1 5 -11 3301. 3119. 43. o 1
2 5 -11 1688. 1716. 49. o 1
4 5 10 2245. 2124. 47. o -3
7 5 -1 2245. 2124. 47. o -2
3 5 -11 2245. 2124. 47. o 1
4 5 -11 382. 336. 56. o 1
3 5 13 6086. 6403. 99. o -3
8 5 2 6086. 6403. 99. o -2
5 5 -11 6086. 6403. 99. o 1
6 5 -11 1505. 1788. 66. o 1
2 5 16 6478. 8731. 208. o -3
9 5 5 6478. 8731. 208. o -2
7 5 -11 6478. 8731. 208. o 1
5 6 7 1566. 1446. 31. o -3
6 6 -4 1566. 1446. 31. o -2
1 6 -11 1566. 1446. 31. o 1
2 6 -11 266. 330. 37. o 1
4 6 10 1762. 1891. 35. o -3
7 6 -1 1762. 1891. 35. o -2
3 6 -11 1762. 1891. 35. o 1
4 6 -11 92. 237. 54. o 1
3 6 13 490. 476. 43. o -3
8 6 2 490. 476. 43. o -2
5 6 -11 490. 476. 43. o 1
6 6 -11 2759. 2324. 76. o 1
2 6 16 3919. 5235. 115. o -3
9 6 5 3919. 5235. 115. o -2
7 6 -11 3919. 5235. 115. o 1
8 6 -11 3239. 3535. 155. o 1
5 7 7 4515. 3988. 70. o -3
6 7 -4 4515. 3988. 70. o -2
1 7 -11 4515. 3988. 70. o 1
2 7 -11 290. 266. 31. o 1
4 7 10 2144. 2031. 37. o -3
7 7 -1 2144. 2031. 37. o -2
3 7 -11 2144. 2031. 37. o 1
4 7 -11 701. 692. 35. o 1
3 7 13 701. 616. 45. o -3
8 7 2 701. 616. 45. o -2
5 7 -11 701. 616. 45. o 1
6 7 -11 1557. 1673. 62. o 1
2 7 16 4784. 4779. 115. o -3
9 7 5 4784. 4779. 115. o -2
7 7 -11 4784. 4779. 115. o 1
8 7 11 84. -45. 130. < 1
8 7 -11 84. -122. 132. < 1
-10 7 8 1546. 1479. 95. o -3
-1 7 19 1546. 1479. 95. o -2
9 7 11 1546. 1479. 95. o 1
5 8 7 1670. 1759. 45. o -3
6 8 -4 1670. 1759. 45. o -2
1 8 -11 1670. 1759. 45. o 1
2 8 -11 736. 626. 33. o 1
4 8 10 792. 682. 25. o -3
7 8 -1 792. 682. 25. o -2
3 8 -11 792. 682. 25. o 1
4 8 -11 1149. 1080. 43. o 1
3 8 13 1254. 1356. 54. o -3
8 8 2 1254. 1356. 54. o -2
5 8 -11 1254. 1356. 54. o 1
6 8 -11 3646. 4139. 91. o 1
2 8 16 749. 874. 56. o -3
9 8 5 749. 874. 56. o -2
7 8 -11 749. 874. 56. o 1
8 8 11 1010. 886. 130. o 1
8 8 -11 1010. 888. 76. o 1
-10 8 8 1531. 1306. 87. o -3
-1 8 19 1531. 1306. 87. o -2
9 8 11 1531. 1306. 87. o 1
1 8 19 1539. 1438. 95. o -3
10 8 8 1539. 1438. 95. o -2
9 8 -11 1539. 1438. 95. o 1
5 9 7 7709. 7381. 101. o -3
6 9 -4 7709. 7381. 101. o -2
1 9 -11 7709. 7381. 101. o 1
2 9 -11 816. 754. 37. o 1
4 9 10 1571. 1296. 31. o -3
7 9 -1 1571. 1296. 31. o -2
3 9 -11 1571. 1296. 31. o 1
4 9 -11 1863. 1570. 37. o 1
3 9 13 3263. 3340. 82. o -3
8 9 2 3263. 3340. 82. o -2
5 9 -11 3263. 3340. 82. o 1
6 9 -11 2347. 3004. 84. o 1
2 9 16 4715. 3953. 93. o -3
9 9 5 4715. 3953. 93. o -2
7 9 -11 4715. 3953. 93. o 1
8 9 11 65. 25. 124. < 1
8 9 -11 65. 144. 56. < 1
-10 9 8 1744. 1071. 82. o -3
-1 9 19 1744. 1071. 82. o -2
9 9 11 1744. 1071. 82. o 1
1 9 19 1695. 1937. 107. o -3
10 9 8 1695. 1937. 107. o -2
9 9 -11 1695. 1937. 107. o 1
5 10 7 6168. 6123. 84. o -3
6 10 -4 6168. 6123. 84. o -2
1 10 -11 6168. 6123. 84. o 1
2 10 -11 1337. 1201. 43. o 1
4 10 10 790. 847. 35. o -3
7 10 -1 790. 847. 35. o -2
3 10 -11 790. 847. 35. o 1
4 10 -11 2124. 1920. 43. o 1
3 10 13 6874. 8035. 136. o -3
8 10 2 6874. 8035. 136. o -2
5 10 -11 6874. 8035. 136. o 1
6 10 -11 1245. 942. 52. o 1
-9 10 5 11667. 12845. 179. o -3
-2 10 16 11667. 12845. 179. o -2
7 10 11 11667. 12845. 179. o 1
2 10 16 11585. 13512. 179. o -3
9 10 5 11585. 13512. 179. o -2
7 10 -11 11585. 13512. 179. o 1
8 10 11 1271. 1158. 91. o 1
8 10 -11 1271. 1916. 103. o 1
-10 10 8 2291. 2740. 107. o -3
-1 10 19 2291. 2740. 107. o -2
9 10 11 2291. 2740. 107. o 1
1 10 19 2469. 1693. 109. o -3
10 10 8 2469. 1693. 109. o -2
9 10 -11 2469. 1693. 109. o 1
-6 11 -4 4303. 3937. 82. o -3
-5 11 7 4303. 3937. 82. o -2
1 11 11 4303. 3937. 82. o 1
5 11 7 4434. 4588. 66. o -3
6 11 -4 4434. 4588. 66. o -2
1 11 -11 4434. 4588. 66. o 1
2 11 -11 1752. 1842. 51. o 1
4 11 10 5637. 5859. 70. o -3
7 11 -1 5637. 5859. 70. o -2
3 11 -11 5637. 5859. 70. o 1
4 11 -11 696. 534. 31. o 1
3 11 13 3975. 3947. 89. o -3
8 11 2 3975. 3947. 89. o -2
5 11 -11 3975. 3947. 89. o 1
6 11 11 1044. 1065. 76. o 1
6 11 -11 1044. 1255. 60. o 1
-9 11 5 1844. 1867. 76. o -3
-2 11 16 1844. 1867. 76. o -2
7 11 11 1844. 1867. 76. o 1
2 11 16 1861. 1770. 76. o -3
9 11 5 1861. 1770. 76. o -2
7 11 -11 1861. 1770. 76. o 1
8 11 11 1591. 1277. 64. o 1
8 11 -11 1591. 1749. 70. o 1
1 11 19 901. 1234. 185. o -3
10 11 8 901. 1234. 185. o -2
9 11 -11 901. 1234. 185. o 1
-6 12 -4 1151. 1106. 43. o -3
-5 12 7 1151. 1106. 43. o -2
1 12 11 1151. 1106. 43. o 1
5 12 7 1160. 968. 35. o -3
6 12 -4 1160. 968. 35. o -2
1 12 -11 1160. 968. 35. o 1
2 12 11 1222. 929. 70. o 1
2 12 -11 1222. 923. 39. o 1
4 12 10 7103. 7248. 70. o -3
7 12 -1 7103. 7248. 70. o -2
3 12 -11 7103. 7248. 70. o 1
4 12 -11 360. 408. 49. o 1
-8 12 2 5423. 5558. 140. o -3
-3 12 13 5423. 5558. 140. o -2
5 12 11 5423. 5558. 140. o 1
3 12 13 5550. 5764. 113. o -3
8 12 2 5550. 5764. 113. o -2
5 12 -11 5550. 5764. 113. o 1
6 12 11 632. 707. 47. o 1
6 12 -11 632. 723. 51. o 1
-9 12 5 4090. 3820. 97. o -3
-2 12 16 4090. 3820. 97. o -2
7 12 11 4090. 3820. 97. o 1
2 12 16 3603. 4769. 99. o -3
9 12 5 3603. 4769. 99. o -2
7 12 -11 3603. 4769. 99. o 1
8 12 11 145. 107. 89. < 1
8 12 -11 145. 210. 72. < 1
1 12 19 781. 192. 169. < -3
10 12 8 781. 192. 169. < -2
9 12 -11 781. 192. 169. < 1
-6 13 -4 5866. 5159. 84. o -3
-5 13 7 5866. 5159. 84. o -2
1 13 11 5866. 5159. 84. o 1
5 13 7 5832. 5783. 68. o -3
6 13 -4 5832. 5783. 68. o -2
1 13 -11 5832. 5783. 68. o 1
2 13 11 1801. 2190. 70. o 1
2 13 -11 1801. 1852. 51. o 1
-7 13 -1 5625. 7307. 132. o -3
-4 13 10 5625. 7307. 132. o -2
3 13 11 5625. 7307. 132. o 1
4 13 10 6121. 6351. 87. o -3
7 13 -1 6121. 6351. 87. o -2
3 13 -11 6121. 6351. 87. o 1
4 13 11 2638. 2668. 64. o 1
4 13 -11 2637. 2721. 43. o 1
-8 13 2 3870. 4685. 99. o -3
-3 13 13 3870. 4685. 99. o -2
5 13 11 3870. 4685. 99. o 1
3 13 13 3953. 3914. 91. o -3
8 13 2 3953. 3914. 91. o -2
5 13 -11 3953. 3914. 91. o 1
6 13 11 3101. 3249. 72. o 1
6 13 -11 3101. 3111. 84. o 1
-9 13 5 2139. 2587. 87. o -3
-2 13 16 2139. 2587. 87. o -2
7 13 11 2139. 2587. 87. o 1
2 13 16 2459. 2474. 95. o -3
9 13 5 2459. 2474. 95. o -2
7 13 -11 2459. 2474. 95. o 1
8 13 11 104. 82. 117. < 1
8 13 -11 104. -119. 66. < 1
1 13 19 2518. 3136. 152. o -3
10 13 8 2518. 3136. 152. o -2
9 13 -11 2518. 3136. 152. o 1
-6 14 -4 13301. 14207. 187. o -3
-5 14 7 13301. 14207. 187. o -2
1 14 11 13301. 14207. 187. o 1
5 14 7 13590. 15070. 124. o -3
6 14 -4 13590. 15070. 124. o -2
1 14 -11 13590. 15070. 124. o 1
2 14 11 41. 58. 76. < 1
2 14 -11 41. 33. 54. < 1
-7 14 -1 5157. 4372. 95. o -3
-4 14 10 5157. 4372. 95. o -2
3 14 11 5157. 4372. 95. o 1
4 14 10 4703. 5498. 68. o -3
7 14 -1 4703. 5498. 68. o -2
3 14 -11 4703. 5498. 68. o 1
4 14 11 3196. 3399. 84. o 1
4 14 -11 3196. 3335. 43. o 1
6 14 11 2861. 3055. 82. o 1
6 14 -11 2861. 3488. 87. o 1
-9 14 5 8056. 10348. 155. o -3
-2 14 16 8056. 10348. 155. o -2
7 14 11 8056. 10348. 155. o 1
2 14 16 8015. 9318. 136. o -3
9 14 5 8015. 9318. 136. o -2
7 14 -11 8015. 9318. 136. o 1
8 14 11 1482. 1584. 103. o 1
8 14 -11 1482. 1592. 72. o 1
-10 14 8 626. 1069. 119. o -3
-1 14 19 626. 1069. 119. o -2
9 14 11 626. 1069. 119. o 1
1 14 19 664. 521. 124. o -3
10 14 8 664. 521. 124. o -2
9 14 -11 664. 521. 124. o 1
-6 15 -4 5545. 5772. 103. o -3
-5 15 7 5545. 5772. 103. o -2
1 15 11 5545. 5772. 103. o 1
5 15 7 5371. 5189. 70. o -3
6 15 -4 5371. 5189. 70. o -2
1 15 -11 5371. 5189. 70. o 1
2 15 11 94. 31. 82. < 1
2 15 -11 94. 37. 70. < 1
-7 15 -1 1822. 2291. 80. o -3
-4 15 10 1822. 2291. 80. o -2
3 15 11 1822. 2291. 80. o 1
4 15 10 1981. 1805. 43. o -3
7 15 -1 1981. 1805. 43. o -2
3 15 -11 1981. 1805. 43. o 1
4 15 11 1256. 1152. 80. o 1
4 15 -11 1256. 1164. 43. o 1
-8 15 2 2425. 2414. 80. o -3
-3 15 13 2425. 2414. 80. o -2
5 15 11 2425. 2414. 80. o 1
3 15 13 2492. 2285. 45. o -3
8 15 2 2492. 2285. 45. o -2
5 15 -11 2492. 2285. 45. o 1
6 15 11 5442. 5490. 111. o 1
6 15 -11 5442. 6341. 117. o 1
-9 15 5 3237. 3869. 136. o -3
-2 15 16 3237. 3869. 136. o -2
7 15 11 3237. 3869. 136. o 1
2 15 16 3434. 2913. 86. o -3
9 15 5 3434. 2913. 86. o -2
7 15 -11 3434. 2913. 86. o 1
8 15 11 564. 461. 150. o 1
8 15 -11 564. 608. 95. o 1
-10 15 8 7784. 6411. 231. o -3
-1 15 19 7784. 6411. 231. o -2
9 15 11 7784. 6411. 231. o 1
-6 16 -4 2982. 3008. 84. o -3
-5 16 7 2982. 3008. 84. o -2
1 16 11 2982. 3008. 84. o 1
5 16 7 3266. 3063. 54. o -3
6 16 -4 3266. 3063. 54. o -2
1 16 -11 3266. 3063. 54. o 1
2 16 11 1792. 1877. 68. o 1
2 16 -11 1792. 1829. 54. o 1
-7 16 -1 3706. 3735. 95. o -3
-4 16 10 3706. 3735. 95. o -2
3 16 11 3706. 3735. 95. o 1
4 16 10 3710. 3512. 58. o -3
7 16 -1 3710. 3512. 58. o -2
3 16 -11 3710. 3512. 58. o 1
4 16 11 153. 206. 119. < 1
4 16 -11 153. 82. 37. < 1
-8 16 2 577. 1026. 82. o -3
-3 16 13 577. 1026. 82. o -2
5 16 11 577. 1026. 82. o 1
3 16 13 640. 929. 51. o -3
8 16 2 640. 929. 51. o -2
5 16 -11 640. 929. 51. o 1
6 16 11 1578. 1430. 68. o 1
6 16 -11 1578. 1792. 89. o 1
-9 16 5 2618. 2598. 124. o -3
-2 16 16 2618. 2598. 124. o -2
7 16 11 2618. 2598. 124. o 1
2 16 16 2511. 2829. 97. o -3
9 16 5 2511. 2829. 97. o -2
7 16 -11 2511. 2829. 97. o 1
8 16 11 4891. 4229. 150. o 1
8 16 -11 4891. 6397. 128. o 1
-10 16 8 4675. 6496. 206. o -3
-1 16 19 4675. 6496. 206. o -2
9 16 11 4675. 6496. 206. o 1
1 16 19 5397. 4196. 126. o -3
10 16 8 5397. 4196. 126. o -2
9 16 -11 5397. 4196. 126. o 1
-6 17 -4 3669. 3634. 87. o -3
-5 17 7 3669. 3634. 87. o -2
1 17 11 3669. 3634. 87. o 1
5 17 7 3652. 3412. 58. o -3
6 17 -4 3652. 3412. 58. o -2
1 17 -11 3652. 3412. 58. o 1
2 17 11 2739. 2791. 72. o 1
2 17 -11 2739. 2824. 68. o 1
-7 17 -1 4804. 5461. 113. o -3
-4 17 10 4804. 5461. 113. o -2
3 17 11 4804. 5461. 113. o 1
4 17 10 5153. 4586. 66. o -3
7 17 -1 5153. 4586. 66. o -2
3 17 -11 5153. 4586. 66. o 1
4 17 11 256. 284. 115. < 1
4 17 -11 256. 251. 39. o 1
-8 17 2 4046. 4005. 103. o -3
-3 17 13 4046. 4005. 103. o -2
5 17 11 4046. 4005. 103. o 1
3 17 13 3873. 4028. 51. o -3
8 17 2 3873. 4028. 51. o -2
5 17 -11 3873. 4028. 51. o 1
6 17 11 192. 190. 86. < 1
6 17 -11 192. 301. 91. o 1
-9 17 5 2044. 2944. 144. o -3
-2 17 16 2044. 2944. 144. o -2
7 17 11 2044. 2944. 144. o 1
2 17 16 2037. 2678. 103. o -3
9 17 5 2037. 2678. 103. o -2
7 17 -11 2037. 2678. 103. o 1
8 17 11 1215. 670. 78. o 1
8 17 -11 1215. 1520. 103. o 1
-10 17 8 1023. 954. 93. o -3
-1 17 19 1023. 954. 93. o -2
9 17 11 1023. 954. 93. o 1
1 17 19 989. 921. 89. o -3
10 17 8 989. 921. 89. o -2
9 17 -11 989. 921. 89. o 1
-6 18 -4 2941. 2719. 76. o -3
-5 18 7 2941. 2719. 76. o -2
1 18 11 2941. 2719. 76. o 1
5 18 7 3021. 2862. 56. o -3
6 18 -4 3021. 2862. 56. o -2
1 18 -11 3021. 2862. 56. o 1
2 18 11 3281. 3494. 76. o 1
2 18 -11 3281. 3745. 76. o 1
-7 18 -1 1786. 1763. 70. o -3
-4 18 10 1786. 1763. 70. o -2
3 18 11 1786. 1763. 70. o 1
4 18 10 1762. 1817. 54. o -3
7 18 -1 1762. 1817. 54. o -2
3 18 -11 1762. 1817. 54. o 1
4 18 11 217. 150. 122. < 1
4 18 -11 217. 93. 66. < 1
-8 18 2 4242. 4370. 99. o -3
-3 18 13 4242. 4370. 99. o -2
5 18 11 4242. 4370. 99. o 1
3 18 13 4313. 4405. 52. o -3
8 18 2 4313. 4405. 52. o -2
5 18 -11 4313. 4405. 52. o 1
6 18 11 2352. 2382. 82. o 1
6 18 -11 2352. 2853. 95. o 1
-9 18 5 645. 826. 148. o -3
-2 18 16 645. 826. 148. o -2
7 18 11 645. 826. 148. o 1
2 18 16 584. 1082. 103. o -3
9 18 5 584. 1082. 103. o -2
7 18 -11 584. 1082. 103. o 1
8 18 11 1567. 1382. 103. o 1
8 18 -11 1567. 2048. 93. o 1
-10 18 8 2001. 2792. 185. o -3
-1 18 19 2001. 2792. 185. o -2
9 18 11 2001. 2792. 185. o 1
1 18 19 2023. 2656. 200. o -3
10 18 8 2023. 2656. 200. o -2
9 18 -11 2023. 2656. 200. o 1
10 18 11 2. 54. 113. < 1
-6 19 -4 2083. 1873. 76. o -3
-5 19 7 2083. 1873. 76. o -2
1 19 11 2083. 1873. 76. o 1
5 19 7 2016. 1477. 49. o -3
6 19 -4 2016. 1477. 49. o -2
1 19 -11 2016. 1477. 49. o 1
2 19 11 2650. 2750. 70. o 1
2 19 -11 2650. 2956. 74. o 1
-7 19 -1 9976. 11545. 163. o -3
-4 19 10 9976. 11545. 163. o -2
3 19 11 9976. 11545. 163. o 1
4 19 10 10318. 10167. 99. o -3
7 19 -1 10318. 10167. 99. o -2
3 19 -11 10318. 10167. 99. o 1
4 19 11 249. 288. 122. < 1
4 19 -11 249. 369. 68. o 1
-8 19 2 6830. 6570. 122. o -3
-3 19 13 6830. 6570. 122. o -2
5 19 11 6830. 6570. 122. o 1
3 19 13 6580. 5867. 58. o -3
8 19 2 6580. 5867. 58. o -2
5 19 -11 6580. 5867. 58. o 1
6 19 11 559. 604. 74. o 1
6 19 -11 559. 707. 95. o 1
-9 19 5 4503. 5534. 175. o -3
-2 19 16 4503. 5534. 175. o -2
7 19 11 4503. 5534. 175. o 1
2 19 16 4883. 4071. 111. o -3
9 19 5 4883. 4071. 111. o -2
7 19 -11 4883. 4071. 111. o 1
8 19 11 2552. 2938. 115. o 1
8 19 -11 2552. 2851. 99. o 1
-10 19 8 931. 665. 134. o -3
-1 19 19 931. 665. 134. o -2
9 19 11 931. 665. 134. o 1
1 19 19 845. 408. 105. o -3
10 19 8 845. 408. 105. o -2
9 19 -11 845. 408. 105. o 1
10 19 11 25. 126. 117. < 1
-6 20 -4 7284. 7103. 122. o -3
-5 20 7 7284. 7103. 122. o -2
1 20 11 7284. 7103. 122. o 1
5 20 7 7402. 7075. 86. o -3
6 20 -4 7402. 7075. 86. o -2
1 20 -11 7402. 7075. 86. o 1
2 20 11 1109. 1129. 62. o 1
2 20 -11 1109. 1172. 66. o 1
-7 20 -1 6493. 6026. 175. o -3
-4 20 10 6493. 6026. 175. o -2
3 20 11 6493. 6026. 175. o 1
4 20 10 6222. 5499. 97. o -3
7 20 -1 6222. 5499. 97. o -2
3 20 -11 6222. 5499. 97. o 1
4 20 11 121. 93. 74. < 1
4 20 -11 121. 146. 72. < 1
-8 20 2 10509. 12353. 245. o -3
-3 20 13 10509. 12353. 245. o -2
5 20 11 10509. 12353. 245. o 1
3 20 13 10872. 12144. 84. o -3
8 20 2 10872. 12144. 84. o -2
5 20 -11 10872. 12144. 84. o 1
6 20 11 444. 360. 76. o 1
6 20 -11 444. 328. 76. o 1
-9 20 5 5988. 6518. 175. o -3
-2 20 16 5988. 6518. 175. o -2
7 20 11 5988. 6518. 175. o 1
2 20 16 5991. 7229. 138. o -3
9 20 5 5991. 7229. 138. o -2
7 20 -11 5991. 7229. 138. o 1
8 20 11 3048. 3673. 165. o 1
8 20 -11 3048. 3591. 115. o 1
-10 20 8 2598. 3136. 120. o -3
-1 20 19 2598. 3136. 120. o -2
9 20 11 2598. 3136. 120. o 1
1 20 19 2855. 2546. 134. o -3
10 20 8 2855. 2546. 134. o -2
9 20 -11 2855. 2546. 134. o 1
10 20 11 346. 264. 126. < 1
-6 21 -4 2383. 2190. 74. o -3
-5 21 7 2383. 2190. 74. o -2
1 21 11 2383. 2190. 74. o 1
5 21 7 2313. 2126. 80. o -3
6 21 -4 2313. 2126. 80. o -2
1 21 -11 2313. 2126. 80. o 1
2 21 11 746. 668. 64. o 1
2 21 -11 746. 748. 56. o 1
-7 21 -1 1932. 2326. 113. o -3
-4 21 10 1932. 2326. 113. o -2
3 21 11 1932. 2326. 113. o 1
4 21 10 2056. 1782. 82. o -3
7 21 -1 2056. 1782. 82. o -2
3 21 -11 2056. 1782. 82. o 1
4 21 11 316. 356. 128. < 1
4 21 -11 316. 326. 76. o 1
-8 21 2 8589. 9660. 212. o -3
-3 21 13 8589. 9660. 212. o -2
5 21 11 8589. 9660. 212. o 1
3 21 13 8855. 9827. 91. o -3
8 21 2 8855. 9827. 91. o -2
5 21 -11 8855. 9827. 91. o 1
6 21 11 1357. 1490. 95. o 1
6 21 -11 1357. 1615. 103. o 1
-9 21 5 3224. 3125. 167. o -3
-2 21 16 3224. 3125. 167. o -2
7 21 11 3224. 3125. 167. o 1
2 21 16 2995. 2888. 107. o -3
9 21 5 2995. 2888. 107. o -2
7 21 -11 2995. 2888. 107. o 1
8 21 11 1799. 2153. 198. o 1
8 21 -11 1799. 2175. 115. o 1
-10 21 8 2320. 2581. 124. o -3
-1 21 19 2320. 2581. 124. o -2
9 21 11 2320. 2581. 124. o 1
1 21 19 2446. 1541. 130. o -3
10 21 8 2446. 1541. 130. o -2
9 21 -11 2446. 1541. 130. o 1
10 21 11 633. 531. 126. o 1
10 21 -11 633. 659. 95. o 1
-6 22 -4 1262. 1040. 82. o -3
-5 22 7 1262. 1040. 82. o -2
1 22 11 1262. 1040. 82. o 1
5 22 7 1261. 1255. 91. o -3
6 22 -4 1261. 1255. 91. o -2
1 22 -11 1261. 1255. 91. o 1
2 22 11 1051. 1226. 66. o 1
2 22 -11 1051. 1045. 60. o 1
-7 22 -1 938. 635. 130. o -3
-4 22 10 938. 635. 130. o -2
3 22 11 938. 635. 130. o 1
4 22 10 892. 709. 80. o -3
7 22 -1 892. 709. 80. o -2
3 22 -11 892. 709. 80. o 1
4 22 11 214. 278. 124. < 1
4 22 -11 214. 175. 82. < 1
-8 22 2 11832. 12882. 255. o -3
-3 22 13 11832. 12882. 255. o -2
5 22 11 11832. 12882. 255. o 1
3 22 13 11965. 12798. 109. o -3
8 22 2 11965. 12798. 109. o -2
5 22 -11 11965. 12798. 109. o 1
6 22 11 1965. 2221. 119. o 1
6 22 -11 1965. 2143. 70. o 1
-9 22 5 3908. 4003. 167. o -3
-2 22 16 3908. 4003. 167. o -2
7 22 11 3908. 4003. 167. o 1
2 22 16 3850. 3920. 138. o -3
9 22 5 3850. 3920. 138. o -2
7 22 -11 3850. 3920. 138. o 1
8 22 11 2111. 2079. 146. o 1
8 22 -11 2111. 2077. 93. o 1
-10 22 8 592. 874. 136. o -3
-1 22 19 592. 874. 136. o -2
9 22 11 592. 874. 136. o 1
1 22 19 634. 608. 119. o -3
10 22 8 634. 608. 119. o -2
9 22 -11 634. 608. 119. o 1
10 22 11 425. 552. 124. o 1
10 22 -11 425. 470. 101. o 1
11 22 11 268. 391. 103. o 1
-6 23 -4 5004. 5033. 113. o -3
-5 23 7 5004. 5033. 113. o -2
1 23 11 5004. 5033. 113. o 1
5 23 7 5526. 4769. 109. o -3
6 23 -4 5526. 4769. 109. o -2
1 23 -11 5526. 4769. 109. o 1
2 23 11 756. 1158. 66. o 1
2 23 -11 755. 836. 66. o 1
-7 23 -1 1694. 1850. 87. o -3
-4 23 10 1694. 1850. 87. o -2
3 23 11 1694. 1850. 87. o 1
4 23 10 1884. 2058. 72. o -3
7 23 -1 1884. 2058. 72. o -2
3 23 -11 1884. 2058. 72. o 1
4 23 11 1785. 2402. 134. o 1
4 23 -11 1785. 2083. 80. o 1
-8 23 2 1151. 1187. 142. o -3
-3 23 13 1151. 1187. 142. o -2
5 23 11 1151. 1187. 142. o 1
3 23 13 1110. 1094. 78. o -3
8 23 2 1110. 1094. 78. o -2
5 23 -11 1110. 1094. 78. o 1
6 23 11 2807. 2379. 212. o 1
6 23 -11 2807. 3191. 99. o 1
-9 23 5 6275. 7375. 192. o -3
-2 23 16 6275. 7375. 192. o -2
7 23 11 6275. 7375. 192. o 1
8 23 11 1590. 1286. 142. o 1
8 23 -11 1590. 1191. 82. o 1
-10 23 8 2356. 1761. 144. o -3
-1 23 19 2356. 1761. 144. o -2
9 23 11 2356. 1761. 144. o 1
1 23 19 2255. 1537. 122. o -3
10 23 8 2255. 1537. 122. o -2
9 23 -11 2255. 1537. 122. o 1
10 23 11 540. 163. 117. < 1
10 23 -11 540. 107. 105. < 1
11 23 11 2449. 861. 181. o 1
-6 24 -4 7128. 7423. 138. o -3
-5 24 7 7128. 7423. 138. o -2
1 24 11 7128. 7423. 138. o 1
5 24 7 7367. 7899. 136. o -3
6 24 -4 7367. 7899. 136. o -2
1 24 -11 7367. 7899. 136. o 1
2 24 11 60. -154. 68. < 1
2 24 -11 60. 12. 64. < 1
-7 24 -1 1398. 1778. 91. o -3
-4 24 10 1398. 1778. 91. o -2
3 24 11 1398. 1778. 91. o 1
4 24 10 1436. 1419. 91. o -3
7 24 -1 1436. 1419. 91. o -2
3 24 -11 1436. 1419. 91. o 1
4 24 11 566. 651. 130. o 1
4 24 -11 566. 653. 78. o 1
-8 24 2 187. 534. 130. o -3
-3 24 13 187. 534. 130. o -2
5 24 11 187. 534. 130. o 1
3 24 13 217. 571. 74. o -3
8 24 2 217. 571. 74. o -2
5 24 -11 217. 571. 74. o 1
6 24 11 1589. 1908. 124. o 1
6 24 -11 1589. 1930. 91. o 1
-9 24 5 5334. 4670. 163. o -3
-2 24 16 5334. 4670. 163. o -2
7 24 11 5334. 4670. 163. o 1
2 24 16 5332. 4672. 105. o -3
9 24 5 5332. 4672. 105. o -2
7 24 -11 5332. 4672. 105. o 1
8 24 11 165. 64. 126. < 1
8 24 -11 165. 192. 72. < 1
-10 24 8 3731. 3519. 161. o -3
-1 24 19 3731. 3519. 161. o -2
9 24 11 3731. 3519. 161. o 1
1 24 19 3849. 2614. 144. o -3
10 24 8 3849. 2614. 144. o -2
9 24 -11 3849. 2614. 144. o 1
10 24 11 226. 278. 113. < 1
10 24 -11 226. 342. 99. o 1
-6 25 -4 13284. 13261. 185. o -3
-5 25 7 13284. 13261. 185. o -2
1 25 11 13284. 13261. 185. o 1
5 25 7 13308. 12439. 181. o -3
6 25 -4 13308. 12439. 181. o -2
1 25 -11 13308. 12439. 181. o 1
2 25 11 1004. 886. 64. o 1
2 25 -11 1004. 814. 74. o 1
-7 25 -1 15366. 16662. 229. o -3
-4 25 10 15366. 16662. 229. o -2
3 25 11 15366. 16662. 229. o 1
4 25 10 15418. 15995. 210. o -3
7 25 -1 15418. 15995. 210. o -2
3 25 -11 15418. 15995. 210. o 1
4 25 11 446. 573. 122. o 1
4 25 -11 446. 548. 70. o 1
-8 25 2 5866. 5571. 157. o -3
-3 25 13 5866. 5571. 157. o -2
5 25 11 5866. 5571. 157. o 1
3 25 13 6070. 5676. 109. o -3
8 25 2 6070. 5676. 109. o -2
5 25 -11 6070. 5676. 109. o 1
6 25 11 580. 494. 109. o 1
6 25 -11 580. 451. 52. o 1
-9 25 5 7938. 7342. 264. o -3
-2 25 16 7938. 7342. 264. o -2
7 25 11 7938. 7342. 264. o 1
2 25 16 8132. 7243. 159. o -3
9 25 5 8132. 7243. 159. o -2
7 25 -11 8132. 7243. 159. o 1
8 25 11 1015. 1067. 126. o 1
8 25 -11 1015. 867. 86. o 1
1 25 19 7124. 5260. 183. o -3
10 25 8 7124. 5260. 183. o -2
9 25 -11 7124. 5260. 183. o 1
10 25 11 23. -6. 93. < 1
10 25 -11 23. -91. 84. < 1
-6 26 -4 14885. 16566. 227. o -3
-5 26 7 14885. 16566. 227. o -2
1 26 11 14885. 16566. 227. o 1
5 26 7 16025. 15982. 295. o -3
6 26 -4 16025. 15982. 295. o -2
1 26 -11 16025. 15982. 295. o 1
2 26 11 581. 340. 89. o 1
2 26 -11 581. -152. 82. < 1
-7 26 -1 1416. 972. 80. o -3
-4 26 10 1416. 972. 80. o -2
3 26 11 1416. 972. 80. o 1
4 26 10 1230. 995. 78. o -3
7 26 -1 1230. 995. 78. o -2
3 26 -11 1230. 995. 78. o 1
4 26 11 113. 155. 136. < 1
4 26 -11 113. 159. 62. < 1
-8 26 2 2538. 2171. 126. o -3
-3 26 13 2538. 2171. 126. o -2
5 26 11 2538. 2171. 126. o 1
3 26 13 2570. 2748. 68. o -3
8 26 2 2570. 2748. 68. o -2
5 26 -11 2570. 2748. 68. o 1
6 26 11 641. 577. 111. o 1
6 26 -11 641. 513. 60. o 1
2 26 16 9852. 8873. 152. o -3
9 26 5 9852. 8873. 152. o -2
7 26 -11 9852. 8873. 152. o 1
8 26 11 1093. 768. 117. o 1
8 26 -11 1093. 474. 89. o 1
-10 26 8 2242. 2264. 142. o -3
-1 26 19 2242. 2264. 142. o -2
9 26 11 2242. 2264. 142. o 1
1 26 19 2408. 929. 146. o -3
10 26 8 2408. 929. 146. o -2
9 26 -11 2408. 929. 146. o 1
-6 27 -4 10326. 10383. 173. o -3
-5 27 7 10326. 10383. 173. o -2
1 27 11 10326. 10383. 173. o 1
5 27 7 10436. 11432. 161. o -3
6 27 -4 10436. 11432. 161. o -2
1 27 -11 10436. 11432. 161. o 1
2 27 11 234. -89. 76. < 1
2 27 -11 234. 365. 80. o 1
-7 27 -1 4295. 4118. 99. o -3
-4 27 10 4295. 4118. 99. o -2
3 27 11 4295. 4118. 99. o 1
4 27 10 4415. 4104. 86. o -3
7 27 -1 4415. 4104. 86. o -2
3 27 -11 4415. 4104. 86. o 1
4 27 11 264. 243. 128. < 1
4 27 -11 264. 402. 60. o 1
-8 27 2 3354. 4104. 167. o -3
-3 27 13 3354. 4104. 167. o -2
5 27 11 3354. 4104. 167. o 1
3 27 13 3401. 3243. 91. o -3
8 27 2 3401. 3243. 91. o -2
5 27 -11 3401. 3243. 91. o 1
6 27 11 162. 251. 99. < 1
6 27 -11 162. 190. 56. o 1
8 27 11 405. 167. 107. < 1
8 27 -11 405. 140. 76. < 1
-6 28 -4 3533. 3218. 101. o -3
-5 28 7 3533. 3218. 101. o -2
1 28 11 3533. 3218. 101. o 1
5 28 7 3639. 3537. 101. o -3
6 28 -4 3639. 3537. 101. o -2
1 28 -11 3639. 3537. 101. o 1
2 28 11 54. -95. 80. < 1
2 28 -11 54. -91. 76. < 1
-7 28 -1 3325. 3447. 111. o -3
-4 28 10 3325. 3447. 111. o -2
3 28 11 3325. 3447. 111. o 1
4 28 10 3234. 2954. 87. o -3
7 28 -1 3234. 2954. 87. o -2
3 28 -11 3234. 2954. 87. o 1
4 28 11 296. 367. 115. o 1
4 28 -11 296. 264. 66. o 1
-8 28 2 222. 486. 122. o -3
-3 28 13 222. 486. 122. o -2
5 28 11 222. 486. 122. o 1
3 28 13 215. 196. 66. < -3
8 28 2 215. 196. 66. < -2
5 28 -11 215. 196. 66. < 1
6 28 11 673. 309. 113. < 1
6 28 -11 673. 194. 68. < 1
2 28 16 1657. 771. 89. o -3
9 28 5 1657. 771. 89. o -2
7 28 -11 1657. 771. 89. o 1
8 28 -11 324. 494. 95. o 1
-6 29 -4 3109. 3008. 130. o -3
-5 29 7 3109. 3008. 130. o -2
1 29 11 3109. 3008. 130. o 1
5 29 7 2938. 3072. 107. o -3
6 29 -4 2938. 3072. 107. o -2
1 29 -11 2938. 3072. 107. o 1
2 29 11 415. 371. 82. o 1
2 29 -11 415. 472. 76. o 1
-7 29 -1 1597. 1430. 87. o -3
-4 29 10 1597. 1430. 87. o -2
3 29 11 1597. 1430. 87. o 1
4 29 10 1740. 1312. 74. o -3
7 29 -1 1740. 1312. 74. o -2
3 29 -11 1740. 1312. 74. o 1
4 29 11 1236. 1174. 82. o 1
4 29 -11 1236. 1298. 74. o 1
-8 29 2 1598. 1428. 136. o -3
-3 29 13 1598. 1428. 136. o -2
5 29 11 1598. 1428. 136. o 1
3 29 13 1637. 1539. 74. o -3
8 29 2 1637. 1539. 74. o -2
5 29 -11 1637. 1539. 74. o 1
6 29 11 1373. 1032. 109. o 1
6 29 -11 1373. 1234. 70. o 1
-6 30 -4 1533. 1386. 91. o -3
-5 30 7 1533. 1386. 91. o -2
1 30 11 1533. 1386. 91. o 1
5 30 7 1673. 1753. 95. o -3
6 30 -4 1673. 1753. 95. o -2
1 30 -11 1673. 1753. 95. o 1
2 30 11 294. 52. 74. < 1
2 30 -11 294. 0. 109. < 1
-7 30 -1 1661. 917. 82. o -3
-4 30 10 1661. 917. 82. o -2
3 30 11 1661. 917. 82. o 1
4 30 11 381. 173. 66. < 1
4 30 -11 381. 148. 64. < 1
-8 30 2 2768. 573. 157. o -3
-3 30 13 2768. 573. 157. o -2
5 30 11 2768. 573. 157. o 1
-6 31 -4 1831. 1877. 132. o -3
-5 31 7 1831. 1877. 132. o -2
1 31 11 1831. 1877. 132. o 1
5 31 7 1863. 542. 101. o -3
6 31 -4 1863. 542. 101. o -2
1 31 -11 1863. 542. 101. o 1
2 31 11 1164. 509. 82. o 1
2 31 -11 1164. 453. 111. o 1
4 31 11 161. 177. 62. < 1
4 31 -11 161. 23. 60. < 1
2 32 11 2733. 1811. 86. o 1
2 32 -11 2733. 1211. 134. o 1
6 0 6 263344. 275618. 610. o -3
6 0 -6 263344. 275618. 610. o -2
0 0 -12 263344. 275618. 610. o 1
2 0 -12 150. 220. 43. o 1
4 0 12 1232630. 1256720. 1320. o -3
8 0 0 1232630. 1256720. 1320. o -2
4 0 -12 1232630. 1256720. 1320. o 1
6 0 -12 98. 231. 97. < 1
6 1 6 141. 49. 43. < -3
6 1 -6 141. 49. 43. < -2
0 1 -12 141. 49. 43. < 1
1 1 -12 66. 128. 23. o 1
5 1 9 8032. 7639. 52. o -3
7 1 -3 8032. 7639. 52. o -2
2 1 -12 8032. 7639. 52. o 1
3 1 -12 1878. 1823. 39. o 1
4 1 12 835. 674. 58. o -3
8 1 0 835. 674. 58. o -2
4 1 -12 835. 674. 58. o 1
5 1 -12 132. 93. 58. < 1
3 1 15 2550. 2557. 101. o -3
9 1 3 2550. 2557. 101. o -2
6 1 -12 2550. 2557. 101. o 1
6 2 6 16991. 16201. 119. o -3
6 2 -6 16991. 16201. 119. o -2
0 2 -12 16991. 16201. 119. o 1
1 2 -12 879. 882. 17. o 1
3 2 -12 1597. 1603. 33. o 1
4 2 12 193676. 218046. 416. o -3
8 2 0 193676. 218046. 416. o -2
4 2 -12 193676. 218046. 416. o 1
5 2 -12 0. -10. 74. < 1
3 2 15 1905. 1403. 86. o -3
9 2 3 1905. 1403. 86. o -2
6 2 -12 1905. 1403. 86. o 1
6 3 6 33. -21. 29. < -3
6 3 -6 33. -21. 29. < -2
0 3 -12 33. -21. 29. < 1
1 3 -12 862. 900. 25. o 1
5 3 9 3640. 3488. 41. o -3
7 3 -3 3640. 3488. 41. o -2
2 3 -12 3640. 3488. 41. o 1
3 3 -12 1050. 1094. 31. o 1
4 3 12 73. 25. 52. < -3
8 3 0 73. 25. 52. < -2
4 3 -12 73. 25. 52. < 1
5 3 -12 184. 214. 62. o 1
3 3 15 8342. 8774. 194. o -3
9 3 3 8342. 8774. 194. o -2
6 3 -12 8342. 8774. 194. o 1
6 4 6 53575. 56371. 264. o -3
6 4 -6 53575. 56371. 264. o -2
0 4 -12 53575. 56371. 264. o 1
1 4 -12 651. 534. 29. o 1
5 4 9 1341. 1088. 35. o -3
7 4 -3 1341. 1088. 35. o -2
2 4 -12 1341. 1088. 35. o 1
3 4 -12 1982. 2112. 39. o 1
4 4 12 5929. 6149. 76. o -3
8 4 0 5929. 6149. 76. o -2
4 4 -12 5929. 6149. 76. o 1
5 4 -12 3546. 3642. 68. o 1
3 4 15 1027. 851. 54. o -3
9 4 3 1027. 851. 54. o -2
6 4 -12 1027. 851. 54. o 1
6 5 6 72. 8. 33. < -3
6 5 -6 72. 8. 33. < -2
0 5 -12 72. 8. 33. < 1
1 5 -12 508. 453. 21. o 1
5 5 9 6873. 7379. 84. o -3
7 5 -3 6873. 7379. 84. o -2
2 5 -12 6873. 7379. 84. o 1
3 5 -12 2012. 2186. 54. o 1
4 5 12 30. 107. 58. < -3
8 5 0 30. 107. 58. < -2
4 5 -12 30. 107. 58. < 1
5 5 -12 629. 830. 68. o 1
3 5 15 14230. 16428. 188. o -3
9 5 3 14230. 16428. 188. o -2
6 5 -12 14230. 16428. 188. o 1
7 5 -12 2678. 2769. 84. o 1
6 6 6 110901. 118266. 348. o -3
6 6 -6 110901. 118266. 348. o -2
0 6 -12 110901. 118266. 348. o 1
1 6 -12 2075. 1955. 37. o 1
5 6 9 398. 297. 23. o -3
7 6 -3 398. 297. 23. o -2
2 6 -12 398. 297. 23. o 1
3 6 -12 726. 651. 29. o 1
4 6 12 104796. 112499. 352. o -3
8 6 0 104796. 112499. 352. o -2
4 6 -12 104796. 112499. 352. o 1
5 6 -12 1458. 1457. 66. o 1
3 6 15 1637. 1782. 64. o -3
9 6 3 1637. 1782. 64. o -2
6 6 -12 1637. 1782. 64. o 1
7 6 -12 1857. 2072. 68. o 1
9 6 12 375. 218. 105. < 1
6 7 6 472. 282. 54. o -3
6 7 -6 472. 282. 54. o -2
0 7 -12 472. 282. 54. o 1
1 7 -12 163. 175. 37. o 1
5 7 9 4665. 4444. 66. o -3
7 7 -3 4665. 4444. 66. o -2
2 7 -12 4665. 4444. 66. o 1
3 7 -12 883. 847. 37. o 1
4 7 12 101. 117. 49. < -3
8 7 0 101. 117. 49. < -2
4 7 -12 101. 117. 49. < 1
5 7 -12 384. 476. 80. o 1
3 7 15 11775. 12178. 169. o -3
9 7 3 11775. 12178. 169. o -2
6 7 -12 11775. 12178. 169. o 1
7 7 -12 878. 954. 54. o 1
-10 7 6 638. 447. 62. o -3
-2 7 18 638. 447. 62. o -2
8 7 12 638. 447. 62. o 1
2 7 18 662. 735. 89. o -3
10 7 6 662. 735. 89. o -2
8 7 -12 662. 735. 89. o 1
9 7 12 755. 540. 74. o 1
6 8 6 27196. 28292. 225. o -3
6 8 -6 27196. 28292. 225. o -2
0 8 -12 27196. 28292. 225. o 1
1 8 -12 2298. 1924. 49. o 1
5 8 9 2556. 2608. 60. o -3
7 8 -3 2556. 2608. 60. o -2
2 8 -12 2556. 2608. 60. o 1
3 8 -12 2524. 2441. 47. o 1
4 8 12 2478. 2487. 47. o -3
8 8 0 2478. 2487. 47. o -2
4 8 -12 2478. 2487. 47. o 1
5 8 -12 803. 731. 70. o 1
3 8 15 3860. 3539. 95. o -3
9 8 3 3860. 3539. 95. o -2
6 8 -12 3860. 3539. 95. o 1
7 8 -12 101. 70. 60. < 1
-10 8 6 39255. 39243. 523. o -3
-2 8 18 39255. 39243. 523. o -2
8 8 12 39255. 39243. 523. o 1
2 8 18 40375. 38776. 622. o -3
10 8 6 40375. 38776. 622. o -2
8 8 -12 40375. 38776. 622. o 1
9 8 12 2931. 2573. 111. o 1
6 9 6 75. 31. 23. < -3
6 9 -6 75. 31. 23. < -2
0 9 -12 75. 31. 23. < 1
1 9 -12 3305. 2888. 60. o 1
5 9 9 2479. 2587. 58. o -3
7 9 -3 2479. 2587. 58. o -2
2 9 -12 2479. 2587. 58. o 1
3 9 -12 390. 497. 35. o 1
4 9 12 203. 190. 29. o -3
8 9 0 203. 190. 29. o -2
4 9 -12 203. 190. 29. o 1
5 9 -12 485. 428. 89. o 1
3 9 15 7398. 7322. 130. o -3
9 9 3 7398. 7322. 130. o -2
6 9 -12 7398. 7322. 130. o 1
7 9 -12 2103. 2359. 74. o 1
-10 9 6 377. 344. 62. o -3
-2 9 18 377. 344. 62. o -2
8 9 12 377. 344. 62. o 1
2 9 18 430. 575. 109. o -3
10 9 6 430. 575. 109. o -2
8 9 -12 430. 575. 109. o 1
9 9 12 356. 309. 120. < 1
9 9 -12 356. 136. 78. < 1
-6 10 -6 122747. 124945. 610. o -3
-6 10 6 122747. 124945. 610. o -2
0 10 12 122747. 124945. 610. o 1
6 10 6 122747. 123150. 377. o -3
6 10 -6 122747. 123150. 377. o -2
0 10 -12 122747. 123150. 377. o 1
1 10 -12 3368. 3317. 66. o 1
5 10 9 3574. 3374. 64. o -3
7 10 -3 3574. 3374. 64. o -2
2 10 -12 3574. 3374. 64. o 1
3 10 -12 979. 902. 33. o 1
4 10 12 104342. 111542. 291. o -3
8 10 0 104342. 111542. 291. o -2
4 10 -12 104342. 111542. 291. o 1
5 10 -12 10690. 11976. 157. o 1
3 10 15 6602. 5915. 103. o -3
9 10 3 6602. 5915. 103. o -2
6 10 -12 6602. 5915. 103. o 1
7 10 12 4660. 3939. 138. o 1
7 10 -12 4660. 5367. 109. o 1
-10 10 6 14227. 14190. 276. o -3
-2 10 18 14227. 14190. 276. o -2
8 10 12 14227. 14190. 276. o 1
2 10 18 14003. 16357. 260. o -3
10 10 6 14003. 16357. 260. o -2
8 10 -12 14003. 16357. 260. o 1
9 10 12 3064. 3714. 130. o 1
9 10 -12 3064. 3469. 132. o 1
-6 11 -6 333. 202. 93. < -3
-6 11 6 333. 202. 93. < -2
0 11 12 333. 202. 93. < 1
6 11 6 333. 270. 45. o -3
6 11 -6 333. 270. 45. o -2
0 11 -12 333. 270. 45. o 1
1 11 -12 616. 503. 47. o 1
5 11 9 1640. 1341. 45. o -3
7 11 -3 1640. 1341. 45. o -2
2 11 -12 1640. 1341. 45. o 1
3 11 -12 5763. 5979. 76. o 1
4 11 12 92. 117. 31. o -3
8 11 0 92. 117. 31. o -2
4 11 -12 92. 117. 31. o 1
5 11 -12 515. 499. 45. o 1
3 11 15 5230. 5577. 107. o -3
9 11 3 5230. 5577. 107. o -2
6 11 -12 5230. 5577. 107. o 1
7 11 12 1357. 1696. 70. o 1
7 11 -12 1357. 1533. 64. o 1
-10 11 6 589. 429. 93. o -3
-2 11 18 589. 429. 93. o -2
8 11 12 589. 429. 93. o 1
2 11 18 586. 564. 58. o -3
10 11 6 586. 564. 58. o -2
8 11 -12 586. 564. 58. o 1
9 11 12 148. 381. 120. o 1
9 11 -12 148. 103. 78. < 1
-6 12 -6 67234. 72805. 529. o -3
-6 12 6 67234. 72805. 529. o -2
0 12 12 67234. 72805. 529. o 1
6 12 6 67234. 71954. 315. o -3
6 12 -6 67234. 71954. 315. o -2
0 12 -12 67234. 71954. 315. o 1
1 12 12 641. 758. 74. o 1
1 12 -12 641. 649. 37. o 1
-7 12 -3 1130. 1092. 128. o -3
-5 12 9 1130. 1092. 128. o -2
2 12 12 1130. 1092. 128. o 1
5 12 9 1001. 1014. 43. o -3
7 12 -3 1001. 1014. 43. o -2
2 12 -12 1001. 1014. 43. o 1
3 12 -12 6128. 6652. 101. o 1
4 12 12 277451. 301551. 505. o -3
8 12 0 277451. 301551. 505. o -2
4 12 -12 277451. 301551. 505. o 1
5 12 -12 13556. 16178. 183. o 1
-9 12 3 764. 797. 66. o -3
-3 12 15 764. 797. 66. o -2
6 12 12 764. 797. 66. o 1
3 12 15 803. 702. 52. o -3
9 12 3 803. 702. 52. o -2
6 12 -12 803. 702. 52. o 1
7 12 12 3543. 3539. 111. o 1
7 12 -12 3543. 3937. 99. o 1
-10 12 6 1858. 1687. 76. o -3
-2 12 18 1858. 1687. 76. o -2
8 12 12 1858. 1687. 76. o 1
2 12 18 1799. 1675. 72. o -3
10 12 6 1799. 1675. 72. o -2
8 12 -12 1799. 1675. 72. o 1
9 12 -12 355. 270. 140. < 1
-6 13 -6 330. 315. 115. < -3
-6 13 6 330. 315. 115. < -2
0 13 12 330. 315. 115. < 1
6 13 6 330. 286. 29. o -3
6 13 -6 330. 286. 29. o -2
0 13 -12 330. 286. 29. o 1
1 13 12 1982. 1961. 66. o 1
1 13 -12 1982. 2196. 49. o 1
-7 13 -3 1419. 1813. 66. o -3
-5 13 9 1419. 1813. 66. o -2
2 13 12 1419. 1813. 66. o 1
5 13 9 1661. 1578. 51. o -3
7 13 -3 1661. 1578. 51. o -2
2 13 -12 1661. 1578. 51. o 1
3 13 12 319. 284. 80. o 1
3 13 -12 319. 144. 49. < 1
-8 13 0 708. 878. 87. o -3
-4 13 12 708. 878. 87. o -2
4 13 12 708. 878. 87. o 1
4 13 12 745. 764. 45. o -3
8 13 0 745. 764. 45. o -2
4 13 -12 745. 764. 45. o 1
5 13 12 233. 290. 82. o 1
5 13 -12 233. 258. 68. o 1
-9 13 3 815. 1077. 70. o -3
-3 13 15 815. 1077. 70. o -2
6 13 12 815. 1077. 70. o 1
3 13 15 789. 773. 54. o -3
9 13 3 789. 773. 54. o -2
6 13 -12 789. 773. 54. o 1
7 13 12 1063. 1205. 82. o 1
7 13 -12 1063. 1510. 68. o 1
-10 13 6 195. 103. 91. < -3
-2 13 18 195. 103. 91. < -2
8 13 12 195. 103. 91. < 1
2 13 18 170. 185. 49. o -3
10 13 6 170. 185. 49. o -2
8 13 -12 170. 185. 49. o 1
9 13 -12 621. 1032. 132. o 1
-6 14 -6 31077. 31648. 461. o -3
-6 14 6 31077. 31648. 461. o -2
0 14 12 31077. 31648. 461. o 1
6 14 6 31077. 32052. 369. o -3
6 14 -6 31077. 32052. 369. o -2
0 14 -12 31077. 32052. 369. o 1
1 14 12 1763. 1815. 66. o 1
1 14 -12 1763. 2107. 47. o 1
-7 14 -3 4894. 5257. 105. o -3
-5 14 9 4894. 5257. 105. o -2
2 14 12 4894. 5257. 105. o 1
5 14 9 5013. 4951. 86. o -3
7 14 -3 5013. 4951. 86. o -2
2 14 -12 5013. 4951. 86. o 1
3 14 12 756. 962. 76. o 1
3 14 -12 756. 987. 47. o 1
-8 14 0 51553. 53889. 299. o -3
-4 14 12 51553. 53889. 299. o -2
4 14 12 51553. 53889. 299. o 1
4 14 12 50849. 58572. 284. o -3
8 14 0 50849. 58572. 284. o -2
4 14 -12 50849. 58572. 284. o 1
5 14 12 1538. 1617. 66. o 1
5 14 -12 1538. 1475. 64. o 1
-9 14 3 947. 702. 87. o -3
-3 14 15 947. 702. 87. o -2
6 14 12 947. 702. 87. o 1
3 14 15 921. 396. 49. o -3
9 14 3 921. 396. 49. o -2
6 14 -12 921. 396. 49. o 1
7 14 12 2270. 2058. 76. o 1
7 14 -12 2270. 2476. 80. o 1
-10 14 6 39524. 40735. 529. o -3
-2 14 18 39524. 40735. 529. o -2
8 14 12 39524. 40735. 529. o 1
2 14 18 40132. 46209. 499. o -3
10 14 6 40132. 46209. 499. o -2
8 14 -12 40132. 46209. 499. o 1
9 14 12 512. 839. 120. o 1
9 14 -12 512. 536. 140. o 1
-6 15 -6 678. 779. 76. o -3
-6 15 6 678. 779. 76. o -2
0 15 12 678. 779. 76. o 1
6 15 6 678. 744. 126. o -3
6 15 -6 678. 744. 126. o -2
0 15 -12 678. 744. 126. o 1
1 15 12 1490. 1592. 64. o 1
1 15 -12 1490. 1452. 41. o 1
-7 15 -3 3312. 3714. 89. o -3
-5 15 9 3312. 3714. 89. o -2
2 15 12 3312. 3714. 89. o 1
5 15 9 3368. 3484. 72. o -3
7 15 -3 3368. 3484. 72. o -2
2 15 -12 3368. 3484. 72. o 1
3 15 12 157. 202. 86. < 1
3 15 -12 157. 260. 70. o 1
-8 15 0 248. 348. 62. o -3
-4 15 12 248. 348. 62. o -2
4 15 12 248. 348. 62. o 1
4 15 12 261. 253. 54. o -3
8 15 0 261. 253. 54. o -2
4 15 -12 261. 253. 54. o 1
5 15 12 432. 501. 86. o 1
5 15 -12 432. 383. 54. o 1
-9 15 3 3370. 3269. 87. o -3
-3 15 15 3370. 3269. 87. o -2
6 15 12 3370. 3269. 87. o 1
3 15 15 3386. 3327. 91. o -3
9 15 3 3386. 3327. 91. o -2
6 15 -12 3386. 3327. 91. o 1
7 15 12 1581. 1871. 107. o 1
7 15 -12 1581. 1831. 87. o 1
-10 15 6 389. 422. 150. < -3
-2 15 18 389. 422. 150. < -2
8 15 12 389. 422. 150. < 1
2 15 18 357. 398. 103. o -3
10 15 6 357. 398. 103. o -2
8 15 -12 357. 398. 103. o 1
9 15 12 2441. 2320. 154. o 1
9 15 -12 2441. 2915. 109. o 1
-6 16 -6 83590. 83921. 645. o -3
-6 16 6 83590. 83921. 645. o -2
0 16 12 83590. 83921. 645. o 1
6 16 6 83590. 90477. 562. o -3
6 16 -6 83590. 90477. 562. o -2
0 16 -12 83590. 90477. 562. o 1
1 16 12 2308. 2367. 78. o 1
1 16 -12 2308. 2155. 51. o 1
5 16 9 2712. 3611. 76. o -3
7 16 -3 2712. 3611. 76. o -2
2 16 -12 2712. 3611. 76. o 1
3 16 12 2198. 2161. 82. o 1
3 16 -12 2198. 1848. 56. o 1
-8 16 0 14664. 16269. 243. o -3
-4 16 12 14664. 16269. 243. o -2
4 16 12 14664. 16269. 243. o 1
4 16 12 15117. 16326. 177. o -3
8 16 0 15117. 16326. 177. o -2
4 16 -12 15117. 16326. 177. o 1
5 16 12 5697. 5754. 124. o 1
5 16 -12 5697. 6327. 86. o 1
-9 16 3 1204. 637. 97. o -3
-3 16 15 1204. 637. 97. o -2
6 16 12 1204. 637. 97. o 1
3 16 15 1057. 1232. 101. o -3
9 16 3 1057. 1232. 101. o -2
6 16 -12 1057. 1232. 101. o 1
7 16 12 320. 103. 146. < 1
7 16 -12 320. 350. 97. o 1
-10 16 6 43401. 41225. 515. o -3
-2 16 18 43401. 41225. 515. o -2
8 16 12 43401. 41225. 515. o 1
2 16 18 43052. 45957. 783. o -3
10 16 6 43052. 45957. 783. o -2
8 16 -12 43052. 45957. 783. o 1
9 16 12 23453. 24864. 375. o 1
9 16 -12 23453. 26203. 291. o 1
-6 17 -6 357. 290. 76. o -3
-6 17 6 357. 290. 76. o -2
0 17 12 357. 290. 76. o 1
6 17 6 357. 400. 122. o -3
6 17 -6 357. 400. 122. o -2
0 17 -12 357. 400. 122. o 1
1 17 12 647. 874. 80. o 1
1 17 -12 647. 667. 56. o 1
-7 17 -3 9824. 9370. 140. o -3
-5 17 9 9824. 9370. 140. o -2
2 17 12 9824. 9370. 140. o 1
5 17 9 9487. 10593. 132. o -3
7 17 -3 9487. 10593. 132. o -2
2 17 -12 9487. 10593. 132. o 1
3 17 12 131. 91. 86. < 1
3 17 -12 131. 204. 68. < 1
-8 17 0 141. 115. 119. < -3
-4 17 12 141. 115. 119. < -2
4 17 12 141. 115. 119. < 1
4 17 12 147. 12. 72. < -3
8 17 0 147. 12. 72. < -2
4 17 -12 147. 12. 72. < 1
5 17 12 656. 490. 89. o 1
5 17 -12 656. 643. 58. o 1
-9 17 3 1937. 1407. 97. o -3
-3 17 15 1937. 1407. 97. o -2
6 17 12 1937. 1407. 97. o 1
3 17 15 1705. 1798. 109. o -3
9 17 3 1705. 1798. 109. o -2
6 17 -12 1705. 1798. 109. o 1
7 17 12 3854. 3381. 154. o 1
7 17 -12 3854. 3933. 109. o 1
-10 17 6 557. 220. 140. < -3
-2 17 18 557. 220. 140. < -2
8 17 12 557. 220. 140. < 1
2 17 18 546. 272. 95. < -3
10 17 6 546. 272. 95. < -2
8 17 -12 546. 272. 95. < 1
9 17 12 1039. 1415. 181. o 1
9 17 -12 1039. 1275. 99. o 1
-11 17 9 2180. 2070. 128. o -3
-1 17 21 2180. 2070. 128. o -2
10 17 12 2180. 2070. 128. o 1
-6 18 -6 8649. 8444. 196. o -3
-6 18 6 8649. 8444. 196. o -2
0 18 12 8649. 8444. 196. o 1
6 18 6 8649. 9767. 194. o -3
6 18 -6 8649. 9767. 194. o -2
0 18 -12 8649. 9767. 194. o 1
1 18 12 2042. 2202. 78. o 1
1 18 -12 2042. 1866. 52. o 1
-7 18 -3 2863. 3185. 95. o -3
-5 18 9 2863. 3185. 95. o -2
2 18 12 2863. 3185. 95. o 1
5 18 9 2885. 3500. 82. o -3
7 18 -3 2885. 3500. 82. o -2
2 18 -12 2885. 3500. 82. o 1
3 18 12 2615. 2754. 87. o 1
3 18 -12 2615. 2886. 70. o 1
-8 18 0 1591. 2147. 150. o -3
-4 18 12 1591. 2147. 150. o -2
4 18 12 1591. 2147. 150. o 1
4 18 12 1539. 1755. 86. o -3
8 18 0 1539. 1755. 86. o -2
4 18 -12 1539. 1755. 86. o 1
5 18 12 1415. 1411. 72. o 1
5 18 -12 1415. 1279. 51. o 1
-9 18 3 2908. 2820. 91. o -3
-3 18 15 2908. 2820. 91. o -2
6 18 12 2908. 2820. 91. o 1
3 18 15 2699. 2357. 103. o -3
9 18 3 2699. 2357. 103. o -2
6 18 -12 2699. 2357. 103. o 1
7 18 12 324. 358. 148. < 1
7 18 -12 324. 608. 91. o 1
-10 18 6 2098. 3327. 126. o -3
-2 18 18 2098. 3327. 126. o -2
8 18 12 2098. 3327. 126. o 1
2 18 18 2170. 2392. 103. o -3
10 18 6 2170. 2392. 103. o -2
8 18 -12 2170. 2392. 103. o 1
9 18 12 660. 529. 150. o 1
9 18 -12 660. 513. 86. o 1
-11 18 9 1577. 1329. 132. o -3
-1 18 21 1577. 1329. 132. o -2
10 18 12 1577. 1329. 132. o 1
-6 19 -6 168. 97. 122. < -3
-6 19 6 168. 97. 122. < -2
0 19 12 168. 97. 122. < 1
6 19 6 168. 19. 134. < -3
6 19 -6 168. 19. 134. < -2
0 19 -12 168. 19. 134. < 1
1 19 12 472. 389. 84. o 1
1 19 -12 472. 288. 54. o 1
-7 19 -3 10851. 10665. 128. o -3
-5 19 9 10851. 10665. 128. o -2
2 19 12 10851. 10665. 128. o 1
5 19 9 10833. 10455. 124. o -3
7 19 -3 10833. 10455. 124. o -2
2 19 -12 10833. 10455. 124. o 1
3 19 12 8282. 8550. 136. o 1
3 19 -12 8282. 8018. 115. o 1
-8 19 0 298. 37. 120. < -3
-4 19 12 298. 37. 120. < -2
4 19 12 298. 37. 120. < 1
4 19 12 287. 103. 72. < -3
8 19 0 287. 103. 72. < -2
4 19 -12 287. 103. 72. < 1
5 19 12 1064. 952. 140. o 1
5 19 -12 1064. 1127. 64. o 1
-9 19 3 22086. 24518. 276. o -3
-3 19 15 22086. 24518. 276. o -2
6 19 12 22086. 24518. 276. o 1
3 19 15 22444. 23500. 344. o -3
9 19 3 22444. 23500. 344. o -2
6 19 -12 22444. 23500. 344. o 1
7 19 12 506. 402. 140. < 1
7 19 -12 506. 587. 87. o 1
-10 19 6 181. 414. 136. o -3
-2 19 18 181. 414. 136. o -2
8 19 12 181. 414. 136. o 1
2 19 18 181. 171. 91. < -3
10 19 6 181. 171. 91. < -2
8 19 -12 181. 171. 91. < 1
9 19 12 28. -39. 130. < 1
9 19 -12 28. 91. 72. < 1
-11 19 9 4557. 5962. 210. o -3
-1 19 21 4557. 5962. 210. o -2
10 19 12 4557. 5962. 210. o 1
-6 20 -6 8698. 8834. 202. o -3
-6 20 6 8698. 8834. 202. o -2
0 20 12 8698. 8834. 202. o 1
6 20 6 8698. 8947. 202. o -3
6 20 -6 8698. 8947. 202. o -2
0 20 -12 8698. 8947. 202. o 1
1 20 12 1489. 1339. 66. o 1
1 20 -12 1489. 1648. 72. o 1
-7 20 -3 4960. 4203. 82. o -3
-5 20 9 4960. 4203. 82. o -2
2 20 12 4960. 4203. 82. o 1
5 20 9 4541. 3665. 80. o -3
7 20 -3 4541. 3665. 80. o -2
2 20 -12 4541. 3665. 80. o 1
3 20 12 6783. 6974. 128. o 1
3 20 -12 6783. 6549. 103. o 1
-8 20 0 40093. 42319. 552. o -3
-4 20 12 40093. 42319. 552. o -2
4 20 12 40093. 42319. 552. o 1
4 20 12 41153. 41258. 319. o -3
8 20 0 41153. 41258. 319. o -2
4 20 -12 41153. 41258. 319. o 1
5 20 12 7145. 7235. 190. o 1
5 20 -12 7145. 7666. 101. o 1
3 20 15 10122. 9252. 161. o -3
9 20 3 10122. 9252. 161. o -2
6 20 -12 10122. 9252. 161. o 1
7 20 12 1228. 1310. 155. o 1
7 20 -12 1228. 1316. 89. o 1
-10 20 6 2154. 2726. 214. o -3
-2 20 18 2154. 2726. 214. o -2
8 20 12 2154. 2726. 214. o 1
2 20 18 2130. 2861. 122. o -3
10 20 6 2130. 2861. 122. o -2
8 20 -12 2130. 2861. 122. o 1
9 20 12 2513. 2044. 126. o 1
9 20 -12 2513. 2583. 84. o 1
-11 20 9 832. 925. 136. o -3
-1 20 21 832. 925. 136. o -2
10 20 12 832. 925. 136. o 1
1 20 21 912. 822. 117. o -3
11 20 9 912. 822. 117. o -2
10 20 -12 912. 822. 117. o 1
-6 21 -6 685. 797. 128. o -3
-6 21 6 685. 797. 128. o -2
0 21 12 685. 797. 128. o 1
6 21 6 685. 748. 134. o -3
6 21 -6 685. 748. 134. o -2
0 21 -12 685. 748. 134. o 1
1 21 12 2431. 2454. 80. o 1
1 21 -12 2431. 2281. 84. o 1
-7 21 -3 1765. 2124. 70. o -3
-5 21 9 1765. 2124. 70. o -2
2 21 12 1765. 2124. 70. o 1
5 21 9 1999. 1970. 70. o -3
7 21 -3 1999. 1970. 70. o -2
2 21 -12 1999. 1970. 70. o 1
3 21 12 2097. 2316. 87. o 1
3 21 -12 2097. 2070. 72. o 1
-8 21 0 266. 14. 126. < -3
-4 21 12 266. 14. 126. < -2
4 21 12 266. 14. 126. < 1
4 21 12 240. -66. 82. < -3
8 21 0 240. -66. 82. < -2
4 21 -12 240. -66. 82. < 1
5 21 12 5018. 5194. 167. o 1
5 21 -12 5018. 5509. 93. o 1
-9 21 3 5945. 6430. 155. o -3
-3 21 15 5945. 6430. 155. o -2
6 21 12 5945. 6430. 155. o 1
3 21 15 5845. 5729. 132. o -3
9 21 3 5845. 5729. 132. o -2
6 21 -12 5845. 5729. 132. o 1
7 21 12 354. 288. 142. < 1
7 21 -12 354. 177. 78. < 1
-10 21 6 241. 247. 134. < -3
-2 21 18 241. 247. 134. < -2
8 21 12 241. 247. 134. < 1
2 21 18 257. 293. 74. o -3
10 21 6 257. 293. 74. o -2
8 21 -12 257. 293. 74. o 1
9 21 12 78. 91. 111. < 1
9 21 -12 78. 187. 70. < 1
-11 21 9 3600. 3943. 173. o -3
-1 21 21 3600. 3943. 173. o -2
10 21 12 3600. 3943. 173. o 1
1 21 21 3718. 2734. 155. o -3
11 21 9 3718. 2734. 155. o -2
10 21 -12 3718. 2734. 155. o 1
11 21 12 1113. 814. 105. o 1
-6 22 -6 44281. 47807. 569. o -3
-6 22 6 44281. 47807. 569. o -2
0 22 12 44281. 47807. 569. o 1
6 22 6 44281. 47898. 661. o -3
6 22 -6 44281. 47898. 661. o -2
0 22 -12 44281. 47898. 661. o 1
1 22 12 1120. 1388. 70. o 1
1 22 -12 1120. 1384. 82. o 1
-7 22 -3 961. 960. 70. o -3
-5 22 9 961. 960. 70. o -2
2 22 12 961. 960. 70. o 1
5 22 9 884. 589. 82. o -3
7 22 -3 884. 589. 82. o -2
2 22 -12 884. 589. 82. o 1
3 22 12 431. 183. 130. < 1
3 22 -12 431. 274. 64. o 1
-8 22 0 12088. 9777. 220. o -3
-4 22 12 12088. 9777. 220. o -2
4 22 12 12088. 9777. 220. o 1
4 22 12 10972. 9225. 128. o -3
8 22 0 10972. 9225. 128. o -2
4 22 -12 10972. 9225. 128. o 1
5 22 12 16360. 15618. 288. o 1
5 22 -12 16360. 17066. 220. o 1
3 22 15 4119. 4963. 117. o -3
9 22 3 4119. 4963. 117. o -2
6 22 -12 4119. 4963. 117. o 1
7 22 12 1483. 1557. 138. o 1
7 22 -12 1483. 1084. 109. o 1
-10 22 6 10902. 10208. 222. o -3
-2 22 18 10902. 10208. 222. o -2
8 22 12 10902. 10208. 222. o 1
9 22 12 292. 408. 122. o 1
9 22 -12 292. 130. 70. < 1
-11 22 9 1304. 365. 132. < -3
-1 22 21 1304. 365. 132. < -2
10 22 12 1304. 365. 132. < 1
1 22 21 1443. 828. 140. o -3
11 22 9 1443. 828. 140. o -2
10 22 -12 1443. 828. 140. o 1
11 22 12 1153. 571. 99. o 1
-6 23 -6 378. 369. 113. o -3
-6 23 6 378. 369. 113. o -2
0 23 12 378. 369. 113. o 1
6 23 6 378. 418. 120. o -3
6 23 -6 378. 418. 120. o -2
0 23 -12 378. 418. 120. o 1
1 23 12 516. 550. 74. o 1
1 23 -12 516. 527. 93. o 1
-7 23 -3 5817. 6269. 111. o -3
-5 23 9 5817. 6269. 111. o -2
2 23 12 5817. 6269. 111. o 1
5 23 9 5895. 6500. 103. o -3
7 23 -3 5895. 6500. 103. o -2
2 23 -12 5895. 6500. 103. o 1
3 23 12 1397. 1733. 144. o 1
3 23 -12 1397. 1339. 105. o 1
-8 23 0 989. 1104. 142. o -3
-4 23 12 989. 1104. 142. o -2
4 23 12 989. 1104. 142. o 1
4 23 12 1026. 933. 87. o -3
8 23 0 1026. 933. 87. o -2
4 23 -12 1026. 933. 87. o 1
5 23 12 5. 270. 124. < 1
5 23 -12 5. -2. 66. < 1
-9 23 3 1358. 1318. 138. o -3
-3 23 15 1358. 1318. 138. o -2
6 23 12 1358. 1318. 138. o 1
3 23 15 1379. 981. 72. o -3
9 23 3 1379. 981. 72. o -2
6 23 -12 1379. 981. 72. o 1
7 23 12 4010. 4157. 157. o 1
7 23 -12 4010. 3719. 93. o 1
-10 23 6 136. 60. 122. < -3
-2 23 18 136. 60. 122. < -2
8 23 12 136. 60. 122. < 1
2 23 18 148. 17. 74. < -3
10 23 6 148. 17. 74. < -2
8 23 -12 148. 17. 74. < 1
9 23 12 1471. 1318. 138. o 1
9 23 -12 1471. 1384. 80. o 1
-11 23 9 4029. 2243. 161. o -3
-1 23 21 4029. 2243. 161. o -2
10 23 12 4029. 2243. 161. o 1
-6 24 -6 44292. 47276. 641. o -3
-6 24 6 44292. 47276. 641. o -2
0 24 12 44292. 47276. 641. o 1
6 24 6 44292. 45492. 702. o -3
6 24 -6 44292. 45492. 702. o -2
0 24 -12 44292. 45492. 702. o 1
1 24 12 5177. 4780. 109. o 1
1 24 -12 5177. 5610. 132. o 1
-7 24 -3 5223. 5634. 115. o -3
-5 24 9 5223. 5634. 115. o -2
2 24 12 5223. 5634. 115. o 1
5 24 9 5100. 5128. 97. o -3
7 24 -3 5100. 5128. 97. o -2
2 24 -12 5100. 5128. 97. o 1
3 24 12 1806. 2287. 109. o 1
3 24 -12 1806. 1961. 76. o 1
-8 24 0 49263. 56153. 593. o -3
-4 24 12 49263. 56153. 593. o -2
4 24 12 49263. 56153. 593. o 1
4 24 12 51490. 51394. 365. o -3
8 24 0 51490. 51394. 365. o -2
4 24 -12 51490. 51394. 365. o 1
5 24 12 204. 208. 119. < 1
5 24 -12 204. 257. 64. o 1
-9 24 3 3232. 4903. 169. o -3
-3 24 15 3232. 4903. 169. o -2
6 24 12 3232. 4903. 169. o 1
3 24 15 3784. 3451. 78. o -3
9 24 3 3784. 3451. 78. o -2
6 24 -12 3784. 3451. 78. o 1
7 24 12 1052. 789. 134. o 1
7 24 -12 1052. 915. 82. o 1
-10 24 6 4962. 4959. 171. o -3
-2 24 18 4962. 4959. 171. o -2
8 24 12 4962. 4959. 171. o 1
9 24 12 1220. 672. 119. o 1
9 24 -12 1220. 534. 89. o 1
-6 25 -6 172. 159. 111. < -3
-6 25 6 172. 159. 111. < -2
0 25 12 172. 159. 111. < 1
6 25 6 172. 266. 130. < -3
6 25 -6 172. 266. 130. < -2
0 25 -12 172. 266. 130. < 1
1 25 12 8245. 9431. 167. o 1
1 25 -12 8245. 9678. 167. o 1
-7 25 -3 5799. 5476. 134. o -3
-5 25 9 5799. 5476. 134. o -2
2 25 12 5799. 5476. 134. o 1
5 25 9 5683. 6090. 120. o -3
7 25 -3 5683. 6090. 120. o -2
2 25 -12 5683. 6090. 120. o 1
3 25 12 12357. 12674. 190. o 1
3 25 -12 12357. 12696. 152. o 1
-8 25 0 182. 157. 119. < -3
-4 25 12 182. 157. 119. < -2
4 25 12 182. 157. 119. < 1
4 25 12 187. 74. 68. < -3
8 25 0 187. 74. 68. < -2
4 25 -12 187. 74. 68. < 1
5 25 12 3039. 3154. 140. o 1
5 25 -12 3039. 2800. 74. o 1
-9 25 3 6640. 6424. 183. o -3
-3 25 15 6640. 6424. 183. o -2
6 25 12 6640. 6424. 183. o 1
3 25 15 6729. 6269. 89. o -3
9 25 3 6729. 6269. 89. o -2
6 25 -12 6729. 6269. 89. o 1
7 25 12 1272. 1071. 120. o 1
7 25 -12 1272. 851. 80. o 1
-10 25 6 193. 70. 105. < -3
-2 25 18 193. 70. 105. < -2
8 25 12 193. 70. 105. < 1
2 25 18 169. 202. 74. < -3
10 25 6 169. 202. 74. < -2
8 25 -12 169. 202. 74. < 1
9 25 12 463. 336. 99. o 1
9 25 -12 463. 0. 84. < 1
-6 26 -6 20060. 22738. 332. o -3
-6 26 6 20060. 22738. 332. o -2
0 26 12 20060. 22738. 332. o 1
6 26 6 20060. 22268. 532. o -3
6 26 -6 20060. 22268. 532. o -2
0 26 -12 20060. 22268. 532. o 1
1 26 12 178. 194. 78. < 1
1 26 -12 178. 163. 76. < 1
-7 26 -3 4916. 5369. 115. o -3
-5 26 9 4916. 5369. 115. o -2
2 26 12 4916. 5369. 115. o 1
5 26 9 4673. 4174. 101. o -3
7 26 -3 4673. 4174. 101. o -2
2 26 -12 4673. 4174. 101. o 1
3 26 12 1730. 1422. 74. o 1
3 26 -12 1730. 1182. 74. o 1
-8 26 0 926. 1100. 148. o -3
-4 26 12 926. 1100. 148. o -2
4 26 12 926. 1100. 148. o 1
4 26 12 775. 1092. 70. o -3
8 26 0 775. 1092. 70. o -2
4 26 -12 775. 1092. 70. o 1
5 26 12 1869. 1638. 146. o 1
5 26 -12 1869. 1803. 87. o 1
-9 26 3 3463. 2143. 140. o -3
-3 26 15 3463. 2143. 140. o -2
6 26 12 3463. 2143. 140. o 1
7 26 -12 1268. 1045. 87. o 1
9 26 12 498. -19. 95. < 1
9 26 -12 498. 208. 97. < 1
-6 27 -6 487. 805. 101. o -3
-6 27 6 487. 805. 101. o -2
0 27 12 487. 805. 101. o 1
6 27 6 487. 76. 78. < -3
6 27 -6 487. 76. 78. < -2
0 27 -12 487. 76. 78. < 1
1 27 12 305. 400. 87. o 1
1 27 -12 305. 608. 86. o 1
-7 27 -3 10050. 9297. 124. o -3
-5 27 9 10050. 9297. 124. o -2
2 27 12 10050. 9297. 124. o 1
5 27 9 10336. 10020. 159. o -3
7 27 -3 10336. 10020. 159. o -2
2 27 -12 10336. 10020. 159. o 1
3 27 12 1065. 859. 82. o 1
3 27 -12 1065. 1032. 62. o 1
-8 27 0 1. -82. 120. < -3
-4 27 12 1. -82. 120. < -2
4 27 12 1. -82. 120. < 1
4 27 12 1. 31. 62. < -3
8 27 0 1. 31. 62. < -2
4 27 -12 1. 31. 62. < 1
5 27 12 1045. 985. 132. o 1
5 27 -12 1045. 1154. 72. o 1
-9 27 3 2891. 2553. 136. o -3
-3 27 15 2891. 2553. 136. o -2
6 27 12 2891. 2553. 136. o 1
3 27 15 2902. 2468. 87. o -3
9 27 3 2902. 2468. 87. o -2
6 27 -12 2902. 2468. 87. o 1
7 27 -12 289. 66. 74. < 1
-10 27 6 421. 99. 84. < -3
-2 27 18 421. 99. 84. < -2
8 27 12 421. 99. 84. < 1
2 27 18 371. 45. 68. < -3
10 27 6 371. 45. 68. < -2
8 27 -12 371. 45. 68. < 1
-6 28 -6 14295. 16695. 291. o -3
-6 28 6 14295. 16695. 291. o -2
0 28 12 14295. 16695. 291. o 1
6 28 6 14295. 17210. 307. o -3
6 28 -6 14295. 17210. 307. o -2
0 28 -12 14295. 17210. 307. o 1
1 28 12 2335. 2534. 99. o 1
1 28 -12 2335. 2709. 124. o 1
-7 28 -3 2369. 2132. 113. o -3
-5 28 9 2369. 2132. 113. o -2
2 28 12 2369. 2132. 113. o 1
5 28 9 2600. 1481. 115. o -3
7 28 -3 2600. 1481. 115. o -2
2 28 -12 2600. 1481. 115. o 1
3 28 12 1. 25. 72. < 1
3 28 -12 1. 33. 62. < 1
-8 28 0 1523. 981. 128. o -3
-4 28 12 1523. 981. 128. o -2
4 28 12 1523. 981. 128. o 1
4 28 12 1503. 1049. 72. o -3
8 28 0 1503. 1049. 72. o -2
4 28 -12 1503. 1049. 72. o 1
5 28 12 1669. 1669. 132. o 1
5 28 -12 1669. 1963. 76. o 1
-9 28 3 499. 428. 101. o -3
-3 28 15 499. 428. 101. o -2
6 28 12 499. 428. 101. o 1
3 28 15 487. 157. 62. < -3
9 28 3 487. 157. 62. < -2
6 28 -12 487. 157. 62. < 1
7 28 -12 112. 31. 43. < 1
-6 29 -6 159. 365. 117. o -3
-6 29 6 159. 365. 117. o -2
0 29 12 159. 365. 117. o 1
6 29 6 159. 268. 117. < -3
6 29 -6 159. 268. 117. < -2
0 29 -12 159. 268. 117. < 1
1 29 12 2624. 1910. 99. o 1
1 29 -12 2624. 2631. 99. o 1
-7 29 -3 5780. 4590. 119. o -3
-5 29 9 5780. 4590. 119. o -2
2 29 12 5780. 4590. 119. o 1
5 29 9 5801. 5363. 124. o -3
7 29 -3 5801. 5363. 124. o -2
2 29 -12 5801. 5363. 124. o 1
3 29 12 58. 206. 66. o 1
3 29 -12 58. 60. 56. < 1
-8 29 0 365. 198. 95. < -3
-4 29 12 365. 198. 95. < -2
4 29 12 365. 198. 95. < 1
4 29 12 375. 165. 60. < -3
8 29 0 375. 165. 60. < -2
4 29 -12 375. 165. 60. < 1
5 29 12 1536. 1314. 115. o 1
5 29 -12 1536. 511. 76. o 1
-6 30 -6 2103. 911. 140. o -3
-6 30 6 2103. 911. 140. o -2
0 30 12 2103. 911. 140. o 1
6 30 6 2103. 826. 152. o -3
6 30 -6 2103. 826. 152. o -2
0 30 -12 2103. 826. 152. o 1
1 30 12 745. 573. 80. o 1
1 30 -12 745. 332. 86. o 1
5 30 9 2174. 1372. 89. o -3
7 30 -3 2174. 1372. 89. o -2
2 30 -12 2174. 1372. 89. o 1
3 30 12 1038. 651. 76. o 1
3 30 -12 1038. 408. 66. o 1
-8 30 0 2209. 1939. 124. o -3
-4 30 12 2209. 1939. 124. o -2
4 30 12 2209. 1939. 124. o 1
5 30 12 898. 268. 93. < 1
5 30 -12 898. 159. 64. < 1
-6 31 -6 461. 25. 99. < -3
-6 31 6 461. 25. 99. < -2
0 31 12 461. 25. 99. < 1
6 31 6 461. 243. 117. < -3
6 31 -6 461. 243. 117. < -2
0 31 -12 461. 243. 117. < 1
3 31 12 20230. 17037. 251. o 1
3 31 -12 20230. 20894. 231. o 1
6 32 6 386. 268. 87. o -3
6 32 -6 386. 268. 87. o -2
0 32 -12 386. 268. 87. o 1
2 0 -13 8858. 8830. 89. o 1
4 0 -13 7204. 7324. 124. o 1
6 0 -13 871. 1391. 107. o 1
6 1 8 2890. 2892. 29. o -3
7 1 -5 2890. 2892. 29. o -2
1 1 -13 2890. 2892. 29. o 1
2 1 -13 1114. 999. 21. o 1
5 1 11 4194. 3990. 45. o -3
8 1 -2 4194. 3990. 45. o -2
3 1 -13 4194. 3990. 45. o 1
4 1 -13 209. 138. 58. < 1
4 1 14 6681. 7313. 99. o -3
9 1 1 6681. 7313. 99. o -2
5 1 -13 6681. 7313. 99. o 1
6 1 -13 699. 635. 84. o 1
6 2 8 162. 243. 25. o -3
7 2 -5 162. 243. 25. o -2
1 2 -13 162. 243. 25. o 1
2 2 -13 1455. 1370. 27. o 1
5 2 11 285. 468. 47. o -3
8 2 -2 285. 468. 47. o -2
3 2 -13 285. 468. 47. o 1
4 2 -13 671. 742. 60. o 1
4 2 14 1004. 1234. 49. o -3
9 2 1 1004. 1234. 49. o -2
5 2 -13 1004. 1234. 49. o 1
6 2 -13 4031. 4205. 105. o 1
6 3 8 3231. 3362. 41. o -3
7 3 -5 3231. 3362. 41. o -2
1 3 -13 3231. 3362. 41. o 1
2 3 -13 405. 497. 35. o 1
4 3 -13 327. 455. 66. o 1
4 3 14 1374. 1218. 41. o -3
9 3 1 1374. 1218. 41. o -2
5 3 -13 1374. 1218. 41. o 1
6 3 -13 3338. 2905. 105. o 1
3 3 17 492. 486. 60. o -3
10 3 4 492. 486. 60. o -2
7 3 -13 492. 486. 60. o 1
6 4 8 1691. 1623. 29. o -3
7 4 -5 1691. 1623. 29. o -2
1 4 -13 1691. 1623. 29. o 1
2 4 -13 609. 593. 37. o 1
5 4 11 1429. 1401. 52. o -3
8 4 -2 1429. 1401. 52. o -2
3 4 -13 1429. 1401. 52. o 1
4 4 -13 581. 668. 45. o 1
4 4 14 861. 884. 43. o -3
9 4 1 861. 884. 43. o -2
5 4 -13 861. 884. 43. o 1
6 4 -13 2691. 2777. 78. o 1
3 4 17 913. 1207. 78. o -3
10 4 4 913. 1207. 78. o -2
7 4 -13 913. 1207. 78. o 1
6 5 8 1940. 1893. 37. o -3
7 5 -5 1940. 1893. 37. o -2
1 5 -13 1940. 1893. 37. o 1
2 5 -13 125. 140. 47. < 1
5 5 11 5124. 4431. 60. o -3
8 5 -2 5124. 4431. 60. o -2
3 5 -13 5124. 4431. 60. o 1
4 5 -13 1294. 1112. 82. o 1
4 5 14 1479. 1137. 68. o -3
9 5 1 1479. 1137. 68. o -2
5 5 -13 1479. 1137. 68. o 1
6 5 -13 2297. 2450. 70. o 1
3 5 17 3451. 3648. 124. o -3
10 5 4 3451. 3648. 124. o -2
7 5 -13 3451. 3648. 124. o 1
6 6 8 1051. 1007. 29. o -3
7 6 -5 1051. 1007. 29. o -2
1 6 -13 1051. 1007. 29. o 1
2 6 -13 2249. 2260. 58. o 1
5 6 11 500. 459. 27. o -3
8 6 -2 500. 459. 27. o -2
3 6 -13 500. 459. 27. o 1
4 6 -13 3451. 2954. 72. o 1
4 6 14 475. 752. 70. o -3
9 6 1 475. 752. 70. o -2
5 6 -13 475. 752. 70. o 1
6 6 -13 902. 1016. 52. o 1
3 6 17 2507. 2612. 80. o -3
10 6 4 2507. 2612. 80. o -2
7 6 -13 2507. 2612. 80. o 1
-11 6 7 1040. 1658. 126. o -3
-2 6 20 1040. 1658. 126. o -2
9 6 13 1040. 1658. 126. o 1
6 7 8 2183. 2530. 56. o -3
7 7 -5 2183. 2530. 56. o -2
1 7 -13 2183. 2530. 56. o 1
2 7 -13 1230. 1251. 45. o 1
5 7 11 1008. 707. 31. o -3
8 7 -2 1008. 707. 31. o -2
3 7 -13 1008. 707. 31. o 1
4 7 -13 4887. 4683. 103. o 1
4 7 14 4808. 4271. 89. o -3
9 7 1 4808. 4271. 89. o -2
5 7 -13 4808. 4271. 89. o 1
6 7 -13 1450. 1490. 64. o 1
3 7 17 754. 857. 80. o -3
10 7 4 754. 857. 80. o -2
7 7 -13 754. 857. 80. o 1
-11 7 7 1958. 1088. 155. o -3
-2 7 20 1958. 1088. 155. o -2
9 7 13 1958. 1088. 155. o 1
6 8 8 6673. 7192. 99. o -3
7 8 -5 6673. 7192. 99. o -2
1 8 -13 6673. 7192. 99. o 1
2 8 -13 1369. 1034. 41. o 1
5 8 11 1299. 1621. 41. o -3
8 8 -2 1299. 1621. 41. o -2
3 8 -13 1299. 1621. 41. o 1
4 8 -13 8377. 7936. 91. o 1
4 8 14 1970. 1961. 64. o -3
9 8 1 1970. 1961. 64. o -2
5 8 -13 1970. 1961. 64. o 1
6 8 -13 153. 132. 68. < 1
3 8 17 1178. 1051. 91. o -3
10 8 4 1178. 1051. 91. o -2
7 8 -13 1178. 1051. 91. o 1
8 8 13 882. 525. 64. o 1
8 8 -13 882. 956. 60. o 1
-11 8 7 2125. 2386. 109. o -3
-2 8 20 2125. 2386. 109. o -2
9 8 13 2125. 2386. 109. o 1
10 8 13 2992. 2666. 144. o 1
6 9 8 3232. 2695. 56. o -3
7 9 -5 3232. 2695. 56. o -2
1 9 -13 3232. 2695. 56. o 1
2 9 -13 1047. 1012. 39. o 1
4 9 -13 3267. 3146. 51. o 1
4 9 14 13242. 13830. 188. o -3
9 9 1 13242. 13830. 188. o -2
5 9 -13 13242. 13830. 188. o 1
6 9 -13 608. 546. 70. o 1
3 9 17 3362. 2602. 78. o -3
10 9 4 3362. 2602. 78. o -2
7 9 -13 3362. 2602. 78. o 1
8 9 13 254. 301. 82. o 1
8 9 -13 254. 509. 87. o 1
-11 9 7 2649. 2361. 132. o -3
-2 9 20 2649. 2361. 132. o -2
9 9 13 2649. 2361. 132. o 1
6 10 8 689. 503. 35. o -3
7 10 -5 689. 503. 35. o -2
1 10 -13 689. 503. 35. o 1
2 10 -13 4351. 4240. 74. o 1
5 10 11 4734. 5552. 97. o -3
8 10 -2 4734. 5552. 97. o -2
3 10 -13 4734. 5552. 97. o 1
4 10 -13 2896. 2905. 49. o 1
4 10 14 13546. 16753. 270. o -3
9 10 1 13546. 16753. 270. o -2
5 10 -13 13546. 16753. 270. o 1
6 10 -13 4033. 3953. 95. o 1
3 10 17 649. 686. 60. o -3
10 10 4 649. 686. 60. o -2
7 10 -13 649. 686. 60. o 1
8 10 13 2105. 1776. 70. o 1
8 10 -13 2105. 2223. 80. o 1
-11 10 7 1746. 1492. 99. o -3
-2 10 20 1746. 1492. 99. o -2
9 10 13 1746. 1492. 99. o 1
2 10 20 1644. 1881. 113. o -3
11 10 7 1644. 1881. 113. o -2
9 10 -13 1644. 1881. 113. o 1
6 11 8 3837. 4085. 80. o -3
7 11 -5 3837. 4085. 80. o -2
1 11 -13 3837. 4085. 80. o 1
2 11 -13 3283. 3560. 70. o 1
5 11 11 2070. 2466. 58. o -3
8 11 -2 2070. 2466. 58. o -2
3 11 -13 2070. 2466. 58. o 1
4 11 -13 464. 455. 35. o 1
4 11 14 6748. 6277. 124. o -3
9 11 1 6748. 6277. 124. o -2
5 11 -13 6748. 6277. 124. o 1
6 11 -13 278. 301. 74. o 1
-10 11 4 2320. 2571. 93. o -3
-3 11 17 2320. 2571. 93. o -2
7 11 13 2320. 2571. 93. o 1
3 11 17 2285. 2759. 84. o -3
10 11 4 2285. 2759. 84. o -2
7 11 -13 2285. 2759. 84. o 1
8 11 13 1062. 1207. 82. o 1
8 11 -13 1062. 1319. 72. o 1
-11 11 7 1988. 1889. 109. o -3
-2 11 20 1988. 1889. 109. o -2
9 11 13 1988. 1889. 109. o 1
2 11 20 2221. 2033. 140. o -3
11 11 7 2221. 2033. 140. o -2
9 11 -13 2221. 2033. 140. o 1
-7 12 -5 5108. 4654. 136. o -3
-6 12 8 5108. 4654. 136. o -2
1 12 13 5108. 4654. 136. o 1
6 12 8 4901. 4571. 74. o -3
7 12 -5 4901. 4571. 74. o -2
1 12 -13 4901. 4571. 74. o 1
2 12 -13 2178. 2517. 62. o 1
5 12 11 4172. 4431. 78. o -3
8 12 -2 4172. 4431. 78. o -2
3 12 -13 4172. 4431. 78. o 1
4 12 -13 936. 911. 35. o 1
4 12 14 3063. 3377. 93. o -3
9 12 1 3063. 3377. 93. o -2
5 12 -13 3063. 3377. 93. o 1
6 12 13 381. 321. 142. < 1
6 12 -13 381. 501. 74. o 1
-10 12 4 2504. 2196. 78. o -3
-3 12 17 2504. 2196. 78. o -2
7 12 13 2504. 2196. 78. o 1
3 12 17 2498. 2754. 82. o -3
10 12 4 2498. 2754. 82. o -2
7 12 -13 2498. 2754. 82. o 1
8 12 13 1226. 999. 84. o 1
8 12 -13 1226. 1220. 68. o 1
2 12 20 466. 746. 120. o -3
11 12 7 466. 746. 120. o -2
9 12 -13 466. 746. 120. o 1
-7 13 -5 2732. 3053. 124. o -3
-6 13 8 2732. 3053. 124. o -2
1 13 13 2732. 3053. 124. o 1
6 13 8 3071. 3208. 68. o -3
7 13 -5 3071. 3208. 68. o -2
1 13 -13 3071. 3208. 68. o 1
2 13 13 1003. 1211. 84. o 1
2 13 -13 1003. 1253. 49. o 1
-8 13 -2 5890. 5830. 105. o -3
-5 13 11 5890. 5830. 105. o -2
3 13 13 5890. 5830. 105. o 1
5 13 11 5707. 6106. 93. o -3
8 13 -2 5707. 6106. 93. o -2
3 13 -13 5707. 6106. 93. o 1
4 13 13 15. -72. 122. < 1
4 13 -13 15. -87. 45. < 1
-9 13 1 2040. 1895. 82. o -3
-4 13 14 2040. 1895. 82. o -2
5 13 13 2040. 1895. 82. o 1
4 13 14 2031. 2266. 84. o -3
9 13 1 2031. 2266. 84. o -2
5 13 -13 2031. 2266. 84. o 1
6 13 13 1862. 1899. 74. o 1
6 13 -13 1862. 1916. 70. o 1
-10 13 4 2818. 2571. 89. o -3
-3 13 17 2818. 2571. 89. o -2
7 13 13 2818. 2571. 89. o 1
3 13 17 2744. 3360. 99. o -3
10 13 4 2744. 3360. 99. o -2
7 13 -13 2744. 3360. 99. o 1
8 13 13 895. 1094. 87. o 1
8 13 -13 895. 1296. 68. o 1
-11 13 7 3649. 4310. 165. o -3
-2 13 20 3649. 4310. 165. o -2
9 13 13 3649. 4310. 165. o 1
2 13 20 4041. 3593. 117. o -3
11 13 7 4041. 3593. 117. o -2
9 13 -13 4041. 3593. 117. o 1
-7 14 -5 1870. 1937. 101. o -3
-6 14 8 1870. 1937. 101. o -2
1 14 13 1870. 1937. 101. o 1
6 14 8 1749. 1753. 51. o -3
7 14 -5 1749. 1753. 51. o -2
1 14 -13 1749. 1753. 51. o 1
2 14 13 1289. 1434. 70. o 1
2 14 -13 1289. 1259. 49. o 1
-8 14 -2 1093. 1576. 95. o -3
-5 14 11 1093. 1576. 95. o -2
3 14 13 1093. 1576. 95. o 1
5 14 11 1112. 1489. 54. o -3
8 14 -2 1112. 1489. 54. o -2
3 14 -13 1112. 1489. 54. o 1
4 14 13 289. 377. 68. o 1
4 14 -13 289. 253. 49. o 1
-9 14 1 881. 806. 82. o -3
-4 14 14 881. 806. 82. o -2
5 14 13 881. 806. 82. o 1
4 14 14 903. 1045. 66. o -3
9 14 1 903. 1045. 66. o -2
5 14 -13 903. 1045. 66. o 1
6 14 13 1584. 1617. 72. o 1
6 14 -13 1584. 1716. 72. o 1
-10 14 4 2040. 2759. 113. o -3
-3 14 17 2040. 2759. 113. o -2
7 14 13 2040. 2759. 113. o 1
3 14 17 2209. 2616. 84. o -3
10 14 4 2209. 2616. 84. o -2
7 14 -13 2209. 2616. 84. o 1
8 14 13 140. 247. 146. < 1
8 14 -13 140. 278. 95. < 1
-11 14 7 2245. 2876. 206. o -3
-2 14 20 2245. 2876. 206. o -2
9 14 13 2245. 2876. 206. o 1
2 14 20 2156. 2750. 117. o -3
11 14 7 2156. 2750. 117. o -2
9 14 -13 2156. 2750. 117. o 1
-7 15 -5 5843. 5424. 107. o -3
-6 15 8 5843. 5424. 107. o -2
1 15 13 5843. 5424. 107. o 1
6 15 8 6542. 7981. 99. o -3
7 15 -5 6542. 7981. 99. o -2
1 15 -13 6542. 7981. 99. o 1
2 15 13 870. 826. 86. o 1
2 15 -13 870. 911. 76. o 1
-8 15 -2 3700. 3710. 95. o -3
-5 15 11 3700. 3710. 95. o -2
3 15 13 3700. 3710. 95. o 1
5 15 11 3599. 3282. 68. o -3
8 15 -2 3599. 3282. 68. o -2
3 15 -13 3599. 3282. 68. o 1
4 15 13 108. 231. 84. < 1
4 15 -13 108. 52. 70. < 1
-9 15 1 3138. 2680. 117. o -3
-4 15 14 3138. 2680. 117. o -2
5 15 13 3138. 2680. 117. o 1
4 15 14 3328. 3558. 66. o -3
9 15 1 3328. 3558. 66. o -2
5 15 -13 3328. 3558. 66. o 1
6 15 13 715. 873. 95. o 1
6 15 -13 715. 822. 68. o 1
-10 15 4 5108. 5080. 173. o -3
-3 15 17 5108. 5080. 173. o -2
7 15 13 5108. 5080. 173. o 1
3 15 17 4842. 5222. 115. o -3
10 15 4 4842. 5222. 115. o -2
7 15 -13 4842. 5222. 115. o 1
8 15 13 661. 474. 154. o 1
8 15 -13 661. 880. 103. o 1
-11 15 7 6020. 5101. 169. o -3
-2 15 20 6020. 5101. 169. o -2
9 15 13 6020. 5101. 169. o 1
2 15 20 6109. 6823. 144. o -3
11 15 7 6109. 6823. 144. o -2
9 15 -13 6109. 6823. 144. o 1
10 15 -13 591. 445. 132. o 1
-7 16 -5 7466. 7637. 142. o -3
-6 16 8 7466. 7637. 142. o -2
1 16 13 7466. 7637. 142. o 1
6 16 8 7070. 6446. 82. o -3
7 16 -5 7070. 6446. 82. o -2
1 16 -13 7070. 6446. 82. o 1
2 16 13 529. 542. 84. o 1
2 16 -13 529. 276. 76. o 1
-8 16 -2 998. 1164. 95. o -3
-5 16 11 998. 1164. 95. o -2
3 16 13 998. 1164. 95. o 1
5 16 11 1005. 781. 76. o -3
8 16 -2 1005. 781. 76. o -2
3 16 -13 1005. 781. 76. o 1
4 16 13 108. 93. 82. < 1
4 16 -13 108. 134. 68. < 1
-9 16 1 2905. 3098. 91. o -3
-4 16 14 2905. 3098. 91. o -2
5 16 13 2905. 3098. 91. o 1
4 16 14 2864. 3125. 64. o -3
9 16 1 2864. 3125. 64. o -2
5 16 -13 2864. 3125. 64. o 1
6 16 13 36. -8. 87. < 1
6 16 -13 36. -99. 91. < 1
-10 16 4 2450. 2690. 130. o -3
-3 16 17 2450. 2690. 130. o -2
7 16 13 2450. 2690. 130. o 1
3 16 17 2771. 2651. 93. o -3
10 16 4 2771. 2651. 93. o -2
7 16 -13 2771. 2651. 93. o 1
8 16 13 5997. 5523. 175. o 1
8 16 -13 5997. 6747. 130. o 1
10 16 -13 1126. 1341. 138. o 1
-7 17 -5 904. 958. 82. o -3
-6 17 8 904. 958. 82. o -2
1 17 13 904. 958. 82. o 1
6 17 8 906. 717. 62. o -3
7 17 -5 906. 717. 62. o -2
1 17 -13 906. 717. 62. o 1
2 17 13 1253. 1343. 62. o 1
2 17 -13 1253. 1617. 68. o 1
-8 17 -2 3043. 3160. 93. o -3
-5 17 11 3043. 3160. 93. o -2
3 17 13 3043. 3160. 93. o 1
5 17 11 3002. 2623. 68. o -3
8 17 -2 3002. 2623. 68. o -2
3 17 -13 3002. 2623. 68. o 1
4 17 13 23. 37. 84. < 1
4 17 -13 23. 82. 68. < 1
-9 17 1 4409. 4848. 113. o -3
-4 17 14 4409. 4848. 113. o -2
5 17 13 4409. 4848. 113. o 1
4 17 14 4877. 4256. 76. o -3
9 17 1 4877. 4256. 76. o -2
5 17 -13 4877. 4256. 76. o 1
6 17 13 9. 82. 87. < 1
6 17 -13 9. 86. 84. < 1
-10 17 4 2765. 1595. 109. o -3
-3 17 17 2765. 1595. 109. o -2
7 17 13 2765. 1595. 109. o 1
3 17 17 2693. 1751. 126. o -3
10 17 4 2693. 1751. 126. o -2
7 17 -13 2693. 1751. 126. o 1
8 17 13 1701. 1663. 99. o 1
8 17 -13 1701. 2042. 101. o 1
-11 17 7 4172. 4248. 169. o -3
-2 17 20 4172. 4248. 169. o -2
9 17 13 4172. 4248. 169. o 1
10 17 13 2376. 2180. 130. o 1
10 17 -13 2376. 2108. 119. o 1
-7 18 -5 461. 216. 62. o -3
-6 18 8 461. 216. 62. o -2
1 18 13 461. 216. 62. o 1
6 18 8 429. 321. 60. o -3
7 18 -5 429. 321. 60. o -2
1 18 -13 429. 321. 60. o 1
2 18 13 738. 834. 91. o 1
2 18 -13 738. 771. 76. o 1
-8 18 -2 2438. 2859. 86. o -3
-5 18 11 2438. 2859. 86. o -2
3 18 13 2438. 2859. 86. o 1
5 18 11 2747. 2602. 74. o -3
8 18 -2 2747. 2602. 74. o -2
3 18 -13 2747. 2602. 74. o 1
4 18 13 293. 360. 130. < 1
4 18 -13 293. 342. 70. o 1
-9 18 1 2869. 2235. 134. o -3
-4 18 14 2869. 2235. 134. o -2
5 18 13 2869. 2235. 134. o 1
4 18 14 2710. 2621. 70. o -3
9 18 1 2710. 2621. 70. o -2
5 18 -13 2710. 2621. 70. o 1
6 18 13 730. 723. 97. o 1
6 18 -13 730. 787. 97. o 1
-10 18 4 4197. 4806. 159. o -3
-3 18 17 4197. 4806. 159. o -2
7 18 13 4197. 4806. 159. o 1
3 18 17 4391. 4124. 113. o -3
10 18 4 4391. 4124. 113. o -2
7 18 -13 4391. 4124. 113. o 1
8 18 13 409. 23. 142. < 1
8 18 -13 409. 227. 93. < 1
-11 18 7 1143. 1152. 148. o -3
-2 18 20 1143. 1152. 148. o -2
9 18 13 1143. 1152. 148. o 1
2 18 20 1098. 1139. 89. o -3
11 18 7 1098. 1139. 89. o -2
9 18 -13 1098. 1139. 89. o 1
10 18 13 589. 573. 134. o 1
10 18 -13 589. 360. 87. o 1
-7 19 -5 1759. 1535. 68. o -3
-6 19 8 1759. 1535. 68. o -2
1 19 13 1759. 1535. 68. o 1
6 19 8 2053. 1483. 56. o -3
7 19 -5 2053. 1483. 56. o -2
1 19 -13 2053. 1483. 56. o 1
2 19 13 1300. 1277. 62. o 1
2 19 -13 1300. 1347. 70. o 1
-8 19 -2 8892. 8543. 136. o -3
-5 19 11 8892. 8543. 136. o -2
3 19 13 8892. 8543. 136. o 1
5 19 11 8370. 7723. 111. o -3
8 19 -2 8370. 7723. 111. o -2
3 19 -13 8370. 7723. 111. o 1
4 19 13 364. 536. 130. o 1
4 19 -13 364. 468. 76. o 1
-9 19 1 9994. 11145. 227. o -3
-4 19 14 9994. 11145. 227. o -2
5 19 13 9994. 11145. 227. o 1
4 19 14 9926. 10435. 119. o -3
9 19 1 9926. 10435. 119. o -2
5 19 -13 9926. 10435. 119. o 1
6 19 13 1879. 1984. 103. o 1
6 19 -13 1879. 1877. 99. o 1
-10 19 4 5660. 4283. 150. o -3
-3 19 17 5660. 4283. 150. o -2
7 19 13 5660. 4283. 150. o 1
3 19 17 4957. 4990. 124. o -3
10 19 4 4957. 4990. 124. o -2
7 19 -13 4957. 4990. 124. o 1
8 19 13 301. 136. 146. < 1
8 19 -13 301. 420. 89. o 1
-11 19 7 314. 299. 134. < -3
-2 19 20 314. 299. 134. < -2
9 19 13 314. 299. 134. < 1
2 19 20 351. 103. 78. < -3
11 19 7 351. 103. 78. < -2
9 19 -13 351. 103. 78. < 1
10 19 13 954. 884. 140. o 1
10 19 -13 954. 977. 80. o 1
-7 20 -5 11447. 12019. 173. o -3
-6 20 8 11447. 12019. 173. o -2
1 20 13 11447. 12019. 173. o 1
6 20 8 10869. 11018. 161. o -3
7 20 -5 10869. 11018. 161. o -2
1 20 -13 10869. 11018. 161. o 1
2 20 13 2375. 2291. 82. o 1
2 20 -13 2375. 2365. 68. o 1
-8 20 -2 8059. 10338. 154. o -3
-5 20 11 8059. 10338. 154. o -2
3 20 13 8059. 10338. 154. o 1
5 20 11 8746. 8187. 119. o -3
8 20 -2 8746. 8187. 119. o -2
3 20 -13 8746. 8187. 119. o 1
4 20 13 942. 816. 146. o 1
4 20 -13 942. 1053. 82. o 1
4 20 14 3007. 2070. 99. o -3
9 20 1 3007. 2070. 99. o -2
5 20 -13 3007. 2070. 99. o 1
6 20 13 944. 1162. 103. o 1
6 20 -13 944. 1001. 97. o 1
-10 20 4 1515. 1469. 155. o -3
-3 20 17 1515. 1469. 155. o -2
7 20 13 1515. 1469. 155. o 1
3 20 17 1592. 1358. 99. o -3
10 20 4 1592. 1358. 99. o -2
7 20 -13 1592. 1358. 99. o 1
8 20 13 72. 58. 124. < 1
8 20 -13 72. 47. 80. < 1
-11 20 7 2540. 1603. 140. o -3
-2 20 20 2540. 1603. 140. o -2
9 20 13 2540. 1603. 140. o 1
2 20 20 2302. 1609. 99. o -3
11 20 7 2302. 1609. 99. o -2
9 20 -13 2302. 1609. 99. o 1
10 20 13 156. 482. 120. o 1
10 20 -13 156. 222. 70. o 1
11 20 13 2949. 2307. 134. o 1
-7 21 -5 1815. 1421. 78. o -3
-6 21 8 1815. 1421. 78. o -2
1 21 13 1815. 1421. 78. o 1
6 21 8 1967. 1411. 93. o -3
7 21 -5 1967. 1411. 93. o -2
1 21 -13 1967. 1411. 93. o 1
2 21 13 4577. 4526. 87. o 1
2 21 -13 4577. 4172. 89. o 1
-8 21 -2 9025. 9246. 157. o -3
-5 21 11 9025. 9246. 157. o -2
3 21 13 9025. 9246. 157. o 1
5 21 11 9235. 8840. 122. o -3
8 21 -2 9235. 8840. 122. o -2
3 21 -13 9235. 8840. 122. o 1
4 21 13 788. 915. 144. o 1
4 21 -13 788. 808. 74. o 1
-9 21 1 21195. 20890. 317. o -3
-4 21 14 21195. 20890. 317. o -2
5 21 13 21195. 20890. 317. o 1
4 21 14 22081. 21835. 194. o -3
9 21 1 22081. 21835. 194. o -2
5 21 -13 22081. 21835. 194. o 1
6 21 13 38. 245. 89. < 1
6 21 -13 38. 86. 56. < 1
3 21 17 3938. 2824. 111. o -3
10 21 4 3938. 2824. 111. o -2
7 21 -13 3938. 2824. 111. o 1
8 21 13 101. 198. 122. < 1
8 21 -13 101. 140. 68. < 1
-11 21 7 1315. 1691. 138. o -3
-2 21 20 1315. 1691. 138. o -2
9 21 13 1315. 1691. 138. o 1
2 21 20 1391. 1512. 86. o -3
11 21 7 1391. 1512. 86. o -2
9 21 -13 1391. 1512. 86. o 1
10 21 13 915. 515. 111. o 1
10 21 -13 915. 632. 84. o 1
11 21 13 1880. 2252. 132. o 1
-7 22 -5 939. 1096. 64. o -3
-6 22 8 939. 1096. 64. o -2
1 22 13 939. 1096. 64. o 1
6 22 8 867. 721. 99. o -3
7 22 -5 867. 721. 99. o -2
1 22 -13 867. 721. 99. o 1
2 22 13 636. 595. 68. o 1
2 22 -13 636. 501. 78. o 1
5 22 11 6959. 6526. 111. o -3
8 22 -2 6959. 6526. 111. o -2
3 22 -13 6959. 6526. 111. o 1
4 22 13 494. 377. 140. < 1
4 22 -13 494. 398. 84. o 1
-9 22 1 20176. 18964. 307. o -3
-4 22 14 20176. 18964. 307. o -2
5 22 13 20176. 18964. 307. o 1
4 22 14 19131. 18893. 196. o -3
9 22 1 19131. 18893. 196. o -2
5 22 -13 19131. 18893. 196. o 1
6 22 13 1553. 1411. 148. o 1
6 22 -13 1553. 1448. 80. o 1
-10 22 4 1683. 1757. 144. o -3
-3 22 17 1683. 1757. 144. o -2
7 22 13 1683. 1757. 144. o 1
3 22 17 1692. 1504. 87. o -3
10 22 4 1692. 1504. 87. o -2
7 22 -13 1692. 1504. 87. o 1
8 22 13 647. 542. 119. o 1
8 22 -13 647. 686. 82. o 1
-11 22 7 801. 682. 126. o -3
-2 22 20 801. 682. 126. o -2
9 22 13 801. 682. 126. o 1
2 22 20 811. 822. 76. o -3
11 22 7 811. 822. 76. o -2
9 22 -13 811. 822. 76. o 1
10 22 13 1002. 599. 115. o 1
10 22 -13 1002. 878. 76. o 1
-7 23 -5 6128. 6236. 120. o -3
-6 23 8 6128. 6236. 120. o -2
1 23 13 6128. 6236. 120. o 1
6 23 8 6281. 6446. 138. o -3
7 23 -5 6281. 6446. 138. o -2
1 23 -13 6281. 6446. 138. o 1
2 23 13 90. 62. 66. < 1
2 23 -13 90. 163. 70. < 1
-8 23 -2 1218. 1069. 95. o -3
-5 23 11 1218. 1069. 95. o -2
3 23 13 1218. 1069. 95. o 1
5 23 11 1168. 849. 80. o -3
8 23 -2 1168. 849. 80. o -2
3 23 -13 1168. 849. 80. o 1
4 23 13 92. 154. 136. < 1
4 23 -13 92. 144. 76. < 1
-9 23 1 1935. 2004. 155. o -3
-4 23 14 1935. 2004. 155. o -2
5 23 13 1935. 2004. 155. o 1
4 23 14 2073. 1531. 78. o -3
9 23 1 2073. 1531. 78. o -2
5 23 -13 2073. 1531. 78. o 1
6 23 13 1147. 1269. 142. o 1
6 23 -13 1147. 1285. 60. o 1
-10 23 4 809. 709. 115. o -3
-3 23 17 809. 709. 115. o -2
7 23 13 809. 709. 115. o 1
3 23 17 789. 703. 76. o -3
10 23 4 789. 703. 76. o -2
7 23 -13 789. 703. 76. o 1
8 23 13 263. 14. 99. < 1
8 23 -13 263. 163. 72. < 1
-11 23 7 3186. 1716. 146. o -3
-2 23 20 3186. 1716. 146. o -2
9 23 13 3186. 1716. 146. o 1
2 23 20 3066. 2596. 101. o -3
11 23 7 3066. 2596. 101. o -2
9 23 -13 3066. 2596. 101. o 1
10 23 13 430. 148. 105. < 1
10 23 -13 430. -21. 101. < 1
-7 24 -5 2928. 2756. 86. o -3
-6 24 8 2928. 2756. 86. o -2
1 24 13 2928. 2756. 86. o 1
6 24 8 2765. 3070. 99. o -3
7 24 -5 2765. 3070. 99. o -2
1 24 -13 2765. 3070. 99. o 1
2 24 13 582. 593. 68. o 1
2 24 -13 582. 548. 68. o 1
-8 24 -2 432. 700. 134. o -3
-5 24 11 432. 700. 134. o -2
3 24 13 432. 700. 134. o 1
5 24 11 431. 536. 62. o -3
8 24 -2 431. 536. 62. o -2
3 24 -13 431. 536. 62. o 1
4 24 13 431. 391. 124. o 1
4 24 -13 431. 381. 70. o 1
-9 24 1 812. 593. 142. o -3
-4 24 14 812. 593. 142. o -2
5 24 13 812. 593. 142. o 1
4 24 14 692. 381. 70. o -3
9 24 1 692. 381. 70. o -2
5 24 -13 692. 381. 70. o 1
6 24 13 648. 480. 120. o 1
6 24 -13 648. 552. 51. o 1
-10 24 4 1121. 1141. 84. o -3
-3 24 17 1121. 1141. 84. o -2
7 24 13 1121. 1141. 84. o 1
3 24 17 1166. 954. 80. o -3
10 24 4 1166. 954. 80. o -2
7 24 -13 1166. 954. 80. o 1
8 24 13 304. 373. 99. o 1
8 24 -13 304. 115. 76. < 1
-11 24 7 2245. 1916. 138. o -3
-2 24 20 2245. 1916. 138. o -2
9 24 13 2245. 1916. 138. o 1
2 24 20 2132. 1489. 99. o -3
11 24 7 2132. 1489. 99. o -2
9 24 -13 2132. 1489. 99. o 1
-7 25 -5 5668. 6564. 142. o -3
-6 25 8 5668. 6564. 142. o -2
1 25 13 5668. 6564. 142. o 1
6 25 8 5521. 3910. 138. o -3
7 25 -5 5521. 3910. 138. o -2
1 25 -13 5521. 3910. 138. o 1
2 25 13 241. 313. 82. o 1
2 25 -13 241. 330. 54. o 1
-8 25 -2 4620. 6184. 183. o -3
-5 25 11 4620. 6184. 183. o -2
3 25 13 4620. 6184. 183. o 1
5 25 11 4989. 4376. 95. o -3
8 25 -2 4989. 4376. 95. o -2
3 25 -13 4989. 4376. 95. o 1
4 25 13 123. -49. 134. < 1
4 25 -13 123. 142. 58. < 1
-9 25 1 2894. 2534. 134. o -3
-4 25 14 2894. 2534. 134. o -2
5 25 13 2894. 2534. 134. o 1
4 25 14 2746. 1930. 76. o -3
9 25 1 2746. 1930. 76. o -2
5 25 -13 2746. 1930. 76. o 1
6 25 13 99. 99. 103. < 1
6 25 -13 99. 120. 60. < 1
-10 25 4 1567. 1926. 124. o -3
-3 25 17 1567. 1926. 124. o -2
7 25 13 1567. 1926. 124. o 1
3 25 17 1701. 1494. 91. o -3
10 25 4 1701. 1494. 91. o -2
7 25 -13 1701. 1494. 91. o 1
8 25 13 978. 643. 113. o 1
8 25 -13 978. 404. 87. o 1
-11 25 7 3797. 3585. 146. o -3
-2 25 20 3797. 3585. 146. o -2
9 25 13 3797. 3585. 146. o 1
-7 26 -5 3624. 3595. 97. o -3
-6 26 8 3624. 3595. 97. o -2
1 26 13 3624. 3595. 97. o 1
6 26 8 3473. 3554. 103. o -3
7 26 -5 3473. 3554. 103. o -2
1 26 -13 3473. 3554. 103. o 1
2 26 13 274. 394. 84. o 1
2 26 -13 274. 257. 51. o 1
-8 26 -2 1681. 1906. 142. o -3
-5 26 11 1681. 1906. 142. o -2
3 26 13 1681. 1906. 142. o 1
5 26 11 1826. 2070. 84. o -3
8 26 -2 1826. 2070. 84. o -2
3 26 -13 1826. 2070. 84. o 1
4 26 13 689. 282. 134. < 1
4 26 -13 689. 651. 70. o 1
-9 26 1 1675. 1465. 134. o -3
-4 26 14 1675. 1465. 134. o -2
5 26 13 1675. 1465. 134. o 1
4 26 14 1559. 1354. 91. o -3
9 26 1 1559. 1354. 91. o -2
5 26 -13 1559. 1354. 91. o 1
6 26 13 474. 497. 111. o 1
6 26 -13 474. 536. 66. o 1
-10 26 4 2228. 1191. 119. o -3
-3 26 17 2228. 1191. 119. o -2
7 26 13 2228. 1191. 119. o 1
3 26 17 2396. 1829. 107. o -3
10 26 4 2396. 1829. 107. o -2
7 26 -13 2396. 1829. 107. o 1
8 26 13 1438. 904. 111. o 1
8 26 -13 1438. 740. 97. o 1
-7 27 -5 8953. 7806. 144. o -3
-6 27 8 8953. 7806. 144. o -2
1 27 13 8953. 7806. 144. o 1
6 27 8 8948. 8562. 163. o -3
7 27 -5 8948. 8562. 163. o -2
1 27 -13 8948. 8562. 163. o 1
2 27 13 837. 812. 84. o 1
2 27 -13 837. 1504. 93. o 1
-8 27 -2 5028. 3824. 120. o -3
-5 27 11 5028. 3824. 120. o -2
3 27 13 5028. 3824. 120. o 1
5 27 11 4854. 3986. 113. o -3
8 27 -2 4854. 3986. 113. o -2
3 27 -13 4854. 3986. 113. o 1
4 27 13 396. 540. 122. o 1
4 27 -13 396. 408. 68. o 1
-9 27 1 2874. 3092. 152. o -3
-4 27 14 2874. 3092. 152. o -2
5 27 13 2874. 3092. 152. o 1
4 27 14 2958. 3030. 86. o -3
9 27 1 2958. 3030. 86. o -2
5 27 -13 2958. 3030. 86. o 1
6 27 13 229. 229. 97. < 1
6 27 -13 229. 188. 62. o 1
-10 27 4 1474. 661. 105. o -3
-3 27 17 1474. 661. 105. o -2
7 27 13 1474. 661. 105. o 1
3 27 17 1473. 748. 84. o -3
10 27 4 1473. 748. 84. o -2
7 27 -13 1473. 748. 84. o 1
-7 28 -5 3097. 2915. 105. o -3
-6 28 8 3097. 2915. 105. o -2
1 28 13 3097. 2915. 105. o 1
6 28 8 3068. 2787. 103. o -3
7 28 -5 3068. 2787. 103. o -2
1 28 -13 3068. 2787. 103. o 1
2 28 13 38. 140. 74. < 1
2 28 -13 38. 159. 76. < 1
-8 28 -2 217. 206. 70. < -3
-5 28 11 217. 206. 70. < -2
3 28 13 217. 206. 70. < 1
5 28 11 211. 19. 78. < -3
8 28 -2 211. 19. 78. < -2
3 28 -13 211. 19. 78. < 1
4 28 13 49. 122. 113. < 1
4 28 -13 49. 124. 60. < 1
-9 28 1 417. 301. 117. < -3
-4 28 14 417. 301. 117. < -2
5 28 13 417. 301. 117. < 1
4 28 14 405. 241. 62. o -3
9 28 1 405. 241. 62. o -2
5 28 -13 405. 241. 62. o 1
6 28 13 23. -165. 91. < 1
6 28 -13 23. 6. 56. < 1
-7 29 -5 1551. 1298. 91. o -3
-6 29 8 1551. 1298. 91. o -2
1 29 13 1551. 1298. 91. o 1
6 29 8 1476. 1372. 91. o -3
7 29 -5 1476. 1372. 91. o -2
1 29 -13 1476. 1372. 91. o 1
2 29 13 145. 97. 111. < 1
2 29 -13 145. 212. 72. < 1
-8 29 -2 1727. 838. 87. o -3
-5 29 11 1727. 838. 87. o -2
3 29 13 1727. 838. 87. o 1
5 29 11 1749. 635. 87. o -3
8 29 -2 1749. 635. 87. o -2
3 29 -13 1749. 635. 87. o 1
4 29 13 140. 58. 93. < 1
4 29 -13 140. -21. 58. < 1
-9 29 1 1193. 527. 119. o -3
-4 29 14 1193. 527. 119. o -2
5 29 13 1193. 527. 119. o 1
4 29 14 1192. 490. 66. o -3
9 29 1 1192. 490. 66. o -2
5 29 -13 1192. 490. 66. o 1
-7 30 -5 702. 311. 76. o -3
-6 30 8 702. 311. 76. o -2
1 30 13 702. 311. 76. o 1
6 30 8 613. 443. 82. o -3
7 30 -5 613. 443. 82. o -2
1 30 -13 613. 443. 82. o 1
2 30 13 153. 179. 93. < 1
2 30 -13 153. 115. 66. < 1
-8 30 -2 1381. 709. 80. o -3
-5 30 11 1381. 709. 80. o -2
3 30 13 1381. 709. 80. o 1
5 30 11 1581. 1209. 80. o -3
8 30 -2 1581. 1209. 80. o -2
3 30 -13 1581. 1209. 80. o 1
4 30 13 131. 216. 93. < 1
4 30 -13 131. 146. 52. < 1
2 31 13 1049. 311. 115. < 1
2 31 -13 1049. 198. 76. < 1
0 0 -14 683. 614. 41. o 1
6 0 10 37691. 45824. 253. o -3
8 0 -4 37691. 45824. 253. o -2
2 0 -14 37691. 45824. 253. o 1
4 0 -14 281. 62. 84. < 1
4 0 16 143325. 163782. 882. o -3
10 0 2 143325. 163782. 882. o -2
6 0 -14 143325. 163782. 882. o 1
7 1 7 2346. 2416. 45. o -3
7 1 -7 2346. 2416. 45. o -2
0 1 -14 2346. 2416. 45. o 1
1 1 -14 779. 756. 23. o 1
6 1 10 355. 457. 35. o -3
8 1 -4 355. 457. 35. o -2
2 1 -14 355. 457. 35. o 1
3 1 -14 292. 330. 37. o 1
5 1 13 13318. 15634. 138. o -3
9 1 -1 13318. 15634. 138. o -2
4 1 -14 13318. 15634. 138. o 1
5 1 -14 1165. 1308. 45. o 1
4 1 16 534. 558. 84. o -3
10 1 2 534. 558. 84. o -2
6 1 -14 534. 558. 84. o 1
7 2 7 282. 163. 54. < -3
7 2 -7 282. 163. 54. < -2
0 2 -14 282. 163. 54. < 1
1 2 -14 171. 138. 31. o 1
6 2 10 67012. 74502. 218. o -3
8 2 -4 67012. 74502. 218. o -2
2 2 -14 67012. 74502. 218. o 1
3 2 -14 1045. 1069. 31. o 1
5 2 13 873. 999. 76. o -3
9 2 -1 873. 999. 76. o -2
4 2 -14 873. 999. 76. o 1
5 2 -14 628. 738. 60. o 1
4 2 16 51880. 52799. 404. o -3
10 2 2 51880. 52799. 404. o -2
6 2 -14 51880. 52799. 404. o 1
7 2 -14 5040. 5340. 187. o 1
7 3 7 4521. 5107. 66. o -3
7 3 -7 4521. 5107. 66. o -2
0 3 -14 4521. 5107. 66. o 1
1 3 -14 743. 801. 31. o 1
6 3 10 210. 152. 43. o -3
8 3 -4 210. 152. 43. o -2
2 3 -14 210. 152. 43. o 1
3 3 -14 804. 748. 37. o 1
5 3 13 2098. 1815. 52. o -3
9 3 -1 2098. 1815. 52. o -2
4 3 -14 2098. 1815. 52. o 1
5 3 -14 474. 476. 49. o 1
4 3 16 107. 148. 80. < -3
10 3 2 107. 148. 80. < -2
6 3 -14 107. 148. 80. < 1
7 3 -14 65. 101. 109. < 1
7 4 7 733. 628. 43. o -3
7 4 -7 733. 628. 43. o -2
0 4 -14 733. 628. 43. o 1
1 4 -14 488. 602. 27. o 1
6 4 10 13580. 16574. 150. o -3
8 4 -4 13580. 16574. 150. o -2
2 4 -14 13580. 16574. 150. o 1
3 4 -14 2615. 2684. 54. o 1
5 4 13 634. 573. 84. o -3
9 4 -1 634. 573. 84. o -2
4 4 -14 634. 573. 84. o 1
5 4 -14 1648. 1811. 68. o 1
4 4 16 5106. 5595. 146. o -3
10 4 2 5106. 5595. 146. o -2
6 4 -14 5106. 5595. 146. o 1
7 4 -14 2752. 2583. 124. o 1
7 5 7 2854. 2635. 68. o -3
7 5 -7 2854. 2635. 68. o -2
0 5 -14 2854. 2635. 68. o 1
1 5 -14 68. 41. 41. < 1
6 5 10 64. 385. 64. o -3
8 5 -4 64. 385. 64. o -2
2 5 -14 64. 385. 64. o 1
3 5 -14 1395. 1395. 45. o 1
5 5 13 1832. 1370. 89. o -3
9 5 -1 1832. 1370. 89. o -2
4 5 -14 1832. 1370. 89. o 1
5 5 -14 118. 249. 64. o 1
4 5 16 214. 336. 91. o -3
10 5 2 214. 336. 91. o -2
6 5 -14 214. 336. 91. o 1
7 5 -14 193. 241. 115. < 1
7 6 7 384. 330. 35. o -3
7 6 -7 384. 330. 35. o -2
0 6 -14 384. 330. 35. o 1
1 6 -14 250. 466. 49. o 1
6 6 10 35299. 35990. 268. o -3
8 6 -4 35299. 35990. 268. o -2
2 6 -14 35299. 35990. 268. o 1
3 6 -14 278. 391. 51. o 1
5 6 13 553. 651. 49. o -3
9 6 -1 553. 651. 49. o -2
4 6 -14 553. 651. 49. o 1
5 6 -14 711. 766. 39. o 1
4 6 16 55462. 64276. 424. o -3
10 6 2 55462. 64276. 424. o -2
6 6 -14 55462. 64276. 424. o 1
7 6 -14 2609. 2581. 126. o 1
9 6 14 224. 52. 107. < 1
7 7 7 22006. 22503. 171. o -3
7 7 -7 22006. 22503. 171. o -2
0 7 -14 22006. 22503. 171. o 1
1 7 -14 274. 270. 54. o 1
6 7 10 337. 313. 51. o -3
8 7 -4 337. 313. 51. o -2
2 7 -14 337. 313. 51. o 1
3 7 -14 2129. 2093. 49. o 1
5 7 13 8281. 8683. 144. o -3
9 7 -1 8281. 8683. 144. o -2
4 7 -14 8281. 8683. 144. o 1
5 7 -14 986. 1461. 60. o 1
4 7 16 322. 183. 37. o -3
10 7 2 322. 183. 37. o -2
6 7 -14 322. 183. 37. o 1
7 7 -14 430. 587. 72. o 1
3 7 19 6824. 8446. 196. o -3
11 7 5 6824. 8446. 196. o -2
8 7 -14 6824. 8446. 196. o 1
9 7 14 722. 301. 120. < 1
7 8 7 7676. 8430. 113. o -3
7 8 -7 7676. 8430. 113. o -2
0 8 -14 7676. 8430. 113. o 1
1 8 -14 1807. 1603. 47. o 1
6 8 10 38762. 44233. 309. o -3
8 8 -4 38762. 44233. 309. o -2
2 8 -14 38762. 44233. 309. o 1
3 8 -14 838. 923. 43. o 1
5 8 13 1062. 1213. 39. o -3
9 8 -1 1062. 1213. 39. o -2
4 8 -14 1062. 1213. 39. o 1
5 8 -14 468. 579. 66. o 1
4 8 16 10941. 12214. 183. o -3
10 8 2 10941. 12214. 183. o -2
6 8 -14 10941. 12214. 183. o 1
7 8 -14 842. 700. 70. o 1
-11 8 5 3451. 2445. 105. o -3
-3 8 19 3451. 2445. 105. o -2
8 8 14 3451. 2445. 105. o 1
3 8 19 3759. 4279. 140. o -3
11 8 5 3759. 4279. 140. o -2
8 8 -14 3759. 4279. 140. o 1
9 8 14 248. 354. 117. o 1
7 9 7 12061. 11874. 124. o -3
7 9 -7 12061. 11874. 124. o -2
0 9 -14 12061. 11874. 124. o 1
1 9 -14 71. 8. 66. < 1
6 9 10 277. 218. 37. o -3
8 9 -4 277. 218. 37. o -2
2 9 -14 277. 218. 37. o 1
3 9 -14 2809. 2913. 66. o 1
5 9 13 20198. 21384. 177. o -3
9 9 -1 20198. 21384. 177. o -2
4 9 -14 20198. 21384. 177. o 1
5 9 -14 7130. 7977. 142. o 1
4 9 16 392. 270. 49. o -3
10 9 2 392. 270. 49. o -2
6 9 -14 392. 270. 49. o 1
7 9 -14 823. 777. 62. o 1
-11 9 5 898. 1158. 86. o -3
-3 9 19 898. 1158. 86. o -2
8 9 14 898. 1158. 86. o 1
3 9 19 958. 676. 68. o -3
11 9 5 958. 676. 68. o -2
8 9 -14 958. 676. 68. o 1
9 9 14 887. 565. 82. o 1
7 10 7 1555. 1273. 45. o -3
7 10 -7 1555. 1273. 45. o -2
0 10 -14 1555. 1273. 45. o 1
1 10 -14 3497. 3070. 60. o 1
6 10 10 29398. 32167. 290. o -3
8 10 -4 29398. 32167. 290. o -2
2 10 -14 29398. 32167. 290. o 1
3 10 -14 919. 983. 47. o 1
5 10 13 8138. 8912. 111. o -3
9 10 -1 8138. 8912. 111. o -2
4 10 -14 8138. 8912. 111. o 1
5 10 -14 3792. 3918. 107. o 1
4 10 16 12135. 12344. 190. o -3
10 10 2 12135. 12344. 190. o -2
6 10 -14 12135. 12344. 190. o 1
7 10 -14 2989. 2623. 87. o 1
-11 10 5 609. 428. 93. o -3
-3 10 19 609. 428. 93. o -2
8 10 14 609. 428. 93. o 1
3 10 19 557. 340. 56. o -3
11 10 5 557. 340. 56. o -2
8 10 -14 557. 340. 56. o 1
9 10 14 1938. 1485. 99. o 1
-7 11 -7 14412. 14512. 264. o -3
-7 11 7 14412. 14512. 264. o -2
0 11 14 14412. 14512. 264. o 1
7 11 7 14412. 14582. 144. o -3
7 11 -7 14412. 14582. 144. o -2
0 11 -14 14412. 14582. 144. o 1
1 11 -14 1107. 1096. 47. o 1
6 11 10 384. 653. 39. o -3
8 11 -4 384. 653. 39. o -2
2 11 -14 384. 653. 39. o 1
3 11 -14 940. 863. 43. o 1
5 11 13 13270. 13587. 124. o -3
9 11 -1 13270. 13587. 124. o -2
4 11 -14 13270. 13587. 124. o 1
5 11 -14 1156. 1510. 68. o 1
4 11 16 157. 274. 62. o -3
10 11 2 157. 274. 62. o -2
6 11 -14 157. 274. 62. o 1
7 11 14 343. 284. 76. o 1
7 11 -14 343. 375. 93. o 1
-11 11 5 894. 909. 82. o -3
-3 11 19 894. 909. 82. o -2
8 11 14 894. 909. 82. o 1
3 11 19 910. 985. 66. o -3
11 11 5 910. 985. 66. o -2
8 11 -14 910. 985. 66. o 1
9 11 14 1064. 1215. 109. o 1
-7 12 -7 320. 435. 97. o -3
-7 12 7 320. 435. 97. o -2
0 12 14 320. 435. 97. o 1
7 12 7 320. 268. 39. o -3
7 12 -7 320. 268. 39. o -2
0 12 -14 320. 268. 39. o 1
1 12 14 454. 414. 105. o 1
1 12 -14 454. 451. 35. o 1
-8 12 -4 36832. 41369. 505. o -3
-6 12 10 36832. 41369. 505. o -2
2 12 14 36832. 41369. 505. o 1
6 12 10 37414. 42432. 307. o -3
8 12 -4 37414. 42432. 307. o -2
2 12 -14 37414. 42432. 307. o 1
3 12 -14 6411. 7254. 109. o 1
5 12 13 2357. 1922. 54. o -3
9 12 -1 2357. 1922. 54. o -2
4 12 -14 2357. 1922. 54. o 1
5 12 -14 1253. 1644. 70. o 1
-10 12 2 2333. 1438. 97. o -3
-4 12 16 2333. 1438. 97. o -2
6 12 14 2333. 1438. 97. o 1
4 12 16 2087. 2550. 86. o -3
10 12 2 2087. 2550. 86. o -2
6 12 -14 2087. 2550. 86. o 1
7 12 14 14. -89. 91. < 1
7 12 -14 14. -43. 70. < 1
-11 12 5 607. 428. 93. o -3
-3 12 19 607. 428. 93. o -2
8 12 14 607. 428. 93. o 1
3 12 19 633. 334. 64. o -3
11 12 5 633. 334. 64. o -2
8 12 -14 633. 334. 64. o 1
9 12 14 758. 999. 111. o 1
9 12 -14 758. 653. 89. o 1
-7 13 -7 17433. 16722. 264. o -3
-7 13 7 17433. 16722. 264. o -2
0 13 14 17433. 16722. 264. o 1
7 13 7 17433. 17484. 280. o -3
7 13 -7 17433. 17484. 280. o -2
0 13 -14 17433. 17484. 280. o 1
1 13 14 1166. 1271. 122. o 1
1 13 -14 1166. 1112. 45. o 1
-8 13 -4 417. 379. 84. o -3
-6 13 10 417. 379. 84. o -2
2 13 14 417. 379. 84. o 1
6 13 10 395. 323. 43. o -3
8 13 -4 395. 323. 43. o -2
2 13 -14 395. 323. 43. o 1
3 13 14 2004. 1906. 68. o 1
3 13 -14 2004. 1879. 64. o 1
-9 13 -1 2278. 1926. 101. o -3
-5 13 13 2278. 1926. 101. o -2
4 13 14 2278. 1926. 101. o 1
5 13 13 2238. 2151. 58. o -3
9 13 -1 2238. 2151. 58. o -2
4 13 -14 2238. 2151. 58. o 1
5 13 14 258. 301. 89. o 1
5 13 -14 258. 371. 72. o 1
-10 13 2 422. 183. 91. < -3
-4 13 16 422. 183. 91. < -2
6 13 14 422. 183. 91. < 1
4 13 16 423. 241. 52. o -3
10 13 2 423. 241. 52. o -2
6 13 -14 423. 241. 52. o 1
7 13 14 293. 575. 91. o 1
7 13 -14 293. 340. 54. o 1
-11 13 5 2304. 2515. 82. o -3
-3 13 19 2304. 2515. 82. o -2
8 13 14 2304. 2515. 82. o 1
3 13 19 2427. 2888. 89. o -3
11 13 5 2427. 2888. 89. o -2
8 13 -14 2427. 2888. 89. o 1
9 13 14 1778. 2779. 200. o 1
-7 14 -7 3223. 2670. 115. o -3
-7 14 7 3223. 2670. 115. o -2
0 14 14 3223. 2670. 115. o 1
7 14 7 3223. 3255. 124. o -3
7 14 -7 3223. 3255. 124. o -2
0 14 -14 3223. 3255. 124. o 1
1 14 14 4721. 4880. 146. o 1
1 14 -14 4721. 4308. 78. o 1
-8 14 -4 19674. 20313. 253. o -3
-6 14 10 19674. 20313. 253. o -2
2 14 14 19674. 20313. 253. o 1
6 14 10 20019. 20338. 222. o -3
8 14 -4 20019. 20338. 222. o -2
2 14 -14 20019. 20338. 222. o 1
3 14 14 1399. 1578. 70. o 1
3 14 -14 1399. 1082. 54. o 1
-9 14 -1 626. 575. 91. o -3
-5 14 13 626. 575. 91. o -2
4 14 14 626. 575. 91. o 1
5 14 13 682. 393. 56. o -3
9 14 -1 682. 393. 56. o -2
4 14 -14 682. 393. 56. o 1
5 14 14 8. 206. 91. < 1
5 14 -14 8. 130. 84. < 1
-10 14 2 7211. 6568. 128. o -3
-4 14 16 7211. 6568. 128. o -2
6 14 14 7211. 6568. 128. o 1
4 14 16 7193. 6191. 119. o -3
10 14 2 7193. 6191. 119. o -2
6 14 -14 7193. 6191. 119. o 1
7 14 14 2776. 2839. 117. o 1
7 14 -14 2776. 2670. 87. o 1
-11 14 5 1310. 1300. 80. o -3
-3 14 19 1310. 1300. 80. o -2
8 14 14 1310. 1300. 80. o 1
3 14 19 1479. 1141. 72. o -3
11 14 5 1479. 1141. 72. o -2
8 14 -14 1479. 1141. 72. o 1
9 14 14 2380. 3340. 214. o 1
9 14 -14 2380. 2664. 111. o 1
-7 15 -7 14993. 15760. 398. o -3
-7 15 7 14993. 15760. 398. o -2
0 15 14 14993. 15760. 398. o 1
7 15 7 14993. 17925. 284. o -3
7 15 -7 14993. 17925. 284. o -2
0 15 -14 14993. 17925. 284. o 1
1 15 14 1644. 1354. 84. o 1
1 15 -14 1644. 1452. 54. o 1
-8 15 -4 346. 309. 80. o -3
-6 15 10 346. 309. 80. o -2
2 15 14 346. 309. 80. o 1
6 15 10 363. 361. 60. o -3
8 15 -4 363. 361. 60. o -2
2 15 -14 363. 361. 60. o 1
3 15 14 958. 579. 87. o 1
3 15 -14 958. 771. 74. o 1
-9 15 -1 3976. 4452. 99. o -3
-5 15 13 3976. 4452. 99. o -2
4 15 14 3976. 4452. 99. o 1
5 15 13 4056. 4093. 93. o -3
9 15 -1 4056. 4093. 93. o -2
4 15 -14 4056. 4093. 93. o 1
5 15 14 179. 58. 93. < 1
5 15 -14 179. 260. 56. o 1
-10 15 2 341. 385. 93. o -3
-4 15 16 341. 385. 93. o -2
6 15 14 341. 385. 93. o 1
4 15 16 351. 231. 74. o -3
10 15 2 351. 231. 74. o -2
6 15 -14 351. 231. 74. o 1
7 15 14 616. 391. 155. < 1
7 15 -14 616. 676. 80. o 1
-11 15 5 6835. 6584. 175. o -3
-3 15 19 6835. 6584. 175. o -2
8 15 14 6835. 6584. 175. o 1
3 15 19 6619. 7892. 142. o -3
11 15 5 6619. 7892. 142. o -2
8 15 -14 6619. 7892. 142. o 1
9 15 14 4124. 5647. 229. o 1
9 15 -14 4124. 5589. 148. o 1
-7 16 -7 4857. 5346. 150. o -3
-7 16 7 4857. 5346. 150. o -2
0 16 14 4857. 5346. 150. o 1
7 16 7 4857. 4619. 154. o -3
7 16 -7 4857. 4619. 154. o -2
0 16 -14 4857. 4619. 154. o 1
1 16 14 5195. 4386. 136. o 1
1 16 -14 5195. 4788. 84. o 1
-8 16 -4 4727. 4578. 97. o -3
-6 16 10 4727. 4578. 97. o -2
2 16 14 4727. 4578. 97. o 1
6 16 10 4435. 4353. 91. o -3
8 16 -4 4435. 4353. 91. o -2
2 16 -14 4435. 4353. 91. o 1
3 16 14 2070. 2033. 89. o 1
3 16 -14 2070. 1871. 60. o 1
-9 16 -1 1425. 1850. 87. o -3
-5 16 13 1425. 1850. 87. o -2
4 16 14 1425. 1850. 87. o 1
5 16 13 1579. 1644. 66. o -3
9 16 -1 1579. 1644. 66. o -2
4 16 -14 1579. 1644. 66. o 1
5 16 14 1264. 1143. 91. o 1
5 16 -14 1264. 1384. 62. o 1
4 16 16 15561. 14559. 187. o -3
10 16 2 15561. 14559. 187. o -2
6 16 -14 15561. 14559. 187. o 1
7 16 14 6008. 6073. 179. o 1
7 16 -14 6008. 6698. 132. o 1
-11 16 5 1751. 2223. 105. o -3
-3 16 19 1751. 2223. 105. o -2
8 16 14 1751. 2223. 105. o 1
3 16 19 2001. 1440. 119. o -3
11 16 5 2001. 1440. 119. o -2
8 16 -14 2001. 1440. 119. o 1
9 16 14 430. 552. 115. o 1
9 16 -14 430. 709. 91. o 1
-7 17 -7 690. 937. 105. o -3
-7 17 7 690. 937. 105. o -2
0 17 14 690. 937. 105. o 1
7 17 7 690. 814. 136. o -3
7 17 -7 690. 814. 136. o -2
0 17 -14 690. 814. 136. o 1
1 17 14 1433. 999. 60. o 1
1 17 -14 1433. 1246. 56. o 1
-8 17 -4 225. 319. 82. o -3
-6 17 10 225. 319. 82. o -2
2 17 14 225. 319. 82. o 1
6 17 10 219. 290. 72. o -3
8 17 -4 219. 290. 72. o -2
2 17 -14 219. 290. 72. o 1
3 17 14 88. 136. 86. < 1
3 17 -14 88. 142. 66. < 1
-9 17 -1 7001. 7079. 136. o -3
-5 17 13 7001. 7079. 136. o -2
4 17 14 7001. 7079. 136. o 1
5 17 13 7128. 8500. 134. o -3
9 17 -1 7128. 8500. 134. o -2
4 17 -14 7128. 8500. 134. o 1
5 17 14 3778. 3739. 105. o 1
5 17 -14 3778. 4438. 74. o 1
-10 17 2 282. 361. 93. o -3
-4 17 16 282. 361. 93. o -2
6 17 14 282. 361. 93. o 1
4 17 16 283. 214. 89. < -3
10 17 2 283. 214. 89. < -2
6 17 -14 283. 214. 89. < 1
7 17 14 684. 797. 95. o 1
7 17 -14 684. 886. 101. o 1
-11 17 5 3265. 3545. 165. o -3
-3 17 19 3265. 3545. 165. o -2
8 17 14 3265. 3545. 165. o 1
3 17 19 3183. 2997. 124. o -3
11 17 5 3183. 2997. 124. o -2
8 17 -14 3183. 2997. 124. o 1
9 17 14 1595. 1512. 148. o 1
9 17 -14 1595. 1702. 97. o 1
10 17 14 547. 447. 142. o 1
10 17 -14 547. 361. 119. o 1
-7 18 -7 174. 214. 120. < -3
-7 18 7 174. 214. 120. < -2
0 18 14 174. 214. 120. < 1
7 18 7 174. 363. 140. < -3
7 18 -7 174. 363. 140. < -2
0 18 -14 174. 363. 140. < 1
1 18 14 994. 1191. 64. o 1
1 18 -14 994. 981. 66. o 1
-8 18 -4 41250. 42781. 519. o -3
-6 18 10 41250. 42781. 519. o -2
2 18 14 41250. 42781. 519. o 1
6 18 10 42648. 42410. 326. o -3
8 18 -4 42648. 42410. 326. o -2
2 18 -14 42648. 42410. 326. o 1
3 18 14 2259. 2005. 95. o 1
3 18 -14 2259. 2328. 74. o 1
-9 18 -1 1853. 1895. 103. o -3
-5 18 13 1853. 1895. 103. o -2
4 18 14 1853. 1895. 103. o 1
5 18 13 1828. 1549. 107. o -3
9 18 -1 1828. 1549. 107. o -2
4 18 -14 1828. 1549. 107. o 1
5 18 14 2572. 2414. 122. o 1
5 18 -14 2572. 2688. 68. o 1
-10 18 2 46933. 43910. 352. o -3
-4 18 16 46933. 43910. 352. o -2
6 18 14 46933. 43910. 352. o 1
4 18 16 46473. 45694. 363. o -3
10 18 2 46473. 45694. 363. o -2
6 18 -14 46473. 45694. 363. o 1
7 18 14 3836. 3718. 113. o 1
7 18 -14 3836. 3634. 91. o 1
-11 18 5 1690. 1889. 155. o -3
-3 18 19 1690. 1889. 155. o -2
8 18 14 1690. 1889. 155. o 1
3 18 19 1640. 1267. 119. o -3
11 18 5 1640. 1267. 119. o -2
8 18 -14 1640. 1267. 119. o 1
9 18 14 71. 126. 124. < 1
9 18 -14 71. -2. 80. < 1
10 18 -14 6303. 8547. 272. o 1
-7 19 -7 2544. 2552. 111. o -3
-7 19 7 2544. 2552. 111. o -2
0 19 14 2544. 2552. 111. o 1
7 19 7 2544. 2655. 119. o -3
7 19 -7 2544. 2655. 119. o -2
0 19 -14 2544. 2655. 119. o 1
1 19 14 2136. 2211. 84. o 1
1 19 -14 2136. 2272. 60. o 1
-8 19 -4 200. 169. 126. < -3
-6 19 10 200. 169. 126. < -2
2 19 14 200. 169. 126. < 1
6 19 10 215. 144. 70. < -3
8 19 -4 215. 144. 70. < -2
2 19 -14 215. 144. 70. < 1
3 19 14 2599. 2625. 99. o 1
3 19 -14 2599. 2476. 78. o 1
-9 19 -1 9564. 9159. 150. o -3
-5 19 13 9564. 9159. 150. o -2
4 19 14 9564. 9159. 150. o 1
5 19 13 9552. 8016. 140. o -3
9 19 -1 9552. 8016. 140. o -2
4 19 -14 9552. 8016. 140. o 1
5 19 14 5053. 4833. 167. o 1
5 19 -14 5053. 5989. 111. o 1
-10 19 2 163. 235. 97. < -3
-4 19 16 163. 235. 97. < -2
6 19 14 163. 235. 97. < 1
4 19 16 156. 95. 95. < -3
10 19 2 156. 95. 95. < -2
6 19 -14 156. 95. 95. < 1
7 19 14 111. -132. 84. < 1
7 19 -14 111. -47. 78. < 1
-11 19 5 1129. 1621. 130. o -3
-3 19 19 1129. 1621. 130. o -2
8 19 14 1129. 1621. 130. o 1
3 19 19 1170. 1183. 93. o -3
11 19 5 1170. 1183. 93. o -2
8 19 -14 1170. 1183. 93. o 1
9 19 14 998. 925. 122. o 1
9 19 -14 998. 1094. 86. o 1
10 19 14 115. 47. 119. < 1
10 19 -14 115. 80. 115. < 1
11 19 14 663. 935. 99. o 1
-7 20 -7 1465. 1601. 105. o -3
-7 20 7 1465. 1601. 105. o -2
0 20 14 1465. 1601. 105. o 1
7 20 7 1465. 1529. 138. o -3
7 20 -7 1465. 1529. 138. o -2
0 20 -14 1465. 1529. 138. o 1
1 20 14 4327. 4023. 103. o 1
1 20 -14 4327. 4440. 113. o 1
-8 20 -4 14203. 11432. 233. o -3
-6 20 10 14203. 11432. 233. o -2
2 20 14 14203. 11432. 233. o 1
6 20 10 13690. 12015. 140. o -3
8 20 -4 13690. 12015. 140. o -2
2 20 -14 13690. 12015. 140. o 1
3 20 14 8793. 9493. 146. o 1
3 20 -14 8793. 8517. 119. o 1
-9 20 -1 2446. 2002. 159. o -3
-5 20 13 2446. 2002. 159. o -2
4 20 14 2446. 2002. 159. o 1
5 20 13 2254. 1358. 95. o -3
9 20 -1 2254. 1358. 95. o -2
4 20 -14 2254. 1358. 95. o 1
5 20 14 3502. 3039. 124. o 1
5 20 -14 3502. 3958. 97. o 1
-10 20 2 20952. 23450. 266. o -3
-4 20 16 20952. 23450. 266. o -2
6 20 14 20952. 23450. 266. o 1
4 20 16 21724. 18962. 229. o -3
10 20 2 21724. 18962. 229. o -2
6 20 -14 21724. 18962. 229. o 1
7 20 14 2160. 2583. 124. o 1
7 20 -14 2160. 2499. 120. o 1
-11 20 5 1892. 1658. 140. o -3
-3 20 19 1892. 1658. 140. o -2
8 20 14 1892. 1658. 140. o 1
3 20 19 1653. 933. 95. o -3
11 20 5 1653. 933. 95. o -2
8 20 -14 1653. 933. 95. o 1
9 20 14 997. 672. 120. o 1
9 20 -14 997. 735. 78. o 1
10 20 14 4557. 4030. 179. o 1
11 20 14 2482. 612. 132. o 1
-7 21 -7 2193. 2013. 107. o -3
-7 21 7 2193. 2013. 107. o -2
0 21 14 2193. 2013. 107. o 1
7 21 7 2193. 2070. 113. o -3
7 21 -7 2193. 2070. 113. o -2
0 21 -14 2193. 2070. 113. o 1
1 21 14 2781. 2740. 91. o 1
1 21 -14 2781. 2761. 101. o 1
-8 21 -4 598. 698. 134. o -3
-6 21 10 598. 698. 134. o -2
2 21 14 598. 698. 134. o 1
6 21 10 621. 499. 80. o -3
8 21 -4 621. 499. 80. o -2
2 21 -14 621. 499. 80. o 1
3 21 14 8544. 9075. 157. o 1
3 21 -14 8544. 8574. 122. o 1
-9 21 -1 23344. 21155. 315. o -3
-5 21 13 23344. 21155. 315. o -2
4 21 14 23344. 21155. 315. o 1
5 21 13 23947. 23063. 325. o -3
9 21 -1 23947. 23063. 325. o -2
4 21 -14 23947. 23063. 325. o 1
5 21 14 19699. 19654. 424. o 1
5 21 -14 19699. 21164. 210. o 1
-10 21 2 326. 379. 130. < -3
-4 21 16 326. 379. 130. < -2
6 21 14 326. 379. 130. < 1
4 21 16 311. 255. 60. o -3
10 21 2 311. 255. 60. o -2
6 21 -14 311. 255. 60. o 1
7 21 14 235. 159. 82. < 1
7 21 -14 235. 317. 68. o 1
-11 21 5 231. 237. 117. < -3
-3 21 19 231. 237. 117. < -2
8 21 14 231. 237. 117. < 1
3 21 19 215. 111. 76. < -3
11 21 5 215. 111. 76. < -2
8 21 -14 215. 111. 76. < 1
9 21 14 987. 692. 115. o 1
9 21 -14 987. 880. 74. o 1
10 21 14 311. 268. 113. < 1
10 21 -14 311. 266. 107. < 1
-7 22 -7 2218. 1840. 117. o -3
-7 22 7 2218. 1840. 117. o -2
0 22 14 2218. 1840. 117. o 1
7 22 7 2218. 1937. 111. o -3
7 22 -7 2218. 1937. 111. o -2
0 22 -14 2218. 1937. 111. o 1
1 22 14 2308. 2655. 91. o 1
1 22 -14 2308. 2592. 107. o 1
-8 22 -4 20411. 18780. 290. o -3
-6 22 10 20411. 18780. 290. o -2
2 22 14 20411. 18780. 290. o 1
6 22 10 20480. 16825. 171. o -3
8 22 -4 20480. 16825. 171. o -2
2 22 -14 20480. 16825. 171. o 1
3 22 14 3690. 4365. 126. o 1
3 22 -14 3690. 2878. 91. o 1
-9 22 -1 11810. 12614. 258. o -3
-5 22 13 11810. 12614. 258. o -2
4 22 14 11810. 12614. 258. o 1
5 22 13 11868. 9363. 167. o -3
9 22 -1 11868. 9363. 167. o -2
4 22 -14 11868. 9363. 167. o 1
5 22 14 6169. 6702. 257. o 1
5 22 -14 6169. 5941. 99. o 1
7 22 14 1840. 1553. 87. o 1
7 22 -14 1840. 1450. 74. o 1
-11 22 5 832. 459. 105. o -3
-3 22 19 832. 459. 105. o -2
8 22 14 832. 459. 105. o 1
3 22 19 804. 428. 82. o -3
11 22 5 804. 428. 82. o -2
8 22 -14 804. 428. 82. o 1
9 22 14 627. 367. 111. o 1
9 22 -14 627. 599. 87. o 1
10 22 14 2807. 2361. 159. o 1
10 22 -14 2807. 3513. 155. o 1
-7 23 -7 2287. 1557. 97. o -3
-7 23 7 2287. 1557. 97. o -2
0 23 14 2287. 1557. 97. o 1
7 23 7 2287. 1967. 144. o -3
7 23 -7 2287. 1967. 144. o -2
0 23 -14 2287. 1967. 144. o 1
1 23 14 4908. 4779. 107. o 1
1 23 -14 4908. 5433. 124. o 1
-8 23 -4 1231. 1045. 103. o -3
-6 23 10 1231. 1045. 103. o -2
2 23 14 1231. 1045. 103. o 1
6 23 10 1247. 946. 68. o -3
8 23 -4 1247. 946. 68. o -2
2 23 -14 1247. 946. 68. o 1
3 23 14 458. 480. 89. o 1
3 23 -14 458. 377. 64. o 1
-9 23 -1 3404. 4145. 208. o -3
-5 23 13 3404. 4145. 208. o -2
4 23 14 3404. 4145. 208. o 1
5 23 13 3348. 3142. 132. o -3
9 23 -1 3348. 3142. 132. o -2
4 23 -14 3348. 3142. 132. o 1
5 23 14 412. 696. 126. o 1
5 23 -14 412. 532. 62. o 1
-10 23 2 387. 420. 115. o -3
-4 23 16 387. 420. 115. o -2
6 23 14 387. 420. 115. o 1
4 23 16 380. 260. 49. o -3
10 23 2 380. 260. 49. o -2
6 23 -14 380. 260. 49. o 1
7 23 14 1004. 1044. 84. o 1
7 23 -14 1004. 929. 76. o 1
-11 23 5 593. 632. 107. o -3
-3 23 19 593. 632. 107. o -2
8 23 14 593. 632. 107. o 1
3 23 19 562. 383. 82. o -3
11 23 5 562. 383. 82. o -2
8 23 -14 562. 383. 82. o 1
-7 24 -7 2969. 3239. 152. o -3
-7 24 7 2969. 3239. 152. o -2
0 24 14 2969. 3239. 152. o 1
7 24 7 2969. 2641. 142. o -3
7 24 -7 2969. 2641. 142. o -2
0 24 -14 2969. 2641. 142. o 1
1 24 14 7534. 8463. 159. o 1
1 24 -14 7534. 8799. 167. o 1
-8 24 -4 32550. 29172. 323. o -3
-6 24 10 32550. 29172. 323. o -2
2 24 14 32550. 29172. 323. o 1
6 24 10 32798. 31788. 286. o -3
8 24 -4 32798. 31788. 286. o -2
2 24 -14 32798. 31788. 286. o 1
3 24 14 3145. 2470. 89. o 1
3 24 -14 3145. 4229. 97. o 1
-9 24 -1 870. 391. 140. < -3
-5 24 13 870. 391. 140. < -2
4 24 14 870. 391. 140. < 1
5 24 13 742. 389. 78. o -3
9 24 -1 742. 389. 78. o -2
4 24 -14 742. 389. 78. o 1
5 24 14 157. -101. 119. < 1
5 24 -14 157. 99. 58. < 1
-10 24 2 11243. 10548. 249. o -3
-4 24 16 11243. 10548. 249. o -2
6 24 14 11243. 10548. 249. o 1
4 24 16 11470. 9773. 132. o -3
10 24 2 11470. 9773. 132. o -2
6 24 -14 11470. 9773. 132. o 1
7 24 14 3108. 2723. 101. o 1
7 24 -14 3108. 3234. 99. o 1
-11 24 5 1525. 843. 124. o -3
-3 24 19 1525. 843. 124. o -2
8 24 14 1525. 843. 124. o 1
3 24 19 1511. 822. 97. o -3
11 24 5 1511. 822. 97. o -2
8 24 -14 1511. 822. 97. o 1
9 24 14 3178. 2233. 134. o 1
-7 25 -7 22446. 26732. 338. o -3
-7 25 7 22446. 26732. 338. o -2
0 25 14 22446. 26732. 338. o 1
7 25 7 22446. 24812. 536. o -3
7 25 -7 22446. 24812. 536. o -2
0 25 -14 22446. 24812. 536. o 1
1 25 14 372. 255. 82. o 1
1 25 -14 372. 293. 72. o 1
-8 25 -4 147. 128. 78. < -3
-6 25 10 147. 128. 78. < -2
2 25 14 147. 128. 78. < 1
6 25 10 140. 64. 54. < -3
8 25 -4 140. 64. 54. < -2
2 25 -14 140. 64. 54. < 1
3 25 14 1499. 1388. 93. o 1
3 25 -14 1499. 1263. 64. o 1
-9 25 -1 2810. 2534. 148. o -3
-5 25 13 2810. 2534. 148. o -2
4 25 14 2810. 2534. 148. o 1
5 25 13 2673. 1801. 78. o -3
9 25 -1 2673. 1801. 78. o -2
4 25 -14 2673. 1801. 78. o 1
5 25 14 1543. 1500. 134. o 1
5 25 -14 1543. 1595. 68. o 1
-10 25 2 55. 80. 107. < -3
-4 25 16 55. 80. 107. < -2
6 25 14 55. 80. 107. < 1
4 25 16 53. 56. 62. < -3
10 25 2 53. 56. 62. < -2
6 25 -14 53. 56. 62. < 1
7 25 14 129. 8. 97. < 1
7 25 -14 129. 198. 76. < 1
-11 25 5 7578. 6477. 175. o -3
-3 25 19 7578. 6477. 175. o -2
8 25 14 7578. 6477. 175. o 1
3 25 19 7630. 6355. 208. o -3
11 25 5 7630. 6355. 208. o -2
8 25 -14 7630. 6355. 208. o 1
-7 26 -7 2724. 2552. 128. o -3
-7 26 7 2724. 2552. 128. o -2
0 26 14 2724. 2552. 128. o 1
7 26 7 2724. 1924. 107. o -3
7 26 -7 2724. 1924. 107. o -2
0 26 -14 2724. 1924. 107. o 1
1 26 14 3366. 2763. 95. o 1
1 26 -14 3366. 3545. 101. o 1
-8 26 -4 805. 717. 89. o -3
-6 26 10 805. 717. 89. o -2
2 26 14 805. 717. 89. o 1
6 26 10 783. 731. 89. o -3
8 26 -4 783. 731. 89. o -2
2 26 -14 783. 731. 89. o 1
3 26 14 251. 424. 101. o 1
3 26 -14 251. 361. 60. o 1
-9 26 -1 1278. 995. 120. o -3
-5 26 13 1278. 995. 120. o -2
4 26 14 1278. 995. 120. o 1
5 26 13 1214. 768. 93. o -3
9 26 -1 1214. 768. 93. o -2
4 26 -14 1214. 768. 93. o 1
5 26 14 2923. 2548. 146. o 1
5 26 -14 2923. 3300. 87. o 1
3 26 19 1158. 272. 82. o -3
11 26 5 1158. 272. 82. o -2
8 26 -14 1158. 272. 82. o 1
-7 27 -7 1487. 1360. 124. o -3
-7 27 7 1487. 1360. 124. o -2
0 27 14 1487. 1360. 124. o 1
7 27 7 1487. 1454. 142. o -3
7 27 -7 1487. 1454. 142. o -2
0 27 -14 1487. 1454. 142. o 1
1 27 14 3105. 2936. 107. o 1
1 27 -14 3105. 3179. 107. o 1
-8 27 -4 98. 167. 76. < -3
-6 27 10 98. 167. 76. < -2
2 27 14 98. 167. 76. < 1
6 27 10 101. 93. 72. < -3
8 27 -4 101. 93. 72. < -2
2 27 -14 101. 93. 72. < 1
3 27 14 5563. 4157. 173. o 1
3 27 -14 5563. 5620. 126. o 1
-9 27 -1 3105. 3127. 150. o -3
-5 27 13 3105. 3127. 150. o -2
4 27 14 3105. 3127. 150. o 1
5 27 13 3159. 2888. 113. o -3
9 27 -1 3159. 2888. 113. o -2
4 27 -14 3159. 2888. 113. o 1
5 27 14 77. 264. 107. < 1
5 27 -14 77. 58. 62. < 1
-10 27 2 455. 117. 95. < -3
-4 27 16 455. 117. 95. < -2
6 27 14 455. 117. 95. < 1
4 27 16 449. 155. 60. < -3
10 27 2 449. 155. 60. < -2
6 27 -14 449. 155. 60. < 1
7 27 14 1326. 361. 91. o 1
7 27 -14 1326. 529. 78. o 1
-7 28 -7 2765. 2748. 146. o -3
-7 28 7 2765. 2748. 146. o -2
0 28 14 2765. 2748. 146. o 1
7 28 7 2765. 2791. 159. o -3
7 28 -7 2765. 2791. 159. o -2
0 28 -14 2765. 2791. 159. o 1
1 28 14 1100. 1059. 84. o 1
1 28 -14 1100. 1203. 87. o 1
3 28 14 1469. 869. 124. o 1
3 28 -14 1469. 1625. 89. o 1
-9 28 -1 266. 97. 101. < -3
-5 28 13 266. 97. 101. < -2
4 28 14 266. 97. 101. < 1
5 28 13 274. 272. 58. o -3
9 28 -1 274. 272. 58. o -2
4 28 -14 274. 272. 58. o 1
5 28 14 380. 204. 105. < 1
5 28 -14 380. 231. 62. o 1
-10 28 2 2245. 1413. 115. o -3
-4 28 16 2245. 1413. 115. o -2
6 28 14 2245. 1413. 115. o 1
-7 29 -7 1730. 742. 122. o -3
-7 29 7 1730. 742. 122. o -2
0 29 14 1730. 742. 122. o 1
7 29 7 1730. 542. 150. o -3
7 29 -7 1730. 542. 150. o -2
0 29 -14 1730. 542. 150. o 1
1 29 14 100. 62. 68. < 1
1 29 -14 100. 107. 74. < 1
-8 29 -4 323. 148. 66. < -3
-6 29 10 323. 148. 66. < -2
2 29 14 323. 148. 66. < 1
6 29 10 319. 74. 68. < -3
8 29 -4 319. 74. 68. < -2
2 29 -14 319. 74. 68. < 1
3 29 14 1202. 583. 80. o 1
3 29 -14 1202. 472. 86. o 1
-9 29 -1 544. 567. 101. o -3
-5 29 13 544. 567. 101. o -2
4 29 14 544. 567. 101. o 1
5 29 13 629. 328. 58. o -3
9 29 -1 629. 328. 58. o -2
4 29 -14 629. 328. 58. o 1
5 29 14 1000. 379. 101. o 1
5 29 -14 1000. 552. 58. o 1
-7 30 -7 1745. 744. 119. o -3
-7 30 7 1745. 744. 119. o -2
0 30 14 1745. 744. 119. o 1
7 30 7 1745. 2147. 132. o -3
7 30 -7 1745. 2147. 132. o -2
0 30 -14 1745. 2147. 132. o 1
1 30 14 484. 64. 74. < 1
1 30 -14 484. 262. 70. o 1
3 30 -14 2825. 2219. 82. o 1
2 0 -15 12096. 12964. 113. o 1
4 0 -15 4672. 4656. 97. o 1
6 0 -15 1804. 2559. 115. o 1
7 1 9 6957. 7651. 62. o -3
8 1 -6 6957. 7651. 62. o -2
1 1 -15 6957. 7651. 62. o 1
2 1 -15 1847. 1833. 29. o 1
6 1 12 1789. 1782. 43. o -3
9 1 -3 1789. 1782. 43. o -2
3 1 -15 1789. 1782. 43. o 1
4 1 -15 974. 962. 43. o 1
6 1 -15 1537. 1906. 70. o 1
4 1 18 2493. 1883. 115. o -3
11 1 3 2493. 1883. 115. o -2
7 1 -15 2493. 1883. 115. o 1
7 2 9 2614. 2707. 35. o -3
8 2 -6 2614. 2707. 35. o -2
1 2 -15 2614. 2707. 35. o 1
2 2 -15 3176. 3119. 45. o 1
6 2 12 1148. 851. 43. o -3
9 2 -3 1148. 851. 43. o -2
3 2 -15 1148. 851. 43. o 1
4 2 -15 1497. 1261. 47. o 1
5 2 15 528. 643. 72. o -3
10 2 0 528. 643. 72. o -2
5 2 -15 528. 643. 72. o 1
6 2 -15 3563. 3943. 97. o 1
4 2 18 2953. 3420. 130. o -3
11 2 3 2953. 3420. 130. o -2
7 2 -15 2953. 3420. 130. o 1
7 3 9 6327. 6650. 64. o -3
8 3 -6 6327. 6650. 64. o -2
1 3 -15 6327. 6650. 64. o 1
2 3 -15 3388. 2967. 51. o 1
6 3 12 4673. 4582. 70. o -3
9 3 -3 4673. 4582. 70. o -2
3 3 -15 4673. 4582. 70. o 1
4 3 -15 624. 573. 62. o 1
5 3 15 566. 513. 52. o -3
10 3 0 566. 513. 52. o -2
5 3 -15 566. 513. 52. o 1
6 3 -15 1499. 1980. 86. o 1
4 3 18 3437. 2736. 126. o -3
11 3 3 3437. 2736. 126. o -2
7 3 -15 3437. 2736. 126. o 1
7 4 9 394. 478. 35. o -3
8 4 -6 394. 478. 35. o -2
1 4 -15 394. 478. 35. o 1
2 4 -15 9916. 9887. 122. o 1
6 4 12 1067. 805. 64. o -3
9 4 -3 1067. 805. 64. o -2
3 4 -15 1067. 805. 64. o 1
4 4 -15 1374. 1436. 84. o 1
5 4 15 1262. 1395. 86. o -3
10 4 0 1262. 1395. 86. o -2
5 4 -15 1262. 1395. 86. o 1
6 4 -15 2503. 2042. 119. o 1
4 4 18 837. 834. 93. o -3
11 4 3 837. 834. 93. o -2
7 4 -15 837. 834. 93. o 1
7 5 9 3644. 3962. 58. o -3
8 5 -6 3644. 3962. 58. o -2
1 5 -15 3644. 3962. 58. o 1
2 5 -15 6267. 5906. 84. o 1
6 5 12 9274. 10750. 109. o -3
9 5 -3 9274. 10750. 109. o -2
3 5 -15 9274. 10750. 109. o 1
4 5 -15 3540. 3189. 86. o 1
5 5 15 709. 610. 80. o -3
10 5 0 709. 610. 80. o -2
5 5 -15 709. 610. 80. o 1
6 5 -15 1880. 1436. 87. o 1
4 5 18 3658. 5082. 157. o -3
11 5 3 3658. 5082. 157. o -2
7 5 -15 3658. 5082. 157. o 1
8 5 -15 874. 1065. 82. o 1
7 6 9 1749. 1796. 51. o -3
8 6 -6 1749. 1796. 51. o -2
1 6 -15 1749. 1796. 51. o 1
2 6 -15 4379. 3980. 72. o 1
6 6 12 2383. 1990. 47. o -3
9 6 -3 2383. 1990. 47. o -2
3 6 -15 2383. 1990. 47. o 1
4 6 -15 1950. 1821. 62. o 1
5 6 15 149. 196. 80. < -3
10 6 0 149. 196. 80. < -2
5 6 -15 149. 196. 80. < 1
6 6 -15 1541. 1520. 70. o 1
4 6 18 1935. 2258. 109. o -3
11 6 3 1935. 2258. 109. o -2
7 6 -15 1935. 2258. 109. o 1
8 6 -15 1118. 1257. 115. o 1
9 6 15 508. 668. 130. o 1
7 7 9 10188. 12180. 140. o -3
8 7 -6 10188. 12180. 140. o -2
1 7 -15 10188. 12180. 140. o 1
2 7 -15 1634. 1634. 51. o 1
6 7 12 6068. 6800. 101. o -3
9 7 -3 6068. 6800. 101. o -2
3 7 -15 6068. 6800. 101. o 1
4 7 -15 1636. 1704. 76. o 1
5 7 15 399. 418. 74. o -3
10 7 0 399. 418. 74. o -2
5 7 -15 399. 418. 74. o 1
6 7 -15 160. 266. 93. < 1
4 7 18 987. 1119. 78. o -3
11 7 3 987. 1119. 78. o -2
7 7 -15 987. 1119. 78. o 1
8 7 -15 2495. 2658. 124. o 1
10 7 15 461. 428. 117. o 1
7 8 9 4467. 4786. 82. o -3
8 8 -6 4467. 4786. 82. o -2
1 8 -15 4467. 4786. 82. o 1
2 8 -15 4713. 4699. 82. o 1
6 8 12 6549. 6287. 93. o -3
9 8 -3 6549. 6287. 93. o -2
3 8 -15 6549. 6287. 93. o 1
4 8 -15 529. 567. 45. o 1
5 8 15 75. 268. 78. o -3
10 8 0 75. 268. 78. o -2
5 8 -15 75. 268. 78. o 1
6 8 -15 256. 542. 95. o 1
4 8 18 1327. 1922. 66. o -3
11 8 3 1327. 1922. 66. o -2
7 8 -15 1327. 1922. 66. o 1
8 8 -15 6468. 6998. 175. o 1
9 8 15 1080. 1842. 122. o 1
10 8 15 4131. 3356. 190. o 1
7 9 9 4590. 3585. 74. o -3
8 9 -6 4590. 3585. 74. o -2
1 9 -15 4590. 3585. 74. o 1
2 9 -15 1928. 1611. 54. o 1
6 9 12 6080. 6038. 86. o -3
9 9 -3 6080. 6038. 86. o -2
3 9 -15 6080. 6038. 86. o 1
4 9 -15 2391. 2062. 54. o 1
5 9 15 2519. 2338. 103. o -3
10 9 0 2519. 2338. 103. o -2
5 9 -15 2519. 2338. 103. o 1
6 9 -15 1116. 1082. 62. o 1
4 9 18 2156. 1625. 70. o -3
11 9 3 2156. 1625. 70. o -2
7 9 -15 2156. 1625. 70. o 1
8 9 15 2491. 2361. 115. o 1
8 9 -15 2491. 2281. 132. o 1
9 9 15 1326. 1378. 152. o 1
10 9 15 401. 606. 126. o 1
7 10 9 4215. 4196. 74. o -3
8 10 -6 4215. 4196. 74. o -2
1 10 -15 4215. 4196. 74. o 1
2 10 -15 5380. 5167. 84. o 1
6 10 12 11904. 14503. 183. o -3
9 10 -3 11904. 14503. 183. o -2
3 10 -15 11904. 14503. 183. o 1
4 10 -15 2954. 2802. 58. o 1
5 10 15 499. 612. 99. o -3
10 10 0 499. 612. 99. o -2
5 10 -15 499. 612. 99. o 1
6 10 -15 44. 117. 89. < 1
4 10 18 1958. 2126. 82. o -3
11 10 3 1958. 2126. 82. o -2
7 10 -15 1958. 2126. 82. o 1
8 10 15 58. 301. 95. o 1
8 10 -15 58. 119. 60. < 1
9 10 15 3279. 3457. 146. o 1
9 10 -15 3279. 4431. 192. o 1
7 11 9 8333. 8144. 105. o -3
8 11 -6 8333. 8144. 105. o -2
1 11 -15 8333. 8144. 105. o 1
2 11 -15 6413. 6360. 93. o 1
6 11 12 3003. 2892. 72. o -3
9 11 -3 3003. 2892. 72. o -2
3 11 -15 3003. 2892. 72. o 1
4 11 -15 2874. 3113. 64. o 1
5 11 15 700. 705. 132. o -3
10 11 0 700. 705. 132. o -2
5 11 -15 700. 705. 132. o 1
6 11 -15 328. 447. 93. o 1
-11 11 3 4857. 4551. 107. o -3
-4 11 18 4857. 4551. 107. o -2
7 11 15 4857. 4551. 107. o 1
8 11 15 792. 723. 84. o 1
8 11 -15 792. 999. 74. o 1
9 11 15 2395. 2998. 146. o 1
-8 12 -6 1965. 1998. 101. o -3
-7 12 9 1965. 1998. 101. o -2
1 12 15 1965. 1998. 101. o 1
7 12 9 1965. 1951. 66. o -3
8 12 -6 1965. 1951. 66. o -2
1 12 -15 1965. 1951. 66. o 1
2 12 15 483. 600. 117. o 1
2 12 -15 483. 387. 52. o 1
6 12 12 1170. 861. 47. o -3
9 12 -3 1170. 861. 47. o -2
3 12 -15 1170. 861. 47. o 1
4 12 -15 1587. 1764. 64. o 1
5 12 15 2131. 2557. 130. o -3
10 12 0 2131. 2557. 130. o -2
5 12 -15 2131. 2557. 130. o 1
6 12 15 72. 56. 134. < 1
6 12 -15 72. 245. 91. < 1
-11 12 3 3107. 2726. 72. o -3
-4 12 18 3107. 2726. 72. o -2
7 12 15 3107. 2726. 72. o 1
4 12 18 2990. 3158. 109. o -3
11 12 3 2990. 3158. 109. o -2
7 12 -15 2990. 3158. 109. o 1
8 12 15 2631. 2509. 82. o 1
8 12 -15 2631. 3232. 101. o 1
9 12 15 1797. 1640. 89. o 1
-8 13 -6 4893. 4596. 142. o -3
-7 13 9 4893. 4596. 142. o -2
1 13 15 4893. 4596. 142. o 1
7 13 9 4664. 5080. 84. o -3
8 13 -6 4664. 5080. 84. o -2
1 13 -15 4664. 5080. 84. o 1
2 13 15 293. 352. 115. o 1
2 13 -15 293. 373. 74. o 1
-9 13 -3 1134. 1084. 91. o -3
-6 13 12 1134. 1084. 91. o -2
3 13 15 1134. 1084. 91. o 1
6 13 12 1066. 839. 51. o -3
9 13 -3 1066. 839. 51. o -2
3 13 -15 1066. 839. 51. o 1
4 13 15 803. 1079. 93. o 1
4 13 -15 803. 1057. 54. o 1
-10 13 0 404. 686. 93. o -3
-5 13 15 404. 686. 93. o -2
5 13 15 404. 686. 93. o 1
5 13 15 427. 435. 76. o -3
10 13 0 427. 435. 76. o -2
5 13 -15 427. 435. 76. o 1
6 13 15 9. 80. 95. < 1
6 13 -15 9. 103. 87. < 1
-11 13 3 2565. 2697. 86. o -3
-4 13 18 2565. 2697. 86. o -2
7 13 15 2565. 2697. 86. o 1
4 13 18 2542. 2993. 95. o -3
11 13 3 2542. 2993. 95. o -2
7 13 -15 2542. 2993. 95. o 1
8 13 15 2013. 2143. 80. o 1
8 13 -15 2013. 2573. 95. o 1
9 13 15 255. 1106. 146. o 1
-8 14 -6 7196. 7353. 159. o -3
-7 14 9 7196. 7353. 159. o -2
1 14 15 7196. 7353. 159. o 1
7 14 9 7301. 7775. 111. o -3
8 14 -6 7301. 7775. 111. o -2
1 14 -15 7301. 7775. 111. o 1
2 14 15 437. 532. 117. o 1
2 14 -15 437. 470. 76. o 1
-9 14 -3 711. 612. 91. o -3
-6 14 12 711. 612. 91. o -2
3 14 15 711. 612. 91. o 1
6 14 12 717. 486. 56. o -3
9 14 -3 717. 486. 56. o -2
3 14 -15 717. 486. 56. o 1
4 14 15 517. 412. 91. o 1
4 14 -15 517. 548. 66. o 1
-10 14 0 663. 787. 78. o -3
-5 14 15 663. 787. 78. o -2
5 14 15 663. 787. 78. o 1
5 14 15 665. 665. 49. o -3
10 14 0 665. 665. 49. o -2
5 14 -15 665. 665. 49. o 1
6 14 15 506. 670. 101. o 1
6 14 -15 506. 746. 89. o 1
-11 14 3 1546. 1438. 82. o -3
-4 14 18 1546. 1438. 82. o -2
7 14 15 1546. 1438. 82. o 1
4 14 18 1484. 1638. 76. o -3
11 14 3 1484. 1638. 76. o -2
7 14 -15 1484. 1638. 76. o 1
8 14 15 1823. 1584. 76. o 1
8 14 -15 1823. 1908. 87. o 1
-8 15 -6 6781. 5791. 179. o -3
-7 15 9 6781. 5791. 179. o -2
1 15 15 6781. 5791. 179. o 1
7 15 9 6548. 5991. 97. o -3
8 15 -6 6548. 5991. 97. o -2
1 15 -15 6548. 5991. 97. o 1
2 15 15 434. 468. 126. o 1
2 15 -15 434. 643. 80. o 1
-9 15 -3 1613. 2482. 103. o -3
-6 15 12 1613. 2482. 103. o -2
3 15 15 1613. 2482. 103. o 1
6 15 12 1861. 1592. 58. o -3
9 15 -3 1861. 1592. 58. o -2
3 15 -15 1861. 1592. 58. o 1
4 15 15 416. 165. 93. < 1
4 15 -15 416. 280. 70. o 1
-10 15 0 2742. 1856. 78. o -3
-5 15 15 2742. 1856. 78. o -2
5 15 15 2742. 1856. 78. o 1
6 15 15 589. 564. 97. o 1
6 15 -15 589. 480. 91. o 1
-11 15 3 4009. 4553. 120. o -3
-4 15 18 4009. 4553. 120. o -2
7 15 15 4009. 4553. 120. o 1
4 15 18 4351. 3735. 103. o -3
11 15 3 4351. 3735. 103. o -2
7 15 -15 4351. 3735. 103. o 1
8 15 15 2472. 2217. 113. o 1
8 15 -15 2472. 2859. 93. o 1
9 15 15 868. 1512. 99. o 1
10 15 15 1578. 1353. 124. o 1
10 15 -15 1578. 1265. 122. o 1
-8 16 -6 8197. 7544. 173. o -3
-7 16 9 8197. 7544. 173. o -2
1 16 15 8197. 7544. 173. o 1
7 16 9 8238. 7171. 103. o -3
8 16 -6 8238. 7171. 103. o -2
1 16 -15 8238. 7171. 103. o 1
2 16 15 191. 19. 126. < 1
2 16 -15 191. 317. 72. o 1
-9 16 -3 1347. 1026. 93. o -3
-6 16 12 1347. 1026. 93. o -2
3 16 15 1347. 1026. 93. o 1
6 16 12 1181. 937. 72. o -3
9 16 -3 1181. 937. 72. o -2
3 16 -15 1181. 937. 72. o 1
4 16 15 69. 82. 91. < 1
4 16 -15 69. 159. 68. < 1
-10 16 0 7370. 7186. 142. o -3
-5 16 15 7370. 7186. 142. o -2
5 16 15 7370. 7186. 142. o 1
5 16 15 7761. 8329. 95. o -3
10 16 0 7761. 8329. 95. o -2
5 16 -15 7761. 8329. 95. o 1
6 16 15 2791. 3030. 101. o 1
6 16 -15 2791. 3000. 95. o 1
-11 16 3 5803. 5993. 144. o -3
-4 16 18 5803. 5993. 144. o -2
7 16 15 5803. 5993. 144. o 1
4 16 18 5642. 5923. 119. o -3
11 16 3 5642. 5923. 119. o -2
7 16 -15 5642. 5923. 119. o 1
8 16 15 378. 286. 142. < 1
8 16 -15 378. 371. 95. o 1
9 16 15 12683. 11852. 245. o 1
9 16 -15 12683. 13121. 181. o 1
10 16 15 577. 315. 130. < 1
10 16 -15 577. 303. 122. < 1
2 17 15 1324. 1182. 134. o 1
2 17 -15 1324. 1213. 84. o 1
-9 17 -3 1771. 1038. 99. o -3
-6 17 12 1771. 1038. 99. o -2
3 17 15 1771. 1038. 99. o 1
6 17 12 1560. 1133. 72. o -3
9 17 -3 1560. 1133. 72. o -2
3 17 -15 1560. 1133. 72. o 1
4 17 15 890. 939. 97. o 1
4 17 -15 890. 948. 74. o 1
-10 17 0 8687. 8205. 216. o -3
-5 17 15 8687. 8205. 216. o -2
5 17 15 8687. 8205. 216. o 1
5 17 15 8145. 9141. 126. o -3
10 17 0 8145. 9141. 126. o -2
5 17 -15 8145. 9141. 126. o 1
6 17 15 3387. 3714. 122. o 1
6 17 -15 3387. 4019. 117. o 1
-11 17 3 4528. 6218. 146. o -3
-4 17 18 4528. 6218. 146. o -2
7 17 15 4528. 6218. 146. o 1
4 17 18 5256. 4026. 111. o -3
11 17 3 5256. 4026. 111. o -2
7 17 -15 5256. 4026. 111. o 1
8 17 15 757. 1162. 140. o 1
8 17 -15 757. 783. 95. o 1
9 17 15 1741. 2025. 140. o 1
9 17 -15 1741. 1615. 107. o 1
10 17 15 1136. 1240. 140. o 1
10 17 -15 1136. 976. 134. o 1
7 18 9 5282. 4707. 87. o -3
8 18 -6 5282. 4707. 87. o -2
1 18 -15 5282. 4707. 87. o 1
2 18 15 1313. 1096. 142. o 1
2 18 -15 1313. 1160. 80. o 1
-9 18 -3 3912. 3574. 109. o -3
-6 18 12 3912. 3574. 109. o -2
3 18 15 3912. 3574. 109. o 1
6 18 12 3570. 3340. 82. o -3
9 18 -3 3570. 3340. 82. o -2
3 18 -15 3570. 3340. 82. o 1
4 18 15 1379. 1267. 103. o 1
4 18 -15 1379. 1150. 82. o 1
-10 18 0 3469. 3817. 181. o -3
-5 18 15 3469. 3817. 181. o -2
5 18 15 3469. 3817. 181. o 1
5 18 15 3573. 3574. 97. o -3
10 18 0 3573. 3574. 97. o -2
5 18 -15 3573. 3574. 97. o 1
6 18 15 7588. 8830. 175. o 1
6 18 -15 7588. 8813. 152. o 1
-11 18 3 2415. 1881. 103. o -3
-4 18 18 2415. 1881. 103. o -2
7 18 15 2415. 1881. 103. o 1
4 18 18 2143. 2153. 105. o -3
11 18 3 2143. 2153. 105. o -2
7 18 -15 2143. 2153. 105. o 1
8 18 15 965. 1028. 122. o 1
8 18 -15 965. 1024. 93. o 1
9 18 15 547. 929. 120. o 1
9 18 -15 547. 892. 86. o 1
10 18 15 565. 748. 126. o 1
10 18 -15 565. 746. 115. o 1
-8 19 -6 3133. 3125. 89. o -3
-7 19 9 3133. 3125. 89. o -2
1 19 15 3133. 3125. 89. o 1
2 19 15 1851. 1858. 152. o 1
2 19 -15 1851. 2073. 66. o 1
6 19 12 14456. 15950. 243. o -3
9 19 -3 14456. 15950. 243. o -2
3 19 -15 14456. 15950. 243. o 1
4 19 15 1762. 2097. 97. o 1
4 19 -15 1762. 2073. 95. o 1
-10 19 0 4751. 5913. 190. o -3
-5 19 15 4751. 5913. 190. o -2
5 19 15 4751. 5913. 190. o 1
5 19 15 4963. 5056. 103. o -3
10 19 0 4963. 5056. 103. o -2
5 19 -15 4963. 5056. 103. o 1
6 19 15 4489. 4827. 173. o 1
6 19 -15 4489. 5562. 152. o 1
4 19 18 10297. 9648. 173. o -3
11 19 3 10297. 9648. 173. o -2
7 19 -15 10297. 9648. 173. o 1
8 19 15 2064. 1430. 119. o 1
8 19 -15 2064. 1485. 91. o 1
9 19 15 670. 1395. 130. o 1
9 19 -15 670. 1108. 86. o 1
10 19 15 681. 544. 117. o 1
10 19 -15 681. 459. 103. o 1
11 19 15 1409. 1434. 190. o 1
-8 20 -6 264. 497. 86. o -3
-7 20 9 264. 497. 86. o -2
1 20 15 264. 497. 86. o 1
7 20 9 283. 453. 87. o -3
8 20 -6 283. 453. 87. o -2
1 20 -15 283. 453. 87. o 1
2 20 15 713. 768. 136. o 1
2 20 -15 713. 532. 74. o 1
-9 20 -3 20667. 20439. 235. o -3
-6 20 12 20667. 20439. 235. o -2
3 20 15 20667. 20439. 235. o 1
6 20 12 20516. 20132. 245. o -3
9 20 -3 20516. 20132. 245. o -2
3 20 -15 20516. 20132. 245. o 1
4 20 15 1455. 1471. 99. o 1
4 20 -15 1455. 1150. 97. o 1
-10 20 0 8428. 9709. 241. o -3
-5 20 15 8428. 9709. 241. o -2
5 20 15 8428. 9709. 241. o 1
5 20 15 8913. 9266. 155. o -3
10 20 0 8913. 9266. 155. o -2
5 20 -15 8913. 9266. 155. o 1
6 20 15 6735. 7544. 220. o 1
6 20 -15 6735. 6654. 144. o 1
-11 20 3 8067. 8500. 150. o -3
-4 20 18 8067. 8500. 150. o -2
7 20 15 8067. 8500. 150. o 1
4 20 18 7881. 7575. 128. o -3
11 20 3 7881. 7575. 128. o -2
7 20 -15 7881. 7575. 128. o 1
8 20 15 571. 453. 117. o 1
8 20 -15 571. 486. 84. o 1
9 20 15 228. 521. 113. o 1
9 20 -15 228. 354. 76. o 1
10 20 15 311. 220. 91. < 1
10 20 -15 311. 398. 107. o 1
-8 21 -6 2317. 2571. 97. o -3
-7 21 9 2317. 2571. 97. o -2
1 21 15 2317. 2571. 97. o 1
7 21 9 2487. 1867. 113. o -3
8 21 -6 2487. 1867. 113. o -2
1 21 -15 2487. 1867. 113. o 1
2 21 15 1192. 1069. 144. o 1
2 21 -15 1192. 805. 80. o 1
-9 21 -3 6849. 6461. 134. o -3
-6 21 12 6849. 6461. 134. o -2
3 21 15 6849. 6461. 134. o 1
4 21 15 395. 486. 87. o 1
4 21 -15 395. 402. 91. o 1
-10 21 0 10952. 11928. 284. o -3
-5 21 15 10952. 11928. 284. o -2
5 21 15 10952. 11928. 284. o 1
5 21 15 11151. 11120. 142. o -3
10 21 0 11151. 11120. 142. o -2
5 21 -15 11151. 11120. 142. o 1
6 21 15 4205. 3597. 128. o 1
6 21 -15 4205. 4048. 74. o 1
-11 21 3 1754. 1978. 87. o -3
-4 21 18 1754. 1978. 87. o -2
7 21 15 1754. 1978. 87. o 1
4 21 18 1831. 985. 82. o -3
11 21 3 1831. 985. 82. o -2
7 21 -15 1831. 985. 82. o 1
8 21 15 209. 369. 93. o 1
8 21 -15 209. 225. 76. < 1
9 21 15 499. 1127. 119. o 1
9 21 -15 499. 832. 76. o 1
10 21 15 839. 787. 117. o 1
10 21 -15 839. 564. 111. o 1
-8 22 -6 3796. 3523. 111. o -3
-7 22 9 3796. 3523. 111. o -2
1 22 15 3796. 3523. 111. o 1
7 22 9 3814. 3925. 130. o -3
8 22 -6 3814. 3925. 130. o -2
1 22 -15 3814. 3925. 130. o 1
2 22 15 965. 1018. 146. o 1
2 22 -15 965. 1040. 74. o 1
-9 22 -3 8552. 9495. 175. o -3
-6 22 12 8552. 9495. 175. o -2
3 22 15 8552. 9495. 175. o 1
6 22 12 8552. 9320. 126. o -3
9 22 -3 8552. 9320. 126. o -2
3 22 -15 8552. 9320. 126. o 1
4 22 15 801. 925. 140. o 1
4 22 -15 801. 546. 99. o 1
-10 22 0 2353. 2555. 152. o -3
-5 22 15 2353. 2555. 152. o -2
5 22 15 2353. 2555. 152. o 1
5 22 15 2468. 1992. 72. o -3
10 22 0 2468. 1992. 72. o -2
5 22 -15 2468. 1992. 72. o 1
6 22 15 1281. 1082. 128. o 1
6 22 -15 1281. 999. 66. o 1
-11 22 3 3596. 3714. 142. o -3
-4 22 18 3596. 3714. 142. o -2
7 22 15 3596. 3714. 142. o 1
4 22 18 3579. 3049. 99. o -3
11 22 3 3579. 3049. 99. o -2
7 22 -15 3579. 3049. 99. o 1
8 22 15 40. 23. 111. < 1
8 22 -15 40. 109. 72. < 1
9 22 15 3817. 1625. 181. o 1
10 22 15 552. 247. 87. < 1
10 22 -15 552. 499. 89. o 1
-8 23 -6 10944. 11656. 179. o -3
-7 23 9 10944. 11656. 179. o -2
1 23 15 10944. 11656. 179. o 1
7 23 9 9805. 8686. 192. o -3
8 23 -6 9805. 8686. 192. o -2
1 23 -15 9805. 8686. 192. o 1
2 23 15 1220. 857. 140. o 1
2 23 -15 1220. 941. 66. o 1
-9 23 -3 1687. 1273. 95. o -3
-6 23 12 1687. 1273. 95. o -2
3 23 15 1687. 1273. 95. o 1
6 23 12 1665. 1220. 70. o -3
9 23 -3 1665. 1220. 70. o -2
3 23 -15 1665. 1220. 70. o 1
4 23 15 103. 152. 120. < 1
4 23 -15 103. 268. 70. o 1
-10 23 0 2615. 2252. 119. o -3
-5 23 15 2615. 2252. 119. o -2
5 23 15 2615. 2252. 119. o 1
6 23 15 647. 583. 124. o 1
6 23 -15 647. 480. 62. o 1
-11 23 3 4103. 3770. 113. o -3
-4 23 18 4103. 3770. 113. o -2
7 23 15 4103. 3770. 113. o 1
8 23 15 444. 157. 122. < 1
8 23 -15 444. 220. 91. < 1
9 23 15 2347. 2173. 144. o 1
9 23 -15 2347. 2678. 115. o 1
-8 24 -6 10769. 9283. 150. o -3
-7 24 9 10769. 9283. 150. o -2
1 24 15 10769. 9283. 150. o 1
7 24 9 11135. 11621. 188. o -3
8 24 -6 11135. 11621. 188. o -2
1 24 -15 11135. 11621. 188. o 1
2 24 15 102. 299. 130. < 1
2 24 -15 102. 171. 52. o 1
-9 24 -3 7250. 7173. 142. o -3
-6 24 12 7250. 7173. 142. o -2
3 24 15 7250. 7173. 142. o 1
6 24 12 7272. 6496. 95. o -3
9 24 -3 7272. 6496. 95. o -2
3 24 -15 7272. 6496. 95. o 1
4 24 15 592. 398. 126. o 1
4 24 -15 592. 700. 80. o 1
-10 24 0 708. 733. 128. o -3
-5 24 15 708. 733. 128. o -2
5 24 15 708. 733. 128. o 1
5 24 15 749. 653. 68. o -3
10 24 0 749. 653. 68. o -2
5 24 -15 749. 653. 68. o 1
6 24 15 349. 64. 109. < 1
6 24 -15 349. 239. 58. o 1
-11 24 3 2611. 1201. 144. o -3
-4 24 18 2611. 1201. 144. o -2
7 24 15 2611. 1201. 144. o 1
4 24 18 2586. 1867. 101. o -3
11 24 3 2586. 1867. 101. o -2
7 24 -15 2586. 1867. 101. o 1
8 24 15 712. 305. 119. < 1
8 24 -15 712. 565. 76. o 1
-8 25 -6 2658. 2439. 93. o -3
-7 25 9 2658. 2439. 93. o -2
1 25 15 2658. 2439. 93. o 1
7 25 9 2729. 2011. 89. o -3
8 25 -6 2729. 2011. 89. o -2
1 25 -15 2729. 2011. 89. o 1
2 25 15 693. 505. 86. o 1
2 25 -15 693. 647. 56. o 1
-9 25 -3 4175. 4149. 134. o -3
-6 25 12 4175. 4149. 134. o -2
3 25 15 4175. 4149. 134. o 1
4 25 15 775. 680. 128. o 1
4 25 -15 775. 696. 86. o 1
-10 25 0 3296. 3247. 155. o -3
-5 25 15 3296. 3247. 155. o -2
5 25 15 3296. 3247. 155. o 1
5 25 15 3437. 3238. 87. o -3
10 25 0 3437. 3238. 87. o -2
5 25 -15 3437. 3238. 87. o 1
6 25 15 381. 84. 107. < 1
6 25 -15 381. 325. 62. o 1
-11 25 3 2030. 1399. 120. o -3
-4 25 18 2030. 1399. 120. o -2
7 25 15 2030. 1399. 120. o 1
4 25 18 2118. 913. 95. o -3
11 25 3 2118. 913. 95. o -2
7 25 -15 2118. 913. 95. o 1
8 25 15 586. 206. 105. < 1
8 25 -15 586. 159. 72. < 1
-8 26 -6 4080. 4285. 120. o -3
-7 26 9 4080. 4285. 120. o -2
1 26 15 4080. 4285. 120. o 1
7 26 9 4531. 4199. 128. o -3
8 26 -6 4531. 4199. 128. o -2
1 26 -15 4531. 4199. 128. o 1
2 26 15 1456. 1413. 91. o 1
2 26 -15 1456. 2495. 154. o 1
4 26 15 1164. 904. 117. o 1
4 26 -15 1164. 1209. 93. o 1
-10 26 0 6293. 4773. 167. o -3
-5 26 15 6293. 4773. 167. o -2
5 26 15 6293. 4773. 167. o 1
6 26 15 65. 243. 95. < 1
6 26 -15 65. -140. 58. < 1
-11 26 3 579. 173. 86. < -3
-4 26 18 579. 173. 86. < -2
7 26 15 579. 173. 86. < 1
4 26 18 512. 29. 76. < -3
11 26 3 512. 29. 76. < -2
7 26 -15 512. 29. 76. < 1
-8 27 -6 3817. 3053. 107. o -3
-7 27 9 3817. 3053. 107. o -2
1 27 15 3817. 3053. 107. o 1
2 27 15 199. 204. 74. < 1
2 27 -15 199. 165. 111. < 1
-9 27 -3 2545. 2342. 140. o -3
-6 27 12 2545. 2342. 140. o -2
3 27 15 2545. 2342. 140. o 1
6 27 12 2601. 2452. 86. o -3
9 27 -3 2601. 2452. 86. o -2
3 27 -15 2601. 2452. 86. o 1
4 27 15 799. 579. 105. o 1
4 27 -15 799. 698. 84. o 1
-10 27 0 1008. 558. 113. o -3
-5 27 15 1008. 558. 113. o -2
5 27 15 1008. 558. 113. o 1
5 27 15 1046. 859. 62. o -3
10 27 0 1046. 859. 62. o -2
5 27 -15 1046. 859. 62. o 1
6 27 15 1172. 247. 122. < 1
6 27 -15 1172. 556. 64. o 1
-8 28 -6 1026. 628. 86. o -3
-7 28 9 1026. 628. 86. o -2
1 28 15 1026. 628. 86. o 1
7 28 9 1041. 727. 89. o -3
8 28 -6 1041. 727. 89. o -2
1 28 -15 1041. 727. 89. o 1
2 28 15 885. 253. 76. o 1
2 28 -15 885. 402. 117. o 1
-9 28 -3 631. 356. 101. o -3
-6 28 12 631. 356. 101. o -2
3 28 15 631. 356. 101. o 1
6 28 12 602. 173. 62. < -3
9 28 -3 602. 173. 62. < -2
3 28 -15 602. 173. 62. < 1
4 28 15 24. 4. 86. < 1
4 28 -15 24. -60. 68. < 1
-10 28 0 135. 62. 93. < -3
-5 28 15 135. 62. 93. < -2
5 28 15 135. 62. 93. < 1
5 28 15 129. 103. 52. < -3
10 28 0 129. 103. 52. < -2
5 28 -15 129. 103. 52. < 1
-8 29 -6 1208. 406. 74. o -3
-7 29 9 1208. 406. 74. o -2
1 29 15 1208. 406. 74. o 1
7 29 9 1237. 243. 87. < -3
8 29 -6 1237. 243. 87. < -2
1 29 -15 1237. 243. 87. < 1
2 29 -15 2085. 653. 134. o 1
4 29 15 97. 16. 76. < 1
4 29 -15 97. 47. 64. < 1
-8 30 -6 690. 564. 74. o -3
-7 30 9 690. 564. 74. o -2
1 30 15 690. 564. 74. o 1
7 30 9 704. 404. 76. o -3
8 30 -6 704. 404. 76. o -2
1 30 -15 704. 404. 76. o 1
8 0 8 24750. 28098. 295. o -3
8 0 -8 24750. 28098. 295. o -2
0 0 -16 24750. 28098. 295. o 1
2 0 -16 333. 319. 52. o 1
6 0 14 170723. 193428. 929. o -3
10 0 -2 170723. 193428. 929. o -2
4 0 -16 170723. 193428. 929. o 1
6 0 -16 455. 459. 128. o 1
8 1 8 556. 597. 33. o -3
8 1 -8 556. 597. 33. o -2
0 1 -16 556. 597. 33. o 1
1 1 -16 172. 188. 31. o 1
7 1 11 5902. 6936. 72. o -3
9 1 -5 5902. 6936. 72. o -2
2 1 -16 5902. 6936. 72. o 1
3 1 -16 170. 291. 49. o 1
6 1 14 421. 567. 76. o -3
10 1 -2 421. 567. 76. o -2
4 1 -16 421. 567. 76. o 1
5 1 -16 10. 17. 87. < 1
5 1 17 2782. 2478. 86. o -3
11 1 1 2782. 2478. 86. o -2
6 1 -16 2782. 2478. 86. o 1
7 1 -16 183. 25. 80. < 1
8 2 8 12074. 12122. 119. o -3
8 2 -8 12074. 12122. 119. o -2
0 2 -16 12074. 12122. 119. o 1
1 2 -16 3489. 3683. 49. o 1
7 2 11 4659. 3986. 56. o -3
9 2 -5 4659. 3986. 56. o -2
2 2 -16 4659. 3986. 56. o 1
3 2 -16 337. 276. 49. o 1
6 2 14 43994. 47447. 340. o -3
10 2 -2 43994. 47447. 340. o -2
4 2 -16 43994. 47447. 340. o 1
5 2 -16 577. 591. 66. o 1
5 2 17 3269. 3121. 86. o -3
11 2 1 3269. 3121. 86. o -2
6 2 -16 3269. 3121. 86. o 1
7 2 -16 464. 600. 95. o 1
8 3 8 57. 157. 54. < -3
8 3 -8 57. 157. 54. < -2
0 3 -16 57. 157. 54. < 1
1 3 -16 294. 260. 43. o 1
7 3 11 9925. 10781. 99. o -3
9 3 -5 9925. 10781. 99. o -2
2 3 -16 9925. 10781. 99. o 1
3 3 -16 2259. 2621. 68. o 1
6 3 14 135. 115. 86. < -3
10 3 -2 135. 115. 86. < -2
4 3 -16 135. 115. 86. < 1
5 3 -16 163. 371. 87. o 1
5 3 17 1098. 1187. 109. o -3
11 3 1 1098. 1187. 109. o -2
6 3 -16 1098. 1187. 109. o 1
7 3 -16 469. 577. 82. o 1
1 4 -16 9. 91. 45. < 1
7 4 11 3520. 3459. 72. o -3
9 4 -5 3520. 3459. 72. o -2
2 4 -16 3520. 3459. 72. o 1
3 4 -16 530. 571. 52. o 1
6 4 14 7449. 7936. 115. o -3
10 4 -2 7449. 7936. 115. o -2
4 4 -16 7449. 7936. 115. o 1
5 4 -16 443. 645. 91. o 1
5 4 17 3754. 3852. 126. o -3
11 4 1 3754. 3852. 126. o -2
6 4 -16 3754. 3852. 126. o 1
7 4 -16 230. 323. 70. o 1
4 4 20 55139. 62313. 589. o -3
12 4 4 55139. 62313. 589. o -2
8 4 -16 55139. 62313. 589. o 1
8 5 8 177. 45. 62. < -3
8 5 -8 177. 45. 62. < -2
0 5 -16 177. 45. 62. < 1
1 5 -16 3134. 2892. 51. o 1
7 5 11 3605. 3187. 68. o -3
9 5 -5 3605. 3187. 68. o -2
2 5 -16 3605. 3187. 68. o 1
3 5 -16 994. 773. 37. o 1
6 5 14 398. 229. 64. o -3
10 5 -2 398. 229. 64. o -2
4 5 -16 398. 229. 64. o 1
5 5 -16 286. 150. 84. < 1
5 5 17 5885. 5805. 155. o -3
11 5 1 5885. 5805. 155. o -2
6 5 -16 5885. 5805. 155. o 1
7 5 -16 2230. 2138. 101. o 1
4 5 20 234. 202. 84. < -3
12 5 4 234. 202. 84. < -2
8 5 -16 234. 202. 84. < 1
8 6 8 369949. 416105. 808. o -3
8 6 -8 369949. 416105. 808. o -2
0 6 -16 369949. 416105. 808. o 1
1 6 -16 4809. 5288. 84. o 1
7 6 11 1940. 1761. 58. o -3
9 6 -5 1940. 1761. 58. o -2
2 6 -16 1940. 1761. 58. o 1
3 6 -16 1113. 1024. 45. o 1
6 6 14 59916. 69523. 422. o -3
10 6 -2 59916. 69523. 422. o -2
4 6 -16 59916. 69523. 422. o 1
5 6 -16 336. 647. 70. o 1
5 6 17 768. 871. 82. o -3
11 6 1 768. 871. 82. o -2
6 6 -16 768. 871. 82. o 1
7 6 -16 230. 181. 126. < 1
4 6 20 147785. 176219. 851. o -3
12 6 4 147785. 176219. 851. o -2
8 6 -16 147785. 176219. 851. o 1
9 6 16 2455. 2497. 150. o 1
8 7 8 62. -801. 51. < -3
8 7 -8 62. -801. 51. < -2
0 7 -16 62. -801. 51. < 1
1 7 -16 1958. 1899. 54. o 1
7 7 11 7657. 8906. 117. o -3
9 7 -5 7657. 8906. 117. o -2
2 7 -16 7657. 8906. 117. o 1
3 7 -16 172. 282. 72. o 1
6 7 14 461. 288. 45. o -3
10 7 -2 461. 288. 45. o -2
4 7 -16 461. 288. 45. o 1
5 7 -16 15. 49. 84. < 1
5 7 17 3846. 3838. 132. o -3
11 7 1 3846. 3838. 132. o -2
6 7 -16 3846. 3838. 132. o 1
7 7 -16 1758. 1914. 103. o 1
4 7 20 395. 247. 97. < -3
12 7 4 395. 247. 97. < -2
8 7 -16 395. 247. 97. < 1
9 7 16 90. 257. 128. < 1
8 8 8 123263. 132619. 501. o -3
8 8 -8 123263. 132619. 501. o -2
0 8 -16 123263. 132619. 501. o 1
1 8 -16 2647. 2561. 62. o 1
7 8 11 422. 517. 68. o -3
9 8 -5 422. 517. 68. o -2
2 8 -16 422. 517. 68. o 1
3 8 -16 3349. 3424. 70. o 1
6 8 14 8000. 8566. 105. o -3
10 8 -2 8000. 8566. 105. o -2
4 8 -16 8000. 8566. 105. o 1
5 8 -16 29. -58. 84. < 1
5 8 17 253. 216. 84. < -3
11 8 1 253. 216. 84. < -2
6 8 -16 253. 216. 84. < 1
7 8 -16 585. 890. 103. o 1
4 8 20 57605. 68201. 620. o -3
12 8 4 57605. 68201. 620. o -2
8 8 -16 57605. 68201. 620. o 1
9 8 16 4425. 3791. 146. o 1
10 8 16 475. 702. 130. o 1
8 9 8 738. 637. 56. o -3
8 9 -8 738. 637. 56. o -2
0 9 -16 738. 637. 56. o 1
1 9 -16 1064. 1115. 49. o 1
7 9 11 5559. 4510. 78. o -3
9 9 -5 5559. 4510. 78. o -2
2 9 -16 5559. 4510. 78. o 1
3 9 -16 406. 431. 60. o 1
6 9 14 406. 375. 37. o -3
10 9 -2 406. 375. 37. o -2
4 9 -16 406. 375. 37. o 1
5 9 -16 11. -4. 80. < 1
5 9 17 1087. 1230. 66. o -3
11 9 1 1087. 1230. 66. o -2
6 9 -16 1087. 1230. 66. o 1
7 9 -16 3013. 2849. 89. o 1
-12 9 4 364. 167. 128. < -3
-4 9 20 364. 167. 128. < -2
8 9 16 364. 167. 128. < 1
4 9 20 367. 245. 140. < -3
12 9 4 367. 245. 140. < -2
8 9 -16 367. 245. 140. < 1
9 9 16 93. 130. 120. < 1
9 9 -16 93. -459. 152. < 1
10 9 16 3397. 2709. 115. o 1
8 10 8 59209. 65734. 394. o -3
8 10 -8 59209. 65734. 394. o -2
0 10 -16 59209. 65734. 394. o 1
1 10 -16 2277. 2283. 64. o 1
7 10 11 5904. 6504. 103. o -3
9 10 -5 5904. 6504. 103. o -2
2 10 -16 5904. 6504. 103. o 1
3 10 -16 6344. 7585. 109. o 1
5 10 -16 372. 426. 72. o 1
5 10 17 2479. 1908. 91. o -3
11 10 1 2479. 1908. 91. o -2
6 10 -16 2479. 1908. 91. o 1
7 10 -16 627. 459. 58. o 1
-12 10 4 78733. 91770. 538. o -3
-4 10 20 78733. 91770. 538. o -2
8 10 16 78733. 91770. 538. o 1
4 10 20 78436. 93746. 735. o -3
12 10 4 78436. 93746. 735. o -2
8 10 -16 78436. 93746. 735. o 1
9 10 16 5102. 3581. 138. o 1
9 10 -16 5102. 6613. 196. o 1
8 11 8 469. 330. 58. o -3
8 11 -8 469. 330. 58. o -2
0 11 -16 469. 330. 58. o 1
1 11 16 158. 274. 115. < 1
1 11 -16 158. 212. 37. o 1
7 11 11 3039. 2594. 64. o -3
9 11 -5 3039. 2594. 64. o -2
2 11 -16 3039. 2594. 64. o 1
3 11 -16 724. 657. 39. o 1
6 11 14 179. 381. 49. o -3
10 11 -2 179. 381. 49. o -2
4 11 -16 179. 381. 49. o 1
5 11 -16 627. 647. 78. o 1
5 11 17 7732. 9231. 155. o -3
11 11 1 7732. 9231. 155. o -2
6 11 -16 7732. 9231. 155. o 1
7 11 16 351. 276. 91. o 1
7 11 -16 351. 398. 80. o 1
-12 11 4 442. 187. 93. < -3
-4 11 20 442. 187. 93. < -2
8 11 16 442. 187. 93. < 1
4 11 20 427. 540. 101. o -3
12 11 4 427. 540. 101. o -2
8 11 -16 427. 540. 101. o 1
9 11 16 474. 394. 89. o 1
9 11 -16 474. 608. 109. o 1
8 12 8 107844. 117642. 713. o -3
8 12 -8 107844. 117642. 713. o -2
0 12 -16 107844. 117642. 713. o 1
1 12 16 1246. 1242. 115. o 1
1 12 -16 1246. 1211. 56. o 1
3 12 -16 607. 546. 64. o 1
6 12 14 2488. 2621. 72. o -3
10 12 -2 2488. 2621. 72. o -2
4 12 -16 2488. 2621. 72. o 1
5 12 -16 1101. 1040. 86. o 1
-11 12 1 1712. 2066. 107. o -3
-5 12 17 1712. 2066. 107. o -2
6 12 16 1712. 2066. 107. o 1
5 12 17 2036. 2122. 99. o -3
11 12 1 2036. 2122. 99. o -2
6 12 -16 2036. 2122. 99. o 1
7 12 16 2085. 2243. 76. o 1
7 12 -16 2084. 2577. 89. o 1
-12 12 4 71837. 85699. 497. o -3
-4 12 20 71837. 85699. 497. o -2
8 12 16 71837. 85699. 497. o 1
4 12 20 72349. 89028. 558. o -3
12 12 4 72349. 89028. 558. o -2
8 12 -16 72349. 89028. 558. o 1
9 12 16 1430. 1298. 99. o 1
9 12 -16 1430. 1199. 126. o 1
8 13 8 417. -229. 78. < -3
8 13 -8 417. -229. 78. < -2
0 13 -16 417. -229. 78. < 1
1 13 16 1625. 1325. 126. o 1
1 13 -16 1625. 1611. 64. o 1
-9 13 -5 4719. 4950. 159. o -3
-7 13 11 4719. 4950. 159. o -2
2 13 16 4719. 4950. 159. o 1
7 13 11 4699. 4794. 84. o -3
9 13 -5 4699. 4794. 84. o -2
2 13 -16 4699. 4794. 84. o 1
3 13 16 20. 119. 87. < 1
3 13 -16 20. 16. 56. < 1
-10 13 -2 228. 385. 91. o -3
-6 13 14 228. 385. 91. o -2
4 13 16 228. 385. 91. o 1
6 13 14 254. 303. 39. o -3
10 13 -2 254. 303. 39. o -2
4 13 -16 254. 303. 39. o 1
5 13 16 44. 72. 72. < 1
5 13 -16 44. 146. 117. < 1
-11 13 1 4823. 4578. 120. o -3
-5 13 17 4823. 4578. 120. o -2
6 13 16 4823. 4578. 120. o 1
5 13 17 4813. 4852. 120. o -3
11 13 1 4813. 4852. 120. o -2
6 13 -16 4813. 4852. 120. o 1
7 13 16 2260. 2876. 87. o 1
7 13 -16 2260. 2773. 97. o 1
-12 13 4 599. 202. 95. < -3
-4 13 20 599. 202. 95. < -2
8 13 16 599. 202. 95. < 1
4 13 20 573. 651. 95. o -3
12 13 4 573. 651. 95. o -2
8 13 -16 573. 651. 95. o 1
9 13 16 300. 451. 105. o 1
9 13 -16 300. 389. 117. o 1
8 14 8 19437. 20708. 494. o -3
8 14 -8 19437. 20708. 494. o -2
0 14 -16 19437. 20708. 494. o 1
1 14 16 3396. 3442. 136. o 1
1 14 -16 3396. 3230. 84. o 1
-9 14 -5 3758. 4961. 154. o -3
-7 14 11 3758. 4961. 154. o -2
2 14 16 3758. 4961. 154. o 1
7 14 11 4283. 3556. 80. o -3
9 14 -5 4283. 3556. 80. o -2
2 14 -16 4283. 3556. 80. o 1
3 14 16 709. 787. 91. o 1
3 14 -16 709. 818. 72. o 1
-10 14 -2 7209. 6292. 120. o -3
-6 14 14 7209. 6292. 120. o -2
4 14 16 7209. 6292. 120. o 1
6 14 14 7191. 6906. 101. o -3
10 14 -2 7191. 6906. 101. o -2
4 14 -16 7191. 6906. 101. o 1
5 14 16 2422. 2213. 74. o 1
5 14 -16 2422. 2305. 70. o 1
-11 14 1 2101. 1972. 109. o -3
-5 14 17 2101. 1972. 109. o -2
6 14 16 2101. 1972. 109. o 1
5 14 17 1934. 989. 84. o -3
11 14 1 1934. 989. 84. o -2
6 14 -16 1934. 989. 84. o 1
7 14 16 3871. 3972. 120. o 1
7 14 -16 3871. 3502. 105. o 1
-12 14 4 13011. 12412. 202. o -3
-4 14 20 13011. 12412. 202. o -2
8 14 16 13011. 12412. 202. o 1
4 14 20 12872. 13622. 187. o -3
12 14 4 12872. 13622. 187. o -2
8 14 -16 12872. 13622. 187. o 1
9 14 16 539. 468. 109. o 1
9 14 -16 539. 461. 117. o 1
-8 15 -8 403. 340. 105. o -3
-8 15 8 403. 340. 105. o -2
0 15 16 403. 340. 105. o 1
8 15 8 403. 299. 76. o -3
8 15 -8 403. 299. 76. o -2
0 15 -16 403. 299. 76. o 1
1 15 16 1438. 1389. 97. o 1
1 15 -16 1438. 1422. 56. o 1
-9 15 -5 5181. 4481. 146. o -3
-7 15 11 5181. 4481. 146. o -2
2 15 16 5181. 4481. 146. o 1
7 15 11 5121. 4337. 82. o -3
9 15 -5 5121. 4337. 82. o -2
2 15 -16 5121. 4337. 82. o 1
3 15 16 1532. 1489. 99. o 1
3 15 -16 1532. 1341. 60. o 1
-10 15 -2 264. 301. 93. o -3
-6 15 14 264. 301. 93. o -2
4 15 16 264. 301. 93. o 1
6 15 14 284. 303. 66. o -3
10 15 -2 284. 303. 66. o -2
4 15 -16 284. 303. 66. o 1
5 15 16 1593. 1712. 80. o 1
5 15 -16 1593. 1603. 66. o 1
-11 15 1 5574. 5865. 134. o -3
-5 15 17 5574. 5865. 134. o -2
6 15 16 5574. 5865. 134. o 1
5 15 17 5598. 6306. 144. o -3
11 15 1 5598. 6306. 144. o -2
6 15 -16 5598. 6306. 144. o 1
7 15 16 1804. 1751. 126. o 1
7 15 -16 1804. 1992. 107. o 1
-12 15 4 295. 299. 134. < -3
-4 15 20 295. 299. 134. < -2
8 15 16 295. 299. 134. < 1
4 15 20 286. 49. 91. < -3
12 15 4 286. 49. 91. < -2
8 15 -16 286. 49. 91. < 1
9 15 16 336. 239. 117. < 1
9 15 -16 336. 216. 136. < 1
-8 16 -8 77983. 79402. 624. o -3
-8 16 8 77983. 79402. 624. o -2
0 16 16 77983. 79402. 624. o 1
8 16 8 77983. 89968. 908. o -3
8 16 -8 77983. 89968. 908. o -2
0 16 -16 77983. 89968. 908. o 1
1 16 16 12331. 11160. 216. o 1
1 16 -16 12331. 12631. 140. o 1
-9 16 -5 1784. 1778. 142. o -3
-7 16 11 1784. 1778. 142. o -2
2 16 16 1784. 1778. 142. o 1
7 16 11 1787. 1228. 80. o -3
9 16 -5 1787. 1228. 80. o -2
2 16 -16 1787. 1228. 80. o 1
3 16 16 430. 196. 91. < 1
3 16 -16 430. 326. 74. o 1
-10 16 -2 25100. 26005. 260. o -3
-6 16 14 25100. 26005. 260. o -2
4 16 16 25100. 26005. 260. o 1
6 16 14 24908. 27602. 255. o -3
10 16 -2 24908. 27602. 255. o -2
4 16 -16 24908. 27602. 255. o 1
5 16 16 5318. 5797. 128. o 1
5 16 -16 5318. 6677. 134. o 1
-11 16 1 1856. 2561. 113. o -3
-5 16 17 1856. 2561. 113. o -2
6 16 16 1856. 2561. 113. o 1
5 16 17 2089. 1714. 101. o -3
11 16 1 2089. 1714. 101. o -2
6 16 -16 2089. 1714. 101. o 1
7 16 16 420. 457. 93. o 1
7 16 -16 420. 531. 89. o 1
-12 16 4 43076. 48110. 571. o -3
-4 16 20 43076. 48110. 571. o -2
8 16 16 43076. 48110. 571. o 1
4 16 20 44282. 41804. 334. o -3
12 16 4 44282. 41804. 334. o -2
8 16 -16 44282. 41804. 334. o 1
9 16 16 17263. 13790. 284. o 1
9 16 -16 17263. 14553. 321. o 1
10 16 16 95. 565. 119. o 1
10 16 -16 95. 126. 128. < 1
-8 17 -8 338. 389. 76. o -3
-8 17 8 338. 389. 76. o -2
0 17 16 338. 389. 76. o 1
8 17 8 338. 394. 132. < -3
8 17 -8 338. 394. 132. < -2
0 17 -16 338. 394. 132. < 1
1 17 16 5177. 5659. 167. o 1
1 17 -16 5177. 5146. 93. o 1
-9 17 -5 1945. 2314. 152. o -3
-7 17 11 1945. 2314. 152. o -2
2 17 16 1945. 2314. 152. o 1
7 17 11 1951. 1788. 86. o -3
9 17 -5 1951. 1788. 86. o -2
2 17 -16 1951. 1788. 86. o 1
3 17 16 1660. 1372. 103. o 1
3 17 -16 1660. 1403. 80. o 1
-10 17 -2 211. 29. 95. < -3
-6 17 14 211. 29. 95. < -2
4 17 16 211. 29. 95. < 1
6 17 14 221. 181. 74. < -3
10 17 -2 221. 181. 74. < -2
4 17 -16 221. 181. 74. < 1
5 17 16 326. 404. 91. o 1
5 17 -16 326. 284. 84. o 1
-11 17 1 14720. 18242. 214. o -3
-5 17 17 14720. 18242. 214. o -2
6 17 16 14720. 18242. 214. o 1
5 17 17 15039. 17460. 235. o -3
11 17 1 15039. 17460. 235. o -2
6 17 -16 15039. 17460. 235. o 1
7 17 16 2703. 3282. 132. o 1
7 17 -16 2703. 2787. 107. o 1
-12 17 4 194. 150. 109. < -3
-4 17 20 194. 150. 109. < -2
8 17 16 194. 150. 109. < 1
4 17 20 182. 152. 84. < -3
12 17 4 182. 152. 84. < -2
8 17 -16 182. 152. 84. < 1
9 17 16 281. 27. 119. < 1
9 17 -16 281. 225. 122. < 1
10 17 16 9. 10. 117. < 1
10 17 -16 9. 37. 113. < 1
-8 18 -8 136699. 144613. 799. o -3
-8 18 8 136699. 144613. 799. o -2
0 18 16 136699. 144613. 799. o 1
8 18 8 136699. 158778. 1312. o -3
8 18 -8 136699. 158778. 1312. o -2
0 18 -16 136699. 158778. 1312. o 1
1 18 16 3536. 4003. 152. o 1
1 18 -16 3536. 3498. 78. o 1
-9 18 -5 512. 443. 138. o -3
-7 18 11 512. 443. 138. o -2
2 18 16 512. 443. 138. o 1
7 18 11 469. 406. 80. o -3
9 18 -5 469. 406. 80. o -2
2 18 -16 469. 406. 80. o 1
3 18 16 835. 944. 99. o 1
3 18 -16 835. 773. 74. o 1
-10 18 -2 38159. 35888. 352. o -3
-6 18 14 38159. 35888. 352. o -2
4 18 16 38159. 35888. 352. o 1
6 18 14 38857. 38908. 377. o -3
10 18 -2 38857. 38908. 377. o -2
4 18 -16 38857. 38908. 377. o 1
5 18 16 3321. 3498. 167. o 1
5 18 -16 3321. 4001. 105. o 1
-11 18 1 1825. 2452. 134. o -3
-5 18 17 1825. 2452. 134. o -2
6 18 16 1825. 2452. 134. o 1
5 18 17 2028. 1506. 107. o -3
11 18 1 2028. 1506. 107. o -2
6 18 -16 2028. 1506. 107. o 1
7 18 16 2296. 2085. 140. o 1
7 18 -16 2296. 2038. 95. o 1
-12 18 4 61390. 65959. 602. o -3
-4 18 20 61390. 65959. 602. o -2
8 18 16 61390. 65959. 602. o 1
4 18 20 62514. 59824. 490. o -3
12 18 4 62514. 59824. 490. o -2
8 18 -16 62514. 59824. 490. o 1
9 18 16 3413. 2730. 154. o 1
9 18 -16 3413. 3473. 154. o 1
10 18 16 579. 200. 117. < 1
10 18 -16 579. 381. 107. o 1
11 18 16 315. 60. 82. < 1
-8 19 -8 539. 223. 119. < -3
-8 19 8 539. 223. 119. < -2
0 19 16 539. 223. 119. < 1
8 19 8 539. 212. 138. < -3
8 19 -8 539. 212. 138. < -2
0 19 -16 539. 212. 138. < 1
1 19 16 977. 803. 124. o 1
1 19 -16 977. 770. 142. o 1
-9 19 -5 9141. 9007. 204. o -3
-7 19 11 9141. 9007. 204. o -2
2 19 16 9141. 9007. 204. o 1
7 19 11 8910. 7789. 124. o -3
9 19 -5 8910. 7789. 124. o -2
2 19 -16 8910. 7789. 124. o 1
3 19 16 3491. 3679. 107. o 1
3 19 -16 3491. 3531. 82. o 1
-10 19 -2 199. 68. 99. < -3
-6 19 14 199. 68. 99. < -2
4 19 16 199. 68. 99. < 1
6 19 14 188. 157. 72. < -3
10 19 -2 188. 157. 72. < -2
4 19 -16 188. 157. 72. < 1
5 19 16 1038. 964. 148. o 1
5 19 -16 1038. 1098. 91. o 1
-11 19 1 2187. 1947. 103. o -3
-5 19 17 2187. 1947. 103. o -2
6 19 16 2187. 1947. 103. o 1
5 19 17 2138. 1733. 107. o -3
11 19 1 2138. 1733. 107. o -2
6 19 -16 2138. 1733. 107. o 1
7 19 16 3441. 3529. 103. o 1
7 19 -16 3441. 2831. 84. o 1
-12 19 4 244. -41. 113. < -3
-4 19 20 244. -41. 113. < -2
8 19 16 244. -41. 113. < 1
4 19 20 232. 51. 84. < -3
12 19 4 232. 51. 84. < -2
8 19 -16 232. 51. 84. < 1
9 19 16 278. 260. 111. < 1
9 19 -16 278. 480. 105. o 1
10 19 16 176. 159. 117. < 1
10 19 -16 176. -10. 109. < 1
-8 20 -8 11867. 11833. 255. o -3
-8 20 8 11867. 11833. 255. o -2
0 20 16 11867. 11833. 255. o 1
8 20 8 11867. 11279. 270. o -3
8 20 -8 11867. 11279. 270. o -2
0 20 -16 11867. 11279. 270. o 1
1 20 16 560. 554. 130. o 1
1 20 -16 560. 416. 119. o 1
-9 20 -5 3239. 4470. 167. o -3
-7 20 11 3239. 4470. 167. o -2
2 20 16 3239. 4470. 167. o 1
7 20 11 3605. 3140. 89. o -3
9 20 -5 3605. 3140. 89. o -2
2 20 -16 3605. 3140. 89. o 1
3 20 16 6616. 6906. 142. o 1
3 20 -16 6616. 6149. 99. o 1
-10 20 -2 28640. 27661. 282. o -3
-6 20 14 28640. 27661. 282. o -2
4 20 16 28640. 27661. 282. o 1
6 20 14 28398. 24728. 214. o -3
10 20 -2 28398. 24728. 214. o -2
4 20 -16 28398. 24728. 214. o 1
5 20 16 3122. 1858. 165. o 1
-11 20 1 2666. 1574. 132. o -3
-5 20 17 2666. 1574. 132. o -2
6 20 16 2666. 1574. 132. o 1
7 20 16 1436. 1234. 80. o 1
7 20 -16 1436. 1238. 80. o 1
-12 20 4 4973. 4590. 169. o -3
-4 20 20 4973. 4590. 169. o -2
8 20 16 4973. 4590. 169. o 1
4 20 20 5065. 3980. 126. o -3
12 20 4 5065. 3980. 126. o -2
8 20 -16 5065. 3980. 126. o 1
9 20 16 159. 303. 117. < 1
9 20 -16 159. 220. 99. < 1
10 20 16 169. 540. 95. o 1
10 20 -16 169. 499. 115. o 1
-8 21 -8 330. 360. 122. < -3
-8 21 8 330. 360. 122. < -2
0 21 16 330. 360. 122. < 1
8 21 8 330. 150. 124. < -3
8 21 -8 330. 150. 124. < -2
0 21 -16 330. 150. 124. < 1
1 21 16 1790. 1790. 101. o 1
1 21 -16 1790. 2017. 140. o 1
-9 21 -5 2904. 2091. 157. o -3
-7 21 11 2904. 2091. 157. o -2
2 21 16 2904. 2091. 157. o 1
3 21 16 1126. 1012. 95. o 1
3 21 -16 1126. 1053. 70. o 1
-10 21 -2 383. 330. 89. o -3
-6 21 14 383. 330. 89. o -2
4 21 16 383. 330. 89. o 1
6 21 14 360. 124. 97. < -3
10 21 -2 360. 124. 97. < -2
4 21 -16 360. 124. 97. < 1
5 21 16 735. 770. 124. o 1
5 21 -16 735. 534. 84. o 1
-11 21 1 2237. 2202. 134. o -3
-5 21 17 2237. 2202. 134. o -2
6 21 16 2237. 2202. 134. o 1
5 21 17 2078. 1419. 72. o -3
11 21 1 2078. 1419. 72. o -2
6 21 -16 2078. 1419. 72. o 1
7 21 16 3407. 3059. 120. o 1
7 21 -16 3407. 3171. 103. o 1
-12 21 4 244. 365. 111. o -3
-4 21 20 244. 365. 111. o -2
8 21 16 244. 365. 111. o 1
4 21 20 281. 140. 78. < -3
12 21 4 281. 140. 78. < -2
8 21 -16 281. 140. 78. < 1
9 21 16 592. 461. 111. o 1
9 21 -16 592. 464. 111. o 1
10 21 16 831. 420. 101. o 1
10 21 -16 831. 655. 95. o 1
-8 22 -8 11857. 10400. 243. o -3
-8 22 8 11857. 10400. 243. o -2
0 22 16 11857. 10400. 243. o 1
8 22 8 11857. 10072. 258. o -3
8 22 -8 11857. 10072. 258. o -2
0 22 -16 11857. 10072. 258. o 1
1 22 16 3432. 3340. 124. o 1
1 22 -16 3432. 3399. 130. o 1
-9 22 -5 1887. 1957. 155. o -3
-7 22 11 1887. 1957. 155. o -2
2 22 16 1887. 1957. 155. o 1
7 22 11 2096. 1597. 103. o -3
9 22 -5 2096. 1597. 103. o -2
2 22 -16 2096. 1597. 103. o 1
3 22 16 2974. 2901. 124. o 1
3 22 -16 2974. 2441. 72. o 1
5 22 16 1984. 2114. 140. o 1
5 22 -16 1984. 1949. 72. o 1
-11 22 1 1246. 929. 126. o -3
-5 22 17 1246. 929. 126. o -2
6 22 16 1246. 929. 126. o 1
5 22 17 1208. 418. 76. o -3
11 22 1 1208. 418. 76. o -2
6 22 -16 1208. 418. 76. o 1
7 22 16 732. 729. 80. o 1
7 22 -16 732. 676. 70. o 1
9 22 16 6480. 4405. 169. o 1
-8 23 -8 671. 513. 122. o -3
-8 23 8 671. 513. 122. o -2
0 23 16 671. 513. 122. o 1
8 23 8 671. 752. 111. o -3
8 23 -8 671. 752. 111. o -2
0 23 -16 671. 752. 111. o 1
1 23 16 2536. 3049. 126. o 1
1 23 -16 2536. 2655. 144. o 1
-9 23 -5 10618. 8696. 206. o -3
-7 23 11 10618. 8696. 206. o -2
2 23 16 10618. 8696. 206. o 1
3 23 16 663. 505. 87. o 1
3 23 -16 663. 527. 62. o 1
-10 23 -2 205. 212. 74. < -3
-6 23 14 205. 212. 74. < -2
4 23 16 205. 212. 74. < 1
6 23 14 222. 134. 76. < -3
10 23 -2 222. 134. 76. < -2
4 23 -16 222. 134. 76. < 1
5 23 16 125. -84. 120. < 1
5 23 -16 125. -27. 76. < 1
-11 23 1 7845. 6730. 192. o -3
-5 23 17 7845. 6730. 192. o -2
6 23 16 7845. 6730. 192. o 1
7 23 16 1355. 1242. 130. o 1
7 23 -16 1355. 900. 86. o 1
-12 23 4 437. 206. 117. < -3
-4 23 20 437. 206. 117. < -2
8 23 16 437. 206. 117. < 1
4 23 20 481. 268. 72. o -3
12 23 4 481. 268. 72. o -2
8 23 -16 481. 268. 72. o 1
-8 24 -8 39598. 38137. 610. o -3
-8 24 8 39598. 38137. 610. o -2
0 24 16 39598. 38137. 610. o 1
8 24 8 39598. 38156. 558. o -3
8 24 -8 39598. 38156. 558. o -2
0 24 -16 39598. 38156. 558. o 1
1 24 16 4023. 3787. 105. o 1
1 24 -16 4023. 4291. 105. o 1
-9 24 -5 2448. 2472. 165. o -3
-7 24 11 2448. 2472. 165. o -2
2 24 16 2448. 2472. 165. o 1
3 24 16 4753. 4044. 109. o 1
3 24 -16 4753. 4392. 82. o 1
-10 24 -2 10608. 10632. 245. o -3
-6 24 14 10608. 10632. 245. o -2
4 24 16 10608. 10632. 245. o 1
6 24 14 10919. 8889. 161. o -3
10 24 -2 10919. 8889. 161. o -2
4 24 -16 10919. 8889. 161. o 1
5 24 16 1201. 1147. 124. o 1
5 24 -16 1201. 997. 84. o 1
-11 24 1 856. 733. 113. o -3
-5 24 17 856. 733. 113. o -2
6 24 16 856. 733. 113. o 1
5 24 17 829. 154. 64. < -3
11 24 1 829. 154. 64. < -2
6 24 -16 829. 154. 64. < 1
7 24 16 2016. 668. 138. o 1
7 24 -16 2016. 1172. 93. o 1
-12 24 4 22664. 26909. 470. o -3
-4 24 20 22664. 26909. 470. o -2
8 24 16 22664. 26909. 470. o 1
4 24 20 23406. 22791. 365. o -3
12 24 4 23406. 22791. 365. o -2
8 24 -16 23406. 22791. 365. o 1
-8 25 -8 456. 146. 111. < -3
-8 25 8 456. 146. 111. < -2
0 25 16 456. 146. 111. < 1
8 25 8 456. 155. 109. < -3
8 25 -8 456. 155. 109. < -2
0 25 -16 456. 155. 109. < 1
1 25 16 5072. 4536. 120. o 1
1 25 -16 5072. 5437. 130. o 1
-9 25 -5 5984. 6627. 204. o -3
-7 25 11 5984. 6627. 204. o -2
2 25 16 5984. 6627. 204. o 1
7 25 11 6435. 4911. 115. o -3
9 25 -5 6435. 4911. 115. o -2
2 25 -16 6435. 4911. 115. o 1
3 25 16 1128. 929. 87. o 1
3 25 -16 1128. 937. 60. o 1
-10 25 -2 51. 175. 103. < -3
-6 25 14 51. 175. 103. < -2
4 25 16 51. 175. 103. < 1
6 25 14 50. 115. 76. < -3
10 25 -2 50. 115. 76. < -2
4 25 -16 50. 115. 76. < 1
5 25 16 382. 521. 111. o 1
5 25 -16 382. 497. 74. o 1
-11 25 1 1569. 715. 128. o -3
-5 25 17 1569. 715. 128. o -2
6 25 16 1569. 715. 128. o 1
-8 26 -8 4275. 3585. 173. o -3
-8 26 8 4275. 3585. 173. o -2
0 26 16 4275. 3585. 173. o 1
8 26 8 4275. 2614. 169. o -3
8 26 -8 4275. 2614. 169. o -2
0 26 -16 4275. 2614. 169. o 1
1 26 16 1829. 1236. 87. o 1
1 26 -16 1829. 1454. 91. o 1
-9 26 -5 4722. 3374. 167. o -3
-7 26 11 4722. 3374. 167. o -2
2 26 16 4722. 3374. 167. o 1
3 26 16 621. 447. 72. o 1
3 26 -16 621. 618. 66. o 1
-10 26 -2 4598. 3189. 148. o -3
-6 26 14 4598. 3189. 148. o -2
4 26 16 4598. 3189. 148. o 1
5 26 16 562. 206. 107. < 1
5 26 -16 562. 404. 72. o 1
-8 27 -8 309. -16. 117. < -3
-8 27 8 309. -16. 117. < -2
0 27 16 309. -16. 117. < 1
8 27 8 309. -56. 111. < -3
8 27 -8 309. -56. 111. < -2
0 27 -16 309. -56. 111. < 1
1 27 -16 3808. 3642. 107. o 1
3 27 16 69. -68. 62. < 1
3 27 -16 69. -62. 56. < 1
-10 27 -2 221. 154. 87. < -3
-6 27 14 221. 154. 87. < -2
4 27 16 221. 154. 87. < 1
6 27 14 247. 76. 72. < -3
10 27 -2 247. 76. 72. < -2
4 27 -16 247. 76. 72. < 1
5 27 16 368. 101. 95. < 1
5 27 -16 368. 497. 68. o 1
1 28 16 1059. 583. 74. o 1
1 28 -16 1059. 328. 86. o 1
-9 28 -5 765. 385. 72. o -3
-7 28 11 765. 385. 72. o -2
2 28 16 765. 385. 72. o 1
7 28 11 891. 181. 109. < -3
9 28 -5 891. 181. 109. < -2
2 28 -16 891. 181. 109. < 1
3 28 16 758. 630. 66. o 1
3 28 -16 758. 241. 62. o 1
-10 28 -2 2511. 1454. 119. o -3
-6 28 14 2511. 1454. 119. o -2
4 28 16 2511. 1454. 119. o 1
-8 29 -8 135. 66. 78. < -3
-8 29 8 135. 66. 78. < -2
0 29 16 135. 66. 78. < 1
8 29 8 135. 99. 103. < -3
8 29 -8 135. 99. 103. < -2
0 29 -16 135. 99. 103. < 1
1 29 16 40. 39. 60. < 1
1 29 -16 40. -82. 66. < 1
2 0 -17 4757. 4975. 87. o 1
4 0 -17 5287. 5575. 159. o 1
6 0 -17 5477. 5478. 202. o 1
8 1 10 1110. 1063. 27. o -3
9 1 -7 1110. 1063. 27. o -2
1 1 -17 1110. 1063. 27. o 1
2 1 -17 1504. 1510. 41. o 1
7 1 13 1619. 1448. 41. o -3
10 1 -4 1619. 1448. 41. o -2
3 1 -17 1619. 1448. 41. o 1
4 1 -17 1393. 1213. 47. o 1
6 1 16 1473. 1086. 60. o -3
11 1 -1 1473. 1086. 60. o -2
5 1 -17 1473. 1086. 60. o 1
6 1 -17 3463. 3477. 91. o 1
5 1 19 1032. 684. 76. o -3
12 1 2 1032. 684. 76. o -2
7 1 -17 1032. 684. 76. o 1
8 2 10 3895. 3881. 54. o -3
9 2 -7 3895. 3881. 54. o -2
1 2 -17 3895. 3881. 54. o 1
2 2 -17 1575. 1283. 47. o 1
7 2 13 1572. 1518. 60. o -3
10 2 -4 1572. 1518. 60. o -2
3 2 -17 1572. 1518. 60. o 1
4 2 -17 980. 859. 91. o 1
6 2 16 6379. 6162. 120. o -3
11 2 -1 6379. 6162. 120. o -2
5 2 -17 6379. 6162. 120. o 1
6 2 -17 787. 781. 103. o 1
5 2 19 2159. 2379. 120. o -3
12 2 2 2159. 2379. 120. o -2
7 2 -17 2159. 2379. 120. o 1
8 2 -17 3895. 4260. 155. o 1
2 3 -17 1611. 1562. 52. o 1
7 3 13 673. 721. 60. o -3
10 3 -4 673. 721. 60. o -2
3 3 -17 673. 721. 60. o 1
4 3 -17 177. 361. 87. o 1
6 3 16 858. 884. 84. o -3
11 3 -1 858. 884. 84. o -2
5 3 -17 858. 884. 84. o 1
6 3 -17 1276. 1370. 113. o 1
5 3 19 1835. 948. 105. o -3
12 3 2 1835. 948. 105. o -2
7 3 -17 1835. 948. 105. o 1
8 3 -17 1694. 1848. 128. o 1
8 4 10 12767. 14553. 142. o -3
9 4 -7 12767. 14553. 142. o -2
1 4 -17 12767. 14553. 142. o 1
2 4 -17 7029. 6906. 99. o 1
7 4 13 771. 843. 52. o -3
10 4 -4 771. 843. 52. o -2
3 4 -17 771. 843. 52. o 1
4 4 -17 291. 150. 64. < 1
6 4 16 7656. 9192. 154. o -3
11 4 -1 7656. 9192. 154. o -2
5 4 -17 7656. 9192. 154. o 1
6 4 -17 141. 220. 126. < 1
5 4 19 749. 492. 80. o -3
12 4 2 749. 492. 80. o -2
7 4 -17 749. 492. 80. o 1
8 4 -17 1029. 1003. 115. o 1
8 5 10 9305. 8949. 128. o -3
9 5 -7 9305. 8949. 128. o -2
1 5 -17 9305. 8949. 128. o 1
2 5 -17 1912. 1679. 56. o 1
7 5 13 3089. 2384. 60. o -3
10 5 -4 3089. 2384. 60. o -2
3 5 -17 3089. 2384. 60. o 1
4 5 -17 229. 157. 80. < 1
6 5 16 2873. 2666. 93. o -3
11 5 -1 2873. 2666. 93. o -2
5 5 -17 2873. 2666. 93. o 1
6 5 -17 395. 266. 130. < 1
5 5 19 3054. 2721. 117. o -3
12 5 2 3054. 2721. 117. o -2
7 5 -17 3054. 2721. 117. o 1
8 5 -17 1246. 2116. 122. o 1
8 6 10 811. 828. 68. o -3
9 6 -7 811. 828. 68. o -2
1 6 -17 811. 828. 68. o 1
2 6 -17 2510. 2653. 68. o 1
7 6 13 3292. 3204. 70. o -3
10 6 -4 3292. 3204. 70. o -2
3 6 -17 3292. 3204. 70. o 1
4 6 -17 257. 284. 86. o 1
6 6 16 1536. 1590. 80. o -3
11 6 -1 1536. 1590. 80. o -2
5 6 -17 1536. 1590. 80. o 1
6 6 -17 6847. 8729. 222. o 1
5 6 19 475. 315. 130. < -3
12 6 2 475. 315. 130. < -2
7 6 -17 475. 315. 130. < 1
8 6 -17 6259. 6976. 198. o 1
9 6 17 1008. 1020. 140. o 1
8 7 10 4842. 4773. 87. o -3
9 7 -7 4842. 4773. 87. o -2
1 7 -17 4842. 4773. 87. o 1
2 7 -17 2798. 3030. 76. o 1
7 7 13 1067. 816. 56. o -3
10 7 -4 1067. 816. 56. o -2
3 7 -17 1067. 816. 56. o 1
4 7 -17 423. 328. 52. o 1
6 7 16 2238. 1831. 78. o -3
11 7 -1 2238. 1831. 78. o -2
5 7 -17 2238. 1831. 78. o 1
6 7 -17 1622. 1702. 103. o 1
5 7 19 1799. 1405. 95. o -3
12 7 2 1799. 1405. 95. o -2
7 7 -17 1799. 1405. 95. o 1
8 7 -17 895. 1073. 103. o 1
10 7 17 620. 525. 124. o 1
8 8 10 2622. 2769. 70. o -3
9 8 -7 2622. 2769. 70. o -2
1 8 -17 2622. 2769. 70. o 1
2 8 -17 2588. 2501. 66. o 1
7 8 13 1698. 2075. 58. o -3
10 8 -4 1698. 2075. 58. o -2
3 8 -17 1698. 2075. 58. o 1
4 8 -17 705. 622. 47. o 1
6 8 16 262. 328. 49. o -3
11 8 -1 262. 328. 49. o -2
5 8 -17 262. 328. 49. o 1
6 8 -17 471. 731. 132. o 1
5 8 19 1702. 1728. 107. o -3
12 8 2 1702. 1728. 107. o -2
7 8 -17 1702. 1728. 107. o 1
8 8 -17 1782. 1945. 109. o 1
9 8 17 340. 511. 132. o 1
9 8 -17 340. 585. 119. o 1
10 8 17 489. 468. 113. o 1
8 9 10 5155. 5330. 89. o -3
9 9 -7 5155. 5330. 89. o -2
1 9 -17 5155. 5330. 89. o 1
2 9 -17 2090. 1974. 58. o 1
7 9 13 6164. 5702. 89. o -3
10 9 -4 6164. 5702. 89. o -2
3 9 -17 6164. 5702. 89. o 1
4 9 -17 428. 676. 62. o 1
6 9 16 1435. 1147. 74. o -3
11 9 -1 1435. 1147. 74. o -2
5 9 -17 1435. 1147. 74. o 1
6 9 -17 590. 663. 130. o 1
5 9 19 3110. 2244. 134. o -3
12 9 2 3110. 2244. 134. o -2
7 9 -17 3110. 2244. 134. o 1
8 9 17 1666. 1743. 126. o 1
8 9 -17 1666. 2192. 134. o 1
10 9 17 16. 86. 105. < 1
8 10 10 3086. 2227. 70. o -3
9 10 -7 3086. 2227. 70. o -2
1 10 -17 3086. 2227. 70. o 1
2 10 -17 1472. 1292. 49. o 1
7 10 13 1040. 1044. 56. o -3
10 10 -4 1040. 1044. 56. o -2
3 10 -17 1040. 1044. 56. o 1
4 10 -17 1707. 1815. 62. o 1
6 10 16 4492. 4365. 107. o -3
11 10 -1 4492. 4365. 107. o -2
5 10 -17 4492. 4365. 107. o 1
6 10 -17 53. 183. 113. < 1
5 10 19 4906. 5474. 187. o -3
12 10 2 4906. 5474. 187. o -2
7 10 -17 4906. 5474. 187. o 1
8 10 17 3030. 2868. 101. o 1
8 10 -17 3030. 3321. 132. o 1
9 10 17 968. 1728. 134. o 1
9 10 -17 968. 1681. 150. o 1
-9 11 -7 2576. 2254. 103. o -3
-8 11 10 2576. 2254. 103. o -2
1 11 17 2576. 2254. 103. o 1
8 11 10 2749. 2678. 72. o -3
9 11 -7 2749. 2678. 72. o -2
1 11 -17 2749. 2678. 72. o 1
2 11 -17 1249. 1209. 51. o 1
7 11 13 1640. 1393. 54. o -3
10 11 -4 1640. 1393. 54. o -2
3 11 -17 1640. 1393. 54. o 1
4 11 -17 444. 521. 45. o 1
6 11 16 3999. 3646. 111. o -3
11 11 -1 3999. 3646. 111. o -2
5 11 -17 3999. 3646. 111. o 1
6 11 -17 1318. 1535. 117. o 1
-12 11 2 1077. 906. 87. o -3
-5 11 19 1077. 906. 87. o -2
7 11 17 1077. 906. 87. o 1
5 11 19 1000. 657. 86. o -3
12 11 2 1000. 657. 86. o -2
7 11 -17 1000. 657. 86. o 1
8 11 17 2190. 1685. 74. o 1
8 11 -17 2190. 1640. 107. o 1
-9 12 -7 3215. 2724. 119. o -3
-8 12 10 3215. 2724. 119. o -2
1 12 17 3215. 2724. 119. o 1
8 12 10 3121. 3523. 76. o -3
9 12 -7 3121. 3523. 76. o -2
1 12 -17 3121. 3523. 76. o 1
2 12 17 241. 334. 113. < 1
2 12 -17 241. 99. 62. < 1
7 12 13 1385. 1360. 56. o -3
10 12 -4 1385. 1360. 56. o -2
3 12 -17 1385. 1360. 56. o 1
4 12 -17 404. 463. 43. o 1
6 12 16 4120. 4240. 107. o -3
11 12 -1 4120. 4240. 107. o -2
5 12 -17 4120. 4240. 107. o 1
6 12 17 911. 1073. 99. o 1
6 12 -17 911. 795. 84. o 1
-12 12 2 1586. 1996. 82. o -3
-5 12 19 1586. 1996. 82. o -2
7 12 17 1586. 1996. 82. o 1
5 12 19 1628. 1570. 93. o -3
12 12 2 1628. 1570. 93. o -2
7 12 -17 1628. 1570. 93. o 1
8 12 17 6115. 6728. 159. o 1
8 12 -17 6115. 7266. 188. o 1
9 12 17 1724. 1908. 117. o 1
9 12 -17 1724. 1932. 142. o 1
10 12 -17 490. 200. 113. < 1
-9 13 -7 4233. 3580. 136. o -3
-8 13 10 4233. 3580. 136. o -2
1 13 17 4233. 3580. 136. o 1
8 13 10 4620. 4435. 89. o -3
9 13 -7 4620. 4435. 89. o -2
1 13 -17 4620. 4435. 89. o 1
2 13 17 657. 476. 124. o 1
2 13 -17 657. 569. 62. o 1
-10 13 -4 2611. 2388. 103. o -3
-7 13 13 2611. 2388. 103. o -2
3 13 17 2611. 2388. 103. o 1
7 13 13 2565. 1924. 64. o -3
10 13 -4 2565. 1924. 64. o -2
3 13 -17 2565. 1924. 64. o 1
4 13 17 1330. 1288. 99. o 1
4 13 -17 1330. 1216. 56. o 1
-11 13 -1 2649. 2513. 76. o -3
-6 13 16 2649. 2513. 76. o -2
5 13 17 2649. 2513. 76. o 1
6 13 16 2925. 2997. 126. o -3
11 13 -1 2925. 2997. 126. o -2
5 13 -17 2925. 2997. 126. o 1
6 13 17 462. 521. 74. o 1
6 13 -17 462. 445. 128. o 1
-12 13 2 3024. 2853. 87. o -3
-5 13 19 3024. 2853. 87. o -2
7 13 17 3024. 2853. 87. o 1
5 13 19 2783. 2705. 86. o -3
12 13 2 2783. 2705. 86. o -2
7 13 -17 2783. 2705. 86. o 1
8 13 17 6272. 7208. 159. o 1
8 13 -17 6272. 8018. 210. o 1
10 13 -17 206. 453. 117. o 1
-9 14 -7 4129. 3166. 126. o -3
-8 14 10 4129. 3166. 126. o -2
1 14 17 4129. 3166. 126. o 1
8 14 10 3954. 4159. 86. o -3
9 14 -7 3954. 4159. 86. o -2
1 14 -17 3954. 4159. 86. o 1
2 14 17 447. 420. 126. o 1
2 14 -17 447. 375. 72. o 1
-10 14 -4 2665. 2868. 99. o -3
-7 14 13 2665. 2868. 99. o -2
3 14 17 2665. 2868. 99. o 1
7 14 13 2751. 2577. 68. o -3
10 14 -4 2751. 2577. 68. o -2
3 14 -17 2751. 2577. 68. o 1
4 14 17 944. 832. 103. o 1
4 14 -17 944. 1075. 66. o 1
-11 14 -1 2631. 2015. 89. o -3
-6 14 16 2631. 2015. 89. o -2
5 14 17 2631. 2015. 89. o 1
6 14 16 2395. 2136. 86. o -3
11 14 -1 2395. 2136. 86. o -2
5 14 -17 2395. 2136. 86. o 1
6 14 17 350. 136. 101. < 1
6 14 -17 350. 206. 113. < 1
-12 14 2 3657. 3782. 99. o -3
-5 14 19 3657. 3782. 99. o -2
7 14 17 3657. 3782. 99. o 1
5 14 19 3765. 3729. 111. o -3
12 14 2 3765. 3729. 111. o -2
7 14 -17 3765. 3729. 111. o 1
8 14 17 3130. 2412. 128. o 1
8 14 -17 3130. 3630. 167. o 1
9 14 17 850. 1012. 138. o 1
9 14 -17 850. 1131. 157. o 1
10 14 17 2022. 1611. 142. o 1
10 14 -17 2022. 2124. 150. o 1
-9 15 -7 4169. 3776. 132. o -3
-8 15 10 4169. 3776. 132. o -2
1 15 17 4169. 3776. 132. o 1
2 15 17 202. 249. 124. < 1
2 15 -17 202. 249. 64. o 1
-10 15 -4 6457. 5484. 117. o -3
-7 15 13 6457. 5484. 117. o -2
3 15 17 6457. 5484. 117. o 1
7 15 13 6013. 6040. 103. o -3
10 15 -4 6013. 6040. 103. o -2
3 15 -17 6013. 6040. 103. o 1
4 15 17 671. 688. 99. o 1
4 15 -17 671. 624. 76. o 1
6 15 16 3139. 4423. 138. o -3
11 15 -1 3139. 4423. 138. o -2
5 15 -17 3139. 4423. 138. o 1
6 15 17 666. 696. 97. o 1
6 15 -17 666. 431. 128. o 1
-12 15 2 3384. 3830. 128. o -3
-5 15 19 3384. 3830. 128. o -2
7 15 17 3384. 3830. 128. o 1
5 15 19 3171. 4487. 130. o -3
12 15 2 3171. 4487. 130. o -2
7 15 -17 3171. 4487. 130. o 1
8 15 17 563. 482. 124. o 1
8 15 -17 563. 321. 86. o 1
9 15 -17 2551. 4073. 225. o 1
10 15 17 126. 175. 109. < 1
10 15 -17 126. 103. 120. < 1
2 16 17 4027. 3539. 136. o 1
2 16 -17 4027. 3912. 84. o 1
-10 16 -4 4697. 4625. 119. o -3
-7 16 13 4697. 4625. 119. o -2
3 16 17 4697. 4625. 119. o 1
7 16 13 4721. 4398. 91. o -3
10 16 -4 4721. 4398. 91. o -2
3 16 -17 4721. 4398. 91. o 1
4 16 17 299. 315. 93. o 1
4 16 -17 299. 183. 74. < 1
-11 16 -1 3924. 3311. 138. o -3
-6 16 16 3924. 3311. 138. o -2
5 16 17 3924. 3311. 138. o 1
6 16 16 3885. 4847. 122. o -3
11 16 -1 3885. 4847. 122. o -2
5 16 -17 3885. 4847. 122. o 1
6 16 17 40. 173. 91. < 1
6 16 -17 40. 39. 117. < 1
-12 16 2 2393. 1984. 82. o -3
-5 16 19 2393. 1984. 82. o -2
7 16 17 2393. 1984. 82. o 1
5 16 19 2618. 1751. 111. o -3
12 16 2 2618. 1751. 111. o -2
7 16 -17 2618. 1751. 111. o 1
8 16 17 324. 377. 113. o 1
8 16 -17 324. 303. 84. o 1
9 16 17 3609. 3550. 177. o 1
9 16 -17 3609. 2929. 171. o 1
10 16 17 2151. 1617. 144. o 1
10 16 -17 2151. 1875. 148. o 1
-9 17 -7 14309. 15399. 266. o -3
-8 17 10 14309. 15399. 266. o -2
1 17 17 14309. 15399. 266. o 1
8 17 10 14981. 12962. 163. o -3
9 17 -7 14981. 12962. 163. o -2
1 17 -17 14981. 12962. 163. o 1
2 17 17 3065. 2777. 132. o 1
2 17 -17 3065. 3424. 76. o 1
-10 17 -4 4218. 3387. 115. o -3
-7 17 13 4218. 3387. 115. o -2
3 17 17 4218. 3387. 115. o 1
4 17 17 171. 136. 97. < 1
4 17 -17 171. 291. 68. o 1
6 17 16 10393. 13510. 202. o -3
11 17 -1 10393. 13510. 202. o -2
5 17 -17 10393. 13510. 202. o 1
6 17 17 1476. 1236. 101. o 1
6 17 -17 1476. 1121. 122. o 1
-12 17 2 4044. 3562. 97. o -3
-5 17 19 4044. 3562. 97. o -2
7 17 17 4044. 3562. 97. o 1
8 17 17 3185. 2439. 138. o 1
8 17 -17 3185. 2758. 91. o 1
10 17 17 918. 466. 128. o 1
10 17 -17 918. 985. 117. o 1
11 17 17 88. 451. 82. o 1
11 17 -17 88. 183. 87. < 1
8 18 10 4596. 3797. 87. o -3
9 18 -7 4596. 3797. 87. o -2
1 18 -17 4596. 3797. 87. o 1
2 18 17 732. 445. 155. < 1
2 18 -17 732. 383. 80. o 1
-10 18 -4 4231. 4433. 128. o -3
-7 18 13 4231. 4433. 128. o -2
3 18 17 4231. 4433. 128. o 1
7 18 13 4421. 3737. 84. o -3
10 18 -4 4421. 3737. 84. o -2
3 18 -17 4421. 3737. 84. o 1
4 18 17 168. 155. 99. < 1
4 18 -17 168. 103. 76. < 1
-11 18 -1 3728. 4013. 136. o -3
-6 18 16 3728. 4013. 136. o -2
5 18 17 3728. 4013. 136. o 1
6 18 16 3680. 4726. 142. o -3
11 18 -1 3680. 4726. 142. o -2
5 18 -17 3680. 4726. 142. o 1
6 18 17 819. 534. 95. o 1
6 18 -17 819. 573. 109. o 1
-12 18 2 2926. 3560. 99. o -3
-5 18 19 2926. 3560. 99. o -2
7 18 17 2926. 3560. 99. o 1
5 18 19 3006. 2761. 105. o -3
12 18 2 3006. 2761. 105. o -2
7 18 -17 3006. 2761. 105. o 1
8 18 17 7679. 6912. 202. o 1
8 18 -17 7679. 7705. 155. o 1
9 18 17 3097. 3070. 157. o 1
9 18 -17 3097. 2936. 161. o 1
10 18 17 920. 352. 120. < 1
10 18 -17 920. 523. 124. o 1
-9 19 -7 3209. 2188. 122. o -3
-8 19 10 3209. 2188. 122. o -2
1 19 17 3209. 2188. 122. o 1
8 19 10 2988. 2833. 132. o -3
9 19 -7 2988. 2833. 132. o -2
1 19 -17 2988. 2833. 132. o 1
2 19 17 694. 560. 140. o 1
2 19 -17 694. 630. 80. o 1
-10 19 -4 5387. 4157. 140. o -3
-7 19 13 5387. 4157. 140. o -2
3 19 17 5387. 4157. 140. o 1
4 19 17 25. 64. 89. < 1
4 19 -17 25. -8. 72. < 1
-11 19 -1 1511. 1275. 99. o -3
-6 19 16 1511. 1275. 99. o -2
5 19 17 1511. 1275. 99. o 1
6 19 16 1551. 1036. 86. o -3
11 19 -1 1551. 1036. 86. o -2
5 19 -17 1551. 1036. 86. o 1
6 19 17 80. 146. 115. < 1
6 19 -17 80. 128. 60. < 1
-12 19 2 1627. 1796. 84. o -3
-5 19 19 1627. 1796. 84. o -2
7 19 17 1627. 1796. 84. o 1
5 19 19 1645. 1240. 86. o -3
12 19 2 1645. 1240. 86. o -2
7 19 -17 1645. 1240. 86. o 1
8 19 17 691. 585. 124. o 1
8 19 -17 691. 610. 80. o 1
9 19 17 357. 449. 120. o 1
9 19 -17 357. 725. 115. o 1
10 19 17 428. 249. 99. < 1
10 19 -17 428. 426. 109. o 1
-9 20 -7 1357. 1353. 150. o -3
-8 20 10 1357. 1353. 150. o -2
1 20 17 1357. 1353. 150. o 1
8 20 10 1314. 1706. 140. o -3
9 20 -7 1314. 1706. 140. o -2
1 20 -17 1314. 1706. 140. o 1
2 20 17 741. 694. 134. o 1
2 20 -17 741. 653. 68. o 1
-10 20 -4 1468. 1557. 101. o -3
-7 20 13 1468. 1557. 101. o -2
3 20 17 1468. 1557. 101. o 1
7 20 13 1550. 1516. 72. o -3
10 20 -4 1550. 1516. 72. o -2
3 20 -17 1550. 1516. 72. o 1
4 20 17 429. 416. 89. o 1
4 20 -17 429. 447. 70. o 1
-11 20 -1 2792. 1669. 140. o -3
-6 20 16 2792. 1669. 140. o -2
5 20 17 2792. 1669. 140. o 1
6 20 17 1326. 970. 126. o 1
6 20 -17 1326. 1094. 62. o 1
-12 20 2 5504. 5140. 126. o -3
-5 20 19 5504. 5140. 126. o -2
7 20 17 5504. 5140. 126. o 1
8 20 17 326. 548. 109. o 1
8 20 -17 326. 274. 82. o 1
9 20 17 65. 235. 105. < 1
9 20 -17 65. 136. 107. < 1
-9 21 -7 2936. 2487. 155. o -3
-8 21 10 2936. 2487. 155. o -2
1 21 17 2936. 2487. 155. o 1
8 21 10 2861. 3325. 155. o -3
9 21 -7 2861. 3325. 155. o -2
1 21 -17 2861. 3325. 155. o 1
2 21 17 600. 719. 152. o 1
2 21 -17 600. 365. 74. o 1
4 21 17 1333. 1156. 93. o 1
4 21 -17 1333. 1141. 68. o 1
-11 21 -1 2178. 1873. 134. o -3
-6 21 16 2178. 1873. 134. o -2
5 21 17 2178. 1873. 134. o 1
6 21 17 1014. 847. 117. o 1
6 21 -17 1014. 857. 70. o 1
-12 21 2 5906. 5161. 126. o -3
-5 21 19 5906. 5161. 126. o -2
7 21 17 5906. 5161. 126. o 1
8 21 17 87. -4. 113. < 1
8 21 -17 87. 216. 80. < 1
9 21 17 1399. 972. 117. o 1
9 21 -17 1399. 731. 128. o 1
-9 22 -7 3830. 2320. 173. o -3
-8 22 10 3830. 2320. 173. o -2
1 22 17 3830. 2320. 173. o 1
8 22 10 3459. 4670. 210. o -3
9 22 -7 3459. 4670. 210. o -2
1 22 -17 3459. 4670. 210. o 1
2 22 17 616. 729. 140. o 1
2 22 -17 616. 486. 56. o 1
-10 22 -4 1046. 1123. 91. o -3
-7 22 13 1046. 1123. 91. o -2
3 22 17 1046. 1123. 91. o 1
7 22 13 1139. 700. 66. o -3
10 22 -4 1139. 700. 66. o -2
3 22 -17 1139. 700. 66. o 1
4 22 17 1489. 1205. 87. o 1
4 22 -17 1489. 1318. 62. o 1
-11 22 -1 1872. 1568. 138. o -3
-6 22 16 1872. 1568. 138. o -2
5 22 17 1872. 1568. 138. o 1
6 22 16 1751. 1215. 91. o -3
11 22 -1 1751. 1215. 91. o -2
5 22 -17 1751. 1215. 91. o 1
6 22 17 959. 672. 120. o 1
6 22 -17 959. 698. 64. o 1
-12 22 2 3102. 3171. 107. o -3
-5 22 19 3102. 3171. 107. o -2
7 22 17 3102. 3171. 107. o 1
5 22 19 3436. 2474. 103. o -3
12 22 2 3436. 2474. 103. o -2
7 22 -17 3436. 2474. 103. o 1
8 22 17 10. -33. 64. < 1
8 22 -17 10. 52. 72. < 1
-9 23 -7 6503. 5684. 122. o -3
-8 23 10 6503. 5684. 122. o -2
1 23 17 6503. 5684. 122. o 1
2 23 17 423. 218. 126. < 1
2 23 -17 423. 328. 56. o 1
-10 23 -4 573. 484. 117. o -3
-7 23 13 573. 484. 117. o -2
3 23 17 573. 484. 117. o 1
7 23 13 584. 323. 54. o -3
10 23 -4 584. 323. 54. o -2
3 23 -17 584. 323. 54. o 1
4 23 17 1310. 1170. 84. o 1
4 23 -17 1310. 1207. 68. o 1
-11 23 -1 4305. 4471. 175. o -3
-6 23 16 4305. 4471. 175. o -2
5 23 17 4305. 4471. 175. o 1
6 23 17 594. 323. 109. < 1
6 23 -17 594. 354. 58. o 1
8 23 -17 1693. 581. 109. o 1
-9 24 -7 2685. 2587. 103. o -3
-8 24 10 2685. 2587. 103. o -2
1 24 17 2685. 2587. 103. o 1
8 24 10 2619. 1877. 97. o -3
9 24 -7 2619. 1877. 97. o -2
1 24 -17 2619. 1877. 97. o 1
2 24 17 301. 210. 122. < 1
2 24 -17 301. 173. 56. o 1
-10 24 -4 1059. 1036. 122. o -3
-7 24 13 1059. 1036. 122. o -2
3 24 17 1059. 1036. 122. o 1
7 24 13 1113. 861. 64. o -3
10 24 -4 1113. 861. 64. o -2
3 24 -17 1113. 861. 64. o 1
4 24 17 2446. 1811. 91. o 1
4 24 -17 2446. 2064. 99. o 1
-11 24 -1 1085. 661. 117. o -3
-6 24 16 1085. 661. 117. o -2
5 24 17 1085. 661. 117. o 1
6 24 16 1028. 602. 76. o -3
11 24 -1 1028. 602. 76. o -2
5 24 -17 1028. 602. 76. o 1
6 24 17 613. 216. 117. < 1
6 24 -17 613. 144. 64. < 1
-12 24 2 1416. 703. 103. o -3
-5 24 19 1416. 703. 103. o -2
7 24 17 1416. 703. 103. o 1
5 24 19 1496. 288. 78. o -3
12 24 2 1496. 288. 78. o -2
7 24 -17 1496. 288. 78. o 1
-9 25 -7 8511. 7524. 148. o -3
-8 25 10 8511. 7524. 148. o -2
1 25 17 8511. 7524. 148. o 1
8 25 10 8195. 6904. 140. o -3
9 25 -7 8195. 6904. 140. o -2
1 25 -17 8195. 6904. 140. o 1
2 25 17 529. 210. 124. < 1
2 25 -17 529. 445. 58. o 1
-10 25 -4 2770. 2040. 144. o -3
-7 25 13 2770. 2040. 144. o -2
3 25 17 2770. 2040. 144. o 1
7 25 13 2745. 2565. 84. o -3
10 25 -4 2745. 2565. 84. o -2
3 25 -17 2745. 2565. 84. o 1
4 25 17 820. 107. 124. < 1
4 25 -17 820. 814. 87. o 1
-11 25 -1 1654. 1234. 120. o -3
-6 25 16 1654. 1234. 120. o -2
5 25 17 1654. 1234. 120. o 1
6 25 16 1729. 752. 87. o -3
11 25 -1 1729. 752. 87. o -2
5 25 -17 1729. 752. 87. o 1
6 25 17 598. 52. 105. < 1
6 25 -17 598. 358. 60. o 1
-9 26 -7 1614. 956. 87. o -3
-8 26 10 1614. 956. 87. o -2
1 26 17 1614. 956. 87. o 1
8 26 10 1564. 1224. 87. o -3
9 26 -7 1564. 1224. 87. o -2
1 26 -17 1564. 1224. 87. o 1
2 26 17 323. 319. 109. < 1
2 26 -17 323. 311. 107. < 1
-10 26 -4 2647. 1691. 134. o -3
-7 26 13 2647. 1691. 134. o -2
3 26 17 2647. 1691. 134. o 1
4 26 17 112. 52. 101. < 1
4 26 -17 112. 23. 70. < 1
2 27 17 477. 192. 111. < 1
2 27 -17 477. 354. 99. o 1
-10 27 -4 672. 404. 105. o -3
-7 27 13 672. 404. 105. o -2
3 27 17 672. 404. 105. o 1
7 27 13 777. 225. 66. o -3
10 27 -4 777. 225. 66. o -2
3 27 -17 777. 225. 66. o 1
4 27 17 21. -29. 86. < 1
4 27 -17 21. -8. 60. < 1
2 28 17 93. 14. 62. < 1
2 28 -17 93. -51. 99. < 1
0 0 -18 742. 410. 68. o 1
8 0 12 78035. 90940. 478. o -3
10 0 -6 78035. 90940. 478. o -2
2 0 -18 78035. 90940. 478. o 1
4 0 -18 1320. 1261. 136. o 1
6 0 18 77761. 75926. 777. o -3
12 0 0 77761. 75926. 777. o -2
6 0 -18 77761. 75926. 777. o 1
9 1 9 1576. 1708. 49. o -3
9 1 -9 1576. 1708. 49. o -2
0 1 -18 1576. 1708. 49. o 1
1 1 -18 425. 480. 35. o 1
8 1 12 362. 589. 47. o -3
10 1 -6 362. 589. 47. o -2
2 1 -18 362. 589. 47. o 1
3 1 -18 291. 154. 58. < 1
7 1 15 4039. 4409. 105. o -3
11 1 -3 4039. 4409. 105. o -2
4 1 -18 4039. 4409. 105. o 1
5 1 -18 534. 620. 93. o 1
6 1 18 430. 334. 91. o -3
12 1 0 430. 334. 91. o -2
6 1 -18 430. 334. 91. o 1
7 1 -18 89. 45. 103. < 1
8 1 -18 6504. 8846. 227. o 1
9 2 9 1649. 1961. 76. o -3
9 2 -9 1649. 1961. 76. o -2
0 2 -18 1649. 1961. 76. o 1
1 2 -18 1928. 1833. 47. o 1
8 2 12 24811. 30684. 220. o -3
10 2 -6 24811. 30684. 220. o -2
2 2 -18 24811. 30684. 220. o 1
3 2 -18 54. 93. 58. < 1
7 2 15 1622. 1747. 95. o -3
11 2 -3 1622. 1747. 95. o -2
4 2 -18 1622. 1747. 95. o 1
5 2 -18 3085. 3545. 138. o 1
6 2 18 17998. 20123. 276. o -3
12 2 0 17998. 20123. 276. o -2
6 2 -18 17998. 20123. 276. o 1
7 2 -18 2134. 2960. 122. o 1
8 2 -18 166. 447. 107. o 1
9 3 9 19397. 22322. 218. o -3
9 3 -9 19397. 22322. 218. o -2
0 3 -18 19397. 22322. 218. o 1
1 3 -18 1342. 1240. 41. o 1
8 3 12 97. 187. 39. o -3
10 3 -6 97. 187. 39. o -2
2 3 -18 97. 187. 39. o 1
3 3 -18 0. 111. 64. < 1
7 3 15 5467. 6825. 119. o -3
11 3 -3 5467. 6825. 119. o -2
4 3 -18 5467. 6825. 119. o 1
5 3 -18 2175. 2083. 120. o 1
6 3 18 209. 383. 117. o -3
12 3 0 209. 383. 117. o -2
6 3 -18 209. 383. 117. o 1
7 3 -18 644. 1020. 89. o 1
8 3 -18 1268. 2190. 140. o 1
9 4 9 1335. 750. 76. o -3
9 4 -9 1335. 750. 76. o -2
0 4 -18 1335. 750. 76. o 1
1 4 -18 4878. 5377. 76. o 1
8 4 12 33590. 40512. 309. o -3
10 4 -6 33590. 40512. 309. o -2
2 4 -18 33590. 40512. 309. o 1
3 4 -18 232. 225. 58. o 1
7 4 15 824. 457. 52. o -3
11 4 -3 824. 457. 52. o -2
4 4 -18 824. 457. 52. o 1
5 4 -18 472. 721. 74. o 1
6 4 18 37099. 46419. 602. o -3
12 4 0 37099. 46419. 602. o -2
6 4 -18 37099. 46419. 602. o 1
7 4 -18 794. 1152. 97. o 1
8 4 -18 610. 1257. 117. o 1
9 5 9 15783. 17272. 202. o -3
9 5 -9 15783. 17272. 202. o -2
0 5 -18 15783. 17272. 202. o 1
1 5 -18 664. 606. 56. o 1
8 5 12 228. 474. 70. o -3
10 5 -6 228. 474. 70. o -2
2 5 -18 228. 474. 70. o 1
3 5 -18 511. 358. 62. o 1
7 5 15 6794. 7818. 142. o -3
11 5 -3 6794. 7818. 142. o -2
4 5 -18 6794. 7818. 142. o 1
5 5 -18 4023. 4396. 103. o 1
7 5 -18 849. 977. 130. o 1
9 5 18 2058. 2038. 188. o 1
1 6 -18 883. 740. 43. o 1
8 6 12 28992. 35405. 321. o -3
10 6 -6 28992. 35405. 321. o -2
2 6 -18 28992. 35405. 321. o 1
3 6 -18 618. 764. 51. o 1
7 6 15 1316. 915. 58. o -3
11 6 -3 1316. 915. 58. o -2
4 6 -18 1316. 915. 58. o 1
5 6 -18 880. 805. 54. o 1
6 6 18 12787. 11708. 237. o -3
12 6 0 12787. 11708. 237. o -2
6 6 -18 12787. 11708. 237. o 1
7 6 -18 412. 698. 80. o 1
8 6 -18 1318. 1525. 130. o 1
9 6 18 121. 272. 128. < 1
9 6 -18 121. -115. 140. < 1
9 7 9 6325. 6512. 122. o -3
9 7 -9 6325. 6512. 122. o -2
0 7 -18 6325. 6512. 122. o 1
1 7 -18 766. 614. 52. o 1
8 7 12 562. 503. 56. o -3
10 7 -6 562. 503. 56. o -2
2 7 -18 562. 503. 56. o 1
3 7 -18 245. 206. 66. o 1
7 7 15 1573. 1358. 45. o -3
11 7 -3 1573. 1358. 45. o -2
4 7 -18 1573. 1358. 45. o 1
5 7 -18 1610. 1611. 72. o 1
6 7 18 721. 612. 84. o -3
12 7 0 721. 612. 84. o -2
6 7 -18 721. 612. 84. o 1
7 7 -18 340. 369. 130. < 1
9 7 18 698. 785. 124. o 1
9 7 -18 698. 1003. 171. o 1
10 7 18 115. -51. 109. < 1
9 8 9 1719. 1652. 64. o -3
9 8 -9 1719. 1652. 64. o -2
0 8 -18 1719. 1652. 64. o 1
1 8 -18 941. 946. 72. o 1
8 8 12 44501. 48710. 340. o -3
10 8 -6 44501. 48710. 340. o -2
2 8 -18 44501. 48710. 340. o 1
3 8 -18 1437. 1679. 62. o 1
7 8 15 1103. 1290. 52. o -3
11 8 -3 1103. 1290. 52. o -2
4 8 -18 1103. 1290. 52. o 1
5 8 -18 1563. 1405. 68. o 1
6 8 18 16738. 22229. 519. o -3
12 8 0 16738. 22229. 519. o -2
6 8 -18 16738. 22229. 519. o 1
7 8 -18 4621. 4540. 157. o 1
9 8 18 291. 280. 115. < 1
9 8 -18 291. 167. 101. < 1
10 8 18 15487. 18115. 336. o 1
9 9 9 10718. 13271. 179. o -3
9 9 -9 10718. 13271. 179. o -2
0 9 -18 10718. 13271. 179. o 1
1 9 -18 808. 991. 68. o 1
8 9 12 795. 707. 54. o -3
10 9 -6 795. 707. 54. o -2
2 9 -18 795. 707. 54. o 1
3 9 -18 1677. 1696. 56. o 1
7 9 15 1835. 1382. 60. o -3
11 9 -3 1835. 1382. 60. o -2
4 9 -18 1835. 1382. 60. o 1
5 9 -18 2363. 2305. 78. o 1
6 9 18 495. 169. 105. < -3
12 9 0 495. 169. 105. < -2
6 9 -18 495. 169. 105. < 1
7 9 -18 287. 216. 130. < 1
8 9 18 2602. 2824. 99. o 1
8 9 -18 2602. 2707. 124. o 1
9 9 18 2760. 2217. 120. o 1
10 9 18 276. 396. 109. o 1
9 10 9 3239. 2715. 89. o -3
9 10 -9 3239. 2715. 89. o -2
0 10 -18 3239. 2715. 89. o 1
1 10 -18 2366. 2274. 70. o 1
8 10 12 16810. 19225. 266. o -3
10 10 -6 16810. 19225. 266. o -2
2 10 -18 16810. 19225. 266. o 1
3 10 -18 2515. 2604. 70. o 1
7 10 15 1332. 976. 60. o -3
11 10 -3 1332. 976. 60. o -2
4 10 -18 1332. 976. 60. o 1
5 10 -18 4945. 5775. 124. o 1
7 10 -18 212. -111. 132. < 1
9 10 18 1172. 632. 97. o 1
9 10 -18 1172. 651. 66. o 1
9 11 9 6870. 5723. 113. o -3
9 11 -9 6870. 5723. 113. o -2
0 11 -18 6870. 5723. 113. o 1
1 11 -18 2015. 1836. 64. o 1
8 11 12 407. 148. 49. o -3
10 11 -6 407. 148. 49. o -2
2 11 -18 407. 148. 49. o 1
3 11 -18 729. 836. 49. o 1
7 11 15 9763. 8772. 117. o -3
11 11 -3 9763. 8772. 117. o -2
4 11 -18 9763. 8772. 117. o 1
5 11 -18 680. 742. 76. o 1
6 11 18 384. 117. 80. < -3
12 11 0 384. 117. 80. < -2
6 11 -18 384. 117. 80. < 1
7 11 18 250. 270. 95. < 1
7 11 -18 250. 192. 138. < 1
8 11 18 14142. 15919. 220. o 1
8 11 -18 14142. 17396. 295. o 1
9 11 18 1078. 822. 89. o 1
9 11 -18 1078. 1296. 132. o 1
10 11 -18 338. -19. 103. < 1
1 12 -18 1547. 1485. 60. o 1
-10 12 -6 2579. 1889. 154. o -3
-8 12 12 2579. 1889. 154. o -2
2 12 18 2579. 1889. 154. o 1
8 12 12 2424. 1772. 62. o -3
10 12 -6 2424. 1772. 62. o -2
2 12 -18 2424. 1772. 62. o 1
3 12 18 386. 562. 126. o 1
3 12 -18 386. 635. 58. o 1
7 12 15 1905. 1582. 60. o -3
11 12 -3 1905. 1582. 60. o -2
4 12 -18 1905. 1582. 60. o 1
5 12 -18 487. 668. 78. o 1
-12 12 0 12522. 10910. 163. o -3
-6 12 18 12522. 10910. 163. o -2
6 12 18 12522. 10910. 163. o 1
7 12 18 1278. 1555. 82. o 1
7 12 -18 1278. 1331. 91. o 1
9 12 18 1223. 1098. 89. o 1
9 12 -18 1223. 1500. 146. o 1
10 12 -18 7403. 7793. 241. o 1
1 13 18 1445. 1191. 91. o 1
1 13 -18 1445. 1566. 58. o 1
-10 13 -6 215. 253. 119. < -3
-8 13 12 215. 253. 119. < -2
2 13 18 215. 253. 119. < 1
8 13 12 188. 132. 54. < -3
10 13 -6 188. 132. 54. < -2
2 13 -18 188. 132. 54. < 1
3 13 18 425. 682. 89. o 1
3 13 -18 425. 668. 56. o 1
-11 13 -3 2154. 2023. 113. o -3
-7 13 15 2154. 2023. 113. o -2
4 13 18 2154. 2023. 113. o 1
7 13 15 2184. 1603. 70. o -3
11 13 -3 2184. 1603. 70. o -2
4 13 -18 2184. 1603. 70. o 1
5 13 18 190. 253. 76. o 1
5 13 -18 190. 175. 64. < 1
-12 13 0 187. 163. 76. < -3
-6 13 18 187. 163. 76. < -2
6 13 18 187. 163. 76. < 1
6 13 18 169. -86. 120. < -3
12 13 0 169. -86. 120. < -2
6 13 -18 169. -86. 120. < 1
7 13 18 186. 220. 72. o 1
7 13 -18 186. 239. 132. < 1
8 13 18 4438. 3442. 163. o 1
8 13 -18 4438. 5478. 175. o 1
9 13 18 3217. 3047. 130. o 1
9 13 -18 3217. 3624. 136. o 1
10 13 18 39. 148. 95. < 1
10 13 -18 39. 99. 109. < 1
1 14 18 1144. 1211. 122. o 1
1 14 -18 1144. 463. 56. o 1
-10 14 -6 44022. 42690. 565. o -3
-8 14 12 44022. 42690. 565. o -2
2 14 18 44022. 42690. 565. o 1
8 14 12 44036. 48689. 389. o -3
10 14 -6 44036. 48689. 389. o -2
2 14 -18 44036. 48689. 389. o 1
3 14 18 2689. 2796. 91. o 1
3 14 -18 2689. 2903. 74. o 1
-11 14 -3 1276. 1123. 101. o -3
-7 14 15 1276. 1123. 101. o -2
4 14 18 1276. 1123. 101. o 1
7 14 15 1249. 880. 51. o -3
11 14 -3 1249. 880. 51. o -2
4 14 -18 1249. 880. 51. o 1
5 14 18 2916. 3129. 91. o 1
5 14 -18 2916. 3648. 95. o 1
-12 14 0 28245. 32804. 270. o -3
-6 14 18 28245. 32804. 270. o -2
6 14 18 28245. 32804. 270. o 1
6 14 18 29664. 33259. 696. o -3
12 14 0 29664. 33259. 696. o -2
6 14 -18 29664. 33259. 696. o 1
7 14 18 2573. 2190. 87. o 1
7 14 -18 2573. 3409. 138. o 1
8 14 -18 191. 781. 103. o 1
9 14 18 1693. 1490. 148. o 1
9 14 -18 1693. 1722. 144. o 1
10 14 -18 10823. 9553. 299. o 1
1 15 18 3621. 3581. 140. o 1
1 15 -18 3621. 3995. 82. o 1
-10 15 -6 414. 177. 155. < -3
-8 15 12 414. 177. 155. < -2
2 15 18 414. 177. 155. < 1
8 15 12 379. 422. 60. o -3
10 15 -6 379. 422. 60. o -2
2 15 -18 379. 422. 60. o 1
3 15 18 1438. 1333. 99. o 1
3 15 -18 1438. 1176. 74. o 1
-11 15 -3 5805. 5859. 128. o -3
-7 15 15 5805. 5859. 128. o -2
4 15 18 5805. 5859. 128. o 1
7 15 15 5910. 5733. 107. o -3
11 15 -3 5910. 5733. 107. o -2
4 15 -18 5910. 5733. 107. o 1
5 15 18 461. 338. 95. o 1
5 15 -18 461. 818. 68. o 1
-12 15 0 235. 291. 72. o -3
-6 15 18 235. 291. 72. o -2
6 15 18 235. 291. 72. o 1
6 15 18 224. 354. 126. < -3
12 15 0 224. 354. 126. < -2
6 15 -18 224. 354. 126. < 1
7 15 18 2492. 2083. 84. o 1
7 15 -18 2492. 3002. 136. o 1
8 15 18 3917. 5072. 120. o 1
8 15 -18 3917. 5177. 167. o 1
9 15 18 6636. 5105. 179. o 1
9 15 -18 6636. 6965. 192. o 1
10 15 18 64. 70. 99. < 1
10 15 -18 64. -31. 101. < 1
1 16 18 10021. 9357. 220. o 1
1 16 -18 10021. 10470. 134. o 1
-10 16 -6 52609. 44437. 599. o -3
-8 16 12 52609. 44437. 599. o -2
2 16 18 52609. 44437. 599. o 1
8 16 12 51046. 53553. 416. o -3
10 16 -6 51046. 53553. 416. o -2
2 16 -18 51046. 53553. 416. o 1
3 16 18 6929. 7093. 192. o 1
3 16 -18 6929. 7004. 111. o 1
-11 16 -3 3422. 3358. 105. o -3
-7 16 15 3422. 3358. 105. o -2
4 16 18 3422. 3358. 105. o 1
7 16 15 3574. 2874. 74. o -3
11 16 -3 3574. 2874. 74. o -2
4 16 -18 3574. 2874. 74. o 1
5 16 18 1897. 1570. 105. o 1
5 16 -18 1897. 2441. 128. o 1
-12 16 0 74390. 78180. 459. o -3
-6 16 18 74390. 78180. 459. o -2
6 16 18 74390. 78180. 459. o 1
6 16 18 75846. 74272. 847. o -3
12 16 0 75846. 74272. 847. o -2
6 16 -18 75846. 74272. 847. o 1
7 16 18 1405. 1112. 87. o 1
7 16 -18 1405. 1419. 91. o 1
9 16 18 1483. 1009. 124. o 1
9 16 -18 1483. 1417. 128. o 1
10 16 18 20068. 24003. 459. o 1
9 17 9 8407. 7140. 253. o -3
9 17 -9 8407. 7140. 253. o -2
0 17 -18 8407. 7140. 253. o 1
1 17 18 2775. 2305. 154. o 1
1 17 -18 2775. 3082. 84. o 1
-10 17 -6 363. 373. 146. < -3
-8 17 12 363. 373. 146. < -2
2 17 18 363. 373. 146. < 1
8 17 12 378. 204. 80. < -3
10 17 -6 378. 204. 80. < -2
2 17 -18 378. 204. 80. < 1
3 17 18 428. 280. 142. < 1
3 17 -18 428. 492. 74. o 1
-11 17 -3 10657. 11331. 175. o -3
-7 17 15 10657. 11331. 175. o -2
4 17 18 10657. 11331. 175. o 1
7 17 15 10576. 10449. 126. o -3
11 17 -3 10576. 10449. 126. o -2
4 17 -18 10576. 10449. 126. o 1
5 17 18 4236. 4522. 150. o 1
5 17 -18 4236. 3933. 181. o 1
-12 17 0 640. 731. 99. o -3
-6 17 18 640. 731. 99. o -2
6 17 18 640. 731. 99. o 1
6 17 18 658. 569. 115. o -3
12 17 0 658. 569. 115. o -2
6 17 -18 658. 569. 115. o 1
7 17 18 56. 76. 76. < 1
7 17 -18 56. 10. 70. < 1
8 17 18 8683. 9477. 175. o 1
8 17 -18 8683. 7336. 218. o 1
9 17 18 700. 429. 111. o 1
9 17 -18 700. 503. 117. o 1
10 17 18 30. 23. 101. < 1
10 17 -18 30. 150. 89. < 1
9 18 9 1795. 719. 152. o -3
9 18 -9 1795. 719. 152. o -2
0 18 -18 1795. 719. 152. o 1
1 18 18 342. 684. 134. o 1
1 18 -18 342. 299. 68. o 1
-10 18 -6 3857. 3531. 128. o -3
-8 18 12 3857. 3531. 128. o -2
2 18 18 3857. 3531. 128. o 1
8 18 12 3697. 3424. 101. o -3
10 18 -6 3697. 3424. 101. o -2
2 18 -18 3697. 3424. 101. o 1
3 18 18 599. 849. 148. o 1
3 18 -18 599. 694. 70. o 1
-11 18 -3 2082. 1432. 103. o -3
-7 18 15 2082. 1432. 103. o -2
4 18 18 2082. 1432. 103. o 1
7 18 15 1853. 779. 91. o -3
11 18 -3 1853. 779. 91. o -2
4 18 -18 1853. 779. 91. o 1
5 18 18 2624. 3644. 154. o 1
5 18 -18 2624. 1974. 84. o 1
7 18 18 903. 873. 84. o 1
7 18 -18 903. 884. 84. o 1
8 18 18 243. 515. 80. o 1
8 18 -18 243. 253. 119. < 1
9 18 18 811. 511. 120. o 1
9 18 -18 811. 418. 111. o 1
10 18 18 4385. 3605. 177. o 1
10 18 -18 4385. 3366. 165. o 1
-9 19 -9 2875. 3072. 179. o -3
-9 19 9 2875. 3072. 179. o -2
0 19 18 2875. 3072. 179. o 1
9 19 9 2875. 3026. 220. o -3
9 19 -9 2875. 3026. 220. o -2
0 19 -18 2875. 3026. 220. o 1
1 19 18 533. 684. 122. o 1
1 19 -18 533. 554. 132. o 1
-10 19 -6 131. 192. 130. < -3
-8 19 12 131. 192. 130. < -2
2 19 18 131. 192. 130. < 1
8 19 12 138. 157. 68. < -3
10 19 -6 138. 157. 68. < -2
2 19 -18 138. 157. 68. < 1
3 19 18 1084. 1038. 146. o 1
3 19 -18 1084. 890. 68. o 1
-11 19 -3 19438. 20097. 257. o -3
-7 19 15 19438. 20097. 257. o -2
4 19 18 19438. 20097. 257. o 1
7 19 15 19505. 21279. 196. o -3
11 19 -3 19505. 21279. 196. o -2
4 19 -18 19505. 21279. 196. o 1
5 19 18 1305. 966. 87. o 1
5 19 -18 1305. 1285. 84. o 1
-12 19 0 310. 4. 109. < -3
-6 19 18 310. 4. 109. < -2
6 19 18 310. 4. 109. < 1
7 19 18 472. 400. 82. o 1
7 19 -18 472. 350. 76. o 1
8 19 18 2147. 2666. 97. o 1
8 19 -18 2147. 1489. 138. o 1
9 19 18 485. 192. 113. < 1
9 19 -18 485. 309. 117. < 1
-9 20 -9 1965. 1906. 130. o -3
-9 20 9 1965. 1906. 130. o -2
0 20 18 1965. 1906. 130. o 1
9 20 9 1965. 981. 165. o -3
9 20 -9 1965. 981. 165. o -2
0 20 -18 1965. 981. 165. o 1
1 20 18 51. 52. 120. < 1
1 20 -18 51. 142. 109. < 1
-10 20 -6 1453. 1440. 171. o -3
-8 20 12 1453. 1440. 171. o -2
2 20 18 1453. 1440. 171. o 1
8 20 12 1521. 820. 86. o -3
10 20 -6 1521. 820. 86. o -2
2 20 -18 1521. 820. 86. o 1
3 20 18 2510. 2651. 190. o 1
3 20 -18 2510. 1652. 91. o 1
-11 20 -3 4452. 4946. 117. o -3
-7 20 15 4452. 4946. 117. o -2
4 20 18 4452. 4946. 117. o 1
5 20 18 1199. 1133. 84. o 1
5 20 -18 1199. 1292. 84. o 1
-12 20 0 4114. 3836. 165. o -3
-6 20 18 4114. 3836. 165. o -2
6 20 18 4114. 3836. 165. o 1
7 20 18 3173. 2758. 111. o 1
7 20 -18 3173. 2557. 97. o 1
8 20 18 146. 354. 72. o 1
8 20 -18 146. 93. 111. < 1
9 20 18 1064. 738. 101. o 1
9 20 -18 1064. 692. 101. o 1
-9 21 -9 5757. 5002. 233. o -3
-9 21 9 5757. 5002. 233. o -2
0 21 18 5757. 5002. 233. o 1
1 21 18 2070. 1794. 144. o 1
1 21 -18 2070. 2060. 130. o 1
-10 21 -6 431. 550. 120. o -3
-8 21 12 431. 550. 120. o -2
2 21 18 431. 550. 120. o 1
8 21 12 423. 326. 66. o -3
10 21 -6 423. 326. 66. o -2
2 21 -18 423. 326. 66. o 1
3 21 18 323. 119. 117. < 1
3 21 -18 323. 262. 54. o 1
-11 21 -3 3169. 2507. 91. o -3
-7 21 15 3169. 2507. 91. o -2
4 21 18 3169. 2507. 91. o 1
7 21 15 3059. 2621. 72. o -3
11 21 -3 3059. 2621. 72. o -2
4 21 -18 3059. 2621. 72. o 1
5 21 18 141. 134. 68. < 1
5 21 -18 141. 76. 74. < 1
-12 21 0 426. 363. 122. < -3
-6 21 18 426. 363. 122. < -2
6 21 18 426. 363. 122. < 1
6 21 18 449. 398. 74. o -3
12 21 0 449. 398. 74. o -2
6 21 -18 449. 398. 74. o 1
8 21 18 1901. 1696. 97. o 1
8 21 -18 1901. 1007. 144. o 1
-9 22 -9 5269. 4553. 152. o -3
-9 22 9 5269. 4553. 152. o -2
0 22 18 5269. 4553. 152. o 1
1 22 18 2635. 2301. 146. o 1
1 22 -18 2635. 2120. 122. o 1
-10 22 -6 14043. 10939. 247. o -3
-8 22 12 14043. 10939. 247. o -2
2 22 18 14043. 10939. 247. o 1
3 22 18 2175. 1776. 132. o 1
3 22 -18 2175. 1726. 56. o 1
-11 22 -3 1648. 1693. 95. o -3
-7 22 15 1648. 1693. 95. o -2
4 22 18 1648. 1693. 95. o 1
7 22 15 1887. 1351. 80. o -3
11 22 -3 1887. 1351. 80. o -2
4 22 -18 1887. 1351. 80. o 1
5 22 18 1983. 1988. 136. o 1
5 22 -18 1983. 1724. 86. o 1
-12 22 0 6255. 5307. 185. o -3
-6 22 18 6255. 5307. 185. o -2
6 22 18 6255. 5307. 185. o 1
7 22 18 1419. 222. 117. < 1
7 22 -18 1419. 890. 82. o 1
8 22 18 277. 797. 82. o 1
8 22 -18 277. 565. 124. o 1
1 23 18 2934. 2357. 144. o 1
1 23 -18 2934. 2070. 134. o 1
-10 23 -6 225. 78. 122. < -3
-8 23 12 225. 78. 122. < -2
2 23 18 225. 78. 122. < 1
8 23 12 226. 56. 54. < -3
10 23 -6 226. 56. 54. < -2
2 23 -18 226. 56. 54. < 1
3 23 18 754. 851. 119. o 1
3 23 -18 754. 649. 54. o 1
5 23 18 1680. 1580. 126. o 1
5 23 -18 1680. 1582. 86. o 1
-12 23 0 433. 449. 107. o -3
-6 23 18 433. 449. 107. o -2
6 23 18 433. 449. 107. o 1
6 23 18 453. 72. 74. < -3
12 23 0 453. 72. 74. < -2
6 23 -18 453. 72. 74. < 1
7 23 18 509. 583. 97. o 1
7 23 -18 509. 476. 113. o 1
-9 24 -9 2655. 2114. 142. o -3
-9 24 9 2655. 2114. 142. o -2
0 24 18 2655. 2114. 142. o 1
9 24 9 2655. 1005. 134. o -3
9 24 -9 2655. 1005. 134. o -2
0 24 -18 2655. 1005. 134. o 1
1 24 18 619. 632. 84. o 1
1 24 -18 619. 579. 109. o 1
3 24 18 82. 87. 109. < 1
3 24 -18 82. 91. 54. < 1
-11 24 -3 1129. 1007. 80. o -3
-7 24 15 1129. 1007. 80. o -2
4 24 18 1129. 1007. 80. o 1
7 24 15 1299. 698. 68. o -3
11 24 -3 1299. 698. 68. o -2
4 24 -18 1299. 698. 68. o 1
5 24 18 1165. 410. 126. o 1
5 24 -18 1165. 661. 80. o 1
-9 25 -9 7392. 5941. 185. o -3
-9 25 9 7392. 5941. 185. o -2
0 25 18 7392. 5941. 185. o 1
1 25 18 4302. 3616. 113. o 1
1 25 -18 4302. 3599. 150. o 1
-10 25 -6 200. 58. 113. < -3
-8 25 12 200. 58. 113. < -2
2 25 18 200. 58. 113. < 1
8 25 12 175. 134. 105. < -3
10 25 -6 175. 134. 105. < -2
2 25 -18 175. 134. 105. < 1
3 25 18 657. 255. 122. < 1
3 25 -18 657. 155. 66. < 1
-11 25 -3 1929. 987. 87. o -3
-7 25 15 1929. 987. 87. o -2
4 25 18 1929. 987. 87. o 1
7 25 15 2030. 1168. 80. o -3
11 25 -3 2030. 1168. 80. o -2
4 25 -18 2030. 1168. 80. o 1
5 25 18 2395. 902. 113. o 1
3 26 18 1584. 1351. 117. o 1
3 26 -18 1584. 762. 70. o 1
-11 26 -3 500. 152. 56. < -3
-7 26 15 500. 152. 56. < -2
4 26 18 500. 152. 56. < 1
7 26 15 444. 171. 66. < -3
11 26 -3 444. 171. 66. < -2
4 26 -18 444. 171. 66. < 1
-10 27 -6 358. 187. 99. < -3
-8 27 12 358. 187. 99. < -2
2 27 18 358. 187. 99. < 1
8 27 12 316. 82. 101. < -3
10 27 -6 316. 82. 101. < -2
2 27 -18 316. 82. 101. < 1
2 0 -19 301. 424. 86. o 1
4 0 -19 1780. 2656. 165. o 1
6 0 -19 18948. 20160. 328. o 1
8 0 -19 426. 472. 152. o 1
2 1 -19 73. 177. 58. o 1
8 1 14 1210. 952. 86. o -3
11 1 -5 1210. 952. 86. o -2
3 1 -19 1210. 952. 86. o 1
4 1 -19 739. 688. 119. o 1
7 1 17 1397. 1172. 130. o -3
12 1 -2 1397. 1172. 130. o -2
5 1 -19 1397. 1172. 130. o 1
6 1 -19 6839. 7581. 165. o 1
8 1 -19 563. 540. 109. o 1
9 2 11 162. 229. 58. o -3
10 2 -8 162. 229. 58. o -2
1 2 -19 162. 229. 58. o 1
2 2 -19 1253. 1180. 62. o 1
8 2 14 487. 344. 62. o -3
11 2 -5 487. 344. 62. o -2
3 2 -19 487. 344. 62. o 1
4 2 -19 269. 235. 115. < 1
7 2 17 2527. 3142. 144. o -3
12 2 -2 2527. 3142. 144. o -2
5 2 -19 2527. 3142. 144. o 1
6 2 -19 4481. 5328. 154. o 1
7 2 -19 897. 1040. 93. o 1
8 2 -19 336. 470. 119. o 1
9 3 11 3376. 3267. 60. o -3
10 3 -8 3376. 3267. 60. o -2
1 3 -19 3376. 3267. 60. o 1
2 3 -19 119. 68. 70. < 1
8 3 14 231. 490. 62. o -3
11 3 -5 231. 490. 62. o -2
3 3 -19 231. 490. 62. o 1
4 3 -19 625. 612. 54. o 1
7 3 17 2306. 1358. 91. o -3
12 3 -2 2306. 1358. 91. o -2
5 3 -19 2306. 1358. 91. o 1
6 3 -19 1959. 2175. 122. o 1
7 3 -19 1183. 1908. 107. o 1
8 3 -19 1389. 2382. 124. o 1
9 4 11 4048. 3857. 66. o -3
10 4 -8 4048. 3857. 66. o -2
1 4 -19 4048. 3857. 66. o 1
2 4 -19 3271. 3459. 74. o 1
8 4 14 1986. 2250. 64. o -3
11 4 -5 1986. 2250. 64. o -2
3 4 -19 1986. 2250. 64. o 1
4 4 -19 197. 190. 87. < 1
7 4 17 1128. 785. 80. o -3
12 4 -2 1128. 785. 80. o -2
5 4 -19 1128. 785. 80. o 1
6 4 -19 328. 635. 134. o 1
7 4 -19 2823. 3381. 138. o 1
8 4 -19 3969. 5789. 198. o 1
9 4 -19 556. 1613. 146. o 1
2 5 -19 807. 783. 60. o 1
8 5 14 2311. 2311. 68. o -3
11 5 -5 2311. 2311. 68. o -2
3 5 -19 2311. 2311. 68. o 1
4 5 -19 626. 560. 56. o 1
7 5 17 4727. 5257. 109. o -3
12 5 -2 4727. 5257. 109. o -2
5 5 -19 4727. 5257. 109. o 1
6 5 -19 1063. 1139. 91. o 1
8 5 -19 1249. 1374. 97. o 1
9 6 11 984. 589. 76. o -3
10 6 -8 984. 589. 76. o -2
1 6 -19 984. 589. 76. o 1
2 6 -19 1603. 1726. 60. o 1
8 6 14 670. 542. 58. o -3
11 6 -5 670. 542. 58. o -2
3 6 -19 670. 542. 58. o 1
4 6 -19 43. 84. 52. < 1
7 6 17 663. 690. 78. o -3
12 6 -2 663. 690. 78. o -2
5 6 -19 663. 690. 78. o 1
6 6 -19 8957. 10206. 169. o 1
7 6 -19 368. 867. 103. o 1
8 6 -19 290. 91. 136. < 1
9 6 19 190. 884. 136. o 1
9 6 -19 190. 968. 165. o 1
9 7 11 1320. 1605. 82. o -3
10 7 -8 1320. 1605. 82. o -2
1 7 -19 1320. 1605. 82. o 1
2 7 -19 510. 672. 72. o 1
8 7 14 3536. 3278. 74. o -3
11 7 -5 3536. 3278. 74. o -2
3 7 -19 3536. 3278. 74. o 1
4 7 -19 33. -140. 62. < 1
7 7 17 1746. 1475. 80. o -3
12 7 -2 1746. 1475. 80. o -2
5 7 -19 1746. 1475. 80. o 1
6 7 -19 1211. 888. 72. o 1
8 7 -19 1516. 1784. 130. o 1
9 7 19 1895. 1110. 86. o 1
9 7 -19 1895. 2416. 130. o 1
10 7 19 78. -241. 120. < 1
9 8 11 2035. 1899. 62. o -3
10 8 -8 2035. 1899. 62. o -2
1 8 -19 2035. 1899. 62. o 1
2 8 -19 527. 684. 68. o 1
8 8 14 6807. 7101. 101. o -3
11 8 -5 6807. 7101. 101. o -2
3 8 -19 6807. 7101. 101. o 1
4 8 -19 327. 295. 68. o 1
7 8 17 2326. 2861. 91. o -3
12 8 -2 2326. 2861. 91. o -2
5 8 -19 2326. 2861. 91. o 1
6 8 -19 182. 150. 132. < 1
8 8 -19 8046. 10171. 229. o 1
9 8 19 251. 499. 93. o 1
9 8 -19 251. 630. 111. o 1
10 8 19 1766. 882. 138. o 1
9 9 11 2109. 1652. 60. o -3
10 9 -8 2109. 1652. 60. o -2
1 9 -19 2109. 1652. 60. o 1
2 9 -19 441. 210. 72. < 1
8 9 14 1308. 1512. 58. o -3
11 9 -5 1308. 1512. 58. o -2
3 9 -19 1308. 1512. 58. o 1
4 9 -19 293. 325. 66. o 1
7 9 17 4235. 4363. 111. o -3
12 9 -2 4235. 4363. 111. o -2
5 9 -19 4235. 4363. 111. o 1
6 9 -19 1420. 923. 97. o 1
7 9 -19 1895. 2592. 111. o 1
8 9 19 3270. 3094. 109. o 1
8 9 -19 3270. 5367. 231. o 1
9 9 19 1065. 1595. 84. o 1
9 9 -19 1065. 1424. 119. o 1
10 9 -19 522. 655. 120. o 1
9 10 11 2934. 2936. 72. o -3
10 10 -8 2934. 2936. 72. o -2
1 10 -19 2934. 2936. 72. o 1
2 10 -19 5892. 6141. 99. o 1
8 10 14 546. 404. 56. o -3
11 10 -5 546. 404. 56. o -2
3 10 -19 546. 404. 56. o 1
4 10 -19 102. 124. 72. < 1
7 10 17 9213. 10801. 169. o -3
12 10 -2 9213. 10801. 169. o -2
5 10 -19 9213. 10801. 169. o 1
6 10 -19 2746. 2392. 126. o 1
7 10 -19 1838. 2035. 107. o 1
8 10 19 304. 282. 70. o 1
8 10 -19 304. 86. 190. < 1
9 10 19 4814. 4438. 120. o 1
9 10 -19 4814. 4759. 161. o 1
10 10 -19 2827. 2522. 132. o 1
9 11 11 917. 890. 52. o -3
10 11 -8 917. 890. 52. o -2
1 11 -19 917. 890. 52. o 1
2 11 19 2890. 2565. 128. o 1
2 11 -19 2890. 2579. 76. o 1
8 11 14 1250. 1286. 68. o -3
11 11 -5 1250. 1286. 68. o -2
3 11 -19 1250. 1286. 68. o 1
4 11 -19 720. 595. 60. o 1
7 11 17 894. 618. 89. o -3
12 11 -2 894. 618. 89. o -2
5 11 -19 894. 618. 89. o 1
6 11 -19 2144. 2126. 130. o 1
8 11 19 1266. 1580. 82. o 1
8 11 -19 1266. 1364. 146. o 1
9 11 -19 671. 1187. 101. o 1
10 11 -19 2865. 3154. 150. o 1
9 12 11 1241. 976. 54. o -3
10 12 -8 1241. 976. 54. o -2
1 12 -19 1241. 976. 54. o 1
2 12 19 3375. 3436. 136. o 1
2 12 -19 3375. 3405. 78. o 1
-11 12 -5 1092. 810. 89. o -3
-8 12 14 1092. 810. 89. o -2
3 12 19 1092. 810. 89. o 1
8 12 14 1054. 1044. 62. o -3
11 12 -5 1054. 1044. 62. o -2
3 12 -19 1054. 1044. 62. o 1
4 12 19 422. 546. 136. o 1
4 12 -19 422. 529. 58. o 1
-12 12 -2 1352. 1436. 78. o -3
-7 12 17 1352. 1436. 78. o -2
5 12 19 1352. 1436. 78. o 1
7 12 17 1425. 1646. 140. o -3
12 12 -2 1425. 1646. 140. o -2
5 12 -19 1425. 1646. 140. o 1
6 12 19 4576. 4427. 87. o 1
6 12 -19 4577. 3741. 157. o 1
7 12 19 98. 146. 58. < 1
7 12 -19 98. 321. 138. < 1
8 12 19 3022. 3033. 78. o 1
8 12 -19 3022. 3737. 144. o 1
9 12 19 46. 317. 119. < 1
9 12 -19 46. 340. 119. < 1
10 12 19 1062. 694. 103. o 1
10 12 -19 1062. 789. 117. o 1
2 13 19 1815. 1716. 117. o 1
2 13 -19 1815. 1920. 68. o 1
-11 13 -5 2459. 2145. 117. o -3
-8 13 14 2459. 2145. 117. o -2
3 13 19 2459. 2145. 117. o 1
8 13 14 2562. 2839. 74. o -3
11 13 -5 2562. 2839. 74. o -2
3 13 -19 2562. 2839. 74. o 1
4 13 19 212. 511. 87. o 1
4 13 -19 212. 408. 74. o 1
-12 13 -2 3153. 2243. 86. o -3
-7 13 17 3153. 2243. 86. o -2
5 13 19 3153. 2243. 86. o 1
7 13 17 2895. 3055. 111. o -3
12 13 -2 2895. 3055. 111. o -2
5 13 -19 2895. 3055. 111. o 1
6 13 19 1613. 2035. 97. o 1
6 13 -19 1613. 2936. 198. o 1
8 13 19 1118. 247. 66. o 1
8 13 -19 1118. 1022. 99. o 1
9 13 -19 1267. 1562. 173. o 1
10 13 19 698. 721. 105. o 1
10 13 -19 698. 494. 119. o 1
9 14 11 678. 620. 70. o -3
10 14 -8 678. 620. 70. o -2
1 14 -19 678. 620. 70. o 1
2 14 19 323. 223. 122. < 1
2 14 -19 323. 379. 68. o 1
-11 14 -5 2589. 2499. 119. o -3
-8 14 14 2589. 2499. 119. o -2
3 14 19 2589. 2499. 119. o 1
8 14 14 2590. 2827. 80. o -3
11 14 -5 2590. 2827. 80. o -2
3 14 -19 2590. 2827. 80. o 1
4 14 19 174. -4. 86. < 1
4 14 -19 174. 76. 76. < 1
-12 14 -2 3014. 2975. 87. o -3
-7 14 17 3014. 2975. 87. o -2
5 14 19 3014. 2975. 87. o 1
7 14 17 3207. 3774. 101. o -3
12 14 -2 3207. 3774. 101. o -2
5 14 -19 3207. 3774. 101. o 1
6 14 19 4500. 4852. 122. o 1
6 14 -19 4500. 5966. 266. o 1
7 14 19 3042. 3234. 91. o 1
7 14 -19 3042. 2808. 124. o 1
8 14 19 206. 126. 62. < 1
8 14 -19 206. 325. 117. < 1
9 14 19 769. 923. 132. o 1
9 14 -19 769. 1413. 134. o 1
10 14 19 32. 60. 91. < 1
10 14 -19 32. -196. 111. < 1
11 14 -19 248. 146. 78. < 1
-10 15 -8 8234. 6829. 200. o -3
-9 15 11 8234. 6829. 200. o -2
1 15 19 8234. 6829. 200. o 1
9 15 11 7921. 6461. 115. o -3
10 15 -8 7921. 6461. 115. o -2
1 15 -19 7921. 6461. 115. o 1
2 15 19 313. 247. 122. < 1
2 15 -19 313. 272. 66. o 1
4 15 19 70. 95. 70. < 1
4 15 -19 70. -39. 76. < 1
-12 15 -2 2559. 2528. 99. o -3
-7 15 17 2559. 2528. 99. o -2
5 15 19 2559. 2528. 99. o 1
7 15 17 2455. 2073. 105. o -3
12 15 -2 2455. 2073. 105. o -2
5 15 -19 2455. 2073. 105. o 1
6 15 19 5231. 5408. 124. o 1
6 15 -19 5231. 6362. 266. o 1
8 15 19 614. 600. 93. o 1
8 15 -19 614. 820. 126. o 1
10 15 19 424. 330. 95. o 1
10 15 -19 424. 459. 99. o 1
-10 16 -8 9712. 10239. 241. o -3
-9 16 11 9712. 10239. 241. o -2
1 16 19 9712. 10239. 241. o 1
9 16 11 9770. 9687. 140. o -3
10 16 -8 9770. 9687. 140. o -2
1 16 -19 9770. 9687. 140. o 1
2 16 19 998. 1141. 138. o 1
2 16 -19 998. 1137. 86. o 1
-11 16 -5 3889. 2915. 120. o -3
-8 16 14 3889. 2915. 120. o -2
3 16 19 3889. 2915. 120. o 1
8 16 14 3857. 3830. 93. o -3
11 16 -5 3857. 3830. 93. o -2
3 16 -19 3857. 3830. 93. o 1
4 16 19 207. 346. 87. o 1
4 16 -19 207. 74. 78. < 1
-12 16 -2 4431. 3914. 124. o -3
-7 16 17 4431. 3914. 124. o -2
5 16 19 4431. 3914. 124. o 1
7 16 17 4388. 4491. 159. o -3
12 16 -2 4388. 4491. 159. o -2
5 16 -19 4388. 4491. 159. o 1
6 16 19 1759. 1339. 66. o 1
6 16 -19 1759. 1988. 119. o 1
7 16 19 13624. 16701. 231. o 1
8 16 19 566. 573. 82. o 1
8 16 -19 566. 647. 120. o 1
9 16 19 849. 519. 115. o 1
9 16 -19 849. 428. 119. o 1
10 16 19 1776. 1022. 122. o 1
10 16 -19 1776. 956. 117. o 1
-10 17 -8 582. 659. 115. o -3
-9 17 11 582. 659. 115. o -2
1 17 19 582. 659. 115. o 1
9 17 11 606. 591. 72. o -3
10 17 -8 606. 591. 72. o -2
1 17 -19 606. 591. 72. o 1
2 17 19 2152. 2281. 107. o 1
2 17 -19 2152. 1714. 89. o 1
-11 17 -5 1635. 1543. 148. o -3
-8 17 14 1635. 1543. 148. o -2
3 17 19 1635. 1543. 148. o 1
8 17 14 1768. 1275. 80. o -3
11 17 -5 1768. 1275. 80. o -2
3 17 -19 1768. 1275. 80. o 1
4 17 19 1160. 750. 76. o 1
4 17 -19 1160. 1331. 82. o 1
-12 17 -2 5280. 5328. 124. o -3
-7 17 17 5280. 5328. 124. o -2
5 17 19 5280. 5328. 124. o 1
7 17 17 5202. 4841. 93. o -3
12 17 -2 5202. 4841. 93. o -2
5 17 -19 5202. 4841. 93. o 1
6 17 19 1968. 1712. 68. o 1
7 17 19 1365. 2128. 119. o 1
7 17 -19 1365. 857. 126. o 1
8 17 19 83. 70. 72. < 1
8 17 -19 83. 91. 107. < 1
9 17 19 1575. 614. 150. o 1
9 17 -19 1575. 1576. 124. o 1
10 17 19 268. 157. 89. < 1
10 17 -19 268. 218. 86. < 1
-10 18 -8 1161. 1506. 169. o -3
-9 18 11 1161. 1506. 169. o -2
1 18 19 1161. 1506. 169. o 1
9 18 11 1294. 612. 150. o -3
10 18 -8 1294. 612. 150. o -2
1 18 -19 1294. 612. 150. o 1
2 18 19 27. 124. 119. < 1
2 18 -19 27. -21. 66. < 1
-11 18 -5 2069. 1936. 185. o -3
-8 18 14 2069. 1936. 185. o -2
3 18 19 2069. 1936. 185. o 1
8 18 14 1969. 1067. 95. o -3
11 18 -5 1969. 1067. 95. o -2
3 18 -19 1969. 1067. 95. o 1
4 18 19 414. 488. 78. o 1
4 18 -19 414. 431. 74. o 1
-12 18 -2 2166. 2686. 99. o -3
-7 18 17 2166. 2686. 99. o -2
5 18 19 2166. 2686. 99. o 1
7 18 17 2346. 2246. 99. o -3
12 18 -2 2346. 2246. 99. o -2
5 18 -19 2346. 2246. 99. o 1
6 18 19 95. 185. 126. < 1
7 18 19 721. 1009. 91. o 1
7 18 -19 721. 911. 101. o 1
8 18 19 155. 144. 78. < 1
8 18 -19 155. 301. 99. o 1
9 18 19 387. 301. 120. < 1
9 18 -19 387. 270. 103. < 1
-10 19 -8 735. 632. 111. o -3
-9 19 11 735. 632. 111. o -2
1 19 19 735. 632. 111. o 1
9 19 11 675. 167. 124. < -3
10 19 -8 675. 167. 124. < -2
1 19 -19 675. 167. 124. < 1
2 19 19 268. 80. 126. < 1
2 19 -19 268. 286. 68. o 1
-11 19 -5 1527. 1213. 111. o -3
-8 19 14 1527. 1213. 111. o -2
3 19 19 1527. 1213. 111. o 1
8 19 14 1516. 1424. 68. o -3
11 19 -5 1516. 1424. 68. o -2
3 19 -19 1516. 1424. 68. o 1
4 19 19 913. 797. 78. o 1
4 19 -19 913. 690. 68. o 1
-12 19 -2 2709. 2373. 87. o -3
-7 19 17 2709. 2373. 87. o -2
5 19 19 2709. 2373. 87. o 1
7 19 17 2584. 2606. 95. o -3
12 19 -2 2584. 2606. 95. o -2
5 19 -19 2584. 2606. 95. o 1
6 19 19 116. 25. 113. < 1
7 19 -19 421. 939. 105. o 1
8 19 19 262. 0. 72. < 1
8 19 -19 262. 154. 119. < 1
9 19 19 2018. 1914. 138. o 1
9 19 -19 2018. 1339. 124. o 1
-10 20 -8 4353. 4384. 150. o -3
-9 20 11 4353. 4384. 150. o -2
1 20 19 4353. 4384. 150. o 1
9 20 11 4378. 3609. 148. o -3
10 20 -8 4378. 3609. 148. o -2
1 20 -19 4378. 3609. 148. o 1
2 20 19 216. 10. 134. < 1
2 20 -19 216. 43. 60. < 1
-11 20 -5 2207. 1178. 99. o -3
-8 20 14 2207. 1178. 99. o -2
3 20 19 2207. 1178. 99. o 1
4 20 19 239. 323. 64. o 1
4 20 -19 239. 295. 54. o 1
-12 20 -2 3213. 4232. 134. o -3
-7 20 17 3213. 4232. 134. o -2
5 20 19 3213. 4232. 134. o 1
7 20 17 3602. 3500. 109. o -3
12 20 -2 3602. 3500. 109. o -2
5 20 -19 3602. 3500. 109. o 1
6 20 19 415. 315. 120. < 1
6 20 -19 415. 400. 70. o 1
7 20 19 1705. 806. 95. o 1
7 20 -19 1705. 709. 124. o 1
8 20 19 434. 122. 68. < 1
8 20 -19 434. 202. 91. < 1
-10 21 -8 3667. 3140. 140. o -3
-9 21 11 3667. 3140. 140. o -2
1 21 19 3667. 3140. 140. o 1
9 21 11 3615. 2905. 128. o -3
10 21 -8 3615. 2905. 128. o -2
1 21 -19 3615. 2905. 128. o 1
2 21 19 196. 56. 115. < 1
2 21 -19 196. 86. 54. < 1
-11 21 -5 311. 348. 120. < -3
-8 21 14 311. 348. 120. < -2
3 21 19 311. 348. 120. < 1
8 21 14 284. 148. 58. < -3
11 21 -5 284. 148. 58. < -2
3 21 -19 284. 148. 58. < 1
4 21 19 779. 451. 107. o 1
4 21 -19 779. 705. 60. o 1
-12 21 -2 4148. 3350. 109. o -3
-7 21 17 4148. 3350. 109. o -2
5 21 19 4148. 3350. 109. o 1
6 21 19 678. 651. 115. o 1
6 21 -19 678. 420. 66. o 1
7 21 19 1184. 826. 154. o 1
7 21 -19 1184. 1281. 111. o 1
8 21 19 996. 159. 70. < 1
8 21 -19 996. 196. 103. < 1
-10 22 -8 820. 1007. 136. o -3
-9 22 11 820. 1007. 136. o -2
1 22 19 820. 1007. 136. o 1
9 22 11 832. 731. 111. o -3
10 22 -8 832. 731. 111. o -2
1 22 -19 832. 731. 111. o 1
2 22 19 10. -202. 117. < 1
2 22 -19 10. 119. 52. < 1
-11 22 -5 1137. 727. 126. o -3
-8 22 14 1137. 727. 126. o -2
3 22 19 1137. 727. 126. o 1
8 22 14 1069. 515. 56. o -3
11 22 -5 1069. 515. 56. o -2
3 22 -19 1069. 515. 56. o 1
4 22 19 45. -29. 74. < 1
4 22 -19 45. 19. 56. < 1
-12 22 -2 4780. 3651. 117. o -3
-7 22 17 4780. 3651. 117. o -2
5 22 19 4780. 3651. 117. o 1
7 22 17 4893. 4724. 111. o -3
12 22 -2 4893. 4724. 111. o -2
5 22 -19 4893. 4724. 111. o 1
6 22 19 821. 602. 111. o 1
6 22 -19 821. 251. 82. o 1
7 22 19 478. 280. 95. < 1
-10 23 -8 1547. 1207. 136. o -3
-9 23 11 1547. 1207. 136. o -2
1 23 19 1547. 1207. 136. o 1
9 23 11 1553. 696. 109. o -3
10 23 -8 1553. 696. 109. o -2
1 23 -19 1553. 696. 109. o 1
2 23 19 19. -8. 111. < 1
2 23 -19 19. 101. 51. < 1
-11 23 -5 866. 900. 124. o -3
-8 23 14 866. 900. 124. o -2
3 23 19 866. 900. 124. o 1
8 23 14 799. 525. 62. o -3
11 23 -5 799. 525. 62. o -2
3 23 -19 799. 525. 62. o 1
4 23 19 251. 142. 70. < 1
4 23 -19 251. 167. 60. < 1
-12 23 -2 4889. 4357. 159. o -3
-7 23 17 4889. 4357. 159. o -2
5 23 19 4889. 4357. 159. o 1
6 23 19 496. 369. 93. o 1
6 23 -19 496. 249. 68. o 1
-10 24 -8 2811. 2454. 150. o -3
-9 24 11 2811. 2454. 150. o -2
1 24 19 2811. 2454. 150. o 1
2 24 19 253. 130. 113. < 1
2 24 -19 253. 142. 52. < 1
-11 24 -5 2184. 960. 130. o -3
-8 24 14 2184. 960. 130. o -2
3 24 19 2184. 960. 130. o 1
8 24 14 2083. 1335. 78. o -3
11 24 -5 2083. 1335. 78. o -2
3 24 -19 2083. 1335. 78. o 1
4 24 19 447. 150. 72. < 1
4 24 -19 447. 286. 64. o 1
-12 24 -2 1410. 818. 109. o -3
-7 24 17 1410. 818. 109. o -2
5 24 19 1410. 818. 109. o 1
7 24 17 1491. 1106. 80. o -3
12 24 -2 1491. 1106. 80. o -2
5 24 -19 1491. 1106. 80. o 1
2 25 19 2544. 1038. 124. o 1
2 25 -19 2544. 1533. 128. o 1
-11 25 -5 4275. 3768. 167. o -3
-8 25 14 4275. 3768. 167. o -2
3 25 19 4275. 3768. 167. o 1
4 25 19 305. 225. 66. o 1
4 25 -19 305. 223. 54. o 1
-11 26 -5 2205. 1601. 113. o -3
-8 26 14 2205. 1601. 113. o -2
3 26 19 2205. 1601. 113. o 1
2 0 -20 629. 113. 87. < 1
8 0 16 35178. 38734. 589. o -3
12 0 -4 35178. 38734. 589. o -2
4 0 -20 35178. 38734. 589. o 1
6 0 -20 889. 1143. 163. o 1
10 1 10 213. 56. 80. < -3
10 1 -10 213. 56. 80. < -2
0 1 -20 213. 56. 80. < 1
1 1 -20 323. 336. 84. o 1
9 1 13 4570. 4466. 105. o -3
11 1 -7 4570. 4466. 105. o -2
2 1 -20 4570. 4466. 105. o 1
3 1 -20 134. 23. 80. < 1
8 1 16 133. 204. 107. < -3
12 1 -4 133. 204. 107. < -2
4 1 -20 133. 204. 107. < 1
5 1 -20 83. 231. 109. < 1
6 1 -20 21181. 24715. 280. o 1
7 1 -20 115. 19. 154. < 1
8 1 -20 388. 803. 150. o 1
10 2 10 3906. 4291. 113. o -3
10 2 -10 3906. 4291. 113. o -2
0 2 -20 3906. 4291. 113. o 1
1 2 -20 363. 297. 56. o 1
9 2 13 1001. 773. 80. o -3
11 2 -7 1001. 773. 80. o -2
2 2 -20 1001. 773. 80. o 1
3 2 -20 75. 148. 84. < 1
8 2 16 4478. 4668. 146. o -3
12 2 -4 4478. 4668. 146. o -2
4 2 -20 4478. 4668. 146. o 1
5 2 -20 2773. 3306. 132. o 1
6 2 -20 390. 762. 93. o 1
7 2 -20 521. 585. 84. o 1
8 2 -20 4605. 5307. 245. o 1
10 3 10 141. 268. 82. o -3
10 3 -10 141. 268. 82. o -2
0 3 -20 141. 268. 82. o 1
1 3 -20 3273. 3760. 66. o 1
9 3 13 1219. 987. 60. o -3
11 3 -7 1219. 987. 60. o -2
2 3 -20 1219. 987. 60. o 1
3 3 -20 182. 126. 70. < 1
8 3 16 68. 58. 82. < -3
12 3 -4 68. 58. 82. < -2
4 3 -20 68. 58. 82. < 1
5 3 -20 636. 661. 87. o 1
6 3 -20 1013. 1776. 99. o 1
7 3 -20 901. 925. 78. o 1
8 3 -20 239. 906. 138. o 1
9 3 -20 1055. 995. 142. o 1
10 4 10 13696. 12694. 198. o -3
10 4 -10 13696. 12694. 198. o -2
0 4 -20 13696. 12694. 198. o 1
1 4 -20 398. 443. 52. o 1
9 4 13 1271. 958. 62. o -3
11 4 -7 1271. 958. 62. o -2
2 4 -20 1271. 958. 62. o 1
3 4 -20 2230. 1842. 64. o 1
8 4 16 52613. 57245. 418. o -3
12 4 -4 52613. 57245. 418. o -2
4 4 -20 52613. 57245. 418. o 1
5 4 -20 1710. 2005. 119. o 1
6 4 -20 1144. 1840. 105. o 1
7 4 -20 798. 993. 84. o 1
9 4 -20 5299. 6978. 187. o 1
10 5 10 159. -820. 56. < -3
10 5 -10 159. -820. 56. < -2
0 5 -20 159. -820. 56. < 1
1 5 -20 365. 534. 70. o 1
9 5 13 417. 684. 70. o -3
11 5 -7 417. 684. 70. o -2
2 5 -20 417. 684. 70. o 1
3 5 -20 4026. 3855. 84. o 1
8 5 16 206. 148. 101. < -3
12 5 -4 206. 148. 101. < -2
4 5 -20 206. 148. 101. < 1
5 5 -20 114. 105. 120. < 1
6 5 -20 3083. 3123. 140. o 1
7 5 -20 708. 952. 119. o 1
8 5 -20 228. 602. 105. o 1
9 5 20 554. 523. 124. o 1
9 5 -20 554. 581. 117. o 1
10 6 10 24049. 25511. 340. o -3
10 6 -10 24049. 25511. 340. o -2
0 6 -20 24049. 25511. 340. o 1
1 6 -20 115. -45. 84. < 1
9 6 13 686. 639. 49. o -3
11 6 -7 686. 639. 49. o -2
2 6 -20 686. 639. 49. o 1
3 6 -20 241. 237. 76. o 1
8 6 16 163716. 190784. 529. o -3
12 6 -4 163716. 190784. 529. o -2
4 6 -20 163716. 190784. 529. o 1
5 6 -20 261. 330. 78. o 1
6 6 -20 442. 775. 87. o 1
7 6 -20 453. 564. 150. o 1
9 6 20 292. 222. 99. < 1
9 6 -20 292. 161. 97. < 1
10 7 10 312. 398. 52. o -3
10 7 -10 312. 398. 52. o -2
0 7 -20 312. 398. 52. o 1
1 7 -20 559. 567. 76. o 1
9 7 13 1619. 1487. 56. o -3
11 7 -7 1619. 1487. 56. o -2
2 7 -20 1619. 1487. 56. o 1
3 7 -20 1134. 1378. 54. o 1
8 7 16 393. 426. 54. o -3
12 7 -4 393. 426. 54. o -2
4 7 -20 393. 426. 54. o 1
5 7 -20 1246. 1360. 80. o 1
7 7 -20 828. 1028. 126. o 1
8 7 -20 101. 632. 173. o 1
9 7 20 327. -29. 130. < 1
9 7 -20 327. 379. 111. o 1
10 7 20 3067. 1405. 171. o 1
10 8 10 52960. 57844. 410. o -3
10 8 -10 52960. 57844. 410. o -2
0 8 -20 52960. 57844. 410. o 1
1 8 -20 470. 645. 89. o 1
9 8 13 1177. 1160. 54. o -3
11 8 -7 1177. 1160. 54. o -2
2 8 -20 1177. 1160. 54. o 1
3 8 -20 2775. 3033. 78. o 1
8 8 16 62946. 71332. 389. o -3
12 8 -4 62946. 71332. 389. o -2
4 8 -20 62946. 71332. 389. o 1
5 8 -20 1352. 1158. 91. o 1
6 8 -20 1189. 1566. 99. o 1
7 8 -20 265. 122. 136. < 1
9 8 20 902. 684. 87. o 1
9 8 -20 902. 486. 119. o 1
10 8 20 541. 420. 138. o 1
10 8 -20 541. 740. 107. o 1
10 9 10 120. -152. 66. < -3
10 9 -10 120. -152. 66. < -2
0 9 -20 120. -152. 66. < 1
1 9 -20 293. 212. 87. < 1
9 9 13 4614. 4528. 89. o -3
11 9 -7 4614. 4528. 89. o -2
2 9 -20 4614. 4528. 89. o 1
3 9 -20 384. 591. 66. o 1
8 9 16 460. 202. 60. o -3
12 9 -4 460. 202. 60. o -2
4 9 -20 460. 202. 60. o 1
5 9 -20 1178. 1296. 95. o 1
6 9 -20 3255. 3904. 111. o 1
7 9 -20 96. 293. 132. < 1
8 9 20 92. 97. 62. < 1
8 9 -20 92. 163. 97. < 1
9 9 20 302. 181. 80. < 1
9 9 -20 302. 597. 122. o 1
10 9 -20 553. 1020. 111. o 1
10 10 10 66100. 73934. 451. o -3
10 10 -10 66100. 73934. 451. o -2
0 10 -20 66100. 73934. 451. o 1
1 10 -20 3167. 2977. 78. o 1
9 10 13 1373. 1053. 60. o -3
11 10 -7 1373. 1053. 60. o -2
2 10 -20 1373. 1053. 60. o 1
3 10 -20 473. 546. 56. o 1
8 10 16 59067. 69851. 369. o -3
12 10 -4 59067. 69851. 369. o -2
4 10 -20 59067. 69851. 369. o 1
5 10 -20 10149. 12352. 272. o 1
7 10 20 2658. 2767. 163. o 1
7 10 -20 2658. 2724. 175. o 1
9 10 20 6100. 5431. 136. o 1
9 10 -20 6100. 8733. 262. o 1
10 10 -20 279. 373. 111. o 1
1 11 -20 617. 663. 54. o 1
-11 11 -7 4106. 4578. 173. o -3
-9 11 13 4106. 4578. 173. o -2
2 11 20 4106. 4578. 173. o 1
9 11 13 4060. 3776. 78. o -3
11 11 -7 4060. 3776. 78. o -2
2 11 -20 4060. 3776. 78. o 1
3 11 20 942. 954. 132. o 1
3 11 -20 942. 913. 51. o 1
8 11 16 303. 109. 86. < -3
12 11 -4 303. 109. 86. < -2
4 11 -20 303. 109. 86. < 1
5 11 -20 362. 476. 130. o 1
6 11 -20 2443. 3368. 200. o 1
7 11 20 257. 107. 68. < 1
7 11 -20 257. 188. 132. < 1
8 11 20 43. 25. 66. < 1
8 11 -20 43. -140. 126. < 1
9 11 20 109. 115. 78. < 1
9 11 -20 109. -124. 119. < 1
10 11 20 4002. 2827. 150. o 1
10 11 -20 4002. 1924. 202. o 1
1 12 -20 1295. 1183. 62. o 1
-11 12 -7 448. 177. 115. < -3
-9 12 13 448. 177. 115. < -2
2 12 20 448. 177. 115. < 1
9 12 13 399. 86. 45. < -3
11 12 -7 399. 86. 45. < -2
2 12 -20 399. 86. 45. < 1
3 12 20 718. 507. 124. o 1
3 12 -20 718. 690. 68. o 1
-12 12 -4 77229. 87255. 501. o -3
-8 12 16 77229. 87255. 501. o -2
4 12 20 77229. 87255. 501. o 1
8 12 16 77029. 93390. 447. o -3
12 12 -4 77029. 93390. 447. o -2
4 12 -20 77029. 93390. 447. o 1
5 12 20 1701. 1632. 72. o 1
5 12 -20 1701. 1564. 120. o 1
6 12 20 196. 367. 68. o 1
6 12 -20 196. 117. 115. < 1
7 12 20 1157. 869. 52. o 1
7 12 -20 1157. 1211. 91. o 1
9 12 20 828. 1022. 120. o 1
9 12 -20 828. 1086. 130. o 1
10 12 20 260. 130. 95. < 1
10 12 -20 260. 136. 101. < 1
1 13 -20 1424. 1397. 70. o 1
-11 13 -7 6037. 5614. 222. o -3
-9 13 13 6037. 5614. 222. o -2
2 13 20 6037. 5614. 222. o 1
9 13 13 6113. 5156. 95. o -3
11 13 -7 6113. 5156. 95. o -2
2 13 -20 6113. 5156. 95. o 1
3 13 20 1512. 1627. 103. o 1
3 13 -20 1512. 1522. 76. o 1
-12 13 -4 340. 303. 95. o -3
-8 13 16 340. 303. 95. o -2
4 13 20 340. 303. 95. o 1
8 13 16 348. 258. 76. o -3
12 13 -4 348. 258. 76. o -2
4 13 -20 348. 258. 76. o 1
5 13 20 166. 171. 87. < 1
5 13 -20 166. 291. 64. o 1
6 13 20 12152. 13615. 165. o 1
6 13 -20 12152. 15939. 336. o 1
7 13 20 2046. 1860. 58. o 1
7 13 -20 2046. 1702. 113. o 1
8 13 20 8. 103. 66. < 1
8 13 -20 8. 128. 119. < 1
9 13 20 196. 37. 107. < 1
9 13 -20 196. 375. 115. o 1
10 13 20 64. 192. 99. < 1
10 13 -20 64. 134. 93. < 1
1 14 -20 1087. 964. 76. o 1
-11 14 -7 1475. 859. 130. o -3
-9 14 13 1475. 859. 130. o -2
2 14 20 1475. 859. 130. o 1
9 14 13 1487. 1003. 60. o -3
11 14 -7 1487. 1003. 60. o -2
2 14 -20 1487. 1003. 60. o 1
3 14 20 3061. 2625. 124. o 1
3 14 -20 3061. 3686. 91. o 1
-12 14 -4 7221. 8341. 165. o -3
-8 14 16 7221. 8341. 165. o -2
4 14 20 7221. 8341. 165. o 1
5 14 20 223. -76. 91. < 1
5 14 -20 223. 95. 62. < 1
7 14 20 30. 27. 80. < 1
7 14 -20 30. 58. 105. < 1
8 14 20 3739. 4172. 119. o 1
8 14 -20 3739. 2330. 161. o 1
9 14 20 849. 412. 120. o 1
9 14 -20 849. 806. 122. o 1
10 14 20 141. 286. 89. o 1
10 14 -20 141. 101. 89. < 1
1 15 -20 501. 402. 74. o 1
-11 15 -7 6283. 5651. 169. o -3
-9 15 13 6283. 5651. 169. o -2
2 15 20 6283. 5651. 169. o 1
3 15 20 2801. 3521. 159. o 1
3 15 -20 2801. 2901. 105. o 1
-12 15 -4 228. 126. 86. < -3
-8 15 16 228. 126. 86. < -2
4 15 20 228. 126. 86. < 1
8 15 16 228. 144. 76. < -3
12 15 -4 228. 144. 76. < -2
4 15 -20 228. 144. 76. < 1
5 15 20 1228. 338. 95. o 1
5 15 -20 1228. 1218. 97. o 1
7 15 20 1296. 843. 138. o 1
7 15 -20 1296. 1234. 115. o 1
8 15 20 678. 420. 82. o 1
8 15 -20 678. 167. 117. < 1
9 15 20 446. 150. 107. < 1
9 15 -20 446. 115. 103. < 1
10 15 20 490. 565. 105. o 1
10 15 -20 490. 338. 117. < 1
1 16 -20 5793. 6939. 144. o 1
-11 16 -7 4997. 5989. 212. o -3
-9 16 13 4997. 5989. 212. o -2
2 16 20 4997. 5989. 212. o 1
9 16 13 4925. 4720. 105. o -3
11 16 -7 4925. 4720. 105. o -2
2 16 -20 4925. 4720. 105. o 1
3 16 20 946. 1290. 126. o 1
3 16 -20 946. 1067. 80. o 1
-12 16 -4 54488. 54754. 410. o -3
-8 16 16 54488. 54754. 410. o -2
4 16 20 54488. 54754. 410. o 1
8 16 16 54189. 55920. 503. o -3
12 16 -4 54189. 55920. 503. o -2
4 16 -20 54189. 55920. 503. o 1
5 16 -20 6189. 6358. 103. o 1
7 16 20 8315. 7272. 144. o 1
7 16 -20 8315. 7044. 188. o 1
8 16 -20 2098. 3317. 185. o 1
9 16 20 2067. 575. 142. o 1
9 16 -20 2067. 1939. 130. o 1
1 17 20 264. 192. 103. < 1
1 17 -20 264. 101. 66. < 1
3 17 20 1201. 1652. 183. o 1
3 17 -20 1200. 880. 86. o 1
-12 17 -4 245. 185. 86. < -3
-8 17 16 245. 185. 86. < -2
4 17 20 245. 185. 86. < 1
8 17 16 226. 264. 74. o -3
12 17 -4 226. 264. 74. o -2
4 17 -20 226. 264. 74. o 1
5 17 20 553. 600. 89. o 1
5 17 -20 553. 589. 68. o 1
7 17 20 2231. 1533. 99. o 1
7 17 -20 2231. 1446. 109. o 1
8 17 20 33. 122. 82. < 1
8 17 -20 33. 220. 113. < 1
9 17 20 117. 274. 91. o 1
9 17 -20 117. 10. 91. < 1
1 18 20 328. 251. 113. < 1
1 18 -20 328. 130. 103. < 1
-11 18 -7 897. 791. 138. o -3
-9 18 13 897. 791. 138. o -2
2 18 20 897. 791. 138. o 1
9 18 13 885. 394. 72. o -3
11 18 -7 885. 394. 72. o -2
2 18 -20 885. 394. 72. o 1
3 18 20 1699. 1994. 128. o 1
3 18 -20 1699. 1634. 72. o 1
-12 18 -4 62375. 64637. 461. o -3
-8 18 16 62375. 64637. 461. o -2
4 18 20 62375. 64637. 461. o 1
8 18 16 63369. 56899. 437. o -3
12 18 -4 63369. 56899. 437. o -2
4 18 -20 63369. 56899. 437. o 1
5 18 20 2267. 2233. 115. o 1
5 18 -20 2267. 2147. 76. o 1
6 18 20 239. 544. 86. o 1
7 18 20 620. 398. 80. o 1
7 18 -20 620. 511. 87. o 1
8 18 20 2478. 1605. 109. o 1
8 18 -20 2478. 1726. 161. o 1
1 19 20 214. 126. 115. < 1
1 19 -20 214. 107. 99. < 1
-11 19 -7 674. 554. 130. o -3
-9 19 13 674. 554. 130. o -2
2 19 20 674. 554. 130. o 1
9 19 13 664. 377. 62. o -3
11 19 -7 664. 377. 62. o -2
2 19 -20 664. 377. 62. o 1
3 19 20 1914. 2073. 115. o 1
3 19 -20 1914. 1700. 78. o 1
-12 19 -4 160. 169. 84. < -3
-8 19 16 160. 169. 84. < -2
4 19 20 160. 169. 84. < 1
8 19 16 160. 6. 56. < -3
12 19 -4 160. 6. 56. < -2
4 19 -20 160. 6. 56. < 1
5 19 20 572. 348. 82. o 1
5 19 -20 572. 488. 56. o 1
6 19 20 2348. 2272. 142. o 1
7 19 20 792. 262. 76. o 1
7 19 -20 792. 393. 101. o 1
8 19 20 182. 51. 64. < 1
8 19 -20 182. 144. 101. < 1
1 20 20 798. 682. 120. o 1
1 20 -20 798. 805. 115. o 1
-11 20 -7 2063. 1382. 142. o -3
-9 20 13 2063. 1382. 142. o -2
2 20 20 2063. 1382. 142. o 1
3 20 20 805. 645. 124. o 1
3 20 -20 805. 511. 60. o 1
-12 20 -4 5824. 5556. 132. o -3
-8 20 16 5824. 5556. 132. o -2
4 20 20 5824. 5556. 132. o 1
8 20 16 5803. 4755. 97. o -3
12 20 -4 5803. 4755. 97. o -2
4 20 -20 5803. 4755. 97. o 1
5 20 20 291. 154. 76. < 1
5 20 -20 291. 148. 78. < 1
6 20 20 287. 1026. 124. o 1
6 20 -20 287. 377. 76. o 1
7 20 20 557. 95. 107. < 1
10 21 10 340. 288. 89. o -3
10 21 -10 340. 288. 89. o -2
0 21 -20 340. 288. 89. o 1
1 21 20 79. 105. 113. < 1
1 21 -20 79. -21. 99. < 1
-11 21 -7 1449. 1788. 144. o -3
-9 21 13 1449. 1788. 144. o -2
2 21 20 1449. 1788. 144. o 1
9 21 13 1508. 1176. 66. o -3
11 21 -7 1508. 1176. 66. o -2
2 21 -20 1508. 1176. 66. o 1
3 21 20 94. 249. 117. < 1
3 21 -20 94. 134. 54. < 1
-12 21 -4 535. 257. 84. o -3
-8 21 16 535. 257. 84. o -2
4 21 20 535. 257. 84. o 1
8 21 16 534. 387. 54. o -3
12 21 -4 534. 387. 54. o -2
4 21 -20 534. 387. 54. o 1
5 21 20 724. 369. 78. o 1
5 21 -20 724. 814. 78. o 1
6 21 20 1810. 766. 163. o 1
6 21 -20 1810. 1403. 97. o 1
7 21 20 518. 72. 95. < 1
1 22 20 2326. 1605. 142. o 1
1 22 -20 2326. 1597. 124. o 1
-11 22 -7 555. 501. 117. o -3
-9 22 13 555. 501. 117. o -2
2 22 20 555. 501. 117. o 1
9 22 13 598. 325. 54. o -3
11 22 -7 598. 325. 54. o -2
2 22 -20 598. 325. 54. o 1
3 22 20 27. -130. 119. < 1
3 22 -20 27. -10. 54. < 1
6 22 20 132. 670. 103. o 1
6 22 -20 132. 365. 66. o 1
-10 23 -10 555. 358. 105. o -3
-10 23 10 555. 358. 105. o -2
0 23 20 555. 358. 105. o 1
10 23 10 555. 455. 93. o -3
10 23 -10 555. 455. 93. o -2
0 23 -20 555. 455. 93. o 1
1 23 20 868. 630. 120. o 1
1 23 -20 868. 519. 95. o 1
-11 23 -7 2351. 775. 150. o -3
-9 23 13 2351. 775. 150. o -2
2 23 20 2351. 775. 150. o 1
3 23 20 2578. 1936. 138. o 1
-12 23 -4 685. 468. 74. o -3
-8 23 16 685. 468. 74. o -2
4 23 20 685. 468. 74. o 1
8 23 16 696. 369. 70. o -3
12 23 -4 696. 369. 70. o -2
4 23 -20 696. 369. 70. o 1
-10 24 -10 28407. 26098. 482. o -3
-10 24 10 28407. 26098. 482. o -2
0 24 20 28407. 26098. 482. o 1
1 24 20 1365. 381. 113. o 1
1 24 -20 1365. 515. 132. o 1
-11 24 -7 1311. 1386. 132. o -3
-9 24 13 1311. 1386. 132. o -2
2 24 20 1311. 1386. 132. o 1
9 24 13 1321. 632. 64. o -3
11 24 -7 1321. 632. 64. o -2
2 24 -20 1321. 632. 64. o 1
3 24 20 2644. 511. 146. o 1
-12 24 -4 27437. 25990. 303. o -3
-8 24 16 27437. 25990. 303. o -2
4 24 20 27437. 25990. 303. o 1
8 24 16 27550. 26874. 305. o -3
12 24 -4 27550. 26874. 305. o -2
4 24 -20 27550. 26874. 305. o 1
-10 25 -10 445. 70. 95. < -3
-10 25 10 445. 70. 95. < -2
0 25 20 445. 70. 95. < 1
10 25 10 445. 218. 86. < -3
10 25 -10 445. 218. 86. < -2
0 25 -20 445. 218. 86. < 1
10 1 12 141. 307. 84. o -3
11 1 -9 141. 307. 84. o -2
1 1 -21 141. 307. 84. o 1
2 1 -21 1012. 1230. 84. o 1
4 1 -21 1267. 1290. 163. o 1
6 1 -21 2661. 3111. 155. o 1
7 1 -21 159. 223. 161. < 1
10 2 12 3448. 3123. 97. o -3
11 2 -9 3448. 3123. 97. o -2
1 2 -21 3448. 3123. 97. o 1
2 2 -21 674. 754. 82. o 1
3 2 -21 26. 268. 64. o 1
4 2 -21 4265. 3552. 190. o 1
5 2 -21 893. 600. 161. o 1
6 2 -21 36. 93. 157. < 1
7 2 -21 508. 884. 167. o 1
8 2 -21 1078. 1075. 157. o 1
10 3 12 1717. 16. 58. < -3
11 3 -9 1717. 16. 58. < -2
1 3 -21 1717. 16. 58. < 1
2 3 -21 807. 748. 58. o 1
4 3 -21 4006. 3461. 154. o 1
6 3 -21 894. 1277. 84. o 1
7 3 -21 1151. 2639. 192. o 1
8 3 -21 365. 754. 150. o 1
9 3 -21 726. 1281. 130. o 1
10 4 12 1543. 1321. 66. o -3
11 4 -9 1543. 1321. 66. o -2
1 4 -21 1543. 1321. 66. o 1
2 4 -21 466. 416. 70. o 1
3 4 -21 1136. 1376. 60. o 1
5 4 -21 1124. 1792. 113. o 1
6 4 -21 4151. 4427. 148. o 1
7 4 -21 365. 773. 115. o 1
8 4 -21 1671. 1102. 128. o 1
9 4 -21 163. 383. 134. < 1
10 5 12 2315. 2058. 82. o -3
11 5 -9 2315. 2058. 82. o -2
1 5 -21 2315. 2058. 82. o 1
2 5 -21 602. 564. 78. o 1
6 5 -21 911. 962. 87. o 1
8 5 -21 1674. 1757. 122. o 1
9 5 21 617. 1510. 216. o 1
9 5 -21 617. 1454. 181. o 1
10 6 12 834. 820. 80. o -3
11 6 -9 834. 820. 80. o -2
1 6 -21 834. 820. 80. o 1
2 6 -21 5497. 6224. 103. o 1
4 6 -21 791. 838. 72. o 1
5 6 -21 699. 1374. 132. o 1
6 6 -21 4232. 3546. 144. o 1
8 6 -21 10392. 11405. 223. o 1
9 6 21 109. 152. 119. < 1
9 6 -21 109. 87. 101. < 1
10 6 21 2796. 1098. 155. o 1
10 6 -21 2796. 2664. 161. o 1
10 7 12 2210. 2038. 91. o -3
11 7 -9 2210. 2038. 91. o -2
1 7 -21 2210. 2038. 91. o 1
2 7 -21 3541. 4225. 87. o 1
4 7 -21 692. 771. 68. o 1
6 7 -21 3497. 4985. 216. o 1
8 7 -21 3096. 3727. 146. o 1
9 7 21 280. 321. 82. o 1
9 7 -21 280. 461. 126. o 1
10 7 21 2512. 1739. 154. o 1
10 7 -21 2512. 2524. 159. o 1
10 8 12 841. 781. 64. o -3
11 8 -9 841. 781. 64. o -2
1 8 -21 841. 781. 64. o 1
2 8 -21 485. 509. 60. o 1
3 8 -21 2977. 2952. 72. o 1
4 8 -21 2203. 2602. 82. o 1
5 8 -21 1482. 1479. 82. o 1
7 8 -21 1643. 2653. 179. o 1
8 8 21 1939. 1895. 80. o 1
8 8 -21 1939. 2042. 132. o 1
9 8 21 2046. 2042. 105. o 1
9 8 -21 2046. 1848. 144. o 1
10 8 -21 261. 198. 91. < 1
10 9 12 1696. 1137. 64. o -3
11 9 -9 1696. 1137. 64. o -2
1 9 -21 1696. 1137. 64. o 1
2 9 -21 1026. 1215. 62. o 1
4 9 -21 1209. 1358. 74. o 1
5 9 -21 564. 1178. 97. o 1
6 9 -21 2055. 2482. 206. o 1
7 9 -21 1163. 1685. 111. o 1
8 9 21 167. 159. 70. < 1
8 9 -21 167. 183. 134. < 1
9 9 -21 286. 1131. 140. o 1
10 9 -21 699. 323. 99. o 1
10 10 12 2052. 1267. 91. o -3
11 10 -9 2052. 1267. 91. o -2
1 10 -21 2052. 1267. 91. o 1
2 10 -21 1139. 1230. 62. o 1
4 10 -21 1728. 2004. 74. o 1
6 10 -21 1313. 1236. 130. o 1
7 10 21 820. 1069. 64. o 1
7 10 -21 820. 851. 105. o 1
8 10 21 850. 748. 74. o 1
8 10 -21 850. 995. 132. o 1
9 10 21 1375. 1386. 97. o 1
9 10 -21 1375. 1858. 144. o 1
10 10 -21 1994. 1133. 136. o 1
10 11 12 4540. 4054. 124. o -3
11 11 -9 4540. 4054. 124. o -2
1 11 -21 4540. 4054. 124. o 1
2 11 -21 1931. 1986. 72. o 1
3 11 21 2768. 4199. 159. o 1
3 11 -21 2768. 3403. 78. o 1
4 11 21 2128. 1749. 105. o 1
4 11 -21 2128. 2520. 76. o 1
6 11 21 1219. 1191. 70. o 1
6 11 -21 1219. -173. 177. < 1
7 11 -21 271. 694. 103. o 1
8 11 21 649. 826. 70. o 1
8 11 -21 649. 812. 122. o 1
9 11 21 663. 826. 87. o 1
9 11 -21 663. 1114. 128. o 1
10 11 21 55. 43. 86. < 1
10 11 -21 55. -138. 89. < 1
10 12 12 5381. 4271. 115. o -3
11 12 -9 5381. 4271. 115. o -2
1 12 -21 5381. 4271. 115. o 1
2 12 -21 1572. 1856. 66. o 1
3 12 21 1076. 1290. 150. o 1
3 12 -21 1076. 1251. 58. o 1
4 12 21 6290. 7316. 177. o 1
4 12 -21 6290. 7402. 136. o 1
5 12 21 3791. 4621. 107. o 1
5 12 -21 3791. 2561. 115. o 1
6 12 21 1069. 1300. 64. o 1
6 12 -21 1069. 702. 117. o 1
7 12 21 2828. 2855. 64. o 1
7 12 -21 2828. 3100. 140. o 1
8 12 21 888. 680. 68. o 1
8 12 -21 888. 717. 124. o 1
9 12 21 243. 377. 109. o 1
9 12 -21 243. 216. 119. < 1
10 12 21 2270. 1469. 117. o 1
10 12 -21 2270. 1586. 140. o 1
10 13 12 3079. 3119. 101. o -3
11 13 -9 3079. 3119. 101. o -2
1 13 -21 3079. 3119. 101. o 1
2 13 21 1452. 1733. 169. o 1
2 13 -21 1452. 1366. 56. o 1
3 13 21 721. 1152. 146. o 1
3 13 -21 721. 1267. 78. o 1
4 13 21 1209. 1512. 132. o 1
4 13 -21 1209. 1413. 78. o 1
6 13 21 1207. 1261. 56. o 1
6 13 -21 1207. 1327. 115. o 1
7 13 21 158. 536. 58. o 1
7 13 -21 158. 109. 115. < 1
8 13 21 473. 412. 66. o 1
8 13 -21 473. 655. 115. o 1
9 13 21 343. 325. 109. < 1
9 13 -21 343. 315. 113. < 1
10 13 21 209. 14. 84. < 1
10 13 -21 209. 315. 93. o 1
10 14 12 774. 334. 74. o -3
11 14 -9 774. 334. 74. o -2
1 14 -21 774. 334. 74. o 1
2 14 21 2876. 2886. 212. o 1
2 14 -21 2876. 3414. 95. o 1
4 14 21 2605. 3276. 148. o 1
4 14 -21 2605. 1654. 99. o 1
5 14 21 1161. 1401. 80. o 1
5 14 -21 1161. 1529. 68. o 1
6 14 21 401. 272. 54. o 1
7 14 21 417. 587. 68. o 1
7 14 -21 417. 692. 111. o 1
8 14 21 522. 589. 82. o 1
8 14 -21 522. 614. 109. o 1
9 14 21 785. 474. 109. o 1
9 14 -21 785. 208. 119. < 1
10 15 12 4760. 5066. 155. o -3
11 15 -9 4760. 5066. 155. o -2
1 15 -21 4760. 5066. 155. o 1
2 15 21 3542. 4013. 253. o 1
2 15 -21 3542. 4034. 97. o 1
3 15 21 3152. 4339. 165. o 1
4 15 21 1454. 1395. 80. o 1
4 15 -21 1454. 1337. 78. o 1
5 15 21 6721. 6588. 124. o 1
5 15 -21 6721. 6566. 107. o 1
6 15 21 411. 472. 72. o 1
7 15 21 2569. 2688. 86. o 1
7 15 -21 2569. 2450. 134. o 1
8 15 21 738. 196. 84. < 1
8 15 -21 738. 762. 115. o 1
9 15 21 264. 317. 115. < 1
9 15 -21 264. 853. 117. o 1
10 16 12 2249. 2091. 111. o -3
11 16 -9 2249. 2091. 111. o -2
1 16 -21 2249. 2091. 111. o 1
2 16 21 194. 484. 99. o 1
2 16 -21 194. 68. 70. < 1
4 16 21 1489. 1053. 87. o 1
4 16 -21 1489. 1623. 76. o 1
5 16 21 6141. 5365. 115. o 1
5 16 -21 6141. 6796. 120. o 1
6 16 21 1439. 1356. 93. o 1
7 16 21 1546. 2278. 109. o 1
7 16 -21 1546. 1489. 122. o 1
8 16 21 1477. 717. 91. o 1
8 16 -21 1477. 1321. 120. o 1
9 16 21 240. 311. 97. o 1
9 16 -21 240. 86. 99. < 1
10 17 12 1531. 702. 72. o -3
11 17 -9 1531. 702. 72. o -2
1 17 -21 1531. 702. 72. o 1
2 17 21 59. -49. 117. < 1
2 17 -21 59. 99. 68. < 1
3 17 21 1479. 1407. 117. o 1
3 17 -21 1479. 1238. 84. o 1
4 17 21 997. 1009. 91. o 1
4 17 -21 997. 913. 66. o 1
6 17 21 1428. 1422. 93. o 1
7 17 21 162. 431. 76. o 1
7 17 -21 162. 270. 99. < 1
8 17 21 1299. 470. 84. o 1
8 17 -21 1299. 1329. 119. o 1
10 18 12 1424. 334. 136. < -3
11 18 -9 1424. 334. 136. < -2
1 18 -21 1424. 334. 136. < 1
2 18 21 1514. 1531. 113. o 1
2 18 -21 1514. 1360. 68. o 1
3 18 21 926. 929. 126. o 1
3 18 -21 926. 991. 72. o 1
4 18 21 529. 315. 89. o 1
4 18 -21 529. 313. 62. o 1
5 18 21 103. 499. 82. o 1
5 18 -21 103. -31. 64. < 1
6 18 21 51. 107. 76. < 1
7 18 21 635. 569. 76. o 1
7 18 -21 635. 492. 91. o 1
8 18 21 1043. 212. 78. < 1
8 18 -21 1043. 326. 105. o 1
-11 19 -9 2723. 3801. 173. o -3
-10 19 12 2723. 3801. 173. o -2
1 19 21 2723. 3801. 173. o 1
10 19 12 2948. 1370. 130. o -3
11 19 -9 2948. 1370. 130. o -2
1 19 -21 2948. 1370. 130. o 1
2 19 21 1944. 1885. 144. o 1
2 19 -21 1944. 1456. 66. o 1
3 19 21 571. 1327. 128. o 1
3 19 -21 571. 1018. 74. o 1
4 19 21 1335. 977. 89. o 1
4 19 -21 1335. 981. 60. o 1
5 19 -21 216. 412. 72. o 1
6 19 21 107. 49. 68. < 1
6 19 -21 107. 70. 58. < 1
7 19 21 655. 814. 82. o 1
-11 20 -9 1522. 1310. 138. o -3
-10 20 12 1522. 1310. 138. o -2
1 20 21 1522. 1310. 138. o 1
10 20 12 1511. 997. 124. o -3
11 20 -9 1511. 997. 124. o -2
1 20 -21 1511. 997. 124. o 1
2 20 21 134. 253. 117. < 1
2 20 -21 134. 128. 52. < 1
3 20 21 404. 579. 120. o 1
3 20 -21 404. 496. 64. o 1
4 20 21 9. -132. 76. < 1
4 20 -21 9. -25. 52. < 1
5 20 21 40. 222. 72. o 1
5 20 -21 40. 196. 52. o 1
6 20 21 123. 10. 66. < 1
6 20 -21 123. 136. 58. < 1
7 20 21 1014. 204. 124. < 1
-11 21 -9 4283. 3267. 165. o -3
-10 21 12 4283. 3267. 165. o -2
1 21 21 4283. 3267. 165. o 1
2 21 21 62. 187. 107. < 1
2 21 -21 62. 86. 49. < 1
3 21 21 1020. 1333. 119. o 1
3 21 -21 1020. 634. 66. o 1
4 21 21 121. 43. 107. < 1
4 21 -21 121. 76. 58. < 1
5 21 21 1671. 812. 101. o 1
5 21 -21 1671. 1267. 74. o 1
6 21 21 183. 72. 91. < 1
6 21 -21 183. 157. 60. < 1
-11 22 -9 2749. 1172. 134. o -3
-10 22 12 2749. 1172. 134. o -2
1 22 21 2749. 1172. 134. o 1
10 22 12 2697. 1887. 146. o -3
11 22 -9 2697. 1887. 146. o -2
1 22 -21 2697. 1887. 146. o 1
2 22 21 423. 173. 117. < 1
2 22 -21 423. 247. 58. o 1
3 22 21 1297. 1584. 136. o 1
3 22 -21 1297. 1389. 74. o 1
4 22 21 250. 113. 113. < 1
4 22 -21 250. 126. 58. < 1
2 23 21 772. 565. 119. o 1
2 23 -21 772. 721. 54. o 1
3 23 21 2796. 1397. 175. o 1
3 23 -21 2796. 1858. 89. o 1
4 23 21 639. 497. 89. o 1
4 23 -21 639. 132. 58. < 1
2 24 21 170. -68. 93. < 1
2 24 -21 170. 200. 47. o 1
1 2 -22 308. 352. 54. o 1
2 2 -22 2011. 2231. 89. o 1
3 2 -22 1113. 1469. 78. o 1
5 2 -22 599. 604. 154. o 1
7 2 -22 17. 144. 132. < 1
1 3 -22 451. 344. 97. o 1
2 3 -22 17. 200. 87. < 1
3 3 -22 673. 1073. 68. o 1
5 3 -22 1586. 1356. 165. o 1
6 3 -22 106. 307. 152. < 1
7 3 -22 566. 626. 146. o 1
8 3 -22 63. 290. 134. < 1
1 4 -22 699. 715. 103. o 1
3 4 -22 803. 735. 64. o 1
5 4 -22 998. 1236. 157. o 1
6 4 -22 4910. 7258. 260. o 1
7 4 -22 1396. 1683. 142. o 1
8 4 -22 97. 931. 177. o 1
0 5 -22 20529. 23910. 280. o 1
1 5 -22 272. 383. 99. o 1
2 5 -22 376. 531. 52. o 1
3 5 -22 561. 665. 97. o 1
5 5 -22 2146. 3039. 194. o 1
6 5 -22 91. 247. 130. < 1
7 5 -22 483. 447. 157. < 1
8 5 -22 1712. 2075. 152. o 1
9 5 22 266. 317. 111. < 1
9 5 -22 266. 470. 122. o 1
0 6 -22 755. 764. 60. o 1
1 6 -22 261. 437. 99. o 1
2 6 -22 7966. 8912. 130. o 1
3 6 -22 1318. 1483. 60. o 1
4 6 -22 182. 222. 119. < 1
5 6 -22 270. 379. 119. o 1
7 6 -22 422. 651. 132. o 1
8 6 -22 1245. 1044. 175. o 1
9 6 22 316. 307. 78. o 1
9 6 -22 316. 282. 124. < 1
0 7 -22 16704. 18069. 220. o 1
1 7 -22 286. 398. 93. o 1
2 7 -22 287. 552. 68. o 1
3 7 -22 331. -567. 74. < 1
6 7 -22 7. 0. 117. < 1
7 7 -22 154. 223. 124. < 1
8 7 22 4415. 3455. 190. o 1
9 7 22 290. 179. 74. < 1
9 7 -22 290. 76. 146. < 1
10 7 -22 35. 78. 119. < 1
0 8 -22 427. 488. 93. o 1
1 8 -22 2092. 1821. 80. o 1
3 8 -22 3478. 3784. 78. o 1
4 8 -22 163. 227. 84. < 1
7 8 -22 3854. 3002. 138. o 1
8 8 22 179. 369. 93. o 1
8 8 -22 179. 665. 111. o 1
9 8 22 1315. 839. 91. o 1
9 8 -22 1315. 2210. 140. o 1
1 9 -22 1516. 1524. 76. o 1
2 9 -22 194. 144. 70. < 1
3 9 -22 332. 293. 41. o 1
5 9 -22 420. 282. 115. < 1
6 9 -22 31. -241. 124. < 1
7 9 -22 4. 12. 128. < 1
8 9 22 25. 319. 70. o 1
8 9 -22 25. 266. 113. < 1
9 9 22 975. 396. 80. o 1
9 9 -22 975. 1047. 132. o 1
10 9 -22 139. 70. 124. < 1
1 10 -22 18. 146. 84. < 1
3 10 22 2630. 2682. 225. o 1
3 10 -22 2630. 2730. 80. o 1
4 10 22 933. 1034. 150. o 1
4 10 -22 933. 1257. 84. o 1
5 10 -22 3470. 4056. 157. o 1
7 10 22 593. 682. 62. o 1
7 10 -22 593. 715. 128. o 1
8 10 22 316. 400. 58. o 1
8 10 -22 316. 117. 117. < 1
9 10 22 65. 140. 70. < 1
9 10 -22 65. 16. 86. < 1
10 10 22 10053. 9104. 227. o 1
1 11 -22 707. -86. 82. < 1
2 11 -22 218. 480. 72. o 1
3 11 22 966. 946. 142. o 1
3 11 -22 966. 993. 74. o 1
4 11 22 10092. 11811. 183. o 1
4 11 -22 10092. 10018. 152. o 1
5 11 22 1814. 1510. 105. o 1
5 11 -22 1814. 1741. 140. o 1
6 11 22 19. 60. 64. < 1
6 11 -22 19. 220. 107. < 1
7 11 22 154. 157. 56. < 1
7 11 -22 154. 258. 117. < 1
8 11 22 2767. 2703. 74. o 1
8 11 -22 2767. 2775. 155. o 1
9 11 22 1518. 280. 126. < 1
9 11 -22 1518. 686. 134. o 1
10 11 -22 224. 225. 109. < 1
1 12 -22 1460. 2054. 148. o 1
3 12 22 133. 122. 99. < 1
3 12 -22 133. 148. 76. < 1
4 12 22 651. 1069. 97. o 1
4 12 -22 651. 540. 52. o 1
5 12 22 987. 762. 93. o 1
5 12 -22 987. 898. 64. o 1
7 12 22 622. 583. 60. o 1
7 12 -22 622. 735. 113. o 1
8 12 22 310. 523. 68. o 1
8 12 -22 310. 319. 117. < 1
9 12 22 28. -12. 97. < 1
9 12 -22 28. 58. 89. < 1
1 13 -22 3193. 3644. 183. o 1
2 13 -22 352. 616. 66. o 1
3 13 22 109. 276. 101. < 1
3 13 -22 109. 194. 70. < 1
4 13 22 7008. 7437. 140. o 1
4 13 -22 7008. 7077. 105. o 1
5 13 22 1837. 2058. 87. o 1
5 13 -22 1837. 1823. 76. o 1
6 13 22 407. 571. 66. o 1
6 13 -22 407. 385. 113. o 1
7 13 22 455. 255. 64. o 1
7 13 -22 455. 239. 99. < 1
8 13 22 1643. 857. 101. o 1
8 13 -22 1643. 328. 148. < 1
9 13 22 351. 360. 64. o 1
9 13 -22 351. 536. 93. o 1
1 14 -22 116. 177. 86. < 1
2 14 -22 1090. 1572. 84. o 1
3 14 22 2340. 2270. 128. o 1
3 14 -22 2340. 2379. 82. o 1
4 14 22 341. 610. 122. o 1
4 14 -22 341. 525. 64. o 1
5 14 22 514. 212. 86. < 1
5 14 -22 514. 321. 66. o 1
7 14 22 3654. 3125. 95. o 1
7 14 -22 3654. 2977. 134. o 1
8 14 22 96. 400. 76. o 1
8 14 -22 96. 140. 111. < 1
9 14 22 4. 45. 86. < 1
9 14 -22 4. 140. 86. < 1
1 15 -22 2723. 2097. 76. o 1
2 15 22 297. 426. 122. o 1
2 15 -22 297. 325. 80. o 1
3 15 22 3901. 3467. 150. o 1
3 15 -22 3901. 3084. 99. o 1
4 15 22 7124. 7064. 173. o 1
4 15 -22 7124. 6671. 115. o 1
5 15 22 8694. 7202. 148. o 1
5 15 -22 8693. 9409. 132. o 1
6 15 22 280. 575. 84. o 1
7 15 22 91. 115. 56. < 1
7 15 -22 91. -66. 99. < 1
8 15 -22 3384. 2501. 140. o 1
1 16 -22 2092. 2186. 72. o 1
2 16 22 9400. 11498. 255. o 1
2 16 -22 9400. 8892. 130. o 1
3 16 22 4139. 2998. 136. o 1
3 16 -22 4139. 3364. 84. o 1
4 16 22 338. 1240. 150. o 1
4 16 -22 338. 511. 86. o 1
5 16 22 5428. 4779. 128. o 1
5 16 -22 5428. 4738. 105. o 1
6 16 22 8435. 8350. 159. o 1
7 16 22 306. 33. 58. < 1
7 16 -22 306. 122. 76. < 1
8 16 22 135. 451. 76. o 1
8 16 -22 135. 532. 93. o 1
1 17 -22 1042. 874. 60. o 1
2 17 22 126. 367. 124. < 1
2 17 -22 126. 192. 62. o 1
3 17 22 519. 410. 122. o 1
3 17 -22 519. 410. 68. o 1
4 17 22 16016. 12872. 245. o 1
5 17 22 359. 385. 80. o 1
5 17 -22 359. 303. 60. o 1
6 17 22 121. 142. 80. < 1
7 17 22 266. 103. 74. < 1
1 18 -22 1330. 1267. 119. o 1
2 18 22 17834. 14336. 301. o 1
3 18 22 2624. 2176. 146. o 1
3 18 -22 2624. 2145. 80. o 1
4 18 -22 511. 954. 82. o 1
5 18 22 514. 233. 78. < 1
5 18 -22 514. 220. 70. o 1
7 18 22 182. 4. 60. < 1
1 19 -22 1963. 1005. 124. o 1
2 19 22 224. 2. 120. < 1
2 19 -22 224. 169. 54. o 1
3 19 22 403. 299. 109. < 1
3 19 -22 403. 161. 60. < 1
4 19 22 911. 838. 124. o 1
4 19 -22 911. 941. 68. o 1
5 19 22 544. 202. 78. < 1
5 19 -22 544. 420. 54. o 1
6 19 22 35. -6. 64. < 1
6 19 -22 35. 64. 47. < 1
1 20 22 3726. 2561. 140. o 1
1 20 -22 3726. 2396. 136. o 1
2 20 -22 1026. 1508. 84. o 1
3 20 22 1490. 451. 130. o 1
3 20 -22 1490. 542. 80. o 1
4 20 22 86. 305. 105. < 1
4 20 -22 86. 235. 64. o 1
5 20 22 803. 385. 72. o 1
5 20 -22 803. 445. 66. o 1
1 21 22 93. 21. 91. < 1
1 21 -22 93. 33. 109. < 1
2 21 22 260. 187. 99. < 1
2 21 -22 260. 208. 60. o 1
3 21 22 561. 177. 124. < 1
3 21 -22 561. 459. 60. o 1
4 21 22 506. 449. 107. o 1
4 21 -22 506. 464. 60. o 1
1 22 22 549. 190. 103. < 1
1 22 -22 549. 260. 109. < 1
3 22 22 314. 136. 101. < 1
3 22 -22 314. 66. 62. < 1
2 23 22 93. 29. 84. < 1
2 23 -22 93. 175. 84. < 1
2 3 -23 50. 60. 91. < 1
1 4 -23 1507. 1428. 74. o 1
2 4 -23 2078. 1747. 68. o 1
3 4 -23 2490. 3238. 105. o 1
5 4 -23 258. 979. 177. o 1
6 4 -23 3271. 3204. 181. o 1
7 4 -23 1994. 2145. 154. o 1
1 5 -23 2679. 2814. 89. o 1
2 5 -23 180. 128. 89. < 1
4 5 -23 478. 632. 89. o 1
5 5 -23 2279. 3855. 187. o 1
6 5 -23 466. 626. 148. o 1
7 5 -23 190. 690. 146. o 1
8 5 -23 363. 569. 157. o 1
9 5 23 1132. 725. 124. o 1
2 6 -23 3364. 4083. 115. o 1
3 6 -23 1493. 1685. 72. o 1
4 6 -23 753. -27. 142. < 1
6 6 -23 1497. 1259. 148. o 1
7 6 -23 821. 1137. 171. o 1
8 6 23 2437. 2229. 150. o 1
8 6 -23 2437. 3521. 202. o 1
9 6 23 378. 136. 68. < 1
1 7 -23 4208. 5606. 115. o 1
2 7 -23 775. 818. 64. o 1
4 7 -23 270. 311. 72. o 1
6 7 -23 450. 499. 120. o 1
8 7 23 501. 600. 89. o 1
8 7 -23 501. 884. 154. o 1
9 7 23 763. 581. 60. o 1
9 7 -23 763. 1014. 161. o 1
1 8 -23 294. 509. 54. o 1
2 8 -23 927. 1044. 84. o 1
3 8 -23 974. 1560. 72. o 1
4 8 -23 538. 457. 109. o 1
6 8 -23 2319. 1864. 140. o 1
7 8 -23 256. 258. 126. < 1
8 8 23 666. 742. 72. o 1
8 8 -23 666. 966. 150. o 1
9 8 23 986. 581. 70. o 1
9 8 -23 986. 429. 163. < 1
1 9 -23 2476. 3272. 111. o 1
2 9 -23 1700. 2359. 105. o 1
4 9 -23 17. -64. 68. < 1
6 9 -23 159. 132. 105. < 1
7 9 23 88. 198. 62. o 1
7 9 -23 88. 241. 119. < 1
8 9 23 302. 334. 56. o 1
8 9 -23 302. 188. 142. < 1
9 9 23 91. 274. 54. o 1
9 9 -23 91. -126. 132. < 1
1 10 -23 577. 1141. 117. o 1
2 10 -23 22. 212. 74. < 1
3 10 -23 4122. 5082. 111. o 1
4 10 23 273. 76. 115. < 1
4 10 -23 273. 134. 78. < 1
6 10 23 239. 72. 66. < 1
6 10 -23 239. 334. 103. o 1
7 10 23 193. 290. 62. o 1
7 10 -23 193. 330. 115. < 1
8 10 23 308. 202. 56. o 1
8 10 -23 308. 196. 113. < 1
9 10 23 341. 398. 74. o 1
9 10 -23 341. 159. 140. < 1
1 11 -23 608. 517. 47. o 1
2 11 -23 431. 367. 66. o 1
3 11 23 481. 476. 132. o 1
3 11 -23 481. 556. 70. o 1
4 11 23 642. 661. 120. o 1
4 11 -23 642. 624. 76. o 1
6 11 23 276. 251. 66. o 1
8 11 -23 2063. 431. 155. < 1
9 11 23 516. 725. 72. o 1
9 11 -23 516. 313. 150. < 1
2 12 -23 782. 1030. 78. o 1
3 12 23 448. 954. 142. o 1
4 12 23 750. 1026. 126. o 1
4 12 -23 750. 262. 80. o 1
5 12 23 50. 264. 86. o 1
5 12 -23 50. 132. 64. < 1
6 12 23 1922. 2120. 82. o 1
7 12 23 874. 857. 64. o 1
7 12 -23 874. 632. 111. o 1
8 12 23 83. -56. 49. < 1
8 12 -23 83. -66. 105. < 1
1 13 -23 575. 754. 101. o 1
2 13 -23 575. 591. 82. o 1
3 13 23 536. 373. 134. < 1
3 13 -23 536. 748. 76. o 1
4 13 23 1717. -315. 144. < 1
4 13 -23 1717. 1726. 76. o 1
5 13 -23 360. 775. 80. o 1
6 13 23 1125. 919. 72. o 1
7 13 23 937. 847. 80. o 1
7 13 -23 937. 492. 128. o 1
8 13 23 63. 78. 52. < 1
8 13 -23 63. -6. 99. < 1
2 14 -23 739. 676. 80. o 1
3 14 23 3228. 2983. 140. o 1
3 14 -23 3228. 3698. 87. o 1
4 14 23 265. 428. 119. o 1
4 14 -23 265. 313. 76. o 1
5 14 23 1002. 1240. 93. o 1
5 14 -23 1002. 908. 74. o 1
6 14 23 607. 715. 64. o 1
7 14 23 445. 251. 70. o 1
7 14 -23 445. 398. 103. o 1
8 14 23 785. 360. 70. o 1
8 14 -23 785. 365. 101. o 1
1 15 -23 507. 422. 80. o 1
2 15 -23 1862. 1564. 86. o 1
3 15 23 3135. 4549. 192. o 1
4 15 23 452. 363. 124. < 1
4 15 -23 452. 705. 76. o 1
5 15 23 4832. 4668. 122. o 1
5 15 -23 4832. 4168. 103. o 1
6 15 23 1131. 453. 86. o 1
7 15 -23 462. 1047. 115. o 1
1 16 -23 28. 43. 66. < 1
2 16 -23 847. 548. 66. o 1
3 16 23 430. 795. 126. o 1
3 16 -23 430. 548. 74. o 1
4 16 23 1163. 1333. 126. o 1
4 16 -23 1163. 1108. 72. o 1
5 16 23 734. 620. 93. o 1
5 16 -23 734. 422. 72. o 1
6 16 23 739. 313. 82. o 1
1 17 -23 1826. 1609. 120. o 1
2 17 23 113. 152. 107. < 1
2 17 -23 113. 76. 52. < 1
3 17 23 20. 120. 117. < 1
3 17 -23 20. -2. 60. < 1
4 17 23 63. -72. 107. < 1
4 17 -23 63. 47. 54. < 1
5 17 23 307. 499. 82. o 1
5 17 -23 307. 564. 66. o 1
6 17 23 180. 93. 70. < 1
1 18 -23 1405. 684. 113. o 1
2 18 23 397. 325. 117. < 1
2 18 -23 397. 251. 54. o 1
3 18 23 474. 103. 130. < 1
3 18 -23 474. 439. 70. o 1
4 18 23 671. 119. 120. < 1
4 18 -23 671. 435. 54. o 1
5 18 23 534. 394. 78. o 1
5 18 -23 534. 445. 60. o 1
6 18 23 108. -39. 66. < 1
1 19 -23 1627. 1632. 117. o 1
2 19 23 453. 91. 117. < 1
2 19 -23 453. 307. 66. o 1
3 19 23 489. 251. 124. < 1
3 19 -23 489. 185. 68. < 1
4 19 23 2453. 373. 146. < 1
5 19 23 1067. 711. 95. o 1
5 19 -23 1067. 1211. 72. o 1
1 20 -23 2494. 1226. 142. o 1
2 20 23 18. -21. 87. < 1
2 20 -23 18. -6. 54. < 1
3 20 23 1527. 330. 130. < 1
3 20 -23 1527. 659. 76. o 1
4 20 23 262. 117. 91. < 1
4 20 -23 262. 146. 54. < 1
1 21 -23 1355. 1415. 119. o 1
2 21 23 598. 165. 91. < 1
2 21 -23 598. 101. 58. < 1
3 21 23 300. 727. 99. o 1
3 21 -23 300. 437. 54. o 1
9 4 24 1060. 227. 91. < 1
2 5 -24 9407. 9767. 169. o 1
3 5 -24 415. 861. 70. o 1
8 5 24 38. 27. 101. < 1
9 5 24 41. -54. 64. < 1
1 6 -24 514. 396. 91. o 1
2 6 -24 386. 303. 97. o 1
3 6 -24 1353. 1627. 80. o 1
6 6 -24 296. 340. 134. < 1
9 6 24 764. 260. 54. o 1
0 7 -24 570. 428. 103. o 1
1 7 -24 320. 540. 86. o 1
2 7 -24 11404. 12379. 208. o 1
3 7 -24 461. 509. 84. o 1
4 7 -24 158. -19. 68. < 1
6 7 -24 993. 187. 154. < 1
7 7 -24 233. 146. 146. < 1
8 7 24 39. 12. 58. < 1
9 7 24 72. -41. 43. < 1
1 8 -24 2423. 2355. 103. o 1
2 8 -24 341. 954. 107. o 1
3 8 -24 284. 155. 58. < 1
6 8 -24 339. 793. 165. o 1
7 8 24 579. 667. 64. o 1
7 8 -24 579. 777. 155. o 1
9 8 24 4. -10. 41. < 1
0 9 -24 613. 766. 86. o 1
1 9 -24 905. 1279. 72. o 1
2 9 -24 1531. 1755. 70. o 1
3 9 -24 2798. 2699. 99. o 1
4 9 24 10. 47. 119. < 1
4 9 -24 10. 82. 80. < 1
5 9 24 362. 229. 113. < 1
6 9 24 4342. 4108. 119. o 1
7 9 24 35. 35. 56. < 1
7 9 -24 35. 80. 130. < 1
8 9 24 37. -45. 49. < 1
8 9 -24 37. 245. 107. < 1
1 10 -24 205. 82. 87. < 1
3 10 -24 4286. 4310. 87. o 1
4 10 24 7045. 5985. 177. o 1
4 10 -24 7045. 7734. 152. o 1
5 10 24 1466. 1469. 97. o 1
6 10 24 360. 659. 74. o 1
7 10 24 21. -2. 54. < 1
7 10 -24 21. -23. 113. < 1
8 10 -24 4736. 1671. 253. o 1
1 11 -24 613. 455. 93. o 1
2 11 -24 602. 451. 70. o 1
3 11 -24 14. 115. 78. < 1
4 11 24 621. 225. 119. < 1
4 11 -24 621. 251. 80. o 1
5 11 24 306. 303. 76. o 1
6 11 24 1136. 1123. 64. o 1
7 11 24 673. 297. 56. o 1
7 11 -24 673. -113. 132. < 1
8 11 24 124. -2. 47. < 1
8 11 -24 124. -134. 113. < 1
1 12 -24 2882. 2693. 99. o 1
2 12 -24 384. 527. 76. o 1
3 12 -24 823. 1164. 86. o 1
4 12 24 5246. 6176. 216. o 1
5 12 24 81. 39. 74. < 1
5 12 -24 81. 6. 66. < 1
6 12 24 93. 87. 64. < 1
7 12 24 421. -17. 52. < 1
7 12 -24 421. 76. 95. < 1
1 13 -24 39. 126. 84. < 1
2 13 -24 1023. 1183. 87. o 1
3 13 24 599. 459. 117. o 1
3 13 -24 599. 577. 80. o 1
4 13 24 18. -91. 113. < 1
4 13 -24 18. -76. 70. < 1
5 13 24 31. 16. 74. < 1
5 13 -24 31. -78. 70. < 1
6 13 24 475. 278. 68. o 1
7 13 24 784. 338. 68. o 1
7 13 -24 784. 513. 95. o 1
1 14 -24 49. 62. 72. < 1
2 14 -24 741. 546. 76. o 1
3 14 24 1521. 1133. 132. o 1
3 14 -24 1521. 1300. 87. o 1
4 14 24 8602. 10593. 255. o 1
4 14 -24 8602. 8547. 167. o 1
5 14 24 1055. 565. 84. o 1
5 14 -24 1055. 496. 89. o 1
6 14 24 490. 418. 80. o 1
7 14 24 219. 152. 54. < 1
1 15 -24 49. 60. 64. < 1
2 15 -24 6824. 5647. 113. o 1
3 15 24 1664. 1514. 136. o 1
3 15 -24 1664. 1444. 82. o 1
4 15 24 109. 91. 124. < 1
4 15 -24 109. 78. 54. < 1
5 15 24 377. 8. 80. < 1
5 15 -24 377. 54. 78. < 1
6 15 24 2185. 216. 99. < 1
1 16 -24 837. 797. 68. o 1
2 16 -24 275. 220. 64. o 1
3 16 24 1207. 358. 138. < 1
3 16 -24 1207. 503. 76. o 1
5 16 24 2020. 1094. 87. o 1
5 16 -24 2020. 1384. 87. o 1
6 16 24 19. 218. 66. o 1
3 17 24 89. 80. 103. < 1
3 17 -24 89. 8. 60. < 1
4 17 24 24. 43. 105. < 1
4 17 -24 24. 49. 54. < 1
5 17 24 192. 39. 62. < 1
5 17 -24 192. 66. 72. < 1
2 18 24 99. 291. 99. < 1
2 18 -24 99. 198. 72. < 1
3 18 24 96. 45. 107. < 1
3 18 -24 96. 62. 62. < 1
4 18 24 4012. 1654. 204. o 1
4 18 -24 4012. 3065. 117. o 1
3 19 24 958. 39. 109. < 1
3 19 -24 958. 363. 58. o 1
1 20 -24 2455. 1220. 111. o 1
8 3 25 550. 12. 99. < 1
8 4 25 0. 82. 99. < 1
8 5 25 180. 58. 66. < 1
8 6 25 454. 60. 60. < 1
2 7 -25 280. 119. 76. < 1
3 7 -25 1029. 839. 74. o 1
7 7 25 305. 422. 58. o 1
1 8 -25 686. 851. 72. o 1
2 8 -25 567. 466. 87. o 1
3 8 -25 508. 420. 72. o 1
4 8 -25 1428. 1442. 86. o 1
5 8 25 1686. 1397. 124. o 1
6 8 25 814. 1053. 89. o 1
7 8 25 882. 781. 64. o 1
1 9 -25 1638. 1590. 91. o 1
2 9 -25 35. -101. 86. < 1
3 9 -25 1289. 1619. 111. o 1
4 9 25 461. 548. 103. o 1
4 9 -25 461. 496. 78. o 1
5 9 25 422. 1003. 84. o 1
6 9 25 526. 377. 68. o 1
7 9 25 486. 41. 56. < 1
1 10 -25 1013. 890. 105. o 1
2 10 -25 2039. 1539. 105. o 1
3 10 -25 138. 437. 93. o 1
4 10 25 99. -19. 93. < 1
4 10 -25 99. 29. 72. < 1
5 10 25 1050. 968. 87. o 1
6 10 25 457. 169. 54. o 1
7 10 25 633. 525. 58. o 1
1 11 -25 1405. 1391. 120. o 1
2 11 -25 1938. 1533. 101. o 1
3 11 -25 3305. 3445. 120. o 1
4 11 25 43. 196. 99. < 1
4 11 -25 43. 200. 72. < 1
5 11 25 517. 962. 111. o 1
6 11 25 127. 62. 56. < 1
7 11 25 1112. 723. 58. o 1
1 12 -25 1773. 1770. 111. o 1
2 12 -25 1471. 1308. 105. o 1
3 12 -25 3537. 3653. 130. o 1
4 12 25 1191. 787. 119. o 1
4 12 -25 1191. 1047. 91. o 1
5 12 25 611. 128. 76. < 1
5 12 -25 611. 130. 78. < 1
6 12 25 1404. 874. 70. o 1
1 13 -25 869. 830. 89. o 1
2 13 -25 373. 328. 72. o 1
3 13 -25 190. 330. 109. o 1
4 13 25 412. 309. 101. o 1
4 13 -25 412. 501. 78. o 1
5 13 25 19. 124. 68. < 1
5 13 -25 19. -35. 58. < 1
6 13 25 1459. 723. 84. o 1
1 14 -25 179. 237. 70. o 1
2 14 -25 303. 288. 70. o 1
3 14 -25 300. 245. 86. < 1
4 14 25 43. -37. 99. < 1
4 14 -25 43. -37. 64. < 1
5 14 25 372. 25. 74. < 1
5 14 -25 372. 78. 74. < 1
6 14 25 197. -49. 82. < 1
1 15 -25 1863. 849. 93. o 1
2 15 -25 36. 115. 54. < 1
3 15 25 88. 657. 111. o 1
3 15 -25 88. 188. 68. < 1
4 15 25 181. 272. 97. < 1
4 15 -25 181. 173. 60. < 1
5 15 25 168. 350. 68. o 1
5 15 -25 168. 171. 70. < 1
2 16 -25 60. 181. 58. o 1
3 16 25 180. 258. 103. < 1
3 16 -25 180. 328. 70. o 1
4 16 25 243. 144. 89. < 1
4 16 -25 243. 64. 66. < 1
2 17 -25 497. 208. 56. o 1
3 17 25 404. 464. 107. o 1
3 17 -25 404. 587. 64. o 1
2 18 -25 43. 62. 49. < 1
5 6 26 218. 150. 89. < 1
6 6 26 12247. 10115. 249. o 1
7 6 26 44. 84. 45. < 1
5 7 26 311. -64. 115. < 1
6 7 26 300. 76. 80. < 1
7 7 26 351. 82. 49. < 1
5 8 26 863. 451. 76. o 1
6 8 26 15540. 18115. 223. o 1
7 8 26 144. 177. 47. o 1
5 9 26 473. 338. 74. o 1
6 9 26 122. 43. 54. < 1
5 10 26 269. 23. 64. < 1
2 11 -26 336. 332. 89. o 1
3 11 -26 462. 31. 60. < 1
4 11 26 3598. 3004. 134. o 1
5 11 26 317. 33. 66. < 1
6 11 26 154. 134. 66. < 1
1 12 -26 793. 251. 60. o 1
3 12 -26 429. 21. 60. < 1
4 12 26 192. 455. 89. o 1
4 12 -26 192. 111. 70. < 1
5 12 26 495. 192. 68. < 1
1 13 -26 644. 321. 74. o 1
2 13 -26 103. 62. 78. < 1
3 13 -26 43. 117. 62. < 1
5 13 26 301. 181. 82. < 1
1 14 -26 984. 680. 72. o 1
3 14 -26 1671. 299. 91. o 1
4 14 26 120. 29. 78. < 1
4 14 -26 120. 109. 64. < 1
1 15 -26 298. 150. 60. < 1
2 15 -26 174. 33. 58. < 1
3 15 -26 649. 214. 66. o 1
2 16 -26 1250. 1407. 84. o 1
5 8 27 1493. 731. 103. o 1
5 9 27 412. 439. 111. o 1
2 0 0 1. 52. 10. o 2
0 0 -2 2. 25. 10. < 2
2 0 -4 14. 35. 16. < 2
2 0 0 2. 27. 10. < 3
0 0 2 3. 19. 4. o 3
2 0 4 16. 52. 12. o 3
#BEGIN Loops that were not found in dictionaries:
loop_
_jana_cell_twin_matrix_id
_jana_cell_twin_volume_fraction
_jana_cell_twin_matrix_1_1
_jana_cell_twin_matrix_1_2
_jana_cell_twin_matrix_1_3
_jana_cell_twin_matrix_2_1
_jana_cell_twin_matrix_2_2
_jana_cell_twin_matrix_2_3
_jana_cell_twin_matrix_3_1
_jana_cell_twin_matrix_3_2
_jana_cell_twin_matrix_3_3
1 0.536(2) 1 0 0 0 1 0 0 0 1
2 0.2103(17) 0.5 0 1.5047 0 1 0 -0.4984 0 0.5
3 0.2533(16) -0.5 0 1.5047 0 1 0 -0.4984 0 -0.5
#END Loops that were not found in dictionaries
