#------------------------------------------------------------------------------
#$Date: 2016-03-21 01:21:50 +0200 (Mon, 21 Mar 2016) $
#$Revision: 178377 $
#$URL: svn://www.crystallography.net/cod/cif/4/00/12/4001282.cif $
#------------------------------------------------------------------------------
#
# This file is available in the Crystallography Open Database (COD),
# http://www.crystallography.net/
#
# All data on this site have been placed in the public domain by the
# contributors.
#
data_4001282
loop_
_publ_author_name
'Ngala, J. Katana'
'Alia, Shaun'
'Dobley, Arthur'
'Crisostomo, Vincent Mark B.'
'Suib, Steven L.'
_publ_section_title
;
 Characterization and Electrocatalytic Behavior of Layered Li2MnO3and Its
 Acid-Treated Form
;
_journal_issue                   2
_journal_name_full               'Chemistry of Materials'
_journal_page_first              229
_journal_paper_doi               10.1021/cm0616937
_journal_volume                  19
_journal_year                    2007
_chemical_formula_sum            'Li0.11 Mn0.34 O'
_chemical_formula_weight         35.29
_chemical_name_systematic        ' ?'
_space_group_IT_number           12
_symmetry_cell_setting           monoclinic
_symmetry_space_group_name_Hall  '-C 2y'
_symmetry_space_group_name_H-M   'C 1 2/m 1'
_audit_creation_date             2006-10-28T18:56
_audit_creation_method           'from EXP file using GSAS2CIF'
_audit_update_record
' 2006-10-28T18:56  Initial CIF as created by GSAS2CIF'
_cell_angle_alpha                90.0
_cell_angle_beta                 109.196(16)
_cell_angle_gamma                90.0
_cell_formula_units_Z            12
_cell_length_a                   5.0512(12)
_cell_length_b                   8.7065(18)
_cell_length_c                   4.9045(9)
_cell_volume                     203.70(8)
_computing_structure_refinement  GSAS
_diffrn_radiation_polarisn_ratio 0.5
_diffrn_radiation_probe          x-ray
_exptl_absorpt_correction_T_max  0.88647
_exptl_absorpt_correction_T_min  0.51506
_exptl_absorpt_process_details
;   GSAS Absorption/surface roughness correction: function number 3
 Surface roughness abs. correction (Suortti)
Terms =     0.32975        0.34355    
Correction is not refined.
;
_pd_block_id
2006-10-28T18:56|LI2MN_22M_3|Katana_Ngala|Scintag_XDS2000
_pd_calc_method                  'Rietveld Refinement'
_pd_instr_location               ' ?'
_pd_meas_2theta_range_inc        0.02
_pd_meas_2theta_range_max        70.0
_pd_meas_2theta_range_min        10.0
_pd_meas_number_of_points        3001
_pd_phase_name
'from C:/Documents and Settings/John Ngala/My Documents/Refinement/'
_pd_proc_2theta_range_inc        0.02
_pd_proc_2theta_range_max        70.0
_pd_proc_2theta_range_min        10.0
_pd_proc_info_datetime           2006-10-28T18:56:41
_pd_proc_info_excluded_regions   ' ?'
_pd_proc_ls_background_function
;   GSAS Background function number 1 with  6 terms.
 Shifted Chebyshev function of 1st kind
      1:    127.152     2:   -86.6443     3:    44.2547     4:   -11.3998    
      5:   -9.89408     6:    7.47054    
;
_pd_proc_ls_peak_cutoff          0.00500
_pd_proc_ls_pref_orient_corr
;   March-Dollase
 AXIS  1 Ratio=   0.98572  h= 0.000  k= 0.000  l= 1.000
 Prefered orientation correction range: Min=   0.97865, Max=   1.04410
;
_pd_proc_ls_profile_function
;
 CW Profile function number 2 with  18 terms
 Profile coefficients for Simpson's rule integration of pseudovoigt function
 C.J. Howard (1982). J. Appl. Cryst.,15,615-620.
 P. Thompson, D.E. Cox & J.B. Hastings (1987). J. Appl. Cryst.,20,79-83.
 Peak tails are ignored  where the intensity is below 0.0050 times the peak
   Aniso. broadening axis   0.0   0.0   1.0
;
_pd_proc_ls_prof_R_factor        0.1095
_pd_proc_ls_prof_wR_expected     0.0688
_pd_proc_ls_prof_wR_factor       0.1361
_pd_proc_number_of_points        3001
_pd_spec_mounting                ' ?'
_refine_ls_goodness_of_fit_all   1.98
_refine_ls_matrix_type           full
_refine_ls_number_parameters     12
_refine_ls_number_restraints     0
_refine_ls_R_Fsqd_factor         0.12214
_refine_ls_shift/su_max          0.06
_refine_ls_shift/su_mean         0.02
_reflns_d_resolution_high        1.355
_reflns_d_resolution_low         4.632
_reflns_limit_h_max              4
_reflns_limit_h_min              0
_reflns_limit_k_max              6
_reflns_limit_k_min              0
_reflns_limit_l_max              3
_reflns_limit_l_min              -3
_reflns_number_total             102
_cod_data_source_file            cm0616937si20061028_081518.cif
_cod_data_source_block           LI2MN_22M_3_publ
_cod_depositor_comments
;
The following automatic conversions were performed:

'_geom_bond_publ_flag' value 'N' changed to 'n' according to
/home/saulius/struct/CIF-dictionaries/cif_core.dic dictionary named
'cif_core.dic' version 2.4.1 from 2010-06-29 (63
times).

'_geom_angle_publ_flag' value 'N' changed to 'n' according
to /home/saulius/struct/CIF-dictionaries/cif_core.dic dictionary
named 'cif_core.dic' version 2.4.1 from 2010-06-29 (110 times).

Automatic conversion script
Id: cif_fix_values 1715 2011-07-08 13:25:40Z adriana 
;
_cod_original_cell_volume        203.70(6)
_cod_original_sg_symbol_H-M      'C 2/m'
_cod_database_code               4001282
#BEGIN Tags that were not found in dictionaries:
_gsas_exptl_extinct_corr_t_min   1.00000
_gsas_exptl_extinct_corr_t_max   1.00000
#END Tags that were not found in dictionaries
loop_
_symmetry_equiv_pos_site_id
_symmetry_equiv_pos_as_xyz
1 +x,+y,+z
2 -x,+y,-z
-1 -x,-y,-z
-2 +x,-y,+z
101 +x+1/2,+y+1/2,+z
102 -x+1/2,+y+1/2,-z
-101 -x+1/2,-y+1/2,-z
-102 +x+1/2,-y+1/2,+z
loop_
_atom_site_type_symbol
_atom_site_label
_atom_site_fract_x
_atom_site_fract_y
_atom_site_fract_z
_atom_site_occupancy
_atom_site_thermal_displace_type
_atom_site_U_iso_or_equiv
_atom_site_symmetry_multiplicity
Mn Mn1 0.0 0.17544 0.0 0.62825 Uiso 0.025 4
Li Li1 0.0 0.5 0.0 0.638 Uiso 0.025 2
O O1 0.11446 0.0 -0.19859 1.0 Uiso 0.025 4
O O2 0.15538 0.33593 -0.23031 1.0 Uiso 0.025 8
Mn Mn2 0.0 0.5 0.0 0.362 Uiso 0.025 2
Mn Mn3 0.0 0.75343 0.5 0.20361 Uiso 0.025 4
loop_
_atom_type_symbol
_atom_type_number_in_cell
_atom_type_scat_dispersion_real
_atom_type_scat_dispersion_imag
_atom_type_scat_Cromer_Mann_a1
_atom_type_scat_Cromer_Mann_a2
_atom_type_scat_Cromer_Mann_a3
_atom_type_scat_Cromer_Mann_a4
_atom_type_scat_Cromer_Mann_b1
_atom_type_scat_Cromer_Mann_b2
_atom_type_scat_Cromer_Mann_b3
_atom_type_scat_Cromer_Mann_b4
_atom_type_scat_Cromer_Mann_c
_atom_type_scat_source
Mn 4.051 0.000 0.000 11.2819 5.34090 7.35730 0.34320 3.01930 17.8674 2.24410
83.7543 1.08960 International_Tables_Vol_C
Li 1.276 0.000 0.000 1.12820 3.95460 0.75080 1.05240 0.61750 85.3905 0.46530
168.261 0.03770 International_Tables_Vol_C
O 12.0 0.000 0.000 3.04850 13.2771 2.28680 5.70110 1.54630 0.32390 0.86700
32.9089 0.25080 International_Tables_Vol_C
loop_
_diffrn_radiation_wavelength
_diffrn_radiation_wavelength_wt
_diffrn_radiation_type
_diffrn_radiation_wavelength_id
1.540600 1.000 CuK\a~1~ 1
1.544400 0.500 CuK\a~2~ 2
loop_
_geom_angle_atom_site_label_1
_geom_angle_atom_site_label_2
_geom_angle_atom_site_label_3
_geom_angle
_geom_angle_site_symmetry_1
_geom_angle_site_symmetry_3
_geom_angle_publ_flag
Li1 Mn1 O1 139.911(7) 1_555 1_555 n
Li1 Mn1 O1 139.911(7) 1_555 2_555 n
Li1 Mn1 O2 48.389(7) 1_555 1_555 n
Li1 Mn1 O2 48.389(7) 1_555 2_555 n
Li1 Mn1 O2 93.2657(11) 1_555 -101_555 n
Li1 Mn1 O2 93.2657(11) 1_555 -102_455 n
Li1 Mn1 Mn3 75.827(4) 1_555 -1_565 n
Li1 Mn1 Mn3 75.827(4) 1_555 -1_566 n
O1 Mn1 O1 80.178(15) 1_555 2_555 n
O1 Mn1 O2 91.560(15) 1_555 1_555 n
O1 Mn1 O2 171.4457(5) 1_555 2_555 n
O1 Mn1 O2 83.379(11) 1_555 -101_555 n
O1 Mn1 O2 91.613(11) 1_555 -102_455 n
O1 Mn1 Mn3 67.793(11) 1_555 -1_565 n
O1 Mn1 Mn3 138.816(5) 1_555 -1_566 n
O1 Mn1 O2 171.4457(5) 2_555 1_555 n
O1 Mn1 O2 91.560(15) 2_555 2_555 n
O1 Mn1 O2 91.613(11) 2_555 -101_555 n
O1 Mn1 O2 83.379(11) 2_555 -102_455 n
O1 Mn1 Mn3 138.816(5) 2_555 -1_565 n
O1 Mn1 Mn3 67.793(11) 2_555 -1_566 n
O2 Mn1 O2 96.777(15) 1_555 2_555 n
O2 Mn1 O2 85.187(13) 1_555 -101_555 n
O2 Mn1 O2 99.181(13) 1_555 -102_455 n
O2 Mn1 Mn3 36.678(6) 1_555 -1_565 n
O2 Mn1 Mn3 118.477(11) 1_555 -1_566 n
O2 Mn1 O2 99.181(13) 2_555 -101_555 n
O2 Mn1 O2 85.187(13) 2_555 -102_455 n
O2 Mn1 Mn3 118.477(11) 2_555 -1_565 n
O2 Mn1 Mn3 36.678(6) 2_555 -1_566 n
O2 Mn1 O2 173.4685(21) -101_555 -102_455 n
O2 Mn1 Mn3 108.946(16) -101_555 -1_565 n
O2 Mn1 Mn3 72.736(16) -101_555 -1_566 n
O2 Mn1 Mn3 72.736(16) -102_455 -1_565 n
O2 Mn1 Mn3 108.946(16) -102_455 -1_566 n
Mn3 Mn1 Mn3 151.654(7) -1_565 -1_566 n
Mn1 Li1 Mn1 180.0 1_555 -1_565 n
Mn1 Li1 O1 90.0 1_555 101_455 n
Mn1 Li1 O1 90.0 1_555 102_555 n
Mn1 Li1 O2 47.760(7) 1_555 1_555 n
Mn1 Li1 O2 47.760(7) 1_555 2_555 n
Mn1 Li1 O2 132.240(7) 1_555 -1_565 n
Mn1 Li1 O2 132.240(7) 1_555 -2_565 n
Mn1 Li1 O1 90.0 -1_565 101_455 n
Mn1 Li1 O1 90.0 -1_565 102_555 n
Mn1 Li1 O2 132.240(7) -1_565 1_555 n
Mn1 Li1 O2 132.240(7) -1_565 2_555 n
Mn1 Li1 O2 47.760(7) -1_565 -1_565 n
Mn1 Li1 O2 47.760(7) -1_565 -2_565 n
O1 Li1 O1 180.0 101_455 102_555 n
O1 Li1 O2 103.099(12) 101_455 1_555 n
O1 Li1 O2 76.901(12) 101_455 2_555 n
O1 Li1 O2 76.901(12) 101_455 -1_565 n
O1 Li1 O2 103.099(12) 101_455 -2_565 n
O1 Li1 O2 76.901(12) 102_555 1_555 n
O1 Li1 O2 103.099(12) 102_555 2_555 n
O1 Li1 O2 103.099(12) 102_555 -1_565 n
O1 Li1 O2 76.901(12) 102_555 -2_565 n
O2 Li1 O2 95.521(15) 1_555 2_555 n
O2 Li1 O2 179.9802 1_555 -1_565 n
O2 Li1 O2 84.479(15) 1_555 -2_565 n
O2 Li1 O2 84.479(15) 2_555 -1_565 n
O2 Li1 O2 179.9802 2_555 -2_565 n
O2 Li1 O2 95.521(15) -1_565 -2_565 n
Mn1 O1 Mn1 99.822(15) 1_555 -1_555 n
Mn1 O1 Li1 99.497(11) 1_555 101_545 n
Mn1 O1 Mn2 99.497(11) 1_555 101_545 n
Mn1 O1 Li1 99.497(11) -1_555 101_545 n
Mn1 O1 Mn2 99.497(11) -1_555 101_545 n
Li1 O1 Mn2 0.0 101_545 101_545 n
Mn1 O2 Mn1 94.813(13) 1_555 -101_445 n
Mn1 O2 Li1 83.851(15) 1_555 1_555 n
Mn1 O2 Mn2 83.851(15) 1_555 1_555 n
Mn1 O2 Mn3 87.134(14) 1_555 -1_565 n
Mn1 O2 Li1 99.139(13) -101_445 1_555 n
Mn1 O2 Mn2 99.139(13) -101_555 1_555 n
Mn1 O2 Mn3 131.267(11) -101_555 -1_565 n
Li1 O2 Mn2 0.0 1_555 1_555 n
Li1 O2 Mn3 129.379(12) 1_555 -1_565 n
Mn2 O2 Mn3 129.379(12) 1_555 -1_565 n
O1 Mn2 O1 180.0 101_455 102_555 n
O1 Mn2 O2 103.099(12) 101_455 1_555 n
O1 Mn2 O2 76.901(12) 101_455 2_555 n
O1 Mn2 O2 76.901(12) 101_455 -1_565 n
O1 Mn2 O2 103.099(12) 101_455 -2_565 n
O1 Mn2 O2 76.901(12) 102_555 1_555 n
O1 Mn2 O2 103.099(12) 102_555 2_555 n
O1 Mn2 O2 103.099(12) 102_555 -1_565 n
O1 Mn2 O2 76.901(12) 102_555 -2_565 n
O2 Mn2 O2 95.521(15) 1_555 2_555 n
O2 Mn2 O2 179.9802 1_555 -1_565 n
O2 Mn2 O2 84.479(15) 1_555 -2_565 n
O2 Mn2 O2 84.479(15) 2_555 -1_565 n
O2 Mn2 O2 179.9802 2_555 -2_565 n
O2 Mn2 O2 95.521(15) -1_565 -2_565 n
Mn1 Mn3 Mn1 151.654(7) -1_565 -1_566 n
Mn1 Mn3 O2 56.188(12) -1_565 -1_565 n
Mn1 Mn3 O2 143.933(8) -1_565 -2_566 n
Mn1 Mn3 Mn3 108.935(15) -1_565 -101_466 n
Mn1 Mn3 Mn3 71.764(15) -1_565 -101_566 n
Mn1 Mn3 O2 143.933(8) -1_566 -1_565 n
Mn1 Mn3 O2 56.188(12) -1_566 -2_566 n
Mn1 Mn3 Mn3 71.764(15) -1_566 -101_466 n
Mn1 Mn3 Mn3 108.935(15) -1_566 -101_566 n
O2 Mn3 O2 118.095(15) -1_565 -2_566 n
O2 Mn3 Mn3 75.912(14) -1_565 -101_466 n
O2 Mn3 Mn3 102.657(14) -1_565 -101_566 n
O2 Mn3 Mn3 102.657(14) -2_566 -101_466 n
O2 Mn3 Mn3 75.912(14) -2_566 -101_566 n
Mn3 Mn3 Mn3 177.2927(8) -101_466 -101_566 n
loop_
_geom_bond_atom_site_label_1
_geom_bond_atom_site_label_2
_geom_bond_distance
_geom_bond_site_symmetry_2
_geom_bond_publ_flag
Mn1 Mn1 2.8397(5) -101_345 n
Mn1 Mn1 2.8397(5) -101_445 n
Mn1 Li1 2.8258(6) 1_555 n
Mn1 Li1 2.9516(5) 101_445 n
Mn1 Li1 2.9516(5) 101_545 n
Mn1 O1 1.99662(27) 1_555 n
Mn1 O1 1.99662(27) 2_555 n
Mn1 O2 2.10412(27) 1_555 n
Mn1 O2 2.10412(27) 2_555 n
Mn1 O2 1.7386(4) -101_445 n
Mn1 O2 1.7386(4) -102_345 n
Mn1 Mn2 2.8258(6) 1_555 n
Mn1 Mn2 2.9516(5) 101_445 n
Mn1 Mn2 2.9516(5) 101_545 n
Mn1 Mn3 2.5293(4) -1_565 n
Mn1 Mn3 2.5293(4) -1_566 n
Mn1 Mn3 2.9632(7) 101_444 n
Mn1 Mn3 2.9632(7) 101_545 n
Li1 Mn1 2.8258(6) 1_555 n
Li1 Mn1 2.8258(6) -1_565 n
Li1 Mn1 2.9516(5) 101_455 n
Li1 Mn1 2.9516(5) 101_555 n
Li1 Mn1 2.9516(5) -101_345 n
Li1 Mn1 2.9516(5) -101_445 n
Li1 O1 1.8692(5) 101_455 n
Li1 O1 1.8692(5) 102_555 n
Li1 O2 2.12495(28) 1_555 n
Li1 O2 2.12495(28) 2_555 n
Li1 O2 2.12495(28) -1_565 n
Li1 O2 2.12495(28) -2_565 n
O1 Mn1 1.99662(27) 1_555 n
O1 Mn1 1.99662(27) -1_555 n
O1 Li1 1.8692(5) 101_545 n
O1 Mn2 1.8692(5) 101_545 n
O1 Mn3 2.5625(4) 1_544 n
O1 Mn3 2.5625(4) -1_565 n
O2 Mn1 2.10412(27) 1_555 n
O2 Mn1 1.7386(4) -101_445 n
O2 Li1 2.12495(28) 1_555 n
O2 Mn2 2.12495(28) 1_555 n
O2 Mn3 1.51266(26) -1_565 n
Mn2 Mn1 2.8258(6) 1_555 n
Mn2 Mn1 2.8258(6) -1_565 n
Mn2 Mn1 2.9516(5) 101_455 n
Mn2 Mn1 2.9516(5) 101_555 n
Mn2 Mn1 2.9516(5) -101_345 n
Mn2 Mn1 2.9516(5) -101_445 n
Mn2 O1 1.8692(5) 101_455 n
Mn2 O1 1.8692(5) 102_555 n
Mn2 O2 2.12495(28) 1_555 n
Mn2 O2 2.12495(28) 2_555 n
Mn2 O2 2.12495(28) -1_565 n
Mn2 O2 2.12495(28) -2_565 n
Mn3 Mn1 2.5293(4) -1_565 n
Mn3 Mn1 2.5293(4) -1_566 n
Mn3 Mn1 2.9632(7) 101_455 n
Mn3 Mn1 2.9632(7) 101_556 n
Mn3 O1 2.5625(4) 1_566 n
Mn3 O1 2.5625(4) 2_565 n
Mn3 O2 1.51266(26) -1_565 n
Mn3 O2 1.51266(26) -2_566 n
Mn3 Mn3 2.5263(6) -101_356 n
Mn3 Mn3 2.5263(6) -101_456 n
loop_
_pd_meas_counts_total
_pd_proc_ls_weight
_pd_proc_intensity_bkg_calc
_pd_calc_intensity_total
451.0 0.0 210.31895 .
464.0 0.0 210.69101 .
449.0 0.0 211.06097 .
415.0 0.0 211.42905 .
436.0 0.0 211.79507 .
469.0 0.0 212.15919 .
445.0 0.0 212.52133 .
453.0 0.0 212.88152 .
450.0 0.0 213.23973 .
464.0 0.0 213.59596 .
436.0 0.0 213.95029 .
460.0 0.0 214.30264 .
438.0 0.0 214.65309 .
448.0 0.0 215.00160 .
455.0 0.0 215.34814 .
448.0 0.0 215.69278 .
443.0 0.0 216.03552 .
443.0 0.0 216.37637 .
436.0 0.0 216.71526 .
427.0 0.0 217.05222 .
437.0 0.0 217.38733 .
412.0 0.0 217.72054 .
420.0 0.0 218.05180 .
400.0 0.0 218.38121 .
434.0 0.0 218.70871 .
390.0 0.0 219.03433 .
429.0 0.0 219.35809 .
459.0 0.0 219.67996 .
436.0 0.0 219.99998 .
443.0 0.0 220.31816 .
449.0 0.0 220.63446 .
449.0 0.0 220.94891 .
429.0 0.0 221.26151 .
432.0 0.0 221.57217 .
419.0 0.0 221.88107 .
423.0 0.0 222.18816 .
410.0 0.0 222.49336 .
426.0 0.0 222.79675 .
439.0 0.0 223.09834 .
440.0 0.0 223.39809 .
391.0 0.0 223.69603 .
410.0 0.0 223.99210 .
390.0 0.0 224.28641 .
413.0 0.0 224.57889 .
442.0 0.0 224.86960 .
397.0 0.0 225.15851 .
432.0 0.0 225.44560 .
440.0 0.0 225.73094 .
403.0 0.0 226.01448 .
400.0 0.0 226.29623 .
390.0 0.0 226.57620 .
447.0 0.0 226.85443 .
408.0 0.0 227.13086 .
423.0 0.0 227.40559 .
383.0 0.0 227.67848 .
389.0 0.0 227.94968 .
371.0 0.0 228.21907 .
389.0 0.0 228.48677 .
416.0 0.0 228.75273 .
372.0 0.0 229.01689 .
407.0 0.0 229.27933 .
393.0 0.0 229.54007 .
375.0 0.0 229.79904 .
373.0 0.0 230.05638 .
395.0 0.0 230.31189 .
360.0 0.0 230.56578 .
374.0 0.0 230.81790 .
412.0 0.0 231.06836 .
367.0 0.0 231.31711 .
373.0 0.0 231.56413 .
364.0 0.0 231.80949 .
377.0 0.0 232.05316 .
368.0 0.0 232.29514 .
424.0 0.0 232.53543 .
412.0 0.0 232.77406 .
391.0 0.0 233.01103 .
387.0 0.0 233.24631 .
361.0 0.0 233.47993 .
370.0 0.0 233.71187 .
364.0 0.0 233.94215 .
380.0 0.0 234.17081 .
393.0 0.0 234.39783 .
386.0 0.0 234.62317 .
352.0 0.0 234.84689 .
398.0 0.0 235.06894 .
398.0 0.0 235.28943 .
339.0 0.0 235.50827 .
369.0 0.0 235.72543 .
361.0 0.0 235.94104 .
337.0 0.0 236.15497 .
360.0 0.0 236.36729 .
363.0 0.0 236.57808 .
359.0 0.0 236.78719 .
342.0 0.0 236.99474 .
369.0 0.0 237.20068 .
359.0 0.0 237.40503 .
354.0 0.0 237.60777 .
368.0 0.0 237.80894 .
373.0 0.0 238.00851 .
365.0 0.0 238.20659 .
383.0 0.0 238.40300 .
351.0 0.0 238.59792 .
337.0 0.0 238.79120 .
391.0 0.0 238.98297 .
362.0 0.0 239.17313 .
360.0 0.0 239.36182 .
377.0 0.0 239.54890 .
331.0 0.0 239.73447 .
374.0 0.0 239.91846 .
368.0 0.0 240.10091 .
335.0 0.0 240.28186 .
338.0 0.0 240.46129 .
365.0 0.0 240.63914 .
330.0 0.0 240.81552 .
363.0 0.0 240.99037 .
351.0 0.0 241.16371 .
354.0 0.0 241.33553 .
372.0 0.0 241.50583 .
404.0 0.0 241.67462 .
385.0 0.0 241.84195 .
391.0 0.0 242.00778 .
384.0 0.0 242.17207 .
366.0 0.0 242.33493 .
360.0 0.0 242.49628 .
371.0 0.0 242.65619 .
331.0 0.0 242.81456 .
383.0 0.0 242.97150 .
340.0 0.0 243.12694 .
376.0 0.0 243.28093 .
305.0 0.0 243.43346 .
331.0 0.0 243.58453 .
347.0 0.0 243.73416 .
329.0 0.0 243.88237 .
376.0 0.0 244.02908 .
321.0 0.0 244.17438 .
317.0 0.0 244.31821 .
347.0 0.0 244.46065 .
337.0 0.0 244.60158 .
317.0 0.0 244.74117 .
322.0 0.0 244.87929 .
321.0 0.0 245.01599 .
360.0 0.0 245.15128 .
332.0 0.0 245.28519 .
329.0 0.0 245.41766 .
337.0 0.0 245.54875 .
303.0 0.0 245.67838 .
312.0 0.0 245.80670 .
313.0 0.0 245.93353 .
318.0 0.0 246.05904 .
323.0 0.0 246.18315 .
339.0 0.0 246.30591 .
333.0 0.0 246.42725 .
356.0 0.0 246.54716 .
327.0 0.0 246.66579 .
337.0 0.0 246.78305 .
329.0 0.0 246.89890 .
310.0 0.0 247.01340 .
306.0 0.0 247.12653 .
314.0 0.0 247.23831 .
376.0 0.0 247.34875 .
272.0 0.0 247.45786 .
345.0 0.0 247.56561 .
340.0 0.0 247.67203 .
306.0 0.0 247.77713 .
300.0 0.0 247.88086 .
317.0 0.0 247.98331 .
289.0 0.0 248.08438 .
304.0 0.0 248.18417 .
314.0 0.0 248.28262 .
310.0 0.0 248.37976 .
296.0 0.0 248.47562 .
314.0 0.0 248.57014 .
312.0 0.0 248.66336 .
286.0 0.0 248.75528 .
328.0 0.0 248.84592 .
271.0 0.0 248.93526 .
318.0 0.0 249.02330 .
292.0 0.0 249.11006 .
278.0 0.0 249.19554 .
320.0 0.0 249.27974 .
285.0 0.0 249.36266 .
301.0 0.0 249.44434 .
282.0 0.0 249.52470 .
314.0 0.0 249.60387 .
301.0 0.0 249.68173 .
289.0 0.0 249.75833 .
310.0 0.0 249.83371 .
292.0 0.0 249.90782 .
291.0 0.0 249.98068 .
285.0 0.0 250.05229 .
319.0 0.0 250.12265 .
284.0 0.0 250.19179 .
304.0 0.0 250.25972 .
270.0 0.0 250.32640 .
275.0 0.0 250.39183 .
294.0 0.0 250.45607 .
275.0 0.0 250.51907 .
291.0 0.0 250.58089 .
295.0 0.0 250.64143 .
268.0 0.0 250.70082 .
337.0 0.0 250.75899 .
283.0 0.0 250.81598 .
291.0 0.0 250.87173 .
260.0 0.0 250.92635 .
275.0 0.0 250.97971 .
267.0 0.0 251.03191 .
299.0 0.0 251.08290 .
275.0 0.0 251.13275 .
277.0 0.0 251.18140 .
270.0 0.0 251.22884 .
257.0 0.0 251.27521 .
282.0 0.0 251.32033 .
294.0 0.0 251.36432 .
255.0 0.0 251.40709 .
292.0 0.0 251.44875 .
262.0 0.0 251.48927 .
270.0 0.0 251.52863 .
300.0 0.0 251.56680 .
269.0 0.0 251.60387 .
307.0 0.0 251.63979 .
251.0 0.0 251.67461 .
290.0 0.0 251.70819 .
280.0 0.0 251.74074 .
296.0 0.0 251.77211 .
292.0 0.0 251.80240 .
257.0 0.0 251.83151 .
294.0 0.0 251.85956 .
286.0 0.0 251.88643 .
291.0 0.0 251.91222 .
268.0 0.0 251.93694 .
273.0 0.0 251.96053 .
272.0 0.0 251.98302 .
271.0 0.0 252.00439 .
248.0 0.0 252.02469 .
288.0 0.0 252.04390 .
272.0 0.0 252.06200 .
281.0 0.0 252.07901 .
284.0 0.0 252.09496 .
292.0 0.0 252.10982 .
234.0 0.0 252.12361 .
282.0 0.0 252.13635 .
267.0 0.0 252.14796 .
293.0 0.0 252.15854 .
263.0 0.0 252.16808 .
299.0 0.0 252.17654 .
281.0 0.0 252.18396 .
244.0 0.0 252.19032 .
253.0 0.0 252.19560 .
279.0 0.0 252.19989 .
269.0 0.0 252.20306 .
266.0 0.0 252.20526 .
255.0 0.0 252.20641 .
252.0 0.0 252.20648 .
264.0 0.0 252.20557 .
278.0 0.0 252.20363 .
253.0 0.0 252.20062 .
263.0 0.0 252.19664 .
269.0 0.0 252.19164 .
249.0 0.0 252.18562 .
272.0 0.0 252.17856 .
275.0 0.0 252.17050 .
233.0 0.0 252.16145 .
282.0 0.0 252.15140 .
232.0 0.0 252.14032 .
244.0 0.0 252.12831 .
291.0 0.0 252.11525 .
234.0 0.0 252.10117 .
273.0 0.00366 252.08620 252.26341
242.0 0.00413 252.07016 252.24878
262.0 0.00382 252.05319 252.23318
258.0 0.00388 252.03525 252.21660
279.0 0.00358 252.01630 252.19914
269.0 0.00372 251.99638 252.18069
252.0 0.00397 251.97549 252.16124
252.0 0.00397 251.95367 252.14090
249.0 0.00402 251.93086 252.11952
256.0 0.00391 251.90706 252.09727
228.0 0.00439 251.88242 252.07407
246.0 0.00407 251.85670 252.04991
267.0 0.00375 251.83011 252.02484
255.0 0.00392 251.80254 251.99883
268.0 0.00373 251.77400 251.97191
231.0 0.00433 251.74455 251.94403
259.0 0.00386 251.71419 251.91525
270.0 0.00370 251.68286 251.88556
260.0 0.00385 251.65060 251.85492
270.0 0.00370 251.61742 251.82338
239.0 0.00418 251.58331 251.79092
249.0 0.00402 251.54828 251.75755
247.0 0.00405 251.51231 252.18883
254.0 0.00394 251.47545 252.15764
247.0 0.00405 251.43771 252.35648
258.0 0.00388 251.39899 252.32545
248.0 0.00403 251.35941 252.29367
267.0 0.00375 251.31889 252.26109
240.0 0.00417 251.27748 252.22765
244.0 0.00410 251.23521 252.19347
242.0 0.00413 251.19200 252.15845
277.0 0.00361 251.14793 252.12267
232.0 0.00431 251.10294 252.08607
283.0 0.00353 251.05707 252.04871
254.0 0.00394 251.01031 252.01053
270.0 0.00370 250.96269 251.97162
248.0 0.00403 250.91418 251.93195
249.0 0.00402 250.86479 251.89151
227.0 0.00441 250.81454 251.85030
257.0 0.00389 250.76341 251.80833
253.0 0.00395 250.71144 251.76566
232.0 0.00431 250.65860 251.72220
219.0 0.00457 250.60489 251.67802
254.0 0.00394 250.55031 251.63312
236.0 0.00424 250.49487 251.58746
272.0 0.00368 250.43858 251.54111
217.0 0.00461 250.38148 251.49402
277.0 0.00361 250.32352 251.44624
257.0 0.00389 250.26471 251.39772
237.0 0.00422 250.20506 251.34851
224.0 0.00446 250.14456 251.29865
279.0 0.00358 250.08324 251.24808
250.0 0.00400 250.02110 251.19676
237.0 0.00422 249.95811 251.14481
234.0 0.00427 249.89429 251.09221
241.0 0.00415 249.82967 251.03889
265.0 0.00377 249.76424 250.98497
229.0 0.00437 249.69794 250.93034
267.0 0.00375 249.63086 250.87509
236.0 0.00424 249.56297 250.81918
236.0 0.00424 249.49426 250.76262
215.0 0.00465 249.42474 250.70549
234.0 0.00427 249.35446 250.64764
252.0 0.00397 249.28334 250.58923
244.0 0.00410 249.21143 250.53020
246.0 0.00407 249.13872 250.47057
238.0 0.00420 249.06525 255.21814
227.0 0.00441 248.99094 255.23058
238.0 0.00420 248.91586 255.24409
239.0 0.00418 248.84003 257.68082
240.0 0.00417 248.76340 257.73373
234.0 0.00427 248.68599 257.78882
224.0 0.00446 248.60780 257.84616
227.0 0.00441 248.52882 257.90579
244.0 0.00410 248.44910 257.96786
239.0 0.00418 248.36859 258.03244
245.0 0.00408 248.28734 258.09964
250.0 0.00400 248.20534 258.16959
238.0 0.00420 248.12257 258.24240
257.0 0.00389 248.03902 258.31821
229.0 0.00437 247.95474 258.39709
237.0 0.00422 247.86971 258.47919
255.0 0.00392 247.78394 258.56467
246.0 0.00407 247.69739 258.65369
240.0 0.00417 247.61014 258.74631
256.0 0.00391 247.52209 258.84271
236.0 0.00424 247.43336 258.94318
228.0 0.00439 247.34390 259.04767
248.0 0.00403 247.25369 259.15652
238.0 0.00420 247.16273 259.26984
243.0 0.00412 247.07108 259.38782
278.0 0.00360 246.97868 259.51071
255.0 0.00392 246.88557 259.63864
278.0 0.00360 246.79175 259.77182
227.0 0.00441 246.69720 259.91058
259.0 0.00386 246.60196 260.05499
241.0 0.00415 246.50601 260.20547
257.0 0.00389 246.40932 260.36221
228.0 0.00439 246.31197 260.52548
252.0 0.00397 246.21388 260.69553
219.0 0.00457 246.11513 260.87268
256.0 0.00391 246.01564 261.05722
248.0 0.00403 245.91548 261.24957
235.0 0.00426 245.81462 261.44995
253.0 0.00395 245.71307 261.65875
270.0 0.00370 245.61084 261.87643
243.0 0.00412 245.50797 262.10330
245.0 0.00408 245.40436 262.33984
252.0 0.00397 245.30009 262.58646
272.0 0.00368 245.19514 262.84369
218.0 0.00459 245.08952 263.11191
238.0 0.00420 244.98325 263.39169
277.0 0.00361 244.87628 263.68362
247.0 0.00405 244.76868 263.98822
255.0 0.00392 244.66035 264.30612
257.0 0.00389 244.55142 264.63803
240.0 0.00417 244.44185 264.98453
216.0 0.00463 244.33159 265.34644
249.0 0.00402 244.22066 265.72446
229.0 0.00437 244.10915 266.11945
245.0 0.00408 243.99692 266.53223
238.0 0.00420 243.88408 266.96378
251.0 0.00398 243.77058 267.41501
232.0 0.00431 243.65646 267.88702
213.0 0.00469 243.54170 268.38092
237.0 0.00422 243.42633 268.89780
236.0 0.00424 243.31027 269.43896
220.0 0.00455 243.19363 270.00586
221.0 0.00452 243.07634 270.59979
237.0 0.00422 242.95845 271.22232
240.0 0.00417 242.83990 271.87509
222.0 0.00450 242.72076 272.55984
224.0 0.00446 242.60100 273.27847
242.0 0.00413 242.48062 274.03302
235.0 0.00426 242.35963 274.82562
269.0 0.00372 242.23804 275.65857
265.0 0.00377 242.11586 276.53442
253.0 0.00395 241.99304 277.45590
297.0 0.003367 241.86963 278.42593
278.0 0.00360 241.74562 279.44757
277.0 0.00361 241.62103 280.52423
256.0 0.00391 241.49582 281.65967
260.0 0.00385 241.37004 282.85782
233.0 0.00429 241.24367 284.12299
279.0 0.00358 241.11671 285.45999
264.0 0.00379 240.98915 286.87375
280.0 0.00357 240.86102 288.37000
280.0 0.00357 240.73232 289.95471
296.0 0.003378 240.60304 291.63455
229.0 0.00437 240.47318 293.41684
256.0 0.00391 240.34274 295.30951
251.0 0.00398 240.21173 297.32117
278.0 0.00360 240.08018 299.46158
300.0 0.003333 239.94804 301.74127
285.0 0.00351 239.81537 304.17188
291.0 0.003436 239.68211 306.76639
283.0 0.00353 239.54832 309.53912
297.0 0.003367 239.41394 312.50598
290.0 0.003448 239.27904 315.68481
325.0 0.003077 239.14357 319.09561
278.0 0.00360 239.00755 322.76086
324.0 0.003086 238.87099 326.87454
335.0 0.002985 238.73387 331.13031
336.0 0.002976 238.59625 335.72925
343.0 0.002915 238.45805 340.79471
348.0 0.002874 238.31938 346.20618
366.0 0.002732 238.18011 352.10281
379.0 0.002639 238.04031 358.55234
382.0 0.002618 237.90004 365.63763
381.0 0.002625 237.75920 373.46121
410.0 0.002439 237.61783 382.15042
482.0 0.002075 237.47597 391.86429
459.0 0.002179 237.33354 402.80112
490.0 0.002041 237.19067 415.20728
500.0 0.002000 237.04724 429.38687
503.0 0.001988 236.90329 445.71149
515.0 0.001942 236.75883 464.62915
555.0 0.001802 236.61388 486.67221
544.0 0.001838 236.46841 512.46198
551.0 0.001815 236.32245 542.70850
606.0 0.001650 236.17598 578.20502
601.0 0.001664 236.02904 619.81506
677.0 0.001477 235.88156 668.44971
681.0 0.001468 235.73364 725.03693
714.0 0.001401 235.58516 790.47906
794.0 0.001259 235.43623 865.60126
918.0 0.001089 235.28683 951.08844
938.0 0.001066 235.13692 1047.40759
1068.0 0.000936 234.98653 1154.71533
1122.0 0.000891 234.83565 1272.73962
1158.0 0.000864 234.68433 1400.62927
1438.0 0.000695 234.53252 1536.76147
1606.0 0.000623 234.38020 1678.50647
1781.0 0.000561 234.22745 1821.98132
1914.0 0.000522 234.07423 1961.86401
2133.0 0.000469 233.92052 2091.39990
2401.0 0.000416 233.76637 2202.77515
2608.0 0.000383 233.61174 2287.97192
2743.0 0.000365 233.45667 2340.02637
2729.0 0.000366 233.30115 2354.38062
2768.0 0.000361 233.14514 2329.85034
2693.0 0.000371 232.98868 2268.84131
2610.0 0.000383 232.83180 2176.76270
2435.0 0.000411 232.67445 2060.89355
2127.0 0.000470 232.51668 1929.10803
1898.0 0.000527 232.35843 1788.81702
1747.0 0.000572 232.19975 1646.30579
1455.0 0.000687 232.04062 1506.47852
1357.0 0.000737 231.88109 1372.88672
1161.0 0.000861 231.72110 1247.91418
996.0 0.001004 231.56065 1133.00513
916.0 0.001092 231.39983 1028.88013
809.0 0.001236 231.23854 935.71490
747.0 0.001339 231.07681 853.28320
611.0 0.001637 230.91470 781.06940
617.0 0.001621 230.75217 718.35809
540.0 0.001852 230.58917 664.30914
539.0 0.001855 230.42578 618.01855
473.0 0.002114 230.26198 578.56799
487.0 0.002053 230.09778 545.06421
507.0 0.001972 229.93314 516.66766
465.0 0.002151 229.76810 492.61267
437.0 0.002288 229.60265 472.21848
423.0 0.002364 229.43681 454.89359
397.0 0.002519 229.27055 440.13419
392.0 0.002551 229.10391 427.51947
373.0 0.002681 228.93684 416.70285
371.0 0.002695 228.76941 407.40372
378.0 0.002646 228.60156 399.39670
362.0 0.002762 228.43333 392.50323
363.0 0.002755 228.26469 386.58264
326.0 0.003067 228.09572 381.52478
345.0 0.002899 227.92633 377.24377
327.0 0.003058 227.75653 373.67270
325.0 0.003077 227.58636 370.75977
317.0 0.003155 227.41583 368.46442
345.0 0.002899 227.24489 366.75528
325.0 0.003077 227.07361 365.60788
364.0 0.002747 226.90193 365.00293
322.0 0.003106 226.72990 364.92514
331.0 0.003021 226.55753 365.36185
334.0 0.002994 226.38472 366.30191
330.0 0.003030 226.21156 367.73499
328.0 0.003049 226.03809 369.64969
334.0 0.002994 225.86423 372.03302
360.0 0.002778 225.69002 374.86816
335.0 0.002985 225.51543 378.13336
391.0 0.002558 225.34050 381.79965
356.0 0.002809 225.16524 385.82849
357.0 0.002801 224.98958 390.17007
416.0 0.002404 224.81360 394.76013
379.0 0.002639 224.63727 399.51855
393.0 0.002545 224.46062 404.34753
449.0 0.002227 224.28358 409.13107
394.0 0.002538 224.10622 413.73611
402.0 0.002488 223.92853 418.01605
392.0 0.002551 223.75050 421.81522
397.0 0.002519 223.57214 424.97791
408.0 0.002451 223.39345 427.35712
426.0 0.002347 223.21442 428.82562
413.0 0.002421 223.03505 429.28668
469.0 0.002132 222.85539 428.68176
448.0 0.002232 222.67538 426.99628
450.0 0.002222 222.49506 424.26053
460.0 0.002174 222.31439 420.54636
467.0 0.002141 222.13344 415.96024
422.0 0.002370 221.95216 410.63370
454.0 0.002203 221.77054 404.71283
441.0 0.002268 221.58862 398.34787
429.0 0.002331 221.40643 391.68445
431.0 0.002320 221.22389 384.85666
437.0 0.002288 221.04103 377.98328
429.0 0.002331 220.85793 371.16476
439.0 0.002278 220.67448 364.48349
438.0 0.002283 220.49072 358.00369
452.0 0.002212 220.30669 351.77420
459.0 0.002179 220.12234 345.82950
404.0 0.002475 219.93771 340.19263
390.0 0.002564 219.75278 334.87671
419.0 0.002387 219.56754 329.88742
376.0 0.002660 219.38203 325.22409
438.0 0.002283 219.19626 320.88150
387.0 0.002584 219.01019 316.85068
401.0 0.002494 218.82384 313.11978
400.0 0.002500 218.63716 309.67499
398.0 0.002513 218.45024 306.50110
383.0 0.002611 218.26305 303.58142
394.0 0.002538 218.07556 300.89853
380.0 0.002632 217.88780 298.43439
385.0 0.002597 217.69977 296.17065
395.0 0.002532 217.51149 294.08862
388.0 0.002577 217.32294 292.16925
391.0 0.002558 217.13409 290.39392
383.0 0.002611 216.94501 288.74384
388.0 0.002577 216.75565 287.20065
352.0 0.002841 216.56602 285.74640
369.0 0.002710 216.37613 284.36380
397.0 0.002519 216.18600 283.03665
349.0 0.002865 215.99564 281.74945
350.0 0.002857 215.80499 280.48831
356.0 0.002809 215.61406 279.24057
360.0 0.002778 215.42294 277.99524
354.0 0.002825 215.23155 276.74326
344.0 0.002907 215.03990 275.47711
377.0 0.002653 214.84802 274.19144
339.0 0.002950 214.65590 272.88254
329.0 0.003040 214.46353 271.54865
335.0 0.002985 214.27092 270.18939
366.0 0.002732 214.07806 268.80600
339.0 0.002950 213.88498 267.40097
314.0 0.003185 213.69167 265.97754
355.0 0.002817 213.49815 264.53989
347.0 0.002882 213.30437 263.09259
337.0 0.002967 213.11037 261.64059
314.0 0.003185 212.91614 260.18875
348.0 0.002874 212.72169 258.74203
305.0 0.003279 212.52702 257.30496
299.0 0.003344 212.33212 255.88190
289.0 0.003460 212.13701 254.47670
357.0 0.002801 211.94168 253.09285
294.0 0.003401 211.74615 251.73323
330.0 0.003030 211.55037 250.40038
338.0 0.002959 211.35439 249.09633
319.0 0.003135 211.15822 247.82266
291.0 0.003436 210.96182 246.58055
342.0 0.002924 210.76523 245.37086
309.0 0.003236 210.56842 244.19408
302.0 0.003311 210.37143 243.05045
296.0 0.003378 210.17424 241.93994
339.0 0.002950 209.97678 240.86232
332.0 0.003012 209.77921 239.81720
323.0 0.003096 209.58139 238.80405
327.0 0.003058 209.38339 237.82222
297.0 0.003367 209.18518 236.87096
313.0 0.003195 208.98680 235.94943
312.0 0.003205 208.78825 235.05685
266.0 0.00376 208.58949 234.19223
336.0 0.002976 208.39053 233.35474
283.0 0.00353 208.19139 232.54337
250.0 0.00400 207.99208 231.75723
316.0 0.003165 207.79259 230.99544
292.0 0.003425 207.59293 230.25702
306.0 0.003268 207.39308 229.54109
281.0 0.00356 207.19304 228.84683
255.0 0.00392 206.99284 228.17334
294.0 0.003401 206.79248 227.51981
287.0 0.003484 206.59190 226.88542
287.0 0.003484 206.39120 226.26949
297.0 0.003367 206.19035 225.67117
297.0 0.003367 205.98930 225.08983
278.0 0.00360 205.78807 224.52478
300.0 0.003333 205.58670 223.97533
294.0 0.003401 205.38518 223.44098
296.0 0.003378 205.18349 222.92101
274.0 0.00365 204.98161 222.41490
264.0 0.00379 204.77960 221.92216
310.0 0.003226 204.57745 221.44226
279.0 0.00358 204.37512 220.97478
284.0 0.00352 204.17265 220.51920
286.0 0.003497 203.97003 220.07512
293.0 0.003413 203.76727 219.64223
278.0 0.00360 203.56438 219.22003
270.0 0.00370 203.36131 218.80824
273.0 0.00366 203.15811 218.40657
273.0 0.00366 202.95477 218.01469
273.0 0.00366 202.75131 217.63231
270.0 0.00370 202.54767 217.25923
261.0 0.00383 202.34390 216.89514
285.0 0.00351 202.14003 216.53989
277.0 0.00361 201.93602 216.19330
272.0 0.00368 201.73186 215.85512
266.0 0.00376 201.52757 215.52528
245.0 0.00408 201.32315 215.20361
236.0 0.00424 201.11861 214.89000
255.0 0.00392 200.91393 214.58438
270.0 0.00370 200.70914 214.28662
242.0 0.00413 200.50423 213.99673
270.0 0.00370 200.29922 213.71466
251.0 0.00398 200.09404 213.44034
257.0 0.00389 199.88878 213.17383
274.0 0.00365 199.68338 212.91515
225.0 0.00444 199.47787 212.66431
273.0 0.00366 199.27226 212.42137
272.0 0.00368 199.06653 212.18640
266.0 0.00376 198.86070 211.95955
288.0 0.003472 198.65475 211.74098
250.0 0.00400 198.44870 211.53076
278.0 0.00360 198.24254 211.32910
272.0 0.00368 198.03629 211.13623
233.0 0.00429 197.82993 210.95242
251.0 0.00398 197.62346 210.77791
253.0 0.00395 197.41687 210.61293
276.0 0.00362 197.21021 210.45793
237.0 0.00422 197.00346 210.31325
288.0 0.003472 196.79663 210.17934
252.0 0.00397 196.58968 210.05663
231.0 0.00433 196.38261 209.94563
215.0 0.00465 196.17548 209.84698
252.0 0.00397 195.96828 209.76126
240.0 0.00417 195.76096 209.68915
231.0 0.00433 195.55356 209.63138
232.0 0.00431 195.34610 209.58891
219.0 0.00457 195.13855 209.56253
247.0 0.00405 194.93089 209.55322
227.0 0.00441 194.72316 209.56213
291.0 0.003436 194.51535 209.59032
237.0 0.00422 194.30751 209.63910
252.0 0.00397 194.09953 209.70978
205.0 0.00488 193.89151 209.80389
225.0 0.00444 193.68338 209.92299
212.0 0.00472 193.47522 210.06866
244.0 0.00410 193.26700 210.24283
244.0 0.00410 193.05869 210.44733
230.0 0.00435 192.85030 210.68420
233.0 0.00429 192.64185 210.95566
255.0 0.00392 192.43335 211.26396
225.0 0.00444 192.22479 211.61145
260.0 0.00385 192.01614 212.00070
222.0 0.00450 191.80745 212.43433
258.0 0.00388 191.59871 212.91513
238.0 0.00420 191.38989 213.44580
247.0 0.00405 191.18103 214.02936
227.0 0.00441 190.97211 214.66867
206.0 0.00485 190.76318 215.36684
237.0 0.00422 190.55414 216.12669
249.0 0.00402 190.34505 216.95126
227.0 0.00441 190.13596 217.84332
222.0 0.00450 189.92677 218.80556
219.0 0.00457 189.71756 219.84019
228.0 0.00439 189.50830 220.94930
237.0 0.00422 189.29898 222.13425
218.0 0.00459 189.08968 223.44125
243.0 0.00412 188.88026 224.77953
212.0 0.00472 188.67084 226.19286
217.0 0.00461 188.46138 227.67836
247.0 0.00405 188.25188 229.25427
230.0 0.00435 188.04236 230.86858
236.0 0.00424 187.83278 232.53464
271.0 0.00369 187.62320 234.24037
266.0 0.00376 187.41356 235.97064
274.0 0.00365 187.20390 237.70671
282.0 0.00355 186.99422 239.42625
260.0 0.00385 186.78452 241.10353
270.0 0.00370 186.57477 242.70934
257.0 0.00389 186.36501 244.21202
248.0 0.00403 186.15523 245.57780
231.0 0.00433 185.94542 246.77277
225.0 0.00444 185.73558 247.76360
214.0 0.00467 185.52574 248.51982
235.0 0.00426 185.31587 249.01518
211.0 0.00474 185.10600 249.22963
196.0 0.00510 184.89609 249.15025
236.0 0.00424 184.68622 248.77246
195.0 0.00513 184.47627 248.10013
226.0 0.00442 184.26633 247.14540
202.0 0.00495 184.05640 245.92767
183.0 0.00546 183.84645 244.47260
211.0 0.00474 183.63651 242.81004
207.0 0.00483 183.42653 240.97293
198.0 0.00505 183.21655 238.99510
224.0 0.00446 183.00656 236.90993
182.0 0.00549 182.79659 234.74939
195.0 0.00513 182.58662 232.54254
203.0 0.00493 182.37665 230.31567
228.0 0.00439 182.16669 228.09131
203.0 0.00493 181.95673 225.88844
214.0 0.00467 181.74677 223.72281
218.0 0.00459 181.53680 221.60677
199.0 0.00503 181.32683 219.54984
180.0 0.00556 181.11690 217.55908
197.0 0.00508 180.90694 215.63937
214.0 0.00467 180.69702 213.79370
211.0 0.00474 180.48711 212.02359
187.0 0.00535 180.27722 210.32945
190.0 0.00526 180.06732 208.71068
195.0 0.00513 179.85745 207.16595
196.0 0.00510 179.64760 205.69337
198.0 0.00505 179.43777 204.29063
217.0 0.00461 179.22794 202.95512
206.0 0.00485 179.01814 201.68402
179.0 0.00559 178.80836 200.47444
213.0 0.00469 178.59863 199.32333
195.0 0.00513 178.38889 198.22772
175.0 0.00571 178.17917 197.18460
216.0 0.00463 177.96951 196.19110
182.0 0.00549 177.75983 195.24417
192.0 0.00521 177.55022 194.34126
207.0 0.00483 177.34062 193.47958
200.0 0.00500 177.13106 192.65654
167.0 0.00599 176.92152 191.86978
176.0 0.00568 176.71205 191.11685
189.0 0.00529 176.50256 190.39558
193.0 0.00518 176.29314 189.70386
189.0 0.00529 176.08377 189.03975
170.0 0.00588 175.87444 188.40140
184.0 0.00543 175.66510 187.78706
179.0 0.00559 175.45583 187.19502
181.0 0.00552 175.24660 186.62386
168.0 0.00595 175.03741 186.07210
178.0 0.00562 174.82828 185.53848
171.0 0.00585 174.61917 185.02170
194.0 0.00515 174.41013 184.52068
183.0 0.00546 174.20113 184.03438
200.0 0.00500 173.99219 183.56175
197.0 0.00508 173.78326 183.10196
180.0 0.00556 173.57440 182.65407
165.0 0.00606 173.36560 182.21747
178.0 0.00562 173.15685 181.79131
193.0 0.00518 172.94817 181.37502
190.0 0.00526 172.73952 180.96802
187.0 0.00535 172.53091 180.56967
165.0 0.00606 172.32240 180.17950
156.0 0.00641 172.11395 179.79703
171.0 0.00585 171.90553 179.42181
171.0 0.00585 171.69716 179.05342
185.0 0.00541 171.48889 178.69159
167.0 0.00599 171.28069 178.33582
176.0 0.00568 171.07251 177.98586
174.0 0.00575 170.86441 177.64140
175.0 0.00571 170.65639 177.30222
187.0 0.00535 170.44843 176.96802
170.0 0.00588 170.24052 176.63847
166.0 0.00602 170.03273 176.31346
171.0 0.00585 169.82498 175.99277
161.0 0.00621 169.61728 175.67613
179.0 0.00559 169.40970 175.36343
155.0 0.00645 169.20215 175.05444
151.0 0.00662 168.99469 174.74905
170.0 0.00588 168.78731 174.44707
174.0 0.00575 168.58000 174.14836
158.0 0.00633 168.37277 173.85280
175.0 0.00571 168.16562 173.56029
171.0 0.00585 167.95857 173.27066
171.0 0.00585 167.75157 172.98381
165.0 0.00606 167.54468 172.69963
166.0 0.00602 167.33784 172.41806
196.0 0.00510 167.13112 172.13899
163.0 0.00613 166.92447 171.86227
154.0 0.00649 166.71790 171.58791
166.0 0.00602 166.51143 171.31577
158.0 0.00633 166.30504 171.04579
171.0 0.00585 166.09875 170.77792
192.0 0.00521 165.89253 170.51212
180.0 0.00556 165.68640 170.24821
196.0 0.00510 165.48038 169.98625
162.0 0.00617 165.27444 169.72614
158.0 0.00633 165.06862 169.46779
141.0 0.00709 164.86287 169.21123
142.0 0.00704 164.65724 168.95636
160.0 0.00625 164.45168 168.70314
164.0 0.00610 164.24623 168.45158
154.0 0.00649 164.04091 168.20154
165.0 0.00606 163.83565 167.95305
185.0 0.00541 163.63049 167.70612
172.0 0.00581 163.42545 167.46063
153.0 0.00654 163.22052 167.21660
160.0 0.00625 163.01569 166.97403
156.0 0.00641 162.81094 166.73280
159.0 0.00629 162.60634 166.49298
152.0 0.00658 162.40179 166.25453
170.0 0.00588 162.19739 166.01738
181.0 0.00552 161.99309 165.78159
157.0 0.00637 161.78891 165.54712
153.0 0.00654 161.58484 165.31392
184.0 0.00543 161.38086 165.08203
153.0 0.00654 161.17702 164.85135
152.0 0.00658 160.97328 164.62204
165.0 0.00606 160.76965 164.39395
183.0 0.00546 160.56613 164.16711
146.0 0.00685 160.36275 163.94156
161.0 0.00621 160.15948 163.71725
154.0 0.00649 159.95633 163.49423
151.0 0.00662 159.75328 163.27251
173.0 0.00578 159.55038 163.05200
139.0 0.00719 159.34761 162.83286
152.0 0.00658 159.14493 162.61496
149.0 0.00671 158.94237 162.39841
151.0 0.00662 158.73996 162.18318
159.0 0.00629 158.53764 161.96933
170.0 0.00588 158.33549 161.75687
154.0 0.00649 158.13342 161.54579
163.0 0.00613 157.93152 161.33623
155.0 0.00645 157.72974 161.12811
157.0 0.00637 157.52808 160.92146
143.0 0.00699 157.32654 160.71637
183.0 0.00546 157.12515 160.51291
175.0 0.00571 156.92390 160.31111
137.0 0.00730 156.72278 160.11104
158.0 0.00633 156.52176 159.91269
150.0 0.00667 156.32088 159.71620
141.0 0.00709 156.12019 159.52164
148.0 0.00676 155.91960 159.32909
140.0 0.00714 155.71915 159.13857
147.0 0.00680 155.51884 158.95030
162.0 0.00617 155.31866 158.76430
159.0 0.00629 155.11864 158.58072
141.0 0.00709 154.91875 158.39972
139.0 0.00719 154.71899 158.22137
181.0 0.00552 154.51938 158.04596
158.0 0.00633 154.31993 157.87360
131.0 0.00763 154.12062 157.70448
141.0 0.00709 153.92142 157.53891
166.0 0.00602 153.72241 157.37711
116.0 0.00862 153.52353 157.21939
159.0 0.00629 153.32480 157.06604
146.0 0.00685 153.12621 156.91753
145.0 0.00690 152.92776 156.77420
152.0 0.00658 152.72949 156.63658
167.0 0.00599 152.53139 156.50522
152.0 0.00658 152.33337 156.38074
148.0 0.00676 152.13554 156.26382
155.0 0.00645 151.93790 156.15523
129.0 0.00775 151.74037 156.06276
141.0 0.00709 151.54300 155.97357
158.0 0.00633 151.34578 155.89557
147.0 0.00680 151.14874 155.83006
147.0 0.00680 150.95184 155.78169
147.0 0.00680 150.75511 155.74498
159.0 0.00629 150.55852 155.72481
149.0 0.00671 150.36214 155.72304
164.0 0.00610 150.16589 155.74121
141.0 0.00709 149.96980 155.78130
172.0 0.00581 149.77385 155.84520
173.0 0.00578 149.57808 155.93492
151.0 0.00662 149.38249 156.05257
142.0 0.00704 149.18706 156.20021
163.0 0.00613 148.99176 156.37996
159.0 0.00629 148.79668 156.59381
142.0 0.00704 148.60175 156.84364
149.0 0.00671 148.40695 157.13116
141.0 0.00709 148.21234 157.45778
163.0 0.00613 148.01793 157.82431
149.0 0.00671 147.82367 158.23109
151.0 0.00662 147.62958 158.67751
149.0 0.00671 147.43564 159.16176
169.0 0.00592 147.24188 159.68065
153.0 0.00654 147.04832 160.22908
143.0 0.00699 146.85492 160.79958
155.0 0.00645 146.66170 161.38206
143.0 0.00699 146.46863 161.96339
154.0 0.00649 146.27577 162.52748
137.0 0.00730 146.08308 163.05521
164.0 0.00610 145.89055 163.52518
148.0 0.00676 145.69820 163.91499
147.0 0.00680 145.50604 164.20233
154.0 0.00649 145.31407 164.36737
173.0 0.00578 145.12227 164.39415
151.0 0.00662 144.93063 164.27257
163.0 0.00613 144.73923 163.99928
116.0 0.00862 144.54797 163.57788
153.0 0.00654 144.35689 163.01878
159.0 0.00629 144.16597 162.33771
148.0 0.00676 143.97528 161.55417
136.0 0.00735 143.78474 160.68987
137.0 0.00730 143.59444 159.76662
153.0 0.00654 143.40428 158.80550
146.0 0.00685 143.21434 157.82516
130.0 0.00769 143.02457 156.84183
125.0 0.00800 142.83498 155.86871
146.0 0.00685 142.64558 154.91606
138.0 0.00725 142.45638 153.99155
117.0 0.00855 142.26736 153.10068
158.0 0.00633 142.07855 152.24687
151.0 0.00662 141.88991 151.43213
156.0 0.00641 141.70146 150.65721
125.0 0.00800 141.51324 149.92210
137.0 0.00730 141.32521 149.22589
140.0 0.00714 141.13733 148.56738
147.0 0.00680 140.94968 147.94490
155.0 0.00645 140.76225 147.35660
140.0 0.00714 140.57498 146.80054
142.0 0.00704 140.38791 146.27460
141.0 0.00709 140.20103 145.77675
134.0 0.00746 140.01439 145.30489
128.0 0.00781 139.82791 144.85698
136.0 0.00735 139.64165 144.43103
130.0 0.00769 139.45557 144.02525
153.0 0.00654 139.26971 143.63786
139.0 0.00719 139.08406 143.18149
136.0 0.00735 138.89859 142.82648
155.0 0.00645 138.71332 141.67099
164.0 0.00610 138.52827 141.34576
131.0 0.00763 138.34343 141.03177
124.0 0.00806 138.15877 140.72792
149.0 0.00671 137.97433 140.43330
125.0 0.00800 137.79010 140.14690
140.0 0.00714 137.60609 139.86809
135.0 0.00741 137.42226 139.59602
154.0 0.00649 137.23866 139.33012
134.0 0.00746 137.05527 139.06985
116.0 0.00862 136.87209 138.81471
130.0 0.00769 136.68910 138.56422
120.0 0.00833 136.50630 138.31799
149.0 0.00671 136.32376 138.07574
120.0 0.00833 136.14140 137.83711
128.0 0.00781 135.95927 137.60184
151.0 0.00662 135.77737 137.36966
110.0 0.00909 135.59564 137.14035
142.0 0.00704 135.41417 136.91371
139.0 0.00719 135.23289 136.68961
128.0 0.00781 135.05182 136.46786
144.0 0.00694 134.87096 136.24828
133.0 0.00752 134.69034 136.03084
118.0 0.00847 134.50993 135.81528
139.0 0.00719 134.32973 135.60161
130.0 0.00769 134.14975 135.50764
144.0 0.00694 133.97000 135.29808
144.0 0.00694 133.79048 135.08998
147.0 0.00680 133.61116 134.88341
144.0 0.00694 133.43205 134.73685
114.0 0.00877 133.25316 134.53339
131.0 0.00763 133.07451 134.33124
129.0 0.00775 132.89607 134.13029
137.0 0.00730 132.71786 133.93051
137.0 0.00730 132.53986 133.73189
138.0 0.00725 132.36214 133.53436
119.0 0.00840 132.18459 133.33784
129.0 0.00775 132.00726 133.14232
127.0 0.00787 131.83017 132.94775
143.0 0.00699 131.65332 132.75414
150.0 0.00667 131.47668 132.56142
114.0 0.00877 131.30025 132.36952
113.0 0.00885 131.12405 132.17847
129.0 0.00775 130.94814 131.98824
132.0 0.00758 130.77238 131.79878
123.0 0.00813 130.59689 131.61008
125.0 0.00800 130.42162 131.42210
121.0 0.00826 130.24660 131.23486
117.0 0.00855 130.07178 131.04828
136.0 0.00735 129.89722 130.86235
111.0 0.00901 129.72285 130.67712
128.0 0.00781 129.54874 130.49251
119.0 0.00840 129.37488 130.30853
130.0 0.00769 129.20122 130.12514
133.0 0.00752 129.02779 129.94232
101.0 0.00990 128.85461 129.76013
115.0 0.00870 128.68167 129.57851
121.0 0.00826 128.50897 129.39742
134.0 0.00746 128.33650 129.21687
111.0 0.00901 128.16425 128.86832
137.0 0.00730 127.99225 128.69002
119.0 0.00840 127.82047 128.51221
95.0 0.01053 127.64893 128.25084
112.0 0.00893 127.47765 128.07458
140.0 0.00714 127.30661 127.89879
106.0 0.00943 127.13580 127.72348
113.0 0.00885 126.96522 127.54860
121.0 0.00826 126.79488 127.37418
115.0 0.00870 126.62479 127.20023
127.0 0.00787 126.45493 127.02673
118.0 0.00847 126.28532 126.85366
130.0 0.00769 126.11594 126.68098
115.0 0.00870 125.94682 126.50874
123.0 0.00813 125.77792 126.33694
106.0 0.00943 125.60928 126.16557
120.0 0.00833 125.44089 125.99461
117.0 0.00855 125.27272 125.82405
134.0 0.00746 125.10480 125.65388
108.0 0.00926 124.93713 125.48415
126.0 0.00794 124.76970 125.31478
136.0 0.00735 124.60252 125.14583
106.0 0.00943 124.43561 124.97728
120.0 0.00833 124.26890 124.80910
116.0 0.00862 124.10245 124.64134
130.0 0.00769 123.93626 124.47397
123.0 0.00813 123.77035 124.30697
116.0 0.00862 123.60464 124.14037
115.0 0.00870 123.43918 123.97413
105.0 0.00952 123.27398 123.80830
119.0 0.00840 123.10904 123.64284
102.0 0.00980 122.94434 123.47776
121.0 0.00826 122.77987 123.31305
105.0 0.00952 122.61566 123.14873
108.0 0.00926 122.45173 122.98481
112.0 0.00893 122.28802 122.82123
112.0 0.00893 122.12459 122.65805
97.0 0.01031 121.96136 122.49526
104.0 0.00962 121.79845 122.33283
118.0 0.00847 121.63575 122.17078
122.0 0.00820 121.47330 122.00912
119.0 0.00840 121.31113 121.84782
106.0 0.00943 121.14922 121.68691
115.0 0.00870 120.98752 121.52640
120.0 0.00833 120.82610 121.36624
122.0 0.00820 120.66492 121.20645
105.0 0.00952 120.50402 121.04707
96.0 0.01042 120.34337 120.88811
86.0 0.01163 120.18297 120.72949
122.0 0.00820 120.02282 120.57127
107.0 0.00935 119.86292 120.41346
111.0 0.00901 119.70330 120.25603
95.0 0.01053 119.54392 120.09898
121.0 0.00826 119.38480 119.94236
112.0 0.00893 119.22595 119.78610
124.0 0.00806 119.06738 119.63030
137.0 0.00730 118.90903 119.47486
130.0 0.00769 118.75095 119.31983
106.0 0.00943 118.59313 119.16525
117.0 0.00855 118.43558 119.01109
109.0 0.00917 118.27827 118.85733
114.0 0.00877 118.12124 118.70397
120.0 0.00833 117.96445 118.55106
109.0 0.00917 117.80797 118.39861
127.0 0.00787 117.65170 118.24660
118.0 0.00847 117.49570 118.09503
115.0 0.00870 117.33997 117.94393
104.0 0.00962 117.18452 117.79327
116.0 0.00862 117.02930 117.64311
105.0 0.00952 116.87435 117.49341
119.0 0.00840 116.71968 117.34417
100.0 0.01000 116.56527 117.19545
115.0 0.00870 116.41114 117.04724
105.0 0.00952 116.25725 116.89954
92.0 0.01087 116.10362 116.75237
107.0 0.00935 115.95027 116.60573
83.0 0.01205 115.79718 116.45966
102.0 0.00980 115.64435 116.31416
131.0 0.00763 115.49180 116.16922
117.0 0.00855 115.33950 116.02489
115.0 0.00870 115.18748 115.88116
112.0 0.00893 115.03571 115.73811
142.0 0.00704 114.88423 115.59567
145.0 0.00690 114.73300 115.45393
113.0 0.00885 114.58206 115.31290
122.0 0.00820 114.43137 115.17259
96.0 0.01042 114.28095 115.03305
110.0 0.00909 114.13080 114.89431
118.0 0.00847 113.98092 114.75641
121.0 0.00826 113.83130 117.19646
105.0 0.00952 113.68196 117.07658
109.0 0.00917 113.53288 116.95785
111.0 0.00901 113.38411 116.84026
105.0 0.00952 113.23558 116.72391
121.0 0.00826 113.08731 117.89402
129.0 0.00775 112.93932 117.78841
121.0 0.00826 112.79158 117.68433
109.0 0.00917 112.64413 117.58179
99.0 0.01010 112.49696 117.48095
123.0 0.00813 112.35005 117.38187
121.0 0.00826 112.20344 117.28468
104.0 0.00962 112.05706 117.18939
119.0 0.00840 111.91097 117.09619
124.0 0.00806 111.76516 117.00517
116.0 0.00862 111.61961 116.91651
104.0 0.00962 111.47435 116.83025
105.0 0.00952 111.32934 116.74658
122.0 0.00820 111.18464 116.66566
101.0 0.00990 111.04019 116.58759
111.0 0.00901 110.89600 116.51252
98.0 0.01020 110.75211 116.44066
106.0 0.00943 110.60847 116.37209
118.0 0.00847 110.46513 116.30701
125.0 0.00800 110.32203 116.24557
104.0 0.00962 110.17925 116.18793
127.0 0.00787 110.03674 116.13423
112.0 0.00893 109.89449 116.08453
94.0 0.01064 109.75252 116.03895
97.0 0.01031 109.61082 115.99756
90.0 0.01111 109.46938 115.96043
102.0 0.00980 109.32825 115.92749
127.0 0.00787 109.18737 115.85282
116.0 0.00862 109.04678 115.82830
118.0 0.00847 108.90647 115.80740
100.0 0.01000 108.76646 115.78975
112.0 0.00893 108.62669 115.75199
93.0 0.01075 108.48722 115.73910
121.0 0.00826 108.34801 115.72725
112.0 0.00893 108.20908 115.71534
119.0 0.00840 108.07044 115.70211
91.0 0.01099 107.93207 115.68614
102.0 0.00980 107.79398 115.66587
100.0 0.01000 107.65620 115.63966
106.0 0.00943 107.51865 115.60587
97.0 0.01031 107.38141 115.56297
109.0 0.00917 107.24444 115.50957
115.0 0.00870 107.10774 115.44454
108.0 0.00926 106.97133 115.36713
120.0 0.00833 106.83520 115.27700
125.0 0.00800 106.69934 115.17414
108.0 0.00926 106.56380 115.05915
126.0 0.00794 106.42850 114.93272
135.0 0.00741 106.29350 114.87601
122.0 0.00820 106.15876 114.73154
112.0 0.00893 106.02431 114.57982
101.0 0.00990 105.89014 114.42252
127.0 0.00787 105.75626 114.26120
122.0 0.00820 105.62264 114.13749
130.0 0.00769 105.48932 113.97314
94.0 0.01064 105.35631 113.80905
102.0 0.00980 105.22354 113.64622
113.0 0.00885 105.09106 113.48557
121.0 0.00826 104.95886 113.32783
119.0 0.00840 104.82695 113.17358
109.0 0.00917 104.69531 113.02323
118.0 0.00847 104.56398 112.87712
117.0 0.00855 104.43290 112.73542
113.0 0.00885 104.30214 112.59828
125.0 0.00800 104.17165 112.46574
119.0 0.00840 104.04143 112.33777
118.0 0.00847 103.91150 112.21438
121.0 0.00826 103.78184 112.09545
94.0 0.01064 103.65247 111.98092
112.0 0.00893 103.52339 111.87065
101.0 0.00990 103.39459 111.76455
108.0 0.00926 103.26608 111.66251
100.0 0.01000 103.13786 111.56435
107.0 0.00935 103.00990 111.46993
83.0 0.01205 102.88226 111.37918
117.0 0.00855 102.75486 111.29191
102.0 0.00980 102.62778 111.20808
105.0 0.00952 102.50096 111.12747
103.0 0.00971 102.37444 111.72504
99.0 0.01010 102.24821 111.65704
101.0 0.00990 102.12226 111.59210
104.0 0.00962 101.99659 111.53011
109.0 0.00917 101.87120 111.80508
114.0 0.00877 101.74609 111.75192
100.0 0.01000 101.62129 111.70155
104.0 0.00962 101.49676 111.65390
111.0 0.00901 101.37251 111.60895
116.0 0.00862 101.24854 111.56660
92.0 0.01087 101.12491 111.52689
110.0 0.00909 101.00151 111.48972
122.0 0.00820 100.87841 111.45510
122.0 0.00820 100.75559 111.42297
99.0 0.01010 100.63306 111.39337
105.0 0.00952 100.51082 111.36624
99.0 0.01010 100.38887 111.34160
110.0 0.00909 100.26719 111.31943
93.0 0.01075 100.14583 111.29977
108.0 0.00926 100.02473 111.28258
102.0 0.00980 99.90392 111.26790
86.0 0.01163 99.78339 111.25628
99.0 0.01010 99.66314 111.24664
117.0 0.00855 99.54318 111.23955
114.0 0.00877 99.42352 111.23509
120.0 0.00833 99.30414 111.23323
89.0 0.01124 99.18504 111.23424
115.0 0.00870 99.06626 111.23771
119.0 0.00840 98.94773 111.24386
96.0 0.01042 98.82951 111.25275
107.0 0.00935 98.71156 111.26447
87.0 0.01149 98.59390 111.27901
116.0 0.00862 98.47652 111.29643
104.0 0.00962 98.35944 111.31681
85.0 0.01176 98.24264 111.39528
101.0 0.00990 98.12616 111.42218
84.0 0.01190 98.00993 111.45214
106.0 0.00943 97.89398 111.48531
95.0 0.01053 97.77834 111.52174
123.0 0.00813 97.66298 111.58897
115.0 0.00870 97.54790 111.63232
111.0 0.00901 97.43311 111.67914
95.0 0.01053 97.31861 111.72948
108.0 0.00926 97.20442 111.78347
93.0 0.01075 97.09050 111.84115
107.0 0.00935 96.97686 111.90264
100.0 0.01000 96.86350 111.96798
99.0 0.01010 96.75043 112.03732
111.0 0.00901 96.63766 112.11078
112.0 0.00893 96.52517 112.18841
87.0 0.01149 96.41298 112.27036
90.0 0.01111 96.30106 112.35673
103.0 0.00971 96.18945 112.44764
119.0 0.00840 96.07809 112.54321
103.0 0.00971 95.96706 112.64357
94.0 0.01064 95.85629 112.74887
117.0 0.00855 95.74582 112.85928
101.0 0.00990 95.63564 112.97489
106.0 0.00943 95.52571 113.09589
90.0 0.01111 95.41611 113.22245
105.0 0.00952 95.30679 113.35477
124.0 0.00806 95.19776 113.49298
84.0 0.01190 95.08900 113.63729
99.0 0.01010 94.98054 113.78789
119.0 0.00840 94.87237 113.94500
89.0 0.01124 94.76447 114.10886
106.0 0.00943 94.65688 114.27969
101.0 0.00990 94.54956 114.45772
109.0 0.00917 94.44255 114.64326
75.0 0.01333 94.33581 114.83650
106.0 0.00943 94.22936 115.03779
96.0 0.01042 94.12319 115.24743
75.0 0.01333 94.01731 115.46569
102.0 0.00980 93.91172 115.69299
101.0 0.00990 93.80642 115.92960
104.0 0.00962 93.70140 116.17599
99.0 0.01010 93.59668 116.43253
109.0 0.00917 93.49226 116.69966
99.0 0.01010 93.38809 116.97779
107.0 0.00935 93.28424 117.26742
106.0 0.00943 93.18065 117.56907
99.0 0.01010 93.07736 117.88332
110.0 0.00909 92.97435 118.21065
93.0 0.01075 92.87163 118.55175
104.0 0.00962 92.76920 118.90725
130.0 0.00769 92.66707 119.27784
107.0 0.00935 92.56522 119.66425
100.0 0.01000 92.46365 120.06725
101.0 0.00990 92.36237 120.48768
108.0 0.00926 92.26135 120.92638
104.0 0.00962 92.16064 121.38433
116.0 0.00862 92.06022 121.86253
109.0 0.00917 91.96008 122.36195
106.0 0.00943 91.86024 122.88381
112.0 0.00893 91.76068 123.42920
109.0 0.00917 91.66140 123.99940
104.0 0.00962 91.56241 124.59576
109.0 0.00917 91.46369 125.21973
105.0 0.00952 91.36527 125.87276
110.0 0.00909 91.26714 126.55650
98.0 0.01020 91.16928 127.27264
129.0 0.00775 91.07172 128.02306
116.0 0.00862 90.97446 128.80968
103.0 0.00971 90.87746 129.63454
115.0 0.00870 90.78075 130.49995
122.0 0.00820 90.68433 131.40829
140.0 0.00714 90.58820 132.36218
108.0 0.00926 90.49234 133.36436
124.0 0.00806 90.39677 134.41991
125.0 0.00800 90.30150 135.52794
131.0 0.00763 90.20652 136.69405
117.0 0.00855 90.11179 137.92178
124.0 0.00806 90.01739 139.21518
135.0 0.00741 89.92324 140.57848
119.0 0.00840 89.82938 142.01706
111.0 0.00901 89.73581 143.53357
120.0 0.00833 89.64252 145.13382
145.0 0.00690 89.54952 146.82275
131.0 0.00763 89.45680 148.60519
135.0 0.00741 89.36437 150.48590
144.0 0.00694 89.27222 152.46951
170.0 0.00588 89.18035 154.56013
145.0 0.00690 89.08877 156.76126
153.0 0.00654 88.99747 159.07562
149.0 0.00671 88.90645 161.50482
159.0 0.00629 88.81572 164.04900
172.0 0.00581 88.72526 166.70645
161.0 0.00621 88.63512 169.47342
199.0 0.00503 88.54524 172.34334
172.0 0.00581 88.45564 175.30621
197.0 0.00508 88.36633 178.34837
169.0 0.00592 88.27730 181.45097
199.0 0.00503 88.18855 184.58968
158.0 0.00633 88.10007 187.73334
196.0 0.00510 88.01189 190.84364
249.0 0.00402 87.92400 193.87453
200.0 0.00500 87.83638 196.77286
207.0 0.00483 87.74904 199.48022
193.0 0.00518 87.66199 201.93640
214.0 0.00467 87.57520 204.08377
214.0 0.00467 87.48871 205.87321
214.0 0.00467 87.40250 207.26895
195.0 0.00513 87.31657 208.25282
233.0 0.00429 87.23094 208.82558
234.0 0.00427 87.14557 209.00665
205.0 0.00488 87.06049 208.83147
193.0 0.00518 86.97568 208.34799
242.0 0.00413 86.89115 207.61252
234.0 0.00427 86.80690 206.68588
199.0 0.00503 86.72295 205.62914
226.0 0.00442 86.63926 204.50049
219.0 0.00457 86.55585 203.35286
212.0 0.00472 86.47275 202.23257
198.0 0.00505 86.38990 201.17828
209.0 0.00478 86.30733 200.22183
192.0 0.00521 86.22505 199.38847
205.0 0.00488 86.14304 198.69778
229.0 0.00437 86.06131 198.16478
219.0 0.00457 85.97987 197.80060
228.0 0.00439 85.89869 197.61333
258.0 0.00388 85.81782 197.60883
226.0 0.00442 85.73721 197.79121
239.0 0.00418 85.65688 198.16324
272.0 0.00368 85.57682 198.74989
263.0 0.00380 85.49705 199.50696
265.0 0.00377 85.41753 200.45833
269.0 0.00372 85.33831 201.60561
246.0 0.00407 85.25937 202.95029
261.0 0.00383 85.18073 204.49460
255.0 0.00392 85.10233 206.25304
253.0 0.00395 85.02422 208.20628
276.0 0.00362 84.94638 210.37067
273.0 0.00366 84.86882 212.75201
273.0 0.00366 84.79153 215.40514
228.0 0.00439 84.71453 218.24400
253.0 0.00395 84.63779 221.32607
250.0 0.00400 84.56133 224.66328
250.0 0.00400 84.48516 228.26949
268.0 0.00373 84.40925 232.16045
240.0 0.00417 84.33363 236.37793
248.0 0.00403 84.25827 240.89485
272.0 0.00368 84.18319 245.75739
251.0 0.00398 84.10839 250.99088
272.0 0.00368 84.03386 256.62320
275.0 0.00364 83.95962 262.68497
243.0 0.00412 83.88563 269.20990
256.0 0.00391 83.81192 276.23441
275.0 0.00364 83.73849 283.79785
287.0 0.003484 83.66533 291.94272
276.0 0.00362 83.59245 300.71381
305.0 0.003279 83.51983 310.15900
356.0 0.002809 83.44748 320.32831
317.0 0.003155 83.37541 331.27383
346.0 0.002890 83.30363 343.04926
345.0 0.002899 83.23210 355.70905
387.0 0.002584 83.16085 369.30811
406.0 0.002463 83.08987 383.91309
385.0 0.002597 83.01917 399.54950
425.0 0.002353 82.94872 416.27756
488.0 0.002049 82.87856 434.13779
453.0 0.002208 82.80866 453.16104
500.0 0.002000 82.73904 473.36444
503.0 0.001988 82.66970 494.75305
549.0 0.001821 82.60061 517.28796
523.0 0.001912 82.53179 540.91852
575.0 0.001739 82.46325 565.54962
585.0 0.001709 82.39497 591.04187
608.0 0.001645 82.32697 617.20679
616.0 0.001623 82.25924 643.80603
670.0 0.001493 82.19176 670.55646
710.0 0.001408 82.12459 697.14111
750.0 0.001333 82.05765 723.22882
776.0 0.001289 81.99098 748.49823
780.0 0.001282 81.92459 772.66541
807.0 0.001239 81.85847 795.50958
831.0 0.001203 81.79261 816.89087
836.0 0.001196 81.72701 836.75732
903.0 0.001107 81.66169 855.14307
935.0 0.001070 81.59664 872.15485
1024.0 0.000977 81.53185 887.95074
909.0 0.001100 81.46732 902.71838
1003.0 0.000997 81.40307 916.64813
1017.0 0.000983 81.33907 929.90930
1048.0 0.000954 81.27534 942.63019
998.0 0.001002 81.21188 954.88184
1055.0 0.000948 81.14868 966.66901
1070.0 0.000935 81.08575 977.92676
1134.0 0.000882 81.02309 988.51630
1062.0 0.000942 80.96069 998.26373
1080.0 0.000926 80.89854 1006.92719
1152.0 0.000868 80.83667 1014.24298
1082.0 0.000924 80.77506 1019.93134
1120.0 0.000893 80.71371 1023.72760
1053.0 0.000950 80.65261 1025.37878
1093.0 0.000915 80.59179 1024.67224
1011.0 0.000989 80.53123 1021.44562
1052.0 0.000951 80.47092 1015.59485
1035.0 0.000966 80.41089 1007.08136
985.0 0.001015 80.35111 995.93237
1054.0 0.000949 80.29160 982.23944
949.0 0.001054 80.23235 966.15259
951.0 0.001052 80.17336 947.87170
1004.0 0.000996 80.11462 927.63702
927.0 0.001079 80.05615 905.71655
886.0 0.001129 79.99794 882.39557
868.0 0.001152 79.93999 857.96558
849.0 0.001178 79.88229 832.71393
849.0 0.001178 79.82486 806.91589
732.0 0.001366 79.76768 780.82843
718.0 0.001393 79.71076 754.68500
696.0 0.001437 79.65410 728.69360
644.0 0.001553 79.59770 703.03406
624.0 0.001603 79.54158 677.85986
623.0 0.001605 79.48569 653.29645
600.0 0.001667 79.43006 629.44598
573.0 0.001745 79.37469 606.38715
541.0 0.001848 79.31956 584.17810
537.0 0.001862 79.26472 562.85913
518.0 0.001931 79.21011 542.45490
488.0 0.002049 79.15576 522.97601
475.0 0.002105 79.10168 504.42188
419.0 0.002387 79.04785 486.78098
399.0 0.002506 78.99427 470.03320
384.0 0.002604 78.94094 454.15076
400.0 0.002500 78.88787 439.09866
390.0 0.002564 78.83505 424.83606
380.0 0.002632 78.78249 411.31677
365.0 0.002740 78.73016 398.49063
351.0 0.002849 78.67812 386.30441
358.0 0.002793 78.62631 374.70367
311.0 0.003215 78.57477 363.63452
313.0 0.003195 78.52346 353.04538
312.0 0.003205 78.47240 342.88934
301.0 0.003322 78.42162 333.12491
257.0 0.00389 78.37106 323.71796
281.0 0.00356 78.32077 314.64139
272.0 0.00368 78.27073 305.87527
284.0 0.00352 78.22094 297.40640
273.0 0.00366 78.17139 289.22668
245.0 0.00408 78.12210 281.44247
242.0 0.00413 78.07304 273.83298
238.0 0.00420 78.02426 266.50793
268.0 0.00373 77.97570 259.46790
227.0 0.00441 77.92741 252.71289
225.0 0.00444 77.87934 246.24170
229.0 0.00437 77.83156 240.10651
218.0 0.00459 77.78400 234.19307
218.0 0.00459 77.73669 228.54994
215.0 0.00465 77.68963 223.16937
196.0 0.00510 77.64281 218.04265
209.0 0.00478 77.59624 213.15999
218.0 0.00459 77.54990 208.51115
199.0 0.00503 77.50383 204.08540
181.0 0.00552 77.45799 199.87206
178.0 0.00562 77.41241 195.86031
203.0 0.00493 77.36707 192.03949
179.0 0.00559 77.32197 188.39941
197.0 0.00508 77.27709 184.93002
156.0 0.00641 77.23249 181.62190
168.0 0.00595 77.18813 178.46570
177.0 0.00565 77.14399 175.45280
173.0 0.00578 77.10011 172.57504
174.0 0.00575 77.05646 169.82446
160.0 0.00625 77.01306 167.19382
168.0 0.00595 76.96989 164.67609
141.0 0.00709 76.92699 162.26483
142.0 0.00704 76.88430 159.95396
147.0 0.00680 76.84186 157.73772
144.0 0.00694 76.79967 155.61082
188.0 0.00532 76.75771 153.56821
151.0 0.00662 76.71600 151.60530
146.0 0.00685 76.67451 149.71770
136.0 0.00735 76.63327 147.90141
153.0 0.00654 76.59227 146.15259
159.0 0.00629 76.55151 144.46780
140.0 0.00714 76.51097 142.84378
137.0 0.00730 76.47069 141.27739
118.0 0.00847 76.43063 139.76591
141.0 0.00709 76.39083 138.30655
146.0 0.00685 76.35124 136.89691
154.0 0.00649 76.31190 135.53467
141.0 0.00709 76.27279 134.21761
134.0 0.00746 76.23392 132.94376
137.0 0.00730 76.19527 131.71112
152.0 0.00658 76.15688 130.93446
149.0 0.00671 76.11869 129.78265
127.0 0.00787 76.08076 128.66707
126.0 0.00794 76.04307 127.58630
120.0 0.00833 76.00559 126.53886
146.0 0.00685 75.96835 125.72983
104.0 0.00962 75.93136 124.74693
143.0 0.00699 75.89458 123.79363
138.0 0.00725 75.85803 122.86881
117.0 0.00855 75.82172 121.97144
138.0 0.00725 75.78564 121.10046
129.0 0.00775 75.74980 120.25495
145.0 0.00690 75.71418 119.43400
135.0 0.00741 75.67879 118.63676
131.0 0.00763 75.64362 117.86236
124.0 0.00806 75.60869 117.11009
127.0 0.00787 75.57398 116.37919
123.0 0.00813 75.53951 115.66898
127.0 0.00787 75.50526 114.97878
139.0 0.00719 75.47124 114.30801
122.0 0.00820 75.43745 113.65598
114.0 0.00877 75.40388 113.02222
126.0 0.00794 75.37054 112.40618
109.0 0.00917 75.33743 111.80734
112.0 0.00893 75.30453 111.22527
126.0 0.00794 75.27187 110.65945
145.0 0.00690 75.23943 110.10956
113.0 0.00885 75.20721 109.57511
116.0 0.00862 75.17523 109.05582
114.0 0.00877 75.14346 108.55135
131.0 0.00763 75.11192 108.06139
107.0 0.00935 75.08060 107.58562
122.0 0.00820 75.04949 107.12386
115.0 0.00870 75.01861 106.67588
115.0 0.00870 74.98795 106.24147
118.0 0.00847 74.95752 105.82049
122.0 0.00820 74.92730 105.41281
109.0 0.00917 74.89731 105.01839
132.0 0.00758 74.86753 104.63715
119.0 0.00840 74.83798 104.26912
117.0 0.00855 74.80864 103.91430
121.0 0.00826 74.77953 103.57282
105.0 0.00952 74.75063 103.24479
112.0 0.00893 74.72194 102.94480
116.0 0.00862 74.69350 102.64437
129.0 0.00775 74.66525 102.35808
133.0 0.00752 74.63722 102.08626
106.0 0.00943 74.60941 101.82931
119.0 0.00840 74.58182 101.58768
140.0 0.00714 74.55443 101.36913
95.0 0.01053 74.52726 101.15982
109.0 0.00917 74.50031 100.96748
123.0 0.00813 74.47357 100.79282
105.0 0.00952 74.44706 100.63654
100.0 0.01000 74.42075 100.49931
123.0 0.00813 74.39466 100.38200
114.0 0.00877 74.36877 100.28536
105.0 0.00952 74.34311 100.21014
126.0 0.00794 74.31766 100.15710
123.0 0.00813 74.29240 100.12700
114.0 0.00877 74.26736 100.12048
124.0 0.00806 74.24256 100.13800
130.0 0.00769 74.21795 100.17996
117.0 0.00855 74.19353 100.24636
125.0 0.00800 74.16934 100.33707
118.0 0.00847 74.14535 100.45126
120.0 0.00833 74.12158 100.58765
120.0 0.00833 74.09801 100.74425
98.0 0.01020 74.07465 100.91814
110.0 0.00909 74.05151 101.10544
122.0 0.00820 74.02856 101.30095
119.0 0.00840 74.00582 101.49847
126.0 0.00794 73.98328 101.69050
126.0 0.00794 73.96095 101.86855
107.0 0.00935 73.93883 102.02343
116.0 0.00862 73.91691 102.14581
116.0 0.00862 73.89520 102.22661
128.0 0.00781 73.87370 102.25786
127.0 0.00787 73.85239 102.23322
120.0 0.00833 73.83130 102.14848
116.0 0.00862 73.81039 102.00191
122.0 0.00820 73.78970 101.79430
117.0 0.00855 73.76920 101.52857
107.0 0.00935 73.74891 101.20996
102.0 0.00980 73.72882 100.84518
112.0 0.00893 73.70892 100.44201
122.0 0.00820 73.68924 100.00892
124.0 0.00806 73.66975 99.55444
121.0 0.00826 73.65045 99.08682
114.0 0.00877 73.63136 98.61366
124.0 0.00806 73.61246 98.14162
144.0 0.00694 73.59377 97.67641
123.0 0.00813 73.57526 97.22255
98.0 0.01020 73.55697 96.78354
128.0 0.00781 73.53884 96.36200
126.0 0.00794 73.52094 95.95947
116.0 0.00862 73.50323 95.57706
130.0 0.00769 73.48571 95.21508
123.0 0.00813 73.46838 94.87353
154.0 0.00649 73.45125 94.55202
119.0 0.00840 73.43433 94.25004
125.0 0.00800 73.41758 93.96680
110.0 0.00909 73.40104 93.70153
125.0 0.00800 73.38468 93.45341
102.0 0.00980 73.36852 93.22162
125.0 0.00800 73.35255 93.00552
107.0 0.00935 73.33678 92.80441
107.0 0.00935 73.32118 92.61770
106.0 0.00943 73.30579 92.44491
103.0 0.00971 73.29058 92.28564
139.0 0.00719 73.27556 92.13948
140.0 0.00714 73.26074 92.00626
110.0 0.00909 73.24610 91.88575
114.0 0.00877 73.23164 91.77769
115.0 0.00870 73.21739 91.68205
124.0 0.00806 73.20331 91.59870
114.0 0.00877 73.18942 91.52768
135.0 0.00741 73.17572 91.46886
143.0 0.00699 73.16220 91.42234
93.0 0.01075 73.14887 91.38814
119.0 0.00840 73.13573 91.36633
126.0 0.00794 73.12277 91.35703
103.0 0.00971 73.10999 91.36034
109.0 0.00917 73.09740 91.37647
129.0 0.00775 73.08500 91.40564
102.0 0.00980 73.07276 91.44804
108.0 0.00926 73.06072 91.50398
103.0 0.00971 73.04886 91.57375
111.0 0.00901 73.03718 91.65773
106.0 0.00943 73.02567 91.75628
119.0 0.00840 73.01436 91.86982
99.0 0.01010 73.00323 91.99882
109.0 0.00917 72.99226 92.14371
104.0 0.00962 72.98148 92.30508
117.0 0.00855 72.97088 92.48343
117.0 0.00855 72.96046 92.67935
135.0 0.00741 72.95022 92.89344
108.0 0.00926 72.94014 94.56213
129.0 0.00775 72.93027 94.82340
99.0 0.01010 72.92056 95.10474
106.0 0.00943 72.91101 95.40678
97.0 0.01031 72.90165 95.73007
110.0 0.00909 72.89246 96.07518
101.0 0.00990 72.88345 97.15643
110.0 0.00909 72.87461 97.55096
107.0 0.00935 72.86594 97.96845
119.0 0.00840 72.85745 98.40910
103.0 0.00971 72.84913 98.87281
109.0 0.00917 72.84099 99.35931
110.0 0.00909 72.83301 99.86807
113.0 0.00885 72.82521 100.39816
100.0 0.01000 72.81758 100.94840
115.0 0.00870 72.81011 101.51697
107.0 0.00935 72.80282 102.10175
115.0 0.00870 72.79571 102.69994
110.0 0.00909 72.78875 103.30824
113.0 0.00885 72.78197 104.66840
103.0 0.00971 72.77535 105.29030
105.0 0.00952 72.76890 105.90900
119.0 0.00840 72.76261 106.51905
113.0 0.00885 72.75650 107.11462
85.0 0.01176 72.75055 107.57210
122.0 0.00820 72.74477 108.12191
112.0 0.00893 72.73914 109.01376
126.0 0.00794 72.73370 109.49807
117.0 0.00855 72.72841 109.88262
129.0 0.00775 72.72328 110.48331
110.0 0.00909 72.71832 110.83848
119.0 0.00840 72.71352 111.14719
94.0 0.01064 72.70887 111.41023
116.0 0.00862 72.70440 111.62991
112.0 0.00893 72.70010 111.80975
134.0 0.00746 72.69594 112.05442
103.0 0.00971 72.69195 112.17081
131.0 0.00763 72.68812 112.26476
116.0 0.00862 72.68445 112.34366
135.0 0.00741 72.68093 112.41531
114.0 0.00877 72.67759 112.48766
126.0 0.00794 72.67439 112.56869
119.0 0.00840 72.67133 112.66629
137.0 0.00730 72.66846 112.78824
121.0 0.00826 72.66573 112.94169
131.0 0.00763 72.66315 113.13383
109.0 0.00917 72.66074 113.37115
131.0 0.00763 72.65849 113.65999
132.0 0.00758 72.65639 114.00626
130.0 0.00769 72.65444 114.41570
111.0 0.00901 72.65264 114.89376
117.0 0.00855 72.65100 115.44573
142.0 0.00704 72.64951 116.07690
130.0 0.00769 72.64817 116.79250
115.0 0.00870 72.64698 117.59770
128.0 0.00781 72.64595 118.49796
126.0 0.00794 72.64507 119.49874
119.0 0.00840 72.64433 120.60570
149.0 0.00671 72.64375 121.82470
140.0 0.00714 72.64332 123.16189
131.0 0.00763 72.64303 124.63091
134.0 0.00746 72.64290 126.22345
149.0 0.00671 72.64291 127.95347
151.0 0.00662 72.64307 129.82770
146.0 0.00685 72.64337 131.85262
144.0 0.00694 72.64381 134.03458
142.0 0.00704 72.64441 136.37967
146.0 0.00685 72.64516 138.89664
139.0 0.00719 72.64603 141.58247
141.0 0.00709 72.64707 144.44385
155.0 0.00645 72.64825 147.48193
168.0 0.00595 72.64957 150.69600
151.0 0.00662 72.65103 154.08290
166.0 0.00602 72.65264 157.63692
171.0 0.00585 72.65438 161.34969
180.0 0.00556 72.65627 165.21039
166.0 0.00602 72.65830 169.20638
191.0 0.00524 72.66048 173.32370
174.0 0.00575 72.66278 177.54836
196.0 0.00510 72.66523 181.86765
194.0 0.00515 72.66782 186.27159
214.0 0.00467 72.67054 190.75398
212.0 0.00472 72.67342 195.31371
198.0 0.00505 72.67641 199.95457
218.0 0.00459 72.67955 204.68561
233.0 0.00429 72.68283 209.51958
230.0 0.00435 72.68624 214.47125
255.0 0.00392 72.68980 219.55466
251.0 0.00398 72.69348 224.78006
261.0 0.00383 72.69728 230.14966
265.0 0.00377 72.70124 233.07292
289.0 0.003460 72.70532 238.70189
276.0 0.00362 72.70954 244.39290
281.0 0.00356 72.71389 250.07568
307.0 0.003257 72.71838 255.65463
306.0 0.003268 72.72298 259.24673
319.0 0.003135 72.72775 264.24451
320.0 0.003125 72.73262 268.71701
328.0 0.003049 72.73763 272.50082
319.0 0.003135 72.74276 275.43912
312.0 0.003205 72.74802 277.39450
319.0 0.003135 72.75341 278.26044
340.0 0.002941 72.75893 277.97028
290.0 0.003448 72.76458 276.50143
294.0 0.003401 72.77036 273.87570
279.0 0.00358 72.77625 270.15570
282.0 0.00355 72.78229 265.43863
238.0 0.00420 72.78844 259.84860
259.0 0.00386 72.79472 253.52853
246.0 0.00407 72.80112 246.63144
229.0 0.00437 72.80766 239.31297
231.0 0.00433 72.81430 231.72362
208.0 0.00481 72.82108 224.00299
231.0 0.00433 72.82798 216.27519
212.0 0.00472 72.83500 208.64616
219.0 0.00457 72.84213 201.20245
167.0 0.00599 72.84940 194.01163
173.0 0.00578 72.85678 187.12376
187.0 0.00535 72.86429 180.57332
166.0 0.00602 72.87190 174.38176
145.0 0.00690 72.87965 168.55972
161.0 0.00621 72.88750 163.10942
172.0 0.00581 72.89548 158.02643
116.0 0.00862 72.90358 153.30147
167.0 0.00599 72.91179 148.92172
153.0 0.00654 72.92011 144.87187
131.0 0.00763 72.92857 141.13506
149.0 0.00671 72.93713 137.69351
149.0 0.00671 72.94579 134.52887
147.0 0.00680 72.95458 131.62302
141.0 0.00709 72.96349 128.95792
121.0 0.00826 72.97251 126.51614
140.0 0.00714 72.98164 124.28097
129.0 0.00775 72.99088 122.23636
144.0 0.00694 73.00024 120.36726
152.0 0.00658 73.00970 118.65949
145.0 0.00690 73.01927 117.09992
138.0 0.00725 73.02896 115.67631
123.0 0.00813 73.03877 114.37741
130.0 0.00769 73.04868 113.19296
121.0 0.00826 73.05869 112.11356
138.0 0.00725 73.06881 111.13070
125.0 0.00800 73.07904 110.23671
153.0 0.00654 73.08939 109.42466
130.0 0.00769 73.09984 108.68836
120.0 0.00833 73.11038 108.02227
130.0 0.00769 73.12105 107.42142
121.0 0.00826 73.13181 106.88144
138.0 0.00725 73.14268 106.39838
114.0 0.00877 73.15365 105.96877
144.0 0.00694 73.16473 105.58942
115.0 0.00870 73.17591 105.25753
125.0 0.00800 73.18719 104.97052
114.0 0.00877 73.19859 104.72601
140.0 0.00714 73.21007 104.52174
124.0 0.00806 73.22166 104.35549
119.0 0.00840 73.23335 104.22514
124.0 0.00806 73.24514 104.12843
113.0 0.00885 73.25703 104.06308
130.0 0.00769 73.26901 104.02653
129.0 0.00775 73.28110 104.01602
108.0 0.00926 73.29330 104.02850
107.0 0.00935 73.30557 104.06067
122.0 0.00820 73.31796 104.10880
124.0 0.00806 73.33043 104.16905
118.0 0.00847 73.34301 104.23730
130.0 0.00769 73.35568 104.30942
126.0 0.00794 73.36845 104.38120
122.0 0.00820 73.38131 104.44888
126.0 0.00794 73.39426 104.51221
106.0 0.00943 73.40730 104.56213
117.0 0.00855 73.42046 104.59977
106.0 0.00943 73.43369 104.62389
132.0 0.00758 73.44701 104.63425
99.0 0.01010 73.46043 104.63132
130.0 0.00769 73.47394 104.61638
124.0 0.00806 73.48755 104.59296
137.0 0.00730 73.50124 104.56045
111.0 0.00901 73.51501 104.52324
115.0 0.00870 73.52888 104.48437
113.0 0.00885 73.54285 104.44706
108.0 0.00926 73.55688 104.41437
120.0 0.00833 73.57101 104.38927
117.0 0.00855 73.58524 104.37451
109.0 0.00917 73.59953 104.37247
136.0 0.00735 73.61393 104.38533
119.0 0.00840 73.62842 104.41485
143.0 0.00699 73.64297 104.46241
111.0 0.00901 73.65762 104.52927
119.0 0.00840 73.67235 104.61632
134.0 0.00746 73.68718 104.72424
104.0 0.00962 73.70208 104.85355
123.0 0.00813 73.71705 105.00455
132.0 0.00758 73.73211 105.17757
122.0 0.00820 73.74726 105.37277
147.0 0.00680 73.76250 105.59019
128.0 0.00781 73.77779 105.82993
117.0 0.00855 73.79318 106.09209
126.0 0.00794 73.80865 106.37666
138.0 0.00725 73.82419 106.68373
92.0 0.01087 73.83981 107.01337
118.0 0.00847 73.85551 107.36570
104.0 0.00962 73.87129 107.74084
133.0 0.00752 73.88715 108.13892
135.0 0.00741 73.90308 108.56023
108.0 0.00926 73.91908 109.00504
117.0 0.00855 73.93517 109.47361
127.0 0.00787 73.95134 109.96634
123.0 0.00813 73.96757 110.48361
129.0 0.00775 73.98387 111.02599
135.0 0.00741 74.00025 111.59400
140.0 0.00714 74.01672 112.18821
155.0 0.00645 74.03323 112.80937
139.0 0.00719 74.04983 113.45821
130.0 0.00769 74.06650 114.13557
132.0 0.00758 74.08324 114.84238
166.0 0.00602 74.10004 115.57961
152.0 0.00658 74.11693 116.34840
138.0 0.00725 74.13387 117.14993
156.0 0.00641 74.15089 117.98548
139.0 0.00719 74.16798 118.85647
135.0 0.00741 74.18513 119.76441
125.0 0.00800 74.20235 120.71099
113.0 0.00885 74.21964 121.69794
150.0 0.00667 74.23700 122.72723
148.0 0.00676 74.25442 123.80097
122.0 0.00820 74.27189 124.92141
155.0 0.00645 74.28944 126.09106
151.0 0.00662 74.30707 127.31257
137.0 0.00730 74.32475 128.58887
135.0 0.00741 74.34248 129.92310
148.0 0.00676 74.36028 131.31866
148.0 0.00676 74.37815 132.77937
170.0 0.00588 74.39610 134.30919
158.0 0.00633 74.41408 135.91257
171.0 0.00585 74.43213 137.59427
162.0 0.00617 74.45023 139.35948
156.0 0.00641 74.46841 141.21384
170.0 0.00588 74.48664 143.16360
159.0 0.00629 74.50493 145.21523
179.0 0.00559 74.52328 147.37605
184.0 0.00543 74.54167 149.65378
170.0 0.00588 74.56015 152.05688
161.0 0.00621 74.57866 154.59438
173.0 0.00578 74.59722 157.27608
175.0 0.00571 74.61586 160.11241
165.0 0.00606 74.63455 163.11470
186.0 0.00538 74.65329 166.29491
196.0 0.00510 74.67210 169.66588
207.0 0.00483 74.69093 173.24120
229.0 0.00437 74.70983 177.03532
208.0 0.00481 74.72879 181.06351
216.0 0.00463 74.74780 185.34186
238.0 0.00420 74.76685 189.88718
194.0 0.00515 74.78597 194.71695
215.0 0.00465 74.80513 199.84947
223.0 0.00448 74.82434 205.30351
211.0 0.00474 74.84360 211.09830
223.0 0.00448 74.86292 217.25319
231.0 0.00433 74.88226 223.78773
231.0 0.00433 74.90168 230.72108
249.0 0.00402 74.92113 238.07170
240.0 0.00417 74.94063 245.85683
268.0 0.00373 74.96017 254.09196
288.0 0.003472 74.97977 262.78973
264.0 0.00379 74.99942 271.95920
264.0 0.00379 75.01910 281.60443
287.0 0.003484 75.03883 291.72333
281.0 0.00356 75.05861 302.30557
291.0 0.003436 75.07844 313.33121
311.0 0.003215 75.09828 324.76828
316.0 0.003165 75.11820 336.57108
308.0 0.003247 75.13815 348.67813
304.0 0.003289 75.15813 361.01120
369.0 0.002710 75.17816 373.47430
342.0 0.002924 75.19823 385.95419
369.0 0.002710 75.21835 398.32242
366.0 0.002732 75.23849 410.43845
369.0 0.002710 75.25868 422.15546
366.0 0.002732 75.27892 433.32663
366.0 0.002732 75.29919 443.81354
360.0 0.002778 75.31949 453.49200
377.0 0.002653 75.33983 462.26852
420.0 0.002381 75.36021 470.07440
413.0 0.002421 75.38063 476.87848
453.0 0.002208 75.40108 482.68689
457.0 0.002188 75.42157 487.54272
413.0 0.002421 75.44209 491.50598
440.0 0.002273 75.46265 494.71912
436.0 0.002294 75.48325 497.29605
467.0 0.002141 75.50387 499.38620
458.0 0.002183 75.52451 501.15024
442.0 0.002262 75.54521 502.75375
524.0 0.001908 75.56593 504.36029
467.0 0.002141 75.58669 506.12625
490.0 0.002041 75.60747 508.19583
477.0 0.002096 75.62828 510.69672
517.0 0.001934 75.64913 513.73730
497.0 0.002012 75.67001 517.40442
515.0 0.001942 75.69091 521.76196
476.0 0.002101 75.71185 526.85010
526.0 0.001901 75.73280 532.68457
518.0 0.001931 75.75379 539.25659
556.0 0.001799 75.77480 546.53308
500.0 0.002000 75.79585 554.45581
546.0 0.001832 75.81692 562.94275
540.0 0.001852 75.83801 571.88660
561.0 0.001783 75.85912 581.15778
532.0 0.001880 75.88027 590.60400
587.0 0.001704 75.90143 600.05304
574.0 0.001742 75.92262 609.31671
497.0 0.002012 75.94384 618.19397
565.0 0.001770 75.96508 626.47760
556.0 0.001799 75.98634 633.96008
536.0 0.001866 76.00762 640.44165
548.0 0.001825 76.02892 645.73718
524.0 0.001908 76.05025 649.68427
538.0 0.001859 76.07159 652.14978
536.0 0.001866 76.09296 653.03522
523.0 0.001912 76.11434 652.28064
521.0 0.001919 76.13574 649.86646
518.0 0.001931 76.15717 645.81305
527.0 0.001898 76.17860 640.17908
478.0 0.002092 76.20006 633.05725
487.0 0.002053 76.22153 624.56958
497.0 0.002012 76.24302 614.86121
478.0 0.002092 76.26453 604.09436
465.0 0.002151 76.28606 592.44098
476.0 0.002101 76.30759 580.07703
467.0 0.002141 76.32914 567.17651
468.0 0.002137 76.35072 553.90533
495.0 0.002020 76.37228 540.45190
444.0 0.002252 76.39388 526.89343
463.0 0.002160 76.41549 513.37329
438.0 0.002283 76.43711 499.99988
463.0 0.002160 76.45872 486.85608
428.0 0.002336 76.48037 474.00525
437.0 0.002288 76.50202 461.49261
418.0 0.002392 76.52370 449.34641
435.0 0.002299 76.54536 437.59659
387.0 0.002584 76.56705 426.21231
360.0 0.002778 76.58874 415.19427
379.0 0.002639 76.61044 404.52707
372.0 0.002688 76.63214 394.18713
360.0 0.002778 76.65385 384.14786
396.0 0.002525 76.67558 374.38168
355.0 0.002817 76.69730 364.81491
323.0 0.003096 76.71906 355.51917
361.0 0.002770 76.74078 346.42676
354.0 0.002825 76.76253 337.52249
295.0 0.003390 76.78428 328.79581
315.0 0.003175 76.80604 320.24127
297.0 0.003367 76.82780 311.83377
318.0 0.003145 76.84956 303.62317
311.0 0.003215 76.87133 295.59137
285.0 0.00351 76.89309 287.78412
267.0 0.00375 76.91487 280.13522
269.0 0.00372 76.93664 272.69238
254.0 0.00394 76.95842 265.46536
269.0 0.00372 76.98019 258.46320
264.0 0.00379 77.00196 251.69389
246.0 0.00407 77.02374 245.16345
241.0 0.00415 77.04552 238.87633
210.0 0.00476 77.06729 232.85381
211.0 0.00474 77.08906 227.05849
204.0 0.00490 77.11083 221.50777
224.0 0.00446 77.13258 216.19844
186.0 0.00538 77.15435 211.12560
234.0 0.00427 77.17612 206.28322
200.0 0.00500 77.19786 201.66397
207.0 0.00483 77.21963 197.25981
178.0 0.00562 77.24137 193.06189
202.0 0.00495 77.26311 189.06090
174.0 0.00575 77.28484 185.24730
188.0 0.00532 77.30657 181.61143
180.0 0.00556 77.32831 178.14375
182.0 0.00549 77.35002 174.83488
170.0 0.00588 77.37173 171.67566
176.0 0.00568 77.39343 168.65755
158.0 0.00633 77.41512 165.77237
188.0 0.00532 77.43681 163.01248
164.0 0.00610 77.45848 160.37085
157.0 0.00637 77.48016 157.84084
156.0 0.00641 77.50181 155.42113
155.0 0.00645 77.52345 153.09711
176.0 0.00568 77.54509 150.86833
144.0 0.00694 77.56670 148.73756
139.0 0.00719 77.58832 146.68585
168.0 0.00595 77.60992 144.71663
151.0 0.00662 77.63150 142.82635
152.0 0.00658 77.65308 141.01376
138.0 0.00725 77.67463 139.27126
153.0 0.00654 77.69617 137.59795
134.0 0.00746 77.71770 135.99100
138.0 0.00725 77.73923 134.45120
142.0 0.00704 77.76073 132.96860
147.0 0.00680 77.78220 131.54414
147.0 0.00680 77.80368 130.17542
128.0 0.00781 77.82513 128.85995
120.0 0.00833 77.84655 127.59533
116.0 0.00862 77.86798 126.40314
145.0 0.00690 77.88937 125.23363
106.0 0.00943 77.91075 124.10852
127.0 0.00787 77.93211 123.02561
127.0 0.00787 77.95345 121.98308
119.0 0.00840 77.97478 120.97903
125.0 0.00800 77.99609 120.01169
126.0 0.00794 78.01736 119.09122
121.0 0.00826 78.03863 118.19245
113.0 0.00885 78.05986 117.32561
101.0 0.00990 78.08109 116.48924
109.0 0.00917 78.10227 115.68199
134.0 0.00746 78.12344 114.90253
120.0 0.00833 78.14459 114.14971
131.0 0.00763 78.16573 113.42223
102.0 0.00980 78.18682 112.71908
120.0 0.00833 78.20791 112.03917
118.0 0.00847 78.22895 111.38153
96.0 0.01042 78.24998 110.74517
91.0 0.01099 78.27097 110.12926
109.0 0.00917 78.29195 109.53288
110.0 0.00909 78.31290 108.95528
107.0 0.00935 78.33382 108.39565
101.0 0.00990 78.35472 107.85329
114.0 0.00877 78.37557 107.32751
127.0 0.00787 78.39642 106.81767
121.0 0.00826 78.41723 106.31009
105.0 0.00952 78.43802 105.85546
83.0 0.01205 78.45876 105.38998
101.0 0.00990 78.47948 104.93806
109.0 0.00917 78.50018 104.49925
106.0 0.00943 78.52084 104.07307
102.0 0.00980 78.54147 103.23331
99.0 0.01010 78.56207 102.81898
96.0 0.01042 78.58263 102.43055
99.0 0.01010 78.60316 102.06555
104.0 0.00962 78.62367 101.69856
94.0 0.01064 78.64413 101.34164
91.0 0.01099 78.66457 100.99451
87.0 0.01149 78.68497 100.64960
105.0 0.00952 78.70534 100.32108
97.0 0.01031 78.72567 100.00138
85.0 0.01176 78.74597 99.98843
91.0 0.01099 78.76623 99.68710
86.0 0.01163 78.78645 99.39380
74.0 0.01351 78.80665 99.10825
100.0 0.01000 78.82680 98.83018
105.0 0.00952 78.84691 98.55943
91.0 0.01099 78.86699 98.29569
107.0 0.00935 78.88703 98.03882
91.0 0.01099 78.90704 97.93732
91.0 0.01099 78.92699 97.69428
82.0 0.01220 78.94692 97.45753
83.0 0.01205 78.96681 97.22691
92.0 0.01087 78.98666 97.00222
96.0 0.01042 79.00645 96.78325
111.0 0.00901 79.02621 96.56989
82.0 0.01220 79.04594 96.36198
103.0 0.00971 79.06562 96.15937
88.0 0.01136 79.08525 95.96194
84.0 0.01190 79.10486 95.76958
103.0 0.00971 79.12441 95.58212
95.0 0.01053 79.14393 95.39945
102.0 0.00980 79.16338 95.22147
91.0 0.01099 79.18282 95.04810
82.0 0.01220 79.20219 94.87917
78.0 0.01282 79.22153 94.71464
90.0 0.01111 79.24082 94.55439
79.0 0.01266 79.26006 94.39839
81.0 0.01235 79.27927 94.24644
91.0 0.01099 79.29842 94.09861
73.0 0.01370 79.31754 93.95470
84.0 0.01190 79.33659 93.81465
89.0 0.01124 79.35561 93.67850
92.0 0.01087 79.37457 93.54610
87.0 0.01149 79.39349 93.41742
86.0 0.01163 79.41236 93.29242
91.0 0.01099 79.43118 93.17104
82.0 0.01220 79.44995 93.05318
85.0 0.01176 79.46868 92.93890
93.0 0.01075 79.48736 92.82808
86.0 0.01163 79.50597 92.72073
78.0 0.01282 79.52454 92.61679
79.0 0.01266 79.54308 92.51624
83.0 0.01205 79.56154 92.41908
58.0 0.01724 79.57996 92.32521
85.0 0.01176 79.59833 92.23470
75.0 0.01333 79.61663 92.14745
89.0 0.01124 79.63491 92.06344
63.0 0.01587 79.65311 91.98267
88.0 0.01136 79.67127 91.90511
90.0 0.01111 79.68936 91.83072
77.0 0.01299 79.70742 91.75942
94.0 0.01064 79.72540 91.69125
73.0 0.01370 79.74335 91.62608
84.0 0.01190 79.76123 91.56390
81.0 0.01235 79.77905 91.50460
88.0 0.01136 79.79683 91.44807
89.0 0.01124 79.81454 91.39424
68.0 0.01471 79.83221 91.34294
86.0 0.01163 79.84981 91.29400
75.0 0.01333 79.86736 91.24726
70.0 0.01429 79.88484 91.21340
85.0 0.01176 79.90227 91.17041
91.0 0.01099 79.91965 91.12886
78.0 0.01282 79.93694 91.08848
67.0 0.01493 79.95420 91.04883
84.0 0.01190 79.97141 91.00967
95.0 0.01053 79.98853 90.97054
89.0 0.01124 80.00561 90.93109
75.0 0.01333 80.02262 90.89638
79.0 0.01266 80.03958 90.85520
88.0 0.01136 80.05647 90.81261
75.0 0.01333 80.07330 90.76830
72.0 0.01389 80.09007 90.73086
75.0 0.01333 80.10677 90.68248
85.0 0.01176 80.12341 90.63180
74.0 0.01351 80.13999 90.57875
74.0 0.01351 80.15652 90.52335
59.0 0.01695 80.17296 90.46561
78.0 0.01282 80.18935 90.40575
55.0 0.01818 80.20569 90.34389
75.0 0.01333 80.22195 90.28026
78.0 0.01282 80.23815 90.21953
86.0 0.01163 80.25428 90.15321
95.0 0.01053 80.27034 90.08600
80.0 0.01250 80.28635 90.01824
78.0 0.01282 80.30228 89.95018
82.0 0.01220 80.31815 89.88221
77.0 0.01299 80.33395 89.81455
87.0 0.01149 80.34969 89.74751
83.0 0.01205 80.36536 89.68133
75.0 0.01333 80.38096 89.86289
74.0 0.01351 80.39648 89.80061
75.0 0.01333 80.41196 89.73980
95.0 0.01053 80.42735 89.68053
81.0 0.01235 80.44267 89.62295
81.0 0.01235 80.45794 89.56713
68.0 0.01471 80.47312 89.51319
73.0 0.01370 80.48824 89.46108
81.0 0.01235 80.50330 89.53394
84.0 0.01190 80.51826 89.48645
72.0 0.01389 80.53318 89.44090
77.0 0.01299 80.54800 89.39728
58.0 0.01724 80.56277 89.35558
86.0 0.01163 80.57747 89.31577
68.0 0.01471 80.59209 89.27780
81.0 0.01235 80.60664 89.24165
68.0 0.01471 80.62112 89.20734
71.0 0.01408 80.63551 89.17478
83.0 0.01205 80.64985 89.14397
76.0 0.01316 80.66410 89.11481
72.0 0.01389 80.67828 89.08731
91.0 0.01099 80.69240 89.06145
85.0 0.01176 80.70643 89.03719
72.0 0.01389 80.72039 89.01447
82.0 0.01220 80.73428 88.99327
62.0 0.01613 80.74809 88.97352
90.0 0.01111 80.76182 88.95528
70.0 0.01429 80.77547 88.93845
83.0 0.01205 80.78905 88.92304
57.0 0.01754 80.80256 88.90897
77.0 0.01299 80.81599 88.89629
76.0 0.01316 80.82935 88.88490
76.0 0.01316 80.84263 88.87486
77.0 0.01299 80.85582 88.86609
69.0 0.01449 80.86894 88.85865
80.0 0.01250 80.88198 88.85239
69.0 0.01449 80.89495 88.84743
75.0 0.01333 80.90783 88.84377
75.0 0.01333 80.92064 88.84125
74.0 0.01351 80.93336 88.84001
71.0 0.01408 80.94601 88.83999
77.0 0.01299 80.95857 88.84117
64.0 0.01563 80.97107 88.84354
72.0 0.01389 80.98347 88.84718
78.0 0.01282 80.99580 88.85201
89.0 0.01124 81.00804 88.85806
71.0 0.01408 81.02020 88.86533
90.0 0.01111 81.03230 88.87386
64.0 0.01563 81.04430 88.88359
70.0 0.01429 81.05622 88.89460
92.0 0.01087 81.06805 88.90687
78.0 0.01282 81.07981 88.92043
58.0 0.01724 81.09148 88.93527
73.0 0.01370 81.10307 88.95142
58.0 0.01724 81.11458 88.96892
63.0 0.01587 81.12601 88.98779
74.0 0.01351 81.13734 89.00801
80.0 0.01250 81.14860 89.02966
69.0 0.01449 81.15977 89.05273
72.0 0.01389 81.17086 89.07729
91.0 0.01099 81.18186 89.10339
74.0 0.01351 81.19278 89.13097
75.0 0.01333 81.20362 89.16020
94.0 0.01064 81.21436 89.19106
93.0 0.01075 81.22503 89.22356
64.0 0.01563 81.23560 89.25784
94.0 0.01064 81.24610 89.29389
80.0 0.01250 81.25650 89.33179
66.0 0.01515 81.26682 89.37164
98.0 0.01020 81.27705 89.41350
69.0 0.01449 81.28719 89.45742
88.0 0.01136 81.29725 89.51553
86.0 0.01163 81.30722 89.56393
56.0 0.01786 81.31710 89.61469
100.0 0.01000 81.32690 89.66790
74.0 0.01351 81.33659 89.72367
89.0 0.01124 81.34621 89.78219
83.0 0.01205 81.35574 89.84351
82.0 0.01220 81.36517 89.90781
86.0 0.01163 81.37453 89.97524
83.0 0.01205 81.38379 90.05197
91.0 0.01099 81.39296 90.12616
80.0 0.01250 81.40205 90.20406
94.0 0.01064 81.41104 90.28576
76.0 0.01316 81.41994 90.37152
75.0 0.01333 81.42875 90.46158
88.0 0.01136 81.43747 90.55618
78.0 0.01282 81.44609 90.65578
82.0 0.01220 81.45464 90.76018
88.0 0.01136 81.46309 90.86983
87.0 0.01149 81.47144 90.98507
95.0 0.01053 81.47971 91.10622
89.0 0.01124 81.48788 91.23354
94.0 0.01064 81.49596 91.36734
87.0 0.01149 81.50394 91.50796
83.0 0.01205 81.51183 91.65567
89.0 0.01124 81.51965 91.81095
103.0 0.00971 81.52736 91.97379
98.0 0.01020 81.53497 92.14458
81.0 0.01235 81.54249 92.32364
89.0 0.01124 81.54992 92.51099
101.0 0.00990 81.55725 91.26461
87.0 0.01149 81.56449 91.47812
103.0 0.00971 81.57165 91.70003
99.0 0.01010 81.57870 91.93019
99.0 0.01010 81.58566 92.16835
102.0 0.00980 81.59252 92.41417
87.0 0.01149 81.59930 92.66715
95.0 0.01053 81.60597 91.59785
106.0 0.00943 81.61255 91.87130
106.0 0.00943 81.61903 92.15005
92.0 0.01087 81.62542 92.43359
98.0 0.01020 81.63171 92.72142
110.0 0.00909 81.63792 93.01325
89.0 0.01124 81.64401 93.30908
90.0 0.01111 81.65002 93.60913
92.0 0.01087 81.65593 93.91385
116.0 0.00862 81.66174 94.22388
84.0 0.01190 81.66746 94.54021
108.0 0.00926 81.67307 94.86398
138.0 0.00725 81.67860 95.19636
92.0 0.01087 81.68402 95.53869
94.0 0.01064 81.68935 95.89232
109.0 0.00917 81.69457 96.25861
105.0 0.00952 81.69971 96.63877
139.0 0.00719 81.70473 97.03387
117.0 0.00855 81.70968 97.44483
136.0 0.00735 81.71452 97.87233
113.0 0.00885 81.71925 98.31654
120.0 0.00833 81.72389 98.77747
127.0 0.00787 81.72843 99.05402
122.0 0.00820 81.73288 99.54726
128.0 0.00781 81.73722 100.05390
112.0 0.00893 81.74146 100.57166
107.0 0.00935 81.74561 101.09776
106.0 0.00943 81.74965 101.62872
137.0 0.00730 81.75359 102.16051
123.0 0.00813 81.75744 102.58892
115.0 0.00870 81.76120 103.10876
134.0 0.00746 81.76484 103.61430
108.0 0.00926 81.76839 104.10002
108.0 0.00926 81.77183 104.56017
125.0 0.00800 81.77517 104.98930
104.0 0.00962 81.77842 105.38229
136.0 0.00735 81.78157 105.73464
103.0 0.00971 81.78461 106.04390
112.0 0.00893 81.78755 106.30474
112.0 0.00893 81.79040 106.51672
129.0 0.00775 81.79313 106.67919
117.0 0.00855 81.79578 106.79274
125.0 0.00800 81.79831 106.85890
133.0 0.00752 81.80075 106.88033
126.0 0.00794 81.80309 106.86052
99.0 0.01010 81.80531 106.80372
115.0 0.00870 81.80744 106.71545
132.0 0.00758 81.80948 106.59977
123.0 0.00813 81.81140 106.46410
104.0 0.00962 81.81322 106.31183
101.0 0.00990 81.81495 106.14988
119.0 0.00840 81.81656 105.98382
103.0 0.00971 81.81808 105.81911
141.0 0.00709 81.81950 105.66079
116.0 0.00862 81.82081 105.50600
102.0 0.00980 81.82201 105.37398
108.0 0.00926 81.82312 105.26100
112.0 0.00893 81.82413 105.17096
86.0 0.01163 81.82502 105.10560
110.0 0.00909 81.82582 105.06797
110.0 0.00909 81.82652 105.06023
128.0 0.00781 81.82710 105.08036
119.0 0.00840 81.82759 105.13727
133.0 0.00752 81.82797 105.22845
108.0 0.00926 81.82824 105.35477
108.0 0.00926 81.82842 105.51704
121.0 0.00826 81.82850 105.71567
112.0 0.00893 81.82846 105.95105
104.0 0.00962 81.82832 106.22330
119.0 0.00840 81.82808 106.53240
109.0 0.00917 81.82773 106.87818
114.0 0.00877 81.82728 107.26019
94.0 0.01064 81.82673 107.67780
115.0 0.00870 81.82606 108.13012
114.0 0.00877 81.82530 108.61610
129.0 0.00775 81.82443 109.13418
116.0 0.00862 81.82346 109.97403
110.0 0.00909 81.82238 110.55238
130.0 0.00769 81.82121 111.15649
107.0 0.00935 81.81991 111.78333
122.0 0.00820 81.81853 112.42965
125.0 0.00800 81.81702 113.09160
112.0 0.00893 81.81542 113.96037
92.0 0.01087 81.81371 114.64193
104.0 0.00962 81.81189 115.32570
105.0 0.00952 81.80998 116.15228
111.0 0.00901 81.80796 116.82654
115.0 0.00870 81.80583 117.48808
87.0 0.01149 81.80359 118.13210
122.0 0.00820 81.80125 118.75401
106.0 0.00943 81.79881 119.34962
98.0 0.01020 81.79626 120.01289
96.0 0.01042 81.79359 120.54622
118.0 0.00847 81.79084 121.04417
99.0 0.01010 81.78797 121.56207
110.0 0.00909 81.78500 121.98987
122.0 0.00820 81.78192 122.37394
127.0 0.00787 81.77873 122.71938
97.0 0.01031 81.77544 123.02670
120.0 0.00833 81.77205 123.29691
117.0 0.00855 81.76855 123.53159
118.0 0.00847 81.76494 123.73248
118.0 0.00847 81.76122 123.90187
109.0 0.00917 81.75740 124.07063
108.0 0.00926 81.75348 124.18726
102.0 0.00980 81.74945 124.27833
117.0 0.00855 81.74530 124.34972
105.0 0.00952 81.74107 124.40507
113.0 0.00885 81.73672 124.44833
110.0 0.00909 81.73225 124.48372
121.0 0.00826 81.72770 124.51546
118.0 0.00847 81.72303 124.54805
123.0 0.00813 81.71825 124.58602
108.0 0.00926 81.71338 124.63385
119.0 0.00840 81.70839 124.69592
123.0 0.00813 81.70329 124.77654
105.0 0.00952 81.69809 124.87976
110.0 0.00909 81.69279 125.00934
101.0 0.00990 81.68738 125.16857
117.0 0.00855 81.68186 125.36044
112.0 0.00893 81.67625 125.58747
122.0 0.00820 81.67051 125.85143
103.0 0.00971 81.66467 126.15374
124.0 0.00806 81.65874 126.49942
120.0 0.00833 81.65269 126.87991
97.0 0.01031 81.64652 127.29910
96.0 0.01042 81.64028 127.75611
122.0 0.00820 81.63390 128.24963
141.0 0.00709 81.62744 128.77805
119.0 0.00840 81.62086 129.33963
108.0 0.00926 81.61418 129.93265
120.0 0.00833 81.60739 130.55562
120.0 0.00833 81.60049 131.20955
146.0 0.00685 81.59349 131.88937
116.0 0.00862 81.58639 132.59718
118.0 0.00847 81.57917 133.33369
116.0 0.00862 81.57185 134.10049
130.0 0.00769 81.56443 134.89958
149.0 0.00671 81.55690 135.73416
128.0 0.00781 81.54927 136.60793
127.0 0.00787 81.54153 137.52528
111.0 0.00901 81.53368 138.49129
122.0 0.00820 81.52573 139.51138
172.0 0.00581 81.51767 140.59148
165.0 0.00606 81.50951 141.94337
135.0 0.00741 81.50124 143.16327
134.0 0.00746 81.49287 144.46204
137.0 0.00730 81.48439 145.84564
128.0 0.00781 81.47581 147.32025
144.0 0.00694 81.46711 148.89180
154.0 0.00649 81.45831 150.56555
144.0 0.00694 81.44942 152.34650
163.0 0.00613 81.44041 154.23903
161.0 0.00621 81.43130 156.34953
184.0 0.00543 81.42209 158.47633
163.0 0.00613 81.41277 160.72340
181.0 0.00552 81.40334 163.09189
160.0 0.00625 81.39382 165.58170
156.0 0.00641 81.38418 168.19144
187.0 0.00535 81.37445 170.91826
171.0 0.00585 81.36461 173.75771
192.0 0.00521 81.35466 176.70337
164.0 0.00610 81.34462 179.74684
178.0 0.00562 81.33445 182.87753
190.0 0.00526 81.32420 186.08241
199.0 0.00503 81.31384 189.34572
204.0 0.00490 81.30337 192.64967
193.0 0.00518 81.29280 195.97343
171.0 0.00585 81.28213 199.29390
198.0 0.00505 81.27135 202.58586
200.0 0.00500 81.26046 205.82237
189.0 0.00529 81.24948 208.97514
206.0 0.00485 81.23840 212.01547
188.0 0.00532 81.22721 214.91478
200.0 0.00500 81.21590 217.64581
182.0 0.00549 81.20452 220.18309
201.0 0.00498 81.19302 222.50436
183.0 0.00546 81.18141 224.59103
223.0 0.00448 81.16971 226.42912
190.0 0.00526 81.15789 228.00951
208.0 0.00481 81.14598 229.32875
205.0 0.00488 81.13398 230.38872
211.0 0.00474 81.12186 231.19687
197.0 0.00508 81.10964 231.76564
209.0 0.00478 81.09732 232.11226
225.0 0.00444 81.08490 232.25775
232.0 0.00431 81.07238 232.22662
217.0 0.00461 81.05975 232.04588
211.0 0.00474 81.04703 231.74394
228.0 0.00439 81.03420 231.35014
194.0 0.00515 81.02128 230.89349
232.0 0.00431 81.00824 230.40175
234.0 0.00427 80.99512 229.90092
219.0 0.00457 80.98189 229.41393
248.0 0.00403 80.96856 228.96039
207.0 0.00483 80.95512 228.55537
228.0 0.00439 80.94158 228.20917
230.0 0.00435 80.92796 227.92677
203.0 0.00493 80.91422 227.70750
205.0 0.00488 80.90040 227.54489
218.0 0.00459 80.88646 227.42642
228.0 0.00439 80.87243 227.33432
216.0 0.00463 80.85830 227.24545
220.0 0.00455 80.84406 227.13268
200.0 0.00500 80.82973 226.96510
231.0 0.00433 80.81531 227.04674
217.0 0.00461 80.80078 226.67279
211.0 0.00474 80.78616 226.14566
218.0 0.00459 80.77143 225.43523
217.0 0.00461 80.75661 224.51537
238.0 0.00420 80.74169 223.36467
227.0 0.00441 80.72668 221.96788
220.0 0.00455 80.71156 220.31575
193.0 0.00518 80.69634 218.40561
202.0 0.00495 80.68104 216.25832
217.0 0.00461 80.66563 214.01704
201.0 0.00498 80.65012 211.37761
199.0 0.00503 80.63452 208.52655
193.0 0.00518 80.61883 205.48618
217.0 0.00461 80.60303 202.28178
217.0 0.00461 80.58713 198.93739
205.0 0.00488 80.57115 195.48743
181.0 0.00552 80.55506 191.95721
204.0 0.00490 80.53889 188.38339
205.0 0.00488 80.52262 184.77536
182.0 0.00549 80.50625 181.16685
212.0 0.00472 80.48978 177.58089
171.0 0.00585 80.47324 174.03638
214.0 0.00467 80.45657 170.55420
178.0 0.00562 80.43983 167.14786
196.0 0.00510 80.42299 163.82985
200.0 0.00500 80.40605 160.61024
174.0 0.00575 80.38903 157.49641
196.0 0.00510 80.37190 154.49408
179.0 0.00559 80.35469 151.63460
190.0 0.00526 80.33738 148.86443
198.0 0.00505 80.31998 146.21181
177.0 0.00565 80.30248 143.67647
196.0 0.00510 80.28490 141.25685
208.0 0.00481 80.26723 138.95064
180.0 0.00556 80.24944 136.75510
190.0 0.00526 80.23159 134.66698
172.0 0.00581 80.21364 132.68265
184.0 0.00543 80.19559 130.81218
186.0 0.00538 80.17747 129.02376
158.0 0.00633 80.15923 127.32720
157.0 0.00637 80.14091 125.71836
155.0 0.00645 80.12251 124.19305
144.0 0.00694 80.10402 122.74725
175.0 0.00571 80.08543 121.37698
158.0 0.00633 80.06676 120.07829
154.0 0.00649 80.04799 118.84754
134.0 0.00746 80.02914 117.68104
144.0 0.00694 80.01021 116.57533
150.0 0.00667 79.99118 115.52699
142.0 0.00704 79.97206 114.53294
135.0 0.00741 79.95286 113.59008
138.0 0.00725 79.93356 112.69557
151.0 0.00662 79.91418 111.84670
154.0 0.00649 79.89472 111.04088
124.0 0.00806 79.87516 110.27571
124.0 0.00806 79.85552 109.75343
129.0 0.00775 79.83581 109.06392
120.0 0.00833 79.81599 108.40863
108.0 0.00926 79.79610 107.78560
124.0 0.00806 79.77612 107.19308
132.0 0.00758 79.75606 106.62945
101.0 0.00990 79.73589 106.09309
126.0 0.00794 79.71565 105.58264
123.0 0.00813 79.69535 105.09669
125.0 0.00800 79.67493 104.73576
129.0 0.00775 79.65446 104.29581
116.0 0.00862 79.63389 103.87677
127.0 0.00787 79.61324 103.47778
131.0 0.00763 79.59251 103.09783
115.0 0.00870 79.57169 102.73604
131.0 0.00763 79.55078 102.39162
109.0 0.00917 79.52980 102.06387
107.0 0.00935 79.50874 101.75198
109.0 0.00917 79.48760 101.45538
110.0 0.00909 79.46638 101.17342
116.0 0.00862 79.44508 100.90561
117.0 0.00855 79.42369 100.65140
100.0 0.01000 79.40224 100.41032
130.0 0.00769 79.38070 100.18190
108.0 0.00926 79.35908 99.97035
98.0 0.01020 79.33738 99.76620
102.0 0.00980 79.31560 99.57362
93.0 0.01075 79.29375 99.39230
106.0 0.00943 79.27181 99.22195
107.0 0.00935 79.24981 99.06235
99.0 0.01010 79.22771 98.91328
101.0 0.00990 79.20556 98.77446
86.0 0.01163 79.18332 98.64577
116.0 0.00862 79.16101 98.52698
91.0 0.01099 79.13862 98.42032
123.0 0.00813 79.11615 98.32102
110.0 0.00909 79.09362 98.23132
97.0 0.01031 79.07099 98.15105
92.0 0.01087 79.04832 98.08021
84.0 0.01190 79.02555 98.01869
93.0 0.01075 79.00272 97.96651
112.0 0.00893 78.97983 97.92361
93.0 0.01075 78.95683 97.89000
104.0 0.00962 78.93378 97.86566
116.0 0.00862 78.91067 97.85062
83.0 0.01205 78.88747 97.84490
98.0 0.01020 78.86420 97.84852
85.0 0.01176 78.84086 97.86157
103.0 0.00971 78.81746 97.88410
84.0 0.01190 78.79398 97.91614
111.0 0.00901 78.77045 97.95776
93.0 0.01075 78.74683 98.00904
106.0 0.00943 78.72315 98.07005
88.0 0.01136 78.69939 98.14085
99.0 0.01010 78.67558 98.22141
96.0 0.01042 78.65170 98.31187
75.0 0.01333 78.62775 98.41218
90.0 0.01111 78.60373 98.52233
88.0 0.01136 78.57964 98.64230
114.0 0.00877 78.55550 98.77200
94.0 0.01064 78.53128 98.91127
81.0 0.01235 78.50699 99.05997
97.0 0.01031 78.48265 99.21786
84.0 0.01190 78.45824 99.38458
97.0 0.01031 78.43377 99.55972
111.0 0.00901 78.40925 99.74284
101.0 0.00990 78.38464 99.93337
93.0 0.01075 78.35998 100.13058
92.0 0.01087 78.33526 100.33435
100.0 0.01000 78.31047 100.54273
104.0 0.00962 78.28563 100.75536
92.0 0.01087 78.26073 100.97127
93.0 0.01075 78.23576 101.18954
93.0 0.01075 78.21073 101.40910
104.0 0.00962 78.18565 101.62907
96.0 0.01042 78.16051 101.84854
100.0 0.01000 78.13531 102.06670
71.0 0.01408 78.11006 102.28278
87.0 0.01149 78.08475 102.49668
97.0 0.01031 78.05936 102.70751
107.0 0.00935 78.03394 102.91531
92.0 0.01087 78.00847 103.12024
97.0 0.01031 77.98293 103.32252
115.0 0.00870 77.95734 103.52272
82.0 0.01220 77.93169 103.72154
110.0 0.00909 77.90598 103.91985
104.0 0.00962 77.88023 104.11877
109.0 0.00917 77.85442 104.31947
80.0 0.01250 77.82855 104.52328
99.0 0.01010 77.80264 104.73177
104.0 0.00962 77.77668 104.94641
91.0 0.01099 77.75066 105.16879
92.0 0.01087 77.72459 105.40057
92.0 0.01087 77.69848 105.64342
101.0 0.00990 77.67232 105.89905
97.0 0.01031 77.64609 106.16908
106.0 0.00943 77.61983 106.45525
93.0 0.01075 77.59353 106.75917
95.0 0.01053 77.56718 107.08241
102.0 0.00980 77.54077 107.42667
91.0 0.01099 77.51431 107.79344
99.0 0.01010 77.48781 108.18443
76.0 0.01316 77.46127 108.60107
72.0 0.01389 77.43468 109.04506
89.0 0.01124 77.40805 109.51807
123.0 0.00813 77.38137 110.02156
89.0 0.01124 77.35465 110.55737
103.0 0.00971 77.32790 111.12722
101.0 0.00990 77.30109 111.73295
96.0 0.01042 77.27424 112.37645
98.0 0.01020 77.24736 113.05974
113.0 0.00885 77.22043 113.78494
108.0 0.00926 77.19346 114.55749
91.0 0.01099 77.16645 115.37345
94.0 0.01064 77.13940 116.23852
106.0 0.00943 77.11232 117.15540
101.0 0.00990 77.08519 118.12693
102.0 0.00980 77.05804 119.15623
91.0 0.01099 77.03084 120.24645
113.0 0.00885 77.00361 121.40113
107.0 0.00935 76.97633 122.62378
86.0 0.01163 76.94904 123.88416
111.0 0.00901 76.92169 125.25062
111.0 0.00901 76.89433 126.70207
109.0 0.00917 76.86692 128.23848
108.0 0.00926 76.83948 129.86476
130.0 0.00769 76.81201 131.58591
116.0 0.00862 76.78451 133.40732
131.0 0.00763 76.75698 135.33459
125.0 0.00800 76.72942 137.35637
132.0 0.00758 76.70183 139.50993
130.0 0.00769 76.67421 141.79015
130.0 0.00769 76.64656 144.20049
128.0 0.00781 76.61887 146.74725
143.0 0.00699 76.59118 149.43692
166.0 0.00602 76.56344 152.27579
143.0 0.00699 76.53568 155.27011
171.0 0.00585 76.50790 158.42595
195.0 0.00513 76.48008 161.74858
182.0 0.00549 76.45226 165.24316
158.0 0.00633 76.42440 168.91360
180.0 0.00556 76.39652 172.76294
199.0 0.00503 76.36861 176.79288
172.0 0.00581 76.34069 181.00334
193.0 0.00518 76.31275 185.39232
218.0 0.00459 76.28478 189.95532
201.0 0.00498 76.25679 194.68530
236.0 0.00424 76.22878 199.57195
251.0 0.00398 76.20077 204.60150
238.0 0.00420 76.17272 209.75662
265.0 0.00377 76.14466 215.01620
262.0 0.00382 76.11659 220.35530
251.0 0.00398 76.08849 225.74538
299.0 0.003344 76.06039 231.15454
273.0 0.00366 76.03226 236.54829
308.0 0.003247 76.00413 241.89012
302.0 0.003311 75.97598 247.14258
345.0 0.002899 75.94781 252.26782
310.0 0.003226 75.91964 257.22913
336.0 0.002976 75.89146 261.99091
386.0 0.002591 75.86325 266.52023
329.0 0.003040 75.83506 270.78656
369.0 0.002710 75.80683 274.76169
330.0 0.003030 75.77861 278.42026
350.0 0.002857 75.75037 281.73868
385.0 0.002597 75.72214 284.69522
368.0 0.002717 75.69389 287.27002
386.0 0.002591 75.66564 289.44464
385.0 0.002597 75.63737 291.20276
391.0 0.002558 75.60912 292.53122
413.0 0.002421 75.58085 293.42068
410.0 0.002439 75.55257 293.86731
372.0 0.002688 75.52431 293.87338
379.0 0.002639 75.49603 293.44876
380.0 0.002632 75.46776 292.61020
361.0 0.002770 75.43948 291.38193
349.0 0.002865 75.41120 289.79410
368.0 0.002717 75.38293 287.88187
374.0 0.002674 75.35465 285.68350
384.0 0.002604 75.32639 283.23932
348.0 0.002874 75.29812 280.58969
361.0 0.002770 75.26986 277.77408
339.0 0.002950 75.24159 274.83072
314.0 0.003185 75.21335 271.79526
341.0 0.002933 75.18509 268.70035
322.0 0.003106 75.15686 265.57507
310.0 0.003226 75.12863 262.44482
327.0 0.003058 75.10040 259.33038
334.0 0.002994 75.07219 256.24768
340.0 0.002941 75.04398 253.20793
307.0 0.003257 75.01579 250.21758
306.0 0.003268 74.98760 247.27788
261.0 0.00383 74.95943 244.38676
288.0 0.003472 74.93127 241.53835
272.0 0.00368 74.90314 238.72446
289.0 0.003460 74.87501 235.93523
259.0 0.00386 74.84689 233.16023
249.0 0.00402 74.81879 230.38916
234.0 0.00427 74.79071 227.61275
261.0 0.00383 74.76264 224.82329
256.0 0.00391 74.73459 222.01463
249.0 0.00402 74.70657 219.18336
262.0 0.00382 74.67857 216.32796
245.0 0.00408 74.65058 213.44958
236.0 0.00424 74.62262 210.55130
236.0 0.00424 74.59467 207.60056
220.0 0.00455 74.56676 204.67998
220.0 0.00455 74.53885 201.76004
219.0 0.00457 74.51098 198.85007
206.0 0.00485 74.48312 195.96051
210.0 0.00476 74.45531 193.10204
281.0 0.00356 74.42753 190.28552
240.0 0.00417 74.39976 187.52162
250.0 0.00400 74.37203 184.75874
229.0 0.00437 74.34431 182.13065
230.0 0.00435 74.31665 179.58379
217.0 0.00461 74.28900 177.12581
242.0 0.00413 74.26138 174.73793
231.0 0.00433 74.23380 172.47624
212.0 0.00472 74.20626 170.31937
189.0 0.00529 74.17875 168.27020
220.0 0.00455 74.15128 166.33025
211.0 0.00474 74.12384 164.50012
233.0 0.00429 74.09643 162.77902
223.0 0.00448 74.06907 161.16533
207.0 0.00483 74.04174 159.64369
186.0 0.00538 74.01445 158.23573
214.0 0.00467 73.98721 156.92441
214.0 0.00467 73.96000 155.70436
224.0 0.00446 73.93285 154.56985
223.0 0.00448 73.90571 153.51433
227.0 0.00441 73.87865 152.53069
216.0 0.00463 73.85160 151.61172
188.0 0.00532 73.82463 150.74976
229.0 0.00437 73.79768 149.93698
218.0 0.00459 73.77079 149.16573
211.0 0.00474 73.74396 148.42842
199.0 0.00503 73.71716 147.71768
171.0 0.00585 73.69041 147.02696
184.0 0.00543 73.66373 146.34984
180.0 0.00556 73.63708 145.68094
189.0 0.00529 73.61050 145.01561
203.0 0.00493 73.58396 144.35010
199.0 0.00503 73.55747 143.68150
179.0 0.00559 73.53105 143.00798
176.0 0.00568 73.50468 142.32857
176.0 0.00568 73.47837 141.64308
184.0 0.00543 73.45213 140.95236
168.0 0.00595 73.42592 140.25784
170.0 0.00588 73.39980 139.56158
181.0 0.00552 73.37372 138.86636
165.0 0.00606 73.34770 138.17531
183.0 0.00546 73.32177 137.49184
166.0 0.00602 73.29587 136.81978
146.0 0.00685 73.27007 136.17160
150.0 0.00667 73.24430 135.53410
142.0 0.00704 73.21861 134.91991
165.0 0.00606 73.19299 134.33278
139.0 0.00719 73.16744 133.77643
150.0 0.00667 73.14196 133.26140
178.0 0.00562 73.11655 132.77702
146.0 0.00685 73.09122 132.33319
163.0 0.00613 73.06594 131.93275
131.0 0.00763 73.04075 131.57823
165.0 0.00606 73.01563 131.27197
137.0 0.00730 72.99058 131.02026
144.0 0.00694 72.96561 130.81650
144.0 0.00694 72.94072 130.66670
137.0 0.00730 72.91590 130.57259
138.0 0.00725 72.89117 130.53569
144.0 0.00694 72.86652 130.56108
166.0 0.00602 72.84194 130.64339
119.0 0.00840 72.81746 130.78763
148.0 0.00676 72.79304 130.99548
138.0 0.00725 72.76872 131.26865
159.0 0.00629 72.74448 131.60904
150.0 0.00667 72.72032 132.01848
134.0 0.00746 72.69626 132.49910
152.0 0.00658 72.67228 133.05298
134.0 0.00746 72.64838 133.68246
155.0 0.00645 72.62459 134.39006
131.0 0.00763 72.60088 135.17810
160.0 0.00625 72.57726 136.04942
157.0 0.00637 72.55375 137.00668
141.0 0.00709 72.53031 138.05275
139.0 0.00719 72.50698 139.19049
158.0 0.00633 72.48375 140.42300
133.0 0.00752 72.46060 141.75325
145.0 0.00690 72.43756 143.18425
174.0 0.00575 72.41462 144.71895
154.0 0.00649 72.39178 146.36034
157.0 0.00637 72.36903 148.11116
129.0 0.00775 72.34639 149.67593
156.0 0.00641 72.32384 151.65488
146.0 0.00685 72.30143 153.75044
146.0 0.00685 72.27910 155.96407
153.0 0.00654 72.25688 158.29703
154.0 0.00649 72.23477 160.75644
153.0 0.00654 72.21277 163.32841
151.0 0.00662 72.19088 166.01868
146.0 0.00685 72.16911 168.66452
165.0 0.00606 72.14744 171.58334
136.0 0.00735 72.12588 174.60892
171.0 0.00585 72.10444 177.73456
160.0 0.00625 72.08311 180.95154
157.0 0.00637 72.06190 184.24046
180.0 0.00556 72.04082 187.60622
149.0 0.00671 72.01983 191.02499
192.0 0.00521 71.99898 194.48300
152.0 0.00658 71.97823 197.95439
205.0 0.00488 71.95763 201.42125
150.0 0.00667 71.93715 204.86072
173.0 0.00578 71.91678 208.24873
170.0 0.00588 71.89655 211.27133
191.0 0.00524 71.87643 214.48308
158.0 0.00633 71.85645 217.56891
170.0 0.00588 71.83659 220.50540
148.0 0.00676 71.81686 223.27132
191.0 0.00524 71.79726 225.84781
195.0 0.00513 71.77779 228.21954
208.0 0.00481 71.75847 230.37462
174.0 0.00575 71.73927 232.30539
189.0 0.00529 71.72021 234.00830
173.0 0.00578 71.70129 235.48390
216.0 0.00463 71.68250 236.73683
177.0 0.00565 71.66385 237.77512
213.0 0.00469 71.64534 238.61002
192.0 0.00521 71.62698 239.25531
198.0 0.00505 71.60875 239.72665
201.0 0.00498 71.59068 240.04079
192.0 0.00521 71.57273 240.21474
198.0 0.00505 71.55494 240.26534
214.0 0.00467 71.53729 240.20808
185.0 0.00541 71.51981 240.05670
203.0 0.00493 71.50246 239.82231
211.0 0.00474 71.48525 239.51291
215.0 0.00465 71.46822 239.13287
208.0 0.00481 71.45132 238.68274
196.0 0.00510 71.43459 238.15910
192.0 0.00521 71.41800 237.55479
224.0 0.00446 71.40158 236.85921
211.0 0.00474 71.38531 236.05899
204.0 0.00490 71.36919 235.13879
205.0 0.00488 71.35325 234.08229
204.0 0.00490 71.33746 232.87315
215.0 0.00465 71.32184 231.49637
195.0 0.00513 71.30637 229.93881
202.0 0.00495 71.29109 228.19034
191.0 0.00524 71.27596 226.24416
194.0 0.00515 71.26099 224.09750
220.0 0.00455 71.24620 221.75142
192.0 0.00521 71.23158 219.21091
197.0 0.00508 71.21712 216.48428
187.0 0.00535 71.20284 213.58357
192.0 0.00521 71.18874 210.52307
203.0 0.00493 71.17481 207.33160
173.0 0.00578 71.16106 204.00436
182.0 0.00549 71.14748 200.57330
200.0 0.00500 71.13407 197.05959
183.0 0.00546 71.12086 193.48494
192.0 0.00521 71.10781 189.87111
182.0 0.00549 71.09497 186.23958
176.0 0.00568 71.08230 182.61086
172.0 0.00581 71.06980 179.00449
155.0 0.00645 71.05750 175.43834
160.0 0.00625 71.04539 171.92874
167.0 0.00599 71.03346 168.49577
186.0 0.00538 71.02174 165.14006
173.0 0.00578 71.01019 161.87758
183.0 0.00546 70.99884 158.71663
160.0 0.00625 70.98769 155.66356
167.0 0.00599 70.97672 152.72282
172.0 0.00581 70.96597 149.89746
148.0 0.00676 70.95540 147.18887
145.0 0.00690 70.94504 144.59734
152.0 0.00658 70.93486 142.12189
139.0 0.00719 70.92490 139.76076
144.0 0.00694 70.91514 137.51132
126.0 0.00794 70.90558 135.37025
141.0 0.00709 70.89623 133.33386
147.0 0.00680 70.88708 131.39790
140.0 0.00714 70.87815 129.55779
162.0 0.00617 70.86943 127.80882
128.0 0.00781 70.86092 126.14606
144.0 0.00694 70.85261 124.56448
137.0 0.00730 70.84452 123.05899
151.0 0.00662 70.83666 121.62466
129.0 0.00775 70.82900 120.25656
121.0 0.00826 70.82157 118.94979
152.0 0.00658 70.81435 117.69981
123.0 0.00813 70.80735 116.50223
155.0 0.00645 70.80058 115.35284
157.0 0.00637 70.79402 114.24777
144.0 0.00694 70.78770 113.18349
119.0 0.00840 70.78159 112.15672
138.0 0.00725 70.77573 111.16449
135.0 0.00741 70.77007 110.20419
113.0 0.00885 70.76467 109.27361
121.0 0.00826 70.75948 108.37067
106.0 0.00943 70.75454 107.49371
125.0 0.00800 70.74982 106.64131
119.0 0.00840 70.74535 105.81222
121.0 0.00826 70.74110 105.00556
116.0 0.00862 70.73710 104.22051
109.0 0.00917 70.73333 103.45647
120.0 0.00833 70.72982 102.71301
101.0 0.00990 70.72654 101.98981
124.0 0.00806 70.72352 101.28658
118.0 0.00847 70.72073 100.60306
108.0 0.00926 70.71817 99.93919
87.0 0.01149 70.71588 99.29478
103.0 0.00971 70.71385 98.66971
104.0 0.00962 70.71205 98.06380
91.0 0.01099 70.71053 97.47689
96.0 0.01042 70.70924 96.90869
94.0 0.01064 70.70821 96.35891
106.0 0.00943 70.70744 95.82722
105.0 0.00952 70.70694 95.31319
102.0 0.00980 70.70668 94.81635
86.0 0.01163 70.70670 94.33612
94.0 0.01064 70.70697 93.87189
88.0 0.01136 70.70751 93.42299
85.0 0.01176 70.70833 93.02294
87.0 0.01149 70.70939 92.60272
82.0 0.01220 70.71074 92.19556
87.0 0.01149 70.71236 91.80071
98.0 0.01020 70.71423 91.41733
69.0 0.01449 70.71639 91.04457
84.0 0.01190 70.71883 90.68176
99.0 0.01010 70.72154 90.32806
89.0 0.01124 70.72453 89.98289
71.0 0.01408 70.72780 89.64555
73.0 0.01370 70.73135 89.31556
96.0 0.01042 70.73518 89.00945
87.0 0.01149 70.73930 88.69283
88.0 0.01136 70.74370 88.38228
75.0 0.01333 70.74839 88.07761
97.0 0.01031 70.75337 87.77855
71.0 0.01408 70.75863 87.48502
78.0 0.01282 70.76420 87.19695
65.0 0.01538 70.77005 86.91431
81.0 0.01235 70.77619 86.63710
71.0 0.01408 70.78264 86.36539
72.0 0.01389 70.78938 86.09926
76.0 0.01316 70.79642 85.83885
74.0 0.01351 70.80376 85.58421
68.0 0.01471 70.81142 85.33555
75.0 0.01333 70.81937 85.09290
71.0 0.01408 70.82762 84.85635
58.0 0.01724 70.83618 84.62621
63.0 0.01587 70.84505 84.40243
84.0 0.01190 70.85423 84.18510
74.0 0.01351 70.86373 83.97434
59.0 0.01695 70.87354 83.77010
98.0 0.01020 70.88366 83.56048
66.0 0.01515 70.89410 83.36958
73.0 0.01370 70.90485 83.18526
77.0 0.01299 70.91594 83.00753
51.0 0.01961 70.92734 82.83637
82.0 0.01220 70.93906 82.67168
69.0 . . .
loop_
_refln_index_h
_refln_index_k
_refln_index_l
_pd_refln_wavelength_id
_refln_observed_status
_refln_F_squared_meas
_refln_F_squared_calc
_refln_phase_calc
_refln_d_spacing
_gsas_i100_meas
1 1 0 1 o 284.456 128.151 0.00 4.18355 8.61
1 1 0 2 o 291.302 128.151 0.00 4.18355 4.39
0 2 0 1 o 1130.533 884.372 180.00 4.35327 17.86
0 2 0 2 o 1173.920 884.372 180.00 4.35327 9.25
0 0 1 1 o 5189.335 5076.304 0.00 4.63188 97.33
0 0 1 2 o 5198.781 5076.304 0.00 4.63188 48.56
1 1 -1 1 o 274.263 245.624 0.00 3.67645 6.79
1 1 -1 2 o 258.446 245.624 0.00 3.67645 3.18
0 2 1 1 o -0.249 65.527 0.00 3.17215 0.00
0 2 1 2 o -0.249 65.527 0.00 3.17215 0.00
1 1 1 1 o 0.515 15.276 0.00 2.73682 0.00
1 1 1 2 o 0.515 15.276 0.00 2.73682 0.00
1 3 0 1 o 357.306 414.370 180.00 2.47939 4.35
1 3 0 2 o 369.250 414.370 180.00 2.47939 2.24
1 3 -1 1 o 8908.170 8686.268 180.00 2.36017 100.00
1 3 -1 2 o 8856.210 8686.268 180.00 2.36017 49.48
2 0 -1 1 o 205.145 197.056 180.00 2.47792 1.81
2 0 -1 2 o 213.221 197.056 180.00 2.47792 0.92
2 0 0 1 o 3642.680 3501.213 0.00 2.38517 20.41
2 0 0 2 o 3655.997 3501.213 0.00 2.38517 10.20
1 1 -2 1 o 0.499 0.534 0.00 2.33092 0.02
1 1 -2 2 o 0.489 0.534 0.00 2.33092 0.01
0 0 2 1 o 268.835 281.981 0.00 2.31594 1.71
0 0 2 2 o 270.195 281.981 0.00 2.31594 0.86
2 2 -1 1 o 16.307 8.731 0.00 2.15350 0.15
2 2 -1 2 o 16.491 8.731 0.00 2.15350 0.08
0 4 0 1 o 265.091 159.582 0.00 2.17664 1.26
0 4 0 2 o 273.667 159.582 0.00 2.17664 0.65
2 2 0 1 o 280.764 210.497 180.00 2.09177 2.47
2 2 0 2 o 275.456 210.497 180.00 2.09177 1.20
1 3 1 1 o 39.119 24.921 180.00 2.04532 0.71
1 3 1 2 o 38.926 24.921 180.00 2.04532 0.35
0 2 2 1 o 512.094 430.082 180.00 2.04461 4.50
0 2 2 2 o 512.125 430.082 180.00 2.04461 2.24
2 0 -2 1 o 3834.833 3268.765 0.00 2.02789 16.10
2 0 -2 2 o 3793.299 3268.765 0.00 2.02789 7.92
0 4 1 1 o 88.991 62.158 180.00 1.96996 0.70
0 4 1 2 o 88.899 62.158 180.00 1.96996 0.35
1 3 -2 1 o 7051.371 7751.431 180.00 1.85827 50.79
1 3 -2 2 o 7017.307 7751.431 180.00 1.85827 25.15
2 0 1 1 o 6296.129 6532.991 0.00 1.88341 23.44
2 0 1 2 o 6206.586 6532.991 0.00 1.88341 11.50
2 2 -2 1 o 1063.580 1143.799 180.00 1.83822 7.38
2 2 -2 2 o 1074.869 1143.799 180.00 1.83822 3.71
1 1 2 1 o 42.180 43.669 0.00 1.81637 0.29
1 1 2 2 o 42.235 43.669 0.00 1.81637 0.15
2 2 1 1 o 0.793 21.048 0.00 1.72857 0.01
2 2 1 2 o -0.064 21.048 0.00 1.72857 0.00
1 5 0 1 o 388.376 296.053 0.00 1.63574 2.08
2 4 -1 1 o 62.006 48.192 180.00 1.63532 0.33
1 5 0 2 o 375.268 296.053 0.00 1.63574 1.00
2 4 -1 2 o 60.080 48.192 180.00 1.63532 0.16
2 4 0 1 o 330.198 350.855 0.00 1.60779 1.71
2 4 0 2 o 317.643 350.855 0.00 1.60779 0.82
3 1 -1 1 o 31.257 24.210 180.00 1.65292 0.19
1 1 -3 1 o 49.867 54.598 180.00 1.60676 0.31
3 1 -1 2 o 34.785 24.210 180.00 1.65292 0.11
1 1 -3 2 o 47.826 54.598 180.00 1.60676 0.15
1 5 -1 1 o 181.632 206.919 0.00 1.60007 0.92
1 5 -1 2 o 179.833 206.919 0.00 1.60007 0.45
0 4 2 1 o 201.796 225.692 0.00 1.58608 1.04
0 4 2 2 o 207.258 225.692 0.00 1.58608 0.53
1 3 2 1 o 2753.675 2820.970 180.00 1.56434 13.85
1 3 2 2 o 2797.389 2820.970 180.00 1.56434 7.00
3 1 0 1 o 86.694 89.533 0.00 1.56424 0.43
3 1 0 2 o 88.002 89.533 0.00 1.56424 0.22
0 0 3 1 o 174.043 147.575 0.00 1.54396 0.45
0 0 3 2 o 185.849 147.575 0.00 1.54396 0.24
2 0 -3 1 o 4139.606 3806.943 0.00 1.54913 10.37
3 1 -2 1 o 76.507 70.240 180.00 1.54939 0.41
2 0 -3 2 o 4388.104 3806.943 0.00 1.54913 5.47
3 1 -2 2 o 81.595 70.240 180.00 1.54939 0.22
1 5 1 1 o 116.051 130.541 0.00 1.49052 0.51
1 5 1 2 o 113.320 130.541 0.00 1.49052 0.25
2 4 -2 1 o 0.230 0.648 0.00 1.48373 0.01
2 4 -2 2 o 0.227 0.648 0.00 1.48373 0.01
2 2 -3 1 o 14.703 12.687 180.00 1.45948 0.07
2 2 -3 2 o 15.395 12.687 180.00 1.45948 0.04
0 2 3 1 o 14.561 11.904 180.00 1.45515 0.07
0 2 3 2 o 14.954 11.904 180.00 1.45515 0.04
3 3 -1 1 o 3787.413 3141.496 180.00 1.45625 15.90
2 0 2 1 o 5580.494 4364.916 0.00 1.44148 11.96
3 3 -1 2 o 3901.805 3141.496 180.00 1.45625 8.15
2 0 2 2 o 5680.516 4364.916 0.00 1.44148 6.06
1 3 -3 1 o 980.778 732.180 180.00 1.42439 4.05
2 4 1 1 o 83.322 62.413 180.00 1.42424 0.34
1 3 -3 2 o 955.747 732.180 180.00 1.42439 1.96
2 4 1 2 o 81.211 62.413 180.00 1.42424 0.16
1 5 -2 1 o 71.278 59.462 0.00 1.41328 0.28
1 5 -2 2 o 67.841 59.462 0.00 1.41328 0.13
0 6 0 1 o 4788.986 3757.495 0.00 1.45109 10.09
0 6 0 2 o 4819.126 3757.495 0.00 1.45109 5.05
3 3 0 1 o 3735.000 4023.652 180.00 1.39452 14.40
2 2 2 1 o 281.934 262.614 180.00 1.36841 1.07
3 3 0 2 o 3703.345 4023.652 180.00 1.39452 7.10
2 2 2 2 o 274.628 262.614 180.00 1.36841 0.52
3 3 -2 1 o 330.119 347.098 180.00 1.38396 1.24
3 3 -2 2 o 341.544 347.098 180.00 1.38396 0.64
0 6 1 1 o 2304.565 2464.761 0.00 1.38473 8.63
0 6 1 2 o 2390.897 2464.761 0.00 1.38473 4.46
3 1 1 1 o 51.622 65.622 0.00 1.35509 0.19
3 1 1 2 o 44.662 65.622 0.00 1.35509 0.08
