#------------------------------------------------------------------------------
#$Date: 2016-02-16 22:30:59 +0200 (Tue, 16 Feb 2016) $
#$Revision: 176467 $
#$URL: svn://www.crystallography.net/cod/cif/4/00/13/4001304.cif $
#------------------------------------------------------------------------------
#
# This file is available in the Crystallography Open Database (COD),
# http://www.crystallography.net/
#
# All data on this site have been placed in the public domain by the
# contributors.
#
data_4001304
loop_
_publ_author_name
'Bernuy-Lopez, Carlos'
'Allix, Mathieu'
'Bridges, Craig A.'
'Claridge, John B.'
'Rosseinsky, Matthew J.'
_publ_section_title
;
 Sr2MgMoO6-\d:&#x00A0; Structure, Phase Stability, and Cation Site Order
 Control of Reduction
;
_journal_issue                   5
_journal_name_full               'Chemistry of Materials'
_journal_page_first              1035
_journal_paper_doi               10.1021/cm0624116
_journal_volume                  19
_journal_year                    2007
_chemical_formula_sum            'Mg Mo O6 Sr2'
_chemical_formula_weight         391.51
_chemical_name_systematic        ' ?'
_space_group_IT_number           2
_symmetry_cell_setting           triclinic
_symmetry_space_group_name_Hall
'-P 1 (-1/2*x+1/2*y+1/2*z,1/2*x-1/2*y+1/2*z,1/2*x+1/2*y-1/2*z)'
_symmetry_space_group_name_H-M   'I -1'
_audit_creation_date             2006-10-06T08:40
_audit_creation_method           'from EXP file using GSAS2CIF'
_audit_update_record
' 2006-10-06T08:40  Initial CIF as created by GSAS2CIF'
_cell_angle_alpha                89.978(6)
_cell_angle_beta                 90.010(4)
_cell_angle_gamma                90.0150(34)
_cell_formula_units_Z            2
_cell_length_a                   5.56906(4)
_cell_length_b                   5.57039(4)
_cell_length_c                   7.92407(5)
_cell_volume                     245.819(3)
_computing_structure_refinement  GSAS
_diffrn_radiation_probe          neutron
_exptl_absorpt_correction_T_max  0.93759
_exptl_absorpt_correction_T_min  0.65278
_exptl_absorpt_process_details
;   GSAS Absorption/surface roughness correction: function number 0
 Debye-Scherrer absorption correction
Term (= MU.r/wave) =     0.51350E-01
Correction is refined.
;
_pd_block_id                     2006-10-06T08:40|FINAL|jbc|polaris
_pd_calc_method                  'Rietveld Refinement'
_pd_instr_location               ' ?'
_pd_meas_2theta_fixed            145.00
_pd_meas_number_of_points        5566
_pd_phase_name
'from C:/Carlos/Sr2MgMoO6/POLARIS/PF4_FINAL_ANISO_CONTINUE.EXP'
_pd_proc_info_datetime           2006-10-06T08:40:22
_pd_proc_info_excluded_regions   ' ?'
_pd_proc_ls_background_function
;   GSAS Background function number 1 with 20 terms.
 Shifted Chebyshev function of 1st kind
      1:    3.05839     2:  -0.973214     3:   0.517687     4:  -0.301727    
      5:   0.140488     6:  -5.971650E-03 7:  -1.535030E-02 8:   7.249530E-03
      9:  -2.098220E-0210:   2.773570E-0211:   2.838950E-0212:   1.928660E-02
     13:  -3.674080E-0214:  -1.170210E-0215:  -3.405440E-0316:   1.917560E-03
     17:   4.836340E-0318:   3.630810E-0219:  -5.772180E-0320:   3.029880E-02
;
_pd_proc_ls_peak_cutoff          0.00100
_pd_proc_ls_profile_function
;
 TOF Profile function number 3 with  21 terms
 Profile coefficients for exponential pseudovoigt
  convolution Von Dreele, 1990 (unpublished)
 Peak tails are ignored  where the intensity is below 0.0010 times the peak
   Aniso. broadening axis   0.0   0.0   1.0
;
_pd_proc_ls_prof_R_factor        0.0340
_pd_proc_ls_prof_wR_expected     0.0103
_pd_proc_ls_prof_wR_factor       0.0216
_pd_proc_number_of_points        5566
_pd_spec_mounting                ' ?'
_refine_ls_goodness_of_fit_all   2.11
_refine_ls_matrix_type           full
_refine_ls_number_parameters     49
_refine_ls_number_restraints     0
_refine_ls_R_Fsqd_factor         0.04862
_refine_ls_shift/su_max          0.08
_refine_ls_shift/su_mean         0.01
_reflns_d_resolution_high        0.400
_reflns_d_resolution_low         2.794
_reflns_limit_h_max              14
_reflns_limit_h_min              0
_reflns_limit_k_max              14
_reflns_limit_k_min              -14
_reflns_limit_l_max              20
_reflns_limit_l_min              -20
_reflns_number_total             3975
_cod_data_source_file            cm0624116si20061009_082004.cif
_cod_data_source_block           FINAL_publ
_cod_depositor_comments
;
The following automatic conversions were performed:

'_geom_bond_publ_flag' value 'N' changed to 'n' according to
/home/saulius/struct/CIF-dictionaries/cif_core.dic dictionary named
'cif_core.dic' version 2.4.1 from 2010-06-29 (72
times).

'_geom_angle_publ_flag' value 'N' changed to 'n' according
to /home/saulius/struct/CIF-dictionaries/cif_core.dic dictionary
named 'cif_core.dic' version 2.4.1 from 2010-06-29 (458 times).

Automatic conversion script
Id: cif_fix_values 1715 2011-07-08 13:25:40Z adriana 
;
_cod_original_cell_volume        245.8190(30)
_cod_original_formula_sum        'Mg Mo O6.00 Sr2'
_cod_database_code               4001304
#BEGIN Tags that were not found in dictionaries:
_gsas_exptl_extinct_corr_t_min   1.00000
_gsas_exptl_extinct_corr_t_max   1.00000
#END Tags that were not found in dictionaries
loop_
_symmetry_equiv_pos_site_id
_symmetry_equiv_pos_as_xyz
1 +x,+y,+z
-1 -x,-y,-z
101 +x+1/2,+y+1/2,+z+1/2
-101 -x+1/2,-y+1/2,-z+1/2
loop_
_atom_site_type_symbol
_atom_site_label
_atom_site_fract_x
_atom_site_fract_y
_atom_site_fract_z
_atom_site_occupancy
_atom_site_thermal_displace_type
_atom_site_U_iso_or_equiv
_atom_site_symmetry_multiplicity
Sr Sr1 0.5014(6) 0.00144(32) 0.2501(5) 1.0 Uiso 0.009573(35 4
Mo Mo1 0.0 0.0 0.0 1.0 Uiso 0.005064(31 2
Mg Mg2 0.5 0.5 0.0 1.0 Uiso 0.005064(31 2
O O1 -0.00617 -0.01549(18) 0.24697(32) 1.0 Uiso 0.01167(7) 4
O O2 0.26630(19) 0.22648(16) -0.00768(20) 1.0 Uiso 0.01272(8) 4
O O2b -0.21452(12) 0.27506(16) -0.00820(20) 1.0009(19) Uiso 0.00936(6) 4
loop_
_atom_type_symbol
_atom_type_number_in_cell
_atom_type_scat_length_neutron
_atom_type_scat_source
Sr 4.0 0.7020 International_Tables_Vol_C
Mo 2.0 0.6715 International_Tables_Vol_C
Mg 2.0 0.5375 International_Tables_Vol_C
O 12.003 0.5805 International_Tables_Vol_C
loop_
_geom_angle_atom_site_label_1
_geom_angle_atom_site_label_2
_geom_angle_atom_site_label_3
_geom_angle
_geom_angle_site_symmetry_1
_geom_angle_site_symmetry_3
_geom_angle_publ_flag
Sr1 Sr1 Sr1 179.3457(17) -1_655 -1_656 n
Sr1 Sr1 Sr1 89.63(14) -1_655 -101_434 n
Sr1 Sr1 Sr1 89.99(13) -1_655 -101_444 n
Sr1 Sr1 Sr1 89.94(14) -1_655 -101_534 n
Sr1 Sr1 Sr1 90.30(14) -1_655 -101_544 n
Sr1 Sr1 Mo1 54.41(8) -1_655 1_555 n
Sr1 Sr1 Mo1 54.70(8) -1_655 1_655 n
Sr1 Sr1 Mo1 125.08(9) -1_655 101_545 n
Sr1 Sr1 Mo1 125.73(9) -1_655 101_555 n
Sr1 Sr1 Mg2 54.39(6) -1_655 1_545 n
Sr1 Sr1 Mg2 54.73(6) -1_655 1_555 n
Sr1 Sr1 Mg2 125.11(13) -1_655 101_445 n
Sr1 Sr1 Mg2 125.71(13) -1_655 101_545 n
Sr1 Sr1 O1 89.26(13) -1_655 1_555 n
Sr1 Sr1 O1 89.69(13) -1_655 1_655 n
Sr1 Sr1 O1 90.23(11) -1_655 -101_545 n
Sr1 Sr1 O1 90.71(11) -1_655 -101_555 n
Sr1 Sr1 O2 41.59(7) -1_655 1_555 n
Sr1 Sr1 O2 43.33(7) -1_655 -1_655 n
Sr1 Sr1 O2 132.04(13) -1_655 101_545 n
Sr1 Sr1 O2 133.84(12) -1_655 -101_555 n
Sr1 Sr1 Sr1 89.71(14) -1_656 -101_434 n
Sr1 Sr1 Sr1 90.01(14) -1_656 -101_444 n
Sr1 Sr1 Sr1 90.05(13) -1_656 -101_534 n
Sr1 Sr1 Sr1 90.35(14) -1_656 -101_544 n
Sr1 Sr1 Mo1 125.13(13) -1_656 1_555 n
Sr1 Sr1 Mo1 125.76(13) -1_656 1_655 n
Sr1 Sr1 Mo1 54.45(6) -1_656 101_545 n
Sr1 Sr1 Mo1 54.73(6) -1_656 101_555 n
Sr1 Sr1 Mg2 125.14(9) -1_656 1_545 n
Sr1 Sr1 Mg2 125.73(9) -1_656 1_555 n
Sr1 Sr1 Mg2 54.43(8) -1_656 101_445 n
Sr1 Sr1 Mg2 54.75(8) -1_656 101_545 n
Sr1 Sr1 O1 90.26(13) -1_656 1_555 n
Sr1 Sr1 O1 90.76(13) -1_656 1_655 n
Sr1 Sr1 O1 89.31(11) -1_656 -101_545 n
Sr1 Sr1 O1 89.75(11) -1_656 -101_555 n
Sr1 Sr1 O2 138.40(13) -1_656 1_555 n
Sr1 Sr1 O2 136.68(13) -1_656 -1_655 n
Sr1 Sr1 O2 47.95(7) -1_656 101_545 n
Sr1 Sr1 O2 46.17(7) -1_656 -101_555 n
Sr1 Sr1 Sr1 89.69(13) -101_434 -101_444 n
Sr1 Sr1 Sr1 89.66(7) -101_434 -101_534 n
Sr1 Sr1 Sr1 179.93150(30) -101_434 -101_544 n
Sr1 Sr1 Mo1 54.65(8) -101_545 1_555 n
Sr1 Sr1 Mo1 124.97(12) -101_545 1_655 n
Sr1 Sr1 Mo1 54.67(6) -101_545 101_545 n
Sr1 Sr1 Mo1 125.06(14) -101_545 101_555 n
Sr1 Sr1 Mg2 54.65(6) -101_545 1_545 n
Sr1 Sr1 Mg2 125.00(14) -101_545 1_555 n
Sr1 Sr1 Mg2 54.70(8) -101_545 101_445 n
Sr1 Sr1 Mg2 125.06(12) -101_545 101_545 n
Sr1 Sr1 O1 43.11(7) -101_545 1_555 n
Sr1 Sr1 O1 133.01(10) -101_545 1_655 n
Sr1 Sr1 O1 45.56(4) -101_545 -101_545 n
Sr1 Sr1 O1 135.53(13) -101_545 -101_555 n
Sr1 Sr1 O2 89.14(12) -101_545 1_555 n
Sr1 Sr1 O2 90.33(10) -101_545 -1_655 n
Sr1 Sr1 O2 89.22(9) -101_545 101_545 n
Sr1 Sr1 O2 90.37(12) -101_545 -101_555 n
Sr1 Sr1 Sr1 179.3382(17) -101_444 -101_534 n
Sr1 Sr1 Sr1 90.32(7) -101_444 -101_544 n
Sr1 Sr1 Mo1 54.66(8) -101_555 1_555 n
Sr1 Sr1 Mo1 125.47(12) -101_555 1_655 n
Sr1 Sr1 Mo1 124.91(14) -101_555 101_545 n
Sr1 Sr1 Mo1 54.97(7) -101_555 101_555 n
Sr1 Sr1 Mg2 124.86(14) -101_555 1_545 n
Sr1 Sr1 Mg2 54.95(6) -101_555 1_555 n
Sr1 Sr1 Mg2 54.67(8) -101_555 101_445 n
Sr1 Sr1 Mg2 125.51(13) -101_555 101_545 n
Sr1 Sr1 O1 46.58(7) -101_555 1_555 n
Sr1 Sr1 O1 137.30(10) -101_555 1_655 n
Sr1 Sr1 O1 135.24(14) -101_555 -101_545 n
Sr1 Sr1 O1 45.84(4) -101_555 -101_555 n
Sr1 Sr1 O2 48.40(8) -101_555 1_555 n
Sr1 Sr1 O2 133.31(18) -101_555 -1_655 n
Sr1 Sr1 O2 137.94(18) -101_555 101_545 n
Sr1 Sr1 O2 43.85(7) -101_555 -101_555 n
Sr1 Sr1 Sr1 90.34(13) -101_534 -101_544 n
Sr1 Sr1 Mo1 124.83(12) -101_645 1_555 n
Sr1 Sr1 Mo1 54.94(8) -101_645 1_655 n
Sr1 Sr1 Mo1 54.67(6) -101_645 101_545 n
Sr1 Sr1 Mo1 125.54(14) -101_645 101_555 n
Sr1 Sr1 Mg2 54.62(6) -101_645 1_545 n
Sr1 Sr1 Mg2 125.46(14) -101_645 1_555 n
Sr1 Sr1 Mg2 124.92(12) -101_645 101_445 n
Sr1 Sr1 Mg2 55.00(8) -101_645 101_545 n
Sr1 Sr1 O1 132.76(10) -101_645 1_555 n
Sr1 Sr1 O1 43.36(7) -101_645 1_655 n
Sr1 Sr1 O1 44.10(4) -101_645 -101_545 n
Sr1 Sr1 O1 134.81(13) -101_645 -101_555 n
Sr1 Sr1 O2 131.52(18) -101_645 1_555 n
Sr1 Sr1 O2 46.63(8) -101_645 -1_655 n
Sr1 Sr1 O2 42.11(7) -101_645 101_545 n
Sr1 Sr1 O2 136.22(17) -101_645 -101_555 n
Sr1 Sr1 Mo1 125.31(12) -101_655 1_555 n
Sr1 Sr1 Mo1 54.98(8) -101_655 1_655 n
Sr1 Sr1 Mo1 125.37(14) -101_655 101_545 n
Sr1 Sr1 Mo1 54.99(7) -101_655 101_555 n
Sr1 Sr1 Mg2 125.31(15) -101_655 1_545 n
Sr1 Sr1 Mg2 54.95(6) -101_655 1_555 n
Sr1 Sr1 Mg2 125.35(13) -101_655 101_445 n
Sr1 Sr1 Mg2 54.99(8) -101_655 101_545 n
Sr1 Sr1 O1 136.89(10) -101_655 1_555 n
Sr1 Sr1 O1 46.98(7) -101_655 1_655 n
Sr1 Sr1 O1 134.44(14) -101_655 -101_545 n
Sr1 Sr1 O1 44.48(4) -101_655 -101_555 n
Sr1 Sr1 O2 90.81(10) -101_655 1_555 n
Sr1 Sr1 O2 89.62(13) -101_655 -1_655 n
Sr1 Sr1 O2 90.82(12) -101_655 101_545 n
Sr1 Sr1 O2 89.68(10) -101_655 -101_555 n
Mo1 Sr1 Mo1 109.11(11) 1_555 1_655 n
Mo1 Sr1 Mo1 109.32(7) 1_555 101_545 n
Mo1 Sr1 Mo1 109.63(7) 1_555 101_555 n
Mo1 Sr1 Mg2 70.20(6) 1_555 1_545 n
Mo1 Sr1 Mg2 70.35(6) 1_555 1_555 n
Mo1 Sr1 Mg2 70.70(6) 1_555 101_445 n
Mo1 Sr1 Mg2 179.7032(4) 1_555 101_545 n
Mo1 Sr1 O1 34.90(6) 1_555 1_555 n
Mo1 Sr1 O1 144.05(15) 1_555 1_655 n
Mo1 Sr1 O1 90.60(9) 1_555 -101_545 n
Mo1 Sr1 O1 90.83(8) 1_555 -101_555 n
Mo1 Sr1 O2 34.63(5) 1_555 1_555 n
Mo1 Sr1 O2 88.70(10) 1_555 -1_655 n
Mo1 Sr1 O2 143.75(8) 1_555 101_545 n
Mo1 Sr1 O2 89.39(8) 1_555 -101_555 n
Mo1 Sr1 Mo1 109.62(7) 1_655 101_545 n
Mo1 Sr1 Mo1 109.97(7) 1_655 101_555 n
Mo1 Sr1 Mg2 70.33(7) 1_655 1_545 n
Mo1 Sr1 Mg2 70.52(6) 1_655 1_555 n
Mo1 Sr1 Mg2 179.6725(5) 1_655 101_445 n
Mo1 Sr1 Mg2 71.01(6) 1_655 101_545 n
Mo1 Sr1 O1 143.92(14) 1_655 1_555 n
Mo1 Sr1 O1 35.03(7) 1_655 1_655 n
Mo1 Sr1 O1 89.67(9) 1_655 -101_545 n
Mo1 Sr1 O1 90.00(8) 1_655 -101_555 n
Mo1 Sr1 O2 87.52(10) 1_655 1_555 n
Mo1 Sr1 O2 34.67(5) 1_655 -1_655 n
Mo1 Sr1 O2 88.21(8) 1_655 101_545 n
Mo1 Sr1 O2 144.63(8) 1_655 -101_555 n
Mo1 Sr1 Mo1 109.18(11) 101_545 101_555 n
Mo1 Sr1 Mg2 70.690(34) 101_545 1_545 n
Mo1 Sr1 Mg2 179.6743(6) 101_545 1_555 n
Mo1 Sr1 Mg2 70.24(6) 101_545 101_445 n
Mo1 Sr1 Mg2 70.38(6) 101_545 101_545 n
Mo1 Sr1 O1 88.61(8) 101_545 1_555 n
Mo1 Sr1 O1 88.82(8) 101_545 1_655 n
Mo1 Sr1 O1 34.86(6) 101_545 -101_545 n
Mo1 Sr1 O1 144.20(14) 101_545 -101_555 n
Mo1 Sr1 O2 143.69(10) 101_545 1_555 n
Mo1 Sr1 O2 91.69(6) 101_545 -1_655 n
Mo1 Sr1 O2 34.67(4) 101_545 101_545 n
Mo1 Sr1 O2 91.04(10) 101_545 -101_555 n
Mo1 Sr1 Mg2 179.7052(6) 101_555 1_545 n
Mo1 Sr1 Mg2 71.002(34) 101_555 1_555 n
Mo1 Sr1 Mg2 70.36(7) 101_555 101_445 n
Mo1 Sr1 Mg2 70.54(6) 101_555 101_545 n
Mo1 Sr1 O1 91.70(9) 101_555 1_555 n
Mo1 Sr1 O1 92.06(9) 101_555 1_655 n
Mo1 Sr1 O1 144.04(15) 101_555 -101_545 n
Mo1 Sr1 O1 35.03(6) 101_555 -101_555 n
Mo1 Sr1 O2 93.40(6) 101_555 1_555 n
Mo1 Sr1 O2 144.58(11) 101_555 -1_655 n
Mo1 Sr1 O2 92.74(10) 101_555 101_545 n
Mo1 Sr1 O2 34.71(4) 101_555 -101_555 n
Mg2 Sr1 Mg2 109.12(11) 1_545 1_555 n
Mg2 Sr1 Mg2 109.35(7) 1_545 101_445 n
Mg2 Sr1 Mg2 109.62(7) 1_545 101_545 n
Mg2 Sr1 O1 88.03(8) 1_545 1_555 n
Mg2 Sr1 O1 88.20(8) 1_545 1_655 n
Mg2 Sr1 O1 35.84(6) 1_545 -101_545 n
Mg2 Sr1 O1 145.10(14) 1_545 -101_555 n
Mg2 Sr1 O2 86.58(10) 1_545 1_555 n
Mg2 Sr1 O2 35.71(4) 1_545 -1_655 n
Mg2 Sr1 O2 87.29(6) 1_545 101_545 n
Mg2 Sr1 O2 145.00(10) 1_545 -101_555 n
Mg2 Sr1 Mg2 109.62(7) 1_555 101_445 n
Mg2 Sr1 Mg2 109.94(7) 1_555 101_545 n
Mg2 Sr1 O1 91.12(8) 1_555 1_555 n
Mg2 Sr1 O1 91.44(9) 1_555 1_655 n
Mg2 Sr1 O1 144.96(15) 1_555 -101_545 n
Mg2 Sr1 O1 35.99(6) 1_555 -101_555 n
Mg2 Sr1 O2 35.98(4) 1_555 1_555 n
Mg2 Sr1 O2 88.28(10) 1_555 -1_655 n
Mg2 Sr1 O2 145.65(10) 1_555 101_545 n
Mg2 Sr1 O2 88.99(6) 1_555 -101_555 n
Mg2 Sr1 Mg2 109.17(11) 101_445 101_545 n
Mg2 Sr1 O1 35.88(7) 101_445 1_555 n
Mg2 Sr1 O1 145.14(15) 101_445 1_655 n
Mg2 Sr1 O1 90.07(9) 101_445 -101_545 n
Mg2 Sr1 O1 90.27(8) 101_445 -101_555 n
Mg2 Sr1 O2 92.43(9) 101_445 1_555 n
Mg2 Sr1 O2 145.00(9) 101_445 -1_655 n
Mg2 Sr1 O2 91.81(10) 101_445 101_545 n
Mg2 Sr1 O2 35.69(4) 101_445 -101_555 n
Mg2 Sr1 O1 144.96(15) 101_545 1_555 n
Mg2 Sr1 O1 36.06(7) 101_545 1_655 n
Mg2 Sr1 O1 89.13(8) 101_545 -101_545 n
Mg2 Sr1 O1 89.44(8) 101_545 -101_555 n
Mg2 Sr1 O2 145.66(9) 101_545 1_555 n
Mg2 Sr1 O2 91.28(9) 101_545 -1_655 n
Mg2 Sr1 O2 35.95(4) 101_545 101_545 n
Mg2 Sr1 O2 90.64(10) 101_545 -101_555 n
O1 Sr1 O1 175.98(9) 1_555 1_655 n
O1 Sr1 O1 88.67(8) 1_555 -101_545 n
O1 Sr1 O1 92.43(8) 1_555 -101_555 n
O1 Sr1 O2 61.93(8) 1_555 1_555 n
O1 Sr1 O2 117.84(13) 1_555 -1_655 n
O1 Sr1 O2 120.19(12) 1_555 101_545 n
O1 Sr1 O2 61.15(8) 1_555 -101_555 n
O1 Sr1 O1 87.46(8) 1_655 -101_545 n
O1 Sr1 O1 91.46(8) 1_655 -101_555 n
O1 Sr1 O2 119.21(14) 1_655 1_555 n
O1 Sr1 O2 59.15(9) 1_655 -1_655 n
O1 Sr1 O2 58.20(8) 1_655 101_545 n
O1 Sr1 O2 121.99(13) 1_655 -101_555 n
O1 Sr1 O1 178.56(16) -101_545 -101_555 n
O1 Sr1 O2 118.02(13) -101_545 1_555 n
O1 Sr1 O2 61.34(7) -101_545 -1_655 n
O1 Sr1 O2 56.95(7) -101_545 101_545 n
O1 Sr1 O2 120.90(13) -101_545 -101_555 n
O1 Sr1 O2 63.36(7) -101_555 1_555 n
O1 Sr1 O2 118.83(13) -101_555 -1_655 n
O1 Sr1 O2 121.64(13) -101_555 101_545 n
O1 Sr1 O2 58.98(7) -101_555 -101_555 n
O2 Sr1 O2 84.92(12) 1_555 -1_655 n
O2 Sr1 O2 173.44(14) 1_555 101_545 n
O2 Sr1 O2 92.25(9) 1_555 -101_555 n
O2 Sr1 O2 88.74(9) -1_655 101_545 n
O2 Sr1 O2 177.07(14) -1_655 -101_555 n
O2 Sr1 O2 94.11(12) 101_545 -101_555 n
Sr1 Mo1 Sr1 109.11(11) 1_455 1_555 n
Sr1 Mo1 Sr1 70.89(11) 1_455 -1_555 n
Sr1 Mo1 Sr1 180.0 1_455 -1_655 n
Sr1 Mo1 Sr1 109.97(7) 1_455 101_444 n
Sr1 Mo1 Sr1 109.62(7) 1_455 101_454 n
Sr1 Mo1 Sr1 70.38(7) 1_455 -101_434 n
Sr1 Mo1 Sr1 70.03(7) 1_455 -101_444 n
Sr1 Mo1 O1 53.51(6) 1_455 1_555 n
Sr1 Mo1 O1 126.49(6) 1_455 -1_555 n
Sr1 Mo1 O2 129.50(6) 1_455 1_555 n
Sr1 Mo1 O2 50.50(6) 1_455 -1_555 n
Sr1 Mo1 O2b 61.12(5) 1_455 1_555 n
Sr1 Mo1 O2b 118.88(5) 1_455 -1_555 n
Sr1 Mo1 Sr1 179.9657 1_555 -1_555 n
Sr1 Mo1 Sr1 70.89(11) 1_555 -1_655 n
Sr1 Mo1 Sr1 109.63(7) 1_555 101_444 n
Sr1 Mo1 Sr1 109.32(7) 1_555 101_454 n
Sr1 Mo1 Sr1 70.68(7) 1_555 -101_434 n
Sr1 Mo1 Sr1 70.37(7) 1_555 -101_444 n
Sr1 Mo1 O1 55.69(6) 1_555 1_555 n
Sr1 Mo1 O1 124.31(6) 1_555 -1_555 n
Sr1 Mo1 O2 52.82(6) 1_555 1_555 n
Sr1 Mo1 O2 127.18(6) 1_555 -1_555 n
Sr1 Mo1 O2b 121.23(5) 1_555 1_555 n
Sr1 Mo1 O2b 58.77(5) 1_555 -1_555 n
Sr1 Mo1 Sr1 109.11(11) -1_555 -1_655 n
Sr1 Mo1 Sr1 70.37(7) -1_555 101_444 n
Sr1 Mo1 Sr1 70.68(7) -1_555 101_454 n
Sr1 Mo1 Sr1 109.32(7) -1_555 -101_434 n
Sr1 Mo1 Sr1 109.63(7) -1_555 -101_444 n
Sr1 Mo1 O1 124.31(6) -1_555 1_555 n
Sr1 Mo1 O1 55.69(6) -1_555 -1_555 n
Sr1 Mo1 O2 127.18(6) -1_555 1_555 n
Sr1 Mo1 O2 52.82(6) -1_555 -1_555 n
Sr1 Mo1 O2b 58.77(5) -1_555 1_555 n
Sr1 Mo1 O2b 121.23(5) -1_555 -1_555 n
Sr1 Mo1 Sr1 70.03(7) -1_655 101_444 n
Sr1 Mo1 Sr1 70.38(7) -1_655 101_454 n
Sr1 Mo1 Sr1 109.62(7) -1_655 -101_434 n
Sr1 Mo1 Sr1 109.97(7) -1_655 -101_444 n
Sr1 Mo1 O1 126.49(6) -1_655 1_555 n
Sr1 Mo1 O1 53.51(6) -1_655 -1_555 n
Sr1 Mo1 O2 50.50(6) -1_655 1_555 n
Sr1 Mo1 O2 129.50(6) -1_655 -1_555 n
Sr1 Mo1 O2b 118.88(5) -1_655 1_555 n
Sr1 Mo1 O2b 61.12(5) -1_655 -1_555 n
Sr1 Mo1 Sr1 109.18(11) 101_444 101_454 n
Sr1 Mo1 Sr1 70.82(11) 101_444 -101_434 n
Sr1 Mo1 Sr1 179.972 101_444 -101_444 n
Sr1 Mo1 O1 122.97(6) 101_444 1_555 n
Sr1 Mo1 O1 57.03(6) 101_444 -1_555 n
Sr1 Mo1 O2 120.48(7) 101_444 1_555 n
Sr1 Mo1 O2 59.52(7) 101_444 -1_555 n
Sr1 Mo1 O2b 128.61(7) 101_444 1_555 n
Sr1 Mo1 O2b 51.39(7) 101_444 -1_555 n
Sr1 Mo1 Sr1 179.9657 101_454 -101_434 n
Sr1 Mo1 Sr1 70.82(11) 101_454 -101_444 n
Sr1 Mo1 O1 127.83(6) 101_454 1_555 n
Sr1 Mo1 O1 52.17(6) 101_454 -1_555 n
Sr1 Mo1 O2 56.76(6) 101_454 1_555 n
Sr1 Mo1 O2 123.24(6) 101_454 -1_555 n
Sr1 Mo1 O2b 48.64(7) 101_454 1_555 n
Sr1 Mo1 O2b 131.36(7) 101_454 -1_555 n
Sr1 Mo1 Sr1 109.18(11) -101_434 -101_444 n
Sr1 Mo1 O1 52.17(6) -101_545 1_555 n
Sr1 Mo1 O1 127.83(6) -101_545 -1_555 n
Sr1 Mo1 O2 123.24(6) -101_545 1_555 n
Sr1 Mo1 O2 56.76(6) -101_545 -1_555 n
Sr1 Mo1 O2b 131.36(7) -101_545 1_555 n
Sr1 Mo1 O2b 48.64(7) -101_545 -1_555 n
Sr1 Mo1 O1 57.03(6) -101_555 1_555 n
Sr1 Mo1 O1 122.97(6) -101_555 -1_555 n
Sr1 Mo1 O2 59.52(7) -101_555 1_555 n
Sr1 Mo1 O2 120.48(7) -101_555 -1_555 n
Sr1 Mo1 O2b 51.39(7) -101_555 1_555 n
Sr1 Mo1 O2b 128.61(7) -101_555 -1_555 n
O1 Mo1 O1 180.0 1_555 -1_555 n
O1 Mo1 O2 94.18(5) 1_555 1_555 n
O1 Mo1 O2 85.82(5) 1_555 -1_555 n
O1 Mo1 O2b 93.26(5) 1_555 1_555 n
O1 Mo1 O2b 86.74(5) 1_555 -1_555 n
O1 Mo1 O2 85.82(5) -1_555 1_555 n
O1 Mo1 O2 94.18(5) -1_555 -1_555 n
O1 Mo1 O2b 86.74(5) -1_555 1_555 n
O1 Mo1 O2b 93.26(5) -1_555 -1_555 n
O2 Mo1 O2 180.0 1_555 -1_555 n
O2 Mo1 O2b 87.50(4) 1_555 1_555 n
O2 Mo1 O2b 92.50(4) 1_555 -1_555 n
O2 Mo1 O2b 92.50(4) -1_555 1_555 n
O2 Mo1 O2b 87.50(4) -1_555 -1_555 n
O2b Mo1 O2b 180.0 1_555 -1_555 n
Sr1 Mg2 Sr1 109.12(11) 1_555 1_565 n
Sr1 Mg2 Sr1 70.88(11) 1_555 -1_655 n
Sr1 Mg2 Sr1 180.0 1_555 -1_665 n
Sr1 Mg2 Sr1 109.94(7) 1_555 101_454 n
Sr1 Mg2 Sr1 109.62(7) 1_555 101_554 n
Sr1 Mg2 Sr1 70.38(7) 1_555 -101_444 n
Sr1 Mg2 Sr1 70.06(7) 1_555 -101_544 n
Sr1 Mg2 O1 123.04(6) 1_555 101_554 n
Sr1 Mg2 O1 56.96(6) 1_555 -101_555 n
Sr1 Mg2 O2 53.17(7) 1_555 1_555 n
Sr1 Mg2 O2 126.83(7) 1_555 -1_665 n
Sr1 Mg2 O2b 60.87(6) 1_555 1_655 n
Sr1 Mg2 O2b 119.13(6) 1_555 -1_565 n
Sr1 Mg2 Sr1 179.9657 1_565 -1_655 n
Sr1 Mg2 Sr1 70.88(11) 1_565 -1_665 n
Sr1 Mg2 Sr1 109.62(7) 1_565 101_454 n
Sr1 Mg2 Sr1 109.35(7) 1_565 101_554 n
Sr1 Mg2 Sr1 70.65(7) 1_565 -101_444 n
Sr1 Mg2 Sr1 70.38(7) 1_565 -101_544 n
Sr1 Mg2 O1 127.84(6) 1_565 101_554 n
Sr1 Mg2 O1 52.16(6) 1_565 -101_555 n
Sr1 Mg2 O2 129.70(7) 1_565 1_555 n
Sr1 Mg2 O2 50.30(7) 1_565 -1_665 n
Sr1 Mg2 O2b 121.43(6) 1_565 1_655 n
Sr1 Mg2 O2b 58.57(6) 1_565 -1_565 n
Sr1 Mg2 Sr1 109.12(11) -1_655 -1_665 n
Sr1 Mg2 Sr1 70.38(7) -1_655 101_454 n
Sr1 Mg2 Sr1 70.65(7) -1_655 101_554 n
Sr1 Mg2 Sr1 109.35(7) -1_655 -101_444 n
Sr1 Mg2 Sr1 109.62(7) -1_655 -101_544 n
Sr1 Mg2 O1 52.16(6) -1_655 101_554 n
Sr1 Mg2 O1 127.84(6) -1_655 -101_555 n
Sr1 Mg2 O2 50.30(7) -1_655 1_555 n
Sr1 Mg2 O2 129.70(7) -1_655 -1_665 n
Sr1 Mg2 O2b 58.57(6) -1_655 1_655 n
Sr1 Mg2 O2b 121.43(6) -1_655 -1_565 n
Sr1 Mg2 Sr1 70.06(7) -1_665 101_454 n
Sr1 Mg2 Sr1 70.38(7) -1_665 101_554 n
Sr1 Mg2 Sr1 109.62(7) -1_665 -101_444 n
Sr1 Mg2 Sr1 109.94(7) -1_665 -101_544 n
Sr1 Mg2 O1 56.96(6) -1_665 101_554 n
Sr1 Mg2 O1 123.04(6) -1_665 -101_555 n
Sr1 Mg2 O2 126.83(7) -1_665 1_555 n
Sr1 Mg2 O2 53.17(7) -1_665 -1_665 n
Sr1 Mg2 O2b 119.13(6) -1_665 1_655 n
Sr1 Mg2 O2b 60.87(6) -1_665 -1_565 n
Sr1 Mg2 Sr1 109.17(11) 101_454 101_554 n
Sr1 Mg2 Sr1 70.83(11) 101_454 -101_444 n
Sr1 Mg2 Sr1 180.0 101_454 -101_544 n
Sr1 Mg2 O1 53.58(6) 101_454 101_554 n
Sr1 Mg2 O1 126.42(6) 101_454 -101_555 n
Sr1 Mg2 O2 57.01(5) 101_454 1_555 n
Sr1 Mg2 O2 122.99(5) 101_454 -1_665 n
Sr1 Mg2 O2b 128.45(6) 101_454 1_655 n
Sr1 Mg2 O2b 51.55(6) 101_454 -1_565 n
Sr1 Mg2 Sr1 179.972 101_554 -101_444 n
Sr1 Mg2 Sr1 70.83(11) 101_554 -101_544 n
Sr1 Mg2 O1 55.68(6) 101_554 101_554 n
Sr1 Mg2 O1 124.32(6) 101_554 -101_555 n
Sr1 Mg2 O2 120.90(5) 101_554 1_555 n
Sr1 Mg2 O2 59.10(5) 101_554 -1_665 n
Sr1 Mg2 O2b 48.88(6) 101_554 1_655 n
Sr1 Mg2 O2b 131.12(6) 101_554 -1_565 n
Sr1 Mg2 Sr1 109.17(11) -101_444 -101_544 n
Sr1 Mg2 O1 124.32(6) -101_555 101_554 n
Sr1 Mg2 O1 55.68(6) -101_555 -101_555 n
Sr1 Mg2 O2 59.10(5) -101_555 1_555 n
Sr1 Mg2 O2 120.90(5) -101_555 -1_665 n
Sr1 Mg2 O2b 131.12(6) -101_555 1_655 n
Sr1 Mg2 O2b 48.88(6) -101_555 -1_565 n
Sr1 Mg2 O1 126.42(6) -101_655 101_554 n
Sr1 Mg2 O1 53.58(6) -101_655 -101_555 n
Sr1 Mg2 O2 122.99(5) -101_655 1_555 n
Sr1 Mg2 O2 57.01(5) -101_655 -1_665 n
Sr1 Mg2 O2b 51.55(6) -101_655 1_655 n
Sr1 Mg2 O2b 128.45(6) -101_655 -1_565 n
O1 Mg2 O1 180.0 101_554 -101_555 n
O1 Mg2 O2 85.74(5) 101_554 1_555 n
O1 Mg2 O2 94.26(5) 101_554 -1_665 n
O1 Mg2 O2b 87.39(5) 101_554 1_655 n
O1 Mg2 O2b 92.61(5) 101_554 -1_565 n
O1 Mg2 O2 94.26(5) -101_555 1_555 n
O1 Mg2 O2 85.74(5) -101_555 -1_665 n
O1 Mg2 O2b 92.61(5) -101_555 1_655 n
O1 Mg2 O2b 87.39(5) -101_555 -1_565 n
O2 Mg2 O2 179.9557 1_555 -1_665 n
O2 Mg2 O2b 92.20(4) 1_555 1_655 n
O2 Mg2 O2b 87.80(4) 1_555 -1_565 n
O2 Mg2 O2b 87.80(4) -1_665 1_655 n
O2 Mg2 O2b 92.20(4) -1_665 -1_565 n
O2b Mg2 O2b 179.9657 1_655 -1_565 n
Sr1 O1 Sr1 175.98(9) 1_455 1_555 n
Sr1 O1 Sr1 92.54(8) 1_455 -101_434 n
Sr1 O1 Sr1 88.54(8) 1_455 -101_444 n
Sr1 O1 Mo1 91.45(10) 1_455 1_555 n
Sr1 O1 Mg2 90.36(10) 1_455 101_445 n
Sr1 O1 Sr1 91.33(8) 1_555 -101_434 n
Sr1 O1 Sr1 87.57(8) 1_555 -101_444 n
Sr1 O1 Mo1 89.41(9) 1_555 1_555 n
Sr1 O1 Mg2 88.44(9) 1_555 101_445 n
Sr1 O1 Sr1 178.56(16) -101_434 -101_444 n
Sr1 O1 Mo1 92.98(11) -101_545 1_555 n
Sr1 O1 Mg2 91.99(11) -101_545 101_445 n
Sr1 O1 Mo1 87.95(10) -101_555 1_555 n
Sr1 O1 Mg2 87.05(10) -101_555 101_445 n
Mo1 O1 Mg2 174.63(5) 1_555 101_445 n
Sr1 O2 Sr1 95.08(12) 1_555 -1_655 n
Sr1 O2 Sr1 173.44(14) 1_555 101_454 n
Sr1 O2 Sr1 87.75(9) 1_555 -101_444 n
Sr1 O2 Mo1 92.55(7) 1_555 1_555 n
Sr1 O2 Mg2 90.84(7) 1_555 1_555 n
Sr1 O2 Sr1 91.26(9) -1_655 101_454 n
Sr1 O2 Sr1 177.07(14) -1_655 -101_444 n
Sr1 O2 Mo1 94.83(7) -1_655 1_555 n
Sr1 O2 Mg2 93.99(7) -1_655 1_555 n
Sr1 O2 Sr1 85.89(12) 101_454 -101_444 n
Sr1 O2 Mo1 88.57(7) 101_454 1_555 n
Sr1 O2 Mg2 87.04(6) 101_454 1_555 n
Sr1 O2 Mo1 85.77(7) -101_555 1_555 n
Sr1 O2 Mg2 85.21(6) -101_555 1_555 n
Mo1 O2 Mg2 170.23(6) 1_555 1_555 n
Sr1 O2b Sr1 83.81(11) 1_455 -1_555 n
Sr1 O2b Sr1 174.99(15) 1_455 101_454 n
Sr1 O2b Sr1 87.05(9) 1_455 -101_444 n
Sr1 O2b Mo1 84.33(6) 1_455 1_555 n
Sr1 O2b Mg2 83.01(6) 1_455 1_455 n
Sr1 O2b Sr1 91.45(9) -1_555 101_454 n
Sr1 O2b Sr1 170.73(15) -1_555 -101_444 n
Sr1 O2b Mo1 86.70(6) -1_555 1_555 n
Sr1 O2b Mg2 85.33(6) -1_555 1_455 n
Sr1 O2b Sr1 97.64(12) 101_454 -101_444 n
Sr1 O2b Mo1 97.05(7) 101_454 1_555 n
Sr1 O2b Mg2 95.01(7) 101_454 1_455 n
Sr1 O2b Mo1 93.96(7) -101_555 1_555 n
Sr1 O2b Mg2 92.03(7) -101_555 1_455 n
Mo1 O2b Mg2 165.69(5) 1_555 1_455 n
loop_
_geom_bond_atom_site_label_1
_geom_bond_atom_site_label_2
_geom_bond_distance
_geom_bond_site_symmetry_2
_geom_bond_publ_flag
Sr1 Sr1 3.964(8) -1_655 n
Sr1 Sr1 3.960(8) -1_656 n
Sr1 Sr1 3.961(5) -101_434 n
Sr1 Sr1 3.939(5) -101_444 n
Sr1 Sr1 3.939(5) -101_534 n
Sr1 Sr1 3.915(5) -101_544 n
Sr1 Mo1 3.4242(34) 1_555 n
Sr1 Mo1 3.4118(35) 1_655 n
Sr1 Mo1 3.4231(26) 101_545 n
Sr1 Mo1 3.4113(27) 101_555 n
Sr1 Mg2 3.4257(27) 1_545 n
Sr1 Mg2 3.4114(27) 1_555 n
Sr1 Mg2 3.4234(35) 101_445 n
Sr1 Mg2 3.4099(34) 101_545 n
Sr1 O1 2.8285(32) 1_555 n
Sr1 O1 2.7440(32) 1_655 n
Sr1 O1 2.7072(20) -101_434 n
Sr1 O1 2.8637(20) -101_444 n
Sr1 O2 2.731(4) 1_555 n
Sr1 O2 2.642(4) -1_655 n
Sr1 O2 2.8640(34) 101_545 n
Sr1 O2 2.948(4) -101_444 n
Sr1 O2b 3.002(4) 1_655 n
Sr1 O2b 2.9327(34) -1_555 n
Sr1 O2b 2.589(4) 101_545 n
Sr1 O2b 2.672(4) -101_444 n
Mo1 Sr1 3.4118(35) 1_455 n
Mo1 Sr1 3.4242(34) 1_555 n
Mo1 Sr1 3.4242(34) -1_555 n
Mo1 Sr1 3.4118(35) -1_655 n
Mo1 Sr1 3.4113(27) 101_444 n
Mo1 Sr1 3.4231(26) 101_454 n
Mo1 Sr1 3.4231(26) -101_434 n
Mo1 Sr1 3.4113(27) -101_444 n
Mo1 O1 1.9591(26) 1_555 n
Mo1 O1 1.9591(26) -1_555 n
Mo1 O2 1.9477(10) 1_555 n
Mo1 O2 1.9477(10) -1_555 n
Mo1 O2b 1.9442(8) 1_555 n
Mo1 O2b 1.9442(8) -1_555 n
Mg2 Sr1 3.4114(27) 1_555 n
Mg2 Sr1 3.4257(27) 1_565 n
Mg2 Sr1 3.4257(27) -1_655 n
Mg2 Sr1 3.4114(27) -1_665 n
Mg2 Sr1 3.4099(34) 101_454 n
Mg2 Sr1 3.4234(35) 101_554 n
Mg2 Sr1 3.4234(35) -101_444 n
Mg2 Sr1 3.4099(34) -101_544 n
Mg2 O1 2.0072(26) 101_554 n
Mg2 O1 2.0072(26) -101_444 n
Mg2 O2 2.0045(10) 1_555 n
Mg2 O2 2.0045(10) -1_665 n
Mg2 O2b 2.0256(8) 1_655 n
Mg2 O2b 2.0256(8) -1_565 n
O1 Sr1 2.7440(32) 1_455 n
O1 Sr1 2.8285(32) 1_555 n
O1 Sr1 2.7072(20) -101_434 n
O1 Sr1 2.8637(20) -101_444 n
O1 Mo1 1.9591(26) 1_555 n
O1 Mg2 2.0072(26) 101_445 n
O2 Sr1 2.731(4) 1_555 n
O2 Sr1 2.642(4) -1_655 n
O2 Sr1 2.8640(34) 101_454 n
O2 Sr1 2.948(4) -101_444 n
O2 Mo1 1.9477(10) 1_555 n
O2 Mg2 2.0045(10) 1_555 n
O2b Sr1 3.002(4) 1_455 n
O2b Sr1 2.9327(34) -1_555 n
O2b Sr1 2.589(4) 101_454 n
O2b Sr1 2.672(4) -101_444 n
O2b Mo1 1.9442(8) 1_555 n
O2b Mg2 2.0256(8) 1_455 n
loop_
_pd_meas_time_of_flight
_pd_proc_d_spacing
_pd_meas_intensity_total
_pd_proc_ls_weight
_pd_proc_intensity_bkg_calc
_pd_calc_intensity_total
1000.00 . 5.58(4) . . .
1001.00 . 5.59(4) . . .
1002.00 . 5.58(4) . . .
1003.00 . 5.55(4) . . .
1004.00 . 5.58(4) . . .
1005.00 . 5.55(4) . . .
1006.00 . 5.53(4) . . .
1007.00 . 5.58(4) . . .
1008.00 . 5.59(4) . . .
1009.00 . 5.56(4) . . .
1010.00 . 5.54(4) . . .
1011.00 . 5.55(4) . . .
1012.00 . 5.61(4) . . .
1013.00 . 5.56(4) . . .
1014.00 . 5.59(4) . . .
1015.00 . 5.59(4) . . .
1016.00 . 5.59(4) . . .
1017.00 . 5.56(4) . . .
1018.00 . 5.58(4) . . .
1019.00 . 5.60(4) . . .
1020.00 . 5.61(4) . . .
1021.00 . 5.61(4) . . .
1022.00 . 5.58(4) . . .
1023.00 . 5.56(4) . . .
1024.00 . 5.54(4) . . .
1025.00 . 5.58(4) . . .
1026.00 . 5.60(4) . . .
1027.00 . 5.56(4) . . .
1028.00 . 5.57(4) . . .
1029.00 . 5.61(4) . . .
1030.00 . 5.60(4) . . .
1031.00 . 5.57(4) . . .
1032.00 . 5.57(4) . . .
1033.00 . 5.59(4) . . .
1034.00 . 5.58(4) . . .
1035.00 . 5.58(4) . . .
1036.00 . 5.57(4) . . .
1037.00 . 5.57(4) . . .
1038.00 . 5.59(4) . . .
1039.00 . 5.58(4) . . .
1040.00 . 5.59(4) . . .
1041.00 . 5.59(4) . . .
1042.00 . 5.60(4) . . .
1043.00 . 5.62(4) . . .
1044.00 . 5.61(4) . . .
1045.00 . 5.58(4) . . .
1046.00 . 5.60(4) . . .
1047.00 . 5.58(4) . . .
1048.00 . 5.58(4) . . .
1049.00 . 5.57(4) . . .
1050.00 . 5.61(4) . . .
1051.00 . 5.60(4) . . .
1052.00 . 5.59(4) . . .
1053.00 . 5.57(4) . . .
1054.00 . 5.57(4) . . .
1055.00 . 5.57(4) . . .
1056.00 . 5.60(4) . . .
1057.00 . 5.56(4) . . .
1058.00 . 5.55(4) . . .
1059.00 . 5.60(4) . . .
1060.00 . 5.57(4) . . .
1061.00 . 5.59(4) . . .
1062.00 . 5.54(4) . . .
1063.00 . 5.57(4) . . .
1064.00 . 5.55(4) . . .
1065.00 . 5.54(4) . . .
1066.00 . 5.55(4) . . .
1067.00 . 5.60(4) . . .
1068.00 . 5.60(4) . . .
1069.00 . 5.59(4) . . .
1070.00 . 5.54(4) . . .
1071.00 . 5.56(4) . . .
1072.00 . 5.63(4) . . .
1073.00 . 5.60(4) . . .
1074.00 . 5.59(4) . . .
1075.00 . 5.60(4) . . .
1076.00 . 5.55(4) . . .
1077.00 . 5.53(4) . . .
1078.00 . 5.50(4) . . .
1079.00 . 5.50(4) . . .
1080.00 . 5.57(4) . . .
1081.00 . 5.59(4) . . .
1082.00 . 5.55(4) . . .
1083.00 . 5.55(4) . . .
1084.00 . 5.56(4) . . .
1085.00 . 5.56(4) . . .
1086.00 . 5.57(4) . . .
1087.00 . 5.59(4) . . .
1088.00 . 5.58(4) . . .
1089.00 . 5.52(4) . . .
1090.00 . 5.50(4) . . .
1091.00 . 5.51(4) . . .
1092.00 . 5.53(4) . . .
1093.00 . 5.57(4) . . .
1094.00 . 5.57(4) . . .
1095.00 . 5.53(4) . . .
1096.00 . 5.53(4) . . .
1097.00 . 5.54(4) . . .
1098.00 . 5.56(4) . . .
1099.00 . 5.56(4) . . .
1100.00 . 5.55(4) . . .
1101.00 . 5.53(4) . . .
1102.00 . 5.56(4) . . .
1103.00 . 5.56(4) . . .
1104.00 . 5.53(4) . . .
1105.00 . 5.56(4) . . .
1106.00 . 5.53(4) . . .
1107.00 . 5.56(4) . . .
1108.00 . 5.58(4) . . .
1109.00 . 5.56(4) . . .
1110.00 . 5.62(4) . . .
1111.00 . 5.54(4) . . .
1112.00 . 5.55(4) . . .
1113.00 . 5.57(4) . . .
1114.00 . 5.59(4) . . .
1115.00 . 5.53(4) . . .
1116.00 . 5.52(4) . . .
1117.00 . 5.57(4) . . .
1118.00 . 5.55(4) . . .
1119.00 . 5.51(4) . . .
1120.00 . 5.53(4) . . .
1121.00 . 5.52(4) . . .
1122.00 . 5.57(4) . . .
1123.00 . 5.54(4) . . .
1124.00 . 5.57(4) . . .
1125.00 . 5.54(4) . . .
1126.00 . 5.50(4) . . .
1127.00 . 5.53(4) . . .
1128.00 . 5.55(4) . . .
1129.00 . 5.59(4) . . .
1130.00 . 5.57(4) . . .
1131.00 . 5.54(4) . . .
1132.00 . 5.57(4) . . .
1133.00 . 5.57(4) . . .
1134.00 . 5.53(4) . . .
1135.00 . 5.55(4) . . .
1136.00 . 5.57(4) . . .
1137.00 . 5.61(4) . . .
1138.00 . 5.62(4) . . .
1139.00 . 5.59(4) . . .
1140.00 . 5.55(4) . . .
1141.00 . 5.54(4) . . .
1142.00 . 5.56(4) . . .
1143.00 . 5.56(4) . . .
1144.00 . 5.55(4) . . .
1145.00 . 5.54(4) . . .
1146.00 . 5.55(4) . . .
1147.00 . 5.58(4) . . .
1148.00 . 5.57(4) . . .
1149.00 . 5.59(4) . . .
1150.00 . 5.61(4) . . .
1151.00 . 5.60(4) . . .
1152.00 . 5.61(4) . . .
1153.00 . 5.60(4) . . .
1154.00 . 5.59(4) . . .
1155.00 . 5.55(4) . . .
1156.00 . 5.52(4) . . .
1157.00 . 5.52(4) . . .
1158.00 . 5.58(4) . . .
1159.00 . 5.56(4) . . .
1160.00 . 5.56(4) . . .
1161.00 . 5.54(4) . . .
1162.00 . 5.57(4) . . .
1163.00 . 5.54(4) . . .
1164.00 . 5.55(4) . . .
1165.00 . 5.58(4) . . .
1166.00 . 5.54(4) . . .
1167.00 . 5.54(4) . . .
1168.00 . 5.54(4) . . .
1169.00 . 5.56(4) . . .
1170.00 . 5.58(4) . . .
1171.00 . 5.55(4) . . .
1172.00 . 5.52(4) . . .
1173.00 . 5.51(4) . . .
1174.00 . 5.54(4) . . .
1175.00 . 5.56(4) . . .
1176.00 . 5.56(4) . . .
1177.00 . 5.57(4) . . .
1178.00 . 5.54(4) . . .
1179.00 . 5.49(4) . . .
1180.00 . 5.51(4) . . .
1181.00 . 5.49(4) . . .
1182.00 . 5.50(4) . . .
1183.00 . 5.54(4) . . .
1184.00 . 5.56(4) . . .
1185.00 . 5.57(4) . . .
1186.00 . 5.55(4) . . .
1187.00 . 5.50(4) . . .
1188.00 . 5.51(4) . . .
1189.00 . 5.53(4) . . .
1190.00 . 5.51(4) . . .
1191.00 . 5.52(4) . . .
1192.00 . 5.50(4) . . .
1193.00 . 5.48(4) . . .
1194.00 . 5.51(4) . . .
1195.00 . 5.52(4) . . .
1196.00 . 5.51(4) . . .
1197.00 . 5.50(4) . . .
1198.00 . 5.49(4) . . .
1199.00 . 5.52(4) . . .
1200.00 . 5.54(4) . . .
1201.00 . 5.52(4) . . .
1202.00 . 5.54(4) . . .
1203.00 . 5.53(4) . . .
1204.00 . 5.49(4) . . .
1205.00 . 5.50(4) . . .
1206.00 . 5.51(4) . . .
1207.00 . 5.55(4) . . .
1208.00 . 5.54(4) . . .
1209.00 . 5.52(4) . . .
1210.00 . 5.52(4) . . .
1211.00 . 5.57(4) . . .
1212.00 . 5.55(4) . . .
1213.00 . 5.49(4) . . .
1214.00 . 5.51(4) . . .
1215.00 . 5.51(4) . . .
1216.00 . 5.53(4) . . .
1217.00 . 5.57(4) . . .
1218.00 . 5.60(4) . . .
1219.00 . 5.57(4) . . .
1220.00 . 5.50(4) . . .
1221.00 . 5.48(4) . . .
1222.00 . 5.54(4) . . .
1223.00 . 5.53(4) . . .
1224.00 . 5.55(4) . . .
1225.00 . 5.56(4) . . .
1226.00 . 5.55(4) . . .
1227.00 . 5.49(4) . . .
1228.00 . 5.52(4) . . .
1229.00 . 5.52(4) . . .
1230.00 . 5.53(4) . . .
1231.00 . 5.52(4) . . .
1232.00 . 5.56(4) . . .
1233.00 . 5.61(4) . . .
1234.00 . 5.59(4) . . .
1235.00 . 5.56(4) . . .
1236.00 . 5.52(4) . . .
1237.00 . 5.50(4) . . .
1238.00 . 5.55(4) . . .
1239.00 . 5.56(4) . . .
1240.00 . 5.54(4) . . .
1241.00 . 5.55(4) . . .
1242.00 . 5.58(4) . . .
1243.00 . 5.57(4) . . .
1244.00 . 5.56(4) . . .
1245.00 . 5.52(4) . . .
1246.00 . 5.50(4) . . .
1247.00 . 5.52(4) . . .
1248.00 . 5.53(4) . . .
1249.00 . 5.55(4) . . .
1250.00 . 5.57(4) . . .
1251.00 . 5.58(4) . . .
1252.00 . 5.56(4) . . .
1253.00 . 5.54(4) . . .
1254.00 . 5.54(4) . . .
1255.00 . 5.55(4) . . .
1256.00 . 5.57(4) . . .
1257.00 . 5.55(4) . . .
1258.00 . 5.55(4) . . .
1259.00 . 5.58(4) . . .
1260.00 . 5.60(4) . . .
1261.00 . 5.57(4) . . .
1262.00 . 5.58(4) . . .
1263.00 . 5.57(4) . . .
1264.00 . 5.57(4) . . .
1265.00 . 5.62(4) . . .
1266.00 . 5.57(4) . . .
1267.00 . 5.57(4) . . .
1268.00 . 5.55(4) . . .
1269.00 . 5.58(4) . . .
1270.00 . 5.57(4) . . .
1271.00 . 5.55(4) . . .
1272.00 . 5.59(4) . . .
1273.00 . 5.61(4) . . .
1274.00 . 5.58(4) . . .
1275.00 . 5.57(4) . . .
1276.00 . 5.56(4) . . .
1277.00 . 5.57(4) . . .
1278.00 . 5.55(4) . . .
1279.00 . 5.52(4) . . .
1280.00 . 5.53(4) . . .
1281.00 . 5.51(4) . . .
1282.00 . 5.53(4) . . .
1283.00 . 5.53(4) . . .
1284.00 . 5.53(4) . . .
1285.00 . 5.56(4) . . .
1286.00 . 5.55(4) . . .
1287.00 . 5.53(4) . . .
1288.00 . 5.50(4) . . .
1289.00 . 5.51(4) . . .
1290.00 . 5.50(4) . . .
1291.00 . 5.50(4) . . .
1292.00 . 5.52(4) . . .
1293.00 . 5.53(4) . . .
1294.00 . 5.55(4) . . .
1295.00 . 5.53(4) . . .
1296.00 . 5.53(4) . . .
1297.00 . 5.54(4) . . .
1298.00 . 5.54(4) . . .
1299.00 . 5.56(4) . . .
1300.00 . 5.56(4) . . .
1301.00 . 5.52(4) . . .
1302.00 . 5.52(4) . . .
1303.00 . 5.53(4) . . .
1304.00 . 5.53(4) . . .
1305.00 . 5.52(4) . . .
1306.00 . 5.53(4) . . .
1307.00 . 5.51(4) . . .
1308.00 . 5.47(4) . . .
1309.00 . 5.47(4) . . .
1310.00 . 5.52(4) . . .
1311.00 . 5.55(4) . . .
1312.00 . 5.53(4) . . .
1313.00 . 5.54(4) . . .
1314.00 . 5.55(4) . . .
1315.00 . 5.51(4) . . .
1316.00 . 5.55(4) . . .
1317.00 . 5.53(4) . . .
1318.00 . 5.54(4) . . .
1319.00 . 5.52(4) . . .
1320.00 . 5.50(4) . . .
1321.00 . 5.48(4) . . .
1322.00 . 5.49(4) . . .
1323.00 . 5.51(4) . . .
1324.00 . 5.49(4) . . .
1325.00 . 5.52(4) . . .
1326.00 . 5.52(4) . . .
1327.00 . 5.55(4) . . .
1328.00 . 5.54(4) . . .
1329.00 . 5.53(4) . . .
1330.00 . 5.51(4) . . .
1331.00 . 5.46(4) . . .
1332.00 . 5.51(4) . . .
1333.00 . 5.49(4) . . .
1334.00 . 5.45(4) . . .
1335.00 . 5.48(4) . . .
1336.00 . 5.49(4) . . .
1337.00 . 5.47(4) . . .
1338.00 . 5.47(4) . . .
1339.00 . 5.49(4) . . .
1340.00 . 5.44(4) . . .
1341.00 . 5.44(4) . . .
1342.00 . 5.45(4) . . .
1343.00 . 5.49(4) . . .
1344.00 . 5.50(4) . . .
1345.00 . 5.53(4) . . .
1346.00 . 5.52(4) . . .
1347.00 . 5.48(4) . . .
1348.00 . 5.47(4) . . .
1349.00 . 5.48(4) . . .
1350.00 . 5.50(4) . . .
1351.00 . 5.50(4) . . .
1352.00 . 5.51(4) . . .
1353.00 . 5.53(4) . . .
1354.00 . 5.55(4) . . .
1355.00 . 5.52(4) . . .
1356.00 . 5.48(4) . . .
1357.00 . 5.48(4) . . .
1358.00 . 5.47(4) . . .
1359.00 . 5.49(4) . . .
1360.00 . 5.49(4) . . .
1361.00 . 5.47(4) . . .
1362.00 . 5.49(4) . . .
1363.00 . 5.48(4) . . .
1364.00 . 5.51(4) . . .
1365.00 . 5.53(4) . . .
1366.00 . 5.55(4) . . .
1367.00 . 5.51(4) . . .
1368.00 . 5.49(4) . . .
1369.00 . 5.51(4) . . .
1370.00 . 5.47(4) . . .
1371.00 . 5.48(4) . . .
1372.00 . 5.51(4) . . .
1373.00 . 5.51(4) . . .
1374.00 . 5.50(4) . . .
1375.00 . 5.52(4) . . .
1376.00 . 5.56(4) . . .
1377.00 . 5.59(4) . . .
1378.00 . 5.52(4) . . .
1379.00 . 5.52(4) . . .
1380.00 . 5.50(4) . . .
1381.00 . 5.50(4) . . .
1382.00 . 5.56(4) . . .
1383.00 . 5.51(4) . . .
1384.00 . 5.53(4) . . .
1385.00 . 5.49(4) . . .
1386.00 . 5.51(4) . . .
1387.00 . 5.53(4) . . .
1388.00 . 5.51(4) . . .
1389.00 . 5.50(4) . . .
1390.00 . 5.49(4) . . .
1391.00 . 5.52(4) . . .
1392.00 . 5.53(4) . . .
1393.00 . 5.57(4) . . .
1394.00 . 5.56(4) . . .
1395.00 . 5.55(4) . . .
1396.00 . 5.53(4) . . .
1397.00 . 5.56(4) . . .
1398.00 . 5.55(4) . . .
1399.00 . 5.54(4) . . .
1400.00 . 5.55(4) . . .
1401.00 . 5.60(4) . . .
1402.00 . 5.59(4) . . .
1403.00 . 5.50(4) . . .
1404.00 . 5.48(4) . . .
1405.00 . 5.51(4) . . .
1406.00 . 5.50(4) . . .
1407.00 . 5.47(4) . . .
1408.00 . 5.49(4) . . .
1409.00 . 5.56(4) . . .
1410.00 . 5.55(4) . . .
1411.00 . 5.50(4) . . .
1412.00 . 5.52(4) . . .
1413.00 . 5.58(4) . . .
1414.00 . 5.55(4) . . .
1415.00 . 5.52(4) . . .
1416.00 . 5.54(4) . . .
1417.00 . 5.56(4) . . .
1418.00 . 5.55(4) . . .
1419.00 . 5.54(4) . . .
1420.00 . 5.54(4) . . .
1421.00 . 5.53(4) . . .
1422.00 . 5.54(4) . . .
1423.00 . 5.53(4) . . .
1424.00 . 5.57(4) . . .
1425.00 . 5.55(4) . . .
1426.00 . 5.55(4) . . .
1427.00 . 5.52(4) . . .
1428.00 . 5.57(4) . . .
1429.00 . 5.57(4) . . .
1430.00 . 5.57(4) . . .
1431.00 . 5.59(4) . . .
1432.00 . 5.51(4) . . .
1433.00 . 5.53(4) . . .
1434.00 . 5.56(4) . . .
1435.00 . 5.55(4) . . .
1436.00 . 5.53(4) . . .
1437.00 . 5.56(4) . . .
1438.00 . 5.57(4) . . .
1439.00 . 5.54(4) . . .
1440.00 . 5.45(4) . . .
1441.00 . 5.50(4) . . .
1442.00 . 5.53(4) . . .
1443.00 . 5.57(4) . . .
1444.00 . 5.53(4) . . .
1445.00 . 5.51(4) . . .
1446.00 . 5.54(4) . . .
1447.00 . 5.53(4) . . .
1448.00 . 5.55(4) . . .
1449.00 . 5.58(4) . . .
1450.00 . 5.54(4) . . .
1451.00 . 5.51(4) . . .
1452.00 . 5.56(4) . . .
1453.00 . 5.51(4) . . .
1454.00 . 5.50(4) . . .
1455.00 . 5.53(4) . . .
1456.00 . 5.52(4) . . .
1457.00 . 5.49(4) . . .
1458.00 . 5.45(4) . . .
1459.00 . 5.49(4) . . .
1460.00 . 5.52(4) . . .
1461.00 . 5.51(4) . . .
1462.00 . 5.53(4) . . .
1463.00 . 5.54(4) . . .
1464.00 . 5.52(4) . . .
1465.00 . 5.53(4) . . .
1466.00 . 5.53(4) . . .
1467.00 . 5.53(4) . . .
1468.00 . 5.57(4) . . .
1469.00 . 5.56(4) . . .
1470.00 . 5.56(4) . . .
1471.00 . 5.56(4) . . .
1472.00 . 5.56(4) . . .
1473.00 . 5.57(4) . . .
1474.00 . 5.54(4) . . .
1475.00 . 5.54(4) . . .
1476.00 . 5.52(4) . . .
1477.00 . 5.51(4) . . .
1478.00 . 5.52(4) . . .
1479.00 . 5.51(4) . . .
1480.00 . 5.53(4) . . .
1481.00 . 5.57(4) . . .
1482.00 . 5.55(4) . . .
1483.00 . 5.50(4) . . .
1484.00 . 5.49(4) . . .
1485.00 . 5.56(4) . . .
1486.00 . 5.52(4) . . .
1487.00 . 5.53(4) . . .
1488.00 . 5.53(4) . . .
1489.00 . 5.55(4) . . .
1490.00 . 5.50(4) . . .
1491.00 . 5.51(4) . . .
1492.00 . 5.50(4) . . .
1493.00 . 5.57(4) . . .
1494.00 . 5.53(4) . . .
1495.00 . 5.53(4) . . .
1496.00 . 5.48(4) . . .
1497.00 . 5.49(4) . . .
1498.00 . 5.51(4) . . .
1499.00 . 5.53(4) . . .
1500.00 . 5.51(4) . . .
1501.00 . 5.53(4) . . .
1502.00 . 5.51(4) . . .
1503.00 . 5.50(4) . . .
1504.00 . 5.49(4) . . .
1505.00 . 5.50(4) . . .
1506.00 . 5.47(4) . . .
1507.00 . 5.44(4) . . .
1508.00 . 5.44(4) . . .
1509.00 . 5.45(4) . . .
1510.00 . 5.46(4) . . .
1511.00 . 5.48(4) . . .
1512.00 . 5.51(4) . . .
1513.00 . 5.52(4) . . .
1514.00 . 5.47(4) . . .
1515.00 . 5.44(4) . . .
1516.00 . 5.44(4) . . .
1517.00 . 5.47(4) . . .
1518.00 . 5.48(4) . . .
1519.00 . 5.47(4) . . .
1520.00 . 5.48(4) . . .
1521.00 . 5.51(4) . . .
1522.00 . 5.52(4) . . .
1523.00 . 5.48(4) . . .
1524.00 . 5.43(4) . . .
1525.00 . 5.43(4) . . .
1526.00 . 5.47(4) . . .
1527.00 . 5.43(4) . . .
1528.00 . 5.43(4) . . .
1529.00 . 5.43(4) . . .
1530.00 . 5.49(4) . . .
1531.00 . 5.48(4) . . .
1532.00 . 5.50(4) . . .
1533.00 . 5.47(4) . . .
1534.00 . 5.45(4) . . .
1535.00 . 5.48(4) . . .
1536.00 . 5.50(4) . . .
1537.00 . 5.46(4) . . .
1538.00 . 5.50(4) . . .
1539.00 . 5.51(4) . . .
1540.00 . 5.53(4) . . .
1541.00 . 5.49(4) . . .
1542.00 . 5.50(4) . . .
1543.00 . 5.52(4) . . .
1544.00 . 5.40(4) . . .
1545.00 . 5.48(4) . . .
1546.00 . 5.44(4) . . .
1547.00 . 5.48(4) . . .
1548.00 . 5.46(4) . . .
1549.00 . 5.46(4) . . .
1550.00 . 5.44(4) . . .
1551.00 . 5.47(4) . . .
1552.00 . 5.46(4) . . .
1553.00 . 5.51(4) . . .
1554.00 . 5.51(4) . . .
1555.00 . 5.52(4) . . .
1556.00 . 5.54(4) . . .
1557.00 . 5.54(4) . . .
1558.00 . 5.54(4) . . .
1559.00 . 5.49(4) . . .
1560.00 . 5.48(4) . . .
1561.00 . 5.49(4) . . .
1562.00 . 5.49(4) . . .
1563.00 . 5.50(4) . . .
1564.00 . 5.52(4) . . .
1565.00 . 5.53(4) . . .
1566.00 . 5.53(4) . . .
1567.00 . 5.54(4) . . .
1568.00 . 5.52(4) . . .
1569.00 . 5.50(4) . . .
1570.00 . 5.49(4) . . .
1571.00 . 5.51(4) . . .
1572.00 . 5.51(4) . . .
1573.00 . 5.50(4) . . .
1574.00 . 5.49(4) . . .
1575.00 . 5.48(4) . . .
1576.00 . 5.46(4) . . .
1577.00 . 5.48(4) . . .
1578.00 . 5.51(4) . . .
1579.00 . 5.51(4) . . .
1580.00 . 5.47(4) . . .
1581.00 . 5.49(4) . . .
1582.00 . 5.47(4) . . .
1583.00 . 5.49(4) . . .
1584.00 . 5.51(4) . . .
1585.00 . 5.49(4) . . .
1586.00 . 5.51(4) . . .
1587.00 . 5.55(4) . . .
1588.00 . 5.56(4) . . .
1589.00 . 5.54(4) . . .
1590.00 . 5.52(4) . . .
1591.00 . 5.53(4) . . .
1592.00 . 5.60(4) . . .
1593.00 . 5.56(4) . . .
1594.00 . 5.57(4) . . .
1595.00 . 5.57(4) . . .
1596.00 . 5.55(4) . . .
1597.00 . 5.56(4) . . .
1598.00 . 5.59(4) . . .
1599.00 . 5.62(4) . . .
1600.00 . 5.60(4) . . .
1601.00 . 5.52(4) . . .
1602.00 . 5.56(4) . . .
1603.00 . 5.62(4) . . .
1604.00 . 5.56(4) . . .
1605.00 . 5.58(4) . . .
1606.00 . 5.57(4) . . .
1607.00 . 5.61(4) . . .
1608.00 . 5.60(4) . . .
1609.00 . 5.60(4) . . .
1610.00 . 5.63(4) . . .
1611.00 . 5.68(4) . . .
1612.00 . 5.66(4) . . .
1613.00 . 5.63(4) . . .
1614.00 . 5.58(4) . . .
1615.00 . 5.55(4) . . .
1616.00 . 5.59(4) . . .
1617.00 . 5.57(4) . . .
1618.00 . 5.55(4) . . .
1619.00 . 5.55(4) . . .
1620.00 . 5.56(4) . . .
1621.00 . 5.56(4) . . .
1622.00 . 5.54(4) . . .
1623.00 . 5.53(4) . . .
1624.00 . 5.52(4) . . .
1625.00 . 5.55(4) . . .
1626.00 . 5.54(4) . . .
1627.00 . 5.49(4) . . .
1628.00 . 5.47(4) . . .
1629.00 . 5.48(4) . . .
1630.00 . 5.49(4) . . .
1631.00 . 5.50(4) . . .
1632.00 . 5.51(4) . . .
1633.00 . 5.51(4) . . .
1634.00 . 5.51(4) . . .
1635.00 . 5.51(4) . . .
1636.00 . 5.54(4) . . .
1637.00 . 5.60(4) . . .
1638.00 . 5.55(4) . . .
1639.00 . 5.53(4) . . .
1640.00 . 5.54(4) . . .
1641.00 . 5.50(4) . . .
1642.00 . 5.51(4) . . .
1643.00 . 5.53(4) . . .
1644.00 . 5.53(4) . . .
1645.00 . 5.50(4) . . .
1646.00 . 5.53(4) . . .
1647.00 . 5.51(4) . . .
1648.00 . 5.49(4) . . .
1649.00 . 5.47(4) . . .
1650.00 . 5.45(4) . . .
1651.00 . 5.48(4) . . .
1652.00 . 5.49(4) . . .
1653.00 . 5.54(4) . . .
1654.00 . 5.56(4) . . .
1655.00 . 5.54(4) . . .
1656.00 . 5.51(4) . . .
1657.00 . 5.55(4) . . .
1658.00 . 5.53(4) . . .
1659.00 . 5.48(4) . . .
1660.00 . 5.50(4) . . .
1661.00 . 5.48(4) . . .
1662.00 . 5.47(4) . . .
1663.00 . 5.49(4) . . .
1664.00 . 5.48(4) . . .
1665.00 . 5.48(4) . . .
1666.00 . 5.48(4) . . .
1667.00 . 5.49(4) . . .
1668.00 . 5.51(4) . . .
1669.00 . 5.48(4) . . .
1670.00 . 5.47(4) . . .
1671.00 . 5.48(4) . . .
1672.00 . 5.51(4) . . .
1673.00 . 5.49(4) . . .
1674.00 . 5.49(4) . . .
1675.00 . 5.49(4) . . .
1676.00 . 5.47(4) . . .
1677.00 . 5.46(4) . . .
1678.00 . 5.53(4) . . .
1679.00 . 5.49(4) . . .
1680.00 . 5.47(4) . . .
1681.00 . 5.49(4) . . .
1682.00 . 5.51(4) . . .
1683.00 . 5.53(4) . . .
1684.00 . 5.52(4) . . .
1685.00 . 5.50(4) . . .
1686.00 . 5.51(4) . . .
1687.00 . 5.47(4) . . .
1688.00 . 5.45(4) . . .
1689.00 . 5.45(4) . . .
1690.00 . 5.45(4) . . .
1691.00 . 5.44(4) . . .
1692.00 . 5.41(4) . . .
1693.00 . 5.45(4) . . .
1694.00 . 5.45(4) . . .
1695.00 . 5.48(4) . . .
1696.00 . 5.44(4) . . .
1697.00 . 5.55(4) . . .
1698.00 . 5.50(4) . . .
1699.00 . 5.48(4) . . .
1700.00 . 5.53(4) . . .
1701.00 . 5.57(4) . . .
1702.00 . 5.56(4) . . .
1703.00 . 5.53(4) . . .
1704.00 . 5.54(4) . . .
1705.00 . 5.51(4) . . .
1706.00 . 5.49(4) . . .
1707.00 . 5.50(4) . . .
1708.00 . 5.47(4) . . .
1709.00 . 5.44(4) . . .
1710.00 . 5.47(4) . . .
1711.00 . 5.49(4) . . .
1712.00 . 5.50(4) . . .
1713.00 . 5.49(4) . . .
1714.00 . 5.48(4) . . .
1715.00 . 5.45(4) . . .
1716.00 . 5.47(4) . . .
1717.00 . 5.43(4) . . .
1718.00 . 5.48(4) . . .
1719.00 . 5.50(4) . . .
1720.00 . 5.48(4) . . .
1721.00 . 5.45(4) . . .
1722.00 . 5.43(4) . . .
1723.00 . 5.44(4) . . .
1724.00 . 5.42(4) . . .
1725.00 . 5.44(4) . . .
1726.00 . 5.45(4) . . .
1727.00 . 5.47(4) . . .
1728.00 . 5.49(4) . . .
1729.00 . 5.49(4) . . .
1730.00 . 5.50(4) . . .
1731.00 . 5.50(4) . . .
1732.00 . 5.51(4) . . .
1733.00 . 5.48(4) . . .
1734.00 . 5.48(4) . . .
1735.00 . 5.49(4) . . .
1736.00 . 5.47(4) . . .
1737.00 . 5.46(4) . . .
1738.00 . 5.52(4) . . .
1739.00 . 5.49(4) . . .
1740.00 . 5.48(4) . . .
1741.00 . 5.49(4) . . .
1742.00 . 5.49(4) . . .
1743.00 . 5.47(4) . . .
1744.00 . 5.47(4) . . .
1745.00 . 5.50(4) . . .
1746.00 . 5.54(4) . . .
1747.00 . 5.61(4) . . .
1748.00 . 5.62(4) . . .
1749.00 . 5.68(4) . . .
1750.00 . 5.63(4) . . .
1751.00 . 5.67(4) . . .
1752.00 . 5.62(4) . . .
1753.00 . 5.61(4) . . .
1754.00 . 5.58(4) . . .
1755.00 . 5.51(4) . . .
1756.00 . 5.46(4) . . .
1757.00 . 5.52(4) . . .
1758.00 . 5.46(4) . . .
1759.00 . 5.45(4) . . .
1760.00 . 5.44(4) . . .
1761.00 . 5.40(4) . . .
1762.00 . 5.42(4) . . .
1763.00 . 5.40(4) . . .
1764.00 . 5.37(4) . . .
1765.00 . 5.39(4) . . .
1766.00 . 5.39(4) . . .
1767.00 . 5.38(4) . . .
1768.00 . 5.36(4) . . .
1769.00 . 5.37(4) . . .
1770.00 . 5.38(4) . . .
1771.00 . 5.41(4) . . .
1772.00 . 5.36(4) . . .
1773.00 . 5.37(4) . . .
1774.00 . 5.38(4) . . .
1775.00 . 5.42(4) . . .
1776.00 . 5.41(4) . . .
1777.00 . 5.40(4) . . .
1778.00 . 5.43(4) . . .
1779.00 . 5.42(4) . . .
1780.00 . 5.48(4) . . .
1781.00 . 5.45(4) . . .
1782.00 . 5.42(4) . . .
1783.00 . 5.43(4) . . .
1784.00 . 5.49(4) . . .
1785.00 . 5.52(4) . . .
1786.00 . 5.52(4) . . .
1787.00 . 5.52(4) . . .
1788.00 . 5.52(4) . . .
1789.00 . 5.53(4) . . .
1790.00 . 5.52(4) . . .
1791.00 . 5.54(4) . . .
1792.00 . 5.51(4) . . .
1793.00 . 5.57(4) . . .
1794.00 . 5.53(4) . . .
1795.00 . 5.52(4) . . .
1796.00 . 5.49(4) . . .
1797.00 . 5.49(4) . . .
1798.00 . 5.43(4) . . .
1799.00 . 5.46(4) . . .
1800.00 . 5.54(4) . . .
1801.00 . 5.56(4) . . .
1802.00 . 5.50(4) . . .
1803.00 . 5.53(4) . . .
1804.00 . 5.56(4) . . .
1805.00 . 5.58(4) . . .
1806.00 . 5.59(4) . . .
1807.00 . 5.58(4) . . .
1808.00 . 5.55(4) . . .
1809.00 . 5.56(4) . . .
1810.00 . 5.61(4) . . .
1811.00 . 5.56(4) . . .
1812.00 . 5.60(4) . . .
1813.00 . 5.53(4) . . .
1814.00 . 5.53(4) . . .
1815.00 . 5.58(4) . . .
1816.00 . 5.61(4) . . .
1817.00 . 5.51(4) . . .
1818.00 . 5.43(4) . . .
1819.00 . 5.49(4) . . .
1820.00 . 5.51(4) . . .
1821.00 . 5.50(4) . . .
1822.00 . 5.53(4) . . .
1823.00 . 5.54(4) . . .
1824.00 . 5.53(4) . . .
1825.00 . 5.50(4) . . .
1826.00 . 5.46(4) . . .
1827.00 . 5.45(4) . . .
1828.00 . 5.48(4) . . .
1829.00 . 5.48(4) . . .
1830.00 . 5.45(4) . . .
1831.00 . 5.43(4) . . .
1832.00 . 5.43(4) . . .
1833.00 . 5.48(4) . . .
1834.00 . 5.49(4) . . .
1835.00 . 5.41(4) . . .
1836.00 . 5.39(4) . . .
1837.00 . 5.40(4) . . .
1838.00 . 5.37(4) . . .
1839.00 . 5.37(4) . . .
1840.00 . 5.44(4) . . .
1841.00 . 5.44(4) . . .
1842.00 . 5.40(4) . . .
1843.00 . 5.40(4) . . .
1844.00 . 5.44(4) . . .
1845.00 . 5.49(4) . . .
1846.00 . 5.51(4) . . .
1847.00 . 5.50(4) . . .
1848.00 . 5.53(4) . . .
1849.00 . 5.59(4) . . .
1850.00 . 5.53(4) . . .
1851.00 . 5.49(4) . . .
1852.00 . 5.51(4) . . .
1853.00 . 5.56(4) . . .
1854.00 . 5.59(4) . . .
1855.00 . 5.50(4) . . .
1856.00 . 5.42(4) . . .
1857.00 . 5.39(4) . . .
1858.00 . 5.44(4) . . .
1859.00 . 5.52(4) . . .
1860.00 . 5.48(4) . . .
1861.00 . 5.51(4) . . .
1862.00 . 5.49(4) . . .
1863.00 . 5.46(4) . . .
1864.00 . 5.46(4) . . .
1865.00 . 5.45(4) . . .
1866.00 . 5.53(4) . . .
1867.00 . 5.51(4) . . .
1868.00 . 5.58(4) . . .
1869.00 . 5.58(4) . . .
1870.00 . 5.60(4) . . .
1871.00 . 5.65(4) . . .
1872.00 . 5.60(4) . . .
1873.00 . 5.58(4) . . .
1874.00 . 5.60(4) . . .
1875.00 . 5.60(4) . . .
1876.00 . 5.57(4) . . .
1877.00 . 5.56(4) . . .
1878.00 . 5.53(4) . . .
1879.00 . 5.50(4) . . .
1880.00 . 5.49(4) . . .
1881.00 . 5.48(4) . . .
1882.00 . 5.47(4) . . .
1883.00 . 5.49(4) . . .
1884.00 . 5.50(4) . . .
1885.00 . 5.47(4) . . .
1886.00 . 5.48(4) . . .
1887.00 . 5.50(4) . . .
1888.00 . 5.51(4) . . .
1889.00 . 5.53(4) . . .
1890.00 . 5.55(4) . . .
1891.00 . 5.53(4) . . .
1892.00 . 5.50(4) . . .
1893.00 . 5.51(4) . . .
1894.00 . 5.55(4) . . .
1895.00 . 5.55(4) . . .
1896.00 . 5.52(4) . . .
1897.00 . 5.55(4) . . .
1898.00 . 5.61(4) . . .
1899.00 . 5.61(4) . . .
1900.00 . 5.60(4) . . .
1901.00 . 5.54(4) . . .
1902.00 . 5.52(4) . . .
1903.00 . 5.59(4) . . .
1904.00 . 5.58(4) . . .
1905.00 . 5.61(4) . . .
1906.00 . 5.61(4) . . .
1907.00 . 5.60(4) . . .
1908.00 . 5.59(4) . . .
1909.00 . 5.58(4) . . .
1910.00 . 5.61(4) . . .
1911.00 . 5.64(4) . . .
1912.00 . 5.65(4) . . .
1913.00 . 5.62(4) . . .
1914.00 . 5.59(4) . . .
1915.00 . 5.57(4) . . .
1916.00 . 5.58(4) . . .
1917.00 . 5.61(4) . . .
1918.00 . 5.59(4) . . .
1919.00 . 5.60(4) . . .
1920.00 . 5.61(4) . . .
1921.00 . 5.51(4) . . .
1922.00 . 5.58(4) . . .
1923.00 . 5.55(4) . . .
1924.00 . 5.52(4) . . .
1925.00 . 5.45(4) . . .
1926.00 . 5.38(4) . . .
1927.00 . 5.36(4) . . .
1928.00 . 5.38(4) . . .
1929.00 . 5.39(4) . . .
1930.00 . 5.39(4) . . .
1931.00 . 5.40(4) . . .
1932.00 . 5.42(4) . . .
1933.00 . 5.46(4) . . .
1934.00 . 5.47(4) . . .
1935.00 . 5.47(4) . . .
1936.00 . 5.46(4) . . .
1937.00 . 5.46(4) . . .
1938.00 . 5.49(4) . . .
1939.00 . 5.55(4) . . .
1940.00 . 5.56(4) . . .
1941.00 . 5.58(4) . . .
1942.00 . 5.57(4) . . .
1943.00 . 5.52(4) . . .
1944.00 . 5.50(4) . . .
1945.00 . 5.45(4) . . .
1946.00 . 5.46(4) . . .
1947.00 . 5.46(4) . . .
1948.00 . 5.42(4) . . .
1949.00 . 5.38(4) . . .
1950.00 . 5.35(4) . . .
1951.00 . 5.34(4) . . .
1952.00 . 5.39(4) . . .
1953.00 . 5.34(4) . . .
1954.00 . 5.34(4) . . .
1955.00 . 5.34(4) . . .
1956.00 . 5.34(4) . . .
1957.00 . 5.34(4) . . .
1958.00 . 5.38(4) . . .
1959.00 . 5.36(4) . . .
1960.00 . 5.40(4) . . .
1961.00 . 5.48(4) . . .
1962.00 . 5.49(4) . . .
1963.00 . 5.45(4) . . .
1964.00 . 5.48(4) . . .
1965.00 . 5.47(4) . . .
1966.00 . 5.55(4) . . .
1967.00 . 5.55(4) . . .
1968.00 . 5.45(4) . . .
1969.00 . 5.50(4) . . .
1970.00 . 5.56(4) . . .
1971.00 . 5.57(4) . . .
1972.00 . 5.60(4) . . .
1973.00 . 5.59(4) . . .
1974.00 . 5.59(4) . . .
1975.00 . 5.60(4) . . .
1976.00 . 5.60(4) . . .
1977.00 . 5.55(4) . . .
1978.00 . 5.51(4) . . .
1979.00 . 5.54(4) . . .
1980.00 . 5.45(4) . . .
1981.00 . 5.45(4) . . .
1982.00 . 5.47(4) . . .
1983.00 . 5.43(4) . . .
1984.00 . 5.49(4) . . .
1985.00 . 5.51(4) . . .
1986.00 . 5.59(4) . . .
1987.00 . 5.60(4) . . .
1988.00 . 5.58(4) . . .
1989.00 . 5.56(4) . . .
1990.00 . 5.61(4) . . .
1991.00 . 5.64(4) . . .
1992.00 . 5.59(4) . . .
1993.00 . 5.56(4) . . .
1994.00 . 5.58(4) . . .
1995.00 . 5.60(4) . . .
1996.00 . 5.55(4) . . .
1997.00 . 5.52(4) . . .
1998.00 . 5.51(4) . . .
1999.00 . 5.48(4) . . .
2000.00 . 5.48(4) . . .
2001.00 . 5.45(4) . . .
2002.00 . 5.40(4) . . .
2003.00 . 5.38(4) . . .
2004.00 . 5.33(4) . . .
2005.00 . 5.33(4) . . .
2006.00 . 5.35(4) . . .
2007.00 . 5.36(4) . . .
2008.00 . 5.37(4) . . .
2009.03 . 5.40(4) . . .
2010.03 . 5.47(4) . . .
2011.03 . 5.54(4) . . .
2012.03 . 5.60(4) . . .
2013.03 . 5.64(4) . . .
2014.03 . 5.69(4) . . .
2015.06 . 5.72(4) . . .
2016.06 . 5.74(4) . . .
2017.06 . 5.75(4) . . .
2018.06 . 5.76(4) . . .
2019.09 . 5.80(4) . . .
2020.09 . 5.77(4) . . .
2021.09 . 5.74(4) . . .
2022.13 . 5.72(4) . . .
2023.13 . 5.71(4) . . .
2024.13 . 5.60(4) . . .
2025.16 . 5.57(4) . . .
2026.16 . 5.56(4) . . .
2027.19 . 5.50(4) . . .
2028.19 . 5.44(4) . . .
2029.22 . 5.42(4) . . .
2030.22 . 5.45(4) . . .
2031.22 . 5.45(4) . . .
2032.25 . 5.42(4) . . .
2033.25 . 5.43(4) . . .
2034.28 . 5.38(4) . . .
2035.31 . 5.35(4) . . .
2036.31 . 5.30(4) . . .
2037.34 . 5.28(4) . . .
2038.34 . 5.31(4) . . .
2039.38 . 5.30(4) . . .
2040.41 . 5.26(4) . . .
2041.41 . 5.24(4) . . .
2042.44 . 5.29(4) . . .
2043.47 . 5.30(4) . . .
2044.47 . 5.32(4) . . .
2045.50 . 5.36(4) . . .
2046.53 . 5.40(4) . . .
2047.53 . 5.41(4) . . .
2048.56 . 5.39(4) . . .
2049.59 . 5.37(4) . . .
2050.63 . 5.38(4) . . .
2051.66 . 5.38(4) . . .
2052.66 . 5.35(4) . . .
2053.69 . 5.35(4) . . .
2054.72 . 5.36(4) . . .
2055.75 . 5.36(4) . . .
2056.78 . 5.29(4) . . .
2057.81 . 5.29(4) . . .
2058.84 . 5.36(4) . . .
2059.88 . 5.36(4) . . .
2060.91 . 5.35(4) . . .
2061.94 . 5.37(4) . . .
2062.97 . 5.40(4) . . .
2064.00 . 5.38(4) . . .
2065.03 . 5.37(4) . . .
2066.06 . 5.38(4) . . .
2067.09 . 5.41(4) . . .
2068.13 . 5.40(4) . . .
2069.16 . 5.38(4) . . .
2070.19 . 5.40(4) . . .
2071.22 . 5.41(4) . . .
2072.25 . 5.42(4) . . .
2073.28 . 5.46(4) . . .
2074.34 . 5.50(4) . . .
2075.38 . 5.51(4) . . .
2076.41 . 5.49(4) . . .
2077.44 . 5.48(4) . . .
2078.47 . 5.52(4) . . .
2079.53 . 5.51(4) . . .
2080.56 . 5.48(4) . . .
2081.59 . 5.46(4) . . .
2082.66 . 5.45(4) . . .
2083.69 . 5.39(4) . . .
2084.72 . 5.41(4) . . .
2085.78 . 5.39(4) . . .
2086.81 . 5.41(4) . . .
2087.84 . 5.43(4) . . .
2088.91 . 5.44(4) . . .
2089.94 . 5.48(4) . . .
2091.00 . 5.39(4) . . .
2092.03 . 5.38(4) . . .
2093.09 . 5.38(4) . . .
2094.13 . 5.35(4) . . .
2095.19 . 5.40(4) . . .
2096.22 . 5.43(4) . . .
2097.28 . 5.44(4) . . .
2098.31 . 5.44(4) . . .
2099.38 . 5.49(4) . . .
2100.41 . 5.55(4) . . .
2101.47 . 5.67(4) . . .
2102.53 . 5.76(4) . . .
2103.56 . 5.80(4) . . .
2104.63 . 5.80(4) . . .
2105.66 . 5.80(4) . . .
2106.72 . 5.81(4) . . .
2107.78 . 5.76(4) . . .
2108.84 . 5.71(4) . . .
2109.88 . 5.69(4) . . .
2110.94 . 5.66(4) . . .
2112.00 . 5.63(4) . . .
2113.06 . 5.57(4) . . .
2114.09 . 5.53(4) . . .
2115.16 . 5.50(4) . . .
2116.22 . 5.50(4) . . .
2117.28 . 5.51(4) . . .
2118.34 . 5.46(4) . . .
2119.41 . 5.41(4) . . .
2120.47 . 5.40(4) . . .
2121.53 . 5.41(4) . . .
2122.59 . 5.43(4) . . .
2123.66 . 5.45(4) . . .
2124.72 . 5.42(4) . . .
2125.78 . 5.40(4) . . .
2126.84 . 5.41(4) . . .
2127.91 . 5.40(4) . . .
2128.97 . 5.39(4) . . .
2130.03 . 5.36(4) . . .
2131.09 . 5.34(4) . . .
2132.16 . 5.33(4) . . .
2133.22 . 5.36(4) . . .
2134.28 . 5.35(4) . . .
2135.34 . 5.33(4) . . .
2136.41 . 5.31(4) . . .
2137.50 . 5.29(4) . . .
2138.56 . 5.28(4) . . .
2139.63 . 5.23(4) . . .
2140.69 . 5.20(4) . . .
2141.75 . 5.21(4) . . .
2142.84 . 5.28(4) . . .
2143.91 . 5.33(4) . . .
2144.97 . 5.32(4) . . .
2146.06 . 5.27(4) . . .
2147.13 . 5.28(4) . . .
2148.19 . 5.25(4) . . .
2149.28 . 5.21(4) . . .
2150.34 . 5.23(4) . . .
2151.44 . 5.22(4) . . .
2152.50 . 5.18(4) . . .
2153.56 . 5.20(4) . . .
2154.66 . 5.22(4) . . .
2155.72 . 5.17(4) . . .
2156.81 . 5.15(4) . . .
2157.88 . 5.17(4) . . .
2158.97 . 5.19(4) . . .
2160.03 . 5.21(4) . . .
2161.13 . 5.20(4) . . .
2162.22 . 5.23(4) . . .
2163.28 . 5.25(4) . . .
2164.38 . 5.30(4) . . .
2165.44 . 5.42(4) . . .
2166.53 . 5.50(4) . . .
2167.63 . 5.63(4) . . .
2168.69 . 5.73(4) . . .
2169.78 . 5.74(4) . . .
2170.88 . 5.74(4) . . .
2171.97 . 5.72(4) . . .
2173.03 . 5.70(4) . . .
2174.13 . 5.70(4) . . .
2175.22 . 5.69(4) . . .
2176.31 . 5.68(4) . . .
2177.38 . 5.68(4) . . .
2178.47 . 5.72(4) . . .
2179.56 . 5.71(4) . . .
2180.66 . 5.61(4) . . .
2181.75 . 5.53(4) . . .
2182.84 . 5.51(4) . . .
2183.94 . 5.45(4) . . .
2185.03 . 5.39(4) . . .
2186.13 . 5.36(4) . . .
2187.22 . 5.28(4) . . .
2188.31 . 5.26(4) . . .
2189.41 . 5.24(4) . . .
2190.50 . 5.20(4) . . .
2191.59 . 5.20(4) . . .
2192.69 . 5.20(4) . . .
2193.78 . 5.19(4) . . .
2194.88 . 5.20(4) . . .
2195.97 . 5.24(4) . . .
2197.06 . 5.29(4) . . .
2198.16 . 5.31(4) . . .
2199.28 . 5.30(4) . . .
2200.38 . 5.38(4) . . .
2201.47 . 5.47(4) . . .
2202.56 . 5.53(4) . . .
2203.66 . 5.63(4) . . .
2204.78 . 5.68(4) . . .
2205.88 . 5.74(4) . . .
2206.97 . 5.78(4) . . .
2208.09 . 5.78(4) . . .
2209.19 . 5.76(4) . . .
2210.28 . 5.77(4) . . .
2211.41 . 5.73(4) . . .
2212.50 . 5.71(4) . . .
2213.59 . 5.68(4) . . .
2214.72 . 5.63(4) . . .
2215.81 . 5.48(4) . . .
2216.94 . 5.48(4) . . .
2218.03 . 5.47(4) . . .
2219.16 . 5.47(4) . . .
2220.25 . 5.50(4) . . .
2221.38 . 5.51(4) . . .
2222.47 . 5.51(4) . . .
2223.59 . 5.50(4) . . .
2224.69 . 5.47(4) . . .
2225.81 . 5.42(4) . . .
2226.94 . 5.43(4) . . .
2228.03 . 5.45(4) . . .
2229.16 . 5.43(4) . . .
2230.25 . 5.43(4) . . .
2231.38 . 5.43(4) . . .
2232.50 . 5.47(4) . . .
2233.63 . 5.48(4) . . .
2234.72 . 5.46(4) . . .
2235.84 . 5.42(4) . . .
2236.97 . 5.42(4) . . .
2238.09 . 5.45(4) . . .
2239.19 . 5.53(4) . . .
2240.31 . 5.60(4) . . .
2241.44 . 5.61(4) . . .
2242.56 . 5.63(4) . . .
2243.69 . 5.63(4) . . .
2244.81 . 5.57(4) . . .
2245.94 . 5.59(4) . . .
2247.06 . 5.66(4) . . .
2248.19 . 5.70(4) . . .
2249.31 . 5.72(4) . . .
2250.44 . 5.69(4) . . .
2251.56 . 5.69(4) . . .
2252.69 . 5.60(4) . . .
2253.81 . 5.59(4) . . .
2254.94 . 5.61(4) . . .
2256.06 . 5.56(4) . . .
2257.19 . 5.59(4) . . .
2258.31 . 5.68(4) . . .
2259.44 . 5.72(4) . . .
2260.56 . 5.71(4) . . .
2261.69 . 5.76(4) . . .
2262.84 . 5.82(4) . . .
2263.97 . 5.77(4) . . .
2265.09 . 5.73(4) . . .
2266.22 . 5.74(4) . . .
2267.38 . 5.74(4) . . .
2268.50 . 5.72(4) . . .
2269.63 . 5.66(4) . . .
2270.75 . 5.64(4) . . .
2271.91 . 5.62(4) . . .
2273.03 . 5.58(4) . . .
2274.16 . 5.56(4) . . .
2275.31 . 5.63(4) . . .
2276.44 . 5.64(4) . . .
2277.59 . 5.66(4) . . .
2278.72 . 5.71(4) . . .
2279.88 . 5.78(4) . . .
2281.00 . 5.84(4) . . .
2282.16 . 5.88(4) . . .
2283.28 . 5.91(4) . . .
2284.44 . 6.02(4) . . .
2285.56 . 6.04(4) . . .
2286.72 . 5.99(4) . . .
2287.84 . 5.93(4) . . .
2289.00 . 5.92(4) . . .
2290.16 . 5.86(4) . . .
2291.28 . 5.75(4) . . .
2292.44 . 5.68(4) . . .
2293.59 . 5.59(4) . . .
2294.72 . 5.46(4) . . .
2295.88 . 5.42(4) . . .
2297.03 . 5.38(4) . . .
2298.16 . 5.33(4) . . .
2299.31 . 5.29(4) . . .
2300.47 . 5.25(4) . . .
2301.63 . 5.24(4) . . .
2302.78 . 5.24(4) . . .
2303.91 . 5.24(4) . . .
2305.06 . 5.19(4) . . .
2306.22 . 5.18(4) . . .
2307.38 . 5.18(4) . . .
2308.53 . 5.18(4) . . .
2309.69 . 5.19(4) . . .
2310.84 . 5.16(4) . . .
2312.00 . 5.14(4) . . .
2313.16 . 5.14(4) . . .
2314.31 . 5.22(4) . . .
2315.47 . 5.38(4) . . .
2316.63 . 5.50(4) . . .
2317.78 . 5.70(4) . . .
2318.94 . 5.87(4) . . .
2320.09 . 5.99(4) . . .
2321.25 . 6.06(4) . . .
2322.41 . 6.12(4) . . .
2323.59 . 6.15(4) . . .
2324.75 . 6.12(4) . . .
2325.91 . 6.05(4) . . .
2327.06 . 5.96(4) . . .
2328.22 . 5.89(4) . . .
2329.41 . 5.81(4) . . .
2330.56 . 5.75(4) . . .
2331.72 . 5.74(4) . . .
2332.91 . 5.66(4) . . .
2334.06 . 5.61(4) . . .
2335.22 . 5.62(4) . . .
2336.41 . 5.55(4) . . .
2337.56 . 5.49(4) . . .
2338.72 . 5.48(4) . . .
2339.91 . 5.41(4) . . .
2341.06 . 5.39(4) . . .
2342.25 . 5.40(4) . . .
2343.41 . 5.41(4) . . .
2344.59 . 5.41(4) . . .
2345.75 . 5.37(4) . . .
2346.94 . 5.30(4) . . .
2348.09 . 5.25(4) . . .
2349.28 . 5.21(4) . . .
2350.44 . 5.21(4) . . .
2351.63 . 5.23(4) . . .
2352.81 . 5.20(4) . . .
2353.97 . 5.21(4) . . .
2355.16 . 5.22(4) . . .
2356.34 . 5.20(4) . . .
2357.50 . 5.19(4) . . .
2358.69 . 5.22(4) . . .
2359.88 . 5.28(4) . . .
2361.06 . 5.37(4) . . .
2362.22 . 5.43(4) . . .
2363.41 . 5.48(4) . . .
2364.59 . 5.47(4) . . .
2365.78 . 5.43(4) . . .
2366.97 . 5.40(4) . . .
2368.16 . 5.38(4) . . .
2369.31 . 5.38(4) . . .
2370.50 . 5.38(4) . . .
2371.69 . 5.37(4) . . .
2372.88 . 5.38(4) . . .
2374.06 . 5.44(4) . . .
2375.25 . 5.45(4) . . .
2376.44 . 5.47(4) . . .
2377.63 . 5.40(4) . . .
2378.81 . 5.37(4) . . .
2380.00 . 5.36(4) . . .
2381.19 . 5.39(4) . . .
2382.38 . 5.42(4) . . .
2383.59 . 5.48(4) . . .
2384.78 . 5.54(4) . . .
2385.97 . 5.64(4) . . .
2387.16 . 5.66(4) . . .
2388.34 . 5.66(4) . . .
2389.53 . 5.65(4) . . .
2390.75 . 5.70(4) . . .
2391.94 . 5.68(4) . . .
2393.13 . 5.66(4) . . .
2394.34 . 5.63(4) . . .
2395.53 . 5.57(4) . . .
2396.72 . 5.53(4) . . .
2397.91 . 5.49(4) . . .
2399.13 . 5.49(4) . . .
2400.31 . 5.50(4) . . .
2401.53 . 5.45(4) . . .
2402.72 . 5.40(4) . . .
2403.94 . 5.38(4) . . .
2405.13 . 5.43(4) . . .
2406.31 . 5.48(4) . . .
2407.53 . 5.48(4) . . .
2408.72 . 5.49(4) . . .
2409.94 . 5.47(4) . . .
2411.16 . 5.51(4) . . .
2412.34 . 5.47(4) . . .
2413.56 . 5.42(4) . . .
2414.75 . 5.38(4) . . .
2415.97 . 5.36(4) . . .
2417.19 . 5.31(4) . . .
2418.38 . 5.28(4) . . .
2419.59 . 5.26(4) . . .
2420.81 . 5.27(4) . . .
2422.00 . 5.27(4) . . .
2423.22 . 5.26(4) . . .
2424.44 . 5.27(4) . . .
2425.66 . 5.24(4) . . .
2426.88 . 5.23(4) . . .
2428.06 . 5.27(4) . . .
2429.28 . 5.26(4) . . .
2430.50 . 5.23(4) . . .
2431.72 . 5.20(4) . . .
2432.94 . 5.22(4) . . .
2434.16 . 5.25(4) . . .
2435.38 . 5.23(4) . . .
2436.59 . 5.19(4) . . .
2437.81 . 5.23(4) . . .
2439.03 . 5.24(4) . . .
2440.25 . 5.23(4) . . .
2441.47 . 5.19(4) . . .
2442.69 . 5.15(4) . . .
2443.91 . 5.16(4) . . .
2445.13 . 5.19(4) . . .
2446.34 . 5.20(4) . . .
2447.56 . 5.18(4) . . .
2448.81 . 5.20(4) . . .
2450.03 . 5.20(4) . . .
2451.25 . 5.17(4) . . .
2452.47 . 5.17(4) . . .
2453.69 . 5.24(4) . . .
2454.94 . 5.41(4) . . .
2456.16 . 5.56(4) . . .
2457.38 . 5.74(4) . . .
2458.63 . 5.85(4) . . .
2459.84 . 5.85(4) . . .
2461.06 . 5.86(4) . . .
2462.31 . 5.85(4) . . .
2463.53 . 5.86(4) . . .
2464.75 . 5.85(4) . . .
2466.00 . 5.81(4) . . .
2467.22 . 5.72(4) . . .
2468.47 . 5.68(4) . . .
2469.69 . 5.66(4) . . .
2470.94 . 5.59(4) . . .
2472.16 . 5.51(4) . . .
2473.41 . 5.46(4) . . .
2474.63 0.40061 5.37(4) 0.0 4.834 .
2475.88 0.40081 5.32(4) 601. 4.837 5.207
2477.13 0.40101 5.26(4) 609. 4.841 5.174
2478.34 0.40121 5.20(4) 615. 4.844 5.147
2479.59 0.40141 5.20(4) 615. 4.847 5.127
2480.84 0.40162 5.24(4) 611. 4.850 5.120
2482.06 0.40182 5.26(4) 608. 4.853 5.126
2483.31 0.40202 5.25(4) 610. 4.856 5.144
2484.56 0.40222 5.23(4) 613. 4.859 5.167
2485.81 0.40242 5.20(4) 616. 4.861 5.185
2487.03 0.40262 5.20(4) 615. 4.864 5.191
2488.28 0.40283 5.24(4) 610. 4.867 5.187
2489.53 0.40303 5.22(4) 613. 4.870 5.178
2490.78 0.40323 5.17(4) 620. 4.872 5.171
2492.03 0.40343 5.15(4) 624. 4.875 5.166
2493.25 0.40363 5.13(4) 625. 4.877 5.159
2494.50 0.40383 5.10(4) 630. 4.880 5.144
2495.75 0.40404 5.08(4) 633. 4.882 5.123
2497.00 0.40424 5.07(4) 635. 4.885 5.098
2498.25 0.40444 5.04(4) 638. 4.887 5.076
2499.50 0.40465 5.07(4) 633. 4.889 5.060
2500.75 0.40485 5.04(4) 638. 4.891 5.052
2502.00 0.40505 5.01(4) 643. 4.894 5.054
2503.25 0.40525 5.04(4) 638. 4.896 5.069
2504.50 0.40546 5.10(4) 630. 4.898 5.104
2505.75 0.40566 5.23(4) 615. 4.900 5.169
2507.00 0.40586 5.34(4) 603. 4.902 5.266
2508.25 0.40607 5.47(4) 589. 4.904 5.393
2509.53 0.40627 5.57(4) 578. 4.906 5.529
2510.78 0.40648 5.64(4) 571. 4.908 5.650
2512.03 0.40668 5.71(4) 565. 4.909 5.741
2513.28 0.40688 5.78(4) 556. 4.911 5.797
2514.53 0.40709 5.85(4) 551. 4.913 5.820
2515.81 0.40729 5.86(4) 550. 4.915 5.811
2517.06 0.40750 5.76(4) 560. 4.916 5.772
2518.31 0.40770 5.69(4) 567. 4.918 5.710
2519.56 0.40790 5.66(4) 569. 4.919 5.636
2520.84 0.40811 5.59(4) 578. 4.921 5.565
2522.09 0.40831 5.53(4) 585. 4.922 5.503
2523.34 0.40852 5.48(4) 591. 4.924 5.451
2524.63 0.40872 5.47(4) 591. 4.925 5.409
2525.88 0.40893 5.45(4) 593. 4.927 5.375
2527.16 0.40913 5.41(4) 598. 4.928 5.349
2528.41 0.40934 5.37(4) 603. 4.929 5.330
2529.66 0.40954 5.35(4) 605. 4.930 5.317
2530.94 0.40975 5.29(4) 613. 4.932 5.304
2532.19 0.40995 5.25(4) 617. 4.933 5.288
2533.47 0.41016 5.26(4) 615. 4.934 5.268
2534.72 0.41036 5.26(4) 617. 4.935 5.243
2536.00 0.41057 5.21(4) 624. 4.936 5.214
2537.28 0.41078 5.16(4) 630. 4.937 5.184
2538.53 0.41098 5.16(4) 631. 4.938 5.154
2539.81 0.41119 5.10(4) 638. 4.939 5.125
2541.06 0.41139 5.04(4) 646. 4.940 5.097
2542.34 0.41160 5.05(4) 644. 4.941 5.072
2543.63 0.41181 5.00(4) 651. 4.942 5.049
2544.91 0.41202 4.96(4) 656. 4.942 5.032
2546.16 0.41222 4.96(4) 657. 4.943 5.021
2547.44 0.41243 4.93(4) 662. 4.944 5.016
2548.72 0.41263 4.91(4) 665. 4.945 5.020
2550.00 0.41284 4.96(4) 656. 4.945 5.031
2551.25 0.41305 4.99(4) 654. 4.946 5.048
2552.53 0.41325 5.00(4) 651. 4.947 5.068
2553.81 0.41346 5.01(4) 651. 4.947 5.090
2555.09 0.41367 5.06(4) 646. 4.948 5.110
2556.38 0.41388 5.05(4) 646. 4.948 5.133
2557.66 0.41409 5.05(4) 646. 4.949 5.167
2558.94 0.41429 5.16(4) 633. 4.949 5.228
2560.19 0.41450 5.31(4) 614. 4.949 5.330
2561.47 0.41470 5.50(4) 593. 4.950 5.487
2562.75 0.41491 5.72(4) 571. 4.950 5.695
2564.03 0.41512 5.98(4) 547. 4.950 5.932
2565.31 0.41533 6.18(4) 527. 4.951 6.162
2566.59 0.41554 6.33(4) 516. 4.951 6.344
2567.91 0.41575 6.40(4) 509. 4.951 6.443
2569.19 0.41596 6.40(4) 511. 4.951 6.449
2570.47 0.41617 6.32(4) 516. 4.952 6.381
2571.75 0.41637 6.25(4) 523. 4.952 6.270
2573.03 0.41658 6.19(4) 527. 4.952 6.149
2574.31 0.41679 6.11(4) 535. 4.952 6.038
2575.59 0.41700 6.02(4) 543. 4.952 5.941
2576.91 0.41721 5.97(4) 549. 4.952 5.856
2578.19 0.41742 5.99(4) 547. 4.952 5.782
2579.47 0.41763 5.92(4) 553. 4.952 5.713
2580.75 0.41783 5.78(4) 567. 4.952 5.646
2582.06 0.41805 5.71(4) 576. 4.952 5.582
2583.34 0.41825 5.62(4) 584. 4.952 5.522
2584.63 0.41846 5.54(4) 593. 4.952 5.466
2585.94 0.41868 5.47(4) 600. 4.951 5.419
2587.22 0.41888 5.42(4) 607. 4.951 5.382
2588.50 0.41909 5.35(4) 616. 4.951 5.356
2589.81 0.41930 5.31(4) 619. 4.951 5.341
2591.09 0.41951 5.32(4) 620. 4.950 5.336
2592.41 0.41973 5.30(4) 621. 4.950 5.341
2593.69 0.41993 5.33(4) 618. 4.950 5.358
2595.00 0.42015 5.38(4) 614. 4.950 5.389
2596.28 0.42035 5.41(4) 609. 4.949 5.430
2597.59 0.42057 5.44(4) 607. 4.949 5.470
2598.88 0.42078 5.43(4) 609. 4.948 5.496
2600.19 0.42099 5.36(4) 616. 4.948 5.494
2601.50 0.42120 5.33(4) 621. 4.948 5.458
2602.78 0.42141 5.29(4) 625. 4.947 5.396
2604.09 0.42162 5.27(4) 629. 4.947 5.321
2605.38 0.42183 5.20(4) 637. 4.946 5.247
2606.69 0.42204 5.11(4) 650. 4.945 5.187
2608.00 0.42226 5.07(4) 652. 4.945 5.146
2609.31 0.42247 5.05(4) 657. 4.944 5.126
2610.59 0.42268 5.05(4) 657. 4.944 5.122
2611.91 0.42289 5.07(4) 655. 4.943 5.130
2613.22 0.42310 5.15(4) 644. 4.942 5.145
2614.53 0.42332 5.17(4) 642. 4.942 5.165
2615.84 0.42353 5.16(4) 644. 4.941 5.195
2617.13 0.42374 5.23(4) 635. 4.940 5.244
2618.44 0.42395 5.35(4) 620. 4.940 5.320
2619.75 0.42416 5.46(4) 606. 4.939 5.431
2621.06 0.42438 5.60(4) 593. 4.938 5.574
2622.38 0.42459 5.78(4) 574. 4.937 5.738
2623.69 0.42480 5.98(4) 555. 4.937 5.903
2625.00 0.42502 6.15(4) 540. 4.936 6.054
2626.31 0.42523 6.24(4) 532. 4.935 6.183
2627.63 0.42544 6.32(4) 525. 4.934 6.286
2628.94 0.42566 6.41(4) 517. 4.933 6.355
2630.25 0.42587 6.38(4) 521. 4.932 6.373
2631.56 0.42608 6.28(4) 528. 4.932 6.330
2632.88 0.42629 6.24(4) 532. 4.931 6.230
2634.19 0.42651 6.15(4) 540. 4.930 6.091
2635.53 0.42673 6.04(4) 551. 4.929 5.940
2636.84 0.42694 5.90(4) 563. 4.928 5.802
2638.16 0.42715 5.82(4) 574. 4.927 5.686
2639.47 0.42736 5.75(4) 580. 4.926 5.593
2640.78 0.42758 5.63(4) 593. 4.925 5.520
2642.13 0.42780 5.58(4) 597. 4.924 5.464
2643.44 0.42801 5.56(4) 602. 4.923 5.422
2644.75 0.42822 5.50(4) 606. 4.922 5.388
2646.06 0.42844 5.50(4) 608. 4.921 5.360
2647.41 0.42865 5.47(4) 611. 4.920 5.343
2648.72 0.42887 5.39(4) 622. 4.918 5.342
2650.06 0.42908 5.45(4) 613. 4.917 5.367
2651.38 0.42930 5.55(4) 604. 4.916 5.424
2652.69 0.42951 5.63(4) 595. 4.915 5.514
2654.03 0.42973 5.74(4) 584. 4.914 5.622
2655.34 0.42994 5.75(4) 582. 4.913 5.722
2656.69 0.43016 5.78(4) 580. 4.912 5.786
2658.00 0.43037 5.81(4) 578. 4.910 5.800
2659.34 0.43059 5.76(4) 582. 4.909 5.770
2660.66 0.43080 5.76(4) 582. 4.908 5.724
2662.00 0.43102 5.78(4) 580. 4.907 5.690
2663.34 0.43124 5.76(4) 582. 4.905 5.687
2664.66 0.43145 5.73(4) 586. 4.904 5.709
2666.00 0.43167 5.71(4) 589. 4.903 5.732
2667.31 0.43188 5.70(4) 590. 4.902 5.727
2668.66 0.43210 5.63(4) 597. 4.900 5.680
2670.00 0.43232 5.54(4) 608. 4.899 5.598
2671.34 0.43254 5.44(4) 618. 4.898 5.503
2672.66 0.43275 5.37(4) 626. 4.896 5.413
2674.00 0.43297 5.31(4) 636. 4.895 5.340
2675.34 0.43319 5.24(4) 643. 4.894 5.287
2676.69 0.43341 5.19(4) 650. 4.892 5.251
2678.00 0.43362 5.17(4) 653. 4.891 5.229
2679.34 0.43384 5.15(4) 655. 4.890 5.220
2680.69 0.43406 5.12(4) 660. 4.888 5.233
2682.03 0.43427 5.19(4) 650. 4.887 5.275
2683.38 0.43449 5.28(4) 640. 4.886 5.353
2684.72 0.43471 5.37(4) 629. 4.884 5.457
2686.06 0.43493 5.48(4) 617. 4.883 5.565
2687.41 0.43515 5.49(4) 615. 4.881 5.644
2688.75 0.43536 5.49(4) 617. 4.880 5.669
2690.09 0.43558 5.47(4) 619. 4.878 5.634
2691.44 0.43580 5.43(4) 624. 4.877 5.553
2692.78 0.43602 5.33(4) 636. 4.875 5.455
2694.13 0.43624 5.30(4) 640. 4.874 5.365
2695.47 0.43645 5.25(4) 648. 4.872 5.301
2696.81 0.43667 5.22(4) 650. 4.871 5.269
2698.16 0.43689 5.21(4) 651. 4.870 5.264
2699.53 0.43711 5.18(4) 655. 4.868 5.280
2700.88 0.43733 5.22(4) 650. 4.866 5.308
2702.22 0.43755 5.27(4) 645. 4.865 5.346
2703.56 0.43777 5.35(4) 636. 4.863 5.391
2704.91 0.43799 5.39(4) 632. 4.862 5.438
2706.28 0.43821 5.39(4) 631. 4.860 5.479
2707.63 0.43843 5.41(4) 629. 4.859 5.508
2708.97 0.43865 5.39(4) 632. 4.857 5.519
2710.34 0.43887 5.36(4) 636. 4.856 5.514
2711.69 0.43909 5.36(4) 636. 4.854 5.496
2713.03 0.43931 5.35(4) 637. 4.853 5.473
2714.41 0.43953 5.32(4) 640. 4.851 5.453
2715.75 0.43975 5.32(4) 641. 4.849 5.443
2717.13 0.43997 5.35(4) 638. 4.848 5.447
2718.47 0.44019 5.39(4) 634. 4.846 5.463
2719.84 0.44041 5.38(4) 636. 4.845 5.484
2721.19 0.44063 5.39(4) 634. 4.843 5.496
2722.56 0.44085 5.38(4) 636. 4.841 5.489
2723.91 0.44107 5.32(4) 644. 4.840 5.458
2725.28 0.44129 5.28(4) 648. 4.838 5.410
2726.66 0.44152 5.26(4) 650. 4.837 5.361
2728.00 0.44173 5.24(4) 653. 4.835 5.327
2729.38 0.44196 5.26(4) 653. 4.833 5.317
2730.72 0.44218 5.28(4) 648. 4.832 5.328
2732.09 0.44240 5.26(4) 651. 4.830 5.345
2733.47 0.44262 5.22(4) 658. 4.828 5.350
2734.84 0.44285 5.19(4) 660. 4.827 5.335
2736.19 0.44306 5.18(4) 663. 4.825 5.307
2737.56 0.44329 5.22(4) 658. 4.823 5.277
2738.94 0.44351 5.25(4) 656. 4.822 5.259
2740.31 0.44373 5.23(4) 658. 4.820 5.253
2741.69 0.44396 5.19(4) 663. 4.818 5.252
2743.06 0.44418 5.15(4) 668. 4.817 5.245
2744.41 0.44440 5.11(4) 673. 4.815 5.229
2745.78 0.44462 5.13(4) 671. 4.813 5.208
2747.16 0.44484 5.16(4) 668. 4.812 5.196
2748.53 0.44507 5.19(4) 663. 4.810 5.210
2749.91 0.44529 5.22(4) 661. 4.808 5.263
2751.28 0.44551 5.34(4) 646. 4.807 5.357
2752.66 0.44574 5.43(4) 634. 4.805 5.478
2754.03 0.44596 5.51(4) 625. 4.803 5.599
2755.41 0.44618 5.59(4) 616. 4.802 5.683
2756.78 0.44641 5.61(4) 616. 4.800 5.708
2758.16 0.44663 5.53(4) 624. 4.798 5.672
2759.56 0.44686 5.47(4) 632. 4.796 5.592
2760.94 0.44708 5.43(4) 637. 4.795 5.494
2762.31 0.44730 5.37(4) 644. 4.793 5.399
2763.69 0.44753 5.31(4) 651. 4.791 5.316
2765.06 0.44775 5.19(4) 668. 4.790 5.248
2766.47 0.44798 5.12(4) 676. 4.788 5.197
2767.84 0.44820 5.12(4) 678. 4.786 5.166
2769.22 0.44843 5.16(4) 671. 4.784 5.159
2770.59 0.44865 5.22(4) 663. 4.783 5.177
2772.00 0.44888 5.25(4) 661. 4.781 5.216
2773.38 0.44910 5.25(4) 661. 4.779 5.263
2774.78 0.44933 5.22(4) 666. 4.778 5.305
2776.16 0.44955 5.23(4) 663. 4.776 5.330
2777.53 0.44977 5.26(4) 661. 4.774 5.329
2778.94 0.45000 5.23(4) 663. 4.772 5.304
2780.31 0.45023 5.23(4) 666. 4.771 5.261
2781.72 0.45045 5.16(4) 673. 4.769 5.210
2783.09 0.45068 5.08(4) 686. 4.767 5.163
2784.50 0.45091 5.07(4) 686. 4.766 5.128
2785.88 0.45113 5.03(4) 693. 4.764 5.110
2787.28 0.45136 5.03(4) 691. 4.762 5.111
2788.66 0.45158 5.07(4) 688. 4.760 5.129
2790.06 0.45181 5.11(4) 683. 4.759 5.163
2791.47 0.45204 5.16(4) 676. 4.757 5.212
2792.84 0.45226 5.19(4) 671. 4.755 5.276
2794.25 0.45249 5.29(4) 659. 4.753 5.359
2795.66 0.45272 5.40(4) 647. 4.752 5.453
2797.06 0.45294 5.44(4) 641. 4.750 5.534
2798.44 0.45317 5.42(4) 644. 4.748 5.578
2799.84 0.45340 5.41(4) 644. 4.747 5.565
2801.25 0.45362 5.38(4) 649. 4.745 5.498
2802.66 0.45385 5.30(4) 659. 4.743 5.396
2804.06 0.45408 5.25(4) 666. 4.741 5.285
2805.44 0.45430 5.15(4) 681. 4.740 5.186
2806.84 0.45453 5.05(4) 693. 4.738 5.114
2808.25 0.45476 5.03(4) 696. 4.736 5.079
2809.66 0.45499 5.07(4) 691. 4.735 5.083
2811.06 0.45522 5.19(4) 676. 4.733 5.125
2812.47 0.45545 5.26(4) 666. 4.731 5.194
2813.88 0.45567 5.29(4) 663. 4.729 5.273
2815.28 0.45590 5.35(4) 656. 4.728 5.348
2816.69 0.45613 5.39(4) 651. 4.726 5.409
2818.09 0.45636 5.45(4) 644. 4.724 5.457
2819.50 0.45659 5.54(4) 633. 4.723 5.507
2820.91 0.45681 5.66(4) 619. 4.721 5.589
2822.34 0.45705 5.88(4) 596. 4.719 5.738
2823.75 0.45728 6.23(4) 562. 4.717 5.979
2825.16 0.45750 6.66(4) 526. 4.716 6.314
2826.56 0.45773 7.00(4) 500. 4.714 6.703
2827.97 0.45796 7.23(5) 483. 4.712 7.073
2829.41 0.45819 7.42(5) 471. 4.711 7.329
2830.81 0.45842 7.46(5) 470. 4.709 7.411
2832.22 0.45865 7.35(5) 475. 4.707 7.319
2833.63 0.45888 7.16(5) 489. 4.706 7.098
2835.06 0.45911 6.98(4) 503. 4.704 6.822
2836.47 0.45934 6.77(4) 518. 4.702 6.562
2837.88 0.45957 6.62(4) 531. 4.701 6.348
2839.31 0.45980 6.45(4) 546. 4.699 6.186
2840.72 0.46003 6.30(4) 559. 4.697 6.060
2842.16 0.46026 6.23(4) 566. 4.696 5.948
2843.56 0.46049 6.15(4) 572. 4.694 5.837
2845.00 0.46073 6.01(4) 588. 4.692 5.724
2846.41 0.46095 5.92(4) 596. 4.690 5.617
2847.84 0.46119 5.82(4) 607. 4.689 5.526
2849.25 0.46142 5.71(4) 619. 4.687 5.459
2850.69 0.46165 5.64(4) 627. 4.686 5.416
2852.13 0.46188 5.62(4) 631. 4.684 5.391
2853.53 0.46211 5.57(4) 636. 4.682 5.373
2854.97 0.46234 5.50(4) 645. 4.681 5.351
2856.41 0.46258 5.43(4) 654. 4.679 5.321
2857.81 0.46281 5.35(4) 664. 4.677 5.286
2859.25 0.46304 5.36(4) 661. 4.676 5.258
2860.69 0.46327 5.41(4) 656. 4.674 5.251
2862.09 0.46350 5.44(4) 652. 4.672 5.280
2863.53 0.46373 5.49(4) 647. 4.671 5.350
2864.97 0.46397 5.56(4) 638. 4.669 5.451
2866.41 0.46420 5.65(4) 629. 4.667 5.559
2867.84 0.46443 5.71(4) 623. 4.666 5.642
2869.28 0.46467 5.76(4) 616. 4.664 5.684
2870.72 0.46490 5.76(4) 616. 4.663 5.688
2872.16 0.46513 5.71(4) 622. 4.661 5.671
2873.56 0.46536 5.70(4) 623. 4.659 5.650
2875.00 0.46560 5.68(4) 625. 4.658 5.633
2876.44 0.46583 5.65(4) 629. 4.656 5.623
2877.88 0.46606 5.61(4) 635. 4.655 5.622
2879.34 0.46630 5.60(4) 636. 4.653 5.625
2880.78 0.46653 5.61(4) 636. 4.651 5.620
2882.22 0.46677 5.56(4) 643. 4.650 5.590
2883.66 0.46700 5.53(4) 645. 4.648 5.525
2885.09 0.46723 5.47(4) 652. 4.647 5.429
2886.53 0.46747 5.37(4) 666. 4.645 5.316
2887.97 0.46770 5.27(4) 678. 4.643 5.207
2889.41 0.46793 5.10(4) 703. 4.642 5.114
2890.88 0.46817 5.02(4) 714. 4.640 5.048
2892.31 0.46841 5.02(4) 714. 4.639 5.008
2893.75 0.46864 5.01(4) 716. 4.637 4.988
2895.22 0.46888 4.98(4) 719. 4.636 4.978
2896.66 0.46911 4.96(4) 722. 4.634 4.969
2898.09 0.46934 4.94(4) 726. 4.633 4.956
2899.56 0.46958 4.92(4) 730. 4.631 4.940
2901.00 0.46982 4.92(4) 730. 4.629 4.931
2902.44 0.47005 4.94(4) 726. 4.628 4.940
2903.91 0.47029 4.97(4) 725. 4.626 4.980
2905.34 0.47052 5.05(4) 713. 4.625 5.059
2906.81 0.47076 5.21(4) 691. 4.623 5.180
2908.25 0.47099 5.36(4) 671. 4.622 5.337
2909.72 0.47123 5.51(4) 652. 4.620 5.516
2911.16 0.47146 5.68(4) 633. 4.619 5.699
2912.63 0.47170 5.81(4) 618. 4.617 5.861
2914.09 0.47194 5.91(4) 608. 4.616 5.972
2915.53 0.47217 5.94(4) 605. 4.614 6.010
2917.00 0.47241 5.85(4) 614. 4.613 5.964
2918.44 0.47265 5.73(4) 628. 4.611 5.848
2919.91 0.47288 5.61(4) 641. 4.610 5.688
2921.38 0.47312 5.50(4) 655. 4.608 5.523
2922.84 0.47336 5.47(4) 659. 4.607 5.386
2924.28 0.47359 5.41(4) 666. 4.605 5.294
2925.75 0.47383 5.33(4) 678. 4.604 5.252
2927.22 0.47407 5.31(4) 681. 4.602 5.251
2928.69 0.47431 5.36(4) 673. 4.601 5.269
2930.16 0.47455 5.38(4) 671. 4.599 5.287
2931.63 0.47479 5.29(4) 683. 4.598 5.293
2933.06 0.47502 5.27(4) 685. 4.597 5.286
2934.53 0.47526 5.28(4) 685. 4.595 5.270
2936.00 0.47550 5.24(4) 690. 4.594 5.246
2937.47 0.47573 5.21(4) 695. 4.592 5.220
2938.94 0.47597 5.18(4) 700. 4.591 5.197
2940.41 0.47621 5.19(4) 698. 4.589 5.188
2941.88 0.47645 5.22(4) 695. 4.588 5.203
2943.34 0.47669 5.26(4) 690. 4.587 5.257
2944.84 0.47693 5.37(4) 676. 4.585 5.361
2946.31 0.47717 5.55(4) 652. 4.584 5.517
2947.78 0.47741 5.78(4) 626. 4.582 5.717
2949.25 0.47765 6.01(4) 603. 4.581 5.937
2950.72 0.47789 6.16(4) 587. 4.580 6.139
2952.19 0.47812 6.26(4) 578. 4.578 6.291
2953.69 0.47837 6.28(4) 576. 4.577 6.370
2955.16 0.47861 6.29(4) 576. 4.575 6.373
2956.63 0.47884 6.26(4) 580. 4.574 6.319
2958.09 0.47908 6.19(4) 585. 4.573 6.229
2959.59 0.47933 6.10(4) 595. 4.571 6.127
2961.06 0.47956 6.06(4) 599. 4.570 6.033
2962.56 0.47981 6.04(4) 601. 4.568 5.961
2964.03 0.48005 5.99(4) 607. 4.567 5.910
2965.50 0.48028 5.95(4) 611. 4.566 5.860
2967.00 0.48053 5.83(4) 624. 4.564 5.789
2968.47 0.48077 5.76(4) 633. 4.563 5.683
2969.97 0.48101 5.65(4) 646. 4.562 5.548
2971.44 0.48125 5.49(4) 664. 4.560 5.402
2972.94 0.48149 5.34(4) 683. 4.559 5.265
2974.41 0.48173 5.25(4) 695. 4.558 5.153
2975.91 0.48197 5.20(4) 702. 4.556 5.074
2977.41 0.48222 5.17(4) 705. 4.555 5.029
2978.88 0.48246 5.15(4) 710. 4.554 5.013
2980.38 0.48270 5.09(4) 720. 4.552 5.016
2981.88 0.48294 5.10(4) 718. 4.551 5.030
2983.34 0.48318 5.14(4) 712. 4.550 5.050
2984.84 0.48342 5.14(4) 712. 4.549 5.079
2986.34 0.48367 5.17(4) 707. 4.547 5.130
2987.84 0.48391 5.27(4) 695. 4.546 5.226
2989.31 0.48415 5.53(4) 662. 4.545 5.392
2990.81 0.48439 5.85(4) 625. 4.543 5.643
2992.31 0.48464 6.09(4) 601. 4.542 5.963
2993.81 0.48488 6.38(4) 572. 4.541 6.309
2995.31 0.48512 6.67(4) 548. 4.540 6.622
2996.81 0.48537 6.83(4) 534. 4.538 6.848
2998.31 0.48561 6.87(4) 531. 4.537 6.951
2999.81 0.48585 6.80(4) 537. 4.536 6.924
3001.31 0.48610 6.71(4) 546. 4.534 6.792
3002.81 0.48634 6.62(4) 553. 4.533 6.602
3004.31 0.48658 6.45(4) 569. 4.532 6.399
3005.81 0.48683 6.26(4) 585. 4.531 6.212
3007.31 0.48707 6.15(4) 597. 4.529 6.049
3008.81 0.48732 6.07(4) 605. 4.528 5.909
3010.31 0.48756 5.95(4) 617. 4.527 5.786
3011.81 0.48780 5.82(4) 632. 4.526 5.681
3013.34 0.48805 5.75(4) 640. 4.525 5.594
3014.84 0.48829 5.72(4) 644. 4.523 5.527
3016.34 0.48854 5.72(4) 644. 4.522 5.474
3017.84 0.48878 5.66(4) 651. 4.521 5.426
3019.38 0.48903 5.60(4) 657. 4.520 5.379
3020.88 0.48927 5.53(4) 667. 4.519 5.334
3022.38 0.48952 5.46(4) 676. 4.517 5.293
3023.91 0.48977 5.37(4) 688. 4.516 5.257
3025.41 0.49001 5.32(4) 695. 4.515 5.225
3026.91 0.49025 5.29(4) 699. 4.514 5.194
3028.44 0.49050 5.25(4) 705. 4.513 5.165
3029.94 0.49074 5.29(4) 699. 4.511 5.138
3031.47 0.49099 5.30(4) 697. 4.510 5.117
3032.97 0.49124 5.28(4) 699. 4.509 5.105
3034.50 0.49148 5.28(4) 702. 4.508 5.102
3036.00 0.49173 5.25(4) 704. 4.507 5.106
3037.53 0.49198 5.21(4) 710. 4.506 5.108
3039.03 0.49222 5.16(4) 719. 4.504 5.100
3040.56 0.49247 5.12(4) 724. 4.503 5.075
3042.09 0.49272 5.04(4) 736. 4.502 5.029
3043.59 0.49296 4.97(4) 745. 4.501 4.967
3045.13 0.49321 4.93(4) 753. 4.500 4.895
3046.66 0.49346 4.82(4) 772. 4.499 4.826
3048.19 0.49371 4.71(4) 789. 4.498 4.767
3049.69 0.49395 4.66(4) 798. 4.496 4.723
3051.22 0.49420 4.69(4) 795. 4.495 4.698
3052.75 0.49445 4.69(4) 792. 4.494 4.693
3054.28 0.49470 4.66(4) 801. 4.493 4.706
3055.81 0.49494 4.66(4) 801. 4.492 4.731
3057.34 0.49519 4.70(4) 792. 4.491 4.757
3058.84 0.49544 4.72(4) 789. 4.490 4.775
3060.38 0.49568 4.68(4) 798. 4.489 4.781
3061.91 0.49593 4.70(4) 792. 4.488 4.776
3063.44 0.49618 4.72(4) 789. 4.486 4.771
3064.97 0.49643 4.74(4) 787. 4.485 4.778
3066.50 0.49668 4.76(4) 784. 4.484 4.807
3068.03 0.49693 4.83(4) 773. 4.483 4.864
3069.59 0.49718 4.87(4) 767. 4.482 4.945
3071.13 0.49743 4.93(4) 758. 4.481 5.037
3072.66 0.49768 5.02(4) 745. 4.480 5.129
3074.19 0.49793 5.10(4) 732. 4.479 5.209
3075.72 0.49818 5.19(4) 719. 4.478 5.270
3077.25 0.49842 5.23(4) 713. 4.477 5.312
3078.81 0.49868 5.27(4) 709. 4.476 5.340
3080.34 0.49893 5.29(4) 707. 4.475 5.370
3081.88 0.49917 5.38(4) 695. 4.474 5.427
3083.41 0.49942 5.59(4) 667. 4.472 5.538
3084.97 0.49968 5.84(4) 638. 4.471 5.722
3086.50 0.49993 6.05(4) 617. 4.470 5.973
3088.06 0.50018 6.28(4) 593. 4.469 6.255
3089.59 0.50043 6.52(4) 571. 4.468 6.513
3091.13 0.50068 6.69(4) 557. 4.467 6.711
3092.69 0.50093 6.76(4) 552. 4.466 6.836
3094.22 0.50118 6.85(4) 544. 4.465 6.904
3095.78 0.50143 6.88(4) 542. 4.464 6.927
3097.31 0.50168 6.85(4) 544. 4.463 6.907
3098.88 0.50193 6.81(4) 547. 4.462 6.836
3100.44 0.50219 6.69(4) 557. 4.461 6.706
3101.97 0.50244 6.51(4) 573. 4.460 6.519
3103.53 0.50269 6.31(4) 593. 4.459 6.289
3105.06 0.50294 6.10(4) 613. 4.458 6.038
3106.63 0.50319 5.92(4) 631. 4.457 5.787
3108.19 0.50345 5.78(4) 650. 4.456 5.561
3109.75 0.50370 5.61(4) 669. 4.455 5.380
3111.28 0.50395 5.50(4) 683. 4.454 5.251
3112.84 0.50420 5.42(4) 694. 4.453 5.174
3114.41 0.50446 5.36(4) 701. 4.452 5.151
3115.97 0.50471 5.37(4) 699. 4.451 5.171
3117.53 0.50496 5.43(4) 692. 4.450 5.223
3119.06 0.50521 5.47(4) 687. 4.449 5.289
3120.63 0.50546 5.48(4) 687. 4.448 5.352
3122.19 0.50572 5.48(4) 685. 4.447 5.395
3123.75 0.50597 5.46(4) 690. 4.446 5.408
3125.31 0.50623 5.36(4) 701. 4.445 5.390
3126.88 0.50648 5.34(4) 706. 4.444 5.347
3128.44 0.50673 5.31(4) 709. 4.443 5.289
3130.00 0.50699 5.21(4) 723. 4.442 5.223
3131.56 0.50724 5.14(4) 733. 4.441 5.154
3133.13 0.50749 5.09(4) 742. 4.440 5.082
3134.72 0.50775 5.03(4) 751. 4.439 5.008
3136.28 0.50801 4.98(4) 759. 4.438 4.934
3137.84 0.50826 4.87(4) 776. 4.437 4.860
3139.41 0.50851 4.80(4) 790. 4.436 4.790
3140.97 0.50877 4.75(4) 796. 4.435 4.725
3142.56 0.50903 4.68(4) 810. 4.435 4.668
3144.13 0.50928 4.620(35) 819. 4.4336 4.6214
3145.69 0.50953 4.598(35) 825. 4.4326 4.5825
3147.28 0.50979 4.541(35) 834. 4.4317 4.5515
3148.84 0.51004 4.481(34) 847. 4.4307 4.5271
3150.41 0.51030 4.473(34) 849. 4.4298 4.5081
3152.00 0.51056 4.468(34) 850. 4.4289 4.4934
3153.56 0.51081 4.439(34) 855. 4.4279 4.4822
3155.16 0.51107 4.450(34) 853. 4.4270 4.4740
3156.72 0.51132 4.426(34) 858. 4.4260 4.4687
3158.31 0.51158 4.384(34) 866. 4.4251 4.4671
3159.88 0.51184 4.386(34) 865. 4.4242 4.4700
3161.47 0.51209 4.415(34) 859. 4.4233 4.4794
3163.03 0.51235 4.431(34) 858. 4.4223 4.4972
3164.63 0.51261 4.459(34) 852. 4.4214 4.5264
3166.22 0.51287 4.513(34) 843. 4.4205 4.5654
3167.78 0.51312 4.522(35) 840. 4.4196 4.6132
3169.38 0.51338 4.571(35) 831. 4.4186 4.6666
3170.97 0.51364 4.590(35) 828. 4.4177 4.7200
3172.53 0.51389 4.619(35) 825. 4.4168 4.7666
3174.13 0.51415 4.628(35) 822. 4.4159 4.8025
3175.72 0.51441 4.659(35) 816. 4.4150 4.8274
3177.31 0.51467 4.70(4) 810. 4.414 4.845
3178.88 0.51492 4.74(4) 804. 4.413 4.859
3180.47 0.51518 4.73(4) 804. 4.412 4.871
3182.06 0.51544 4.75(4) 801. 4.411 4.877
3183.66 0.51570 4.72(4) 807. 4.410 4.880
3185.25 0.51595 4.74(4) 804. 4.410 4.890
3186.84 0.51621 4.76(4) 801. 4.409 4.919
3188.44 0.51647 4.87(4) 782. 4.408 4.976
3190.03 0.51673 4.96(4) 768. 4.407 5.056
3191.63 0.51699 5.03(4) 758. 4.406 5.138
3193.22 0.51725 5.05(4) 755. 4.405 5.195
3194.81 0.51751 5.02(4) 758. 4.404 5.205
3196.41 0.51777 4.97(4) 769. 4.403 5.164
3198.03 0.51803 4.90(4) 779. 4.402 5.084
3199.63 0.51829 4.84(4) 787. 4.401 4.988
3201.22 0.51855 4.76(4) 801. 4.401 4.894
3202.81 0.51881 4.71(4) 810. 4.400 4.816
3204.41 0.51906 4.653(35) 821. 4.3987 4.7582
3206.03 0.51933 4.639(35) 825. 4.3978 4.7214
3207.63 0.51959 4.617(35) 828. 4.3969 4.6994
3209.22 0.51984 4.563(35) 839. 4.3960 4.6834
3210.84 0.52011 4.526(34) 846. 4.3952 4.6664
3212.44 0.52037 4.529(34) 846. 4.3943 4.6458
3214.03 0.52063 4.525(34) 845. 4.3934 4.6231
3215.66 0.52089 4.487(34) 852. 4.3925 4.6041
3217.25 0.52115 4.485(34) 854. 4.3916 4.5954
3218.88 0.52141 4.542(34) 843. 4.3907 4.6051
3220.47 0.52167 4.600(35) 833. 4.3898 4.6418
3222.09 0.52193 4.672(35) 819. 4.3889 4.7135
3223.69 0.52219 4.80(4) 799. 4.388 4.824
3225.31 0.52246 4.97(4) 768. 4.387 4.971
3226.91 0.52272 5.15(4) 743. 4.386 5.138
3228.53 0.52298 5.27(4) 724. 4.385 5.301
3230.16 0.52324 5.32(4) 717. 4.385 5.428
3231.75 0.52350 5.39(4) 710. 4.384 5.498
3233.38 0.52377 5.39(4) 710. 4.383 5.506
3235.00 0.52403 5.37(4) 712. 4.382 5.459
3236.63 0.52429 5.31(4) 720. 4.381 5.376
3238.22 0.52455 5.19(4) 738. 4.380 5.277
3239.84 0.52482 5.13(4) 746. 4.379 5.186
3241.47 0.52508 5.10(4) 751. 4.378 5.128
3243.09 0.52534 5.15(4) 746. 4.377 5.129
3244.72 0.52561 5.26(4) 729. 4.377 5.219
3246.34 0.52587 5.50(4) 696. 4.376 5.416
3247.97 0.52613 5.80(4) 659. 4.375 5.725
3249.59 0.52640 6.13(4) 623. 4.374 6.121
3251.22 0.52666 6.54(4) 583. 4.373 6.554
3252.84 0.52693 6.90(4) 553. 4.372 6.968
3254.47 0.52719 7.19(4) 530. 4.371 7.321
3256.09 0.52745 7.42(4) 512. 4.370 7.589
3257.72 0.52772 7.62(4) 500. 4.370 7.777
3259.34 0.52798 7.75(5) 490. 4.369 7.891
3260.97 0.52824 7.78(5) 489. 4.368 7.918
3262.59 0.52851 7.66(4) 497. 4.367 7.826
3264.25 0.52878 7.50(4) 508. 4.366 7.599
3265.88 0.52904 7.19(4) 531. 4.365 7.261
3267.50 0.52931 6.82(4) 561. 4.364 6.856
3269.13 0.52957 6.48(4) 590. 4.363 6.435
3270.78 0.52984 6.20(4) 617. 4.363 6.044
3272.41 0.53010 5.90(4) 651. 4.362 5.709
3274.03 0.53037 5.64(4) 680. 4.361 5.433
3275.69 0.53063 5.46(4) 703. 4.360 5.217
3277.31 0.53090 5.35(4) 718. 4.359 5.057
3278.97 0.53117 5.20(4) 741. 4.358 4.949
3280.59 0.53143 5.14(4) 748. 4.357 4.891
3282.22 0.53169 5.13(4) 749. 4.356 4.879
3283.88 0.53196 5.13(4) 749. 4.355 4.904
3285.53 0.53223 5.14(4) 748. 4.355 4.950
3287.16 0.53250 5.14(4) 749. 4.354 4.994
3288.81 0.53276 5.11(4) 753. 4.353 5.020
3290.44 0.53303 5.06(4) 762. 4.352 5.017
3292.09 0.53330 4.99(4) 772. 4.351 4.990
3293.75 0.53357 4.96(4) 777. 4.350 4.950
3295.38 0.53383 4.95(4) 780. 4.349 4.910
3297.03 0.53410 4.90(4) 788. 4.348 4.883
3298.69 0.53437 4.92(4) 785. 4.348 4.882
3300.34 0.53464 4.94(4) 780. 4.347 4.923
3301.97 0.53490 5.04(4) 765. 4.346 5.030
3303.63 0.53517 5.30(4) 728. 4.345 5.237
3305.28 0.53544 5.70(4) 676. 4.344 5.566
3306.94 0.53571 6.12(4) 628. 4.343 6.015
3308.59 0.53598 6.54(4) 586. 4.342 6.525
3310.25 0.53624 6.95(4) 552. 4.341 6.996
3311.91 0.53651 7.16(4) 535. 4.340 7.323
3313.56 0.53678 7.19(4) 534. 4.339 7.449
3315.22 0.53705 7.13(4) 538. 4.339 7.388
3316.88 0.53732 7.01(4) 547. 4.338 7.203
3318.53 0.53759 6.86(4) 560. 4.337 6.967
3320.19 0.53786 6.69(4) 575. 4.336 6.733
3321.84 0.53813 6.55(4) 588. 4.335 6.525
3323.50 0.53840 6.40(4) 600. 4.334 6.345
3325.16 0.53866 6.21(4) 619. 4.333 6.178
3326.84 0.53894 6.03(4) 639. 4.332 6.010
3328.50 0.53921 5.88(4) 655. 4.331 5.833
3330.16 0.53948 5.67(4) 680. 4.330 5.646
3331.81 0.53974 5.47(4) 706. 4.330 5.459
3333.50 0.54002 5.38(4) 718. 4.329 5.290
3335.16 0.54029 5.28(4) 732. 4.328 5.153
3336.81 0.54056 5.19(4) 746. 4.327 5.057
3338.50 0.54083 5.11(4) 757. 4.326 5.012
3340.16 0.54110 5.08(4) 763. 4.325 5.022
3341.84 0.54137 5.11(4) 757. 4.324 5.084
3343.50 0.54164 5.18(4) 746. 4.323 5.191
3345.19 0.54192 5.32(4) 728. 4.322 5.326
3346.84 0.54218 5.43(4) 713. 4.321 5.466
3348.53 0.54246 5.51(4) 702. 4.320 5.593
3350.19 0.54273 5.60(4) 691. 4.319 5.692
3351.88 0.54300 5.66(4) 682. 4.319 5.761
3353.56 0.54327 5.68(4) 680. 4.318 5.794
3355.22 0.54354 5.67(4) 682. 4.317 5.790
3356.91 0.54382 5.60(4) 691. 4.316 5.741
3358.59 0.54409 5.51(4) 702. 4.315 5.654
3360.25 0.54436 5.45(4) 711. 4.314 5.536
3361.94 0.54463 5.35(4) 724. 4.313 5.409
3363.63 0.54491 5.24(4) 738. 4.312 5.299
3365.31 0.54518 5.22(4) 743. 4.311 5.232
3367.00 0.54546 5.27(4) 735. 4.310 5.228
3368.66 0.54572 5.30(4) 731. 4.309 5.290
3370.34 0.54600 5.40(4) 717. 4.308 5.412
3372.03 0.54627 5.56(4) 697. 4.307 5.572
3373.72 0.54655 5.73(4) 676. 4.306 5.749
3375.41 0.54682 5.87(4) 660. 4.305 5.924
3377.09 0.54709 5.94(4) 652. 4.304 6.083
3378.78 0.54737 6.07(4) 638. 4.304 6.217
3380.47 0.54764 6.19(4) 625. 4.303 6.325
3382.16 0.54792 6.30(4) 614. 4.302 6.412
3383.84 0.54819 6.36(4) 608. 4.301 6.471
3385.56 0.54847 6.37(4) 607. 4.300 6.478
3387.25 0.54874 6.31(4) 612. 4.299 6.409
3388.94 0.54902 6.15(4) 631. 4.298 6.259
3390.63 0.54929 5.96(4) 650. 4.297 6.044
3392.31 0.54956 5.75(4) 674. 4.296 5.795
3394.03 0.54984 5.51(4) 704. 4.295 5.547
3395.72 0.55012 5.31(4) 731. 4.294 5.326
3397.41 0.55039 5.17(4) 751. 4.293 5.141
3399.13 0.55067 5.09(4) 765. 4.292 4.999
3400.81 0.55094 4.96(4) 786. 4.291 4.901
3402.50 0.55122 4.90(4) 794. 4.290 4.841
3404.22 0.55150 4.90(4) 794. 4.289 4.822
3405.91 0.55177 4.90(4) 794. 4.288 4.844
3407.63 0.55205 4.96(4) 783. 4.287 4.913
3409.31 0.55232 5.09(4) 764. 4.286 5.029
3411.03 0.55260 5.20(4) 747. 4.285 5.184
3412.75 0.55288 5.36(4) 724. 4.284 5.349
3414.44 0.55316 5.46(4) 712. 4.283 5.490
3416.16 0.55344 5.50(4) 706. 4.282 5.579
3417.84 0.55371 5.53(4) 701. 4.281 5.608
3419.56 0.55399 5.53(4) 701. 4.280 5.594
3421.28 0.55427 5.53(4) 704. 4.279 5.555
3423.00 0.55455 5.46(4) 711. 4.278 5.507
3424.69 0.55482 5.40(4) 721. 4.277 5.456
3426.41 0.55510 5.41(4) 719. 4.276 5.407
3428.13 0.55538 5.36(4) 726. 4.275 5.367
3429.84 0.55566 5.38(4) 723. 4.274 5.353
3431.56 0.55594 5.42(4) 717. 4.273 5.386
3433.28 0.55621 5.56(4) 699. 4.272 5.491
3435.00 0.55649 5.74(4) 676. 4.271 5.680
3436.69 0.55677 5.98(4) 648. 4.270 5.950
3438.41 0.55705 6.30(4) 615. 4.269 6.279
3440.13 0.55733 6.64(4) 583. 4.268 6.633
3441.88 0.55761 6.91(4) 560. 4.267 6.966
3443.59 0.55789 7.08(4) 545. 4.266 7.237
3445.31 0.55817 7.18(4) 538. 4.265 7.409
3447.03 0.55845 7.19(4) 538. 4.264 7.452
3448.75 0.55873 7.09(4) 545. 4.263 7.359
3450.47 0.55900 6.96(4) 556. 4.262 7.147
3452.19 0.55928 6.75(4) 573. 4.261 6.852
3453.94 0.55957 6.48(4) 599. 4.259 6.525
3455.66 0.55985 6.21(4) 626. 4.258 6.209
3457.38 0.56013 5.91(4) 658. 4.257 5.923
3459.09 0.56040 5.68(4) 684. 4.256 5.670
3460.84 0.56069 5.51(4) 706. 4.255 5.451
3462.56 0.56097 5.36(4) 727. 4.254 5.263
3464.31 0.56125 5.19(4) 751. 4.253 5.106
3466.03 0.56153 5.06(4) 771. 4.252 4.987
3467.75 0.56181 4.98(4) 784. 4.251 4.910
3469.50 0.56209 4.92(4) 794. 4.250 4.877
3471.22 0.56237 4.90(4) 797. 4.249 4.886
3472.97 0.56266 4.96(4) 787. 4.248 4.924
3474.72 0.56294 5.03(4) 776. 4.247 4.969
3476.44 0.56322 5.06(4) 772. 4.246 5.007
3478.19 0.56350 5.11(4) 764. 4.244 5.037
3479.91 0.56378 5.14(4) 760. 4.243 5.067
3481.66 0.56407 5.19(4) 752. 4.242 5.110
3483.41 0.56435 5.25(4) 743. 4.241 5.172
3485.16 0.56464 5.31(4) 735. 4.240 5.243
3486.88 0.56491 5.31(4) 734. 4.239 5.307
3488.63 0.56520 5.30(4) 736. 4.238 5.348
3490.38 0.56548 5.26(4) 741. 4.237 5.357
3492.13 0.56577 5.25(4) 743. 4.236 5.339
3493.88 0.56605 5.20(4) 750. 4.235 5.302
3495.63 0.56633 5.20(4) 751. 4.233 5.253
3497.34 0.56661 5.17(4) 755. 4.232 5.195
3499.09 0.56690 5.06(4) 772. 4.231 5.125
3500.84 0.56718 5.00(4) 781. 4.230 5.047
3502.59 0.56747 4.91(4) 794. 4.229 4.965
3504.34 0.56775 4.89(4) 799. 4.228 4.889
3506.13 0.56804 4.88(4) 802. 4.227 4.837
3507.9 0.56832 4.85(4) 807. 4.226 4.827
3509.6 0.56861 4.91(4) 797. 4.224 4.876
3511.4 0.56889 5.02(4) 779. 4.223 4.989
3513.1 0.56918 5.14(4) 760. 4.222 5.149
3514.9 0.56946 5.24(4) 744. 4.221 5.319
3516.7 0.56975 5.32(4) 734. 4.220 5.446
3518.4 0.57003 5.29(4) 738. 4.219 5.492
3520.2 0.57032 5.26(4) 743. 4.218 5.452
3521.9 0.57060 5.17(4) 756. 4.216 5.342
3523.7 0.57089 5.04(4) 774. 4.215 5.193
3525.4 0.57117 4.90(4) 797. 4.214 5.035
3527.2 0.57146 4.787(35) 818. 4.2129 4.8882
3529.0 0.57175 4.690(35) 834. 4.2117 4.7618
3530.7 0.57203 4.591(34) 853. 4.2106 4.6559
3532.5 0.57232 4.461(34) 877. 4.2094 4.5700
3534.3 0.57260 4.389(33) 893. 4.2082 4.5009
3536.0 0.57289 4.359(33) 899. 4.2070 4.4445
3537.8 0.57318 4.284(33) 914. 4.2058 4.4006
3539.6 0.57347 4.244(33) 924. 4.2046 4.3654
3541.3 0.57376 4.266(33) 918. 4.2034 4.3377
3543.1 0.57404 4.216(33) 930. 4.2023 4.3178
3544.9 0.57433 4.171(33) 940. 4.2011 4.3056
3546.7 0.57462 4.171(33) 940. 4.1999 4.3024
3548.4 0.57491 4.180(33) 936. 4.1987 4.3123
3550.2 0.57519 4.250(33) 921. 4.1975 4.3390
3552.0 0.57548 4.304(33) 911. 4.1962 4.3839
3553.8 0.57577 4.329(33) 905. 4.1950 4.4440
3555.5 0.57606 4.402(34) 890. 4.1938 4.5103
3557.3 0.57635 4.465(34) 876. 4.1926 4.5700
3559.1 0.57664 4.469(34) 876. 4.1914 4.6130
3560.9 0.57693 4.489(34) 873. 4.1902 4.6357
3562.7 0.57722 4.495(34) 870. 4.1889 4.6401
3564.4 0.57750 4.454(34) 878. 4.1877 4.6302
3566.2 0.57779 4.466(34) 876. 4.1865 4.6091
3568.0 0.57808 4.462(34) 878. 4.1852 4.5812
3569.8 0.57837 4.430(34) 884. 4.1840 4.5524
3571.6 0.57866 4.408(34) 887. 4.1828 4.5308
3573.3 0.57895 4.411(34) 887. 4.1815 4.5286
3575.1 0.57924 4.436(34) 881. 4.1803 4.5660
3576.9 0.57953 4.550(34) 860. 4.1790 4.6710
3578.7 0.57982 4.83(4) 810. 4.178 4.871
3580.5 0.58011 5.20(4) 751. 4.177 5.186
3582.3 0.58040 5.61(4) 694. 4.175 5.613
3584.1 0.58070 6.07(4) 642. 4.174 6.101
3585.9 0.58098 6.47(4) 600. 4.173 6.561
3587.7 0.58127 6.72(4) 578. 4.171 6.911
3589.5 0.58157 6.88(4) 564. 4.170 7.083
3591.3 0.58186 6.90(4) 561. 4.169 7.073
3593.1 0.58215 6.83(4) 569. 4.168 6.930
3594.8 0.58244 6.63(4) 586. 4.166 6.726
3596.7 0.58273 6.46(4) 600. 4.165 6.527
3598.4 0.58302 6.36(4) 610. 4.164 6.369
3600.3 0.58332 6.28(4) 619. 4.163 6.244
3602.0 0.58361 6.22(4) 625. 4.161 6.122
3603.8 0.58390 6.07(4) 641. 4.160 5.972
3605.7 0.58420 5.85(4) 664. 4.159 5.789
3607.4 0.58448 5.64(4) 690. 4.157 5.581
3609.3 0.58478 5.42(4) 719. 4.156 5.367
3611.1 0.58507 5.26(4) 741. 4.155 5.169
3612.9 0.58537 5.09(4) 767. 4.153 5.000
3614.7 0.58566 4.95(4) 790. 4.152 4.868
3616.5 0.58595 4.87(4) 802. 4.151 4.778
3618.3 0.58624 4.777(35) 817. 4.1495 4.7320
3620.1 0.58654 4.789(35) 815. 4.1482 4.7286
3621.9 0.58683 4.90(4) 797. 4.147 4.760
3623.7 0.58713 4.94(4) 790. 4.146 4.812
3625.5 0.58742 4.99(4) 782. 4.144 4.876
3627.3 0.58772 5.04(4) 775. 4.143 4.948
3629.2 0.58801 5.13(4) 761. 4.142 5.034
3631.0 0.58830 5.25(4) 743. 4.140 5.144
3632.8 0.58860 5.36(4) 727. 4.139 5.276
3634.6 0.58889 5.49(4) 710. 4.138 5.417
3636.4 0.58919 5.54(4) 702. 4.136 5.547
3638.2 0.58948 5.62(4) 694. 4.135 5.641
3640.1 0.58978 5.63(4) 690. 4.133 5.682
3641.9 0.59007 5.56(4) 700. 4.132 5.662
3643.7 0.59037 5.47(4) 713. 4.131 5.590
3645.5 0.59066 5.35(4) 727. 4.129 5.483
3647.3 0.59096 5.26(4) 741. 4.128 5.364
3649.2 0.59126 5.17(4) 753. 4.127 5.248
3651.0 0.59156 5.09(4) 766. 4.125 5.146
3652.8 0.59185 5.02(4) 775. 4.124 5.065
3654.6 0.59214 5.01(4) 778. 4.123 5.014
3656.5 0.59244 5.05(4) 773. 4.121 5.013
3658.3 0.59274 5.17(4) 753. 4.120 5.096
3660.1 0.59304 5.39(4) 721. 4.118 5.295
3661.9 0.59333 5.71(4) 680. 4.117 5.624
3663.8 0.59363 6.16(4) 629. 4.116 6.059
3665.6 0.59393 6.57(4) 589. 4.114 6.507
3667.4 0.59422 6.83(4) 567. 4.113 6.861
3669.3 0.59452 6.90(4) 560. 4.112 7.041
3671.1 0.59482 6.86(4) 564. 4.110 7.035
3672.9 0.59512 6.79(4) 569. 4.109 6.907
3674.8 0.59542 6.72(4) 575. 4.107 6.752
3676.6 0.59572 6.66(4) 581. 4.106 6.660
3678.5 0.59601 6.72(4) 576. 4.105 6.676
3680.3 0.59631 6.84(4) 565. 4.103 6.783
3682.2 0.59661 6.92(4) 559. 4.102 6.908
3684.0 0.59691 6.95(4) 556. 4.100 6.964
3685.8 0.59721 6.86(4) 563. 4.099 6.896
3687.7 0.59751 6.60(4) 585. 4.098 6.700
3689.5 0.59781 6.32(4) 612. 4.096 6.411
3691.3 0.59810 6.10(4) 635. 4.095 6.082
3693.2 0.59841 5.83(4) 665. 4.093 5.758
3695.1 0.59871 5.58(4) 696. 4.092 5.469
3696.9 0.59901 5.36(4) 724. 4.090 5.223
3698.8 0.59931 5.18(4) 751. 4.089 5.021
3700.6 0.59961 5.00(4) 778. 4.088 4.862
3702.4 0.59991 4.85(4) 802. 4.086 4.742
3704.3 0.60021 4.749(35) 820. 4.0846 4.6620
3706.2 0.60051 4.702(35) 827. 4.0832 4.6212
3708.0 0.60081 4.701(35) 827. 4.0817 4.6204
3709.8 0.60111 4.730(35) 822. 4.0803 4.6595
3711.7 0.60141 4.83(4) 805. 4.079 4.739
3713.6 0.60171 4.95(4) 786. 4.077 4.860
3715.4 0.60202 5.10(4) 762. 4.076 5.020
3717.3 0.60231 5.30(4) 732. 4.074 5.212
3719.2 0.60262 5.44(4) 712. 4.073 5.415
3721.0 0.60292 5.57(4) 695. 4.072 5.601
3722.9 0.60322 5.75(4) 672. 4.070 5.744
3724.7 0.60352 5.83(4) 663. 4.069 5.831
3726.6 0.60383 5.84(4) 661. 4.067 5.863
3728.4 0.60413 5.82(4) 665. 4.066 5.845
3730.3 0.60443 5.77(4) 671. 4.064 5.785
3732.2 0.60473 5.68(4) 680. 4.063 5.692
3734.0 0.60503 5.58(4) 693. 4.061 5.575
3735.9 0.60534 5.49(4) 705. 4.060 5.441
3737.8 0.60564 5.34(4) 726. 4.058 5.301
3739.7 0.60595 5.23(4) 741. 4.057 5.167
3741.5 0.60625 5.16(4) 751. 4.055 5.053
3743.4 0.60655 5.06(4) 765. 4.054 4.973
3745.3 0.60685 5.04(4) 769. 4.052 4.942
3747.1 0.60716 5.11(4) 758. 4.051 4.969
3749.0 0.60746 5.23(4) 741. 4.049 5.061
3750.9 0.60777 5.36(4) 722. 4.048 5.215
3752.8 0.60807 5.57(4) 693. 4.046 5.425
3754.6 0.60838 5.83(4) 662. 4.045 5.690
3756.5 0.60868 6.05(4) 637. 4.043 6.002
3758.4 0.60899 6.32(4) 608. 4.042 6.336
3760.3 0.60929 6.63(4) 579. 4.040 6.638
3762.2 0.60960 6.81(4) 565. 4.039 6.852
3764.0 0.60990 6.84(4) 562. 4.037 6.935
3765.9 0.61021 6.76(4) 569. 4.036 6.873
3767.8 0.61051 6.52(4) 590. 4.034 6.680
3769.7 0.61082 6.28(4) 613. 4.033 6.395
3771.6 0.61113 6.04(4) 637. 4.031 6.076
3773.4 0.61143 5.79(4) 665. 4.030 5.755
3775.3 0.61174 5.54(4) 695. 4.028 5.462
3777.2 0.61204 5.28(4) 731. 4.027 5.209
3779.1 0.61235 5.12(4) 754. 4.025 4.999
3781.0 0.61266 4.95(4) 781. 4.024 4.828
3782.9 0.61296 4.77(4) 809. 4.022 4.692
3784.8 0.61327 4.660(35) 829. 4.0207 4.5885
3786.7 0.61358 4.573(34) 845. 4.0192 4.5233
3788.6 0.61389 4.570(34) 844. 4.0176 4.5026
3790.5 0.61419 4.624(35) 835. 4.0161 4.5368
3792.3 0.61450 4.716(35) 819. 4.0146 4.6332
3794.3 0.61481 4.88(4) 788. 4.013 4.789
3796.2 0.61512 5.08(4) 757. 4.011 4.982
3798.1 0.61543 5.21(4) 738. 4.010 5.173
3799.9 0.61573 5.31(4) 725. 4.008 5.329
3801.8 0.61604 5.38(4) 715. 4.007 5.427
3803.8 0.61635 5.38(4) 715. 4.005 5.460
3805.7 0.61666 5.35(4) 719. 4.004 5.439
3807.6 0.61697 5.26(4) 731. 4.002 5.381
3809.5 0.61728 5.21(4) 737. 4.001 5.308
3811.4 0.61759 5.18(4) 742. 3.999 5.240
3813.3 0.61790 5.14(4) 748. 3.998 5.190
3815.2 0.61821 5.13(4) 748. 3.996 5.159
3817.1 0.61852 5.11(4) 752. 3.994 5.137
3819.0 0.61883 5.12(4) 750. 3.993 5.105
3820.9 0.61914 5.06(4) 759. 3.991 5.050
3822.8 0.61944 4.99(4) 770. 3.990 4.969
3824.7 0.61975 4.93(4) 779. 3.988 4.869
3826.6 0.62006 4.84(4) 793. 3.987 4.765
3828.5 0.62037 4.697(35) 817. 3.9851 4.6696
3830.5 0.62069 4.634(35) 829. 3.9836 4.6034
3832.4 0.62100 4.634(35) 829. 3.9820 4.5907
3834.3 0.62131 4.713(35) 814. 3.9804 4.6658
3836.2 0.62162 4.97(4) 770. 3.979 4.870
3838.1 0.62193 5.34(4) 716. 3.977 5.236
3840.1 0.62225 5.87(4) 651. 3.976 5.758
3842.0 0.62255 6.44(4) 591. 3.974 6.368
3843.9 0.62286 6.92(4) 549. 3.973 6.957
3845.8 0.62318 7.25(4) 524. 3.971 7.386
3847.7 0.62349 7.38(4) 514. 3.969 7.570
3849.7 0.62380 7.32(4) 518. 3.968 7.509
3851.6 0.62412 7.13(4) 533. 3.966 7.282
3853.5 0.62443 6.92(4) 549. 3.965 7.003
3855.4 0.62474 6.78(4) 560. 3.963 6.785
3857.4 0.62506 6.75(4) 562. 3.962 6.708
3859.3 0.62536 6.88(4) 552. 3.960 6.799
3861.2 0.62568 7.11(4) 533. 3.958 7.025
3863.2 0.62599 7.35(4) 515. 3.957 7.287
3865.1 0.62631 7.49(4) 505. 3.955 7.460
3867.0 0.62662 7.44(4) 509. 3.954 7.466
3868.9 0.62693 7.22(4) 524. 3.952 7.288
3870.9 0.62725 7.01(4) 540. 3.951 6.970
3872.8 0.62756 6.67(4) 568. 3.949 6.579
3874.8 0.62788 6.32(4) 600. 3.947 6.177
3876.7 0.62819 5.96(4) 636. 3.946 5.806
3878.6 0.62850 5.68(4) 669. 3.944 5.482
3880.6 0.62882 5.44(4) 699. 3.943 5.211
3882.5 0.62913 5.17(4) 736. 3.941 4.987
3884.4 0.62945 4.95(4) 769. 3.939 4.803
3886.4 0.62977 4.85(4) 784. 3.938 4.654
3888.3 0.63008 4.70(4) 809. 3.936 4.535
3890.3 0.63040 4.575(35) 831. 3.9346 4.4413
3892.2 0.63071 4.515(34) 844. 3.9331 4.3718
3894.2 0.63103 4.483(34) 848. 3.9315 4.3299
3896.1 0.63135 4.438(34) 857. 3.9299 4.3261
3898.1 0.63166 4.475(34) 849. 3.9283 4.3753
3900.0 0.63197 4.596(35) 826. 3.9267 4.4947
3902.0 0.63229 4.78(4) 793. 3.925 4.692
3903.9 0.63261 5.04(4) 754. 3.924 4.954
3905.9 0.63293 5.29(4) 716. 3.922 5.245
3907.8 0.63324 5.52(4) 685. 3.920 5.509
3909.8 0.63356 5.65(4) 669. 3.919 5.701
3911.7 0.63388 5.72(4) 661. 3.917 5.806
3913.7 0.63420 5.77(4) 654. 3.916 5.832
3915.7 0.63452 5.74(4) 659. 3.914 5.803
3917.6 0.63483 5.69(4) 664. 3.912 5.737
3919.6 0.63515 5.63(4) 671. 3.911 5.646
3921.5 0.63547 5.53(4) 682. 3.909 5.535
3923.5 0.63578 5.43(4) 696. 3.908 5.408
3925.4 0.63610 5.30(4) 712. 3.906 5.266
3927.4 0.63642 5.17(4) 729. 3.904 5.124
3929.4 0.63674 5.04(4) 750. 3.903 5.001
3931.3 0.63706 4.98(4) 758. 3.901 4.930
3933.3 0.63738 5.04(4) 749. 3.900 4.957
3935.3 0.63770 5.19(4) 727. 3.898 5.139
3937.2 0.63802 5.62(4) 669. 3.896 5.532
3939.2 0.63834 6.24(4) 603. 3.895 6.153
3941.2 0.63866 7.05(4) 530. 3.893 6.949
3943.1 0.63897 7.88(5) 474. 3.892 7.790
3945.1 0.63930 8.49(5) 439. 3.890 8.481
3947.1 0.63962 8.80(5) 422. 3.888 8.875
3949.1 0.63994 8.81(5) 421. 3.887 8.938
3951.0 0.64026 8.59(5) 432. 3.885 8.724
3953.0 0.64058 8.30(5) 448. 3.884 8.345
3955.0 0.64090 7.92(5) 470. 3.882 7.919
3957.0 0.64122 7.56(5) 493. 3.880 7.522
3958.9 0.64154 7.26(4) 513. 3.879 7.177
3960.9 0.64186 6.99(4) 533. 3.877 6.878
3962.9 0.64219 6.73(4) 555. 3.876 6.611
3964.9 0.64251 6.47(4) 576. 3.874 6.356
3966.9 0.64283 6.23(4) 600. 3.872 6.099
3968.8 0.64315 5.98(4) 625. 3.871 5.837
3970.8 0.64347 5.73(4) 652. 3.869 5.575
3972.8 0.64379 5.46(4) 685. 3.868 5.324
3974.8 0.64412 5.27(4) 712. 3.866 5.095
3976.8 0.64444 5.09(4) 734. 3.864 4.893
3978.8 0.64476 4.93(4) 761. 3.863 4.716
3980.8 0.64509 4.80(4) 782. 3.861 4.576
3982.8 0.64541 4.67(4) 803. 3.860 4.467
3984.8 0.64573 4.600(35) 814. 3.8581 4.3891
3986.8 0.64606 4.552(35) 823. 3.8565 4.3482
3988.8 0.64638 4.521(35) 828. 3.8549 4.3478
3990.7 0.64670 4.550(35) 823. 3.8533 4.3870
3992.7 0.64703 4.597(35) 814. 3.8518 4.4567
3994.7 0.64735 4.63(4) 807. 3.850 4.537
3996.7 0.64767 4.67(4) 800. 3.849 4.606
3998.7 0.64800 4.72(4) 791. 3.847 4.652
4000.7 0.64832 4.74(4) 789. 3.845 4.683
4002.7 0.64865 4.76(4) 785. 3.844 4.722
4004.7 0.64897 4.82(4) 774. 3.842 4.790
4006.7 0.64930 4.88(4) 763. 3.841 4.894
4008.7 0.64962 5.03(4) 740. 3.839 5.019
4010.7 0.64995 5.17(4) 720. 3.837 5.137
4012.8 0.65028 5.20(4) 715. 3.836 5.216
4014.8 0.65060 5.21(4) 715. 3.834 5.237
4016.8 0.65093 5.17(4) 721. 3.833 5.201
4018.8 0.65125 5.07(4) 734. 3.831 5.121
4020.8 0.65158 5.00(4) 744. 3.830 5.012
4022.8 0.65191 4.88(4) 763. 3.828 4.895
4024.8 0.65223 4.77(4) 779. 3.826 4.781
4026.8 0.65256 4.67(4) 798. 3.825 4.679
4028.8 0.65288 4.546(35) 818. 3.8233 4.5897
4030.8 0.65321 4.507(35) 826. 3.8217 4.5111
4032.8 0.65354 4.422(34) 842. 3.8201 4.4424
4034.9 0.65387 4.349(34) 855. 3.8186 4.3861
4036.9 0.65419 4.288(34) 867. 3.8170 4.3483
4038.9 0.65452 4.309(34) 863. 3.8154 4.3462
4040.9 0.65485 4.392(34) 844. 3.8139 4.4102
4042.9 0.65518 4.60(4) 807. 3.812 4.582
4045.0 0.65551 4.91(4) 755. 3.811 4.903
4047.0 0.65583 5.42(4) 682. 3.809 5.408
4049.0 0.65616 6.10(4) 603. 3.808 6.105
4051.0 0.65649 6.91(4) 532. 3.806 6.955
4053.1 0.65682 7.78(5) 470. 3.804 7.898
4055.1 0.65715 8.76(5) 416. 3.803 8.865
4057.1 0.65747 9.73(5) 373. 3.801 9.812
4059.1 0.65780 10.62(5) 341.0 3.800 10.671
4061.2 0.65813 11.20(6) 322.6 3.798 11.312
4063.2 0.65846 11.33(6) 318.6 3.797 11.608
4065.2 0.65879 11.22(6) 321.4 3.795 11.510
4067.3 0.65912 10.88(5) 331.9 3.794 11.083
4069.3 0.65945 10.35(5) 349.7 3.792 10.450
4071.3 0.65979 9.77(5) 371. 3.791 9.750
4073.4 0.66012 9.16(5) 396. 3.789 9.080
4075.4 0.66045 8.58(5) 424. 3.787 8.463
4077.4 0.66078 8.04(5) 452. 3.786 7.892
4079.5 0.66111 7.56(5) 482. 3.784 7.347
4081.5 0.66144 7.08(4) 515. 3.783 6.839
4083.6 0.66177 6.63(4) 550. 3.781 6.374
4085.6 0.66210 6.25(4) 585. 3.780 5.956
4087.7 0.66244 5.88(4) 623. 3.778 5.594
4089.7 0.66277 5.55(4) 659. 3.777 5.290
4091.7 0.66310 5.30(4) 690. 3.775 5.037
4093.8 0.66343 5.12(4) 716. 3.774 4.831
4095.8 0.66376 4.92(4) 746. 3.772 4.669
4097.9 0.66409 4.79(4) 764. 3.771 4.549
4099.9 0.66442 4.68(4) 783. 3.769 4.477
4102.0 0.66476 4.66(4) 787. 3.768 4.457
4104.0 0.66509 4.73(4) 774. 3.766 4.496
4106.1 0.66542 4.79(4) 764. 3.764 4.597
4108.1 0.66576 4.91(4) 744. 3.763 4.750
4110.2 0.66609 5.07(4) 721. 3.761 4.940
4112.3 0.66643 5.27(4) 692. 3.760 5.149
4114.3 0.66676 5.48(4) 665. 3.758 5.369
4116.3 0.66709 5.68(4) 640. 3.757 5.612
4118.4 0.66743 5.95(4) 612. 3.755 5.900
4120.5 0.66776 6.29(4) 577. 3.754 6.248
4122.5 0.66810 6.64(4) 546. 3.752 6.640
4124.6 0.66843 7.01(4) 516. 3.751 7.013
4126.7 0.66877 7.26(4) 497. 3.749 7.283
4128.7 0.66910 7.34(5) 492. 3.748 7.391
4130.8 0.66944 7.25(4) 498. 3.746 7.326
4132.8 0.66977 7.08(4) 510. 3.745 7.116
4134.9 0.67011 6.81(4) 531. 3.743 6.811
4137.0 0.67044 6.47(4) 559. 3.742 6.463
4139.0 0.67078 6.11(4) 591. 3.740 6.110
4141.1 0.67112 5.82(4) 622. 3.739 5.781
4143.2 0.67145 5.54(4) 653. 3.737 5.491
4145.3 0.67179 5.31(4) 683. 3.736 5.235
4147.3 0.67213 5.09(4) 712. 3.734 5.015
4149.4 0.67246 4.93(4) 735. 3.733 4.827
4151.5 0.67279 4.78(4) 759. 3.732 4.668
4153.6 0.67313 4.64(4) 781. 3.730 4.542
4155.6 0.67347 4.54(4) 798. 3.729 4.459
4157.7 0.67381 4.50(4) 805. 3.727 4.435
4159.8 0.67414 4.56(4) 794. 3.726 4.489
4161.9 0.67448 4.70(4) 768. 3.724 4.642
4163.9 0.67482 5.00(4) 722. 3.723 4.902
4166.0 0.67516 5.31(4) 680. 3.721 5.260
4168.1 0.67550 5.67(4) 636. 3.720 5.677
4170.2 0.67583 6.10(4) 589. 3.718 6.110
4172.3 0.67617 6.51(4) 551. 3.717 6.518
4174.4 0.67651 6.84(4) 524. 3.715 6.858
4176.5 0.67685 7.03(4) 509. 3.714 7.084
4178.5 0.67719 7.11(4) 503. 3.713 7.189
4180.6 0.67753 7.09(4) 504. 3.711 7.159
4182.7 0.67787 6.95(4) 513. 3.710 7.006
4184.8 0.67821 6.73(4) 531. 3.708 6.760
4186.9 0.67855 6.43(4) 556. 3.707 6.457
4189.0 0.67889 6.14(4) 583. 3.705 6.127
4191.1 0.67923 5.81(4) 617. 3.704 5.796
4193.2 0.67957 5.46(4) 657. 3.703 5.483
4195.3 0.67991 5.21(4) 687. 3.701 5.203
4197.4 0.68025 5.00(4) 716. 3.700 4.955
4199.5 0.68059 4.80(4) 747. 3.698 4.743
4201.6 0.68093 4.59(4) 781. 3.697 4.567
4203.7 0.68127 4.43(4) 809. 3.695 4.421
4205.8 0.68161 4.312(35) 832. 3.6941 4.3008
4207.9 0.68195 4.232(34) 847. 3.6926 4.2006
4210.0 0.68230 4.136(34) 867. 3.6912 4.1185
4212.1 0.68264 4.040(34) 886. 3.6898 4.0514
4214.2 0.68298 3.958(33) 905. 3.6884 3.9956
4216.3 0.68332 3.920(33) 913. 3.6870 3.9521
4218.4 0.68366 3.928(33) 911. 3.6856 3.9178
4220.5 0.68401 3.895(33) 918. 3.6842 3.8926
4222.6 0.68435 3.868(33) 924. 3.6829 3.8773
4224.8 0.68469 3.846(33) 930. 3.6815 3.8735
4226.9 0.68504 3.862(33) 926. 3.6801 3.8841
4229.0 0.68538 3.904(33) 914. 3.6787 3.9132
4231.1 0.68572 3.950(33) 903. 3.6773 3.9704
4233.2 0.68607 4.059(34) 880. 3.6759 4.0683
4235.3 0.68641 4.195(34) 850. 3.6746 4.2281
4237.4 0.68675 4.41(4) 807. 3.673 4.476
4239.6 0.68709 4.76(4) 746. 3.672 4.827
4241.7 0.68744 5.19(4) 682. 3.670 5.275
4243.8 0.68778 5.68(4) 624. 3.669 5.772
4245.9 0.68813 6.16(4) 573. 3.668 6.241
4248.0 0.68847 6.42(4) 549. 3.666 6.606
4250.2 0.68881 6.63(4) 530. 3.665 6.811
4252.3 0.68916 6.72(4) 523. 3.664 6.845
4254.4 0.68950 6.61(4) 532. 3.662 6.742
4256.6 0.68985 6.43(4) 548. 3.661 6.557
4258.7 0.69020 6.29(4) 560. 3.660 6.344
4260.8 0.69054 6.12(4) 574. 3.658 6.132
4262.9 0.69089 5.93(4) 593. 3.657 5.933
4265.1 0.69123 5.75(4) 612. 3.656 5.746
4267.2 0.69158 5.56(4) 633. 3.654 5.565
4269.3 0.69193 5.34(4) 659. 3.653 5.388
4271.5 0.69227 5.18(4) 678. 3.652 5.214
4273.6 0.69262 5.02(4) 700. 3.650 5.037
4275.8 0.69297 4.82(4) 731. 3.649 4.865
4277.9 0.69331 4.66(4) 756. 3.648 4.703
4280.0 0.69366 4.53(4) 776. 3.646 4.562
4282.2 0.69401 4.42(4) 794. 3.645 4.452
4284.3 0.69436 4.33(4) 811. 3.644 4.386
4286.4 0.69470 4.316(35) 813. 3.6425 4.3842
4288.6 0.69505 4.40(4) 799. 3.641 4.461
4290.7 0.69540 4.61(4) 760. 3.640 4.627
4292.9 0.69575 4.86(4) 721. 3.639 4.871
4295.0 0.69610 5.07(4) 690. 3.637 5.162
4297.2 0.69644 5.35(4) 653. 3.636 5.476
4299.3 0.69679 5.70(4) 611. 3.635 5.815
4301.5 0.69714 6.16(4) 565. 3.633 6.208
4303.6 0.69749 6.62(4) 525. 3.632 6.687
4305.8 0.69784 7.12(5) 486. 3.631 7.231
4307.9 0.69819 7.64(5) 452. 3.630 7.747
4310.1 0.69854 7.99(5) 432. 3.628 8.108
4312.2 0.69889 8.07(5) 427. 3.627 8.218
4314.4 0.69924 7.90(5) 437. 3.626 8.060
4316.5 0.69959 7.56(5) 457. 3.625 7.693
4318.7 0.69994 7.10(5) 486. 3.623 7.207
4320.9 0.70029 6.60(4) 524. 3.622 6.690
4323.0 0.70064 6.19(4) 559. 3.621 6.205
4325.2 0.70099 5.80(4) 596. 3.620 5.777
4327.3 0.70134 5.45(4) 636. 3.618 5.412
4329.5 0.70169 5.14(4) 675. 3.617 5.104
4331.7 0.70205 4.89(4) 709. 3.616 4.848
4333.8 0.70240 4.67(4) 741. 3.615 4.638
4336.0 0.70275 4.50(4) 771. 3.613 4.463
4338.2 0.70310 4.38(4) 790. 3.612 4.319
4340.3 0.70345 4.257(35) 816. 3.6110 4.2001
4342.5 0.70380 4.101(34) 846. 3.6098 4.1014
4344.7 0.70416 4.015(34) 863. 3.6086 4.0199
4346.8 0.70451 3.966(34) 874. 3.6074 3.9537
4349.0 0.70486 3.939(34) 879. 3.6062 3.8977
4351.2 0.70522 3.865(33) 897. 3.6050 3.8519
4353.4 0.70557 3.802(33) 910. 3.6038 3.8142
4355.6 0.70593 3.797(33) 910. 3.6026 3.7829
4357.8 0.70628 3.744(33) 922. 3.6014 3.7575
4359.9 0.70663 3.703(33) 933. 3.6002 3.7368
4362.1 0.70699 3.687(33) 936. 3.5990 3.7202
4364.3 0.70734 3.633(32) 949. 3.5978 3.7078
4366.5 0.70770 3.617(32) 955. 3.5966 3.7007
4368.7 0.70805 3.650(33) 946. 3.5954 3.7015
4370.8 0.70840 3.659(33) 941. 3.5943 3.7153
4373.0 0.70876 3.678(33) 936. 3.5931 3.7495
4375.2 0.70911 3.762(33) 915. 3.5919 3.8120
4377.4 0.70947 3.867(34) 888. 3.5908 3.9071
4379.6 0.70982 3.988(34) 862. 3.5896 4.0328
4381.8 0.71018 4.129(35) 830. 3.5884 4.1807
4384.0 0.71054 4.28(4) 801. 3.587 4.339
4386.2 0.71089 4.42(4) 775. 3.586 4.498
4388.3 0.71125 4.54(4) 755. 3.585 4.654
4390.5 0.71160 4.66(4) 733. 3.584 4.796
4392.7 0.71196 4.77(4) 716. 3.583 4.903
4394.9 0.71232 4.83(4) 706. 3.582 4.950
4397.1 0.71267 4.81(4) 708. 3.580 4.929
4399.3 0.71303 4.76(4) 716. 3.579 4.848
4401.5 0.71339 4.67(4) 729. 3.578 4.731
4403.7 0.71374 4.54(4) 750. 3.577 4.600
4405.9 0.71410 4.44(4) 767. 3.576 4.474
4408.1 0.71446 4.30(4) 793. 3.575 4.360
4410.3 0.71482 4.188(35) 813. 3.5737 4.2585
4412.5 0.71517 4.107(35) 828. 3.5726 4.1689
4414.8 0.71553 4.030(34) 844. 3.5715 4.0900
4416.9 0.71589 3.936(34) 864. 3.5704 4.0215
4419.2 0.71625 3.846(34) 885. 3.5693 3.9646
4421.4 0.71661 3.800(33) 894. 3.5682 3.9239
4423.6 0.71697 3.792(33) 895. 3.5671 3.9078
4425.8 0.71732 3.819(34) 889. 3.5660 3.9337
4428.0 0.71768 3.916(34) 866. 3.5649 4.0297
4430.2 0.71804 4.099(35) 826. 3.5638 4.2340
4432.4 0.71840 4.52(4) 748. 3.563 4.578
4434.7 0.71876 5.00(4) 675. 3.562 5.064
4436.9 0.71912 5.53(4) 609. 3.561 5.640
4439.1 0.71948 6.02(4) 557. 3.560 6.200
4441.3 0.71984 6.41(4) 523. 3.558 6.620
4443.5 0.72021 6.58(4) 508. 3.557 6.823
4445.8 0.72057 6.56(4) 509. 3.556 6.810
4448.0 0.72093 6.41(4) 522. 3.555 6.648
4450.2 0.72129 6.24(4) 536. 3.554 6.433
4452.4 0.72165 6.11(4) 547. 3.553 6.246
4454.7 0.72201 6.01(4) 556. 3.552 6.127
4456.9 0.72237 5.98(4) 558. 3.551 6.067
4459.1 0.72273 5.89(4) 567. 3.550 6.020
4461.3 0.72310 5.75(4) 582. 3.549 5.935
4463.6 0.72346 5.64(4) 592. 3.548 5.788
4465.8 0.72382 5.45(4) 613. 3.547 5.579
4468.0 0.72418 5.19(4) 643. 3.546 5.335
4470.3 0.72454 4.98(4) 670. 3.545 5.084
4472.5 0.72491 4.80(4) 696. 3.544 4.847
4474.7 0.72527 4.58(4) 730. 3.543 4.636
4477.0 0.72563 4.42(4) 755. 3.542 4.455
4479.2 0.72600 4.25(4) 785. 3.541 4.303
4481.4 0.72636 4.102(35) 813. 3.5398 4.1767
4483.7 0.72672 3.978(35) 839. 3.5388 4.0714
4485.9 0.72709 3.887(34) 859. 3.5378 3.9850
4488.2 0.72745 3.839(34) 870. 3.5368 3.9137
4490.4 0.72781 3.764(34) 886. 3.5358 3.8546
4492.7 0.72818 3.696(33) 902. 3.5349 3.8064
4494.9 0.72854 3.690(33) 902. 3.5339 3.7677
4497.2 0.72891 3.653(33) 912. 3.5329 3.7376
4499.4 0.72928 3.628(33) 917. 3.5319 3.7185
4501.7 0.72964 3.638(33) 915. 3.5309 3.7137
4503.9 0.73001 3.651(33) 910. 3.5300 3.7304
4506.2 0.73037 3.691(33) 900. 3.5290 3.7781
4508.4 0.73074 3.811(34) 870. 3.5280 3.8647
4510.7 0.73110 3.962(35) 836. 3.5271 3.9912
4512.9 0.73147 4.11(4) 805. 3.526 4.147
4515.2 0.73184 4.28(4) 772. 3.525 4.308
4517.4 0.73220 4.39(4) 753. 3.524 4.446
4519.7 0.73257 4.50(4) 731. 3.523 4.544
4521.9 0.73293 4.56(4) 724. 3.522 4.607
4524.2 0.73330 4.55(4) 723. 3.521 4.651
4526.5 0.73367 4.59(4) 717. 3.520 4.699
4528.8 0.73404 4.72(4) 696. 3.519 4.772
4531.0 0.73440 4.82(4) 681. 3.519 4.882
4533.3 0.73477 4.94(4) 664. 3.518 5.027
4535.5 0.73514 5.13(4) 638. 3.517 5.184
4537.8 0.73551 5.25(4) 624. 3.516 5.319
4540.1 0.73588 5.36(4) 611. 3.515 5.398
4542.3 0.73625 5.37(4) 610. 3.514 5.414
4544.6 0.73662 5.39(4) 606. 3.513 5.384
4546.9 0.73698 5.39(4) 604. 3.512 5.331
4549.2 0.73735 5.38(4) 606. 3.511 5.271
4551.4 0.73772 5.27(4) 619. 3.510 5.201
4553.7 0.73809 5.14(4) 633. 3.509 5.106
4556.0 0.73846 5.04(4) 647. 3.508 4.981
4558.3 0.73883 4.90(4) 664. 3.508 4.828
4560.5 0.73920 4.72(4) 691. 3.507 4.660
4562.8 0.73957 4.56(4) 714. 3.506 4.494
4565.1 0.73994 4.39(4) 743. 3.505 4.342
4567.4 0.74031 4.24(4) 766. 3.504 4.205
4569.7 0.74068 4.11(4) 793. 3.503 4.088
4572.0 0.74105 4.001(35) 813. 3.5023 3.9904
4574.3 0.74142 3.904(35) 834. 3.5014 3.9092
4576.5 0.74180 3.813(34) 853. 3.5005 3.8413
4578.8 0.74217 3.737(34) 869. 3.4996 3.7841
4581.1 0.74254 3.714(34) 874. 3.4988 3.7361
4583.4 0.74291 3.722(34) 871. 3.4979 3.6972
4585.7 0.74328 3.635(33) 892. 3.4971 3.6650
4588.0 0.74365 3.602(33) 900. 3.4962 3.6380
4590.3 0.74403 3.627(33) 894. 3.4953 3.6155
4592.6 0.74440 3.578(33) 904. 3.4945 3.5972
4594.9 0.74477 3.554(33) 911. 3.4936 3.5816
4597.2 0.74514 3.498(33) 923. 3.4928 3.5683
4599.5 0.74552 3.483(33) 928. 3.4920 3.5568
4601.8 0.74589 3.525(33) 916. 3.4911 3.5477
4604.1 0.74626 3.507(33) 921. 3.4903 3.5400
4606.4 0.74664 3.493(33) 923. 3.4894 3.5336
4608.7 0.74701 3.471(33) 928. 3.4886 3.5282
4611.0 0.74739 3.474(33) 926. 3.4878 3.5237
4613.3 0.74776 3.464(33) 928. 3.4870 3.5198
4615.6 0.74814 3.471(33) 926. 3.4861 3.5166
4617.9 0.74851 3.474(33) 925. 3.4853 3.5140
4620.2 0.74888 3.460(33) 928. 3.4845 3.5118
4622.5 0.74926 3.451(33) 931. 3.4837 3.5100
4624.8 0.74963 3.461(33) 926. 3.4829 3.5085
4627.1 0.75001 3.446(33) 931. 3.4821 3.5074
4629.4 0.75038 3.414(33) 938. 3.4813 3.5065
4631.8 0.75076 3.387(33) 946. 3.4805 3.5059
4634.1 0.75113 3.391(33) 944. 3.4797 3.5056
4636.4 0.75151 3.379(33) 946. 3.4789 3.5056
4638.7 0.75189 3.416(33) 936. 3.4781 3.5058
4641.0 0.75227 3.436(33) 928. 3.4773 3.5064
4643.3 0.75264 3.415(33) 934. 3.4765 3.5073
4645.7 0.75302 3.413(33) 933. 3.4757 3.5103
4648.0 0.75340 3.465(33) 919. 3.4749 3.5122
4650.3 0.75377 3.462(33) 919. 3.4741 3.5146
4652.7 0.75415 3.450(33) 921. 3.4734 3.5200
4655.0 0.75453 3.446(33) 922. 3.4726 3.5261
4657.3 0.75491 3.473(33) 914. 3.4718 3.5335
4659.6 0.75528 3.473(33) 912. 3.4710 3.5467
4662.0 0.75566 3.517(33) 902. 3.4703 3.5751
4664.3 0.75604 3.547(33) 891. 3.4695 3.6289
4666.6 0.75642 3.646(34) 867. 3.4687 3.7304
4669.0 0.75680 3.823(35) 825. 3.4680 3.9023
4671.3 0.75718 4.11(4) 768. 3.467 4.162
4673.6 0.75756 4.45(4) 706. 3.466 4.507
4676.0 0.75794 4.88(4) 643. 3.466 4.903
4678.3 0.75832 5.25(4) 598. 3.465 5.289
4680.6 0.75869 5.53(4) 566. 3.464 5.612
4683.0 0.75907 5.73(4) 545. 3.463 5.837
4685.3 0.75945 5.86(4) 532. 3.463 5.956
4687.7 0.75983 5.89(4) 529. 3.462 5.987
4690.0 0.76021 5.89(4) 529. 3.461 5.975
4692.3 0.76060 5.94(4) 524. 3.461 5.984
4694.7 0.76098 6.05(4) 514. 3.460 6.073
4697.0 0.76136 6.27(4) 495. 3.459 6.272
4699.4 0.76174 6.58(5) 472. 3.458 6.561
4701.8 0.76212 6.88(5) 450. 3.458 6.867
4704.1 0.76250 7.13(5) 433. 3.457 7.103
4706.4 0.76288 7.22(5) 428. 3.456 7.206
4708.8 0.76327 7.15(5) 432. 3.455 7.161
4711.2 0.76365 7.03(5) 439. 3.455 6.995
4713.5 0.76403 6.85(5) 450. 3.454 6.756
4715.9 0.76442 6.61(5) 467. 3.453 6.488
4718.2 0.76480 6.37(5) 484. 3.453 6.216
4720.6 0.76518 6.11(4) 505. 3.452 5.948
4722.9 0.76556 5.80(4) 532. 3.451 5.681
4725.3 0.76595 5.53(4) 558. 3.450 5.416
4727.7 0.76633 5.27(4) 585. 3.450 5.159
4730.0 0.76671 5.01(4) 616. 3.449 4.917
4732.4 0.76710 4.80(4) 642. 3.448 4.701
4734.8 0.76748 4.61(4) 669. 3.448 4.513
4737.1 0.76787 4.39(4) 703. 3.447 4.354
4739.5 0.76825 4.23(4) 728. 3.446 4.223
4741.9 0.76864 4.15(4) 742. 3.446 4.118
4744.3 0.76902 4.06(4) 759. 3.445 4.037
4746.6 0.76941 3.99(4) 772. 3.444 3.983
4749.0 0.76979 3.97(4) 775. 3.444 3.968
4751.4 0.77018 4.01(4) 766. 3.443 4.018
4753.8 0.77056 4.13(4) 742. 3.442 4.178
4756.1 0.77095 4.43(4) 690. 3.441 4.504
4758.5 0.77133 4.99(4) 612. 3.441 5.047
4760.9 0.77172 5.81(4) 525. 3.440 5.820
4763.3 0.77211 6.80(5) 446. 3.439 6.769
4765.6 0.77249 7.78(5) 388. 3.439 7.776
4768.0 0.77288 8.69(5) 346.9 3.438 8.719
4770.4 0.77327 9.50(6) 316.0 3.437 9.509
4772.8 0.77365 10.10(6) 296.6 3.437 10.120
4775.2 0.77404 10.60(6) 282.0 3.436 10.560
4777.6 0.77443 10.95(6) 272.4 3.435 10.826
4779.9 0.77481 11.09(6) 268.7 3.435 10.920
4782.3 0.77521 10.98(6) 271.3 3.434 10.837
4784.7 0.77559 10.71(6) 278.1 3.433 10.572
4787.1 0.77598 10.33(6) 288.6 3.433 10.147
4789.5 0.77637 9.77(6) 304.9 3.432 9.606
4791.9 0.77676 9.18(6) 324.9 3.431 8.996
4794.3 0.77715 8.54(5) 349.7 3.431 8.366
4796.7 0.77753 7.89(5) 379. 3.430 7.741
4799.1 0.77792 7.25(5) 413. 3.430 7.142
4801.5 0.77832 6.69(5) 448. 3.429 6.591
4803.9 0.77871 6.20(5) 484. 3.428 6.097
4806.3 0.77910 5.73(4) 523. 3.428 5.667
4808.7 0.77949 5.36(4) 561. 3.427 5.300
4811.1 0.77988 5.02(4) 598. 3.426 4.991
4813.5 0.78027 4.75(4) 632. 3.426 4.732
4815.9 0.78066 4.56(4) 658. 3.425 4.517
4818.3 0.78105 4.40(4) 681. 3.424 4.339
4820.8 0.78144 4.28(4) 701. 3.424 4.190
4823.2 0.78183 4.12(4) 728. 3.423 4.067
4825.6 0.78222 3.98(4) 753. 3.423 3.966
4828.0 0.78261 3.88(4) 772. 3.422 3.881
4830.4 0.78300 3.84(4) 778. 3.421 3.811
4832.8 0.78340 3.82(4) 783. 3.421 3.753
4835.2 0.78379 3.78(4) 790. 3.420 3.705
4837.6 0.78418 3.74(4) 800. 3.419 3.666
4840.1 0.78458 3.69(4) 809. 3.419 3.639
4842.5 0.78497 3.652(35) 817. 3.4181 3.6167
4844.9 0.78536 3.615(35) 825. 3.4175 3.6064
4847.3 0.78575 3.617(35) 822. 3.4169 3.6121
4849.8 0.78615 3.67(4) 809. 3.416 3.639
4852.2 0.78654 3.76(4) 790. 3.416 3.703
4854.6 0.78693 3.84(4) 772. 3.415 3.782
4857.0 0.78733 3.94(4) 753. 3.414 3.871
4859.4 0.78772 4.02(4) 735. 3.414 3.954
4861.9 0.78812 4.06(4) 729. 3.413 4.016
4864.3 0.78851 4.09(4) 722. 3.413 4.047
4866.8 0.78891 4.12(4) 716. 3.412 4.055
4869.2 0.78930 4.09(4) 722. 3.411 4.053
4871.6 0.78970 4.08(4) 722. 3.411 4.065
4874.1 0.79009 4.08(4) 722. 3.410 4.117
4876.5 0.79049 4.16(4) 708. 3.409 4.240
4878.9 0.79089 4.38(4) 670. 3.409 4.463
4881.4 0.79128 4.74(4) 619. 3.408 4.804
4883.8 0.79168 5.17(4) 567. 3.408 5.255
4886.3 0.79207 5.70(4) 512. 3.407 5.768
4888.7 0.79247 6.23(5) 468. 3.406 6.272
4891.1 0.79286 6.58(5) 441. 3.406 6.690
4893.6 0.79327 6.84(5) 425. 3.405 6.962
4896.0 0.79366 7.01(5) 413. 3.405 7.065
4898.5 0.79406 6.94(5) 418. 3.404 7.008
4900.9 0.79446 6.71(5) 431. 3.403 6.817
4903.4 0.79485 6.44(5) 449. 3.403 6.534
4905.8 0.79525 6.12(5) 473. 3.402 6.198
4908.3 0.79565 5.80(4) 499. 3.402 5.846
4910.7 0.79605 5.51(4) 525. 3.401 5.508
4913.2 0.79645 5.15(4) 561. 3.400 5.198
4915.7 0.79685 4.88(4) 593. 3.400 4.928
4918.1 0.79724 4.68(4) 618. 3.399 4.698
4920.6 0.79764 4.47(4) 648. 3.399 4.503
4923.0 0.79804 4.29(4) 674. 3.398 4.339
4925.5 0.79844 4.15(4) 696. 3.397 4.208
4927.9 0.79884 4.05(4) 712. 3.397 4.102
4930.4 0.79924 3.96(4) 730. 3.396 4.018
4932.9 0.79964 3.88(4) 744. 3.396 3.951
4935.3 0.80004 3.79(4) 759. 3.395 3.903
4937.8 0.80044 3.79(4) 761. 3.394 3.873
4940.3 0.80084 3.81(4) 756. 3.394 3.860
4942.8 0.80125 3.83(4) 749. 3.393 3.873
4945.2 0.80165 3.88(4) 739. 3.393 3.936
4947.7 0.80205 4.05(4) 708. 3.392 4.100
4950.2 0.80245 4.41(4) 648. 3.391 4.468
4952.7 0.80285 5.12(4) 558. 3.391 5.187
4955.1 0.80325 6.35(5) 448. 3.390 6.413
4957.6 0.80365 8.30(5) 340.4 3.390 8.240
4960.1 0.80406 10.71(6) 261.5 3.389 10.607
4962.6 0.80446 13.27(7) 209.4 3.388 13.195
4965.0 0.80486 15.47(7) 178.3 3.388 15.539
4967.5 0.80527 17.06(8) 160.9 3.387 17.265
4970.0 0.80567 18.19(8) 150.3 3.387 18.288
4972.5 0.80607 18.80(8) 145.2 3.386 18.784
4975.0 0.80648 19.02(8) 143.2 3.386 18.991
4977.5 0.80688 19.18(8) 141.8 3.385 19.024
4979.9 0.80728 19.05(8) 142.8 3.384 18.811
4982.4 0.80769 18.44(8) 147.6 3.384 18.215
4984.9 0.80809 17.31(8) 157.7 3.383 17.186
4987.4 0.80850 15.93(8) 171.7 3.383 15.822
4989.9 0.80890 14.50(7) 189.3 3.382 14.280
4992.4 0.80931 12.95(7) 212.5 3.381 12.717
4994.9 0.80971 11.49(6) 240.5 3.381 11.264
4997.4 0.81012 10.24(6) 270.5 3.380 9.983
4999.9 0.81052 9.09(6) 305.2 3.380 8.888
5002.4 0.81093 8.13(5) 341.9 3.379 7.968
5004.9 0.81134 7.42(5) 375. 3.378 7.200
5007.4 0.81174 6.75(5) 412. 3.378 6.561
5009.9 0.81215 6.23(5) 447. 3.377 6.031
5012.4 0.81255 5.77(5) 483. 3.377 5.589
5014.9 0.81296 5.39(4) 517. 3.376 5.221
5017.4 0.81337 5.09(4) 547. 3.375 4.919
5019.9 0.81378 4.87(4) 572. 3.375 4.667
5022.4 0.81418 4.61(4) 605. 3.374 4.457
5025.0 0.81459 4.39(4) 634. 3.374 4.283
5027.5 0.81500 4.27(4) 651. 3.373 4.138
5030.0 0.81541 4.17(4) 667. 3.372 4.018
5032.5 0.81581 4.06(4) 685. 3.372 3.918
5035.0 0.81623 3.96(4) 701. 3.371 3.835
5037.5 0.81663 3.88(4) 716. 3.371 3.766
5040.1 0.81704 3.78(4) 734. 3.370 3.708
5042.6 0.81745 3.73(4) 744. 3.369 3.660
5045.1 0.81786 3.71(4) 747. 3.369 3.620
5047.6 0.81827 3.68(4) 750. 3.368 3.587
5050.2 0.81868 3.68(4) 751. 3.368 3.560
5052.7 0.81909 3.60(4) 769. 3.367 3.537
5055.2 0.81950 3.61(4) 764. 3.366 3.517
5057.7 0.81991 3.65(4) 755. 3.366 3.502
5060.3 0.82032 3.58(4) 770. 3.365 3.489
5062.8 0.82073 3.51(4) 786. 3.365 3.479
5065.3 0.82114 3.48(4) 789. 3.364 3.471
5067.8 0.82155 3.46(4) 793. 3.363 3.466
5070.4 0.82196 3.49(4) 786. 3.363 3.463
5072.9 0.82237 3.51(4) 782. 3.362 3.465
5075.4 0.82279 3.52(4) 779. 3.362 3.476
5078.0 0.82320 3.58(4) 764. 3.361 3.508
5080.5 0.82361 3.63(4) 752. 3.360 3.580
5083.1 0.82402 3.77(4) 724. 3.360 3.720
5085.6 0.82443 4.03(4) 677. 3.359 3.957
5088.2 0.82485 4.43(4) 615. 3.359 4.302
5090.7 0.82526 4.91(4) 553. 3.358 4.729
5093.3 0.82568 5.40(4) 502. 3.357 5.170
5095.8 0.82609 5.78(5) 468. 3.357 5.526
5098.3 0.82650 5.99(5) 451. 3.356 5.725
5100.9 0.82691 5.97(5) 451. 3.355 5.743
5103.4 0.82733 5.83(5) 462. 3.355 5.614
5106.0 0.82775 5.62(5) 479. 3.354 5.399
5108.5 0.82816 5.38(4) 501. 3.354 5.159
5111.1 0.82857 5.16(4) 522. 3.353 4.939
5113.7 0.82899 4.94(4) 545. 3.352 4.767
5116.2 0.82941 4.81(4) 560. 3.352 4.647
5118.8 0.82982 4.75(4) 566. 3.351 4.566
5121.3 0.83023 4.66(4) 576. 3.350 4.501
5123.9 0.83065 4.55(4) 590. 3.350 4.432
5126.4 0.83106 4.42(4) 606. 3.349 4.346
5129.0 0.83148 4.35(4) 615. 3.349 4.244
5131.6 0.83190 4.26(4) 627. 3.348 4.134
5134.1 0.83231 4.12(4) 649. 3.347 4.024
5136.7 0.83273 3.99(4) 670. 3.347 3.923
5139.3 0.83315 3.87(4) 691. 3.346 3.835
5141.8 0.83357 3.78(4) 707. 3.345 3.760
5144.4 0.83398 3.74(4) 714. 3.345 3.697
5147.0 0.83440 3.69(4) 723. 3.344 3.633
5149.6 0.83482 3.62(4) 735. 3.343 3.591
5152.1 0.83523 3.52(4) 757. 3.343 3.557
5154.7 0.83566 3.49(4) 761. 3.342 3.529
5157.3 0.83607 3.46(4) 768. 3.342 3.508
5159.9 0.83649 3.45(4) 769. 3.341 3.493
5162.4 0.83691 3.49(4) 760. 3.340 3.484
5165.0 0.83733 3.49(4) 758. 3.340 3.485
5167.6 0.83775 3.47(4) 762. 3.339 3.504
5170.2 0.83817 3.52(4) 750. 3.338 3.559
5172.8 0.83859 3.67(4) 719. 3.338 3.674
5175.4 0.83901 3.82(4) 691. 3.337 3.884
5178.0 0.83943 4.13(4) 636. 3.336 4.215
5180.5 0.83985 4.64(4) 566. 3.336 4.675
5183.1 0.84027 5.22(4) 503. 3.335 5.233
5185.7 0.84069 5.73(5) 456. 3.334 5.811
5188.3 0.84111 6.21(5) 420. 3.334 6.315
5190.9 0.84153 6.64(5) 392. 3.333 6.664
5193.5 0.84195 6.82(5) 381. 3.332 6.814
5196.1 0.84237 6.74(5) 386. 3.332 6.759
5198.7 0.84279 6.52(5) 398. 3.331 6.537
5201.3 0.84322 6.20(5) 418. 3.330 6.208
5203.9 0.84364 5.82(5) 445. 3.330 5.837
5206.5 0.84406 5.43(5) 477. 3.329 5.468
5209.1 0.84448 5.05(4) 514. 3.328 5.128
5211.7 0.84491 4.80(4) 540. 3.328 4.832
5214.3 0.84533 4.55(4) 569. 3.327 4.581
5216.9 0.84576 4.31(4) 602. 3.326 4.371
5219.5 0.84618 4.14(4) 625. 3.326 4.196
5222.2 0.84660 4.03(4) 643. 3.325 4.051
5224.8 0.84702 3.90(4) 664. 3.324 3.930
5227.4 0.84745 3.80(4) 681. 3.324 3.831
5230.0 0.84787 3.69(4) 699. 3.323 3.748
5232.6 0.84830 3.62(4) 712. 3.322 3.679
5235.2 0.84872 3.56(4) 723. 3.321 3.621
5237.8 0.84915 3.52(4) 732. 3.321 3.573
5240.4 0.84957 3.51(4) 732. 3.320 3.534
5243.1 0.85000 3.48(4) 738. 3.319 3.501
5245.7 0.85042 3.42(4) 751. 3.319 3.475
5248.3 0.85085 3.44(4) 745. 3.318 3.453
5250.9 0.85128 3.46(4) 741. 3.317 3.435
5253.6 0.85170 3.44(4) 743. 3.317 3.420
5256.2 0.85213 3.40(4) 752. 3.316 3.408
5258.8 0.85255 3.38(4) 756. 3.315 3.398
5261.4 0.85298 3.41(4) 749. 3.314 3.390
5264.1 0.85341 3.39(4) 751. 3.314 3.384
5266.7 0.85384 3.39(4) 751. 3.313 3.379
5269.3 0.85426 3.41(4) 746. 3.312 3.376
5272.0 0.85469 3.41(4) 745. 3.312 3.374
5274.6 0.85512 3.39(4) 749. 3.311 3.373
5277.3 0.85555 3.37(4) 752. 3.310 3.374
5279.9 0.85597 3.35(4) 756. 3.309 3.376
5282.5 0.85640 3.38(4) 749. 3.309 3.380
5285.2 0.85683 3.39(4) 747. 3.308 3.390
5287.8 0.85726 3.40(4) 744. 3.307 3.410
5290.5 0.85769 3.44(4) 734. 3.306 3.452
5293.1 0.85812 3.49(4) 723. 3.306 3.535
5295.8 0.85855 3.65(4) 689. 3.305 3.686
5298.4 0.85898 3.93(4) 641. 3.304 3.925
5301.0 0.85941 4.27(4) 587. 3.304 4.262
5303.7 0.85984 4.66(4) 537. 3.303 4.660
5306.3 0.86027 5.07(5) 492. 3.302 5.052
5309.0 0.86070 5.40(5) 462. 3.301 5.363
5311.7 0.86113 5.61(5) 444. 3.301 5.548
5314.3 0.86156 5.73(5) 434. 3.300 5.619
5317.0 0.86199 5.74(5) 433. 3.299 5.634
5319.6 0.86243 5.79(5) 429. 3.298 5.683
5322.3 0.86286 5.91(5) 419. 3.297 5.799
5324.9 0.86329 6.13(5) 404. 3.297 6.031
5327.6 0.86372 6.45(5) 383. 3.296 6.387
5330.3 0.86416 6.95(5) 354. 3.295 6.838
5332.9 0.86459 7.47(6) 329.2 3.294 7.322
5335.6 0.86502 7.88(6) 311.4 3.294 7.751
5338.3 0.86545 8.07(6) 303.8 3.293 8.029
5340.9 0.86589 8.11(6) 301.8 3.292 8.115
5343.6 0.86632 8.05(6) 303.8 3.291 8.029
5346.3 0.86675 7.87(6) 310.6 3.291 7.834
5349.0 0.86719 7.59(6) 321.7 3.290 7.590
5351.6 0.86762 7.32(5) 333.8 3.289 7.326
5354.3 0.86806 7.03(5) 347.3 3.288 7.042
5357.0 0.86849 6.78(5) 360. 3.287 6.735
5359.7 0.86892 6.40(5) 381. 3.287 6.409
5362.3 0.86936 6.05(5) 403. 3.286 6.074
5365.0 0.86980 5.73(5) 426. 3.285 5.747
5367.7 0.87023 5.45(5) 448. 3.284 5.436
5370.4 0.87067 5.16(5) 472. 3.283 5.150
5373.1 0.87110 4.85(4) 502. 3.283 4.890
5375.8 0.87154 4.61(4) 528. 3.282 4.658
5378.4 0.87197 4.43(4) 550. 3.281 4.456
5381.2 0.87242 4.24(4) 574. 3.280 4.285
5383.8 0.87285 4.12(4) 590. 3.279 4.144
5386.5 0.87329 3.99(4) 608. 3.279 4.028
5389.2 0.87372 3.88(4) 626. 3.278 3.935
5391.9 0.87416 3.84(4) 631. 3.277 3.861
5394.6 0.87460 3.85(4) 629. 3.276 3.804
5397.3 0.87504 3.81(4) 634. 3.275 3.761
5400.0 0.87547 3.77(4) 642. 3.274 3.732
5402.7 0.87592 3.70(4) 653. 3.274 3.716
5405.4 0.87635 3.72(4) 648. 3.273 3.715
5408.1 0.87679 3.74(4) 644. 3.272 3.732
5410.8 0.87723 3.75(4) 642. 3.271 3.784
5413.5 0.87767 3.81(4) 631. 3.270 3.907
5416.2 0.87811 4.08(4) 588. 3.269 4.181
5418.9 0.87855 4.60(4) 519. 3.269 4.744
5421.7 0.87899 5.60(5) 426. 3.268 5.775
5424.3 0.87943 7.36(6) 322.5 3.267 7.458
5427.1 0.87987 9.86(6) 238.9 3.266 9.897
5429.8 0.88031 12.99(7) 179.9 3.265 12.964
5432.5 0.88075 16.38(8) 141.4 3.264 16.284
5435.2 0.88119 19.42(9) 118.3 3.263 19.325
5437.9 0.88163 21.66(10) 105.4 3.263 21.590
5440.7 0.88207 22.82(10) 99.7 3.262 22.793
5443.4 0.88252 23.13(10) 98.2 3.261 23.000
5446.1 0.88296 22.74(10) 99.9 3.260 22.598
5448.8 0.88340 22.29(10) 101.9 3.259 22.101
5451.5 0.88384 22.09(10) 102.8 3.258 21.921
5454.3 0.88428 22.38(10) 101.2 3.257 22.160
5457.0 0.88473 22.78(10) 99.3 3.257 22.585
5459.7 0.88517 22.78(10) 99.2 3.256 22.745
5462.4 0.88561 22.25(10) 101.6 3.255 22.277
5465.2 0.88606 21.12(10) 107.2 3.254 21.090
5467.9 0.88650 19.37(9) 117.2 3.253 19.345
5470.7 0.88694 17.39(9) 130.9 3.252 17.319
5473.4 0.88739 15.45(8) 147.9 3.251 15.271
5476.1 0.88783 13.47(8) 170.4 3.250 13.374
5478.8 0.88827 11.70(7) 196.7 3.249 11.710
5481.6 0.88872 10.20(7) 226.1 3.249 10.288
5484.3 0.88917 9.03(6) 255.8 3.248 9.104
5487.1 0.88961 8.08(6) 286.0 3.247 8.119
5489.8 0.89005 7.24(6) 319.3 3.246 7.297
5492.6 0.89050 6.56(5) 353. 3.245 6.617
5495.3 0.89095 6.04(5) 383. 3.244 6.052
5498.1 0.89139 5.56(5) 416. 3.243 5.587
5500.8 0.89184 5.22(5) 443. 3.242 5.201
5503.6 0.89229 4.98(5) 464. 3.241 4.883
5506.3 0.89273 4.70(5) 492. 3.240 4.619
5509.1 0.89318 4.45(4) 519. 3.239 4.400
5511.8 0.89363 4.24(4) 545. 3.239 4.220
5514.6 0.89407 4.13(4) 558. 3.238 4.069
5517.3 0.89452 4.01(4) 575. 3.237 3.945
5520.1 0.89497 3.93(4) 586. 3.236 3.841
5522.8 0.89542 3.89(4) 592. 3.235 3.756
5525.6 0.89587 3.83(4) 600. 3.234 3.686
5528.4 0.89631 3.74(4) 614. 3.233 3.629
5531.1 0.89676 3.67(4) 626. 3.232 3.581
5533.9 0.89721 3.60(4) 637. 3.231 3.543
5536.7 0.89766 3.56(4) 643. 3.230 3.512
5539.4 0.89811 3.56(4) 642. 3.229 3.487
5542.2 0.89856 3.57(4) 640. 3.228 3.468
5545.0 0.89901 3.56(4) 642. 3.227 3.455
5547.8 0.89946 3.49(4) 652. 3.226 3.447
5550.5 0.89991 3.49(4) 652. 3.225 3.445
5553.3 0.90036 3.50(4) 650. 3.224 3.454
5556.1 0.90081 3.47(4) 654. 3.223 3.483
5558.8 0.90126 3.54(4) 640. 3.222 3.549
5561.6 0.90171 3.70(4) 612. 3.221 3.682
5564.4 0.90216 3.90(4) 580. 3.220 3.915
5567.2 0.90262 4.28(4) 527. 3.220 4.277
5570.0 0.90307 4.76(5) 473. 3.219 4.780
5572.8 0.90352 5.43(5) 414. 3.218 5.410
5575.6 0.90398 6.21(5) 360. 3.217 6.137
5578.3 0.90443 7.03(6) 317.9 3.216 6.958
5581.1 0.90488 7.93(6) 280.7 3.215 7.883
5583.9 0.90533 8.99(6) 246.9 3.214 8.894
5586.7 0.90579 10.02(7) 220.7 3.213 9.881
5589.5 0.90624 10.80(7) 204.4 3.212 10.657
5592.3 0.90669 11.19(7) 196.9 3.211 11.048
5595.1 0.90715 11.24(7) 195.6 3.210 11.023
5597.9 0.90760 10.75(7) 204.7 3.209 10.694
5600.7 0.90805 10.34(7) 212.6 3.208 10.250
5603.5 0.90851 9.99(7) 220.0 3.207 9.865
5606.3 0.90896 9.75(7) 225.2 3.206 9.628
5609.1 0.90942 9.63(7) 227.9 3.205 9.535
5611.9 0.90988 9.41(7) 233.1 3.204 9.505
5614.7 0.91033 9.31(7) 235.4 3.203 9.440
5617.5 0.91079 9.12(6) 240.1 3.202 9.285
5620.3 0.91124 8.89(6) 246.3 3.201 9.028
5623.1 0.91170 8.54(6) 256.2 3.200 8.672
5625.9 0.91215 8.11(6) 269.6 3.199 8.227
5628.8 0.91261 7.59(6) 288.1 3.198 7.747
5631.6 0.91307 7.09(6) 308.5 3.197 7.245
5634.4 0.91353 6.60(5) 331.4 3.196 6.745
5637.2 0.91398 6.13(5) 356. 3.195 6.268
5640.0 0.91444 5.71(5) 383. 3.193 5.823
5642.8 0.91490 5.27(5) 415. 3.192 5.421
5645.7 0.91535 4.89(5) 446. 3.191 5.064
5648.5 0.91582 4.60(5) 475. 3.190 4.757
5651.3 0.91627 4.38(4) 498. 3.189 4.498
5654.2 0.91673 4.20(4) 519. 3.188 4.281
5657.0 0.91719 4.04(4) 539. 3.187 4.102
5659.8 0.91765 3.87(4) 563. 3.186 3.953
5662.6 0.91811 3.75(4) 581. 3.185 3.830
5665.5 0.91857 3.64(4) 597. 3.184 3.729
5668.3 0.91903 3.57(4) 608. 3.183 3.645
5671.1 0.91949 3.49(4) 621. 3.182 3.577
5674.0 0.91995 3.46(4) 627. 3.181 3.521
5676.8 0.92041 3.42(4) 633. 3.180 3.475
5679.6 0.92087 3.37(4) 642. 3.179 3.438
5682.5 0.92133 3.33(4) 648. 3.178 3.409
5685.3 0.92179 3.34(4) 647. 3.177 3.386
5688.2 0.92225 3.35(4) 642. 3.176 3.368
5691.0 0.92272 3.32(4) 649. 3.175 3.356
5693.8 0.92318 3.30(4) 650. 3.174 3.348
5696.7 0.92364 3.29(4) 653. 3.173 3.346
5699.5 0.92410 3.32(4) 646. 3.171 3.351
5702.4 0.92457 3.36(4) 638. 3.170 3.368
5705.3 0.92503 3.41(4) 627. 3.169 3.413
5708.1 0.92549 3.44(4) 621. 3.168 3.518
5710.9 0.92595 3.62(4) 590. 3.167 3.745
5713.8 0.92642 4.05(4) 526. 3.166 4.183
5716.7 0.92688 4.81(5) 442. 3.165 4.923
5719.5 0.92735 5.98(5) 354. 3.164 6.008
5722.4 0.92781 7.43(6) 283.3 3.163 7.365
5725.3 0.92828 8.83(6) 237.6 3.162 8.781
5728.1 0.92874 10.03(7) 208.3 3.161 9.957
5731.0 0.92920 10.81(7) 192.9 3.160 10.656
5733.8 0.92967 10.97(7) 189.8 3.158 10.809
5736.7 0.93014 10.68(7) 194.9 3.157 10.524
5739.6 0.93060 10.14(7) 205.2 3.156 9.985
5742.4 0.93107 9.48(7) 219.6 3.155 9.361
5745.3 0.93153 8.91(7) 233.6 3.154 8.778
5748.2 0.93200 8.38(6) 248.4 3.153 8.296
5751.1 0.93247 7.94(6) 262.1 3.152 7.927
5753.9 0.93293 7.61(6) 273.3 3.151 7.641
5756.8 0.93340 7.34(6) 283.0 3.150 7.372
5759.7 0.93387 7.03(6) 295.3 3.149 7.073
5762.6 0.93433 6.69(6) 310.3 3.148 6.716
5765.4 0.93480 6.28(5) 330.8 3.146 6.306
5768.3 0.93527 5.86(5) 354. 3.145 5.879
5771.2 0.93574 5.44(5) 381. 3.144 5.468
5774.1 0.93621 5.04(5) 411. 3.143 5.093
5777.0 0.93668 4.78(5) 433. 3.142 4.765
5779.9 0.93714 4.50(5) 460. 3.141 4.489
5782.8 0.93762 4.27(5) 485. 3.140 4.258
5785.7 0.93808 4.04(4) 512. 3.139 4.067
5788.6 0.93855 3.87(4) 533. 3.138 3.908
5791.4 0.93902 3.77(4) 548. 3.136 3.777
5794.3 0.93949 3.68(4) 561. 3.135 3.669
5797.3 0.93996 3.60(4) 573. 3.134 3.580
5800.1 0.94043 3.54(4) 581. 3.133 3.506
5803.0 0.94090 3.46(4) 593. 3.132 3.445
5805.9 0.94137 3.40(4) 604. 3.131 3.394
5808.8 0.94185 3.41(4) 600. 3.130 3.352
5811.8 0.94232 3.38(4) 606. 3.129 3.317
5814.7 0.94279 3.36(4) 609. 3.127 3.288
5817.6 0.94326 3.40(4) 600. 3.126 3.264
5820.5 0.94373 3.42(4) 597. 3.125 3.244
5823.4 0.94421 3.35(4) 609. 3.124 3.227
5826.3 0.94468 3.31(4) 616. 3.123 3.213
5829.2 0.94515 3.29(4) 619. 3.122 3.201
5832.1 0.94563 3.26(4) 623. 3.121 3.191
5835.0 0.94610 3.24(4) 627. 3.120 3.183
5837.9 0.94657 3.22(4) 630. 3.118 3.176
5840.9 0.94705 3.21(4) 630. 3.117 3.171
5843.8 0.94752 3.21(4) 630. 3.116 3.166
5846.7 0.94800 3.19(4) 634. 3.115 3.162
5849.6 0.94847 3.17(4) 637. 3.114 3.160
5852.6 0.94894 3.15(4) 640. 3.113 3.157
5855.5 0.94942 3.17(4) 635. 3.112 3.156
5858.4 0.94989 3.15(4) 637. 3.110 3.156
5861.3 0.95037 3.14(4) 638. 3.109 3.156
5864.3 0.95085 3.15(4) 638. 3.108 3.159
5867.2 0.95132 3.16(4) 633. 3.107 3.165
5870.2 0.95180 3.20(4) 626. 3.106 3.179
5873.1 0.95227 3.20(4) 625. 3.105 3.210
5876.0 0.95275 3.21(4) 622. 3.104 3.277
5878.9 0.95323 3.35(4) 594. 3.102 3.402
5881.9 0.95370 3.59(4) 554. 3.101 3.610
5884.8 0.95418 3.91(4) 507. 3.100 3.909
5887.8 0.95466 4.35(5) 455. 3.099 4.277
5890.7 0.95514 4.78(5) 414. 3.098 4.664
5893.7 0.95562 5.08(5) 389. 3.097 5.001
5896.6 0.95610 5.36(5) 368. 3.096 5.237
5899.6 0.95657 5.52(5) 356. 3.094 5.348
5902.5 0.95705 5.50(5) 357. 3.093 5.339
5905.5 0.95753 5.38(5) 365. 3.092 5.239
5908.4 0.95801 5.22(5) 376. 3.091 5.086
5911.4 0.95849 5.02(5) 390. 3.090 4.916
5914.3 0.95897 4.85(5) 404. 3.089 4.756
5917.3 0.95945 4.69(5) 417. 3.087 4.624
5920.3 0.95993 4.57(5) 427. 3.086 4.529
5923.2 0.96041 4.47(5) 437. 3.085 4.464
5926.2 0.96089 4.38(5) 445. 3.084 4.425
5929.1 0.96137 4.34(5) 448. 3.083 4.402
5932.1 0.96186 4.31(5) 452. 3.082 4.397
5935.1 0.96234 4.31(5) 451. 3.081 4.406
5938.0 0.96282 4.26(5) 456. 3.079 4.412
5941.0 0.96330 4.25(5) 456. 3.078 4.401
5944.0 0.96378 4.23(5) 458. 3.077 4.362
5946.9 0.96427 4.12(5) 469. 3.076 4.286
5949.9 0.96475 4.01(5) 482. 3.075 4.191
5952.9 0.96523 3.95(5) 489. 3.074 4.097
5955.8 0.96571 3.86(4) 500. 3.073 4.014
5958.8 0.96620 3.81(4) 506. 3.071 3.947
5961.8 0.96668 3.74(4) 514. 3.070 3.887
5964.8 0.96716 3.65(4) 527. 3.069 3.824
5967.8 0.96765 3.60(4) 533. 3.068 3.753
5970.8 0.96813 3.58(4) 535. 3.067 3.674
5973.8 0.96862 3.51(4) 545. 3.066 3.593
5976.7 0.96910 3.45(4) 555. 3.064 3.515
5979.7 0.96959 3.37(4) 567. 3.063 3.445
5982.7 0.97007 3.33(4) 573. 3.062 3.384
5985.7 0.97056 3.28(4) 581. 3.061 3.333
5988.7 0.97104 3.25(4) 585. 3.060 3.290
5991.7 0.97153 3.20(4) 595. 3.059 3.255
5994.7 0.97202 3.16(4) 602. 3.058 3.226
5997.7 0.97250 3.15(4) 603. 3.056 3.203
6000.7 0.97299 3.16(4) 599. 3.055 3.184
6003.7 0.97348 3.15(4) 601. 3.054 3.168
6006.7 0.97397 3.10(4) 610. 3.053 3.156
6009.7 0.97445 3.12(4) 606. 3.052 3.146
6012.7 0.97494 3.10(4) 609. 3.051 3.138
6015.7 0.97543 3.09(4) 609. 3.049 3.133
6018.7 0.97592 3.12(4) 604. 3.048 3.129
6021.7 0.97641 3.08(4) 611. 3.047 3.127
6024.7 0.97689 3.10(4) 606. 3.046 3.126
6027.8 0.97739 3.13(4) 599. 3.045 3.127
6030.8 0.97787 3.10(4) 604. 3.044 3.130
6033.8 0.97836 3.10(4) 604. 3.043 3.134
6036.8 0.97885 3.14(4) 595. 3.041 3.140
6039.8 0.97934 3.16(4) 590. 3.040 3.149
6042.8 0.97983 3.11(4) 599. 3.039 3.162
6045.8 0.98032 3.10(4) 600. 3.038 3.185
6048.9 0.98081 3.14(4) 592. 3.037 3.230
6051.9 0.98131 3.22(4) 576. 3.036 3.327
6054.9 0.98179 3.42(4) 541. 3.035 3.537
6057.9 0.98229 3.79(5) 487. 3.033 3.954
6061.0 0.98278 4.55(5) 405. 3.032 4.690
6064.0 0.98327 5.70(6) 322.5 3.031 5.813
6067.0 0.98376 7.25(6) 252.4 3.030 7.278
6070.1 0.98425 8.96(7) 203.3 3.029 8.872
6073.1 0.98475 10.40(8) 174.6 3.028 10.256
6076.2 0.98524 11.23(8) 161.3 3.027 11.101
6079.2 0.98574 11.39(8) 158.9 3.025 11.277
6082.2 0.98623 10.99(8) 164.4 3.024 10.878
6085.3 0.98672 10.24(8) 176.5 3.023 10.115
6088.3 0.98722 9.32(7) 194.1 3.022 9.234
6091.3 0.98771 8.52(7) 212.3 3.021 8.437
6094.4 0.98821 7.90(7) 229.0 3.020 7.874
6097.4 0.98870 7.59(6) 238.3 3.019 7.636
6100.5 0.98920 7.67(7) 235.6 3.018 7.755
6103.5 0.98969 8.10(7) 222.3 3.016 8.177
6106.6 0.99019 8.73(7) 205.8 3.015 8.752
6109.7 0.99068 9.22(7) 194.4 3.014 9.244
6112.7 0.99117 9.48(7) 188.8 3.013 9.454
6115.8 0.99167 9.43(7) 189.6 3.012 9.303
6118.8 0.99217 9.07(7) 197.0 3.011 8.838
6121.9 0.99267 8.39(7) 212.9 3.010 8.179
6124.9 0.99316 7.64(7) 234.0 3.009 7.451
6128.0 0.99366 6.87(6) 260.1 3.007 6.747
6131.1 0.99416 6.19(6) 288.8 3.006 6.117
6134.1 0.99465 5.59(6) 319.6 3.005 5.579
6137.2 0.99515 5.12(5) 348.3 3.004 5.129
6140.3 0.99565 4.73(5) 377. 3.003 4.754
6143.3 0.99615 4.38(5) 407. 3.002 4.446
6146.4 0.99665 4.13(5) 431. 3.001 4.194
6149.5 0.99715 3.97(5) 448. 3.000 3.985
6152.6 0.99765 3.86(5) 460. 2.999 3.814
6155.6 0.99815 3.71(5) 478. 2.997 3.673
6158.7 0.99865 3.57(4) 496. 2.996 3.557
6161.8 0.99914 3.51(4) 505. 2.995 3.462
6164.9 0.99965 3.42(4) 517. 2.994 3.384
6167.9 1.00014 3.34(4) 530. 2.993 3.319
6171.0 1.00065 3.31(4) 533. 2.992 3.265
6174.1 1.00115 3.25(4) 543. 2.991 3.222
6177.2 1.00165 3.20(4) 552. 2.990 3.186
6180.3 1.00215 3.22(4) 546. 2.989 3.156
6183.4 1.00265 3.26(4) 539. 2.988 3.130
6186.5 1.00315 3.23(4) 543. 2.987 3.109
6189.6 1.00365 3.17(4) 553. 2.985 3.093
6192.7 1.00416 3.14(4) 557. 2.984 3.078
6195.8 1.00466 3.15(4) 554. 2.983 3.065
6198.8 1.00516 3.12(4) 560. 2.982 3.055
6202.0 1.00567 3.14(4) 555. 2.981 3.046
6205.1 1.00617 3.12(4) 559. 2.980 3.038
6208.2 1.00667 3.08(4) 565. 2.979 3.032
6211.3 1.00718 3.07(4) 565. 2.978 3.026
6214.4 1.00768 3.07(4) 565. 2.977 3.021
6217.5 1.00819 3.08(4) 562. 2.976 3.017
6220.6 1.00869 3.08(4) 562. 2.975 3.013
6223.7 1.00919 3.10(4) 558. 2.974 3.010
6226.8 1.00970 3.07(4) 562. 2.973 3.007
6229.9 1.01020 3.04(4) 566. 2.972 3.005
6233.0 1.01071 3.06(4) 562. 2.970 3.003
6236.2 1.01122 3.05(4) 563. 2.969 3.001
6239.3 1.01173 3.03(4) 567. 2.968 2.997
6242.4 1.01223 3.04(4) 565. 2.967 2.992
6245.5 1.01274 2.99(4) 573. 2.966 2.991
6248.6 1.01324 2.97(4) 576. 2.965 2.990
6251.8 1.01375 3.00(4) 570. 2.964 2.990
6254.9 1.01426 3.00(4) 569. 2.963 2.989
6258.0 1.01477 3.01(4) 565. 2.962 2.989
6261.1 1.01527 3.00(4) 567. 2.961 2.989
6264.3 1.01579 2.97(4) 573. 2.960 2.989
6267.4 1.01629 2.96(4) 573. 2.959 2.990
6270.5 1.01680 2.99(4) 566. 2.958 2.991
6273.7 1.01731 2.98(4) 568. 2.957 2.992
6276.8 1.01782 2.97(4) 568. 2.956 2.993
6279.9 1.01833 2.99(4) 565. 2.955 2.995
6283.1 1.01884 2.99(4) 563. 2.954 2.997
6286.2 1.01935 2.97(4) 566. 2.953 3.000
6289.4 1.01986 3.00(4) 560. 2.952 3.004
6292.5 1.02037 3.01(4) 557. 2.951 3.010
6295.7 1.02088 3.01(4) 557. 2.950 3.016
6298.8 1.02139 3.02(4) 555. 2.949 3.026
6302.0 1.02190 3.00(4) 556. 2.948 3.043
6305.1 1.02242 3.08(4) 542. 2.947 3.070
6308.3 1.02292 3.16(4) 528. 2.946 3.131
6311.4 1.02344 3.23(4) 515. 2.945 3.251
6314.6 1.02395 3.37(5) 493. 2.944 3.467
6317.7 1.02446 3.65(5) 455. 2.943 3.820
6320.9 1.02497 4.11(5) 403. 2.942 4.337
6324.1 1.02549 4.73(5) 349.6 2.941 5.009
6327.2 1.02600 5.52(6) 298.4 2.940 5.778
6330.4 1.02652 6.35(6) 258.8 2.939 6.559
6333.5 1.02703 7.12(7) 230.2 2.938 7.263
6336.7 1.02755 7.80(7) 209.6 2.937 7.821
6339.9 1.02806 8.15(7) 200.1 2.936 8.174
6343.0 1.02857 8.27(7) 197.0 2.935 8.302
6346.2 1.02909 8.28(7) 196.7 2.934 8.220
6349.4 1.02961 8.00(7) 203.2 2.933 7.986
6352.6 1.03012 7.64(7) 212.8 2.932 7.658
6355.8 1.03064 7.24(7) 224.4 2.931 7.277
6358.9 1.03115 6.77(6) 239.9 2.930 6.859
6362.1 1.03166 6.31(6) 257.3 2.929 6.411
6365.3 1.03218 5.80(6) 279.4 2.929 5.954
6368.5 1.03270 5.30(6) 305.7 2.928 5.508
6371.7 1.03322 4.92(6) 329.5 2.927 5.095
6374.8 1.03374 4.59(5) 352. 2.926 4.729
6378.0 1.03425 4.24(5) 381. 2.925 4.417
6381.2 1.03477 4.03(5) 400. 2.924 4.155
6384.4 1.03529 3.83(5) 421. 2.923 3.939
6387.6 1.03580 3.67(5) 439. 2.922 3.762
6390.8 1.03632 3.54(5) 455. 2.921 3.617
6394.0 1.03684 3.42(5) 470. 2.920 3.498
6397.2 1.03736 3.38(5) 475. 2.919 3.401
6400.4 1.03788 3.30(5) 486. 2.918 3.322
6403.6 1.03840 3.21(4) 500. 2.917 3.258
6406.8 1.03892 3.18(4) 502. 2.917 3.205
6410.0 1.03944 3.13(4) 509. 2.916 3.163
6413.2 1.03996 3.10(4) 514. 2.915 3.128
6416.4 1.04048 3.11(4) 513. 2.914 3.100
6419.6 1.04100 3.10(4) 513. 2.913 3.077
6422.8 1.04152 3.11(4) 510. 2.912 3.059
6426.0 1.04205 3.06(4) 519. 2.911 3.045
6429.3 1.04257 3.08(4) 515. 2.910 3.034
6432.4 1.04309 3.12(4) 508. 2.910 3.026
6435.7 1.04361 3.15(4) 502. 2.909 3.021
6438.9 1.04413 3.14(4) 502. 2.908 3.017
6442.1 1.04465 3.06(4) 515. 2.907 3.016
6445.3 1.04518 3.03(4) 519. 2.906 3.017
6448.6 1.04570 3.01(4) 523. 2.905 3.019
6451.8 1.04623 2.98(4) 526. 2.904 3.024
6455.0 1.04675 3.00(4) 522. 2.904 3.031
6458.2 1.04727 3.01(4) 519. 2.903 3.040
6461.5 1.04780 3.04(4) 514. 2.902 3.053
6464.7 1.04832 3.04(4) 515. 2.901 3.072
6467.9 1.04884 3.13(4) 498. 2.900 3.102
6471.2 1.04937 3.17(5) 491. 2.899 3.155
6474.4 1.04989 3.17(5) 489. 2.899 3.260
6477.6 1.05042 3.39(5) 458. 2.898 3.468
6480.9 1.05095 3.76(5) 411. 2.897 3.853
6484.1 1.05147 4.37(5) 354. 2.896 4.509
6487.3 1.05200 5.40(6) 285.3 2.895 5.524
6490.6 1.05253 6.87(7) 223.5 2.894 6.918
6493.8 1.05305 8.53(7) 179.3 2.894 8.611
6497.1 1.05358 10.31(8) 147.6 2.893 10.424
6500.3 1.05411 12.17(9) 124.6 2.892 12.126
6503.6 1.05464 13.57(9) 111.4 2.891 13.500
6506.8 1.05517 14.44(10) 104.4 2.890 14.427
6510.1 1.05569 15.10(10) 99.6 2.890 14.912
6513.3 1.05622 15.21(10) 98.8 2.889 15.010
6516.6 1.05675 14.86(10) 101.0 2.888 14.742
6519.8 1.05728 14.05(10) 106.8 2.887 14.107
6523.1 1.05781 13.13(9) 114.2 2.887 13.149
6526.4 1.05834 11.99(9) 125.2 2.886 11.972
6529.7 1.05887 10.66(8) 140.8 2.885 10.706
6532.9 1.05940 9.34(8) 160.9 2.884 9.473
6536.2 1.05993 8.19(7) 183.4 2.884 8.354
6539.4 1.06046 7.16(7) 209.9 2.883 7.385
6542.7 1.06099 6.34(6) 237.0 2.882 6.574
6546.0 1.06152 5.68(6) 264.4 2.881 5.904
6549.3 1.06205 5.17(6) 290.5 2.881 5.353
6552.5 1.06258 4.74(6) 315.9 2.880 4.903
6555.8 1.06312 4.34(5) 344.8 2.879 4.536
6559.1 1.06365 4.12(5) 364. 2.878 4.237
6562.4 1.06418 3.91(5) 382. 2.878 3.994
6565.7 1.06471 3.68(5) 405. 2.877 3.795
6568.9 1.06525 3.58(5) 416. 2.876 3.633
6572.2 1.06578 3.51(5) 425. 2.876 3.501
6575.5 1.06631 3.42(5) 435. 2.875 3.393
6578.8 1.06684 3.34(5) 445. 2.874 3.304
6582.1 1.06738 3.27(5) 454. 2.874 3.232
6585.4 1.06791 3.23(5) 459. 2.873 3.172
6588.7 1.06845 3.19(5) 464. 2.872 3.123
6591.9 1.06898 3.16(5) 468. 2.871 3.083
6595.3 1.06952 3.16(5) 467. 2.871 3.050
6598.5 1.07005 3.14(5) 470. 2.870 3.023
6601.8 1.07059 3.15(5) 467. 2.869 3.001
6605.2 1.07113 3.17(5) 464. 2.869 2.982
6608.4 1.07166 3.15(5) 466. 2.868 2.966
6611.8 1.07220 3.09(5) 474. 2.867 2.953
6615.1 1.07273 3.03(5) 483. 2.867 2.942
6618.4 1.07327 2.99(5) 489. 2.866 2.932
6621.7 1.07381 2.97(5) 491. 2.866 2.924
6625.0 1.07435 2.99(5) 488. 2.865 2.917
6628.3 1.07489 2.96(5) 492. 2.864 2.912
6631.6 1.07542 2.95(5) 492. 2.864 2.907
6634.9 1.07596 2.92(4) 496. 2.863 2.904
6638.3 1.07650 2.92(4) 496. 2.862 2.901
6641.6 1.07704 2.90(4) 498. 2.862 2.897
6644.9 1.07757 2.90(4) 499. 2.861 2.895
6648.2 1.07812 2.92(4) 494. 2.861 2.892
6651.5 1.07866 2.92(5) 494. 2.860 2.890
6654.8 1.07919 2.90(4) 496. 2.859 2.889
6658.2 1.07974 2.92(5) 493. 2.859 2.888
6661.5 1.08027 2.92(5) 491. 2.858 2.883
6664.8 1.08082 2.91(5) 493. 2.858 2.882
6668.2 1.08136 2.90(5) 494. 2.857 2.881
6671.5 1.08190 2.86(4) 500. 2.856 2.880
6674.8 1.08244 2.90(5) 492. 2.856 2.879
6678.2 1.08298 2.92(5) 488. 2.855 2.879
6681.5 1.08353 2.87(4) 496. 2.855 2.878
6684.9 1.08407 2.89(5) 491. 2.854 2.878
6688.2 1.08461 2.91(5) 488. 2.854 2.878
6691.6 1.08515 2.91(5) 487. 2.853 2.878
6694.9 1.08570 2.92(5) 484. 2.852 2.878
6698.3 1.08624 2.92(5) 484. 2.852 2.876
6701.6 1.08678 2.90(5) 486. 2.851 2.875
6704.9 1.08733 2.90(5) 485. 2.851 2.876
6708.3 1.08787 2.94(5) 478. 2.850 2.879
6711.7 1.08842 2.93(5) 479. 2.850 2.882
6715.0 1.08896 2.84(5) 493. 2.849 2.891
6718.4 1.08951 2.86(5) 490. 2.849 2.914
6721.7 1.09005 2.92(5) 478. 2.848 2.956
6725.1 1.09060 3.03(5) 461. 2.848 3.024
6728.4 1.09114 3.17(5) 439. 2.847 3.122
6731.8 1.09169 3.33(5) 418. 2.847 3.243
6735.2 1.09224 3.50(5) 397. 2.846 3.370
6738.5 1.09278 3.57(5) 388. 2.846 3.482
6741.9 1.09333 3.58(5) 386. 2.845 3.568
6745.3 1.09388 3.60(5) 384. 2.845 3.625
6748.7 1.09442 3.61(5) 383. 2.844 3.662
6752.0 1.09497 3.61(5) 382. 2.844 3.690
6755.4 1.09552 3.61(5) 381. 2.843 3.718
6758.8 1.09607 3.62(5) 379. 2.843 3.750
6762.2 1.09662 3.61(5) 380. 2.842 3.777
6765.5 1.09716 3.65(5) 376. 2.842 3.784
6768.9 1.09772 3.65(5) 375. 2.842 3.759
6772.3 1.09826 3.55(5) 385. 2.841 3.705
6775.7 1.09881 3.49(5) 391. 2.841 3.635
6779.1 1.09937 3.43(5) 397. 2.840 3.576
6782.5 1.09991 3.40(5) 401. 2.840 3.565
6785.9 1.10047 3.47(5) 392. 2.839 3.647
6789.3 1.10101 3.72(5) 365. 2.839 3.869
6792.7 1.10157 4.20(6) 322.4 2.838 4.263
6796.1 1.10212 4.74(6) 284.8 2.838 4.806
6799.4 1.10267 5.38(6) 250.5 2.838 5.417
6802.8 1.10322 5.84(7) 230.4 2.837 5.975
6806.3 1.10377 6.30(7) 213.0 2.837 6.366
6809.7 1.10433 6.66(7) 201.1 2.836 6.564
6813.1 1.10488 6.75(7) 198.1 2.836 6.612
6816.5 1.10543 6.78(7) 197.1 2.836 6.578
6819.9 1.10599 6.72(7) 198.6 2.835 6.498
6823.3 1.10654 6.58(7) 202.3 2.835 6.367
6826.7 1.10709 6.44(7) 206.7 2.835 6.164
6830.1 1.10765 6.16(7) 215.9 2.834 5.888
6833.5 1.10820 5.72(7) 232.3 2.834 5.563
6836.9 1.10876 5.32(6) 249.3 2.833 5.221
6840.4 1.10931 4.91(6) 269.7 2.833 4.891
6843.8 1.10987 4.52(6) 293.0 2.833 4.589
6847.2 1.11042 4.23(6) 313.0 2.832 4.316
6850.6 1.11098 4.00(6) 330.1 2.832 4.073
6854.1 1.11154 3.82(5) 344.9 2.832 3.861
6857.5 1.11209 3.54(5) 372. 2.831 3.700
6860.9 1.11265 3.37(5) 390. 2.831 3.554
6864.3 1.11321 3.30(5) 398. 2.831 3.428
6867.8 1.11376 3.26(5) 402. 2.830 3.324
6871.2 1.11432 3.18(5) 412. 2.830 3.241
6874.6 1.11488 3.12(5) 420. 2.830 3.173
6878.1 1.11543 3.05(5) 429. 2.829 3.118
6881.5 1.11600 3.03(5) 431. 2.829 3.074
6885.0 1.11655 3.01(5) 434. 2.829 3.038
6888.4 1.11711 2.99(5) 436. 2.828 3.010
6891.8 1.11767 2.99(5) 435. 2.828 2.987
6895.3 1.11823 2.93(5) 442. 2.828 2.969
6898.8 1.11879 2.89(5) 449. 2.828 2.955
6902.2 1.11935 2.92(5) 443. 2.827 2.944
6905.6 1.11991 2.92(5) 442. 2.827 2.935
6909.1 1.12047 2.89(5) 447. 2.827 2.929
6912.5 1.12103 2.86(5) 450. 2.826 2.925
6916.0 1.12159 2.88(5) 446. 2.826 2.922
6919.5 1.12216 2.93(5) 438. 2.826 2.920
6922.9 1.12271 2.89(5) 443. 2.826 2.920
6926.4 1.12328 2.91(5) 440. 2.825 2.920
6929.8 1.12384 2.95(5) 434. 2.825 2.922
6933.3 1.12440 2.90(5) 440. 2.825 2.925
6936.8 1.12497 2.88(5) 442. 2.825 2.928
6940.3 1.12553 2.85(5) 447. 2.824 2.933
6943.7 1.12609 2.88(5) 441. 2.824 2.938
6947.2 1.12666 2.92(5) 435. 2.824 2.945
6950.7 1.12722 2.90(5) 437. 2.824 2.953
6954.1 1.12778 2.90(5) 437. 2.823 2.962
6957.6 1.12835 2.92(5) 433. 2.823 2.973
6961.1 1.12891 2.90(5) 435. 2.823 2.985
6964.6 1.12948 2.91(5) 432. 2.823 3.000
6968.1 1.13005 2.93(5) 429. 2.823 3.016
6971.5 1.13061 2.99(5) 420. 2.822 3.036
6975.0 1.13118 3.00(5) 418. 2.822 3.062
6978.5 1.13174 3.00(5) 417. 2.822 3.092
6982.0 1.13231 3.06(5) 409. 2.822 3.129
6985.5 1.13288 3.07(5) 406. 2.822 3.176
6989.0 1.13344 3.17(5) 393. 2.821 3.238
6992.5 1.13401 3.30(5) 377. 2.821 3.331
6996.0 1.13458 3.48(5) 357. 2.821 3.496
6999.5 1.13514 3.81(6) 325.2 2.821 3.830
7003.0 1.13571 4.40(6) 280.7 2.821 4.530
7006.5 1.13628 5.61(7) 219.9 2.820 5.919
7010.0 1.13685 7.99(8) 153.5 2.820 8.407
7013.5 1.13742 12.02(10) 101.4 2.820 12.344
7017.0 1.13799 17.65(12) 68.5 2.820 17.695
7020.5 1.13856 24.05(14) 49.9 2.820 23.803
7024.0 1.13913 29.83(16) 39.9 2.820 29.494
7027.5 1.13970 33.64(17) 35.1 2.820 33.381
7031.0 1.14027 35.02(17) 33.66 2.819 34.694
7034.6 1.14084 34.07(17) 34.58 2.819 33.533
7038.1 1.14141 31.04(16) 38.0 2.819 30.614
7041.6 1.14198 27.43(15) 43.2 2.819 26.837
7045.1 1.14255 23.27(14) 51.0 2.819 22.937
7048.6 1.14313 19.28(13) 61.8 2.819 19.346
7052.2 1.14370 15.92(12) 75.1 2.819 16.264
7055.7 1.14427 13.13(10) 91.2 2.818 13.711
7059.2 1.14485 10.98(10) 109.1 2.818 11.630
7062.8 1.14542 9.31(9) 128.8 2.818 9.947
7066.3 1.14599 7.84(8) 152.9 2.818 8.589
7069.8 1.14656 6.80(8) 176.4 2.818 7.494
7073.3 1.14714 6.05(7) 197.9 2.818 6.611
7076.9 1.14771 5.41(7) 221.3 2.818 5.899
7080.4 1.14828 4.95(6) 241.6 2.818 5.325
7083.9 1.14886 4.68(6) 255.2 2.818 4.860
7087.5 1.14944 4.46(6) 267.8 2.818 4.485
7091.0 1.15001 4.27(6) 278.7 2.817 4.182
7094.6 1.15059 4.00(6) 297.6 2.817 3.938
7098.1 1.15116 3.80(6) 312.6 2.817 3.740
7101.7 1.15174 3.70(6) 321.0 2.817 3.580
7105.2 1.15231 3.65(6) 324.7 2.817 3.450
7108.8 1.15289 3.59(6) 329.7 2.817 3.345
7112.3 1.15347 3.47(5) 341.1 2.817 3.259
7115.9 1.15405 3.37(5) 349.8 2.817 3.189
7119.4 1.15462 3.34(5) 353. 2.817 3.132
7123.0 1.15520 3.31(5) 356. 2.817 3.085
7126.6 1.15578 3.26(5) 361. 2.817 3.046
7130.1 1.15636 3.25(5) 361. 2.817 3.015
7133.7 1.15694 3.16(5) 371. 2.817 2.988
7137.3 1.15752 3.13(5) 373. 2.817 2.967
7140.8 1.15810 3.10(5) 377. 2.817 2.949
7144.4 1.15868 3.10(5) 376. 2.817 2.934
7148.0 1.15925 3.11(5) 374. 2.817 2.921
7151.6 1.15984 3.05(5) 381. 2.816 2.910
7155.1 1.16042 3.03(5) 384. 2.816 2.901
7158.7 1.16100 3.02(5) 383. 2.816 2.905
7162.3 1.16158 2.99(5) 387. 2.816 2.914
7165.9 1.16216 2.95(5) 392. 2.816 2.909
7169.4 1.16274 2.95(5) 391. 2.816 2.905
7173.0 1.16332 2.96(5) 390. 2.816 2.902
7176.6 1.16391 3.00(5) 384. 2.816 2.899
7180.2 1.16449 3.01(5) 381. 2.816 2.897
7183.8 1.16507 3.01(5) 381. 2.816 2.896
7187.4 1.16566 3.02(5) 379. 2.816 2.895
7191.0 1.16624 3.01(5) 381. 2.816 2.894
7194.6 1.16682 2.97(5) 385. 2.816 2.894
7198.2 1.16741 3.00(5) 381. 2.816 2.894
7201.8 1.16799 2.99(5) 381. 2.816 2.894
7205.4 1.16857 2.90(5) 392. 2.816 2.894
7209.0 1.16916 2.92(5) 389. 2.816 2.895
7212.6 1.16975 2.94(5) 386. 2.816 2.897
7216.2 1.17033 2.87(5) 394. 2.816 2.898
7219.8 1.17092 2.91(5) 389. 2.816 2.886
7223.4 1.17150 2.91(5) 387. 2.816 2.877
7227.0 1.17209 2.98(5) 379. 2.816 2.881
7230.6 1.17267 2.99(5) 377. 2.816 2.885
7234.3 1.17326 2.97(5) 378. 2.816 2.889
7237.9 1.17385 2.91(5) 386. 2.816 2.894
7241.5 1.17444 2.90(5) 386. 2.817 2.900
7245.1 1.17502 2.87(5) 390. 2.817 2.906
7248.7 1.17561 2.93(5) 381. 2.817 2.916
7252.3 1.17620 2.94(5) 380. 2.817 2.925
7256.0 1.17679 2.92(5) 381. 2.817 2.934
7259.6 1.17738 2.96(5) 375. 2.817 2.945
7263.3 1.17797 3.01(5) 369. 2.817 2.957
7266.9 1.17856 3.03(5) 365. 2.817 2.970
7270.5 1.17915 3.02(5) 367. 2.817 2.986
7274.1 1.17974 3.02(5) 365. 2.817 3.004
7277.8 1.18033 3.05(5) 361. 2.817 3.026
7281.4 1.18092 3.07(5) 358. 2.817 3.052
7285.1 1.18151 3.11(5) 354. 2.817 3.084
7288.7 1.18210 3.12(5) 352. 2.817 3.125
7292.3 1.18269 3.16(5) 346.6 2.817 3.185
7296.0 1.18329 3.27(5) 334.5 2.817 3.285
7299.6 1.18388 3.44(6) 317.8 2.817 3.483
7303.3 1.18447 3.81(6) 286.0 2.817 3.901
7306.9 1.18506 4.67(7) 233.1 2.817 4.746
7310.6 1.18566 6.12(8) 177.2 2.818 6.295
7314.3 1.18625 8.70(9) 124.1 2.818 8.784
7317.9 1.18684 12.35(11) 87.0 2.818 12.230
7321.6 1.18744 16.75(13) 63.8 2.818 16.255
7325.2 1.18803 20.55(14) 51.7 2.818 20.071
7328.9 1.18863 23.14(15) 45.7 2.818 22.794
7332.6 1.18922 24.47(15) 43.1 2.818 23.899
7336.2 1.18982 23.97(15) 44.0 2.818 23.526
7339.9 1.19041 22.66(15) 46.5 2.818 22.292
7343.6 1.19101 21.31(14) 49.4 2.818 20.976
7347.2 1.19160 20.53(14) 51.3 2.818 20.190
7350.9 1.19220 20.37(14) 51.6 2.818 20.166
7354.6 1.19280 20.86(14) 50.3 2.819 20.694
7358.3 1.19339 21.28(14) 49.2 2.819 21.234
7361.9 1.19399 21.17(14) 49.4 2.819 21.214
7365.6 1.19459 20.28(14) 51.6 2.819 20.366
7369.3 1.19519 18.77(13) 55.7 2.819 18.774
7373.0 1.19578 16.67(13) 62.8 2.819 16.723
7376.7 1.19638 14.49(12) 72.3 2.819 14.553
7380.3 1.19698 12.37(11) 84.7 2.819 12.513
7384.0 1.19758 10.54(10) 99.5 2.819 10.733
7387.8 1.19818 8.98(9) 116.7 2.819 9.265
7391.4 1.19878 7.91(9) 132.5 2.819 8.116
7395.1 1.19938 7.04(8) 148.8 2.820 7.280
7398.8 1.19998 6.52(8) 160.4 2.820 6.770
7402.5 1.20058 6.44(8) 162.1 2.820 6.614
7406.2 1.20118 6.68(8) 156.0 2.820 6.806
7409.9 1.20179 7.13(8) 146.0 2.820 7.271
7413.6 1.20239 7.71(9) 134.8 2.820 7.841
7417.3 1.20299 8.22(9) 126.1 2.820 8.294
7421.1 1.20359 8.50(9) 121.8 2.820 8.448
7424.8 1.20419 8.33(9) 124.1 2.820 8.257
7428.5 1.20480 7.88(9) 130.9 2.821 7.786
7432.2 1.20540 7.27(8) 141.9 2.821 7.156
7435.9 1.20600 6.64(8) 155.1 2.821 6.485
7439.6 1.20661 5.99(8) 171.8 2.821 5.855
7443.3 1.20721 5.37(7) 191.7 2.821 5.303
7447.1 1.20781 4.93(7) 208.4 2.821 4.840
7450.8 1.20842 4.60(7) 223.2 2.821 4.459
7454.5 1.20902 4.26(6) 240.7 2.821 4.149
7458.3 1.20963 3.99(6) 256.3 2.822 3.900
7462.0 1.21023 3.83(6) 266.7 2.822 3.700
7465.7 1.21084 3.64(6) 280.8 2.822 3.539
7469.4 1.21145 3.54(6) 287.8 2.822 3.410
7473.2 1.21205 3.49(6) 291.9 2.822 3.306
7476.9 1.21266 3.35(6) 303.1 2.822 3.222
7480.6 1.21326 3.18(6) 318.9 2.822 3.155
7484.4 1.21387 3.17(6) 320.1 2.822 3.101
7488.1 1.21448 3.24(6) 312.3 2.823 3.057
7491.9 1.21509 3.20(6) 316.2 2.823 3.021
7495.6 1.21570 3.12(6) 323.2 2.823 2.992
7499.4 1.21631 3.05(6) 330.4 2.823 2.969
7503.1 1.21692 3.08(6) 326.6 2.823 2.949
7506.9 1.21753 3.15(6) 319.5 2.823 2.934
7510.6 1.21813 3.13(6) 320.7 2.823 2.923
7514.4 1.21874 3.04(6) 329.1 2.823 2.915
7518.1 1.21935 3.05(6) 327.9 2.824 2.907
7521.9 1.21996 3.01(5) 331.8 2.824 2.892
7525.7 1.22057 2.99(5) 333.0 2.824 2.883
7529.4 1.22118 3.00(5) 331.4 2.824 2.879
7533.2 1.22180 2.98(5) 333.6 2.824 2.876
7536.9 1.22241 2.98(5) 333.0 2.824 2.873
7540.7 1.22302 2.97(5) 333.6 2.824 2.870
7544.5 1.22363 2.96(5) 334.3 2.825 2.869
7548.3 1.22424 2.93(5) 337.9 2.825 2.867
7552.0 1.22486 2.93(5) 336.9 2.825 2.866
7555.8 1.22547 2.96(5) 332.7 2.825 2.850
7559.6 1.22608 2.94(5) 334.0 2.825 2.850
7563.4 1.22670 2.93(5) 335.0 2.825 2.851
7567.2 1.22731 2.92(5) 336.3 2.825 2.851
7570.9 1.22793 2.90(5) 337.3 2.825 2.852
7574.7 1.22854 2.86(5) 341.6 2.826 2.852
7578.5 1.22915 2.84(5) 343.6 2.826 2.853
7582.3 1.22977 2.87(5) 340.2 2.826 2.854
7586.1 1.23039 2.85(5) 341.9 2.826 2.856
7589.9 1.23100 2.86(5) 340.2 2.826 2.857
7593.7 1.23162 2.86(5) 338.9 2.826 2.859
7597.5 1.23223 2.93(6) 330.2 2.826 2.861
7601.3 1.23285 2.98(6) 324.3 2.826 2.863
7605.1 1.23347 3.02(6) 319.8 2.827 2.866
7608.9 1.23409 3.09(6) 312.5 2.827 2.869
7612.7 1.23470 3.17(6) 303.3 2.827 2.872
7616.5 1.23532 3.25(6) 295.7 2.827 2.876
7620.3 1.23594 3.33(6) 287.9 2.827 2.881
7624.1 1.23656 3.35(6) 285.8 2.827 2.887
7627.9 1.23718 3.39(6) 281.8 2.827 2.893
7631.7 1.23780 3.39(6) 282.1 2.828 2.898
7635.5 1.23841 3.36(6) 284.3 2.828 2.907
7639.3 1.23903 3.33(6) 286.5 2.828 2.920
7643.2 1.23966 3.26(6) 292.3 2.828 2.937
7647.0 1.24028 3.27(6) 290.5 2.828 2.966
7650.8 1.24090 3.20(6) 296.6 2.828 3.023
7654.7 1.24152 3.21(6) 294.9 2.828 3.146
7658.5 1.24214 3.43(6) 275.9 2.828 3.405
7662.3 1.24276 3.81(6) 247.8 2.828 3.900
7666.1 1.24338 4.62(7) 203.7 2.829 4.735
7670.0 1.24401 5.83(8) 161.1 2.829 5.959
7673.8 1.24463 7.26(9) 129.1 2.829 7.466
7677.6 1.24525 8.91(10) 104.8 2.829 9.002
7681.5 1.24587 9.98(10) 93.4 2.829 10.219
7685.3 1.24650 10.49(11) 88.7 2.829 10.836
7689.2 1.24712 10.54(11) 88.1 2.829 10.786
7693.0 1.24775 9.94(10) 93.4 2.829 10.211
7696.8 1.24837 9.14(10) 101.4 2.830 9.360
7700.7 1.24899 8.38(10) 110.6 2.830 8.483
7704.6 1.24962 7.65(9) 121.0 2.830 7.780
7708.4 1.25025 7.13(9) 129.6 2.830 7.359
7712.3 1.25087 6.94(9) 133.1 2.830 7.227
7716.1 1.25150 6.95(9) 132.7 2.830 7.308
7720.0 1.25212 7.10(9) 129.5 2.830 7.445
7723.8 1.25275 7.19(9) 127.8 2.830 7.472
7727.7 1.25338 6.91(9) 132.8 2.830 7.294
7731.6 1.25401 6.63(9) 138.4 2.831 6.912
7735.4 1.25464 6.32(8) 144.8 2.831 6.399
7739.3 1.25526 5.71(8) 160.3 2.831 5.841
7743.2 1.25589 5.14(7) 177.8 2.831 5.306
7747.0 1.25652 4.60(7) 198.4 2.831 4.836
7750.9 1.25715 4.28(7) 212.7 2.831 4.443
7754.8 1.25778 3.97(7) 229.1 2.831 4.124
7758.7 1.25841 3.65(6) 248.9 2.831 3.868
7762.5 1.25903 3.50(6) 259.2 2.831 3.663
7766.4 1.25966 3.35(6) 270.7 2.831 3.500
7770.3 1.26030 3.21(6) 281.6 2.832 3.370
7774.2 1.26093 3.19(6) 283.4 2.832 3.267
7778.1 1.26156 3.10(6) 290.7 2.832 3.184
7782.0 1.26219 3.05(6) 295.3 2.832 3.118
7785.8 1.26282 3.01(6) 298.7 2.832 3.066
7789.8 1.26345 3.00(6) 299.0 2.832 3.024
7793.7 1.26409 2.98(6) 301.1 2.832 2.990
7797.5 1.26472 2.94(6) 304.1 2.832 2.963
7801.4 1.26535 2.89(6) 309.6 2.832 2.942
7805.3 1.26599 2.86(6) 311.9 2.832 2.924
7809.3 1.26662 2.89(6) 308.2 2.832 2.910
7813.2 1.26725 2.91(6) 306.3 2.832 2.899
7817.1 1.26789 2.86(6) 311.3 2.833 2.889
7821.0 1.26852 2.89(6) 307.4 2.833 2.882
7824.9 1.26916 2.92(6) 303.6 2.833 2.876
7828.8 1.26979 2.88(6) 306.8 2.833 2.870
7832.7 1.27042 2.85(6) 310.1 2.833 2.866
7836.6 1.27106 2.85(6) 309.3 2.833 2.863
7840.5 1.27170 2.84(6) 309.8 2.833 2.860
7844.5 1.27234 2.84(6) 309.6 2.833 2.857
7848.4 1.27297 2.90(6) 303.3 2.833 2.855
7852.3 1.27361 2.83(6) 309.9 2.833 2.853
7856.2 1.27425 2.83(6) 309.5 2.833 2.852
7860.2 1.27488 2.84(6) 307.6 2.833 2.850
7864.1 1.27552 2.79(6) 313.2 2.833 2.849
7868.0 1.27616 2.81(6) 310.2 2.833 2.848
7871.9 1.27680 2.79(6) 311.8 2.833 2.847
7875.9 1.27744 2.79(6) 310.9 2.833 2.842
7879.8 1.27808 2.80(6) 309.5 2.833 2.840
7883.8 1.27872 2.77(6) 313.2 2.834 2.839
7887.7 1.27936 2.78(6) 310.9 2.834 2.839
7891.7 1.28000 2.82(6) 305.7 2.834 2.839
7895.6 1.28064 2.79(6) 309.5 2.834 2.839
7899.5 1.28128 2.77(6) 310.9 2.834 2.838
7903.5 1.28192 2.78(6) 309.0 2.834 2.839
7907.4 1.28256 2.81(6) 305.1 2.834 2.838
7911.4 1.28321 2.82(6) 304.4 2.834 2.839
7915.3 1.28385 2.75(6) 311.7 2.834 2.838
7919.3 1.28449 2.76(6) 309.5 2.834 2.842
7923.3 1.28513 2.76(6) 309.5 2.834 2.842
7927.3 1.28578 2.77(6) 307.1 2.834 2.842
7931.2 1.28642 2.80(6) 303.3 2.834 2.842
7935.2 1.28706 2.83(6) 300.4 2.834 2.843
7939.1 1.28771 2.79(6) 303.5 2.834 2.843
7943.1 1.28835 2.80(6) 301.9 2.834 2.843
7947.1 1.28900 2.79(6) 302.7 2.834 2.843
7951.1 1.28964 2.79(6) 302.7 2.834 2.841
7955.0 1.29029 2.75(6) 306.5 2.834 2.841
7959.0 1.29093 2.79(6) 302.2 2.834 2.841
7963.0 1.29158 2.81(6) 298.8 2.834 2.842
7967.0 1.29223 2.79(6) 300.1 2.834 2.842
7970.9 1.29287 2.77(6) 301.9 2.834 2.842
7974.9 1.29352 2.82(6) 296.7 2.834 2.843
7978.9 1.29417 2.84(6) 294.0 2.834 2.843
7982.9 1.29482 2.82(6) 295.0 2.834 2.844
7986.9 1.29546 2.80(6) 296.8 2.834 2.844
7990.9 1.29611 2.80(6) 296.5 2.834 2.845
7994.9 1.29676 2.81(6) 295.5 2.834 2.846
7998.9 1.29741 2.84(6) 291.5 2.834 2.847
8002.9 1.29806 2.89(6) 286.5 2.834 2.847
8006.9 1.29871 2.87(6) 288.3 2.834 2.848
8010.9 1.29936 2.91(6) 283.1 2.834 2.851
8014.9 1.30001 2.93(6) 280.6 2.834 2.855
8018.9 1.30066 2.96(6) 277.5 2.834 2.857
8022.9 1.30131 2.94(6) 278.6 2.834 2.860
8026.9 1.30196 2.93(6) 279.6 2.834 2.862
8030.9 1.30261 2.89(6) 283.2 2.834 2.864
8034.9 1.30326 2.81(6) 290.5 2.834 2.866
8039.0 1.30392 2.81(6) 290.8 2.834 2.869
8043.0 1.30457 2.82(6) 288.7 2.834 2.872
8047.0 1.30522 2.88(6) 282.6 2.834 2.878
8051.0 1.30588 2.87(6) 283.1 2.834 2.882
8055.1 1.30653 2.86(6) 284.0 2.833 2.888
8059.1 1.30719 2.91(6) 278.0 2.833 2.894
8063.1 1.30784 2.92(6) 277.3 2.833 2.903
8067.2 1.30849 2.90(6) 278.2 2.833 2.916
8071.2 1.30915 2.91(6) 276.6 2.833 2.937
8075.2 1.30980 2.99(6) 269.0 2.833 2.976
8079.3 1.31046 3.05(6) 263.4 2.833 3.045
8083.3 1.31111 3.10(6) 258.9 2.833 3.164
8087.3 1.31177 3.24(6) 247.2 2.833 3.356
8091.4 1.31243 3.56(7) 224.2 2.833 3.644
8095.4 1.31309 3.92(7) 203.3 2.833 4.054
8099.5 1.31374 4.47(7) 178.3 2.833 4.610
8103.5 1.31440 5.20(8) 152.6 2.833 5.319
8107.6 1.31505 6.12(9) 129.6 2.833 6.146
8111.6 1.31571 7.05(9) 112.3 2.832 6.989
8115.7 1.31637 7.73(10) 102.1 2.832 7.668
8119.8 1.31703 8.21(10) 96.0 2.832 8.018
8123.8 1.31769 8.20(10) 96.0 2.832 7.983
8127.9 1.31835 7.86(10) 100.0 2.832 7.631
8131.9 1.31901 7.26(10) 108.2 2.832 7.093
8136.0 1.31967 6.66(9) 117.7 2.832 6.502
8140.1 1.32033 6.04(9) 129.7 2.832 5.945
8144.1 1.32099 5.49(8) 142.6 2.832 5.451
8148.2 1.32166 4.96(8) 157.5 2.832 5.026
8152.3 1.32232 4.52(8) 172.4 2.832 4.660
8156.3 1.32298 4.14(7) 188.2 2.831 4.345
8160.4 1.32364 3.90(7) 199.5 2.831 4.078
8164.5 1.32430 3.73(7) 208.2 2.831 3.859
8168.6 1.32496 3.61(7) 215.0 2.831 3.685
8172.7 1.32563 3.51(7) 220.6 2.831 3.555
8176.8 1.32629 3.52(7) 219.7 2.831 3.470
8180.8 1.32695 3.48(7) 222.1 2.831 3.448
8184.9 1.32762 3.54(7) 217.6 2.831 3.529
8189.0 1.32828 3.82(7) 201.3 2.830 3.792
8193.1 1.32895 4.40(8) 174.7 2.830 4.342
8197.2 1.32961 5.35(8) 143.4 2.830 5.278
8201.3 1.33028 6.85(9) 111.6 2.830 6.622
8205.4 1.33095 8.61(11) 88.5 2.830 8.235
8209.5 1.33161 9.99(11) 76.1 2.830 9.815
8213.6 1.33228 11.19(12) 67.8 2.830 11.025
8217.8 1.33295 11.78(12) 64.3 2.829 11.633
8221.8 1.33361 11.84(13) 63.8 2.829 11.623
8226.0 1.33428 11.38(12) 66.3 2.829 11.149
8230.1 1.33494 10.55(12) 71.5 2.829 10.446
8234.2 1.33561 9.80(11) 76.9 2.829 9.723
8238.3 1.33628 9.07(11) 83.0 2.829 9.100
8242.4 1.33695 8.50(11) 88.4 2.828 8.579
8246.5 1.33762 7.99(10) 93.9 2.828 8.085
8250.7 1.33829 7.41(10) 101.2 2.828 7.549
8254.8 1.33896 6.82(10) 109.8 2.828 6.954
8258.9 1.33963 6.31(9) 118.5 2.828 6.326
8263.1 1.34030 5.74(9) 130.2 2.828 5.717
8267.2 1.34097 5.02(8) 148.8 2.827 5.170
8271.3 1.34164 4.58(8) 162.9 2.827 4.703
8275.4 1.34231 4.19(8) 177.7 2.827 4.319
8279.6 1.34299 3.89(7) 191.1 2.827 4.011
8283.7 1.34366 3.66(7) 202.6 2.827 3.767
8287.9 1.34433 3.51(7) 211.4 2.826 3.575
8292.0 1.34500 3.38(7) 219.2 2.826 3.424
8296.2 1.34568 3.30(7) 223.7 2.826 3.304
8300.3 1.34635 3.27(7) 226.0 2.826 3.210
8304.5 1.34703 3.16(7) 233.5 2.826 3.136
8308.6 1.34770 3.08(6) 239.1 2.825 3.077
8312.8 1.34838 2.98(6) 246.4 2.825 3.031
8316.9 1.34905 3.01(6) 243.4 2.825 2.994
8321.1 1.34973 2.98(6) 245.2 2.825 2.965
8325.3 1.35040 2.90(6) 252.2 2.824 2.941
8329.4 1.35107 2.92(6) 249.9 2.824 2.923
8333.6 1.35175 2.85(6) 255.5 2.824 2.908
8337.8 1.35243 2.88(6) 253.0 2.824 2.895
8341.9 1.35310 2.94(6) 247.1 2.824 2.885
8346.1 1.35378 2.89(6) 250.8 2.823 2.877
8350.3 1.35446 2.88(6) 251.2 2.823 2.870
8354.4 1.35514 2.90(6) 249.0 2.823 2.865
8358.6 1.35581 2.90(6) 248.4 2.823 2.860
8362.8 1.35649 2.95(6) 244.1 2.822 2.856
8367.0 1.35717 2.89(6) 248.6 2.822 2.853
8371.2 1.35785 2.83(6) 253.5 2.822 2.847
8375.3 1.35853 2.90(6) 246.7 2.822 2.844
8379.5 1.35921 2.89(6) 247.8 2.821 2.842
8383.7 1.35989 2.92(6) 244.5 2.821 2.840
8387.9 1.36057 2.87(6) 248.2 2.821 2.861
8392.1 1.36125 2.83(6) 251.8 2.821 2.861
8396.3 1.36193 2.79(6) 254.8 2.820 2.861
8400.5 1.36262 2.78(6) 255.3 2.820 2.860
8404.7 1.36330 2.73(6) 259.8 2.820 2.857
8408.9 1.36398 2.75(6) 257.5 2.820 2.854
8413.1 1.36466 2.81(6) 251.9 2.819 2.920
8417.3 1.36535 2.82(6) 250.6 2.819 2.924
8421.5 1.36603 2.81(6) 251.0 2.819 2.927
8425.7 1.36671 2.80(6) 251.0 2.818 2.932
8429.9 1.36740 2.76(6) 254.0 2.818 2.936
8434.2 1.36808 2.81(6) 249.7 2.818 2.941
8438.4 1.36877 2.89(6) 241.6 2.818 2.946
8442.6 1.36945 2.90(6) 241.1 2.817 2.952
8446.8 1.37014 2.85(6) 245.0 2.817 2.958
8451.0 1.37082 2.82(6) 246.5 2.817 2.964
8455.3 1.37151 2.80(6) 248.4 2.816 2.971
8459.5 1.37219 2.87(6) 241.6 2.816 2.979
8463.7 1.37288 2.94(7) 235.3 2.816 2.988
8467.9 1.37357 2.92(6) 236.9 2.816 2.998
8472.2 1.37426 2.85(6) 242.2 2.815 3.008
8476.4 1.37494 2.84(6) 242.5 2.815 3.019
8480.7 1.37563 2.86(6) 240.2 2.815 3.032
8484.9 1.37632 2.91(7) 236.4 2.814 3.047
8489.1 1.37701 2.91(7) 235.7 2.814 3.063
8493.4 1.37770 2.88(6) 237.5 2.814 3.081
8497.6 1.37839 2.93(7) 233.4 2.813 3.101
8501.9 1.37908 2.90(7) 235.2 2.813 3.124
8506.1 1.37977 2.95(7) 231.2 2.813 3.150
8510.4 1.38046 2.96(7) 230.2 2.812 3.179
8514.6 1.38115 2.97(7) 228.9 2.812 3.213
8518.9 1.38184 3.09(7) 219.3 2.812 3.251
8523.2 1.38253 3.04(7) 222.5 2.811 3.296
8527.4 1.38322 3.04(7) 222.4 2.811 3.348
8531.7 1.38392 3.07(7) 220.1 2.811 3.410
8535.9 1.38461 3.17(7) 212.5 2.810 3.484
8540.2 1.38530 3.30(7) 203.7 2.810 3.576
8544.5 1.38599 3.41(7) 196.8 2.810 3.698
8548.8 1.38669 3.54(7) 189.5 2.809 3.884
8553.0 1.38738 3.88(8) 172.6 2.809 4.222
8557.3 1.38808 4.48(8) 149.1 2.809 4.903
8561.6 1.38877 5.73(9) 116.4 2.808 6.281
8565.9 1.38947 8.21(11) 80.9 2.808 8.857
8570.2 1.39017 12.49(14) 52.9 2.808 13.123
8574.4 1.39086 18.92(17) 34.76 2.807 19.255
8578.7 1.39156 26.47(20) 24.67 2.807 26.837
8583.0 1.39225 34.37(23) 18.88 2.807 34.912
8587.3 1.39295 42.08(26) 15.32 2.806 42.478
8591.6 1.39365 48.95(28) 13.09 2.806 49.412
8595.9 1.39434 56.34(30) 11.30 2.805 56.666
8600.2 1.39504 65.91(32) 9.59 2.805 65.219
8604.5 1.39574 76.09(35) 8.24 2.805 74.813
8608.8 1.39644 84.2(4) 7.40 2.80 83.53
8613.1 1.39714 88.8(4) 6.99 2.80 88.53
8617.4 1.39784 88.1(4) 7.03 2.80 87.93
8621.7 1.39854 81.8(4) 7.59 2.80 81.91
8626.0 1.39924 71.92(34) 8.67 2.803 72.188
8630.3 1.39994 60.34(31) 10.39 2.802 60.958
8634.7 1.40064 49.07(28) 12.85 2.802 50.012
8639.0 1.40134 38.79(25) 16.33 2.802 40.375
8643.3 1.40204 30.29(22) 21.00 2.801 32.396
8647.6 1.40274 23.86(19) 26.73 2.801 25.992
8651.9 1.40344 19.06(17) 33.50 2.800 20.959
8656.3 1.40414 15.16(15) 42.2 2.800 17.031
8660.6 1.40485 12.65(14) 50.5 2.800 13.973
8664.9 1.40555 10.75(13) 59.4 2.799 11.594
8669.3 1.40626 9.27(12) 68.8 2.799 9.736
8673.6 1.40696 8.10(11) 78.7 2.799 8.294
8677.9 1.40766 7.17(11) 88.8 2.798 7.169
8682.3 1.40837 6.41(10) 99.2 2.798 6.287
8686.6 1.40907 5.87(10) 108.2 2.797 5.598
8690.9 1.40978 5.41(9) 117.3 2.797 5.058
8695.3 1.41048 5.12(9) 123.5 2.796 4.634
8699.6 1.41119 4.79(9) 132.1 2.796 4.300
8704.0 1.41189 4.48(8) 140.8 2.796 4.035
8708.3 1.41260 4.19(8) 150.2 2.795 3.825
8712.7 1.41331 4.15(8) 151.5 2.795 3.659
8717.0 1.41401 4.03(8) 155.8 2.794 3.525
8721.4 1.41472 3.75(8) 167.2 2.794 3.418
8725.8 1.41543 3.63(8) 172.6 2.794 3.331
8730.1 1.41614 3.60(8) 173.5 2.793 3.261
8734.5 1.41685 3.55(8) 175.6 2.793 3.203
8738.9 1.41756 3.54(8) 175.8 2.792 3.156
8743.2 1.41827 3.39(7) 183.4 2.792 3.116
8747.6 1.41898 3.30(7) 188.3 2.792 3.083
8752.0 1.41969 3.29(7) 188.6 2.791 3.055
8756.3 1.42040 3.23(7) 191.6 2.791 3.031
8760.7 1.42111 3.27(7) 189.0 2.790 3.011
8765.1 1.42182 3.27(7) 188.4 2.790 2.993
8769.5 1.42253 3.18(7) 193.6 2.789 2.978
8773.9 1.42324 3.17(7) 193.6 2.789 2.964
8778.3 1.42395 3.10(7) 198.0 2.789 2.936
8782.7 1.42467 2.98(7) 205.2 2.788 2.911
8787.0 1.42538 2.99(7) 204.7 2.788 2.903
8791.4 1.42609 2.98(7) 204.5 2.787 2.895
8795.8 1.42681 2.97(7) 205.0 2.787 2.889
8800.2 1.42752 3.02(7) 201.5 2.786 2.883
8804.6 1.42824 2.98(7) 204.0 2.786 2.877
8809.0 1.42895 2.99(7) 202.9 2.785 2.872
8813.4 1.42967 2.97(7) 203.9 2.785 2.867
8817.8 1.43038 3.01(7) 200.9 2.785 2.863
8822.3 1.43110 3.01(7) 200.1 2.784 2.859
8826.7 1.43181 2.94(7) 204.5 2.784 2.855
8831.1 1.43253 2.90(7) 207.4 2.783 2.851
8835.5 1.43325 2.87(7) 209.4 2.783 2.848
8839.9 1.43396 2.87(7) 208.8 2.782 2.782
8844.3 1.43469 2.88(7) 207.8 2.782 2.782
8848.8 1.43540 2.87(7) 208.0 2.781 2.781
8853.2 1.43612 2.83(7) 210.6 2.781 2.781
8857.6 1.43684 2.81(7) 211.4 2.781 2.781
8862.0 1.43756 2.90(7) 204.5 2.780 2.780
8866.5 1.43828 2.77(7) 214.2 2.780 2.780
8870.9 1.43900 2.78(7) 212.7 2.779 2.779
8875.3 1.43972 2.80(7) 211.3 2.779 2.779
8879.8 1.44044 2.85(7) 206.9 2.778 2.778
8884.2 1.44116 2.86(7) 206.0 2.778 2.778
8888.7 1.44188 2.80(7) 210.2 2.777 2.777
8893.1 1.44260 2.80(7) 209.5 2.777 2.777
8897.5 1.44332 2.77(7) 211.1 2.776 2.776
8902.0 1.44405 2.71(7) 215.8 2.776 2.776
8906.4 1.44477 2.75(7) 212.3 2.776 2.776
8910.9 1.44549 2.83(7) 205.7 2.775 2.775
8915.3 1.44621 2.86(7) 203.3 2.775 2.775
8919.8 1.44694 2.78(7) 208.9 2.774 2.774
8924.3 1.44767 2.82(7) 205.6 2.774 2.774
8928.7 1.44839 2.79(7) 207.0 2.773 2.773
8933.2 1.44911 2.75(7) 209.8 2.773 2.773
8937.7 1.44984 2.79(7) 206.9 2.772 2.772
8942.1 1.45056 2.71(7) 212.2 2.772 2.772
8946.6 1.45129 2.78(7) 206.9 2.771 2.771
8951.1 1.45201 2.75(7) 208.4 2.771 2.771
8955.6 1.45274 2.75(7) 208.3 2.770 2.770
8960.0 1.45347 2.78(7) 205.4 2.770 2.770
8964.5 1.45420 2.78(7) 205.3 2.770 2.770
8969.0 1.45493 2.78(7) 204.8 2.769 2.769
8973.5 1.45565 2.72(7) 208.7 2.769 2.769
8978.0 1.45638 2.83(7) 200.6 2.768 2.768
8982.4 1.45711 2.80(7) 202.5 2.768 2.768
8986.9 1.45784 2.73(7) 206.8 2.767 2.767
8991.4 1.45857 2.68(7) 210.3 2.767 2.767
8995.9 1.45930 2.72(7) 207.4 2.766 2.766
9000.4 1.46003 2.79(7) 201.5 2.766 2.766
9004.9 1.46076 2.72(7) 206.6 2.765 2.765
9009.4 1.46149 2.68(7) 208.8 2.765 2.765
9013.9 1.46222 2.70(7) 207.6 2.764 2.764
9018.4 1.46295 2.73(7) 204.8 2.764 2.764
9023.0 1.46369 2.73(7) 204.3 2.763 2.763
9027.5 1.46442 2.75(7) 202.2 2.763 2.763
9032.0 1.46515 2.70(7) 205.9 2.762 2.762
9036.5 1.46589 2.71(7) 204.9 2.762 2.762
9041.0 1.46662 2.77(7) 200.1 2.762 2.762
9045.5 1.46735 2.81(7) 196.8 2.761 2.761
9050.1 1.46809 2.75(7) 200.6 2.761 2.761
9054.6 1.46882 2.64(7) 208.2 2.760 2.760
9059.1 1.46956 2.60(7) 211.1 2.760 2.760
9063.6 1.47029 2.66(7) 206.4 2.759 2.759
9068.2 1.47103 2.74(7) 200.3 2.759 2.759
9072.7 1.47177 2.64(7) 206.8 2.758 2.758
9077.3 1.47250 2.69(7) 202.7 2.758 2.758
9081.8 1.47324 2.68(7) 203.3 2.757 2.757
9086.3 1.47397 2.78(7) 196.0 2.757 2.757
9090.9 1.47472 2.80(7) 194.0 2.756 2.756
9095.4 1.47545 2.69(7) 201.4 2.756 2.756
9100.0 1.47619 2.72(7) 199.1 2.755 2.755
9104.5 1.47693 2.67(7) 202.5 2.755 2.755
9109.1 1.47767 2.70(7) 199.4 2.754 2.754
9113.6 1.47841 2.74(7) 196.5 2.754 2.754
9118.2 1.47915 2.78(7) 193.1 2.753 2.753
9122.7 1.47989 2.77(7) 193.8 2.753 2.753
9127.3 1.48063 2.75(7) 194.4 2.753 2.753
9131.8 1.48137 2.76(7) 194.0 2.752 2.752
9136.4 1.48211 2.74(7) 194.6 2.752 2.752
9141.0 1.48285 2.69(7) 197.9 2.751 2.752
9145.6 1.48360 2.66(7) 199.5 2.751 2.753
9150.1 1.48434 2.74(7) 193.4 2.750 2.754
9154.7 1.48508 2.76(7) 192.1 2.750 2.754
9159.3 1.48582 2.76(7) 192.0 2.749 2.753
9163.9 1.48657 2.78(7) 189.7 2.749 2.753
9168.4 1.48731 2.85(7) 185.3 2.748 2.754
9173.0 1.48806 2.87(7) 183.4 2.748 2.754
9177.6 1.48880 2.86(7) 183.5 2.747 2.753
9182.2 1.48955 2.93(7) 178.8 2.747 2.753
9186.8 1.49029 2.97(8) 176.4 2.746 2.753
9191.4 1.49104 2.99(8) 175.0 2.746 2.753
9196.0 1.49179 2.88(7) 181.4 2.745 2.753
9200.6 1.49253 2.80(7) 186.0 2.745 2.753
9205.2 1.49328 2.80(7) 185.4 2.745 2.753
9209.8 1.49402 2.78(7) 186.4 2.744 2.753
9214.4 1.49477 2.78(7) 186.6 2.744 2.753
9219.0 1.49552 2.74(7) 188.8 2.743 2.753
9223.6 1.49627 2.74(7) 188.3 2.743 2.753
9228.2 1.49702 2.79(7) 184.4 2.742 2.753
9232.8 1.49777 2.79(7) 184.6 2.742 2.754
9237.5 1.49852 2.76(7) 185.8 2.741 2.754
9242.1 1.49926 2.74(7) 187.2 2.741 2.755
9246.7 1.50002 2.70(7) 189.1 2.740 2.755
9251.3 1.50077 2.72(7) 188.0 2.740 2.756
9255.9 1.50152 2.77(7) 184.4 2.739 2.757
9260.6 1.50227 2.79(7) 182.2 2.739 2.758
9265.2 1.50302 2.65(7) 191.5 2.738 2.760
9269.8 1.50378 2.68(7) 189.1 2.738 2.762
9274.5 1.50453 2.77(7) 182.7 2.738 2.764
9279.1 1.50528 2.72(7) 186.1 2.737 2.766
9283.8 1.50603 2.68(7) 188.3 2.737 2.769
9288.4 1.50678 2.71(7) 186.0 2.736 2.773
9293.0 1.50754 2.78(7) 180.7 2.736 2.778
9297.7 1.50830 2.78(7) 180.2 2.735 2.784
9302.3 1.50905 2.71(7) 184.8 2.735 2.793
9307.0 1.50980 2.77(7) 180.6 2.734 2.809
9311.6 1.51056 2.89(8) 172.7 2.734 2.839
9316.3 1.51132 2.94(8) 169.3 2.733 2.904
9320.9 1.51207 3.07(8) 162.0 2.733 3.042
9325.6 1.51283 3.46(8) 143.4 2.732 3.310
9330.3 1.51359 3.99(9) 124.3 2.732 3.765
9334.9 1.51435 4.83(10) 102.5 2.732 4.427
9339.6 1.51510 5.79(11) 85.2 2.731 5.246
9344.3 1.51586 6.71(12) 73.5 2.731 6.075
9348.9 1.51662 7.44(12) 66.1 2.730 6.722
9353.6 1.51738 7.77(13) 63.2 2.730 7.049
9358.3 1.51814 7.54(12) 65.0 2.729 7.033
9363.0 1.51890 7.27(12) 67.3 2.729 6.743
9367.7 1.51966 6.76(12) 72.3 2.728 6.288
9372.3 1.52042 6.14(11) 79.4 2.728 5.781
9377.0 1.52118 5.47(11) 89.0 2.727 5.311
9381.7 1.52194 5.03(10) 96.7 2.727 4.935
9386.4 1.52270 4.87(10) 99.7 2.727 4.677
9391.1 1.52346 4.58(10) 105.8 2.726 4.522
9395.8 1.52423 4.42(10) 109.4 2.726 4.424
9400.5 1.52499 4.46(10) 108.4 2.725 4.328
9405.2 1.52575 4.35(10) 110.7 2.725 4.195
9409.9 1.52652 4.21(9) 114.4 2.724 4.020
9414.6 1.52728 3.92(9) 122.4 2.724 3.819
9419.3 1.52805 3.64(9) 131.6 2.723 3.618
9424.0 1.52881 3.40(8) 140.9 2.723 3.436
9428.7 1.52957 3.28(8) 145.9 2.723 3.281
9433.4 1.53034 3.17(8) 150.7 2.722 3.157
9438.2 1.53111 3.00(8) 158.8 2.722 3.060
9442.9 1.53187 2.98(8) 159.4 2.721 2.985
9447.6 1.53264 2.96(8) 160.3 2.721 2.927
9452.3 1.53340 2.88(8) 164.3 2.720 2.882
9457.1 1.53418 2.82(8) 167.9 2.720 2.848
9461.8 1.53494 2.76(8) 171.0 2.720 2.821
9466.5 1.53571 2.72(8) 173.2 2.719 2.801
9471.3 1.53648 2.75(8) 171.3 2.719 2.785
9476.0 1.53725 2.80(8) 167.9 2.718 2.772
9480.7 1.53802 2.81(8) 166.9 2.718 2.762
9485.5 1.53879 2.73(8) 171.3 2.717 2.754
9490.2 1.53955 2.77(8) 168.8 2.717 2.748
9494.9 1.54033 2.84(8) 164.2 2.717 2.743
9499.7 1.54110 2.73(8) 170.8 2.716 2.739
9504.4 1.54187 2.64(8) 176.2 2.716 2.736
9509.2 1.54264 2.65(8) 175.0 2.715 2.733
9513.9 1.54341 2.64(8) 175.2 2.715 2.730
9518.7 1.54419 2.70(8) 171.4 2.714 2.728
9523.5 1.54496 2.72(8) 169.6 2.714 2.727
9528.2 1.54573 2.72(8) 169.3 2.714 2.725
9533.0 1.54651 2.69(8) 171.1 2.713 2.724
9537.8 1.54728 2.65(8) 173.0 2.713 2.722
9542.5 1.54805 2.71(8) 168.9 2.712 2.721
9547.3 1.54883 2.77(8) 165.2 2.712 2.720
9552.1 1.54960 2.75(8) 165.9 2.711 2.719
9556.8 1.55038 2.71(8) 168.2 2.711 2.718
9561.6 1.55115 2.68(8) 170.0 2.711 2.717
9566.4 1.55193 2.70(8) 168.3 2.710 2.717
9571.2 1.55271 2.63(8) 172.5 2.710 2.716
9576.0 1.55348 2.69(8) 168.6 2.709 2.715
9580.8 1.55426 2.57(8) 176.2 2.709 2.714
9585.6 1.55504 2.56(8) 176.0 2.709 2.714
9590.3 1.55582 2.64(8) 170.6 2.708 2.713
9595.1 1.55659 2.61(8) 172.1 2.708 2.709
9599.9 1.55738 2.63(8) 170.5 2.707 2.709
9604.8 1.55816 2.67(8) 167.7 2.707 2.708
9609.5 1.55893 2.70(8) 165.8 2.707 2.708
9614.3 1.55972 2.67(8) 167.1 2.706 2.707
9619.2 1.56050 2.70(8) 164.9 2.706 2.707
9624.0 1.56128 2.59(8) 171.8 2.705 2.706
9628.8 1.56206 2.55(8) 174.2 2.705 2.706
9633.6 1.56284 2.68(8) 165.7 2.705 2.705
9638.4 1.56362 2.74(8) 161.6 2.704 2.705
9643.2 1.56440 2.71(8) 163.0 2.704 2.705
9648.0 1.56519 2.72(8) 162.1 2.703 2.704
9652.9 1.56597 2.70(8) 163.4 2.703 2.704
9657.7 1.56675 2.64(8) 166.6 2.703 2.703
9662.5 1.56754 2.66(8) 165.0 2.702 2.702
9667.3 1.56832 2.64(8) 165.8 2.702 2.702
9672.2 1.56911 2.69(8) 162.5 2.701 2.701
9677.0 1.56989 2.67(8) 163.7 2.701 2.701
9681.9 1.57068 2.70(8) 161.2 2.701 2.701
9686.7 1.57147 2.70(8) 161.0 2.700 2.709
9691.6 1.57225 2.69(8) 161.6 2.700 2.716
9696.4 1.57304 2.64(8) 164.1 2.699 2.716
9701.3 1.57383 2.71(8) 159.6 2.699 2.716
9706.1 1.57461 2.73(8) 158.2 2.699 2.717
9710.9 1.57540 2.68(8) 161.0 2.698 2.717
9715.8 1.57619 2.70(8) 159.4 2.698 2.721
9720.7 1.57698 2.78(8) 154.5 2.697 2.727
9725.5 1.57777 2.66(8) 161.2 2.697 2.728
9730.4 1.57856 2.61(8) 164.4 2.697 2.729
9735.3 1.57935 2.59(8) 165.4 2.696 2.730
9740.1 1.58014 2.63(8) 162.0 2.696 2.731
9745.0 1.58093 2.76(8) 154.1 2.696 2.732
9749.8 1.58172 2.71(8) 157.0 2.695 2.734
9754.7 1.58251 2.65(8) 160.2 2.695 2.736
9759.6 1.58331 2.69(8) 157.7 2.694 2.738
9764.5 1.58410 2.70(8) 156.4 2.694 2.740
9769.4 1.58489 2.73(8) 154.7 2.694 2.742
9774.3 1.58568 2.76(8) 152.4 2.693 2.744
9779.2 1.58648 2.68(8) 157.2 2.693 2.747
9784.0 1.58727 2.67(8) 157.6 2.693 2.750
9788.9 1.58807 2.66(8) 157.6 2.692 2.754
9793.8 1.58886 2.76(8) 151.7 2.692 2.758
9798.7 1.58965 2.70(8) 154.5 2.691 2.762
9803.6 1.59045 2.61(8) 159.6 2.691 2.767
9808.5 1.59125 2.61(8) 159.7 2.691 2.772
9813.4 1.59204 2.66(8) 156.3 2.690 2.778
9818.3 1.59284 2.78(8) 149.2 2.690 2.785
9823.3 1.59364 2.79(8) 148.6 2.690 2.793
9828.2 1.59443 2.74(8) 151.2 2.689 2.803
9833.1 1.59523 2.81(8) 146.7 2.689 2.813
9838.0 1.59603 2.85(8) 144.8 2.688 2.825
9842.9 1.59683 2.75(8) 149.6 2.688 2.840
9847.8 1.59763 2.81(8) 145.9 2.688 2.857
9852.8 1.59843 2.88(8) 142.4 2.687 2.877
9857.7 1.59922 2.86(8) 142.9 2.687 2.901
9862.6 1.60003 2.82(8) 144.5 2.687 2.930
9867.5 1.60083 2.84(8) 143.7 2.686 2.967
9872.5 1.60163 2.93(8) 139.1 2.686 3.017
9877.4 1.60243 3.08(9) 132.0 2.686 3.093
9882.3 1.60323 3.21(9) 126.2 2.685 3.232
9887.3 1.60404 3.50(9) 115.6 2.685 3.522
9892.2 1.60484 4.05(10) 99.9 2.685 4.134
9897.2 1.60564 5.14(11) 78.4 2.684 5.347
9902.1 1.60645 7.37(14) 54.6 2.684 7.476
9907.1 1.60725 10.72(16) 37.4 2.683 10.705
9912.0 1.60805 15.02(19) 26.61 2.683 14.862
9917.0 1.60886 19.55(22) 20.37 2.683 19.278
9921.9 1.60966 23.44(24) 16.94 2.682 22.963
9926.9 1.61047 25.67(25) 15.43 2.682 25.108
9931.9 1.61128 26.30(26) 15.02 2.682 25.622
9936.8 1.61208 25.67(26) 15.37 2.681 25.024
9941.8 1.61288 24.80(25) 15.89 2.681 23.965
9946.8 1.61370 23.58(24) 16.68 2.681 22.827
9951.8 1.61450 22.24(24) 17.67 2.680 21.577
9956.7 1.61531 20.32(23) 19.32 2.680 19.986
9961.7 1.61612 18.00(21) 21.78 2.680 17.958
9966.7 1.61693 15.53(20) 25.23 2.679 15.628
9971.7 1.61774 13.22(18) 29.61 2.679 13.245
9976.7 1.61855 11.03(17) 35.4 2.679 11.047
9981.6 1.61935 9.00(15) 43.4 2.678 9.174
9986.6 1.62017 7.55(14) 51.6 2.678 7.660
9991.6 1.62098 6.44(13) 60.5 2.678 6.483
9996.6 1.62179 5.37(12) 72.3 2.677 5.585
10001.6 1.62260 4.69(11) 82.8 2.677 4.905
10006.6 1.62341 4.29(11) 90.3 2.677 4.391
10011.6 1.62423 3.96(10) 97.8 2.676 4.002
10016.6 1.62504 3.78(10) 102.2 2.676 3.709
10021.6 1.62585 3.67(10) 105.1 2.676 3.486
10026.6 1.62666 3.61(10) 106.6 2.675 3.315
10031.7 1.62748 3.44(9) 111.4 2.675 3.185
10036.7 1.62829 3.39(9) 113.0 2.675 3.086
10041.7 1.62911 3.16(9) 120.8 2.674 3.009
10046.7 1.62993 2.99(9) 127.7 2.674 2.950
10051.7 1.63074 3.07(9) 124.2 2.674 2.904
10056.8 1.63155 3.06(9) 124.2 2.673 2.867
10061.8 1.63237 3.04(9) 124.6 2.673 2.838
10066.8 1.63319 3.03(9) 125.1 2.673 2.815
10071.8 1.63400 2.96(9) 127.7 2.672 2.797
10076.9 1.63482 2.93(9) 128.8 2.672 2.782
10081.9 1.63564 2.89(9) 130.2 2.672 2.769
10087.0 1.63646 2.84(9) 132.5 2.671 2.759
10092.0 1.63728 2.85(9) 131.4 2.671 2.751
10097.1 1.63810 2.98(9) 125.7 2.671 2.743
10102.1 1.63892 2.95(9) 126.9 2.670 2.737
10107.2 1.63974 2.91(9) 128.0 2.670 2.731
10112.2 1.64056 2.83(9) 131.3 2.670 2.727
10117.3 1.64138 2.78(9) 133.7 2.669 2.722
10122.3 1.64220 2.81(9) 131.9 2.669 2.718
10127.4 1.64302 2.91(9) 127.0 2.669 2.715
10132.4 1.64384 2.75(9) 134.4 2.668 2.712
10137.5 1.64467 2.70(9) 136.4 2.668 2.709
10142.6 1.64549 2.71(9) 135.8 2.668 2.706
10147.7 1.64632 2.83(9) 129.8 2.667 2.689
10152.7 1.64714 2.90(9) 126.2 2.667 2.682
10157.8 1.64796 2.87(9) 127.6 2.667 2.681
10162.9 1.64879 2.72(9) 134.3 2.667 2.680
10168.0 1.64961 2.66(9) 137.0 2.666 2.679
10173.1 1.65044 2.66(9) 136.6 2.666 2.678
10178.1 1.65126 2.69(9) 134.8 2.666 2.677
10183.2 1.65209 2.76(9) 131.0 2.665 2.676
10188.3 1.65292 2.75(9) 131.2 2.665 2.675
10193.4 1.65374 2.76(9) 130.9 2.665 2.674
10198.5 1.65457 2.76(9) 130.6 2.664 2.674
10203.6 1.65540 2.71(9) 132.3 2.664 2.673
10208.7 1.65623 2.77(9) 129.7 2.664 2.672
10213.8 1.65706 2.76(9) 129.8 2.663 2.663
10218.9 1.65789 2.77(9) 128.8 2.663 2.663
10224.0 1.65872 2.67(9) 133.7 2.663 2.663
10229.1 1.65955 2.66(9) 133.7 2.662 2.662
10234.3 1.66038 2.69(9) 131.8 2.662 2.662
10239.4 1.66121 2.66(9) 133.2 2.662 2.662
10244.5 1.66204 2.72(9) 129.9 2.662 2.662
10249.6 1.66287 2.71(9) 130.2 2.661 2.661
10254.8 1.66371 2.67(9) 132.0 2.661 2.661
10259.9 1.66454 2.72(9) 129.0 2.661 2.661
10265.0 1.66537 2.69(9) 130.5 2.660 2.660
10270.1 1.66620 2.59(9) 135.1 2.660 2.660
10275.3 1.66704 2.65(9) 131.8 2.660 2.660
10280.4 1.66787 2.67(9) 130.6 2.659 2.659
10285.5 1.66870 2.77(9) 125.8 2.659 2.659
10290.7 1.66954 2.79(9) 124.5 2.659 2.659
10295.8 1.67038 2.70(9) 128.2 2.659 2.659
10301.0 1.67121 2.54(9) 136.3 2.658 2.658
10306.1 1.67205 2.60(9) 132.9 2.658 2.658
10311.3 1.67289 2.64(9) 130.5 2.658 2.658
10316.4 1.67372 2.70(9) 127.1 2.657 2.657
10321.6 1.67456 2.66(9) 129.0 2.657 2.657
10326.8 1.67540 2.62(9) 130.5 2.657 2.657
10331.9 1.67624 2.62(9) 130.4 2.656 2.656
10337.1 1.67708 2.63(9) 129.6 2.656 2.656
10342.3 1.67791 2.72(9) 125.0 2.656 2.656
10347.4 1.67876 2.69(9) 126.1 2.656 2.656
10352.6 1.67959 2.74(9) 123.8 2.655 2.655
10357.8 1.68044 2.80(9) 121.0 2.655 2.655
10362.9 1.68127 2.76(9) 122.3 2.655 2.655
10368.1 1.68212 2.75(9) 122.3 2.654 2.654
10373.3 1.68296 2.61(9) 128.7 2.654 2.654
10378.5 1.68380 2.60(9) 129.3 2.654 2.654
10383.7 1.68464 2.54(9) 131.9 2.653 2.653
10388.9 1.68549 2.53(9) 132.0 2.653 2.653
10394.1 1.68633 2.60(9) 128.3 2.653 2.653
10399.3 1.68718 2.58(9) 128.8 2.653 2.653
10404.5 1.68802 2.56(9) 129.6 2.652 2.652
10409.7 1.68887 2.64(9) 125.7 2.652 2.652
10414.9 1.68971 2.69(9) 123.1 2.652 2.652
10420.1 1.69056 2.71(9) 121.7 2.651 2.651
10425.3 1.69140 2.62(9) 125.7 2.651 2.651
10430.5 1.69225 2.58(9) 127.5 2.651 2.651
10435.7 1.69309 2.49(9) 131.7 2.651 2.651
10440.9 1.69394 2.55(9) 128.4 2.650 2.650
10446.2 1.69479 2.73(9) 119.8 2.650 2.650
10451.4 1.69564 2.65(9) 123.1 2.650 2.650
10456.6 1.69649 2.52(9) 129.0 2.649 2.649
10461.8 1.69734 2.51(9) 129.6 2.649 2.649
10467.1 1.69818 2.55(9) 127.0 2.649 2.649
10472.3 1.69904 2.58(9) 125.3 2.649 2.649
10477.5 1.69988 2.56(9) 125.8 2.648 2.648
10482.8 1.70074 2.56(9) 125.5 2.648 2.648
10488.0 1.70159 2.60(9) 123.7 2.648 2.648
10493.3 1.70244 2.69(9) 119.1 2.647 2.647
10498.5 1.70329 2.58(9) 123.8 2.647 2.647
10503.8 1.70414 2.65(9) 120.7 2.647 2.647
10509.0 1.70500 2.69(9) 118.3 2.647 2.647
10514.3 1.70585 2.63(9) 121.0 2.646 2.646
10519.5 1.70670 2.65(9) 119.9 2.646 2.646
10524.8 1.70756 2.68(9) 118.3 2.646 2.646
10530.1 1.70841 2.65(9) 119.1 2.646 2.646
10535.3 1.70927 2.73(9) 115.7 2.645 2.645
10540.6 1.71012 2.74(9) 114.7 2.645 2.645
10545.8 1.71098 2.64(9) 119.0 2.645 2.645
10551.1 1.71183 2.53(9) 123.6 2.644 2.644
10556.4 1.71269 2.60(9) 120.5 2.644 2.644
10561.7 1.71355 2.61(9) 119.6 2.644 2.644
10567.0 1.71441 2.69(9) 115.6 2.644 2.644
10572.3 1.71526 2.58(9) 120.4 2.643 2.643
10577.5 1.71612 2.55(9) 121.6 2.643 2.643
10582.8 1.71698 2.50(9) 123.6 2.643 2.643
10588.1 1.71784 2.59(9) 119.4 2.643 2.643
10593.4 1.71870 2.65(9) 116.5 2.642 2.642
10598.7 1.71956 2.60(9) 118.1 2.642 2.642
10604.0 1.72042 2.64(9) 116.4 2.642 2.642
10609.3 1.72128 2.62(9) 117.1 2.642 2.642
10614.6 1.72214 2.57(9) 119.1 2.641 2.641
10619.9 1.72300 2.59(9) 117.8 2.641 2.642
10625.2 1.72387 2.60(9) 117.2 2.641 2.645
10630.5 1.72473 2.66(9) 114.3 2.640 2.645
10635.8 1.72559 2.63(9) 115.3 2.640 2.647
10641.2 1.72645 2.61(9) 116.0 2.640 2.651
10646.5 1.72732 2.52(9) 119.7 2.640 2.651
10651.8 1.72818 2.69(9) 111.9 2.639 2.652
10657.1 1.72905 2.62(9) 114.5 2.639 2.652
10662.5 1.72991 2.56(9) 117.2 2.639 2.652
10667.8 1.73078 2.67(9) 112.2 2.639 2.653
10673.1 1.73165 2.67(9) 111.7 2.638 2.653
10678.5 1.73251 2.66(9) 112.0 2.638 2.654
10683.8 1.73338 2.64(9) 112.6 2.638 2.654
10689.2 1.73425 2.57(9) 115.2 2.638 2.655
10694.5 1.73512 2.58(9) 114.6 2.637 2.656
10699.8 1.73598 2.61(9) 113.2 2.637 2.657
10705.2 1.73685 2.64(9) 111.8 2.637 2.658
10710.5 1.73772 2.59(9) 113.6 2.637 2.659
10715.9 1.73859 2.60(9) 112.8 2.636 2.660
10721.3 1.73946 2.56(9) 114.6 2.636 2.661
10726.6 1.74033 2.59(9) 112.6 2.636 2.663
10732.0 1.74120 2.67(10) 109.1 2.636 2.664
10737.3 1.74207 2.65(10) 109.7 2.635 2.666
10742.7 1.74295 2.71(10) 107.1 2.635 2.669
10748.1 1.74382 2.67(10) 108.6 2.635 2.671
10753.5 1.74469 2.62(10) 110.3 2.635 2.674
10758.8 1.74557 2.65(10) 109.1 2.634 2.677
10764.2 1.74644 2.80(10) 102.7 2.634 2.681
10769.6 1.74731 2.82(10) 102.0 2.634 2.686
10775.0 1.74819 2.64(10) 108.8 2.634 2.691
10780.4 1.74906 2.56(9) 112.0 2.634 2.697
10785.8 1.74993 2.60(10) 110.0 2.633 2.705
10791.2 1.75081 2.62(10) 109.0 2.633 2.714
10796.6 1.75169 2.68(10) 106.1 2.633 2.725
10801.9 1.75256 2.84(10) 99.9 2.633 2.740
10807.3 1.75344 2.93(10) 96.9 2.632 2.761
10812.8 1.75432 2.79(10) 101.5 2.632 2.796
10818.2 1.75520 2.84(10) 99.2 2.632 2.868
10823.6 1.75607 3.05(10) 92.4 2.632 3.026
10829.0 1.75695 3.38(11) 83.1 2.632 3.356
10834.4 1.75784 3.98(12) 70.5 2.631 3.978
10839.8 1.75871 5.10(13) 54.9 2.631 5.001
10845.3 1.75960 6.71(15) 41.6 2.631 6.441
10850.7 1.76047 8.48(17) 32.89 2.631 8.144
10856.1 1.76136 10.16(19) 27.36 2.630 9.779
10861.5 1.76224 11.38(20) 24.38 2.630 10.974
10866.9 1.76312 11.70(21) 23.66 2.630 11.491
10872.4 1.76400 11.81(21) 23.39 2.630 11.308
10877.8 1.76488 11.26(20) 24.48 2.630 10.613
10883.3 1.76577 9.88(19) 27.87 2.629 9.717
10888.7 1.76665 9.21(18) 29.84 2.629 8.926
10894.1 1.76753 8.47(18) 32.39 2.629 8.440
10899.6 1.76842 8.06(17) 33.97 2.629 8.292
10905.0 1.76930 8.39(18) 32.56 2.629 8.335
10910.5 1.77019 8.49(18) 32.10 2.628 8.322
10915.9 1.77108 8.20(17) 33.15 2.628 8.065
10921.4 1.77196 7.80(17) 34.80 2.628 7.523
10926.9 1.77285 6.79(16) 39.9 2.628 6.790
10932.3 1.77373 5.91(15) 45.8 2.628 5.997
10937.8 1.77462 5.25(14) 51.4 2.627 5.256
10943.3 1.77551 4.54(13) 59.3 2.627 4.631
10948.7 1.77640 4.01(12) 67.0 2.627 4.136
10954.2 1.77729 3.74(12) 71.7 2.627 3.760
10959.7 1.77818 3.64(12) 73.6 2.627 3.481
10965.2 1.77907 3.47(11) 76.9 2.626 3.273
10970.7 1.77996 3.32(11) 80.2 2.626 3.120
10976.1 1.78085 3.22(11) 82.6 2.626 3.007
10981.6 1.78174 3.15(11) 84.4 2.626 2.923
10987.1 1.78263 3.06(11) 86.5 2.626 2.861
10992.6 1.78352 2.91(10) 90.8 2.626 2.814
10998.1 1.78442 2.94(11) 89.7 2.625 2.780
11003.6 1.78531 2.96(11) 88.8 2.625 2.753
11009.1 1.78620 2.85(10) 92.3 2.625 2.734
11014.6 1.78710 2.65(10) 98.9 2.625 2.719
11020.1 1.78800 2.65(10) 98.7 2.625 2.708
11025.6 1.78889 2.81(10) 93.0 2.625 2.699
11031.1 1.78978 2.71(10) 96.2 2.624 2.693
11036.7 1.79068 2.80(10) 93.0 2.624 2.688
11042.2 1.79157 2.84(10) 91.3 2.624 2.685
11047.7 1.79247 2.85(10) 91.0 2.624 2.682
11053.2 1.79337 2.80(10) 92.2 2.624 2.681
11058.8 1.79427 2.73(10) 94.5 2.624 2.680
11064.3 1.79517 2.63(10) 97.9 2.623 2.681
11069.8 1.79606 2.75(10) 93.6 2.623 2.682
11075.3 1.79696 2.78(10) 92.3 2.623 2.683
11080.9 1.79786 2.68(10) 95.3 2.623 2.683
11086.4 1.79876 2.75(10) 92.7 2.623 2.684
11092.0 1.79966 2.84(11) 89.6 2.623 2.690
11097.5 1.80056 2.76(10) 92.2 2.623 2.697
11103.1 1.80146 2.73(10) 93.0 2.622 2.709
11108.6 1.80236 2.69(10) 94.3 2.622 2.728
11114.2 1.80327 2.65(10) 95.3 2.622 2.760
11119.7 1.80417 2.80(11) 90.2 2.622 2.816
11125.3 1.80507 2.94(11) 85.6 2.622 2.910
11130.8 1.80598 3.01(11) 83.4 2.622 3.062
11136.4 1.80688 3.18(11) 79.0 2.622 3.315
11142.0 1.80778 3.50(12) 71.5 2.622 3.724
11147.5 1.80868 3.95(13) 63.3 2.621 4.373
11153.1 1.80959 4.74(14) 52.6 2.621 5.318
11158.7 1.81050 5.93(15) 42.0 2.621 6.530
11164.3 1.81141 7.40(17) 33.57 2.621 7.817
11169.8 1.81231 8.08(18) 30.67 2.621 8.847
11175.4 1.81322 8.32(18) 29.75 2.621 9.323
11181.0 1.81413 8.36(18) 29.54 2.621 9.142
11186.6 1.81503 7.83(18) 31.47 2.621 8.439
11192.2 1.81594 7.13(17) 34.50 2.621 7.460
11197.8 1.81685 6.11(16) 40.2 2.621 6.442
11203.4 1.81776 5.33(15) 46.0 2.620 5.534
11209.0 1.81867 4.49(14) 54.5 2.620 4.797
11214.6 1.81958 3.83(13) 63.7 2.620 4.231
11220.2 1.82049 3.51(12) 69.5 2.620 3.810
11225.8 1.82140 3.41(12) 71.4 2.620 3.501
11231.4 1.82231 3.16(11) 76.6 2.620 3.276
11237.1 1.82322 2.99(11) 80.9 2.620 3.110
11242.7 1.82414 2.87(11) 84.0 2.620 2.989
11248.3 1.82505 2.83(11) 85.3 2.620 2.900
11253.9 1.82596 2.95(11) 81.6 2.620 2.835
11259.6 1.82688 2.81(11) 85.5 2.620 2.786
11265.2 1.82779 2.72(11) 88.0 2.620 2.750
11270.8 1.82871 2.65(11) 90.1 2.620 2.723
11276.4 1.82962 2.69(11) 88.8 2.620 2.703
11282.1 1.83054 2.74(11) 87.0 2.619 2.688
11287.7 1.83145 2.69(11) 88.2 2.619 2.676
11293.4 1.83237 2.66(11) 89.0 2.619 2.667
11299.0 1.83328 2.58(10) 91.7 2.619 2.660
11304.7 1.83420 2.67(11) 88.4 2.619 2.654
11310.3 1.83512 2.61(11) 90.3 2.619 2.650
11316.0 1.83604 2.69(11) 87.5 2.619 2.646
11321.6 1.83696 2.81(11) 83.5 2.619 2.643
11327.3 1.83788 2.73(11) 86.0 2.619 2.641
11333.0 1.83880 2.61(11) 89.7 2.619 2.639
11338.6 1.83972 2.62(11) 89.0 2.619 2.637
11344.3 1.84064 2.62(11) 88.9 2.619 2.636
11350.0 1.84156 2.61(11) 89.3 2.619 2.634
11355.6 1.84248 2.39(10) 97.1 2.619 2.633
11361.3 1.84340 2.61(11) 88.8 2.619 2.632
11367.0 1.84433 2.63(11) 87.7 2.619 2.631
11372.7 1.84525 2.50(10) 92.2 2.619 2.631
11378.4 1.84617 2.44(10) 94.5 2.619 2.630
11384.1 1.84710 2.51(10) 91.4 2.619 2.629
11389.8 1.84802 2.58(11) 89.0 2.619 2.629
11395.4 1.84894 2.55(11) 89.8 2.619 2.628
11401.1 1.84987 2.65(11) 86.3 2.619 2.628
11406.8 1.85080 2.72(11) 83.7 2.619 2.627
11412.5 1.85172 2.52(11) 90.2 2.619 2.627
11418.3 1.85265 2.57(11) 88.3 2.619 2.627
11424.0 1.85358 2.62(11) 86.6 2.619 2.626
11429.7 1.85450 2.56(11) 88.3 2.619 2.622
11435.4 1.85543 2.63(11) 85.8 2.619 2.619
11441.1 1.85636 2.67(11) 84.4 2.619 2.619
11446.8 1.85729 2.57(11) 87.6 2.619 2.619
11452.6 1.85822 2.61(11) 86.1 2.619 2.619
11458.3 1.85915 2.58(11) 86.8 2.619 2.619
11464.0 1.86008 2.52(11) 88.6 2.619 2.619
11469.8 1.86101 2.65(11) 84.2 2.619 2.619
11475.5 1.86194 2.52(11) 88.3 2.620 2.620
11481.2 1.86287 2.51(11) 88.5 2.620 2.620
11486.9 1.86380 2.47(11) 89.9 2.620 2.620
11492.7 1.86474 2.47(11) 89.6 2.620 2.620
11498.4 1.86567 2.54(11) 87.1 2.620 2.620
11504.2 1.86660 2.49(11) 88.3 2.620 2.620
11509.9 1.86754 2.49(11) 88.3 2.620 2.620
11515.7 1.86847 2.56(11) 85.6 2.620 2.620
11521.4 1.86941 2.58(11) 85.1 2.620 2.620
11527.2 1.87034 2.53(11) 86.3 2.620 2.620
11533.0 1.87128 2.58(11) 84.6 2.620 2.620
11538.8 1.87222 2.56(11) 85.2 2.620 2.620
11544.5 1.87315 2.50(11) 86.8 2.620 2.620
11550.3 1.87409 2.53(11) 85.8 2.621 2.621
11556.1 1.87503 2.46(11) 88.1 2.621 2.621
11561.8 1.87597 2.51(11) 85.9 2.621 2.621
11567.6 1.87691 2.67(11) 80.7 2.621 2.621
11573.4 1.87785 2.63(11) 81.7 2.621 2.621
11579.2 1.87878 2.55(11) 84.3 2.621 2.621
11585.0 1.87972 2.70(11) 79.3 2.621 2.621
11590.8 1.88067 2.64(11) 80.9 2.621 2.621
11596.6 1.88161 2.73(11) 78.3 2.621 2.621
11602.4 1.88255 2.70(11) 78.9 2.622 2.622
11608.2 1.88349 2.58(11) 82.5 2.622 2.622
11614.0 1.88443 2.54(11) 83.6 2.622 2.622
11619.8 1.88538 2.60(11) 81.5 2.622 2.622
11625.6 1.88632 2.66(11) 79.5 2.622 2.622
11631.4 1.88726 2.45(11) 86.1 2.622 2.622
11637.2 1.88821 2.42(11) 87.1 2.622 2.623
11643.0 1.88915 2.52(11) 83.2 2.623 2.623
11648.8 1.89010 2.54(11) 82.6 2.623 2.623
11654.7 1.89105 2.51(11) 83.2 2.623 2.623
11660.5 1.89199 2.58(11) 80.9 2.623 2.623
11666.3 1.89294 2.67(11) 78.0 2.623 2.623
11672.2 1.89388 2.67(11) 77.9 2.623 2.624
11678.0 1.89483 2.67(11) 77.6 2.624 2.624
11683.8 1.89578 2.70(11) 76.7 2.624 2.624
11689.7 1.89673 2.64(11) 78.2 2.624 2.624
11695.5 1.89768 2.59(11) 79.7 2.624 2.624
11701.4 1.89863 2.66(11) 77.3 2.624 2.624
11707.2 1.89958 2.67(11) 77.1 2.625 2.625
11713.1 1.90053 2.68(11) 76.6 2.625 2.625
11718.9 1.90148 2.51(11) 81.4 2.625 2.625
11724.8 1.90243 2.62(11) 77.9 2.625 2.625
11730.7 1.90338 2.66(11) 76.5 2.625 2.625
11736.5 1.90434 2.80(12) 72.6 2.626 2.626
11742.4 1.90529 2.61(11) 77.6 2.626 2.626
11748.3 1.90624 2.53(11) 80.1 2.626 2.626
11754.1 1.90719 2.57(11) 78.8 2.626 2.626
11760.0 1.90815 2.57(11) 78.5 2.627 2.627
11765.9 1.90911 2.62(11) 76.9 2.627 2.627
11771.8 1.91006 2.62(11) 76.7 2.627 2.627
11777.7 1.91102 2.63(11) 76.3 2.627 2.627
11783.6 1.91197 2.72(12) 73.7 2.628 2.628
11789.4 1.91293 2.67(12) 74.8 2.628 2.628
11795.3 1.91389 2.65(12) 75.2 2.628 2.628
11801.3 1.91485 2.64(12) 75.3 2.628 2.628
11807.1 1.91580 2.60(11) 76.4 2.629 2.629
11813.0 1.91676 2.73(12) 72.7 2.629 2.629
11818.9 1.91772 2.61(11) 75.6 2.629 2.629
11824.8 1.91868 2.49(11) 79.1 2.629 2.629
11830.8 1.91964 2.69(12) 73.2 2.630 2.630
11836.7 1.92060 2.74(12) 71.6 2.630 2.630
11842.6 1.92156 2.70(12) 72.8 2.630 2.630
11848.5 1.92253 2.78(12) 70.4 2.630 2.630
11854.4 1.92348 2.69(12) 72.7 2.631 2.631
11860.4 1.92445 2.70(12) 72.2 2.631 2.631
11866.3 1.92541 2.71(12) 71.9 2.631 2.631
11872.3 1.92638 2.66(12) 73.1 2.632 2.632
11878.2 1.92734 2.88(12) 67.4 2.632 2.632
11884.1 1.92831 2.77(12) 69.8 2.632 2.632
11890.1 1.92927 2.62(12) 73.6 2.632 2.632
11896.0 1.93023 2.56(12) 75.2 2.633 2.633
11901.9 1.93120 2.81(12) 68.4 2.633 2.784
11907.9 1.93217 2.80(12) 68.5 2.633 2.791
11913.8 1.93313 2.70(12) 70.8 2.634 2.799
11919.8 1.93410 2.64(12) 72.4 2.634 2.808
11925.8 1.93507 2.69(12) 70.9 2.634 2.817
11931.7 1.93604 2.70(12) 70.5 2.635 2.826
11937.7 1.93700 2.82(12) 67.4 2.635 2.837
11943.7 1.93797 2.64(12) 71.7 2.635 2.848
11949.6 1.93894 2.70(12) 70.0 2.636 2.861
11955.6 1.93992 2.90(12) 65.2 2.636 2.874
11961.6 1.94089 2.88(12) 65.3 2.636 2.888
11967.6 1.94186 2.80(12) 67.2 2.637 2.904
11973.6 1.94283 2.76(12) 67.9 2.637 2.922
11979.5 1.94380 2.87(12) 65.3 2.637 2.941
11985.5 1.94477 2.89(12) 64.7 2.638 2.962
11991.5 1.94575 2.95(13) 63.1 2.638 2.986
11997.5 1.94672 2.83(12) 65.7 2.639 3.012
12003.5 1.94770 2.83(12) 65.6 2.639 3.041
12009.5 1.94867 2.94(13) 63.0 2.639 3.074
12015.5 1.94965 2.83(12) 65.4 2.640 3.111
12021.5 1.95062 2.94(13) 62.7 2.640 3.153
12027.5 1.95160 3.04(13) 60.6 2.640 3.202
12033.6 1.95258 3.11(13) 59.0 2.641 3.257
12039.6 1.95355 3.20(13) 57.3 2.641 3.321
12045.6 1.95453 3.11(13) 58.8 2.642 3.397
12051.6 1.95551 3.14(13) 58.2 2.642 3.486
12057.7 1.95649 3.35(14) 54.4 2.642 3.593
12063.7 1.95747 3.66(14) 49.7 2.643 3.723
12069.7 1.95845 3.82(15) 47.5 2.643 3.883
12075.8 1.95943 4.04(15) 44.9 2.643 4.092
12081.8 1.96041 4.43(16) 40.9 2.644 4.398
12087.8 1.96139 4.82(16) 37.5 2.644 4.944
12093.9 1.96237 6.23(19) 28.92 2.645 6.112
12099.9 1.96335 8.76(22) 20.53 2.645 8.771
12106.0 1.96433 14.20(28) 12.64 2.645 14.499
12112.0 1.96531 25.3(4) 7.07 2.65 25.40
12118.1 1.96630 43.2(5) 4.11 2.65 43.21
12124.1 1.96728 67.8(6) 2.606 2.65 67.47
12130.2 1.96827 93.8(7) 1.872 2.65 94.18
12136.3 1.96925 112.4(8) 1.554 2.65 116.24
12142.3 1.97024 120.8(8) 1.442 2.65 126.90
12148.4 1.97123 118.7(8) 1.464 2.65 123.84
12154.5 1.97221 106.8(8) 1.627 2.65 110.02
12160.5 1.97320 88.2(7) 1.973 2.65 90.89
12166.6 1.97418 71.2(6) 2.448 2.65 71.68
12172.7 1.97517 56.6(6) 3.076 2.65 56.04
12178.8 1.97616 46.8(5) 3.72 2.65 45.80
12184.9 1.97715 43.5(5) 4.00 2.65 41.74
12191.0 1.97814 46.0(5) 3.77 2.65 43.92
12197.1 1.97913 54.1(6) 3.195 2.65 51.31
12203.2 1.98012 63.0(6) 2.735 2.65 61.20
12209.3 1.98111 69.3(6) 2.477 2.65 69.54
12215.4 1.98210 72.1(6) 2.375 2.65 72.69
12221.5 1.98310 68.7(6) 2.489 2.65 69.45
12227.6 1.98409 61.0(6) 2.803 2.65 61.21
12233.7 1.98508 50.5(5) 3.383 2.65 50.55
12239.8 1.98607 39.1(5) 4.37 2.66 39.83
12245.9 1.98707 30.0(4) 5.69 2.66 30.51
12252.1 1.98806 22.8(4) 7.47 2.66 23.13
12258.2 1.98906 17.65(32) 9.65 2.656 17.603
12264.3 1.99005 13.71(28) 12.41 2.657 13.572
12270.5 1.99105 10.82(25) 15.70 2.657 10.677
12276.6 1.99204 8.88(23) 19.08 2.658 8.608
12282.7 1.99304 7.95(22) 21.27 2.658 7.120
12288.9 1.99404 6.98(20) 24.18 2.659 6.046
12295.0 1.99504 6.49(20) 25.94 2.659 5.270
12301.2 1.99603 5.90(19) 28.47 2.660 4.705
12307.3 1.99703 5.22(18) 32.12 2.660 4.289
12313.5 1.99803 4.91(17) 34.04 2.661 3.981
12319.6 1.99903 4.54(16) 36.8 2.661 3.750
12325.8 2.00003 4.37(16) 38.1 2.661 3.575
12331.9 2.00103 4.15(16) 40.0 2.662 3.441
12338.1 2.00204 4.11(16) 40.3 2.662 3.336
12344.3 2.00304 3.74(15) 44.2 2.663 3.254
12350.5 2.00404 3.68(15) 44.8 2.663 3.187
12356.6 2.00504 3.58(15) 46.0 2.664 3.134
12362.8 2.00605 3.60(15) 45.7 2.664 3.089
12369.0 2.00705 3.55(15) 46.2 2.665 3.052
12375.2 2.00806 3.48(15) 47.1 2.665 3.021
12381.4 2.00906 3.31(14) 49.4 2.666 2.993
12387.6 2.01007 3.20(14) 51.0 2.666 2.970
12393.8 2.01107 3.31(14) 49.1 2.667 2.899
12399.9 2.01208 3.30(14) 49.1 2.667 2.883
12406.2 2.01309 3.22(14) 50.3 2.668 2.869
12412.3 2.01409 3.21(14) 50.3 2.668 2.857
12418.6 2.01510 3.34(14) 48.4 2.669 2.846
12424.8 2.01611 3.11(14) 51.7 2.669 2.836
12431.0 2.01712 3.18(14) 50.5 2.669 2.827
12437.2 2.01813 3.27(14) 49.0 2.670 2.819
12443.4 2.01914 3.05(14) 52.4 2.670 2.811
12449.6 2.02015 2.89(13) 55.1 2.671 2.805
12455.8 2.02116 2.80(13) 56.9 2.671 2.798
12462.1 2.02217 2.78(13) 57.1 2.672 2.793
12468.3 2.02318 2.74(13) 57.9 2.672 2.787
12474.6 2.02420 2.81(13) 56.4 2.673 2.782
12480.8 2.02521 2.90(14) 54.4 2.673 2.778
12487.0 2.02622 2.83(13) 55.7 2.674 2.774
12493.3 2.02724 2.87(14) 54.8 2.674 2.770
12499.5 2.02825 2.82(13) 55.7 2.675 2.766
12505.8 2.02926 2.78(13) 56.3 2.675 2.675
12512.0 2.03028 2.83(13) 55.2 2.676 2.676
12518.3 2.03130 2.81(13) 55.5 2.676 2.676
12524.5 2.03231 2.76(13) 56.5 2.676 2.676
12530.8 2.03333 2.56(13) 60.6 2.677 2.677
12537.1 2.03435 2.72(13) 57.0 2.677 2.677
12543.3 2.03537 2.52(13) 61.3 2.678 2.678
12549.6 2.03638 2.71(13) 56.9 2.678 2.678
12555.9 2.03740 2.74(13) 56.3 2.679 2.679
12562.2 2.03842 2.71(13) 56.6 2.679 2.679
12568.4 2.03944 2.65(13) 57.8 2.680 2.680
12574.7 2.04046 2.67(13) 57.4 2.680 2.680
12581.0 2.04148 2.81(14) 54.3 2.681 2.681
12587.3 2.04250 2.74(13) 55.7 2.681 2.681
12593.6 2.04353 2.67(13) 57.0 2.682 2.682
12599.9 2.04455 2.70(13) 56.2 2.682 2.682
12606.2 2.04557 2.51(13) 60.4 2.682 2.682
12612.5 2.04660 2.58(13) 58.7 2.683 2.683
12618.8 2.04762 2.71(13) 55.8 2.683 2.683
12625.1 2.04864 2.65(13) 56.8 2.684 2.684
12631.4 2.04967 2.60(13) 57.7 2.684 2.684
12637.7 2.05069 2.73(14) 54.9 2.685 2.685
12644.1 2.05172 2.83(14) 52.9 2.685 2.685
12650.4 2.05275 2.69(13) 55.5 2.685 2.685
12656.7 2.05377 2.71(13) 54.9 2.686 2.686
12663.0 2.05480 2.79(14) 53.3 2.686 2.686
12669.4 2.05583 2.74(14) 54.2 2.687 2.687
12675.7 2.05686 2.74(14) 54.1 2.687 2.687
12682.0 2.05789 2.80(14) 52.9 2.688 2.688
12688.4 2.05892 2.80(14) 52.7 2.688 2.688
12694.7 2.05995 2.73(14) 54.0 2.688 2.688
12701.1 2.06098 2.73(14) 53.9 2.689 2.689
12707.4 2.06201 2.76(14) 53.2 2.689 2.689
12713.8 2.06305 2.80(14) 52.2 2.690 2.690
12720.1 2.06408 2.71(14) 54.0 2.690 2.690
12726.5 2.06511 2.68(14) 54.4 2.690 2.690
12732.8 2.06614 2.70(14) 54.0 2.691 2.691
12739.2 2.06718 2.51(13) 58.0 2.691 2.691
12745.6 2.06821 2.46(13) 58.8 2.692 2.692
12752.0 2.06925 2.71(14) 53.4 2.692 2.692
12758.3 2.07028 2.70(14) 53.5 2.692 2.692
12764.7 2.07132 2.58(13) 55.8 2.693 2.693
12771.1 2.07235 2.51(13) 57.2 2.693 2.693
12777.5 2.07339 2.59(13) 55.4 2.694 2.694
12783.9 2.07443 2.68(14) 53.5 2.694 2.694
12790.3 2.07547 2.64(14) 54.1 2.694 2.694
12796.7 2.07651 2.74(14) 52.1 2.695 2.695
12803.1 2.07755 2.82(14) 50.5 2.695 2.695
12809.5 2.07859 2.72(14) 52.3 2.695 2.695
12815.9 2.07963 2.86(14) 49.6 2.696 2.696
12822.3 2.08067 2.69(14) 52.7 2.696 2.696
12828.7 2.08171 2.52(13) 56.0 2.696 2.696
12835.1 2.08275 2.60(14) 54.2 2.697 2.697
12841.5 2.08379 2.70(14) 52.2 2.697 2.697
12847.9 2.08483 2.78(14) 50.6 2.697 2.697
12854.3 2.08588 2.88(14) 48.7 2.698 2.698
12860.8 2.08692 2.77(14) 50.6 2.698 2.698
12867.2 2.08797 2.66(14) 52.6 2.698 2.698
12873.7 2.08901 2.69(14) 51.8 2.699 2.699
12880.1 2.09006 2.77(14) 50.2 2.699 2.699
12886.5 2.09110 2.69(14) 51.7 2.699 2.699
12893.0 2.09215 2.67(14) 51.9 2.700 2.700
12899.4 2.09319 2.65(14) 52.2 2.700 2.700
12905.9 2.09424 2.69(14) 51.4 2.700 2.700
12912.3 2.09529 2.46(13) 56.1 2.701 2.701
12918.8 2.09634 2.44(13) 56.5 2.701 2.701
12925.2 2.09739 2.41(13) 57.0 2.701 2.701
12931.7 2.09844 2.65(14) 51.8 2.701 2.701
12938.2 2.09949 2.67(14) 51.2 2.702 2.702
12944.6 2.10054 2.71(14) 50.5 2.702 2.702
12951.1 2.10159 2.64(14) 51.7 2.702 2.702
12957.6 2.10264 2.62(14) 52.0 2.703 2.703
12964.1 2.10369 2.58(14) 52.7 2.703 2.703
12970.5 2.10475 2.78(14) 48.7 2.703 2.703
12977.0 2.10580 2.83(14) 47.9 2.703 2.703
12983.5 2.10685 2.75(14) 49.1 2.704 2.704
12990.0 2.10791 2.78(14) 48.5 2.704 2.704
12996.5 2.10896 2.75(14) 48.9 2.704 2.704
13003.0 2.11002 2.73(14) 49.2 2.704 2.704
13009.5 2.11107 2.71(14) 49.6 2.704 2.704
13016.0 2.11213 2.63(14) 50.9 2.705 2.705
13022.5 2.11319 2.67(14) 50.1 2.705 2.705
13029.0 2.11425 2.52(14) 52.9 2.705 2.705
13035.5 2.11530 2.65(14) 50.3 2.705 2.705
13042.1 2.11636 2.62(14) 50.8 2.705 2.705
13048.6 2.11742 2.53(14) 52.5 2.706 2.706
13055.1 2.11848 2.60(14) 51.0 2.706 2.706
13061.6 2.11954 2.57(14) 51.5 2.706 2.706
13068.2 2.12060 2.38(13) 55.6 2.706 2.706
13074.7 2.12166 2.50(14) 52.7 2.706 2.706
13081.2 2.12272 2.71(14) 48.5 2.707 2.707
13087.8 2.12379 2.59(14) 50.7 2.707 2.707
13094.3 2.12485 2.49(14) 52.7 2.707 2.707
13100.9 2.12592 2.63(14) 49.7 2.707 2.707
13107.4 2.12698 2.54(14) 51.5 2.707 2.707
13114.0 2.12804 2.53(14) 51.7 2.707 2.707
13120.5 2.12911 2.62(14) 49.8 2.707 2.707
13127.1 2.13017 2.59(14) 50.3 2.708 2.708
13133.7 2.13124 2.61(14) 49.8 2.708 2.708
13140.2 2.13230 2.51(14) 51.7 2.708 2.708
13146.8 2.13337 2.60(14) 49.8 2.708 2.708
13153.4 2.13444 2.74(15) 47.3 2.708 2.708
13159.9 2.13551 2.83(15) 45.7 2.708 2.708
13166.5 2.13658 2.88(15) 44.7 2.708 2.708
13173.1 2.13764 3.15(16) 40.9 2.708 2.708
13179.7 2.13872 3.57(17) 36.0 2.708 2.708
13186.3 2.13979 3.85(17) 33.34 2.708 2.708
13192.9 2.14086 4.05(18) 31.68 2.708 2.708
13199.5 2.14193 4.08(18) 31.39 2.708 2.708
13206.1 2.14300 3.91(17) 32.69 2.708 2.709
13212.7 2.14407 3.73(17) 34.17 2.709 2.709
13219.3 2.14515 3.59(17) 35.4 2.709 2.709
13225.9 2.14622 3.35(16) 38.0 2.709 2.709
13232.5 2.14729 3.26(16) 38.9 2.709 2.709
13239.1 2.14837 3.09(16) 41.0 2.709 2.709
13245.7 2.14944 2.75(15) 46.0 2.709 2.709
13252.3 2.15052 2.52(14) 50.1 2.709 2.709
13259.0 2.15159 2.65(15) 47.5 2.709 2.709
13265.6 2.15267 2.61(14) 48.1 2.709 2.709
13272.3 2.15375 2.46(14) 51.1 2.709 2.709
13278.9 2.15482 2.65(15) 47.3 2.709 2.709
13285.5 2.15591 2.58(14) 48.5 2.709 2.709
13292.2 2.15698 2.54(14) 49.2 2.709 2.709
13298.8 2.15806 2.63(15) 47.4 2.709 2.709
13305.5 2.15914 2.61(14) 47.7 2.708 2.708
13312.1 2.16022 2.50(14) 49.7 2.708 2.708
13318.8 2.16131 2.29(14) 54.1 2.708 2.708
13325.4 2.16239 2.48(14) 49.9 2.708 2.708
13332.1 2.16347 2.50(14) 49.6 2.708 2.708
13338.8 2.16455 2.47(14) 50.1 2.708 2.708
13345.4 2.16564 2.64(15) 46.7 2.708 2.708
13352.1 2.16672 2.61(15) 47.3 2.708 2.708
13358.8 2.16780 2.48(14) 49.6 2.708 2.708
13365.5 2.16889 2.35(14) 52.2 2.708 2.708
13372.1 2.16997 2.38(14) 51.5 2.708 2.708
13378.8 2.17106 2.53(14) 48.4 2.707 2.708
13385.5 2.17214 2.48(14) 49.4 2.707 2.707
13392.2 2.17323 2.45(14) 49.8 2.707 2.707
13398.9 2.17432 2.54(14) 48.0 2.707 2.707
13405.6 2.17541 2.84(15) 42.9 2.707 2.707
13412.3 2.17650 2.55(14) 47.7 2.707 2.707
13419.0 2.17758 2.58(15) 47.1 2.707 2.707
13425.7 2.17867 2.47(14) 49.1 2.706 2.706
13432.4 2.17977 2.51(14) 48.3 2.706 2.706
13439.2 2.18086 2.48(14) 48.7 2.706 2.706
13445.9 2.18195 2.56(15) 47.2 2.706 2.706
13452.6 2.18304 2.54(15) 47.4 2.706 2.706
13459.3 2.18413 2.65(15) 45.4 2.706 2.706
13466.0 2.18522 2.68(15) 44.9 2.705 2.705
13472.8 2.18632 2.45(14) 48.9 2.705 2.705
13479.5 2.18741 2.55(15) 47.0 2.705 2.705
13486.3 2.18851 2.62(15) 45.6 2.705 2.705
13493.0 2.18960 2.52(15) 47.4 2.704 2.704
13499.8 2.19070 2.60(15) 45.9 2.704 2.704
13506.5 2.19179 2.84(15) 41.9 2.704 2.704
13513.3 2.19289 2.67(15) 44.6 2.704 2.704
13520.0 2.19399 2.54(15) 46.8 2.703 2.703
13526.8 2.19508 2.51(15) 47.2 2.703 2.703
13533.5 2.19618 2.51(15) 47.1 2.703 2.703
13540.3 2.19728 2.63(15) 44.9 2.703 2.703
13547.1 2.19838 2.51(15) 47.0 2.702 2.702
13553.8 2.19948 2.58(15) 45.8 2.702 2.702
13560.6 2.20059 2.74(15) 43.0 2.702 2.702
13567.4 2.20169 2.69(15) 43.6 2.701 2.701
13574.2 2.20279 2.65(15) 44.3 2.701 2.701
13581.0 2.20389 2.52(15) 46.4 2.701 2.701
13587.8 2.20499 2.64(15) 44.3 2.700 2.700
13594.6 2.20610 2.71(15) 43.1 2.700 2.700
13601.3 2.20720 2.78(15) 42.0 2.700 2.700
13608.2 2.20831 2.79(15) 41.8 2.699 2.699
13615.0 2.20941 2.78(15) 41.8 2.699 2.699
13621.8 2.21051 2.61(15) 44.5 2.699 2.699
13628.6 2.21162 2.61(15) 44.4 2.698 2.698
13635.4 2.21273 2.72(15) 42.5 2.698 2.698
13642.2 2.21384 2.61(15) 44.3 2.698 2.698
13649.0 2.21494 2.50(15) 46.1 2.697 2.697
13655.8 2.21605 2.60(15) 44.3 2.697 2.697
13662.7 2.21716 2.56(15) 45.0 2.696 2.696
13669.5 2.21827 2.57(15) 44.8 2.696 2.696
13676.3 2.21938 2.50(15) 45.9 2.696 2.696
13683.2 2.22049 2.57(15) 44.6 2.695 2.695
13690.0 2.22160 2.42(15) 47.3 2.695 2.695
13696.9 2.22271 2.47(15) 46.3 2.694 2.694
13703.7 2.22383 2.37(14) 48.1 2.694 2.694
13710.6 2.22494 2.58(15) 44.1 2.693 2.693
13717.4 2.22605 2.53(15) 44.9 2.693 2.693
13724.3 2.22717 2.69(15) 42.3 2.693 2.693
13731.2 2.22828 2.77(16) 40.9 2.692 2.802
13738.0 2.22939 2.80(16) 40.5 2.692 2.806
13744.9 2.23051 2.71(15) 41.7 2.691 2.811
13751.8 2.23163 2.64(15) 42.8 2.691 2.816
13758.6 2.23274 2.62(15) 42.9 2.690 2.822
13765.5 2.23386 2.65(15) 42.4 2.690 2.828
13772.4 2.23498 2.49(15) 45.0 2.689 2.834
13779.3 2.23610 2.56(15) 43.8 2.689 2.841
13786.2 2.23722 2.66(15) 42.1 2.688 2.849
13793.1 2.23834 2.70(16) 41.4 2.688 2.857
13800.0 2.23946 2.67(15) 41.8 2.687 2.866
13806.8 2.24058 2.72(16) 41.0 2.687 2.875
13813.8 2.24170 2.62(15) 42.5 2.686 2.886
13820.7 2.24282 2.72(16) 40.8 2.686 2.897
13827.6 2.24394 2.78(16) 39.9 2.685 2.910
13834.5 2.24507 2.60(15) 42.7 2.684 2.924
13841.4 2.24619 2.61(15) 42.4 2.684 2.940
13848.3 2.24731 2.67(16) 41.3 2.683 2.957
13855.3 2.24844 2.68(16) 41.1 2.683 2.976
13862.2 2.24956 2.70(16) 40.9 2.682 2.997
13869.1 2.25069 2.58(15) 42.6 2.682 3.021
13876.0 2.25181 2.58(15) 42.6 2.681 3.048
13883.0 2.25294 2.50(15) 43.8 2.680 3.078
13889.9 2.25407 2.65(16) 41.2 2.680 3.113
13896.9 2.25520 2.96(16) 37.0 2.679 3.152
13903.8 2.25633 2.80(16) 39.0 2.679 3.197
13910.8 2.25746 2.88(16) 37.9 2.678 3.249
13917.7 2.25858 2.99(17) 36.4 2.677 3.309
13924.7 2.25972 2.97(17) 36.6 2.677 3.380
13931.7 2.26085 3.09(17) 35.1 2.676 3.464
13938.6 2.26198 3.05(17) 35.6 2.675 3.564
13945.6 2.26311 3.45(18) 31.38 2.675 3.684
13952.6 2.26424 3.64(18) 29.70 2.674 3.831
13959.5 2.26538 3.89(19) 27.73 2.674 4.013
13966.5 2.26651 4.03(19) 26.74 2.673 4.247
13973.5 2.26764 4.50(20) 23.94 2.672 4.568
13980.5 2.26878 5.26(22) 20.42 2.672 5.076
13987.5 2.26991 6.36(24) 16.88 2.671 6.057
13994.5 2.27105 9.03(29) 11.88 2.670 8.209
14001.5 2.27219 13.6(4) 7.88 2.67 12.95
14008.5 2.27332 23.5(5) 4.54 2.67 22.49
14015.5 2.27446 41.5(6) 2.563 2.67 39.18
14022.5 2.27560 68.9(8) 1.538 2.67 63.87
14029.5 2.27674 100.2(10) 1.053 2.67 93.80
14036.5 2.27788 128.1(11) 0.820 2.67 121.80
14043.5 2.27902 142.7(12) 0.734 2.67 138.89
14050.5 2.28016 141.8(12) 0.738 2.66 139.93
14057.6 2.28130 128.0(11) 0.817 2.66 126.43
14064.6 2.28244 106.4(10) 0.983 2.66 104.43
14071.6 2.28358 82.0(9) 1.278 2.66 80.55
14078.7 2.28472 59.8(8) 1.753 2.66 59.32
14085.7 2.28587 42.4(6) 2.470 2.66 42.60
14092.8 2.28701 30.1(5) 3.479 2.66 30.42
14099.8 2.28815 21.9(5) 4.79 2.66 21.91
14106.8 2.28930 15.7(4) 6.65 2.66 16.07
14113.9 2.29045 12.17(34) 8.58 2.658 12.105
14120.9 2.29159 10.02(31) 10.40 2.657 9.401
14128.0 2.29274 8.61(29) 12.09 2.656 7.545
14135.1 2.29389 7.26(26) 14.31 2.656 6.262
14142.2 2.29504 6.34(25) 16.36 2.655 5.371
14149.2 2.29618 5.93(24) 17.46 2.654 4.746
14156.3 2.29733 5.71(24) 18.10 2.653 4.299
14163.4 2.29848 5.17(22) 19.95 2.653 3.977
14170.4 2.29963 4.71(21) 21.88 2.652 3.741
14177.5 2.30078 4.39(21) 23.39 2.651 3.564
14184.6 2.30194 4.24(20) 24.21 2.650 3.429
14191.7 2.30309 4.00(20) 25.58 2.649 3.325
14198.8 2.30424 3.66(19) 27.92 2.649 3.242
14205.9 2.30539 3.73(19) 27.38 2.648 3.175
14213.0 2.30654 3.72(19) 27.37 2.647 3.120
14220.1 2.30770 3.55(19) 28.63 2.646 3.074
14227.2 2.30885 3.40(18) 29.83 2.645 3.034
14234.3 2.31001 3.20(18) 31.63 2.645 3.001
14241.5 2.31117 3.19(18) 31.75 2.644 2.971
14248.6 2.31233 2.96(17) 34.16 2.643 2.946
14255.7 2.31348 2.99(17) 33.66 2.642 2.923
14262.8 2.31464 3.07(17) 32.78 2.641 2.903
14270.0 2.31580 3.07(17) 32.76 2.640 2.884
14277.1 2.31695 2.90(17) 34.59 2.639 2.868
14284.3 2.31812 3.00(17) 33.40 2.639 2.853
14291.4 2.31927 3.13(18) 31.95 2.638 2.839
14298.5 2.32044 2.88(17) 34.62 2.637 2.826
14305.7 2.32160 2.67(16) 37.3 2.636 2.815
14312.8 2.32276 2.73(17) 36.5 2.635 2.804
14320.0 2.32392 2.74(17) 36.2 2.634 2.794
14327.2 2.32509 2.80(17) 35.3 2.633 2.791
14334.3 2.32625 2.94(17) 33.70 2.633 2.681
14341.5 2.32741 2.95(17) 33.45 2.632 2.643
14348.7 2.32858 2.63(16) 37.4 2.631 2.643
14355.8 2.32974 2.72(17) 36.2 2.630 2.643
14363.0 2.33091 2.69(17) 36.5 2.629 2.643
14370.2 2.33207 2.75(17) 35.7 2.628 2.643
14377.4 2.33324 2.75(17) 35.6 2.627 2.642
14384.6 2.33441 3.00(18) 32.59 2.626 2.642
14391.8 2.33558 2.74(17) 35.6 2.625 2.642
14398.9 2.33674 2.59(16) 37.6 2.624 2.642
14406.2 2.33792 2.57(16) 37.8 2.624 2.642
14413.3 2.33908 2.65(17) 36.7 2.623 2.643
14420.6 2.34026 2.54(16) 38.2 2.622 2.643
14427.8 2.34142 2.65(17) 36.6 2.621 2.643
14435.0 2.34260 2.78(17) 34.75 2.620 2.644
14442.2 2.34377 2.93(17) 32.89 2.619 2.645
14449.4 2.34494 2.96(18) 32.52 2.618 2.646
14456.6 2.34611 2.88(17) 33.37 2.617 2.647
14463.9 2.34729 2.46(16) 39.0 2.616 2.648
14471.1 2.34846 2.70(17) 35.5 2.615 2.650
14478.3 2.34964 2.66(17) 35.9 2.614 2.652
14485.6 2.35081 2.65(17) 36.0 2.613 2.654
14492.8 2.35199 2.78(17) 34.31 2.612 2.657
14500.1 2.35317 2.79(17) 34.04 2.611 2.660
14507.3 2.35435 2.64(17) 35.9 2.610 2.664
14514.6 2.35553 2.86(17) 33.18 2.609 2.669
14521.8 2.35670 3.06(18) 30.96 2.608 2.674
14529.1 2.35789 2.85(17) 33.11 2.608 2.681
14536.3 2.35906 2.87(17) 32.83 2.607 2.690
14543.6 2.36025 2.75(17) 34.18 2.606 2.700
14550.9 2.36142 2.65(17) 35.4 2.605 2.713
14558.2 2.36261 2.85(17) 32.93 2.604 2.728
14565.4 2.36379 3.07(18) 30.54 2.603 2.749
14572.7 2.36497 2.98(18) 31.31 2.602 2.777
14580.0 2.36615 3.19(18) 29.28 2.601 2.822
14587.3 2.36734 3.46(19) 26.89 2.600 2.909
14594.6 2.36852 3.47(19) 26.77 2.599 3.106
14601.9 2.36971 4.02(21) 23.10 2.598 3.554
14609.2 2.37089 5.23(24) 17.72 2.597 4.489
14616.5 2.37208 7.03(28) 13.18 2.596 6.179
14623.8 2.37327 9.37(32) 9.88 2.595 8.734
14631.1 2.37446 12.6(4) 7.31 2.59 11.88
14638.4 2.37565 15.0(4) 6.13 2.59 14.86
14645.8 2.37683 16.8(4) 5.48 2.59 16.69
14653.1 2.37803 16.3(4) 5.64 2.59 16.78
14660.4 2.37921 14.8(4) 6.18 2.59 15.32
14667.8 2.38041 13.3(4) 6.90 2.59 12.97
14675.1 2.38159 10.75(34) 8.50 2.587 10.490
14682.4 2.38279 8.37(30) 10.89 2.586 8.359
14689.8 2.38398 6.65(27) 13.68 2.585 6.776
14697.1 2.38517 5.38(24) 16.89 2.584 5.706
14704.4 2.38637 4.63(23) 19.55 2.583 5.006
14711.8 2.38756 4.15(21) 21.77 2.582 4.517
14719.2 2.38876 3.82(21) 23.64 2.581 4.130
14726.5 2.38995 3.64(20) 24.71 2.580 3.796
14733.9 2.39115 3.48(20) 25.80 2.579 3.506
14741.3 2.39235 3.29(19) 27.22 2.578 3.267
14748.6 2.39354 3.02(18) 29.59 2.577 3.081
14756.0 2.39474 3.12(19) 28.58 2.576 2.944
14763.4 2.39594 3.04(18) 29.32 2.575 2.846
14770.8 2.39714 2.65(17) 33.58 2.574 2.777
14778.1 2.39833 2.54(17) 34.94 2.573 2.729
14785.5 2.39954 2.60(17) 34.02 2.572 2.695
14792.9 2.40074 2.63(17) 33.55 2.571 2.670
14800.3 2.40194 2.71(18) 32.53 2.569 2.652
14807.7 2.40314 2.50(17) 35.3 2.568 2.638
14815.1 2.40434 2.35(16) 37.4 2.567 2.627
14822.5 2.40555 2.44(17) 35.9 2.566 2.618
14829.9 2.40675 2.61(17) 33.58 2.565 2.611
14837.3 2.40795 2.48(17) 35.2 2.564 2.605
14844.8 2.40916 2.65(17) 33.00 2.563 2.600
14852.2 2.41036 2.83(18) 30.77 2.562 2.596
14859.6 2.41157 2.79(18) 31.17 2.561 2.592
14867.0 2.41278 2.64(17) 32.86 2.560 2.588
14874.5 2.41398 2.78(18) 31.22 2.558 2.585
14881.9 2.41519 3.11(19) 27.81 2.557 2.582
14889.3 2.41640 2.95(18) 29.29 2.556 2.579
14896.8 2.41761 2.81(18) 30.62 2.555 2.577
14904.3 2.41882 2.65(18) 32.40 2.554 2.574
14911.7 2.42003 2.41(17) 35.6 2.553 2.572
14919.2 2.42124 2.62(17) 32.70 2.552 2.570
14926.6 2.42246 2.51(17) 34.12 2.551 2.567
14934.1 2.42367 2.50(17) 34.12 2.549 2.557
14941.5 2.42488 2.55(17) 33.40 2.548 2.550
14949.0 2.42610 2.49(17) 34.21 2.547 2.548
14956.5 2.42731 2.50(17) 33.96 2.546 2.547
14964.0 2.42852 2.39(17) 35.5 2.545 2.546
14971.4 2.42973 2.40(17) 35.1 2.544 2.545
14978.9 2.43095 2.62(18) 32.20 2.542 2.544
14986.4 2.43217 2.35(17) 35.8 2.541 2.542
14993.9 2.43338 2.41(17) 34.94 2.540 2.541
15001.4 2.43460 2.39(17) 35.1 2.539 2.540
15008.9 2.43582 2.42(17) 34.58 2.538 2.539
15016.4 2.43704 2.35(17) 35.6 2.537 2.537
15023.9 2.43826 2.62(18) 31.90 2.535 2.536
15031.4 2.43948 2.48(17) 33.62 2.534 2.535
15039.0 2.44070 2.37(17) 35.02 2.533 2.534
15046.5 2.44192 2.23(16) 37.2 2.532 2.532
15054.0 2.44315 2.37(17) 35.01 2.531 2.531
15061.5 2.44437 2.51(17) 33.01 2.530 2.530
15069.1 2.44559 2.54(18) 32.46 2.528 2.528
15076.6 2.44682 2.45(17) 33.58 2.527 2.527
15084.1 2.44804 2.26(17) 36.3 2.526 2.526
15091.7 2.44927 2.24(17) 36.6 2.525 2.525
15099.2 2.45049 2.56(18) 32.05 2.524 2.524
15106.8 2.45172 2.33(17) 35.1 2.522 2.522
15114.3 2.45294 2.33(17) 35.07 2.521 2.521
15121.9 2.45417 2.43(17) 33.46 2.520 2.520
15129.4 2.45540 2.56(18) 31.74 2.519 2.519
15137.0 2.45663 2.46(17) 33.03 2.518 2.518
15144.6 2.45786 2.44(17) 33.24 2.516 2.516
15152.2 2.45909 2.56(18) 31.64 2.515 2.515
15159.7 2.46032 2.53(18) 31.95 2.514 2.514
15167.3 2.46155 2.39(17) 33.71 2.513 2.513
15174.9 2.46278 2.24(17) 35.9 2.511 2.511
15182.5 2.46401 2.33(17) 34.48 2.510 2.510
15190.1 2.46525 2.32(17) 34.58 2.509 2.509
15197.7 2.46648 2.19(17) 36.5 2.508 2.508
15205.3 2.46771 2.40(17) 33.33 2.507 2.507
15212.9 2.46895 2.47(18) 32.33 2.505 2.505
15220.5 2.47019 2.45(18) 32.52 2.504 2.504
15228.1 2.47142 2.46(18) 32.26 2.503 2.503
15235.7 2.47266 2.56(18) 31.00 2.502 2.502
15243.3 2.47390 2.47(18) 31.98 2.500 2.500
15250.9 2.47513 2.52(18) 31.31 2.499 2.499
15258.6 2.47637 2.45(18) 32.18 2.498 2.498
15266.2 2.47761 2.45(18) 32.08 2.497 2.497
15273.8 2.47885 2.43(18) 32.35 2.495 2.495
15281.5 2.48009 2.26(17) 34.72 2.494 2.494
15289.1 2.48133 2.62(18) 29.91 2.493 2.493
15296.8 2.48258 2.44(18) 32.07 2.492 2.492
15304.4 2.48381 2.41(18) 32.39 2.490 2.490
15312.0 2.48506 2.57(18) 30.36 2.489 2.489
15319.7 2.48630 2.82(19) 27.58 2.488 2.488
15327.3 2.48755 2.56(18) 30.34 2.487 2.487
15335.0 2.48879 2.38(18) 32.56 2.485 2.485
15342.7 2.49004 2.30(17) 33.64 2.484 2.484
15350.4 2.49129 2.33(17) 33.07 2.483 2.483
15358.0 2.49253 2.49(18) 30.96 2.482 2.482
15365.7 2.49378 2.36(18) 32.53 2.480 2.480
15373.4 2.49503 2.58(18) 29.75 2.479 2.479
15381.1 2.49628 2.38(18) 32.20 2.478 2.478
15388.8 2.49752 2.53(18) 30.22 2.476 2.476
15396.5 2.49877 2.45(18) 31.19 2.475 2.475
15404.2 2.50002 2.33(17) 32.69 2.474 2.474
15411.9 2.50128 2.69(19) 28.35 2.473 2.473
15419.6 2.50252 2.66(19) 28.58 2.471 2.471
15427.3 2.50378 2.57(18) 29.52 2.470 2.470
15435.0 2.50503 2.44(18) 31.00 2.469 2.469
15442.7 2.50629 2.40(18) 31.45 2.468 2.468
15450.4 2.50754 2.62(19) 28.80 2.466 2.466
15458.2 2.50879 2.43(18) 30.98 2.465 2.465
15465.9 2.51005 2.72(19) 27.62 2.464 2.464
15473.6 2.51131 2.62(19) 28.63 2.463 2.463
15481.4 2.51257 2.75(19) 27.20 2.461 2.461
15489.1 2.51382 2.89(20) 25.88 2.460 2.460
15496.8 2.51508 2.38(18) 31.36 2.459 2.459
15504.6 2.51634 2.30(18) 32.33 2.458 2.458
15512.3 2.51760 2.50(18) 29.72 2.456 2.456
15520.1 2.51885 2.40(18) 30.92 2.455 2.455
15527.9 2.52012 2.49(18) 29.70 2.454 2.454
15535.6 2.52138 2.76(19) 26.82 2.453 2.453
15543.4 2.52264 2.76(19) 26.72 2.451 2.451
15551.2 2.52390 2.70(19) 27.28 2.450 2.450
15558.9 2.52516 2.71(19) 27.13 2.449 2.449
15566.7 2.52643 2.60(19) 28.28 2.448 2.448
15574.5 2.52769 2.43(18) 30.17 2.447 2.447
15582.3 2.52896 2.41(18) 30.35 2.445 2.445
15590.1 2.53022 2.42(18) 30.17 2.444 2.444
15597.9 2.53149 2.44(18) 29.87 2.443 2.443
15605.7 2.53276 2.41(18) 30.17 2.442 2.442
15613.5 2.53402 2.45(18) 29.63 2.441 2.441
15621.3 2.53529 2.36(18) 30.71 2.439 2.439
15629.1 2.53656 2.32(18) 31.08 2.438 2.438
15636.9 2.53783 2.43(18) 29.65 2.437 2.437
15644.7 2.53910 2.38(18) 30.26 2.436 2.436
15652.6 2.54037 2.48(19) 28.99 2.435 2.435
15660.4 2.54164 2.32(18) 30.89 2.433 2.433
15668.2 2.54292 2.43(18) 29.44 2.432 2.432
15676.0 2.54418 2.35(18) 30.38 2.431 2.431
15683.9 2.54546 2.39(18) 29.83 2.430 2.430
15691.7 2.54673 2.25(18) 31.57 2.429 2.429
15699.6 2.54801 2.23(18) 31.79 2.428 2.428
15707.4 2.54928 2.27(18) 31.27 2.427 2.427
15715.3 2.55056 2.33(18) 30.33 2.425 2.425
15723.1 2.55183 2.36(18) 29.94 2.424 2.424
15731.0 2.55311 2.19(18) 32.11 2.423 2.423
15738.8 2.55439 2.33(18) 30.25 2.422 2.422
15746.7 2.55567 2.21(18) 31.77 2.421 2.421
15754.6 2.55695 2.54(19) 27.67 2.420 2.420
15762.5 2.55822 2.57(19) 27.28 2.419 2.419
15770.3 2.55950 2.41(19) 28.98 2.418 2.418
15778.3 2.56079 2.39(18) 29.23 2.417 2.417
15786.1 2.56207 2.58(19) 26.99 2.416 2.416
15794.0 2.56335 2.55(19) 27.22 2.415 2.415
15801.9 2.56463 2.28(18) 30.38 2.414 2.414
15809.8 2.56592 2.31(18) 29.96 2.413 2.413
15817.7 2.56720 2.30(18) 29.99 2.412 2.412
15825.6 2.56848 2.62(20) 26.29 2.411 2.411
15833.5 2.56977 2.49(19) 27.65 2.410 2.410
15841.5 2.57106 2.50(19) 27.46 2.409 2.409
15849.4 2.57234 2.60(19) 26.35 2.408 2.408
15857.3 2.57363 2.53(19) 27.07 2.407 2.407
15865.3 2.57492 2.33(18) 29.33 2.406 2.406
15873.2 2.57620 2.23(18) 30.55 2.405 2.405
15881.1 2.57749 2.26(18) 30.01 2.404 2.404
15889.0 2.57878 2.58(19) 26.32 2.403 2.403
15897.0 2.58008 2.73(20) 24.87 2.402 2.402
15904.9 2.58137 2.56(19) 26.42 2.401 2.401
15912.9 2.58266 2.61(20) 25.82 2.400 2.400
15920.8 2.58395 2.57(20) 26.21 2.400 2.400
15928.8 2.58525 2.42(19) 27.78 2.399 2.399
15936.8 2.58654 2.27(18) 29.54 2.398 2.398
15944.8 2.58783 2.57(20) 26.03 2.397 2.397
15952.7 2.58913 2.69(20) 24.88 2.396 2.396
15960.7 2.59042 2.38(19) 28.05 2.396 2.396
15968.7 2.59172 2.53(20) 26.30 2.395 2.395
15976.7 2.59302 2.53(20) 26.28 2.394 2.394
15984.7 2.59432 2.40(19) 27.59 2.393 2.393
15992.6 2.59561 2.26(18) 29.25 2.393 2.393
16000.6 2.59691 2.17(18) 30.44 2.392 2.392
16008.6 2.59821 2.40(19) 27.39 2.391 2.391
16016.6 2.59951 2.31(19) 28.44 2.391 2.391
16024.7 2.60081 2.33(19) 28.14 2.390 2.390
16032.7 2.60211 2.23(18) 29.31 2.389 2.389
16040.7 2.60342 2.57(20) 25.44 2.389 2.389
16048.7 2.60472 2.58(20) 25.24 2.388 2.388
16056.7 2.60602 2.47(19) 26.38 2.387 2.387
16064.8 2.60733 2.32(19) 27.93 2.387 2.387
16072.8 2.60863 2.34(19) 27.68 2.386 2.386
16080.8 2.60994 2.52(20) 25.67 2.386 2.386
16088.8 2.61124 2.27(19) 28.35 2.385 2.385
16096.9 2.61255 2.31(19) 27.88 2.385 2.385
16104.9 2.61386 2.49(20) 25.81 2.384 2.384
16113.0 2.61517 2.24(19) 28.60 2.384 2.384
16121.1 2.61647 2.35(19) 27.23 2.384 2.384
16129.1 2.61778 2.44(20) 26.22 2.383 2.383
16137.2 2.61909 2.40(19) 26.60 2.383 2.383
16145.3 2.62040 2.33(19) 27.30 2.382 2.382
16153.3 2.62171 2.44(20) 25.97 2.382 2.382
16161.4 2.62303 2.49(20) 25.43 2.382 2.382
16169.5 2.62434 2.10(18) 30.02 2.382 2.382
16177.6 2.62565 2.10(18) 30.05 2.381 2.381
16185.7 2.62697 2.48(20) 25.35 2.381 2.381
16193.8 2.62828 2.41(20) 26.01 2.381 2.381
16201.8 2.62960 2.43(20) 25.74 2.381 2.381
16209.9 2.63091 2.29(19) 27.23 2.380 2.380
16218.1 2.63223 2.33(19) 26.83 2.380 2.380
16226.2 2.63355 2.25(19) 27.61 2.380 2.380
16234.3 2.63487 2.59(20) 23.99 2.380 2.380
16242.4 2.63618 2.26(19) 27.41 2.380 2.380
16250.5 2.63750 2.26(19) 27.41 2.380 2.380
16258.6 2.63882 2.45(20) 25.24 2.380 2.380
16266.8 2.64014 2.34(19) 26.33 2.380 2.380
16274.9 2.64147 2.37(20) 25.88 2.380 2.380
16283.0 2.64279 2.36(20) 25.95 2.380 2.380
16291.2 2.64411 2.19(19) 27.93 2.380 2.380
16299.3 2.64543 2.24(19) 27.25 2.380 2.380
16307.5 2.64675 2.43(20) 25.13 2.380 2.380
16315.6 2.64808 2.52(20) 24.16 2.380 2.380
16323.8 2.64940 2.25(19) 26.99 2.381 2.381
16331.9 2.65073 2.69(21) 22.57 2.381 2.381
16340.1 2.65206 2.62(21) 23.06 2.381 2.381
16348.3 2.65338 2.43(20) 24.82 2.381 2.381
16356.5 2.65471 2.45(20) 24.56 2.382 2.382
16364.6 2.65604 2.48(20) 24.21 2.382 2.382
16372.8 2.65737 2.67(21) 22.46 2.382 2.382
16381.0 2.65870 2.53(21) 23.66 2.383 2.383
16389.2 2.66003 2.44(20) 24.49 2.383 2.383
16397.4 2.66136 2.15(19) 27.68 2.383 2.383
16405.6 2.66269 2.30(20) 25.77 2.384 2.384
16413.8 2.66402 2.47(20) 23.98 2.384 2.384
16422.0 2.66536 2.51(21) 23.59 2.385 2.385
16430.2 2.66669 2.40(20) 24.60 2.385 2.385
16438.4 2.66803 2.20(19) 26.76 2.386 2.386
16446.7 2.66937 2.19(19) 26.77 2.387 2.387
16454.9 2.67070 2.35(20) 24.97 2.387 2.387
16463.1 2.67204 2.47(21) 23.69 2.388 2.388
16471.3 2.67337 2.23(20) 26.12 2.388 2.388
16479.6 2.67471 2.14(19) 27.21 2.389 2.389
16487.8 2.67605 2.21(19) 26.31 2.390 2.390
16496.0 2.67739 2.54(21) 22.88 2.391 2.391
16504.3 2.67873 2.77(22) 20.90 2.391 2.391
16512.5 2.68007 2.58(21) 22.41 2.392 2.392
16520.8 2.68141 2.23(20) 25.89 2.393 2.393
16529.1 2.68275 2.50(21) 23.05 2.394 2.394
16537.3 2.68409 2.25(20) 25.46 2.395 2.395
16545.6 2.68544 2.24(20) 25.58 2.396 2.396
16553.9 2.68678 2.25(20) 25.43 2.397 2.397
16562.2 2.68813 2.15(19) 26.44 2.398 2.398
16570.4 2.68947 2.56(21) 22.24 2.398 2.399
16578.7 2.69082 2.58(21) 22.00 2.400 2.400
16587.0 2.69216 2.60(21) 21.82 2.401 2.401
16595.3 2.69351 2.56(21) 22.13 2.402 2.402
16603.6 2.69486 2.47(21) 22.88 2.403 2.403
16611.9 2.69621 2.38(21) 23.63 2.404 2.404
16620.2 2.69755 2.60(21) 21.66 2.405 2.405
16628.5 2.69890 2.28(20) 24.54 2.406 2.406
16636.8 2.70026 2.21(20) 25.29 2.407 2.407
16645.2 2.70161 2.62(22) 21.36 2.409 2.409
16653.5 2.70296 2.62(22) 21.26 2.410 2.410
16661.8 2.70431 2.50(21) 22.29 2.411 2.411
16670.1 2.70567 2.31(20) 23.97 2.412 2.412
16678.5 2.70702 2.31(20) 23.97 2.414 2.414
16686.8 2.70838 2.15(20) 25.73 2.415 2.415
16695.2 2.70973 2.26(20) 24.36 2.416 2.416
16703.5 2.71109 2.27(20) 24.21 2.418 2.418
16711.8 2.71244 2.19(20) 25.04 2.419 2.419
16720.2 2.71380 2.18(20) 25.15 2.421 2.421
16728.6 2.71516 2.09(20) 26.15 2.422 2.422
16736.9 2.71652 2.24(20) 24.30 2.423 2.423
16745.3 2.71788 2.28(20) 23.88 2.425 2.425
16753.7 2.71924 2.25(20) 24.13 2.426 2.426
16762.0 2.72060 2.26(20) 23.96 2.428 2.428
16770.4 2.72196 2.19(20) 24.68 2.429 2.430
16778.8 2.72332 2.26(20) 23.82 2.431 2.431
16787.2 2.72468 2.45(21) 21.99 2.433 2.433
16795.6 2.72605 2.51(22) 21.47 2.434 2.434
16804.0 2.72741 2.47(21) 21.76 2.436 2.436
16812.4 2.72877 2.58(22) 20.78 2.437 2.461
16820.8 2.73014 2.59(22) 20.64 2.439 2.471
16829.2 2.73151 2.58(22) 20.71 2.441 2.474
16837.6 2.73288 2.41(21) 22.06 2.442 2.489
16846.0 2.73424 2.29(21) 23.19 2.444 2.504
16854.5 2.73561 2.47(22) 21.47 2.446 2.509
16862.9 2.73698 2.71(23) 19.53 2.448 2.513
16871.3 2.73835 2.51(22) 21.03 2.449 2.519
16879.8 2.73972 2.75(23) 19.18 2.451 2.524
16888.2 2.74109 2.50(22) 21.01 2.453 2.530
16896.6 2.74246 2.03(20) 25.74 2.455 2.536
16905.1 2.74384 2.31(21) 22.59 2.456 2.543
16913.5 2.74521 2.58(22) 20.21 2.458 2.549
16922.0 2.74658 2.42(22) 21.55 2.460 2.557
16930.5 2.74796 2.55(22) 20.42 2.462 2.565
16938.9 2.74933 2.43(22) 21.37 2.464 2.574
16947.4 2.75071 2.53(22) 20.47 2.465 2.583
16955.9 2.75209 2.37(21) 21.82 2.467 2.593
16964.3 2.75346 2.35(21) 21.93 2.469 2.605
16972.8 2.75484 2.91(24) 17.71 2.471 2.617
16981.3 2.75622 2.86(24) 18.00 2.473 2.631
16989.8 2.75760 2.71(23) 18.95 2.474 2.646
16998.3 2.75898 2.73(23) 18.73 2.476 2.663
17006.8 2.76036 3.04(24) 16.79 2.478 2.682
17015.3 2.76174 2.70(23) 18.90 2.480 2.703
17023.8 2.76312 2.53(22) 20.12 2.482 2.728
17032.3 2.76450 2.35(22) 21.53 2.484 2.757
17040.8 2.76589 2.64(23) 19.17 2.485 2.790
17049.3 2.76727 2.86(24) 17.70 2.487 2.829
17057.9 2.76866 3.16(25) 16.00 2.489 2.877
17066.4 2.77004 2.96(24) 17.03 2.491 2.934
17074.9 2.77143 3.07(25) 16.40 2.493 3.005
17083.5 2.77281 3.05(25) 16.43 2.494 3.101
17092.0 2.77420 3.40(26) 14.76 2.496 3.250
17100.6 2.77559 3.69(27) 13.56 2.498 3.542
17109.1 2.77698 4.74(31) 10.56 2.500 4.203
17117.7 2.77837 6.3(4) 7.96 2.50 5.69
17126.3 2.77976 10.7(5) 4.69 2.50 8.63
17134.8 2.78115 15.5(6) 3.214 2.50 13.53
17143.4 2.78255 21.3(7) 2.339 2.51 20.14
17151.9 2.78394 27.9(7) 1.782 2.51 27.08
17160.5 2.78533 32.9(8) 1.510 2.51 32.39
17169.1 2.78672 35.9(9) 1.377 2.51 35.16
17177.7 2.78812 38.9(9) 1.269 2.51 36.59
17186.3 2.78952 44.1(9) 1.118 2.51 38.95
17194.9 2.79091 49.2(10) 1.001 2.52 43.42
17203.5 2.79231 53.0(10) 0.927 2.52 48.74
17212.1 2.79370 53.9(10) 0.908 2.52 51.70
17220.7 2.79510 50.9(10) 0.961 2.52 49.85
17229.3 2.79650 44.2(10) 1.105 2.52 43.42
17237.9 2.79790 35.8(9) 1.360 2.52 34.58
17246.5 2.79930 28.2(8) 1.727 2.53 25.73
17255.1 2.80070 20.5(7) 2.364 2.53 18.41
17263.8 2.80210 14.2(5) 3.410 2.53 13.05
17272.4 2.80351 10.3(5) 4.70 2.53 9.44
17281.0 2.80491 8.5(4) 5.70 2.53 7.10
17289.7 2.80631 6.5(4) 7.40 2.53 5.61
17298.3 2.80772 5.36(33) 8.94 2.534 4.660
17307.0 2.80912 4.52(31) 10.56 2.535 4.049
17315.6 2.81053 4.41(30) 10.81 2.536 3.651
17324.3 2.81193 4.07(29) 11.66 2.537 3.386
17332.9 2.81334 3.64(28) 13.00 2.538 3.206
17341.6 2.81475 3.51(27) 13.45 2.539 3.080
17350.3 2.81616 3.86(29) 12.21 2.540 2.989
17358.9 2.81756 3.78(28) 12.45 2.541 2.923
17367.6 2.81898 3.37(27) 13.92 2.542 2.872
17376.3 2.82039 3.17(26) 14.77 2.543 2.833
17385.0 2.82180 2.89(25) 16.16 2.544 2.801
17393.7 2.82321 2.79(24) 16.67 2.545 2.775
17402.4 2.82462 2.62(24) 17.74 2.546 2.754
17411.1 2.82604 2.44(23) 18.96 2.546 2.736
17419.8 2.82745 2.70(24) 17.14 2.547 2.720
17428.5 2.82886 2.58(24) 17.90 2.548 2.707
17437.2 2.83028 2.44(23) 18.88 2.548 2.695
17445.9 2.83170 2.58(24) 17.83 2.549 2.684
17454.7 2.83311 2.79(25) 16.43 2.549 2.675
17463.4 2.83453 2.67(24) 17.19 2.550 2.667
17472.1 2.83595 2.45(23) 18.66 2.550 2.660
17480.8 2.83737 2.55(24) 17.88 2.551 2.653
17489.6 2.83879 2.61(24) 17.47 2.551 2.647
17498.3 2.84021 2.43(23) 18.71 2.551 2.641
17507.1 2.84163 2.49(23) 18.17 2.551 2.636
17515.8 2.84305 2.48(23) 18.22 2.551 2.632
17524.6 2.84448 2.69(24) 16.81 2.552 2.627
17533.4 2.84590 2.55(24) 17.65 2.552 2.623
17542.1 2.84732 2.47(23) 18.18 2.551 2.619
17550.9 2.84875 2.47(23) 18.17 2.551 2.616
17559.7 2.85018 2.37(23) 18.84 2.551 2.612
17568.5 2.85160 2.42(23) 18.44 2.551 2.609
17577.3 2.85303 2.38(23) 18.73 2.551 2.606
17586.0 2.85446 2.44(23) 18.20 2.550 2.550
17594.8 2.85588 2.71(25) 16.43 2.550 2.550
17603.6 2.85731 2.61(24) 17.02 2.550 2.550
17612.4 2.85875 2.45(24) 18.03 2.549 2.549
17621.2 2.86017 2.16(22) 20.40 2.548 2.548
17630.0 2.86160 2.38(23) 18.53 2.548 2.548
17638.8 2.86304 2.20(22) 19.97 2.547 2.547
17647.7 2.86447 2.07(22) 21.12 2.546 2.546
17656.5 2.86590 2.24(23) 19.49 2.546 2.546
17665.3 2.86734 2.13(22) 20.51 2.545 2.545
17674.2 2.86877 2.28(23) 19.10 2.544 2.544
17683.0 2.87021 2.27(23) 19.14 2.543 2.543
17691.8 2.87165 2.27(23) 19.15 2.542 2.542
17700.7 2.87308 2.55(24) 16.98 2.541 2.541
17709.5 2.87452 2.65(25) 16.34 2.539 2.539
17718.4 2.87596 2.84(26) 15.21 2.538 2.538
17727.3 2.87740 2.73(25) 15.81 2.537 2.537
17736.1 2.87884 2.70(25) 15.96 2.535 2.536
17745.0 2.88028 2.44(24) 17.58 2.534 2.534
17753.8 2.88172 2.36(23) 18.16 2.533 2.533
17762.7 2.88316 2.46(24) 17.39 2.531 2.531
17771.6 2.88461 2.20(23) 19.36 2.529 2.530
17780.5 2.88605 2.67(25) 15.95 2.528 2.528
17789.4 2.88749 2.78(26) 15.31 2.526 2.526
17798.3 2.88894 2.50(24) 16.97 2.524 2.524
17807.2 2.89038 2.45(24) 17.25 2.523 2.523
17816.1 2.89183 2.37(24) 17.78 2.521 2.521
17825.0 2.89328 2.31(23) 18.26 2.519 2.519
17833.9 2.89472 2.38(24) 17.65 2.517 2.517
17842.8 2.89617 2.26(23) 18.52 2.515 2.515
17851.8 2.89762 2.52(25) 16.62 2.513 2.513
17860.7 2.89907 2.44(24) 17.10 2.511 2.511
17869.6 2.90052 2.38(24) 17.52 2.508 2.508
17878.5 2.90197 2.60(25) 16.02 2.506 2.506
17887.5 2.90343 2.63(25) 15.82 2.504 2.504
17896.4 2.90488 2.97(27) 13.99 2.502 2.502
17905.4 2.90634 2.83(26) 14.63 2.499 2.499
17914.3 2.90779 2.53(25) 16.32 2.497 2.497
17923.3 2.90924 2.32(24) 17.77 2.494 2.494
17932.3 2.91070 2.63(25) 15.64 2.492 2.492
17941.2 2.91216 2.85(26) 14.44 2.489 2.489
17950.2 2.91362 2.48(25) 16.48 2.487 2.487
17959.2 2.91507 2.37(24) 17.21 2.484 2.484
17968.1 2.91653 2.49(25) 16.37 2.482 2.482
17977.1 2.91799 2.43(24) 16.75 2.479 2.479
17986.1 2.91945 2.47(25) 16.41 2.476 2.476
17995.1 2.92091 2.61(25) 15.54 2.473 2.473
18004.1 2.92237 2.93(27) 13.84 2.471 2.471
18013.1 2.92384 2.49(25) 16.21 2.468 2.468
18022.1 2.92530 2.34(24) 17.17 2.465 2.465
18031.1 2.92676 2.61(25) 15.41 2.462 2.462
18040.1 2.92823 2.21(24) 18.07 2.460 2.460
18049.2 2.92969 2.31(24) 17.31 2.457 2.457
18058.2 2.93116 2.10(23) 18.97 2.454 2.454
18067.2 2.93262 2.08(23) 19.12 2.451 2.451
18076.3 2.93410 2.23(24) 17.79 2.448 2.448
18085.3 2.93556 2.45(25) 16.15 2.445 2.445
18094.3 2.93703 2.39(25) 16.53 2.442 2.442
18103.4 2.93850 2.42(25) 16.32 2.440 2.440
18112.4 2.93997 2.40(25) 16.38 2.437 2.437
18121.5 2.94144 2.46(25) 15.96 2.434 2.434
18130.5 2.94291 2.68(26) 14.66 2.431 2.431
18139.6 2.94439 2.74(26) 14.31 2.428 2.428
18148.7 2.94586 2.27(24) 17.15 2.425 2.425
18157.8 2.94734 2.34(25) 16.61 2.422 2.422
18166.8 2.94881 2.16(24) 17.97 2.420 2.420
18175.9 2.95029 2.61(26) 14.86 2.417 2.417
18185.0 2.95176 2.56(26) 15.10 2.414 2.414
18194.1 2.95324 2.35(25) 16.42 2.411 2.411
18203.2 2.95472 2.24(24) 17.19 2.409 2.408
18212.3 2.95620 2.57(26) 14.98 2.406 2.406
18221.4 2.95767 2.54(26) 15.12 2.403 2.403
18230.5 2.95916 2.47(25) 15.53 2.401 2.401
18239.6 2.96064 2.14(24) 17.84 2.398 2.398
18248.7 2.96212 2.37(25) 16.08 2.395 2.395
18257.8 2.96360 2.58(26) 14.74 2.393 2.393
18267.0 2.96509 2.38(25) 15.93 2.390 2.390
18276.1 2.96657 2.13(24) 17.77 2.388 2.388
18285.3 2.96805 2.22(24) 17.01 2.386 2.386
18294.4 2.96954 2.39(25) 15.74 2.383 2.383
18303.6 2.97103 2.39(25) 15.73 2.381 2.381
18312.7 2.97251 2.20(24) 17.06 2.379 2.379
18321.8 2.97400 2.37(25) 15.80 2.377 2.377
18331.0 2.97549 2.15(24) 17.33 2.375 2.375
18340.2 2.97698 2.42(25) 15.41 2.373 2.373
18349.3 2.97846 2.77(27) 13.45 2.371 2.371
18358.5 2.97996 2.61(26) 14.25 2.369 2.369
18367.7 2.98145 2.22(24) 16.69 2.367 2.367
18376.9 2.98294 2.34(25) 15.81 2.366 2.366
18386.1 2.98443 2.31(25) 15.98 2.364 2.364
18395.3 2.98593 2.23(25) 16.48 2.363 2.362
18404.5 2.98742 2.25(25) 16.32 2.361 2.361
18413.7 2.98891 2.54(26) 14.45 2.360 2.360
18422.9 2.99041 2.36(25) 15.50 2.358 2.358
18432.1 2.99191 2.30(25) 15.83 2.357 2.357
18441.3 2.99340 2.21(25) 16.42 2.356 2.356
18450.5 2.99490 2.74(27) 13.30 2.355 2.355
18459.8 2.99640 2.64(27) 13.75 2.354 2.354
18469.0 2.99790 2.63(27) 13.77 2.354 2.354
18478.2 2.99940 2.48(26) 14.54 2.353 2.353
18487.5 3.00090 2.31(25) 15.59 2.352 2.352
18496.7 3.00240 2.46(26) 14.61 2.352 2.352
18505.9 3.00390 2.48(26) 14.47 2.351 2.351
18515.2 3.00541 2.56(27) 14.00 2.351 2.351
18524.5 3.00691 2.64(27) 13.53 2.351 2.351
18533.7 3.00842 2.64(27) 13.53 2.351 2.351
18543.0 3.00992 2.19(25) 16.20 2.351 2.351
18552.3 3.01143 2.32(26) 15.26 2.351 2.351
18561.5 3.01294 2.16(25) 16.36 2.351 2.351
18570.8 3.01444 2.38(26) 14.82 2.352 2.352
18580.1 3.01595 2.75(28) 12.82 2.352 2.352
18589.4 3.01746 2.90(29) 12.16 2.353 2.353
18598.7 3.01897 2.25(25) 15.60 2.353 2.353
18608.0 3.02048 1.94(24) 17.97 2.354 2.354
18617.3 3.02199 2.16(25) 16.14 2.355 2.355
18626.6 3.02351 2.71(28) 12.89 2.356 2.356
18635.9 3.02502 2.43(26) 14.33 2.357 2.357
18645.2 3.02653 2.47(27) 14.06 2.358 2.358
18654.6 3.02805 2.45(27) 14.15 2.360 2.360
18663.9 3.02956 2.10(25) 16.44 2.361 2.361
18673.2 3.03108 2.17(25) 15.89 2.362 2.362
18682.6 3.03260 2.11(25) 16.30 2.364 2.364
18691.9 3.03411 2.42(27) 14.21 2.366 2.366
18701.3 3.03563 2.78(28) 12.37 2.367 2.367
18710.6 3.03715 2.74(28) 12.52 2.369 2.369
18719.9 3.03867 2.44(27) 13.95 2.371 2.371
18729.3 3.04019 2.77(29) 12.31 2.373 2.373
18738.7 3.04171 2.72(28) 12.52 2.375 2.375
18748.0 3.04324 2.50(27) 13.55 2.377 2.377
18757.4 3.04476 2.66(28) 12.76 2.379 2.379
18766.8 3.04628 2.22(26) 15.15 2.382 2.382
18776.2 3.04780 2.53(27) 13.30 2.384 2.384
18785.6 3.04933 2.49(27) 13.49 2.386 2.386
18794.9 3.05086 2.27(26) 14.79 2.389 2.389
18804.3 3.05238 2.59(28) 12.92 2.391 2.391
18813.8 3.05391 2.55(28) 13.13 2.394 2.394
18823.2 3.05544 2.37(27) 14.05 2.396 2.396
18832.6 3.05697 2.41(27) 13.78 2.399 2.399
18842.0 3.05850 2.78(29) 11.96 2.401 2.401
18851.4 3.06003 2.43(27) 13.62 2.404 2.404
18860.8 3.06156 2.61(28) 12.67 2.407 2.407
18870.3 3.06309 2.54(28) 13.02 2.409 2.409
18879.7 3.06463 2.79(29) 11.82 2.412 2.412
18889.1 3.06616 2.65(28) 12.40 2.414 2.414
18898.6 3.06770 2.12(25) 15.44 2.417 2.417
18908.0 3.06923 2.52(28) 13.01 2.419 2.419
18917.5 3.07077 2.53(28) 12.93 2.422 2.422
18926.9 3.07230 2.12(26) 15.35 2.424 2.424
18936.4 3.07384 1.90(24) 17.01 2.426 2.427
18945.9 3.07538 2.05(25) 15.81 2.429 2.429
18955.3 3.07692 2.25(26) 14.37 2.431 2.431
18964.8 3.07846 2.33(27) 13.84 2.433 2.433
18974.3 3.08000 2.38(27) 13.56 2.435 2.435
18983.8 3.08154 2.34(27) 13.77 2.437 2.437
18993.3 3.08308 2.56(28) 12.54 2.439 2.439
19002.8 3.08462 2.09(26) 15.30 2.441 2.441
19012.3 3.08617 2.41(27) 13.28 2.442 2.442
19021.8 3.08771 2.95(30) 10.86 2.444 2.444
19031.3 3.08926 2.55(28) 12.52 2.445 2.445
19040.8 3.09080 2.36(27) 13.46 2.447 2.447
19050.3 3.09235 2.22(26) 14.27 2.448 2.448
19059.9 3.09390 2.13(26) 14.86 2.448 2.449
19069.4 3.09545 2.31(27) 13.65 2.449 2.449
19078.9 3.09700 2.34(27) 13.49 2.450 2.450
19088.5 3.09855 2.53(28) 12.46 2.450 2.450
19098.0 3.10009 2.59(29) 12.14 2.450 2.450
19107.6 3.10165 2.31(27) 13.52 2.450 2.450
19117.1 3.10320 2.40(28) 13.00 2.450 2.450
19126.7 3.10475 2.16(26) 14.42 2.450 2.450
19136.3 3.10631 2.15(26) 14.43 2.449 2.449
19145.8 3.10786 2.74(30) 11.35 2.449 2.449
19155.4 3.10942 2.56(29) 12.13 2.448 2.448
19165.0 3.11097 2.27(27) 13.61 2.446 2.446
19174.5 3.11253 2.44(28) 12.68 2.445 2.445
19184.1 3.11409 2.47(28) 12.49 2.443 2.443
19193.7 3.11565 2.49(28) 12.33 2.442 2.442
19203.3 3.11720 2.40(28) 12.77 2.440 2.440
19212.9 3.11876 2.40(28) 12.75 2.437 2.437
19222.5 3.12033 2.66(29) 11.51 2.435 2.435
19232.1 3.12189 2.32(28) 13.14 2.432 2.432
19241.8 3.12345 2.54(29) 11.99 2.430 2.430
19251.4 3.12501 2.29(28) 13.21 2.427 2.427
19261.0 3.12658 2.26(27) 13.41 2.424 2.424
19270.6 3.12814 2.19(27) 13.79 2.420 2.420
19280.3 3.12970 2.39(28) 12.62 2.417 2.417
19289.9 3.13127 2.71(30) 11.10 2.413 2.413
19299.6 3.13284 2.63(30) 11.41 2.410 2.410
19309.2 3.13441 2.22(27) 13.49 2.406 2.406
19318.8 3.13597 2.03(26) 14.67 2.403 2.403
19328.5 3.13754 2.47(29) 12.05 2.399 2.399
19338.2 3.13912 2.56(29) 11.64 2.395 2.395
19347.8 3.14069 2.57(29) 11.57 2.392 2.392
19357.5 3.14226 2.42(29) 12.22 2.388 2.388
19367.2 3.14383 2.71(30) 10.90 2.385 2.385
19376.9 3.14540 2.62(30) 11.26 2.382 2.382
19386.6 3.14698 2.85(31) 10.35 2.379 2.379
19396.3 3.14856 2.72(30) 10.80 2.377 2.377
19406.0 3.15013 2.21(27) 13.23 2.375 2.374
19415.7 3.15170 2.30(28) 12.67 2.373 2.373
19425.4 3.15328 2.40(29) 12.14 2.371 2.371
19435.1 3.15486 2.26(28) 12.85 2.371 2.371
19444.8 3.15644 2.60(30) 11.14 2.371 2.371
19454.5 3.15802 2.57(30) 11.26 2.371 2.371
19464.3 3.15960 2.59(30) 11.16 2.373 2.373
19474.0 3.16118 2.33(28) 12.36 2.375 2.375
19483.7 3.16276 2.26(28) 12.69 2.379 2.379
19493.5 3.16435 2.41(29) 11.87 2.383 2.383
19503.2 3.16593 2.59(30) 11.06 2.389 2.389
19513.0 3.16751 2.49(30) 11.43 2.396 2.396
19522.7 3.16910 2.48(30) 11.47 2.405 2.405
19532.5 3.17068 2.19(28) 12.90 2.415 2.415
19542.3 3.17227 2.42(29) 11.66 2.427 2.427
19552.0 3.17386 2.55(30) 11.05 2.442 2.442
19561.8 3.17545 2.51(30) 11.23 2.458 2.458
19571.6 3.17703 1.91(26) 14.62 2.477 2.477
19581.3 3.17862 2.51(30) 11.17 2.498 2.498
19591.2 . -0.00120(15) . . .
loop_
_refln_index_h
_refln_index_k
_refln_index_l
_refln_observed_status
_refln_F_squared_meas
_refln_F_squared_calc
_refln_phase_calc
_refln_d_spacing
_gsas_i100_meas
0 2 0 o 9.882 9.183 0.00 2.78520 25.27
2 0 0 o 10.537 9.770 0.00 2.78453 26.92
1 -1 -2 o 8.259 7.625 0.00 2.79393 21.36
1 1 2 o 8.877 8.203 0.00 2.79321 22.93
1 -1 2 o 8.652 7.998 0.00 2.79281 22.34
1 1 -2 o 7.585 7.012 0.00 2.79279 19.59
0 1 3 o 0.245 0.344 0.00 2.38700 0.36
1 0 -3 o 0.197 0.275 0.00 2.38669 0.29
1 0 3 o 0.053 0.071 0.00 2.38637 0.08
0 1 -3 o 0.092 0.121 180.00 2.38628 0.13
1 -2 -1 o 3.142 2.987 0.00 2.37690 4.52
2 -1 -1 o 1.641 1.549 180.00 2.37652 2.36
1 -2 1 o 1.106 1.040 0.00 2.37632 1.59
1 2 1 o 0.500 0.471 180.00 2.37634 0.72
2 -1 1 o 0.982 0.918 180.00 2.37607 1.41
1 2 -1 o 3.682 3.433 180.00 2.37597 5.28
2 1 1 o 3.545 3.296 0.00 2.37586 5.09
2 1 -1 o 2.726 2.533 0.00 2.37583 3.91
0 2 2 o 46.815 45.342 180.00 2.27895 57.65
2 0 -2 o 44.761 43.307 180.00 2.27836 55.07
0 2 -2 o 47.097 45.531 180.00 2.27812 57.92
2 0 2 o 48.603 46.965 180.00 2.27798 59.76
2 -2 0 o 126.101 127.929 0.00 1.96945 90.61
0 0 4 o 136.178 132.807 0.00 1.98102 100.00
2 2 0 o 117.015 119.005 0.00 1.96894 84.00
0 3 1 o 0.453 0.533 0.00 1.80799 0.24
0 3 -1 o 0.000 0.000 0.00 1.80767 0.00
3 0 -1 o 0.440 0.517 180.00 1.80749 0.23
3 0 1 o 0.008 0.009 180.00 1.80735 0.00
1 -2 -3 o 0.483 0.554 0.00 1.81273 0.25
2 -1 -3 o 3.111 3.575 180.00 1.81250 1.64
1 2 3 o 3.390 3.897 180.00 1.81238 1.79
1 -2 3 o 2.133 2.450 0.00 1.81196 1.12
2 1 3 o 0.319 0.367 0.00 1.81202 0.17
2 1 -3 o 4.977 5.716 0.00 1.81199 2.62
2 -1 3 o 0.242 0.278 180.00 1.81190 0.13
1 2 -3 o 0.560 0.644 180.00 1.81190 0.30
1 -1 -4 o 2.885 2.761 0.00 1.77008 1.39
1 1 4 o 3.696 3.546 0.00 1.76981 1.78
1 1 -4 o 2.523 2.425 0.00 1.76959 1.22
2 -2 -2 o 2.238 2.163 0.00 1.76387 1.07
1 -1 4 o 3.467 3.334 0.00 1.76951 1.67
2 -2 2 o 3.023 2.918 0.00 1.76331 1.44
2 2 2 o 2.285 2.206 0.00 1.76332 1.09
2 2 -2 o 1.413 1.363 0.00 1.76311 0.67
1 -3 0 o 4.487 4.319 0.00 1.76161 2.13
1 3 0 o 4.483 4.314 0.00 1.76133 2.13
3 -1 0 o 3.523 3.390 0.00 1.76127 1.67
3 1 0 o 6.163 5.945 0.00 1.76100 2.92
0 2 4 o 9.132 8.833 0.00 1.61462 3.13
2 0 -4 o 11.946 11.553 0.00 1.61433 4.09
0 2 -4 o 9.770 9.448 0.00 1.61402 3.34
2 0 4 o 8.264 7.992 0.00 1.61406 2.82
1 -3 -2 o 11.493 11.254 0.00 1.60993 3.89
1 3 2 o 9.597 9.408 0.00 1.60965 3.25
3 -1 -2 o 7.910 7.761 0.00 1.60959 2.68
1 -3 2 o 9.125 8.961 0.00 1.60942 3.09
1 3 -2 o 12.012 11.805 0.00 1.60927 4.06
3 -1 2 o 8.137 7.998 0.00 1.60924 2.75
3 1 -2 o 13.091 12.869 0.00 1.60923 4.42
3 1 2 o 11.471 11.279 0.00 1.60918 3.88
0 1 5 o 2.536 2.654 0.00 1.52448 0.70
1 0 -5 o 0.409 0.428 0.00 1.52436 0.11
1 0 5 o 0.601 0.619 0.00 1.52422 0.17
0 1 -5 o 0.615 0.634 180.00 1.52416 0.17
2 -3 -1 o 5.024 4.432 0.00 1.51659 1.36
3 -2 -1 o 0.001 0.001 0.00 1.51643 0.00
2 -3 1 o 0.877 0.771 0.00 1.51635 0.24
3 -2 1 o 0.103 0.090 180.00 1.51623 0.03
2 3 1 o 0.014 0.013 180.00 1.51618 0.00
2 3 -1 o 3.392 2.976 180.00 1.51605 0.92
3 2 1 o 9.293 8.145 0.00 1.51600 2.51
3 2 -1 o 1.805 1.581 0.00 1.51596 0.49
0 3 3 o 0.813 0.757 180.00 1.51930 0.22
3 0 -3 o 0.052 0.048 180.00 1.51891 0.01
0 3 -3 o 1.916 1.764 0.00 1.51875 0.52
3 0 3 o 0.883 0.812 180.00 1.51866 0.24
2 -2 -4 o 107.560 108.917 0.00 1.39696 21.32
2 2 4 o 109.874 111.093 0.00 1.39661 21.75
2 -2 4 o 118.912 120.142 0.00 1.39641 23.53
2 2 -4 o 100.957 101.998 0.00 1.39640 19.98
0 4 0 o 101.415 103.041 0.00 1.39260 19.86
4 0 0 o 99.678 101.550 0.00 1.39227 19.50
1 -2 -5 o 2.666 2.735 0.00 1.33744 0.45
2 -1 -5 o 2.880 2.953 180.00 1.33733 0.48
1 2 5 o 0.186 0.191 180.00 1.33726 0.03
2 1 5 o 1.095 1.121 0.00 1.33706 0.18
2 1 -5 o 5.309 5.432 0.00 1.33704 0.89
1 -2 5 o 1.296 1.325 0.00 1.33692 0.22
2 -1 5 o 0.007 0.007 0.00 1.33693 0.00
1 2 -5 o 2.154 2.202 180.00 1.33694 0.36
2 -3 -3 o 2.074 2.073 0.00 1.33387 0.35
3 -2 -3 o 0.128 0.128 180.00 1.33375 0.02
2 3 3 o 1.361 1.356 180.00 1.33352 0.23
2 -3 3 o 1.332 1.326 0.00 1.33338 0.22
3 -2 3 o 0.044 0.044 180.00 1.33332 0.01
3 2 3 o 1.472 1.465 0.00 1.33334 0.24
2 3 -3 o 0.776 0.772 180.00 1.33326 0.13
3 2 -3 o 6.082 6.050 0.00 1.33326 1.01
1 -4 -1 o 1.077 1.060 180.00 1.33196 0.18
1 -4 1 o 6.960 6.842 180.00 1.33177 1.15
1 4 1 o 14.583 14.336 0.00 1.33178 2.41
4 -1 -1 o 8.381 8.229 0.00 1.33165 1.39
1 4 -1 o 3.432 3.370 0.00 1.33163 0.57
4 -1 1 o 7.119 6.984 0.00 1.33153 1.18
4 1 -1 o 6.833 6.700 180.00 1.33145 1.13
4 1 1 o 2.303 2.257 180.00 1.33141 0.38
3 -3 0 o 1.339 1.406 0.00 1.31297 0.21
3 3 0 o 0.250 0.265 0.00 1.31263 0.04
1 -3 -4 o 5.237 5.248 0.00 1.31669 0.83
1 3 4 o 2.302 2.307 0.00 1.31650 0.36
3 -1 -4 o 3.115 3.123 0.00 1.31646 0.49
1 -3 4 o 3.074 3.086 0.00 1.31613 0.49
3 1 -4 o 6.703 6.727 0.00 1.31618 1.06
1 3 -4 o 5.852 5.876 0.00 1.31609 0.92
3 1 4 o 4.074 4.090 0.00 1.31613 0.64
3 -1 4 o 3.376 3.390 0.00 1.31608 0.53
0 0 6 o 2.645 2.757 0.00 1.32068 0.42
0 4 2 o 1.568 1.623 0.00 1.31397 0.25
0 4 -2 o 1.331 1.386 0.00 1.31365 0.21
4 0 -2 o 0.395 0.412 0.00 1.31360 0.06
4 0 2 o 1.273 1.333 0.00 1.31345 0.20
1 -1 -6 o 5.996 6.542 0.00 1.25232 0.78
1 1 6 o 8.301 9.041 0.00 1.25219 1.09
1 1 -6 o 5.419 5.892 0.00 1.25208 0.71
1 -1 6 o 6.853 7.444 0.00 1.25202 0.90
3 -3 -2 o 4.551 4.553 0.00 1.24647 0.59
3 -3 2 o 5.237 5.216 0.00 1.24617 0.67
3 3 2 o 4.305 4.283 0.00 1.24608 0.55
3 3 -2 o 2.487 2.471 0.00 1.24597 0.32
2 -4 0 o 10.608 10.550 0.00 1.24565 1.36
4 -2 0 o 12.486 12.386 0.00 1.24547 1.60
2 4 0 o 14.024 13.893 0.00 1.24539 1.80
4 2 0 o 15.657 15.467 0.00 1.24521 2.00
1 -4 -3 o 7.013 6.611 180.00 1.20306 0.79
1 4 3 o 2.979 2.818 0.00 1.20290 0.33
4 -1 -3 o 9.746 9.241 0.00 1.20278 1.09
1 -4 3 o 1.576 1.499 180.00 1.20265 0.18
1 4 -3 o 12.567 11.968 0.00 1.20258 1.41
4 1 -3 o 4.859 4.627 180.00 1.20258 0.54
4 -1 3 o 4.191 3.996 0.00 1.20253 0.47
4 1 3 o 4.442 4.237 180.00 1.20250 0.50
0 3 5 o 0.017 0.015 0.00 1.20567 0.00
3 0 -5 o 0.243 0.215 180.00 1.20542 0.03
0 3 -5 o 0.890 0.795 0.00 1.20520 0.10
3 0 5 o 0.003 0.003 0.00 1.20521 0.00
0 2 6 o 33.064 33.063 180.00 1.19350 3.60
2 -4 -2 o 28.691 28.176 180.00 1.18845 3.08
2 0 -6 o 28.951 28.930 180.00 1.19335 3.15
2 0 6 o 37.320 37.266 180.00 1.19318 4.06
0 2 -6 o 33.419 33.364 180.00 1.19314 3.64
4 -2 -2 o 26.535 26.083 180.00 1.18826 2.84
2 -4 2 o 31.280 30.744 180.00 1.18816 3.35
2 4 2 o 23.393 22.996 180.00 1.18817 2.51
4 -2 2 o 31.720 31.182 180.00 1.18804 3.40
2 4 -2 o 21.856 21.486 180.00 1.18799 2.34
4 2 2 o 24.291 23.882 180.00 1.18793 2.60
4 2 -2 o 20.637 20.289 180.00 1.18792 2.21
0 4 4 o 91.834 92.051 0.00 1.13948 8.38
4 0 -4 o 82.557 82.772 0.00 1.13918 7.53
0 4 -4 o 92.465 92.729 0.00 1.13906 8.43
4 0 4 o 99.406 99.707 0.00 1.13899 9.06
2 -3 -5 o 7.425 7.436 0.00 1.10653 0.61
3 -2 -5 o 0.091 0.091 0.00 1.10644 0.01
2 3 5 o 0.406 0.405 0.00 1.10628 0.03
3 2 5 o 8.354 8.315 0.00 1.10614 0.68
2 -3 5 o 0.048 0.047 0.00 1.10606 0.00
3 -2 5 o 0.027 0.027 180.00 1.10604 0.00
3 2 -5 o 1.342 1.334 0.00 1.10607 0.11
2 3 -5 o 4.129 4.103 180.00 1.10603 0.34
0 1 7 o 1.167 1.279 0.00 1.10942 0.10
1 0 -7 o 0.123 0.134 0.00 1.10936 0.01
1 0 7 o 0.002 0.002 0.00 1.10929 0.00
0 1 -7 o 1.272 1.385 180.00 1.10925 0.10
3 -4 -1 o 4.764 4.741 0.00 1.10333 0.38
0 5 1 o 1.138 1.133 0.00 1.10329 0.09
4 -3 -1 o 3.333 3.321 180.00 1.10326 0.27
3 -4 1 o 1.418 1.413 0.00 1.10321 0.11
0 5 -1 o 0.633 0.631 180.00 1.10317 0.05
4 -3 1 o 4.341 4.332 180.00 1.10314 0.35
3 4 1 o 1.312 1.312 180.00 1.10303 0.11
5 0 -1 o 0.407 0.407 0.00 1.10300 0.03
3 4 -1 o 10.169 10.176 180.00 1.10297 0.82
5 0 1 o 2.761 2.764 0.00 1.10294 0.22
4 3 1 o 7.454 7.463 0.00 1.10294 0.60
4 3 -1 o 2.553 2.557 0.00 1.10291 0.21
2 -2 -6 o 1.037 1.186 0.00 1.09709 0.08
1 -5 0 o 1.251 1.269 0.00 1.09249 0.10
2 2 6 o 2.224 2.543 0.00 1.09687 0.18
1 5 0 o 1.054 1.065 0.00 1.09238 0.08
2 2 -6 o 0.476 0.544 0.00 1.09672 0.04
2 -2 6 o 2.566 2.932 0.00 1.09668 0.20
5 -1 0 o 4.277 4.301 0.00 1.09225 0.33
5 1 0 o 0.242 0.243 0.00 1.09214 0.02
3 -3 -4 o 0.824 0.910 0.00 1.09462 0.06
3 3 4 o 0.786 0.858 0.00 1.09429 0.06
3 -3 4 o 1.646 1.792 0.00 1.09422 0.13
3 3 -4 o 0.038 0.041 0.00 1.09414 0.00
1 -3 -6 o 12.511 12.531 0.00 1.05691 0.86
1 3 6 o 6.485 6.493 0.00 1.05679 0.44
3 -1 -6 o 7.177 7.185 0.00 1.05677 0.49
3 1 -6 o 12.528 12.534 0.00 1.05658 0.86
3 1 6 o 8.510 8.514 0.00 1.05654 0.58
1 -3 6 o 6.690 6.691 0.00 1.05648 0.46
3 -1 6 o 7.889 7.890 0.00 1.05647 0.54
1 3 -6 o 12.463 12.465 0.00 1.05648 0.85
2 -4 -4 o 11.181 11.158 0.00 1.05471 0.76
4 -2 -4 o 15.274 15.245 0.00 1.05456 1.04
2 4 4 o 11.386 11.366 0.00 1.05448 0.77
2 -4 4 o 9.426 9.414 0.00 1.05430 0.64
4 -2 4 o 9.103 9.093 0.00 1.05424 0.62
2 4 -4 o 15.559 15.543 0.00 1.05422 1.05
4 2 4 o 11.469 11.456 0.00 1.05425 0.78
4 2 -4 o 18.662 18.642 0.00 1.05423 1.26
1 -5 -2 o 5.002 5.025 0.00 1.05330 0.34
1 5 2 o 7.877 7.922 0.00 1.05318 0.53
1 -5 2 o 7.040 7.087 0.00 1.05307 0.48
5 -1 -2 o 9.408 9.474 0.00 1.05304 0.63
1 5 -2 o 4.752 4.788 0.00 1.05299 0.32
5 -1 2 o 8.803 8.877 0.00 1.05290 0.59
5 1 -2 o 2.150 2.168 0.00 1.05290 0.14
5 1 2 o 3.115 3.142 0.00 1.05284 0.21
1 -2 -7 o 0.143 0.149 0.00 1.03077 0.01
2 -1 -7 o 5.483 5.737 180.00 1.03071 0.34
1 2 7 o 3.022 3.160 180.00 1.03067 0.19
2 1 7 o 0.077 0.080 180.00 1.03055 0.00
2 1 -7 o 6.384 6.666 0.00 1.03054 0.40
1 2 -7 o 0.590 0.615 180.00 1.03046 0.04
2 -1 7 o 0.032 0.033 0.00 1.03045 0.00
1 -2 7 o 1.514 1.579 0.00 1.03044 0.09
2 -5 -1 o 0.000 0.000 180.00 1.02581 0.00
2 -5 1 o 1.115 1.176 180.00 1.02570 0.07
5 -2 -1 o 0.017 0.018 0.00 1.02562 0.00
2 5 1 o 3.485 3.680 0.00 1.02561 0.21
5 -2 1 o 0.072 0.076 0.00 1.02554 0.00
2 5 -1 o 0.182 0.193 0.00 1.02553 0.01
5 2 -1 o 3.918 4.155 180.00 1.02540 0.24
5 2 1 o 0.212 0.225 180.00 1.02539 0.01
1 -4 -5 o 0.400 0.409 180.00 1.02838 0.02
1 4 5 o 12.713 13.026 0.00 1.02826 0.78
4 -1 -5 o 10.704 10.966 0.00 1.02817 0.66
1 -4 5 o 5.092 5.217 180.00 1.02795 0.31
4 1 -5 o 7.218 7.395 180.00 1.02800 0.44
1 4 -5 o 2.937 3.009 0.00 1.02792 0.18
4 -1 5 o 3.592 3.681 0.00 1.02790 0.22
4 1 5 o 0.428 0.438 180.00 1.02793 0.03
3 -4 -3 o 0.645 0.667 0.00 1.02669 0.04
0 5 3 o 0.117 0.121 180.00 1.02665 0.01
4 -3 -3 o 7.176 7.433 180.00 1.02662 0.44
3 -4 3 o 4.387 4.561 0.00 1.02639 0.27
0 5 -3 o 0.130 0.135 0.00 1.02636 0.01
4 -3 3 o 1.576 1.640 180.00 1.02634 0.10
3 4 3 o 11.396 11.847 180.00 1.02640 0.70
5 0 -3 o 1.731 1.800 0.00 1.02636 0.11
4 3 3 o 0.953 0.992 0.00 1.02630 0.06
3 4 -3 o 0.951 0.991 180.00 1.02625 0.06
5 0 3 o 0.355 0.371 0.00 1.02623 0.02
4 3 -3 o 8.409 8.768 0.00 1.02623 0.51
0 0 8 o 97.540 94.937 0.00 0.99051 5.20
4 -4 0 o 83.034 82.727 0.00 0.98473 4.33
4 4 0 o 62.610 62.552 0.00 0.98447 3.26
2 -5 -3 o 2.528 2.959 180.00 0.96336 0.12
5 -2 -3 o 0.006 0.007 0.00 0.96318 0.00
2 5 3 o 0.008 0.009 180.00 0.96317 0.00
2 -5 3 o 0.171 0.199 0.00 0.96308 0.01
5 -2 3 o 0.000 0.000 0.00 0.96297 0.00
2 5 -3 o 4.102 4.758 0.00 0.96297 0.20
5 2 -3 o 0.083 0.096 180.00 0.96293 0.00
5 2 3 o 4.911 5.688 180.00 0.96292 0.23
0 3 7 o 1.736 2.155 180.00 0.96672 0.08
3 0 -7 o 0.078 0.096 180.00 0.96656 0.00
3 0 7 o 0.679 0.840 180.00 0.96641 0.03
0 3 -7 o 2.348 2.902 0.00 0.96638 0.11
1 -5 -4 o 0.335 0.328 0.00 0.95683 0.02
1 5 4 o 2.309 2.255 0.00 0.95672 0.11
5 -1 -4 o 4.515 4.401 0.00 0.95660 0.21
1 -5 4 o 2.667 2.596 0.00 0.95649 0.12
1 5 -4 o 0.343 0.334 0.00 0.95644 0.02
5 1 -4 o 0.111 0.108 0.00 0.95646 0.01
5 -1 4 o 3.525 3.428 0.00 0.95640 0.16
5 1 4 o 0.582 0.566 0.00 0.95638 0.03
1 -1 -8 o 1.766 1.916 0.00 0.96069 0.08
1 1 8 o 3.375 3.653 0.00 0.96062 0.16
1 1 -8 o 1.710 1.847 0.00 0.96055 0.08
1 -1 8 o 2.514 2.711 0.00 0.96051 0.12
4 -4 -2 o 0.541 0.524 0.00 0.95574 0.03
4 -4 2 o 1.203 1.165 0.00 0.95556 0.06
4 4 2 o 0.140 0.135 0.00 0.95545 0.01
3 -5 0 o 6.812 6.593 0.00 0.95536 0.32
4 4 -2 o 0.001 0.001 180.00 0.95538 0.00
5 -3 0 o 4.917 4.761 0.00 0.95526 0.23
3 5 0 o 7.866 7.622 0.00 0.95514 0.36
5 3 0 o 11.062 10.727 0.00 0.95504 0.51
0 4 6 o 1.496 1.514 0.00 0.95846 0.07
4 0 -6 o 0.014 0.014 0.00 0.95825 0.00
0 4 -6 o 0.908 0.910 0.00 0.95809 0.04
4 0 6 o 2.197 2.201 0.00 0.95808 0.10
3 -3 -6 o 3.832 3.777 0.00 0.93131 0.16
3 3 6 o 6.584 6.490 0.00 0.93107 0.28
3 -3 6 o 5.491 5.413 0.00 0.93094 0.23
3 3 -6 o 1.496 1.474 0.00 0.93093 0.06
0 2 8 o 8.410 8.233 0.00 0.93336 0.36
3 -5 -2 o 15.636 15.460 0.00 0.92884 0.65
2 0 -8 o 12.640 12.383 0.00 0.93328 0.54
5 -3 -2 o 10.126 10.019 0.00 0.92872 0.42
2 0 8 o 6.687 6.556 0.00 0.93317 0.28
3 -5 2 o 12.714 12.585 0.00 0.92866 0.53
0 2 -8 o 9.543 9.359 0.00 0.93313 0.40
5 -3 2 o 9.762 9.670 0.00 0.92857 0.41
3 5 2 o 16.737 16.576 0.00 0.92859 0.70
3 5 -2 o 20.594 20.414 0.00 0.92849 0.86
5 3 2 o 19.835 19.668 0.00 0.92845 0.82
0 6 0 o 13.748 13.636 0.00 0.92840 0.57
5 3 -2 o 22.606 22.420 0.00 0.92843 0.94
6 0 0 o 18.449 18.344 0.00 0.92818 0.77
2 -3 -7 o 2.715 2.942 0.00 0.91333 0.11
3 -2 -7 o 0.081 0.087 180.00 0.91327 0.00
2 3 7 o 0.275 0.297 180.00 0.91316 0.01
3 2 7 o 0.931 1.004 0.00 0.91307 0.04
3 2 -7 o 3.214 3.464 0.00 0.91301 0.13
2 -3 7 o 0.035 0.038 0.00 0.91296 0.00
3 -2 7 o 0.118 0.127 180.00 0.91295 0.00
2 3 -7 o 1.796 1.934 180.00 0.91297 0.07
3 -4 -5 o 3.486 3.679 0.00 0.91162 0.14
0 5 5 o 2.363 2.493 0.00 0.91158 0.09
4 -3 -5 o 3.939 4.154 180.00 0.91156 0.15
3 4 5 o 1.112 1.170 180.00 0.91137 0.04
5 0 -5 o 0.370 0.389 0.00 0.91134 0.01
3 -4 5 o 1.781 1.872 0.00 0.91126 0.07
0 5 -5 o 1.220 1.282 180.00 0.91125 0.05
4 -3 5 o 1.259 1.323 180.00 0.91124 0.05
4 3 5 o 4.571 4.803 0.00 0.91128 0.18
3 4 -5 o 6.089 6.391 180.00 0.91120 0.24
5 0 5 o 3.076 3.229 0.00 0.91119 0.12
4 3 -5 o 3.712 3.897 0.00 0.91121 0.14
1 -6 -1 o 14.841 15.304 0.00 0.90979 0.57
1 -6 1 o 3.651 3.761 0.00 0.90970 0.14
1 6 1 o 2.198 2.264 180.00 0.90971 0.08
1 6 -1 o 13.998 14.406 180.00 0.90963 0.54
6 -1 -1 o 7.970 8.195 180.00 0.90957 0.31
6 -1 1 o 5.591 5.745 180.00 0.90952 0.21
6 1 -1 o 6.286 6.456 0.00 0.90948 0.24
6 1 1 o 10.196 10.468 0.00 0.90945 0.39
2 -4 -6 o 18.791 18.713 180.00 0.90636 0.71
4 -2 -6 o 15.510 15.435 180.00 0.90625 0.59
2 4 6 o 17.925 17.832 180.00 0.90619 0.68
2 -4 6 o 24.548 24.393 180.00 0.90598 0.93
4 2 6 o 20.330 20.205 180.00 0.90601 0.77
4 2 -6 o 12.098 12.023 180.00 0.90599 0.46
4 -2 6 o 27.129 26.954 180.00 0.90595 1.03
2 4 -6 o 14.367 14.274 180.00 0.90595 0.54
0 6 2 o 13.777 13.616 180.00 0.90399 0.52
0 6 -2 o 13.924 13.762 180.00 0.90384 0.52
6 0 -2 o 11.277 11.145 180.00 0.90375 0.42
6 0 2 o 15.135 14.959 180.00 0.90367 0.57
2 -2 -8 o 75.240 74.630 0.00 0.88504 2.60
2 2 8 o 84.040 83.367 0.00 0.88490 2.90
2 -6 0 o 67.699 67.516 0.00 0.88080 2.30
2 2 -8 o 70.679 70.118 0.00 0.88480 2.44
2 -2 8 o 90.962 90.242 0.00 0.88475 3.14
2 6 0 o 53.603 53.500 0.00 0.88067 1.82
6 -2 0 o 64.663 64.551 0.00 0.88064 2.19
6 2 0 o 53.862 53.819 0.00 0.88050 1.83
4 -4 -4 o 68.108 67.691 0.00 0.88193 2.32
4 -4 4 o 81.896 81.437 0.00 0.88165 2.79
4 4 4 o 60.460 60.121 0.00 0.88166 2.06
4 4 -4 o 52.965 52.681 0.00 0.88156 1.80
0 1 9 o 4.420 4.480 0.00 0.86971 0.14
1 0 -9 o 0.572 0.580 0.00 0.86967 0.02
1 0 9 o 0.539 0.546 0.00 0.86963 0.02
0 1 -9 o 1.343 1.360 180.00 0.86960 0.04
4 -5 -1 o 6.947 6.890 0.00 0.86482 0.22
5 -4 -1 o 0.000 0.000 180.00 0.86477 0.00
4 -5 1 o 1.713 1.698 0.00 0.86474 0.05
5 -4 1 o 0.532 0.527 180.00 0.86470 0.02
4 5 1 o 0.010 0.010 180.00 0.86458 0.00
4 5 -1 o 3.712 3.675 180.00 0.86455 0.12
5 4 1 o 11.622 11.503 0.00 0.86453 0.37
5 4 -1 o 0.946 0.936 0.00 0.86451 0.03
1 -4 -7 o 4.578 4.606 180.00 0.86788 0.15
1 4 7 o 1.666 1.675 0.00 0.86780 0.05
4 -1 -7 o 8.799 8.848 0.00 0.86774 0.28
4 1 -7 o 5.637 5.665 180.00 0.86761 0.18
1 -4 7 o 1.417 1.424 180.00 0.86752 0.05
4 1 7 o 1.748 1.756 180.00 0.86755 0.06
1 4 -7 o 7.631 7.667 0.00 0.86751 0.24
4 -1 7 o 1.012 1.016 0.00 0.86751 0.03
2 -5 -5 o 0.157 0.157 180.00 0.86642 0.01
5 -2 -5 o 0.043 0.043 0.00 0.86627 0.00
2 5 5 o 2.174 2.173 0.00 0.86626 0.07
2 -5 5 o 0.085 0.085 180.00 0.86608 0.00
5 -2 5 o 0.176 0.175 0.00 0.86602 0.01
2 5 -5 o 0.851 0.850 0.00 0.86602 0.03
5 2 -5 o 2.123 2.121 180.00 0.86604 0.07
5 2 5 o 0.290 0.290 180.00 0.86603 0.01
1 -6 -3 o 2.711 2.698 0.00 0.86538 0.09
1 6 3 o 14.925 14.848 180.00 0.86530 0.47
1 -6 3 o 14.252 14.167 0.00 0.86516 0.45
6 -1 -3 o 7.871 7.824 180.00 0.86516 0.25
1 6 -3 o 2.172 2.158 180.00 0.86511 0.07
6 1 -3 o 11.132 11.058 0.00 0.86506 0.35
6 -1 3 o 6.298 6.255 180.00 0.86503 0.20
6 1 3 o 4.134 4.105 0.00 0.86500 0.13
1 -3 -8 o 5.398 5.306 0.00 0.86354 0.17
1 3 8 o 0.908 0.892 0.00 0.86347 0.03
3 -1 -8 o 2.650 2.604 0.00 0.86345 0.08
3 1 -8 o 6.181 6.067 0.00 0.86333 0.19
3 1 8 o 2.245 2.203 0.00 0.86330 0.07
1 -3 8 o 2.072 2.032 0.00 0.86323 0.07
3 -1 8 o 3.181 3.121 0.00 0.86324 0.10
1 3 -8 o 6.166 6.050 0.00 0.86324 0.19
3 -5 -4 o 7.674 7.493 0.00 0.86067 0.24
5 -3 -4 o 4.653 4.547 0.00 0.86056 0.14
3 5 4 o 4.248 4.154 0.00 0.86044 0.13
3 -5 4 o 4.918 4.812 0.00 0.86038 0.15
5 -3 4 o 4.434 4.340 0.00 0.86033 0.14
3 5 -4 o 10.360 10.146 0.00 0.86028 0.32
5 3 4 o 7.348 7.195 0.00 0.86030 0.23
5 3 -4 o 12.503 12.245 0.00 0.86027 0.39
2 -6 -2 o 0.606 0.596 0.00 0.85989 0.02
2 -6 2 o 0.671 0.662 0.00 0.85974 0.02
2 6 2 o 0.107 0.106 0.00 0.85974 0.00
6 -2 -2 o 0.010 0.010 180.00 0.85971 0.00
2 6 -2 o 0.006 0.006 0.00 0.85963 0.00
6 -2 2 o 0.230 0.227 0.00 0.85960 0.01
6 2 -2 o 0.205 0.202 180.00 0.85954 0.01
6 2 2 o 0.006 0.006 0.00 0.85952 0.00
1 -5 -6 o 3.125 3.207 0.00 0.84197 0.09
1 5 6 o 10.549 10.822 0.00 0.84189 0.30
5 -1 -6 o 8.681 8.902 0.00 0.84179 0.25
5 1 -6 o 1.611 1.651 0.00 0.84168 0.05
1 -5 6 o 8.216 8.422 0.00 0.84163 0.23
1 5 -6 o 2.571 2.635 0.00 0.84161 0.07
5 -1 6 o 7.109 7.285 0.00 0.84159 0.20
5 1 6 o 4.316 4.423 0.00 0.84160 0.12
0 6 4 o 11.801 12.101 0.00 0.84079 0.33
0 6 -4 o 13.546 13.907 0.00 0.84053 0.38
6 0 -4 o 21.767 22.345 0.00 0.84055 0.62
6 0 4 o 12.580 12.923 0.00 0.84044 0.36
1 -2 -9 o 1.989 1.825 0.00 0.83025 0.05
2 -1 -9 o 3.561 3.265 180.00 0.83021 0.10
1 2 9 o 0.015 0.014 180.00 0.83019 0.00
2 1 9 o 0.153 0.140 0.00 0.83011 0.00
2 1 -9 o 7.293 6.677 0.00 0.83010 0.20
1 2 -9 o 1.144 1.046 180.00 0.83005 0.03
2 -1 9 o 0.863 0.789 0.00 0.83004 0.02
1 -2 9 o 1.408 1.288 0.00 0.83002 0.04
3 -6 -1 o 0.806 0.721 180.00 0.82595 0.02
3 -6 1 o 7.423 6.643 180.00 0.82587 0.20
6 -3 -1 o 11.871 10.621 0.00 0.82582 0.31
6 -3 1 o 8.478 7.582 0.00 0.82576 0.22
3 6 1 o 19.849 17.751 0.00 0.82576 0.52
3 6 -1 o 2.848 2.546 0.00 0.82572 0.08
6 3 1 o 1.175 1.049 180.00 0.82562 0.03
6 3 -1 o 6.704 5.989 180.00 0.82562 0.18
4 -5 -3 o 2.957 2.653 0.00 0.82641 0.08
5 -4 -3 o 0.452 0.406 180.00 0.82637 0.01
4 -5 3 o 4.167 3.736 0.00 0.82621 0.11
5 -4 3 o 0.104 0.093 180.00 0.82618 0.00
4 5 3 o 3.197 2.866 180.00 0.82617 0.08
5 4 3 o 1.586 1.421 0.00 0.82611 0.04
4 5 -3 o 0.215 0.192 180.00 0.82607 0.01
5 4 -3 o 8.766 7.853 0.00 0.82606 0.23
2 -6 -4 o 59.181 58.445 0.00 0.80496 1.42
2 6 4 o 50.081 49.506 0.00 0.80482 1.20
6 -2 -4 o 50.857 50.284 0.00 0.80479 1.22
2 -6 4 o 64.023 63.340 0.00 0.80471 1.53
2 6 -4 o 47.628 47.144 0.00 0.80464 1.14
6 -2 4 o 67.388 66.711 0.00 0.80462 1.61
6 2 -4 o 43.599 43.163 0.00 0.80462 1.04
6 2 4 o 54.825 54.287 0.00 0.80459 1.31
0 4 8 o 69.064 66.632 0.00 0.80731 1.67
4 0 -8 o 56.223 54.339 0.00 0.80716 1.36
0 4 -8 o 69.232 67.030 0.00 0.80701 1.67
4 0 8 o 81.051 78.459 0.00 0.80703 1.96
3 -6 -3 o 5.421 5.592 180.00 0.79230 0.12
6 -3 -3 o 8.251 8.514 0.00 0.79217 0.19
3 -6 3 o 1.282 1.323 180.00 0.79211 0.03
3 6 3 o 2.800 2.890 0.00 0.79211 0.06
6 -3 3 o 6.820 7.041 0.00 0.79202 0.15
3 6 -3 o 13.319 13.752 0.00 0.79199 0.30
6 3 3 o 4.888 5.047 180.00 0.79195 0.11
6 3 -3 o 1.616 1.668 180.00 0.79194 0.04
0 7 1 o 1.534 1.585 0.00 0.79182 0.03
0 7 -1 o 0.115 0.119 180.00 0.79176 0.00
0 3 9 o 0.092 0.096 180.00 0.79567 0.00
7 0 -1 o 0.879 0.908 180.00 0.79161 0.02
7 0 1 o 0.003 0.003 0.00 0.79159 0.00
3 0 -9 o 0.054 0.056 180.00 0.79556 0.00
3 0 9 o 0.042 0.044 0.00 0.79546 0.00
0 3 -9 o 2.039 2.126 0.00 0.79543 0.05
3 -4 -7 o 0.124 0.128 0.00 0.79422 0.00
0 5 7 o 0.003 0.003 0.00 0.79419 0.00
4 -3 -7 o 7.986 8.259 180.00 0.79417 0.18
3 4 7 o 9.801 10.130 180.00 0.79403 0.22
5 0 -7 o 0.893 0.922 0.00 0.79401 0.02
4 3 7 o 0.144 0.149 0.00 0.79396 0.00
3 -4 7 o 3.262 3.370 0.00 0.79389 0.07
0 5 -7 o 0.069 0.071 180.00 0.79388 0.00
4 -3 7 o 0.353 0.364 180.00 0.79388 0.01
4 3 -7 o 7.520 7.768 0.00 0.79389 0.17
5 0 7 o 0.262 0.270 0.00 0.79387 0.01
3 4 -7 o 0.488 0.504 180.00 0.79387 0.01
1 -6 -5 o 12.141 12.521 0.00 0.79307 0.27
1 6 5 o 1.566 1.614 180.00 0.79300 0.04
6 -1 -5 o 7.504 7.738 180.00 0.79288 0.17
1 -6 5 o 3.653 3.766 0.00 0.79279 0.08
1 6 -5 o 10.065 10.378 180.00 0.79276 0.23
6 1 -5 o 7.028 7.247 0.00 0.79278 0.16
6 -1 5 o 2.678 2.761 180.00 0.79272 0.06
6 1 5 o 7.261 7.487 0.00 0.79271 0.16
0 0 10 o 1.613 1.663 0.00 0.79241 0.04
1 -7 0 o 3.080 2.964 0.00 0.78780 0.07
5 -5 0 o 0.146 0.140 0.00 0.78778 0.00
1 7 0 o 3.014 2.896 0.00 0.78774 0.07
7 -1 0 o 0.758 0.725 0.00 0.78762 0.02
5 5 0 o 0.719 0.687 180.00 0.78758 0.02
7 1 0 o 9.709 9.269 0.00 0.78756 0.21
3 -3 -8 o 0.530 0.549 0.00 0.79088 0.01
3 3 8 o 1.615 1.670 0.00 0.79071 0.04
3 -3 8 o 1.773 1.833 0.00 0.79058 0.04
3 3 -8 o 0.004 0.004 0.00 0.79060 0.00
4 -4 -6 o 0.128 0.131 0.00 0.78959 0.00
4 4 6 o 0.501 0.508 0.00 0.78936 0.01
4 -4 6 o 1.656 1.675 0.00 0.78929 0.04
4 4 -6 o 0.134 0.136 180.00 0.78925 0.00
3 -5 -6 o 16.516 16.130 0.00 0.77422 0.34
5 -3 -6 o 9.531 9.315 0.00 0.77414 0.20
3 5 6 o 11.420 11.169 0.00 0.77404 0.24
3 -5 6 o 9.241 9.047 0.00 0.77391 0.19
5 -3 6 o 8.743 8.561 0.00 0.77388 0.18
5 3 6 o 14.600 14.293 0.00 0.77391 0.30
3 5 -6 o 21.001 20.567 0.00 0.77386 0.43
5 3 -6 o 21.535 21.088 0.00 0.77387 0.44
1 -1 -10 o 5.379 5.169 0.00 0.77690 0.11
1 1 10 o 9.189 8.833 0.00 0.77686 0.19
1 1 -10 o 5.038 4.843 0.00 0.77681 0.11
1 -7 -2 o 12.914 12.766 0.00 0.77273 0.26
5 -5 -2 o 1.943 1.921 0.00 0.77272 0.04
1 -1 10 o 6.396 6.151 0.00 0.77678 0.13
1 7 2 o 9.993 9.883 0.00 0.77267 0.20
1 -7 2 o 8.879 8.786 0.00 0.77261 0.18
5 -5 2 o 2.327 2.303 0.00 0.77260 0.05
1 7 -2 o 13.391 13.256 0.00 0.77256 0.27
4 -6 0 o 11.742 11.631 0.00 0.77251 0.24
7 -1 -2 o 3.135 3.105 0.00 0.77254 0.06
7 -1 2 o 3.661 3.628 0.00 0.77247 0.07
6 -4 0 o 14.641 14.511 0.00 0.77244 0.30
5 5 2 o 1.141 1.130 0.00 0.77248 0.02
7 1 -2 o 17.917 17.754 0.00 0.77246 0.37
5 5 -2 o 0.352 0.348 0.00 0.77244 0.01
7 1 2 o 16.693 16.546 0.00 0.77243 0.34
4 6 0 o 19.004 18.856 0.00 0.77232 0.39
6 4 0 o 20.391 20.245 0.00 0.77225 0.42
2 -4 -8 o 11.023 10.685 0.00 0.77544 0.23
4 -2 -8 o 16.557 16.057 0.00 0.77536 0.34
2 4 8 o 8.921 8.654 0.00 0.77532 0.18
4 2 8 o 8.140 7.903 0.00 0.77518 0.17
4 2 -8 o 19.828 19.253 0.00 0.77517 0.41
2 -4 8 o 8.329 8.089 0.00 0.77512 0.17
4 -2 8 o 6.602 6.413 0.00 0.77511 0.14
2 4 -8 o 15.902 15.446 0.00 0.77511 0.33
2 -5 -7 o 4.084 3.972 180.00 0.76380 0.08
5 -2 -7 o 0.015 0.014 180.00 0.76368 0.00
2 5 7 o 0.253 0.247 180.00 0.76367 0.00
2 -5 7 o 0.728 0.710 0.00 0.76347 0.01
5 2 -7 o 0.015 0.015 180.00 0.76349 0.00
5 2 7 o 5.713 5.575 180.00 0.76348 0.11
5 -2 7 o 0.007 0.007 180.00 0.76344 0.00
2 5 -7 o 4.783 4.669 0.00 0.76345 0.09
4 -5 -5 o 8.708 8.566 0.00 0.76276 0.17
5 -4 -5 o 0.117 0.115 0.00 0.76272 0.00
4 -5 5 o 0.647 0.638 0.00 0.76250 0.01
4 5 5 o 0.060 0.059 0.00 0.76254 0.00
5 -4 5 o 0.451 0.445 180.00 0.76248 0.01
5 4 5 o 12.693 12.529 0.00 0.76248 0.25
4 5 -5 o 3.567 3.524 180.00 0.76242 0.07
5 4 -5 o 0.403 0.398 0.00 0.76241 0.01
0 7 3 o 0.510 0.506 180.00 0.76202 0.01
0 7 -3 o 2.122 2.109 0.00 0.76186 0.04
7 0 -3 o 0.023 0.023 0.00 0.76181 0.00
7 0 3 o 1.602 1.594 180.00 0.76174 0.03
2 -7 -1 o 2.343 2.332 0.00 0.76168 0.05
2 -7 1 o 0.061 0.061 180.00 0.76162 0.00
2 7 1 o 0.395 0.394 0.00 0.76157 0.01
2 7 -1 o 1.674 1.669 180.00 0.76152 0.03
7 -2 -1 o 0.129 0.129 0.00 0.76152 0.00
7 -2 1 o 0.643 0.642 0.00 0.76148 0.01
7 2 -1 o 0.085 0.085 0.00 0.76140 0.00
7 2 1 o 4.871 4.867 0.00 0.76139 0.09
2 -3 -9 o 8.316 8.026 0.00 0.76510 0.16
3 -2 -9 o 0.309 0.299 0.00 0.76506 0.01
2 3 9 o 1.305 1.260 0.00 0.76499 0.03
3 2 9 o 6.593 6.365 0.00 0.76492 0.13
3 2 -9 o 0.960 0.927 0.00 0.76488 0.02
2 3 -9 o 3.999 3.862 180.00 0.76484 0.08
2 -3 9 o 0.104 0.100 180.00 0.76482 0.00
3 -2 9 o 0.001 0.001 180.00 0.76482 0.00
0 6 6 o 9.430 9.704 180.00 0.75965 0.18
6 0 -6 o 5.285 5.457 180.00 0.75945 0.10
0 6 -6 o 9.561 9.886 180.00 0.75937 0.18
6 0 6 o 13.556 14.028 180.00 0.75933 0.26
4 -6 -2 o 10.491 11.065 180.00 0.75829 0.20
6 -4 -2 o 8.940 9.452 180.00 0.75822 0.17
0 2 10 o 17.523 17.385 180.00 0.76224 0.34
4 -6 2 o 12.482 13.215 180.00 0.75817 0.24
2 0 -10 o 13.620 13.522 180.00 0.76218 0.26
6 -4 2 o 12.133 12.871 180.00 0.75811 0.23
2 0 10 o 21.603 21.467 180.00 0.76211 0.42
4 6 2 o 4.061 4.312 180.00 0.75809 0.08
0 2 -10 o 17.537 17.433 180.00 0.76208 0.34
4 6 -2 o 3.591 3.823 180.00 0.75802 0.07
6 4 2 o 4.615 4.918 180.00 0.75800 0.09
6 4 -2 o 3.605 3.845 180.00 0.75798 0.07
1 -4 -9 o 0.031 0.031 180.00 0.73779 0.00
1 4 9 o 8.678 8.894 0.00 0.73773 0.15
4 -1 -9 o 9.994 10.234 0.00 0.73769 0.17
4 1 -9 o 5.715 5.841 180.00 0.73760 0.10
4 1 9 o 0.006 0.006 0.00 0.73755 0.00
1 -4 9 o 2.918 2.978 180.00 0.73751 0.05
4 -1 9 o 1.230 1.256 0.00 0.73751 0.02
1 4 -9 o 2.045 2.087 0.00 0.73751 0.03
3 -6 -5 o 0.143 0.146 180.00 0.73570 0.00
6 -3 -5 o 11.320 11.528 0.00 0.73559 0.19
3 6 5 o 16.961 17.284 0.00 0.73553 0.29
3 -6 5 o 5.664 5.778 180.00 0.73544 0.10
6 -3 5 o 4.832 4.933 0.00 0.73538 0.08
3 6 -5 o 1.579 1.612 0.00 0.73537 0.03
6 3 5 o 0.370 0.377 180.00 0.73537 0.01
6 3 -5 o 5.151 5.260 180.00 0.73536 0.09
2 -7 -3 o 0.001 0.001 0.00 0.73506 0.00
2 7 3 o 1.250 1.283 180.00 0.73494 0.02
2 -7 3 o 1.024 1.052 0.00 0.73489 0.02
7 -2 -3 o 0.382 0.392 0.00 0.73489 0.01
2 7 -3 o 0.107 0.110 0.00 0.73481 0.00
7 -2 3 o 0.075 0.077 0.00 0.73478 0.00
7 2 -3 o 2.733 2.813 0.00 0.73475 0.05
7 2 3 o 0.276 0.284 0.00 0.73473 0.00
1 -5 -8 o 0.020 0.021 0.00 0.73396 0.00
1 5 8 o 3.166 3.304 0.00 0.73390 0.05
5 -1 -8 o 3.616 3.777 0.00 0.73382 0.06
5 1 -8 o 0.076 0.079 0.00 0.73374 0.00
1 -5 8 o 3.325 3.481 0.00 0.73365 0.06
1 5 -8 o 0.073 0.076 0.00 0.73365 0.00
5 1 8 o 0.998 1.045 0.00 0.73366 0.02
5 -1 8 o 2.128 2.228 0.00 0.73364 0.04
2 -6 -6 o 0.459 0.484 0.00 0.73293 0.01
2 6 6 o 0.290 0.307 0.00 0.73281 0.00
6 -2 -6 o 0.293 0.310 180.00 0.73278 0.00
2 -6 6 o 0.583 0.617 0.00 0.73264 0.01
2 6 -6 o 0.014 0.015 180.00 0.73260 0.00
6 2 -6 o 0.659 0.698 180.00 0.73262 0.01
6 -2 6 o 0.886 0.938 0.00 0.73259 0.01
6 2 6 o 0.305 0.323 0.00 0.73259 0.01
1 -7 -4 o 4.193 4.467 0.00 0.73214 0.07
5 -5 -4 o 0.041 0.043 0.00 0.73213 0.00
1 7 4 o 0.945 1.007 0.00 0.73208 0.02
1 -7 4 o 1.404 1.502 0.00 0.73193 0.02
5 -5 4 o 0.323 0.345 0.00 0.73192 0.01
7 -1 -4 o 0.544 0.582 0.00 0.73195 0.01
1 7 -4 o 4.751 5.086 0.00 0.73190 0.08
5 5 4 o 0.143 0.154 180.00 0.73190 0.00
7 1 -4 o 8.996 9.636 0.00 0.73188 0.15
7 -1 4 o 0.866 0.929 0.00 0.73184 0.01
5 5 -4 o 0.952 1.021 180.00 0.73182 0.02
7 1 4 o 6.578 7.056 0.00 0.73182 0.11
3 -7 0 o 0.020 0.022 0.00 0.73147 0.00
7 -3 0 o 1.699 1.849 0.00 0.73135 0.03
3 7 0 o 0.092 0.100 180.00 0.73133 0.00
2 -2 -10 o 0.495 0.508 0.00 0.73524 0.01
7 3 0 o 0.603 0.661 180.00 0.73121 0.01
2 2 10 o 2.200 2.258 0.00 0.73515 0.04
2 2 -10 o 0.118 0.121 0.00 0.73507 0.00
2 -2 10 o 2.210 2.272 0.00 0.73503 0.04
1 -3 -10 o 10.724 11.802 0.00 0.72278 0.17
1 3 10 o 3.732 4.104 0.00 0.72273 0.06
3 -1 -10 o 5.575 6.128 0.00 0.72272 0.09
3 1 -10 o 9.543 10.476 0.00 0.72263 0.15
3 1 10 o 5.183 5.688 0.00 0.72261 0.08
3 -1 10 o 6.582 7.216 0.00 0.72256 0.10
1 3 -10 o 10.042 11.010 0.00 0.72256 0.16
1 -3 10 o 4.437 4.864 0.00 0.72255 0.07
4 -6 -4 o 11.486 12.403 0.00 0.71983 0.18
6 -4 -4 o 15.966 17.246 0.00 0.71975 0.25
4 -6 4 o 9.025 9.754 0.00 0.71962 0.14
4 6 4 o 14.300 15.455 0.00 0.71963 0.22
6 -4 4 o 9.725 10.513 0.00 0.71958 0.15
4 6 -4 o 18.519 20.028 0.00 0.71952 0.29
6 4 4 o 14.597 15.785 0.00 0.71953 0.23
6 4 -4 o 20.710 22.401 0.00 0.71950 0.32
3 -7 -2 o 1.725 1.867 0.00 0.71937 0.03
3 -7 2 o 2.714 2.941 0.00 0.71926 0.04
7 -3 -2 o 4.856 5.264 0.00 0.71924 0.08
3 7 2 o 3.011 3.265 0.00 0.71922 0.05
7 -3 2 o 4.657 5.053 0.00 0.71916 0.07
3 7 -2 o 1.361 1.477 0.00 0.71915 0.02
7 3 -2 o 0.182 0.198 0.00 0.71907 0.00
7 3 2 o 0.490 0.532 0.00 0.71907 0.01
0 1 11 o 1.534 1.810 0.00 0.71446 0.02
1 0 -11 o 0.064 0.076 0.00 0.71443 0.00
1 0 11 o 0.016 0.018 180.00 0.71440 0.00
0 1 -11 o 2.032 2.391 180.00 0.71438 0.03
1 -6 -7 o 1.161 1.296 0.00 0.71213 0.02
1 6 7 o 10.158 11.336 180.00 0.71207 0.15
6 -1 -7 o 6.662 7.431 180.00 0.71197 0.10
6 1 -7 o 7.889 8.798 0.00 0.71189 0.12
1 -6 7 o 9.000 10.035 0.00 0.71184 0.13
1 6 -7 o 1.292 1.440 180.00 0.71182 0.02
6 -1 7 o 3.015 3.362 180.00 0.71180 0.04
6 1 7 o 1.610 1.795 0.00 0.71181 0.02
0 7 5 o 0.852 0.949 0.00 0.71127 0.01
0 7 -5 o 0.007 0.008 0.00 0.71104 0.00
7 0 -5 o 0.279 0.311 180.00 0.71107 0.00
7 0 5 o 0.001 0.001 180.00 0.71097 0.00
5 -6 -1 o 3.127 3.506 0.00 0.71039 0.05
6 -5 -1 o 2.490 2.794 180.00 0.71036 0.04
5 -6 1 o 0.656 0.736 0.00 0.71034 0.01
6 -5 1 o 4.602 5.169 180.00 0.71031 0.07
5 6 1 o 0.292 0.329 180.00 0.71020 0.00
5 6 -1 o 7.033 7.927 180.00 0.71017 0.10
6 5 1 o 4.236 4.777 0.00 0.71016 0.06
6 5 -1 o 0.409 0.461 0.00 0.71015 0.01
0 8 0 o 33.720 34.832 0.00 0.69630 0.46
8 0 0 o 33.070 34.198 0.00 0.69613 0.45
4 -4 -8 o 44.260 45.085 0.00 0.69848 0.61
4 4 8 o 46.117 47.034 0.00 0.69830 0.64
4 -4 8 o 63.087 64.384 0.00 0.69820 0.87
4 4 -8 o 35.307 36.034 0.00 0.69820 0.49
1 -2 -11 o 0.002 0.002 0.00 0.69210 0.00
2 -1 -11 o 5.393 5.577 180.00 0.69207 0.07
1 2 11 o 1.718 1.777 180.00 0.69206 0.02
4 -7 -1 o 0.042 0.044 180.00 0.68837 0.00
1 -8 -1 o 1.676 1.739 180.00 0.68835 0.02
4 -7 1 o 1.794 1.862 180.00 0.68832 0.02
2 1 11 o 0.651 0.673 180.00 0.69200 0.01
2 1 -11 o 5.353 5.532 0.00 0.69200 0.07
1 -8 1 o 11.991 12.445 180.00 0.68831 0.16
1 8 1 o 17.197 17.848 0.00 0.68831 0.22
1 2 -11 o 0.437 0.451 180.00 0.69196 0.01
2 -1 11 o 0.422 0.436 0.00 0.69195 0.01
7 -4 -1 o 0.147 0.153 0.00 0.68829 0.00
1 -2 11 o 0.826 0.853 0.00 0.69194 0.01
1 8 -1 o 3.078 3.195 0.00 0.68826 0.04
7 -4 1 o 0.046 0.047 0.00 0.68824 0.00
4 7 1 o 2.847 2.958 0.00 0.68821 0.04
8 -1 -1 o 7.461 7.751 0.00 0.68819 0.10
4 7 -1 o 0.000 0.000 0.00 0.68818 0.00
8 -1 1 o 9.153 9.510 0.00 0.68816 0.12
8 1 -1 o 6.056 6.294 180.00 0.68814 0.08
8 1 1 o 2.582 2.683 180.00 0.68812 0.03
7 4 1 o 0.007 0.007 0.00 0.68811 0.00
7 4 -1 o 3.178 3.303 180.00 0.68811 0.04
3 -4 -9 o 2.023 2.074 0.00 0.69093 0.03
0 5 9 o 3.007 3.084 0.00 0.69091 0.04
4 -3 -9 o 3.456 3.544 180.00 0.69089 0.05
3 4 9 o 0.659 0.676 180.00 0.69079 0.01
5 0 -9 o 0.329 0.337 0.00 0.69077 0.00
4 3 9 o 2.286 2.343 0.00 0.69073 0.03
3 -4 9 o 1.737 1.781 0.00 0.69065 0.02
4 3 -9 o 3.873 3.969 0.00 0.69067 0.05
0 5 -9 o 1.507 1.544 180.00 0.69064 0.02
4 -3 9 o 0.062 0.064 180.00 0.69064 0.00
5 0 9 o 2.750 2.818 0.00 0.69065 0.04
3 4 -9 o 2.817 2.887 180.00 0.69065 0.04
4 -5 -7 o 2.741 2.812 0.00 0.68994 0.04
5 -4 -7 o 0.172 0.176 180.00 0.68991 0.00
4 5 7 o 1.639 1.683 180.00 0.68976 0.02
4 -5 7 o 1.148 1.180 0.00 0.68966 0.02
5 4 7 o 1.438 1.477 0.00 0.68970 0.02
5 -4 7 o 0.221 0.227 180.00 0.68965 0.00
5 4 -7 o 3.837 3.942 0.00 0.68963 0.05
4 5 -7 o 0.405 0.416 180.00 0.68963 0.01
2 -7 -5 o 3.123 3.219 0.00 0.68919 0.04
2 7 5 o 0.653 0.673 0.00 0.68909 0.01
7 -2 -5 o 0.186 0.192 0.00 0.68904 0.00
2 -7 5 o 0.241 0.249 180.00 0.68896 0.00
2 7 -5 o 1.611 1.664 180.00 0.68891 0.02
7 -2 5 o 0.811 0.838 0.00 0.68889 0.01
7 2 -5 o 0.002 0.002 0.00 0.68890 0.00
7 2 5 o 5.888 6.084 0.00 0.68887 0.08
0 4 10 o 1.162 1.201 0.00 0.68883 0.02
4 0 -10 o 0.055 0.057 180.00 0.68873 0.00
5 -6 -3 o 0.189 0.195 0.00 0.68865 0.00
6 -5 -3 o 6.603 6.836 180.00 0.68861 0.09
4 0 10 o 2.346 2.429 0.00 0.68862 0.03
0 4 -10 o 0.450 0.466 0.00 0.68860 0.01
5 -6 3 o 3.752 3.888 0.00 0.68850 0.05
6 -5 3 o 1.802 1.867 180.00 0.68848 0.02
5 6 3 o 9.868 10.230 180.00 0.68844 0.13
6 5 3 o 0.236 0.244 0.00 0.68840 0.00
5 6 -3 o 0.051 0.053 180.00 0.68838 0.00
6 5 -3 o 4.396 4.561 0.00 0.68836 0.06
3 -5 -8 o 6.627 6.904 0.00 0.68778 0.09
5 -3 -8 o 3.547 3.697 0.00 0.68771 0.05
3 5 8 o 1.528 1.593 0.00 0.68763 0.02
3 -5 8 o 2.915 3.043 0.00 0.68749 0.04
5 3 8 o 3.520 3.673 0.00 0.68753 0.05
5 -3 8 o 3.386 3.535 0.00 0.68747 0.04
5 3 -8 o 10.467 10.925 0.00 0.68749 0.14
3 5 -8 o 9.727 10.156 0.00 0.68747 0.13
3 -7 -4 o 0.065 0.068 180.00 0.68628 0.00
7 -3 -4 o 1.754 1.846 0.00 0.68616 0.02
3 7 4 o 0.032 0.033 0.00 0.68614 0.00
3 -7 4 o 0.380 0.401 0.00 0.68609 0.00
7 -3 4 o 1.540 1.623 0.00 0.68602 0.02
3 7 -4 o 0.389 0.410 180.00 0.68601 0.01
7 3 -4 o 0.681 0.718 180.00 0.68598 0.01
7 3 4 o 0.265 0.279 180.00 0.68597 0.00
0 8 2 o 0.016 0.017 0.00 0.68583 0.00
0 8 -2 o 0.000 0.000 180.00 0.68574 0.00
8 0 -2 o 0.849 0.897 180.00 0.68565 0.01
8 0 2 o 0.156 0.165 180.00 0.68561 0.00
2 -8 0 o 12.705 12.658 0.00 0.67554 0.15
2 8 0 o 17.464 17.376 0.00 0.67546 0.21
8 -2 0 o 19.823 19.704 0.00 0.67540 0.24
8 2 0 o 21.663 21.502 0.00 0.67532 0.26
3 -3 -10 o 3.111 3.104 0.00 0.67855 0.04
3 3 10 o 7.889 7.874 0.00 0.67842 0.10
3 3 -10 o 1.070 1.068 0.00 0.67833 0.01
3 -3 10 o 4.940 4.934 0.00 0.67831 0.06
0 6 8 o 9.648 9.674 0.00 0.67750 0.12
6 0 -8 o 22.532 22.607 0.00 0.67734 0.28
0 6 -8 o 12.705 12.752 0.00 0.67724 0.16
6 0 8 o 8.152 8.183 0.00 0.67722 0.10
1 -7 -6 o 15.077 15.144 0.00 0.67669 0.18
5 -5 -6 o 1.696 1.703 0.00 0.67668 0.02
1 7 6 o 6.199 6.226 0.00 0.67664 0.08
7 -1 -6 o 2.669 2.680 0.00 0.67652 0.03
1 -7 6 o 5.167 5.187 0.00 0.67645 0.06
5 -5 6 o 2.668 2.678 0.00 0.67644 0.03
5 5 6 o 2.579 2.590 0.00 0.67647 0.03
1 7 -6 o 14.505 14.560 0.00 0.67643 0.18
7 1 -6 o 15.928 15.990 0.00 0.67645 0.19
7 -1 6 o 4.144 4.159 0.00 0.67639 0.05
7 1 6 o 12.851 12.898 0.00 0.67638 0.16
5 5 -6 o 0.118 0.119 0.00 0.67638 0.00
4 -7 -3 o 3.041 2.998 180.00 0.66854 0.04
1 -8 -3 o 11.701 11.538 180.00 0.66852 0.14
1 8 3 o 3.044 3.001 0.00 0.66847 0.04
7 -4 -3 o 0.001 0.001 180.00 0.66845 0.00
4 -7 3 o 0.005 0.005 0.00 0.66840 0.00
1 -8 3 o 2.071 2.043 180.00 0.66838 0.02
1 8 -3 o 15.518 15.304 0.00 0.66835 0.18
7 -4 3 o 0.149 0.147 0.00 0.66833 0.00
4 7 3 o 0.014 0.014 180.00 0.66837 0.00
8 -1 -3 o 9.173 9.046 0.00 0.66834 0.11
4 7 -3 o 2.885 2.845 0.00 0.66828 0.03
8 1 -3 o 3.099 3.056 180.00 0.66829 0.04
8 -1 3 o 6.154 6.069 0.00 0.66827 0.07
7 4 3 o 5.285 5.212 180.00 0.66826 0.06
8 1 3 o 5.934 5.851 180.00 0.66824 0.07
7 4 -3 o 0.190 0.188 0.00 0.66824 0.00
0 3 11 o 2.829 2.666 180.00 0.67169 0.03
3 0 -11 o 0.131 0.123 180.00 0.67162 0.00
3 0 11 o 0.599 0.565 180.00 0.67154 0.01
0 3 -11 o 3.217 3.039 0.00 0.67151 0.04
2 -5 -9 o 0.350 0.335 180.00 0.67062 0.00
5 -2 -9 o 0.045 0.043 0.00 0.67053 0.00
2 5 9 o 1.028 0.988 0.00 0.67053 0.01
5 2 -9 o 0.736 0.709 180.00 0.67038 0.01
5 2 9 o 0.228 0.220 180.00 0.67037 0.00
2 -5 9 o 0.154 0.149 0.00 0.67034 0.00
5 -2 9 o 0.251 0.242 0.00 0.67033 0.00
2 5 -9 o 1.444 1.392 0.00 0.67033 0.02
3 -6 -7 o 3.433 3.346 180.00 0.66972 0.04
2 -8 -2 o 5.189 4.828 180.00 0.66598 0.06
6 -3 -7 o 7.276 7.100 0.00 0.66963 0.09
2 -8 2 o 5.643 5.225 180.00 0.66588 0.06
3 6 7 o 2.426 2.369 0.00 0.66958 0.03
2 8 2 o 1.940 1.796 180.00 0.66589 0.02
3 -6 7 o 1.491 1.458 180.00 0.66945 0.02
8 -2 -2 o 3.284 3.030 180.00 0.66582 0.04
2 8 -2 o 1.885 1.738 180.00 0.66581 0.02
6 -3 7 o 3.275 3.206 0.00 0.66941 0.04
8 -2 2 o 5.600 5.150 180.00 0.66577 0.06
6 3 7 o 3.242 3.172 180.00 0.66943 0.04
6 3 -7 o 1.754 1.716 180.00 0.66942 0.02
3 6 -7 o 8.182 8.009 0.00 0.66941 0.10
8 2 -2 o 1.839 1.687 180.00 0.66572 0.02
8 2 2 o 2.958 2.711 180.00 0.66571 0.03
2 -4 -10 o 8.880 8.743 180.00 0.66872 0.10
4 -2 -10 o 6.146 6.052 180.00 0.66866 0.07
2 4 10 o 10.123 9.970 180.00 0.66863 0.12
4 2 10 o 12.512 12.326 180.00 0.66853 0.15
4 2 -10 o 4.638 4.570 180.00 0.66852 0.05
2 -4 10 o 14.030 13.823 180.00 0.66846 0.16
4 -2 10 o 17.073 16.821 180.00 0.66846 0.20
2 4 -10 o 6.472 6.377 180.00 0.66847 0.08
4 -6 -6 o 6.735 6.514 180.00 0.66694 0.08
6 -4 -6 o 4.762 4.597 180.00 0.66687 0.05
4 6 6 o 3.454 3.323 180.00 0.66676 0.04
4 -6 6 o 11.753 11.280 180.00 0.66669 0.14
6 -4 6 o 12.794 12.266 180.00 0.66666 0.15
6 4 6 o 4.426 4.244 180.00 0.66667 0.05
4 6 -6 o 2.295 2.198 180.00 0.66663 0.03
6 4 -6 o 1.953 1.870 180.00 0.66663 0.02
0 8 4 o 31.621 31.583 0.00 0.65698 0.34
0 8 -4 o 31.768 31.766 0.00 0.65682 0.35
8 0 -4 o 26.233 26.235 0.00 0.65680 0.29
0 0 12 o 60.265 54.885 0.00 0.66034 0.67
8 0 4 o 36.301 36.320 0.00 0.65673 0.39
6 -6 0 o 42.095 42.181 0.00 0.65648 0.46
6 6 0 o 24.038 24.102 0.00 0.65631 0.26
2 -6 -8 o 42.484 41.544 0.00 0.65834 0.47
2 6 8 o 38.471 37.702 0.00 0.65825 0.42
6 -2 -8 o 32.544 31.908 0.00 0.65823 0.36
2 -6 8 o 48.851 48.061 0.00 0.65807 0.53
6 2 -8 o 28.733 28.254 0.00 0.65809 0.31
2 6 -8 o 34.377 33.836 0.00 0.65805 0.38
6 2 8 o 45.077 44.352 0.00 0.65806 0.49
6 -2 8 o 56.245 55.364 0.00 0.65804 0.62
5 -6 -5 o 2.282 2.319 0.00 0.65051 0.02
6 -5 -5 o 2.802 2.846 180.00 0.65048 0.03
5 -6 5 o 1.232 1.249 0.00 0.65031 0.01
6 -5 5 o 2.549 2.584 180.00 0.65029 0.03
5 6 5 o 0.588 0.596 180.00 0.65031 0.01
6 5 5 o 3.876 3.928 0.00 0.65027 0.04
5 6 -5 o 4.271 4.326 180.00 0.65022 0.04
6 5 -5 o 0.597 0.604 0.00 0.65022 0.01
3 -8 -1 o 10.116 10.199 0.00 0.64983 0.11
3 -8 1 o 2.215 2.231 0.00 0.64978 0.02
8 -3 -1 o 5.790 5.826 180.00 0.64971 0.06
3 8 1 o 0.983 0.990 180.00 0.64971 0.01
8 -3 1 o 5.961 5.995 180.00 0.64967 0.06
3 8 -1 o 10.936 11.000 180.00 0.64968 0.11
8 3 -1 o 1.645 1.652 0.00 0.64958 0.02
8 3 1 o 5.909 5.934 0.00 0.64958 0.06
2 -3 -11 o 2.664 2.740 0.00 0.65300 0.03
3 -2 -11 o 0.020 0.020 180.00 0.65297 0.00
2 3 11 o 0.003 0.003 180.00 0.65292 0.00
3 2 11 o 0.461 0.475 0.00 0.65287 0.00
3 2 -11 o 1.525 1.569 0.00 0.65283 0.02
2 3 -11 o 2.211 2.274 180.00 0.65281 0.02
3 -2 11 o 0.164 0.168 180.00 0.65279 0.00
2 -3 11 o 0.216 0.222 180.00 0.65279 0.00
6 -6 -2 o 0.026 0.025 0.00 0.64770 0.00
6 -6 2 o 0.250 0.235 0.00 0.64761 0.00
1 -1 -12 o 1.202 1.228 0.00 0.65129 0.01
1 1 12 o 3.143 3.209 0.00 0.65126 0.03
5 -7 0 o 8.166 7.646 0.00 0.64757 0.08
1 1 -12 o 1.325 1.353 0.00 0.65123 0.01
1 -1 12 o 1.860 1.899 0.00 0.65121 0.02
7 -5 0 o 5.917 5.522 0.00 0.64752 0.06
6 6 2 o 0.188 0.175 180.00 0.64751 0.00
0 7 7 o 0.772 0.788 180.00 0.65113 0.01
6 6 -2 o 0.468 0.436 180.00 0.64747 0.00
5 7 0 o 9.655 8.948 0.00 0.64741 0.10
7 5 0 o 12.687 11.718 0.00 0.64736 0.13
7 0 -7 o 0.041 0.042 0.00 0.65096 0.00
0 7 -7 o 2.153 2.194 0.00 0.65089 0.02
7 0 7 o 1.839 1.873 180.00 0.65085 0.02
3 -7 -6 o 1.227 1.186 0.00 0.64000 0.01
7 -3 -6 o 5.215 5.055 0.00 0.63989 0.05
3 7 6 o 5.672 5.499 0.00 0.63987 0.06
3 -7 6 o 4.142 4.023 0.00 0.63976 0.04
7 -3 6 o 4.546 4.419 0.00 0.63971 0.04
3 7 -6 o 0.612 0.595 0.00 0.63971 0.01
7 3 -6 o 0.142 0.138 0.00 0.63971 0.00
7 3 6 o 1.344 1.306 0.00 0.63970 0.01
2 -8 -4 o 11.852 11.558 0.00 0.63947 0.12
2 8 4 o 15.166 14.801 0.00 0.63938 0.15
2 -8 4 o 12.514 12.220 0.00 0.63931 0.12
8 -2 -4 o 23.663 23.104 0.00 0.63932 0.23
2 8 -4 o 18.058 17.639 0.00 0.63925 0.18
8 -2 4 o 14.377 14.045 0.00 0.63922 0.14
8 2 -4 o 24.573 24.007 0.00 0.63921 0.24
8 2 4 o 16.681 16.299 0.00 0.63918 0.16
5 -7 -2 o 17.003 16.620 0.00 0.63914 0.17
7 -5 -2 o 11.172 10.922 0.00 0.63908 0.11
5 -7 2 o 14.701 14.373 0.00 0.63905 0.14
7 -5 2 o 10.836 10.595 0.00 0.63901 0.11
5 7 2 o 21.911 21.422 0.00 0.63896 0.21
0 2 12 o 8.006 7.065 0.00 0.64258 0.08
5 7 -2 o 24.709 24.157 0.00 0.63892 0.24
2 0 -12 o 12.870 11.376 0.00 0.64254 0.13
7 5 2 o 24.498 23.950 0.00 0.63890 0.24
7 5 -2 o 26.059 25.476 0.00 0.63888 0.25
2 0 12 o 5.979 5.297 0.00 0.64249 0.06
0 2 -12 o 9.518 8.441 0.00 0.64247 0.09
1 -5 -10 o 2.223 2.046 0.00 0.64157 0.02
1 5 10 o 12.691 11.699 0.00 0.64153 0.13
5 -1 -10 o 8.049 7.437 0.00 0.64147 0.08
5 1 -10 o 1.542 1.428 0.00 0.64140 0.02
5 1 10 o 5.782 5.368 0.00 0.64134 0.06
1 -5 10 o 8.853 8.226 0.00 0.64132 0.09
1 5 -10 o 1.645 1.529 0.00 0.64131 0.02
5 -1 10 o 5.679 5.276 0.00 0.64132 0.06
2 -7 -7 o 0.056 0.055 0.00 0.63407 0.00
2 7 7 o 0.767 0.763 180.00 0.63398 0.01
7 -2 -7 o 0.208 0.207 0.00 0.63394 0.00
2 -7 7 o 0.213 0.212 0.00 0.63382 0.00
7 2 -7 o 1.141 1.136 0.00 0.63382 0.01
2 7 -7 o 0.002 0.002 0.00 0.63379 0.00
7 -2 7 o 0.042 0.042 0.00 0.63378 0.00
7 2 7 o 0.462 0.460 0.00 0.63378 0.00
4 -7 -5 o 0.152 0.151 180.00 0.63348 0.00
1 -8 -5 o 0.954 0.947 180.00 0.63346 0.01
1 8 5 o 15.938 15.814 0.00 0.63342 0.15
7 -4 -5 o 0.109 0.108 0.00 0.63339 0.00
4 -7 5 o 0.637 0.630 180.00 0.63328 0.01
4 7 5 o 2.509 2.485 0.00 0.63332 0.02
1 -8 5 o 10.109 10.002 180.00 0.63327 0.10
8 -1 -5 o 7.438 7.363 0.00 0.63329 0.07
1 8 -5 o 2.518 2.490 0.00 0.63325 0.02
7 -4 5 o 0.168 0.166 0.00 0.63323 0.00
8 1 -5 o 5.017 4.960 180.00 0.63324 0.05
4 7 -5 o 0.028 0.028 0.00 0.63320 0.00
8 -1 5 o 7.638 7.543 0.00 0.63319 0.07
7 4 5 o 0.052 0.051 180.00 0.63320 0.00
8 1 5 o 1.673 1.652 180.00 0.63318 0.02
7 4 -5 o 1.336 1.319 180.00 0.63318 0.01
3 -8 -3 o 1.277 1.257 0.00 0.63307 0.01
3 -8 3 o 10.644 10.432 0.00 0.63294 0.10
8 -3 -3 o 6.880 6.744 180.00 0.63294 0.06
3 8 3 o 12.683 12.433 180.00 0.63294 0.12
8 -3 3 o 5.239 5.118 180.00 0.63285 0.05
3 8 -3 o 0.584 0.571 180.00 0.63286 0.01
8 3 -3 o 5.487 5.348 0.00 0.63280 0.05
8 3 3 o 1.321 1.287 0.00 0.63279 0.01
1 -4 -11 o 2.296 2.231 180.00 0.63577 0.02
1 4 11 o 0.672 0.653 0.00 0.63573 0.01
4 -1 -11 o 6.443 6.266 0.00 0.63570 0.06
4 1 -11 o 4.766 4.640 180.00 0.63563 0.05
4 1 11 o 0.407 0.397 180.00 0.63559 0.00
4 -1 11 o 0.043 0.042 0.00 0.63556 0.00
1 -4 11 o 1.014 0.989 180.00 0.63555 0.01
1 4 -11 o 3.929 3.829 0.00 0.63556 0.04
1 -6 -9 o 7.791 7.681 0.00 0.63483 0.07
1 6 9 o 0.732 0.722 180.00 0.63479 0.01
6 -1 -9 o 5.367 5.301 180.00 0.63471 0.05
6 1 -9 o 5.993 5.926 0.00 0.63464 0.06
1 -6 9 o 2.859 2.829 0.00 0.63457 0.03
1 6 -9 o 5.586 5.529 180.00 0.63456 0.05
6 1 9 o 4.099 4.057 0.00 0.63457 0.04
6 -1 9 o 0.736 0.728 180.00 0.63456 0.01
6 -6 -4 o 33.688 33.715 0.00 0.62323 0.30
6 -6 4 o 43.059 43.086 0.00 0.62308 0.38
6 6 4 o 22.805 22.815 0.00 0.62304 0.20
6 6 -4 o 21.138 21.140 0.00 0.62298 0.19
4 -8 0 o 35.483 35.455 0.00 0.62282 0.31
8 -4 0 o 31.979 31.917 0.00 0.62274 0.28
4 8 0 o 19.627 19.577 0.00 0.62269 0.17
8 4 0 o 21.903 21.815 0.00 0.62260 0.19
2 -2 -12 o 44.293 41.747 0.00 0.62616 0.40
2 2 12 o 53.870 50.868 0.00 0.62610 0.49
2 2 -12 o 41.334 39.094 0.00 0.62604 0.37
2 -2 12 o 57.690 54.611 0.00 0.62601 0.52
4 -5 -9 o 7.915 7.657 0.00 0.61897 0.07
5 -4 -9 o 0.401 0.388 0.00 0.61894 0.00
4 5 9 o 0.224 0.218 0.00 0.61882 0.00
5 4 9 o 10.521 10.221 0.00 0.61877 0.09
4 -5 9 o 0.087 0.084 0.00 0.61871 0.00
5 -4 9 o 0.270 0.262 180.00 0.61870 0.00
5 4 -9 o 0.096 0.093 0.00 0.61871 0.00
4 5 -9 o 2.555 2.486 180.00 0.61870 0.02
0 9 1 o 0.683 0.694 0.00 0.61707 0.01
0 9 -1 o 0.773 0.786 180.00 0.61703 0.01
9 0 -1 o 0.004 0.005 180.00 0.61692 0.00
9 0 1 o 1.431 1.458 0.00 0.61690 0.01
1 -7 -8 o 5.005 5.108 0.00 0.61669 0.04
5 -5 -8 o 0.025 0.025 0.00 0.61668 0.00
1 7 8 o 0.154 0.158 0.00 0.61664 0.00
7 -1 -8 o 0.475 0.485 0.00 0.61655 0.00
5 5 8 o 0.021 0.021 0.00 0.61650 0.00
7 1 -8 o 7.906 8.078 0.00 0.61649 0.07
1 -7 8 o 0.607 0.620 0.00 0.61644 0.01
5 -5 8 o 0.564 0.577 0.00 0.61644 0.00
1 7 -8 o 6.041 6.173 0.00 0.61643 0.05
7 -1 8 o 1.126 1.151 0.00 0.61641 0.01
7 1 8 o 4.151 4.241 0.00 0.61641 0.04
5 5 -8 o 0.792 0.809 180.00 0.61641 0.01
0 8 6 o 0.095 0.097 0.00 0.61603 0.00
0 8 -6 o 0.007 0.008 180.00 0.61584 0.00
8 0 -6 o 1.571 1.595 180.00 0.61587 0.01
8 0 6 o 0.030 0.031 0.00 0.61578 0.00
5 -7 -4 o 7.862 7.926 0.00 0.61560 0.07
7 -5 -4 o 5.042 5.073 0.00 0.61555 0.04
5 -7 4 o 6.001 6.016 0.00 0.61545 0.05
7 -5 4 o 5.034 5.040 0.00 0.61541 0.04
5 7 4 o 5.787 5.797 0.00 0.61542 0.05
5 7 -4 o 10.571 10.555 0.00 0.61534 0.09
7 5 4 o 8.720 8.711 0.00 0.61536 0.07
4 -8 -2 o 0.155 0.154 0.00 0.61531 0.00
7 5 -4 o 12.338 12.311 0.00 0.61533 0.10
4 -8 2 o 0.214 0.213 0.00 0.61523 0.00
8 -4 -2 o 0.343 0.341 180.00 0.61521 0.00
1 -9 0 o 0.418 0.415 0.00 0.61516 0.00
8 -4 2 o 0.009 0.009 180.00 0.61515 0.00
4 8 2 o 0.189 0.188 180.00 0.61517 0.00
1 9 0 o 0.186 0.184 0.00 0.61513 0.00
4 8 -2 o 0.359 0.355 180.00 0.61512 0.00
8 4 2 o 0.304 0.300 180.00 0.61506 0.00
8 4 -2 o 0.746 0.735 180.00 0.61506 0.01
9 -1 0 o 5.590 5.503 0.00 0.61502 0.05
9 1 0 o 0.126 0.124 180.00 0.61498 0.00
1 -3 -12 o 4.473 4.383 0.00 0.61841 0.04
1 3 12 o 0.285 0.280 0.00 0.61838 0.00
3 -1 -12 o 1.966 1.929 0.00 0.61837 0.02
3 1 -12 o 4.617 4.537 0.00 0.61831 0.04
3 1 12 o 1.011 0.994 0.00 0.61829 0.01
3 -1 12 o 2.640 2.599 0.00 0.61825 0.02
1 3 -12 o 5.004 4.925 0.00 0.61825 0.04
1 -3 12 o 1.327 1.306 0.00 0.61824 0.01
4 -4 -10 o 0.014 0.014 0.00 0.61747 0.00
4 4 10 o 0.850 0.857 0.00 0.61733 0.01
4 -4 10 o 1.700 1.719 0.00 0.61723 0.01
4 4 -10 o 0.280 0.283 180.00 0.61724 0.00
3 -5 -10 o 14.184 13.940 0.00 0.61004 0.12
5 -3 -10 o 7.694 7.569 0.00 0.60999 0.06
3 5 10 o 6.572 6.473 0.00 0.60993 0.05
5 3 10 o 8.900 8.777 0.00 0.60984 0.07
3 -5 10 o 6.068 5.989 0.00 0.60979 0.05
5 3 -10 o 16.716 16.494 0.00 0.60981 0.14
5 -3 10 o 7.072 6.981 0.00 0.60978 0.06
3 5 -10 o 17.198 16.976 0.00 0.60978 0.14
4 -6 -8 o 11.595 11.470 0.00 0.60928 0.09
6 -4 -8 o 17.270 17.079 0.00 0.60922 0.14
4 6 8 o 11.270 11.136 0.00 0.60913 0.09
4 -6 8 o 7.655 7.555 0.00 0.60903 0.06
6 4 8 o 10.984 10.843 0.00 0.60905 0.09
6 -4 8 o 6.984 6.891 0.00 0.60901 0.06
6 4 -8 o 21.260 20.975 0.00 0.60901 0.17
4 6 -8 o 18.550 18.298 0.00 0.60899 0.15
1 -9 -2 o 4.724 4.518 0.00 0.60792 0.04
1 9 2 o 6.862 6.554 0.00 0.60788 0.06
1 -9 2 o 6.815 6.501 0.00 0.60784 0.05
1 9 -2 o 4.125 3.930 0.00 0.60781 0.03
9 -1 -2 o 11.414 10.855 0.00 0.60776 0.09
9 -1 2 o 11.039 10.484 0.00 0.60772 0.09
9 1 -2 o 0.543 0.515 0.00 0.60772 0.00
9 1 2 o 0.744 0.706 0.00 0.60769 0.01
3 -4 -11 o 0.002 0.002 180.00 0.60505 0.00
0 5 11 o 0.103 0.098 0.00 0.60503 0.00
4 -3 -11 o 6.759 6.415 180.00 0.60502 0.05
3 4 11 o 6.666 6.340 180.00 0.60494 0.05
5 0 -11 o 0.413 0.393 0.00 0.60493 0.00
4 3 11 o 0.003 0.003 180.00 0.60490 0.00
4 3 -11 o 5.432 5.178 0.00 0.60485 0.04
5 0 11 o 0.150 0.143 0.00 0.60483 0.00
3 -4 11 o 2.075 1.980 0.00 0.60482 0.02
4 -3 11 o 0.000 0.000 180.00 0.60482 0.00
0 5 -11 o 0.436 0.416 180.00 0.60482 0.00
3 4 -11 o 0.170 0.162 180.00 0.60483 0.00
3 -6 -9 o 0.010 0.009 0.00 0.60424 0.00
6 -3 -9 o 9.546 9.247 0.00 0.60417 0.07
3 6 9 o 13.129 12.728 0.00 0.60413 0.10
3 -6 9 o 3.855 3.747 180.00 0.60399 0.03
6 3 9 o 0.048 0.046 180.00 0.60401 0.00
6 3 -9 o 3.459 3.362 180.00 0.60400 0.03
6 -3 9 o 2.349 2.284 0.00 0.60397 0.02
3 6 -9 o 0.746 0.725 0.00 0.60397 0.01
5 -6 -7 o 0.000 0.000 0.00 0.60356 0.00
6 -5 -7 o 6.538 6.393 180.00 0.60353 0.05
5 6 7 o 9.794 9.585 180.00 0.60339 0.08
5 -6 7 o 3.324 3.254 0.00 0.60334 0.03
6 -5 7 o 0.784 0.767 180.00 0.60332 0.01
6 5 7 o 0.095 0.093 0.00 0.60335 0.00
5 6 -7 o 0.018 0.018 0.00 0.60329 0.00
6 5 -7 o 3.421 3.349 0.00 0.60329 0.03
3 -8 -5 o 7.675 7.513 0.00 0.60306 0.06
8 -3 -5 o 4.916 4.809 180.00 0.60294 0.04
3 8 5 o 1.082 1.059 180.00 0.60294 0.01
3 -8 5 o 2.704 2.643 0.00 0.60288 0.02
0 6 10 o 5.016 4.899 180.00 0.60283 0.04
8 -3 5 o 3.875 3.786 180.00 0.60281 0.03
3 8 -5 o 7.284 7.117 180.00 0.60282 0.06
8 3 -5 o 1.621 1.583 0.00 0.60279 0.01
8 3 5 o 5.182 5.061 0.00 0.60278 0.04
6 0 -10 o 1.485 1.449 180.00 0.60271 0.01
0 9 3 o 0.688 0.671 180.00 0.60266 0.01
0 6 -10 o 4.934 4.804 180.00 0.60260 0.04
6 0 10 o 9.589 9.336 180.00 0.60260 0.07
0 9 -3 o 0.436 0.425 0.00 0.60256 0.00
2 -9 -1 o 0.914 0.888 0.00 0.60249 0.01
6 -7 -1 o 5.391 5.241 0.00 0.60248 0.04
9 0 -3 o 0.709 0.690 0.00 0.60250 0.01
7 -6 -1 o 0.091 0.088 0.00 0.60246 0.00
2 -9 1 o 0.282 0.274 180.00 0.60245 0.00
6 -7 1 o 1.295 1.258 0.00 0.60244 0.01
7 -6 1 o 0.315 0.305 180.00 0.60242 0.00
9 0 3 o 0.011 0.011 0.00 0.60245 0.00
2 9 1 o 1.843 1.789 0.00 0.60242 0.01
2 9 -1 o 0.113 0.109 180.00 0.60239 0.00
9 -2 -1 o 0.114 0.111 180.00 0.60235 0.00
9 -2 1 o 0.041 0.039 0.00 0.60233 0.00
0 1 13 o 4.726 4.398 0.00 0.60595 0.04
1 0 -13 o 0.652 0.607 0.00 0.60594 0.01
6 7 1 o 0.329 0.319 0.00 0.60232 0.00
1 0 13 o 0.349 0.325 0.00 0.60591 0.00
6 7 -1 o 1.004 0.972 180.00 0.60230 0.01
0 1 -13 o 1.519 1.414 180.00 0.60590 0.01
7 6 1 o 6.365 6.160 0.00 0.60229 0.05
9 2 -1 o 0.697 0.675 180.00 0.60228 0.01
7 6 -1 o 0.000 0.000 0.00 0.60228 0.00
9 2 1 o 0.362 0.351 0.00 0.60227 0.00
2 -8 -6 o 3.313 3.127 180.00 0.60153 0.03
2 8 6 o 1.300 1.224 180.00 0.60145 0.01
8 -2 -6 o 0.988 0.928 180.00 0.60139 0.01
2 -8 6 o 4.199 3.935 180.00 0.60133 0.03
2 8 -6 o 1.128 1.056 180.00 0.60129 0.01
8 2 -6 o 0.558 0.522 180.00 0.60129 0.00
8 -2 6 o 5.996 5.606 180.00 0.60126 0.05
8 2 6 o 2.910 2.720 180.00 0.60125 0.02
0 4 12 o 40.913 39.656 0.00 0.59675 0.31
4 0 -12 o 30.081 29.205 0.00 0.59667 0.22
4 0 12 o 51.308 49.900 0.00 0.59659 0.38
0 4 -12 o 40.291 39.204 0.00 0.59657 0.30
4 -8 -4 o 30.301 30.320 0.00 0.59422 0.22
8 -4 -4 o 24.121 24.117 0.00 0.59413 0.18
4 -8 4 o 34.216 34.195 0.00 0.59408 0.25
4 8 4 o 18.015 18.005 0.00 0.59408 0.13
8 -4 4 o 34.512 34.466 0.00 0.59402 0.25
4 8 -4 o 17.890 17.861 0.00 0.59399 0.13
8 4 4 o 21.560 21.518 0.00 0.59396 0.16
8 4 -4 o 18.396 18.358 0.00 0.59396 0.14
1 -2 -13 o 0.876 0.864 0.00 0.59214 0.01
2 -1 -13 o 2.431 2.400 180.00 0.59212 0.02
1 2 13 o 0.030 0.030 0.00 0.59211 0.00
2 1 13 o 0.005 0.005 180.00 0.59207 0.00
2 1 -13 o 5.553 5.488 0.00 0.59207 0.04
1 2 -13 o 0.377 0.373 180.00 0.59204 0.00
2 -1 13 o 1.600 1.582 0.00 0.59203 0.01
1 -2 13 o 1.021 1.010 0.00 0.59202 0.01
2 -5 -11 o 3.452 3.486 180.00 0.59127 0.02
5 -2 -11 o 0.068 0.068 180.00 0.59121 0.00
2 5 11 o 0.433 0.438 180.00 0.59120 0.00
5 2 -11 o 0.001 0.001 0.00 0.59109 0.00
5 2 11 o 3.876 3.937 180.00 0.59108 0.03
2 -5 11 o 1.056 1.074 0.00 0.59104 0.01
5 -2 11 o 0.013 0.013 180.00 0.59104 0.00
2 5 -11 o 3.404 3.462 0.00 0.59104 0.02
0 7 9 o 0.447 0.461 0.00 0.59048 0.00
7 0 -9 o 0.041 0.042 180.00 0.59034 0.00
0 7 -9 o 0.184 0.190 0.00 0.59025 0.00
7 0 9 o 0.005 0.005 180.00 0.59024 0.00
3 -3 -12 o 0.368 0.380 0.00 0.59003 0.00
3 3 12 o 2.125 2.194 0.00 0.58994 0.02
4 -7 -7 o 3.085 3.187 180.00 0.58989 0.02
1 -8 -7 o 7.660 7.911 180.00 0.58987 0.05
3 3 -12 o 0.007 0.008 0.00 0.58986 0.00
3 -3 12 o 1.502 1.549 0.00 0.58984 0.01
1 8 7 o 1.978 2.042 0.00 0.58983 0.01
7 -4 -7 o 0.061 0.063 180.00 0.58981 0.00
4 7 7 o 0.030 0.031 180.00 0.58974 0.00
8 -1 -7 o 6.266 6.459 0.00 0.58972 0.04
4 -7 7 o 0.123 0.126 0.00 0.58966 0.00
1 -8 7 o 1.601 1.649 180.00 0.58966 0.01
8 1 -7 o 2.389 2.460 180.00 0.58967 0.02
1 8 -7 o 9.681 9.966 0.00 0.58964 0.07
7 -4 7 o 0.101 0.104 0.00 0.58963 0.00
7 4 7 o 5.512 5.674 180.00 0.58964 0.04
4 7 -7 o 2.104 2.165 0.00 0.58961 0.02
8 -1 7 o 3.412 3.510 0.00 0.58961 0.02
7 4 -7 o 0.474 0.487 0.00 0.58961 0.00
8 1 7 o 3.918 4.031 180.00 0.58960 0.03
2 -6 -10 o 0.389 0.396 0.00 0.58922 0.00
2 6 10 o 0.512 0.520 0.00 0.58915 0.00
6 -2 -10 o 0.558 0.566 180.00 0.58913 0.00
2 -9 -3 o 0.510 0.516 180.00 0.58906 0.00
6 -7 -3 o 1.563 1.582 0.00 0.58905 0.01
7 -6 -3 o 0.143 0.145 180.00 0.58903 0.00
6 2 -10 o 0.909 0.918 180.00 0.58902 0.01
2 -6 10 o 0.475 0.479 0.00 0.58897 0.00
6 2 10 o 0.801 0.808 0.00 0.58899 0.01
2 6 -10 o 0.049 0.050 180.00 0.58896 0.00
6 -2 10 o 1.521 1.533 0.00 0.58896 0.01
2 9 3 o 0.135 0.137 180.00 0.58899 0.00
2 -9 3 o 1.058 1.067 0.00 0.58895 0.01
6 -7 3 o 3.502 3.530 0.00 0.58894 0.02
7 -6 3 o 0.001 0.001 180.00 0.58893 0.00
9 -2 -3 o 0.041 0.041 0.00 0.58892 0.00
2 9 -3 o 1.607 1.617 0.00 0.58890 0.01
5 -8 -1 o 0.096 0.097 180.00 0.58888 0.00
5 -8 1 o 3.491 3.504 180.00 0.58884 0.02
6 7 3 o 1.032 1.037 180.00 0.58888 0.01
9 -2 3 o 0.281 0.282 180.00 0.58885 0.00
7 6 3 o 0.143 0.143 0.00 0.58885 0.00
8 -5 -1 o 7.714 7.732 0.00 0.58881 0.05
9 2 -3 o 0.733 0.736 0.00 0.58883 0.01
6 7 -3 o 0.263 0.264 0.00 0.58883 0.00
7 6 -3 o 3.611 3.619 0.00 0.58882 0.03
9 2 3 o 1.553 1.556 180.00 0.58881 0.01
8 -5 1 o 4.819 4.824 0.00 0.58878 0.03
5 8 1 o 9.804 9.790 0.00 0.58873 0.07
5 8 -1 o 0.346 0.345 0.00 0.58871 0.00
8 5 1 o 0.002 0.002 0.00 0.58866 0.00
8 5 -1 o 1.619 1.611 180.00 0.58866 0.01
3 -7 -8 o 0.207 0.205 180.00 0.58853 0.00
7 -3 -8 o 1.698 1.671 0.00 0.58844 0.01
3 7 8 o 0.466 0.458 0.00 0.58842 0.00
3 -7 8 o 1.074 1.049 0.00 0.58829 0.01
7 -3 8 o 1.263 1.233 0.00 0.58826 0.01
7 3 -8 o 0.430 0.420 180.00 0.58828 0.00
3 7 -8 o 0.499 0.487 180.00 0.58826 0.00
7 3 8 o 0.009 0.008 180.00 0.58828 0.00
6 -6 -6 o 0.008 0.007 180.00 0.58796 0.00
6 -6 6 o 0.636 0.605 0.00 0.58777 0.00
6 6 6 o 0.010 0.010 180.00 0.58777 0.00
6 6 -6 o 0.599 0.568 180.00 0.58770 0.00
1 -9 -4 o 0.013 0.012 0.00 0.58756 0.00
1 9 4 o 0.793 0.746 0.00 0.58752 0.01
1 -9 4 o 1.506 1.409 0.00 0.58742 0.01
1 9 -4 o 0.002 0.002 0.00 0.58740 0.00
9 -1 -4 o 5.836 5.455 0.00 0.58740 0.04
9 1 -4 o 0.102 0.095 180.00 0.58736 0.00
9 -1 4 o 4.883 4.551 0.00 0.58733 0.03
9 1 4 o 0.054 0.051 180.00 0.58731 0.00
3 -9 0 o 4.862 4.505 0.00 0.58720 0.03
3 9 0 o 4.780 4.413 0.00 0.58711 0.03
9 -3 0 o 1.557 1.437 0.00 0.58709 0.01
9 3 0 o 11.244 10.341 0.00 0.58700 0.08
2 -4 -12 o 9.385 8.912 0.00 0.58353 0.06
4 -2 -12 o 14.738 14.013 0.00 0.58349 0.10
2 4 12 o 6.433 6.121 0.00 0.58347 0.04
4 2 12 o 5.466 5.214 0.00 0.58339 0.04
4 2 -12 o 17.356 16.561 0.00 0.58338 0.12
2 4 -12 o 13.833 13.217 0.00 0.58334 0.09
2 -4 12 o 6.897 6.592 0.00 0.58333 0.05
4 -2 12 o 4.712 4.504 0.00 0.58333 0.03
5 -7 -6 o 15.751 16.018 0.00 0.58153 0.11
7 -5 -6 o 9.539 9.713 0.00 0.58149 0.06
5 -7 6 o 10.368 10.597 0.00 0.58134 0.07
5 7 6 o 15.304 15.630 0.00 0.58137 0.10
7 -5 6 o 8.819 9.019 0.00 0.58132 0.06
7 5 6 o 18.040 18.455 0.00 0.58130 0.12
5 7 -6 o 21.733 22.250 0.00 0.58127 0.15
7 5 -6 o 21.671 22.189 0.00 0.58127 0.15
3 -9 -2 o 14.229 14.686 0.00 0.58089 0.10
3 -9 2 o 10.987 11.359 0.00 0.58082 0.07
3 9 2 o 14.013 14.497 0.00 0.58080 0.09
9 -3 -2 o 3.933 4.071 0.00 0.58077 0.03
3 9 -2 o 16.665 17.263 0.00 0.58074 0.11
9 -3 2 o 4.217 4.370 0.00 0.58073 0.03
9 3 -2 o 19.412 20.151 0.00 0.58066 0.13
9 3 2 o 19.240 19.976 0.00 0.58066 0.13
0 3 13 o 0.207 0.239 180.00 0.57920 0.00
3 0 -13 o 0.007 0.008 180.00 0.57915 0.00
3 0 13 o 0.095 0.111 0.00 0.57909 0.00
0 3 -13 o 2.159 2.531 0.00 0.57907 0.01
2 -7 -9 o 2.278 3.099 0.00 0.57767 0.02
2 7 9 o 0.530 0.725 0.00 0.57760 0.00
7 -2 -9 o 0.173 0.238 0.00 0.57757 0.00
2 -7 9 o 0.298 0.414 180.00 0.57743 0.00
7 2 -9 o 0.011 0.015 180.00 0.57746 0.00
2 7 -9 o 0.897 1.245 180.00 0.57742 0.01
7 -2 9 o 0.599 0.832 0.00 0.57741 0.00
7 2 9 o 4.035 5.595 0.00 0.57742 0.03
0 9 5 o 0.539 0.791 0.00 0.57660 0.00
0 9 -5 o 0.492 0.731 180.00 0.57645 0.00
9 0 -5 o 0.024 0.036 180.00 0.57644 0.00
9 0 5 o 1.418 2.126 0.00 0.57637 0.01
5 -8 -3 o 1.663 2.508 180.00 0.57632 0.01
8 -5 -3 o 3.151 4.787 0.00 0.57625 0.02
5 -8 3 o 0.286 0.437 180.00 0.57621 0.00
8 -5 3 o 3.913 6.013 0.00 0.57616 0.03
5 8 3 o 0.490 0.752 0.00 0.57617 0.00
5 8 -3 o 4.402 6.821 0.00 0.57611 0.03
8 5 3 o 1.086 1.688 180.00 0.57609 0.01
8 5 -3 o 0.000 0.000 0.00 0.57607 0.00
0 8 8 o 19.614 23.966 0.00 0.56974 0.12
8 0 -8 o 13.861 16.673 0.00 0.56959 0.09
0 8 -8 o 19.945 23.839 0.00 0.56953 0.12
8 0 8 o 26.270 31.288 0.00 0.56950 0.16
4 -9 -1 o 1.745 1.741 0.00 0.56420 0.01
9 -4 -1 o 0.183 0.182 0.00 0.56411 0.00
9 -4 1 o 0.208 0.207 0.00 0.56408 0.00
4 9 1 o 0.733 0.727 0.00 0.56409 0.00
4 9 -1 o 0.475 0.471 180.00 0.56406 0.00
9 4 -1 o 0.301 0.298 180.00 0.56399 0.00
9 4 1 o 2.417 2.387 0.00 0.56399 0.01
2 -3 -13 o 5.843 6.108 0.00 0.56709 0.04
3 -2 -13 o 0.441 0.461 0.00 0.56707 0.00
2 3 13 o 1.500 1.568 0.00 0.56704 0.01
3 2 13 o 3.468 3.626 0.00 0.56700 0.02
3 2 -13 o 0.527 0.551 0.00 0.56697 0.00
2 3 -13 o 2.447 2.559 180.00 0.56695 0.01
3 -2 13 o 0.002 0.002 0.00 0.56693 0.00
2 -3 13 o 0.329 0.344 180.00 0.56693 0.00
1 -6 -11 o 0.338 0.355 0.00 0.56631 0.00
1 6 11 o 6.043 6.352 180.00 0.56628 0.04
6 -1 -11 o 4.807 5.054 180.00 0.56621 0.03
6 1 -11 o 4.995 5.253 0.00 0.56616 0.03
1 -6 11 o 5.234 5.506 0.00 0.56608 0.03
6 1 11 o 0.473 0.498 0.00 0.56610 0.00
1 6 -11 o 0.640 0.673 180.00 0.56608 0.00
6 -1 11 o 1.140 1.200 180.00 0.56608 0.01
0 0 14 o 0.821 0.864 0.00 0.56600 0.00
7 -7 0 o 0.012 0.011 180.00 0.56270 0.00
7 7 0 o 1.690 1.607 180.00 0.56255 0.01
1 -5 -12 o 0.002 0.002 180.00 0.56523 0.00
1 5 12 o 3.383 3.522 0.00 0.56520 0.02
5 -1 -12 o 2.728 2.837 0.00 0.56516 0.02
3 -8 -7 o 0.382 0.397 0.00 0.56509 0.00
5 1 -12 o 0.094 0.098 0.00 0.56510 0.00
5 1 12 o 1.385 1.435 0.00 0.56505 0.01
1 -5 12 o 3.288 3.404 0.00 0.56502 0.02
5 -1 12 o 1.192 1.235 0.00 0.56503 0.01
1 5 -12 o 0.026 0.027 0.00 0.56502 0.00
8 -3 -7 o 5.324 5.505 180.00 0.56499 0.03
3 8 7 o 10.071 10.415 180.00 0.56499 0.06
3 -8 7 o 7.897 8.133 0.00 0.56488 0.05
8 -3 7 o 3.145 3.233 180.00 0.56484 0.02
3 8 -7 o 0.158 0.162 180.00 0.56484 0.00
8 3 -7 o 3.534 3.634 0.00 0.56485 0.02
8 3 7 o 0.749 0.769 0.00 0.56483 0.00
2 -9 -5 o 0.607 0.619 0.00 0.56466 0.00
6 -7 -5 o 5.539 5.646 0.00 0.56465 0.03
7 -6 -5 o 0.374 0.381 0.00 0.56463 0.00
2 9 5 o 1.607 1.633 0.00 0.56459 0.01
2 -9 5 o 0.053 0.053 180.00 0.56450 0.00
6 -7 5 o 0.674 0.682 0.00 0.56449 0.00
9 -2 -5 o 0.014 0.015 180.00 0.56452 0.00
7 -6 5 o 0.361 0.365 180.00 0.56448 0.00
2 9 -5 o 0.047 0.047 180.00 0.56446 0.00
6 7 5 o 0.293 0.296 0.00 0.56448 0.00
7 6 5 o 7.422 7.494 0.00 0.56445 0.04
9 -2 5 o 0.027 0.027 0.00 0.56442 0.00
9 2 -5 o 0.107 0.108 180.00 0.56443 0.00
6 7 -5 o 0.673 0.678 180.00 0.56441 0.00
7 6 -5 o 0.121 0.122 180.00 0.56440 0.00
9 2 5 o 0.077 0.077 0.00 0.56440 0.00
4 -9 1 o 0.016 0.015 180.00 0.56417 0.00
4 -8 -6 o 0.134 0.130 0.00 0.56342 0.00
8 -4 -6 o 0.803 0.775 180.00 0.56333 0.00
4 8 6 o 0.030 0.029 180.00 0.56329 0.00
4 -8 6 o 0.288 0.278 0.00 0.56323 0.00
8 -4 6 o 0.179 0.172 0.00 0.56319 0.00
4 8 -6 o 0.398 0.382 180.00 0.56317 0.00
8 4 6 o 0.025 0.024 180.00 0.56317 0.00
8 4 -6 o 1.004 0.965 180.00 0.56316 0.01
3 -9 -4 o 5.776 5.538 0.00 0.56306 0.03
3 9 4 o 2.438 2.333 0.00 0.56296 0.01
3 -9 4 o 3.044 2.911 0.00 0.56293 0.02
9 -3 -4 o 1.288 1.232 0.00 0.56294 0.01
3 9 -4 o 6.413 6.127 0.00 0.56286 0.04
9 -3 4 o 1.600 1.529 0.00 0.56285 0.01
9 3 -4 o 10.459 9.987 0.00 0.56282 0.06
9 3 4 o 8.920 8.515 0.00 0.56280 0.05
6 -8 0 o 9.912 10.101 0.00 0.55706 0.06
0 10 0 o 14.207 14.471 0.00 0.55704 0.08
8 -6 0 o 12.911 13.146 0.00 0.55702 0.07
1 -1 -14 o 4.000 3.828 0.00 0.56028 0.02
1 1 14 o 7.623 7.301 0.00 0.56026 0.04
1 1 -14 o 3.892 3.730 0.00 0.56024 0.02
1 -1 14 o 4.748 4.553 0.00 0.56022 0.03
6 8 0 o 16.373 16.625 0.00 0.55692 0.09
10 0 0 o 20.320 20.625 0.00 0.55691 0.12
8 6 0 o 16.569 16.809 0.00 0.55688 0.09
1 -7 -10 o 14.216 14.368 0.00 0.55879 0.08
5 -5 -10 o 1.623 1.641 0.00 0.55879 0.01
1 7 10 o 3.484 3.526 0.00 0.55876 0.02
7 -1 -10 o 2.244 2.277 0.00 0.55868 0.01
5 5 10 o 3.989 4.051 0.00 0.55864 0.02
7 1 -10 o 12.041 12.234 0.00 0.55863 0.07
1 -7 10 o 2.802 2.852 0.00 0.55856 0.02
5 -5 10 o 2.732 2.781 0.00 0.55856 0.02
1 7 -10 o 12.759 12.988 0.00 0.55856 0.07
7 1 10 o 8.339 8.488 0.00 0.55856 0.05
7 -1 10 o 4.312 4.390 0.00 0.55855 0.02
5 5 -10 o 0.111 0.113 0.00 0.55856 0.00
2 -8 -8 o 8.998 9.230 0.00 0.55821 0.05
2 8 8 o 10.632 10.915 0.00 0.55814 0.06
8 -2 -8 o 21.594 22.181 0.00 0.55809 0.12
2 -8 8 o 10.183 10.468 0.00 0.55799 0.06
8 2 -8 o 21.664 22.270 0.00 0.55799 0.12
2 8 -8 o 15.030 15.452 0.00 0.55797 0.09
8 -2 8 o 8.434 8.672 0.00 0.55795 0.05
8 2 8 o 10.432 10.726 0.00 0.55795 0.06
1 -9 -6 o 2.704 2.780 0.00 0.55772 0.02
1 9 6 o 8.486 8.724 0.00 0.55769 0.05
1 -9 6 o 7.591 7.795 0.00 0.55755 0.04
9 -1 -6 o 9.417 9.672 0.00 0.55758 0.05
1 9 -6 o 1.962 2.015 0.00 0.55753 0.01
9 1 -6 o 0.507 0.520 0.00 0.55753 0.00
9 -1 6 o 8.422 8.640 0.00 0.55748 0.05
9 1 6 o 1.101 1.129 0.00 0.55748 0.01
7 -7 -2 o 0.822 0.839 0.00 0.55714 0.00
7 -7 2 o 0.908 0.925 0.00 0.55708 0.01
7 7 2 o 0.409 0.415 0.00 0.55698 0.00
7 7 -2 o 0.152 0.154 0.00 0.55696 0.00
1 -10 -1 o 11.793 11.920 0.00 0.55295 0.07
1 -10 1 o 2.160 2.181 0.00 0.55292 0.01
1 10 1 o 0.946 0.955 180.00 0.55292 0.01
1 10 -1 o 9.418 9.504 180.00 0.55289 0.05
10 -1 -1 o 4.044 4.072 180.00 0.55282 0.02
10 -1 1 o 2.743 2.761 180.00 0.55280 0.02
10 1 -1 o 2.198 2.210 0.00 0.55278 0.01
10 1 1 o 4.982 5.009 0.00 0.55277 0.03
1 -4 -13 o 0.043 0.043 0.00 0.55570 0.00
1 4 13 o 4.543 4.524 0.00 0.55567 0.03
4 -1 -13 o 6.988 6.959 0.00 0.55565 0.04
4 1 -13 o 3.337 3.323 180.00 0.55560 0.02
4 1 13 o 0.282 0.281 0.00 0.55557 0.00
4 -1 13 o 0.228 0.227 0.00 0.55554 0.00
1 4 -13 o 1.168 1.164 0.00 0.55553 0.01
1 -4 13 o 1.292 1.287 180.00 0.55553 0.01
4 -5 -11 o 2.162 2.164 0.00 0.55496 0.01
5 -4 -11 o 0.026 0.026 180.00 0.55494 0.00
6 -8 -2 o 2.664 2.558 180.00 0.55167 0.01
0 10 2 o 0.222 0.213 180.00 0.55164 0.00
8 -6 -2 o 1.806 1.732 180.00 0.55163 0.01
6 -8 2 o 3.586 3.436 180.00 0.55160 0.02
0 10 -2 o 0.226 0.216 180.00 0.55158 0.00
8 -6 2 o 3.113 2.979 180.00 0.55157 0.02
4 5 11 o 0.736 0.738 180.00 0.55484 0.00
5 4 11 o 1.075 1.078 0.00 0.55481 0.01
4 -5 11 o 0.125 0.125 0.00 0.55473 0.00
6 8 2 o 0.008 0.008 180.00 0.55152 0.00
5 -4 11 o 0.260 0.261 180.00 0.55473 0.00
5 4 -11 o 1.422 1.428 0.00 0.55475 0.01
4 5 -11 o 0.428 0.430 180.00 0.55474 0.00
10 0 -2 o 0.132 0.126 180.00 0.55150 0.00
6 8 -2 o 0.018 0.017 180.00 0.55148 0.00
10 0 2 o 0.508 0.484 180.00 0.55147 0.00
0 2 14 o 6.245 6.274 180.00 0.55471 0.04
8 6 2 o 0.099 0.094 180.00 0.55147 0.00
8 6 -2 o 0.083 0.079 180.00 0.55146 0.00
2 0 -14 o 3.999 4.020 180.00 0.55468 0.02
2 0 14 o 8.629 8.679 180.00 0.55464 0.05
0 2 -14 o 6.061 6.098 180.00 0.55463 0.03
5 -6 -9 o 1.073 1.085 0.00 0.55432 0.01
6 -5 -9 o 2.036 2.059 180.00 0.55430 0.01
5 6 9 o 0.579 0.587 180.00 0.55417 0.00
6 5 9 o 2.550 2.585 0.00 0.55414 0.01
5 -6 9 o 1.338 1.357 0.00 0.55410 0.01
6 -5 9 o 0.707 0.717 180.00 0.55409 0.00
6 5 -9 o 0.542 0.550 0.00 0.55408 0.00
5 6 -9 o 1.530 1.552 180.00 0.55407 0.01
5 -8 -5 o 0.013 0.014 0.00 0.55341 0.00
8 -5 -5 o 7.294 7.419 0.00 0.55334 0.04
5 -8 5 o 3.438 3.494 180.00 0.55325 0.02
4 -6 -10 o 2.478 2.517 180.00 0.55326 0.01
5 8 5 o 10.266 10.432 0.00 0.55326 0.06
8 -5 5 o 3.560 3.616 0.00 0.55321 0.02
6 -4 -10 o 1.219 1.237 180.00 0.55322 0.01
5 8 -5 o 0.050 0.051 0.00 0.55317 0.00
8 5 5 o 0.008 0.008 0.00 0.55318 0.00
4 -9 -3 o 0.000 0.000 0.00 0.55313 0.00
8 5 -5 o 1.101 1.117 180.00 0.55315 0.01
4 6 10 o 1.710 1.734 180.00 0.55314 0.01
6 4 10 o 2.468 2.499 180.00 0.55307 0.01
4 -9 3 o 1.037 1.050 0.00 0.55303 0.01
4 -6 10 o 6.702 6.781 180.00 0.55303 0.04
6 -4 10 o 8.168 8.262 180.00 0.55302 0.05
9 -4 -3 o 0.159 0.161 0.00 0.55303 0.00
6 4 -10 o 0.415 0.420 180.00 0.55303 0.00
4 6 -10 o 0.674 0.682 180.00 0.55302 0.00
4 9 3 o 0.570 0.577 180.00 0.55301 0.00
9 -4 3 o 0.087 0.087 0.00 0.55296 0.00
4 9 -3 o 0.703 0.710 0.00 0.55295 0.00
9 4 -3 o 1.038 1.047 0.00 0.55289 0.01
9 4 3 o 0.032 0.032 180.00 0.55289 0.00
2 -10 0 o 17.958 18.577 0.00 0.54624 0.10
2 10 0 o 11.813 12.210 0.00 0.54619 0.06
10 -2 0 o 16.251 16.778 0.00 0.54612 0.09
10 2 0 o 14.140 14.585 0.00 0.54607 0.07
4 -4 -12 o 24.528 24.911 0.00 0.54854 0.13
4 4 12 o 29.775 30.338 0.00 0.54844 0.16
4 4 -12 o 19.891 20.312 0.00 0.54836 0.11
4 -4 12 o 40.189 41.060 0.00 0.54834 0.22
6 -6 -8 o 21.442 22.329 0.00 0.54731 0.11
6 6 8 o 17.321 18.051 0.00 0.54715 0.09
6 -6 8 o 34.244 35.689 0.00 0.54711 0.18
6 6 -8 o 14.828 15.454 0.00 0.54707 0.08
1 -10 -3 o 1.624 1.716 0.00 0.54252 0.01
1 10 3 o 9.193 9.707 180.00 0.54249 0.05
1 -10 3 o 10.583 11.160 0.00 0.54243 0.05
1 10 -3 o 0.740 0.780 180.00 0.54241 0.00
10 -1 -3 o 2.491 2.623 180.00 0.54237 0.01
10 1 -3 o 3.926 4.131 0.00 0.54234 0.02
10 -1 3 o 4.032 4.241 180.00 0.54233 0.02
10 1 3 o 1.951 2.051 0.00 0.54231 0.01
7 -7 -4 o 0.023 0.023 180.00 0.54135 0.00
7 -7 4 o 0.004 0.004 0.00 0.54123 0.00
2 -10 -2 o 0.003 0.003 0.00 0.54116 0.00
7 7 4 o 1.031 1.026 180.00 0.54118 0.01
7 7 -4 o 1.534 1.522 180.00 0.54114 0.01
2 -10 2 o 0.002 0.002 180.00 0.54110 0.00
2 10 2 o 0.212 0.210 180.00 0.54110 0.00
5 -9 0 o 0.143 0.141 180.00 0.54107 0.00
2 10 -2 o 0.336 0.332 180.00 0.54105 0.00
3 -6 -11 o 1.290 1.344 180.00 0.54428 0.01
10 -2 -2 o 1.405 1.384 180.00 0.54103 0.01
9 -5 0 o 0.618 0.608 0.00 0.54101 0.00
10 -2 2 o 0.553 0.544 180.00 0.54099 0.00
6 -3 -11 o 4.268 4.452 0.00 0.54422 0.02
10 2 -2 o 1.165 1.144 180.00 0.54096 0.01
5 9 0 o 0.863 0.847 180.00 0.54095 0.00
10 2 2 o 0.581 0.570 180.00 0.54095 0.00
3 6 11 o 1.340 1.398 0.00 0.54418 0.01
9 5 0 o 1.382 1.351 180.00 0.54089 0.01
6 3 11 o 1.415 1.480 180.00 0.54408 0.01
3 -6 11 o 1.057 1.107 180.00 0.54405 0.01
6 3 -11 o 1.131 1.184 180.00 0.54407 0.01
6 -3 11 o 0.865 0.906 0.00 0.54404 0.00
3 6 -11 o 3.330 3.488 0.00 0.54404 0.02
2 -2 -14 o 0.198 0.207 0.00 0.54404 0.00
2 2 14 o 1.583 1.660 0.00 0.54400 0.01
2 2 -14 o 0.013 0.013 0.00 0.54395 0.00
2 -2 14 o 1.372 1.441 0.00 0.54393 0.01
4 -7 -9 o 0.179 0.189 180.00 0.54367 0.00
1 -8 -9 o 0.253 0.268 180.00 0.54366 0.00
1 8 9 o 10.080 10.650 0.00 0.54363 0.05
7 -4 -9 o 0.047 0.049 0.00 0.54361 0.00
4 7 9 o 1.620 1.714 0.00 0.54355 0.01
8 -1 -9 o 4.940 5.226 0.00 0.54353 0.03
8 1 -9 o 2.642 2.797 180.00 0.54349 0.01
4 -7 9 o 0.043 0.046 180.00 0.54345 0.00
1 -8 9 o 5.662 5.997 180.00 0.54344 0.03
1 8 -9 o 1.348 1.428 0.00 0.54343 0.01
7 -4 9 o 0.237 0.251 0.00 0.54343 0.00
7 4 9 o 0.145 0.154 180.00 0.54346 0.00
7 4 -9 o 0.235 0.249 180.00 0.54343 0.00
4 7 -9 o 0.067 0.071 0.00 0.54342 0.00
8 -1 9 o 4.278 4.533 0.00 0.54342 0.02
8 1 9 o 0.649 0.687 180.00 0.54342 0.00
3 -5 -12 o 4.849 5.140 0.00 0.54332 0.03
5 -3 -12 o 2.397 2.542 0.00 0.54328 0.01
3 5 12 o 0.412 0.436 0.00 0.54323 0.00
5 3 12 o 1.388 1.472 0.00 0.54316 0.01
0 9 7 o 0.428 0.455 180.00 0.54315 0.00
5 3 -12 o 7.396 7.847 0.00 0.54314 0.04
3 -5 12 o 1.669 1.771 0.00 0.54310 0.01
5 -3 12 o 2.468 2.618 0.00 0.54310 0.01
3 5 -12 o 7.472 7.928 0.00 0.54311 0.04
9 0 -7 o 0.194 0.206 0.00 0.54300 0.00
0 9 -7 o 0.161 0.171 0.00 0.54297 0.00
9 0 7 o 0.064 0.068 0.00 0.54292 0.00
5 -7 -8 o 6.349 6.629 0.00 0.54212 0.03
7 -5 -8 o 3.704 3.861 0.00 0.54208 0.02
5 7 8 o 2.774 2.880 0.00 0.54197 0.01
5 -7 8 o 3.835 3.971 0.00 0.54191 0.02
7 -5 8 o 3.818 3.950 0.00 0.54189 0.02
7 5 8 o 4.902 5.076 0.00 0.54191 0.03
5 7 -8 o 9.328 9.640 0.00 0.54187 0.05
7 5 -8 o 9.880 10.212 0.00 0.54187 0.05
6 -8 -4 o 10.270 10.445 0.00 0.53632 0.05
0 10 4 o 12.243 12.447 0.00 0.53630 0.06
8 -6 -4 o 14.517 14.755 0.00 0.53628 0.07
6 -8 4 o 8.357 8.482 0.00 0.53620 0.04
0 10 -4 o 14.150 14.358 0.00 0.53619 0.07
8 -6 4 o 9.737 9.877 0.00 0.53618 0.05
6 8 4 o 14.437 14.642 0.00 0.53617 0.07
5 -9 -2 o 0.684 0.693 0.00 0.53613 0.00
10 0 -4 o 22.189 22.496 0.00 0.53615 0.11
6 8 -4 o 15.962 16.168 0.00 0.53611 0.08
8 6 4 o 14.232 14.419 0.00 0.53612 0.07
10 0 4 o 15.551 15.748 0.00 0.53610 0.08
5 -9 2 o 1.064 1.077 0.00 0.53607 0.01
8 6 -4 o 16.587 16.793 0.00 0.53609 0.08
9 -5 -2 o 2.708 2.740 0.00 0.53606 0.01
9 -5 2 o 2.515 2.542 0.00 0.53601 0.01
5 9 2 o 1.354 1.368 0.00 0.53600 0.01
5 9 -2 o 0.667 0.673 0.00 0.53596 0.00
9 5 2 o 0.173 0.174 0.00 0.53592 0.00
9 5 -2 o 0.094 0.094 0.00 0.53591 0.00
1 -3 -14 o 9.559 9.163 0.00 0.53894 0.05
1 3 14 o 2.649 2.541 0.00 0.53891 0.01
3 -1 -14 o 4.826 4.630 0.00 0.53891 0.02
3 1 -14 o 7.914 7.599 0.00 0.53886 0.04
3 1 14 o 3.651 3.507 0.00 0.53885 0.02
3 -1 14 o 6.084 5.848 0.00 0.53882 0.03
1 3 -14 o 8.535 8.204 0.00 0.53882 0.04
1 -3 14 o 3.570 3.432 0.00 0.53881 0.02
0 6 12 o 7.067 6.903 0.00 0.53821 0.04
6 0 -12 o 19.072 18.683 0.00 0.53811 0.10
0 6 -12 o 10.524 10.341 0.00 0.53801 0.05
6 0 12 o 4.976 4.888 0.00 0.53802 0.02
3 -7 -10 o 0.891 0.887 0.00 0.53760 0.00
7 -3 -10 o 4.486 4.481 0.00 0.53752 0.02
3 7 10 o 6.888 6.883 0.00 0.53750 0.03
3 -7 10 o 4.469 4.485 0.00 0.53737 0.02
7 3 -10 o 0.218 0.219 0.00 0.53738 0.00
7 3 10 o 2.283 2.291 0.00 0.53738 0.01
7 -3 10 o 3.468 3.482 0.00 0.53735 0.02
3 7 -10 o 0.310 0.311 0.00 0.53735 0.00
3 -9 -6 o 15.230 15.512 0.00 0.53664 0.08
3 9 6 o 9.971 10.156 0.00 0.53655 0.05
9 -3 -6 o 3.450 3.514 0.00 0.53653 0.02
3 -9 6 o 7.238 7.371 0.00 0.53647 0.04
3 9 -6 o 16.584 16.882 0.00 0.53642 0.08
9 -3 6 o 4.283 4.360 0.00 0.53641 0.02
9 3 -6 o 16.511 16.806 0.00 0.53641 0.08
9 3 6 o 16.015 16.299 0.00 0.53639 0.08
4 -9 -5 o 2.232 2.033 0.00 0.53278 0.01
9 -4 -5 o 0.319 0.288 0.00 0.53269 0.00
4 -9 5 o 0.072 0.065 180.00 0.53264 0.00
4 9 5 o 0.622 0.560 0.00 0.53267 0.00
9 -4 5 o 0.269 0.240 0.00 0.53258 0.00
4 9 -5 o 0.322 0.287 180.00 0.53257 0.00
9 4 -5 o 0.742 0.661 180.00 0.53254 0.00
9 4 5 o 3.963 3.527 0.00 0.53254 0.02
3 -10 -1 o 0.669 0.585 180.00 0.53238 0.00
3 -10 1 o 7.761 6.768 180.00 0.53235 0.04
3 10 1 o 11.539 10.006 0.00 0.53230 0.06
3 10 -1 o 0.907 0.785 0.00 0.53228 0.00
10 -3 -1 o 6.286 5.432 0.00 0.53227 0.03
10 -3 1 o 6.459 5.568 0.00 0.53225 0.03
10 3 -1 o 1.968 1.684 180.00 0.53219 0.01
10 3 1 o 0.166 0.142 180.00 0.53219 0.00
3 -4 -13 o 0.846 0.824 0.00 0.53484 0.00
0 5 13 o 2.642 2.572 0.00 0.53483 0.01
4 -3 -13 o 2.209 2.150 180.00 0.53482 0.01
3 4 13 o 0.228 0.222 180.00 0.53476 0.00
5 0 -13 o 0.268 0.260 0.00 0.53475 0.00
4 3 13 o 0.893 0.867 0.00 0.53473 0.00
4 3 -13 o 2.932 2.846 0.00 0.53468 0.01
5 0 13 o 1.877 1.821 0.00 0.53467 0.01
3 4 -13 o 0.925 0.897 180.00 0.53467 0.00
3 -4 13 o 1.347 1.306 0.00 0.53465 0.01
4 -3 13 o 0.134 0.130 0.00 0.53465 0.00
0 5 -13 o 1.270 1.232 180.00 0.53465 0.01
0 7 11 o 0.756 0.727 180.00 0.53415 0.00
7 0 -11 o 0.046 0.044 0.00 0.53404 0.00
0 7 -11 o 1.836 1.760 0.00 0.53395 0.01
7 0 11 o 1.594 1.528 180.00 0.53395 0.01
2 -9 -7 o 0.618 0.578 180.00 0.53313 0.00
6 -7 -7 o 1.548 1.445 0.00 0.53313 0.01
7 -6 -7 o 0.022 0.021 180.00 0.53311 0.00
2 9 7 o 0.108 0.100 180.00 0.53307 0.00
9 -2 -7 o 0.033 0.031 0.00 0.53301 0.00
2 -9 7 o 1.144 1.056 0.00 0.53295 0.01
6 -7 7 o 1.773 1.636 0.00 0.53294 0.01
7 -6 7 o 0.073 0.067 180.00 0.53293 0.00
6 7 7 o 0.929 0.859 180.00 0.53297 0.00
2 9 -7 o 1.295 1.192 0.00 0.53292 0.01
7 6 7 o 0.434 0.400 0.00 0.53294 0.00
9 2 -7 o 1.050 0.967 0.00 0.53293 0.01
9 -2 7 o 0.449 0.413 180.00 0.53290 0.00
6 7 -7 o 0.199 0.183 0.00 0.53289 0.00
9 2 7 o 2.315 2.126 180.00 0.53289 0.01
7 6 -7 o 1.566 1.439 0.00 0.53289 0.01
2 -10 -4 o 16.802 16.906 0.00 0.52665 0.08
2 10 4 o 11.109 11.172 0.00 0.52659 0.05
2 -10 4 o 17.122 17.209 0.00 0.52654 0.08
10 -2 -4 o 12.465 12.526 0.00 0.52652 0.06
2 10 -4 o 11.381 11.433 0.00 0.52650 0.05
10 -2 4 o 18.560 18.635 0.00 0.52645 0.09
10 2 -4 o 11.837 11.885 0.00 0.52645 0.05
10 2 4 o 14.967 15.021 0.00 0.52642 0.07
2 -6 -12 o 26.026 24.674 0.00 0.52846 0.12
2 6 12 o 25.208 24.003 0.00 0.52840 0.12
6 -2 -12 o 17.716 16.886 0.00 0.52838 0.08
6 2 -12 o 16.081 15.429 0.00 0.52829 0.07
6 2 12 o 30.831 29.625 0.00 0.52827 0.14
2 -6 12 o 30.757 29.614 0.00 0.52824 0.14
6 -2 12 o 38.520 37.094 0.00 0.52824 0.18
2 6 -12 o 20.730 19.962 0.00 0.52824 0.10
4 -8 -8 o 21.628 21.672 0.00 0.52735 0.10
8 -4 -8 o 15.099 15.154 0.00 0.52728 0.07
4 8 8 o 14.001 14.062 0.00 0.52724 0.06
4 -8 8 o 26.864 27.014 0.00 0.52715 0.12
8 -4 8 o 29.955 30.134 0.00 0.52712 0.14
4 8 -8 o 13.553 13.635 0.00 0.52711 0.06
8 4 8 o 17.523 17.627 0.00 0.52712 0.08
8 4 -8 o 12.891 12.969 0.00 0.52712 0.06
5 -8 -7 o 1.145 1.211 180.00 0.52363 0.01
8 -5 -7 o 3.370 3.569 0.00 0.52358 0.02
5 8 7 o 0.890 0.944 0.00 0.52350 0.00
5 -8 7 o 0.646 0.686 180.00 0.52345 0.00
8 -5 7 o 3.223 3.423 0.00 0.52342 0.01
8 5 7 o 1.260 1.338 180.00 0.52342 0.01
5 8 -7 o 3.250 3.453 0.00 0.52340 0.01
8 5 -7 o 0.000 0.001 0.00 0.52339 0.00
1 -10 -5 o 9.123 9.708 0.00 0.52328 0.04
1 10 5 o 0.730 0.777 180.00 0.52325 0.00
1 -10 5 o 1.886 2.010 0.00 0.52314 0.01
1 10 -5 o 6.483 6.910 180.00 0.52313 0.03
10 -1 -5 o 2.633 2.806 180.00 0.52314 0.01
10 1 -5 o 1.676 1.788 0.00 0.52310 0.01
3 -10 -3 o 5.290 5.642 180.00 0.52305 0.02
10 -1 5 o 1.969 2.101 180.00 0.52307 0.01
10 1 5 o 4.301 4.588 0.00 0.52305 0.02
3 -10 3 o 0.877 0.936 180.00 0.52297 0.00
3 10 3 o 0.993 1.060 0.00 0.52297 0.00
10 -3 -3 o 4.452 4.754 0.00 0.52294 0.02
7 -8 -1 o 1.254 1.339 0.00 0.52290 0.01
3 10 -3 o 7.330 7.830 0.00 0.52291 0.03
8 -7 -1 o 1.112 1.187 180.00 0.52289 0.00
7 -8 1 o 0.087 0.093 0.00 0.52288 0.00
10 -3 3 o 4.553 4.865 0.00 0.52288 0.02
8 -7 1 o 2.929 3.130 180.00 0.52286 0.01
10 3 -3 o 0.108 0.115 180.00 0.52284 0.00
10 3 3 o 1.758 1.880 180.00 0.52283 0.01
7 8 1 o 0.126 0.135 0.00 0.52276 0.00
7 8 -1 o 2.246 2.403 180.00 0.52275 0.01
8 7 1 o 0.857 0.918 0.00 0.52274 0.00
8 7 -1 o 0.125 0.133 180.00 0.52273 0.00
0 1 15 o 1.555 1.552 0.00 0.52593 0.01
1 0 -15 o 0.060 0.059 0.00 0.52592 0.00
1 0 15 o 0.060 0.060 180.00 0.52590 0.00
0 1 -15 o 2.139 2.135 180.00 0.52589 0.01
2 -5 -13 o 0.326 0.326 180.00 0.52525 0.00
5 -9 -4 o 0.313 0.349 180.00 0.52201 0.00
5 -2 -13 o 0.024 0.024 0.00 0.52520 0.00
2 5 13 o 0.346 0.347 0.00 0.52520 0.00
9 -5 -4 o 0.596 0.669 0.00 0.52194 0.00
5 -9 4 o 0.000 0.000 180.00 0.52190 0.00
5 2 -13 o 0.126 0.127 180.00 0.52511 0.00
5 2 13 o 0.090 0.091 180.00 0.52510 0.00
5 9 4 o 0.322 0.364 180.00 0.52188 0.00
9 -5 4 o 0.481 0.546 0.00 0.52185 0.00
2 -5 13 o 0.579 0.583 0.00 0.52506 0.00
5 -2 13 o 0.249 0.251 0.00 0.52506 0.00
2 5 -13 o 1.329 1.338 0.00 0.52506 0.01
5 9 -4 o 0.888 1.012 180.00 0.52181 0.00
9 5 4 o 0.930 1.063 180.00 0.52179 0.00
9 5 -4 o 0.909 1.040 180.00 0.52178 0.00
2 -7 -11 o 0.114 0.117 0.00 0.52462 0.00
2 7 11 o 0.338 0.346 180.00 0.52456 0.00
7 -2 -11 o 0.102 0.104 0.00 0.52453 0.00
7 2 -11 o 0.290 0.298 0.00 0.52444 0.00
2 -7 11 o 0.000 0.000 0.00 0.52440 0.00
0 4 14 o 0.848 0.874 0.00 0.52442 0.00
7 2 11 o 0.445 0.459 0.00 0.52441 0.00
2 7 -11 o 0.017 0.017 180.00 0.52439 0.00
7 -2 11 o 0.019 0.019 0.00 0.52439 0.00
4 0 -14 o 0.115 0.119 180.00 0.52436 0.00
4 0 14 o 1.952 2.022 0.00 0.52430 0.01
0 4 -14 o 0.203 0.210 0.00 0.52428 0.00
3 -8 -9 o 3.943 4.118 0.00 0.52408 0.02
8 -3 -9 o 2.734 2.865 180.00 0.52399 0.01
3 8 9 o 0.708 0.741 180.00 0.52399 0.00
3 -8 9 o 2.141 2.252 0.00 0.52387 0.01
8 3 -9 o 1.058 1.113 0.00 0.52386 0.00
8 -3 9 o 1.538 1.619 180.00 0.52384 0.01
3 8 -9 o 3.111 3.275 180.00 0.52384 0.01
8 3 9 o 3.208 3.377 0.00 0.52385 0.01
0 8 10 o 0.226 0.241 0.00 0.52316 0.00
8 0 -10 o 1.487 1.588 180.00 0.52303 0.01
0 8 -10 o 0.007 0.008 180.00 0.52295 0.00
8 0 10 o 0.366 0.391 0.00 0.52294 0.00
1 -9 -8 o 0.054 0.058 180.00 0.52268 0.00
1 9 8 o 1.333 1.432 0.00 0.52265 0.01
9 -1 -8 o 4.196 4.521 0.00 0.52254 0.02
1 -9 8 o 2.236 2.414 0.00 0.52249 0.01
9 1 -8 o 0.017 0.018 180.00 0.52250 0.00
1 9 -8 o 0.025 0.027 180.00 0.52247 0.00
9 -1 8 o 2.842 3.074 0.00 0.52244 0.01
9 1 8 o 0.001 0.001 0.00 0.52244 0.00
7 -7 -6 o 0.655 0.902 0.00 0.51775 0.00
7 -7 6 o 0.820 1.119 0.00 0.51760 0.00
7 7 6 o 0.728 0.993 0.00 0.51759 0.00
7 7 -6 o 0.078 0.107 0.00 0.51753 0.00
4 -10 0 o 7.174 9.599 0.00 0.51723 0.03
10 -4 0 o 12.624 16.824 0.00 0.51714 0.05
4 10 0 o 11.589 15.442 0.00 0.51713 0.05
10 4 0 o 12.238 16.249 0.00 0.51704 0.05
3 -3 -14 o 1.662 2.529 0.00 0.51984 0.01
3 3 14 o 4.890 7.448 0.00 0.51977 0.02
3 3 -14 o 0.606 0.923 0.00 0.51972 0.00
3 -3 14 o 2.570 3.915 0.00 0.51969 0.01
7 -8 -3 o 0.002 0.004 180.00 0.51405 0.00
8 -7 -3 o 2.333 3.613 180.00 0.51404 0.01
7 -8 3 o 1.134 1.768 0.00 0.51397 0.00
8 -7 3 o 0.602 0.940 180.00 0.51396 0.00
6 -9 -1 o 0.001 0.002 180.00 0.51394 0.00
6 -9 1 o 0.697 1.094 180.00 0.51391 0.00
7 8 3 o 2.336 3.673 180.00 0.51390 0.01
9 -6 -1 o 0.030 0.048 0.00 0.51389 0.00
8 7 3 o 0.067 0.105 180.00 0.51388 0.00
7 8 -3 o 0.314 0.495 0.00 0.51387 0.00
9 -6 1 o 0.004 0.007 180.00 0.51386 0.00
8 7 -3 o 0.442 0.699 0.00 0.51386 0.00
6 9 1 o 0.347 0.552 0.00 0.51381 0.00
6 9 -1 o 0.280 0.446 180.00 0.51379 0.00
9 6 1 o 0.475 0.760 0.00 0.51375 0.00
9 6 -1 o 0.455 0.729 180.00 0.51375 0.00
1 -2 -15 o 0.025 0.033 180.00 0.51683 0.00
2 -1 -15 o 2.780 3.678 180.00 0.51681 0.01
1 2 15 o 0.493 0.652 180.00 0.51680 0.00
2 1 15 o 0.686 0.907 180.00 0.51677 0.00
2 1 -15 o 2.551 3.373 0.00 0.51677 0.01
1 2 -15 o 0.199 0.264 180.00 0.51675 0.00
2 -1 15 o 0.519 0.686 0.00 0.51674 0.00
1 -2 15 o 0.315 0.417 0.00 0.51674 0.00
6 -8 -6 o 0.714 1.225 180.00 0.51335 0.00
0 10 6 o 0.064 0.110 180.00 0.51332 0.00
8 -6 -6 o 0.297 0.514 180.00 0.51331 0.00
6 -8 6 o 1.767 3.145 180.00 0.51319 0.01
0 10 -6 o 0.058 0.104 180.00 0.51318 0.00
8 -6 6 o 1.817 3.252 180.00 0.51317 0.01
6 8 6 o 0.001 0.003 0.00 0.51320 0.00
10 0 -6 o 0.003 0.006 0.00 0.51318 0.00
8 6 6 o 0.021 0.038 180.00 0.51315 0.00
6 8 -6 o 0.001 0.003 180.00 0.51312 0.00
10 0 6 o 0.377 0.686 180.00 0.51312 0.00
8 6 -6 o 0.008 0.015 180.00 0.51311 0.00
4 -10 -2 o 0.461 0.904 180.00 0.51290 0.00
4 -10 2 o 0.516 1.038 180.00 0.51285 0.00
10 -4 -2 o 0.079 0.163 180.00 0.51281 0.00
4 10 2 o 0.071 0.146 0.00 0.51280 0.00
10 -4 2 o 0.315 0.659 180.00 0.51277 0.00
4 10 -2 o 0.046 0.097 0.00 0.51277 0.00
10 4 -2 o 0.002 0.003 180.00 0.51270 0.00
10 4 2 o 0.010 0.021 180.00 0.51270 0.00
2 -4 -14 o 1.895 2.624 180.00 0.51539 0.01
4 -2 -14 o 0.923 1.280 180.00 0.51535 0.00
2 4 14 o 2.783 3.866 180.00 0.51534 0.01
4 2 14 o 3.792 5.286 180.00 0.51527 0.02
4 2 -14 o 0.606 0.845 180.00 0.51527 0.00
2 4 -14 o 1.167 1.632 180.00 0.51523 0.00
4 -2 14 o 5.272 7.373 180.00 0.51523 0.02
2 -4 14 o 3.790 5.303 180.00 0.51522 0.02
2 -8 -10 o 0.889 1.355 180.00 0.51419 0.00
2 8 10 o 0.342 0.525 180.00 0.51413 0.00
8 -2 -10 o 0.025 0.039 180.00 0.51409 0.00
2 -8 10 o 1.244 1.942 180.00 0.51398 0.01
8 2 -10 o 0.009 0.014 180.00 0.51400 0.00
2 8 -10 o 0.206 0.322 180.00 0.51396 0.00
8 -2 10 o 2.639 4.130 180.00 0.51395 0.01
8 2 10 o 1.146 1.791 180.00 0.51396 0.00
0 9 9 o 0.664 0.663 0.00 0.50643 0.00
9 0 -9 o 0.054 0.054 180.00 0.50630 0.00
0 9 -9 o 0.535 0.529 180.00 0.50625 0.00
9 0 9 o 2.252 2.226 0.00 0.50622 0.01
4 -9 -7 o 0.013 0.013 0.00 0.50606 0.00
9 -4 -7 o 0.123 0.120 0.00 0.50597 0.00
4 9 7 o 0.564 0.549 180.00 0.50595 0.00
4 -9 7 o 0.417 0.404 0.00 0.50589 0.00
9 -4 7 o 0.034 0.033 0.00 0.50585 0.00
4 9 -7 o 0.561 0.542 0.00 0.50584 0.00
9 4 -7 o 0.249 0.240 0.00 0.50583 0.00
9 4 7 o 0.026 0.025 0.00 0.50583 0.00
3 -10 -5 o 0.185 0.177 180.00 0.50575 0.00
3 10 5 o 10.148 9.668 0.00 0.50567 0.04
3 -10 5 o 6.345 6.019 180.00 0.50562 0.02
10 -3 -5 o 4.816 4.576 0.00 0.50564 0.02
6 -6 -10 o 0.030 0.028 180.00 0.50563 0.00
3 10 -5 o 0.394 0.372 0.00 0.50557 0.00
10 -3 5 o 5.192 4.896 0.00 0.50555 0.02
6 -9 -3 o 1.595 1.500 180.00 0.50553 0.01
10 3 -5 o 1.125 1.060 180.00 0.50554 0.00
10 3 5 o 0.120 0.113 180.00 0.50552 0.00
9 -6 -3 o 0.102 0.096 180.00 0.50548 0.00
6 6 10 o 0.049 0.046 0.00 0.50549 0.00
6 -9 3 o 0.008 0.007 0.00 0.50545 0.00
6 -6 10 o 0.945 0.882 0.00 0.50543 0.00
9 -6 3 o 0.088 0.082 0.00 0.50541 0.00
6 6 -10 o 0.487 0.454 180.00 0.50542 0.00
0 11 1 o 1.396 1.295 0.00 0.50538 0.01
6 9 3 o 0.359 0.334 180.00 0.50539 0.00
0 11 -1 o 0.080 0.074 180.00 0.50536 0.00
6 9 -3 o 0.405 0.374 0.00 0.50535 0.00
9 6 3 o 1.738 1.606 180.00 0.50533 0.01
9 6 -3 o 1.552 1.432 0.00 0.50532 0.01
11 0 -1 o 0.041 0.037 180.00 0.50525 0.00
11 0 1 o 0.574 0.525 0.00 0.50524 0.00
3 -9 -8 o 5.878 5.369 0.00 0.50521 0.02
3 9 8 o 0.995 0.901 0.00 0.50512 0.00
9 -3 -8 o 1.056 0.955 0.00 0.50511 0.00
3 -9 8 o 1.732 1.553 0.00 0.50502 0.01
3 9 -8 o 7.155 6.395 0.00 0.50499 0.03
9 -3 8 o 1.676 1.497 0.00 0.50498 0.01
9 3 -8 o 8.683 7.767 0.00 0.50499 0.03
9 3 8 o 6.257 5.586 0.00 0.50497 0.02
0 3 15 o 1.843 2.034 180.00 0.50816 0.01
3 0 -15 o 0.101 0.111 180.00 0.50812 0.00
2 -10 -6 o 0.059 0.052 0.00 0.50485 0.00
3 0 15 o 0.213 0.233 180.00 0.50807 0.00
0 3 -15 o 2.034 2.215 0.00 0.50805 0.01
2 10 6 o 0.054 0.047 180.00 0.50479 0.00
2 -10 6 o 0.005 0.004 180.00 0.50470 0.00
10 -2 -6 o 2.104 1.835 180.00 0.50472 0.01
2 10 -6 o 0.346 0.300 180.00 0.50467 0.00
10 2 -6 o 1.550 1.344 180.00 0.50465 0.01
10 -2 6 o 0.041 0.035 180.00 0.50463 0.00
10 2 6 o 0.122 0.106 180.00 0.50462 0.00
1 -11 0 o 1.155 0.977 0.00 0.50433 0.00
1 11 0 o 1.663 1.404 0.00 0.50431 0.01
1 -6 -13 o 3.360 3.495 0.00 0.50752 0.01
1 6 13 o 0.152 0.158 180.00 0.50749 0.00
11 -1 0 o 0.045 0.038 0.00 0.50421 0.00
6 -1 -13 o 2.528 2.618 180.00 0.50744 0.01
11 1 0 o 7.849 6.591 0.00 0.50419 0.03
6 1 -13 o 3.457 3.573 0.00 0.50740 0.01
6 1 13 o 1.618 1.668 0.00 0.50735 0.01
1 -6 13 o 1.599 1.647 0.00 0.50733 0.01
6 -1 13 o 0.043 0.045 180.00 0.50733 0.00
1 6 -13 o 2.083 2.146 180.00 0.50733 0.01
5 -6 -11 o 0.102 0.103 180.00 0.50694 0.00
6 -5 -11 o 4.300 4.364 180.00 0.50692 0.02
5 6 11 o 6.535 6.610 180.00 0.50682 0.03
6 5 11 o 0.028 0.029 0.00 0.50679 0.00
5 -6 11 o 2.097 2.115 0.00 0.50673 0.01
6 -5 11 o 0.137 0.139 180.00 0.50673 0.00
6 5 -11 o 1.835 1.852 0.00 0.50673 0.01
5 6 -11 o 0.150 0.151 0.00 0.50672 0.00
1 -7 -12 o 4.567 4.505 0.00 0.50617 0.02
5 -5 -12 o 0.053 0.052 0.00 0.50617 0.00
1 7 12 o 0.002 0.002 0.00 0.50615 0.00
7 -1 -12 o 0.413 0.405 0.00 0.50608 0.00
5 5 12 o 0.365 0.358 0.00 0.50605 0.00
7 1 -12 o 5.744 5.623 0.00 0.50604 0.02
1 -7 12 o 0.260 0.254 0.00 0.50597 0.00
5 -5 12 o 0.719 0.700 0.00 0.50597 0.00
1 7 -12 o 5.704 5.558 0.00 0.50597 0.02
7 1 12 o 2.120 2.067 0.00 0.50598 0.01
5 5 -12 o 0.353 0.344 180.00 0.50597 0.00
7 -1 12 o 1.309 1.275 0.00 0.50597 0.01
5 -7 -10 o 13.158 12.724 0.00 0.50153 0.05
7 -5 -10 o 7.604 7.366 0.00 0.50150 0.03
5 7 10 o 9.842 9.573 0.00 0.50141 0.04
5 -7 10 o 7.039 6.870 0.00 0.50133 0.03
7 5 10 o 12.100 11.797 0.00 0.50135 0.05
7 -5 10 o 7.006 6.841 0.00 0.50132 0.03
7 5 -10 o 16.344 15.961 0.00 0.50131 0.06
5 7 -10 o 17.190 16.794 0.00 0.50130 0.07
5 -9 -6 o 0.538 0.533 0.00 0.50076 0.00
9 -5 -6 o 2.858 2.832 0.00 0.50069 0.01
5 -9 6 o 1.621 1.608 0.00 0.50061 0.01
5 9 6 o 2.353 2.333 0.00 0.50063 0.01
9 -5 6 o 2.278 2.260 0.00 0.50057 0.01
5 9 -6 o 0.365 0.362 0.00 0.50054 0.00
9 5 6 o 0.447 0.443 0.00 0.50054 0.00
4 -10 -4 o 8.766 8.697 0.00 0.50050 0.03
9 5 -6 o 0.137 0.136 0.00 0.50053 0.00
4 -10 4 o 9.242 9.169 0.00 0.50040 0.03
10 -4 -4 o 18.826 18.678 0.00 0.50041 0.07
4 10 4 o 13.871 13.762 0.00 0.50040 0.05
10 -4 4 o 12.631 12.531 0.00 0.50033 0.05
4 10 -4 o 14.829 14.711 0.00 0.50033 0.06
1 -11 -2 o 8.403 8.336 0.00 0.50032 0.03
1 11 2 o 8.018 7.953 0.00 0.50029 0.03
1 -11 2 o 5.987 5.938 0.00 0.50027 0.02
10 4 -4 o 16.586 16.452 0.00 0.50029 0.06
10 4 4 o 13.744 13.633 0.00 0.50028 0.05
1 11 -2 o 9.897 9.815 0.00 0.50025 0.04
11 -1 -2 o 1.142 1.132 0.00 0.50019 0.00
11 -1 2 o 1.222 1.212 0.00 0.50016 0.00
11 1 -2 o 12.564 12.457 0.00 0.50016 0.05
11 1 2 o 12.958 12.847 0.00 0.50015 0.05
1 -5 -14 o 1.594 1.422 0.00 0.50265 0.01
1 5 14 o 11.102 9.925 0.00 0.50262 0.04
5 -1 -14 o 6.198 5.556 0.00 0.50259 0.02
5 1 -14 o 1.418 1.276 0.00 0.50255 0.01
5 1 14 o 5.844 5.275 0.00 0.50251 0.02
5 -1 14 o 3.804 3.440 0.00 0.50249 0.01
1 -5 14 o 7.304 6.611 0.00 0.50248 0.03
1 5 -14 o 1.141 1.032 0.00 0.50248 0.00
4 -6 -12 o 9.640 9.024 0.00 0.50205 0.04
6 -4 -12 o 14.801 13.889 0.00 0.50202 0.06
4 -7 -11 o 2.347 2.409 180.00 0.49876 0.01
1 -8 -11 o 3.842 3.947 180.00 0.49875 0.01
4 6 12 o 7.542 7.110 0.00 0.50195 0.03
1 8 11 o 0.961 0.989 0.00 0.49872 0.00
7 -4 -11 o 0.141 0.145 180.00 0.49871 0.00
6 4 12 o 7.065 6.687 0.00 0.50189 0.03
4 7 11 o 0.023 0.024 180.00 0.49866 0.00
4 -6 12 o 5.789 5.497 0.00 0.50184 0.02
8 -1 -11 o 3.325 3.439 0.00 0.49864 0.01
6 4 -12 o 17.281 16.393 0.00 0.50186 0.07
6 -4 12 o 4.529 4.302 0.00 0.50184 0.02
4 6 -12 o 14.962 14.211 0.00 0.50184 0.06
8 1 -11 o 1.336 1.385 180.00 0.49860 0.00
4 -7 11 o 0.289 0.301 0.00 0.49855 0.00
7 4 11 o 4.258 4.423 180.00 0.49858 0.02
1 -8 11 o 0.901 0.938 180.00 0.49855 0.00
1 8 -11 o 4.731 4.925 0.00 0.49854 0.02
7 -4 11 o 0.058 0.061 0.00 0.49854 0.00
7 4 -11 o 0.613 0.637 0.00 0.49856 0.00
8 1 11 o 1.978 2.059 180.00 0.49854 0.01
8 -1 11 o 1.425 1.484 0.00 0.49853 0.01
4 7 -11 o 1.221 1.272 0.00 0.49853 0.00
2 -9 -9 o 0.341 0.361 0.00 0.49829 0.00
6 -7 -9 o 4.305 4.562 0.00 0.49828 0.02
7 -6 -9 o 0.642 0.681 0.00 0.49826 0.00
2 9 9 o 1.158 1.231 0.00 0.49823 0.00
9 -2 -9 o 0.002 0.002 0.00 0.49818 0.00
6 7 9 o 0.189 0.202 0.00 0.49814 0.00
2 -9 9 o 0.003 0.003 0.00 0.49809 0.00
6 -7 9 o 0.206 0.221 0.00 0.49809 0.00
7 -6 9 o 0.269 0.289 180.00 0.49808 0.00
7 6 9 o 6.263 6.714 0.00 0.49811 0.02
9 2 -9 o 0.006 0.006 0.00 0.49810 0.00
2 9 -9 o 0.006 0.007 180.00 0.49807 0.00
9 -2 9 o 0.014 0.015 0.00 0.49806 0.00
9 2 9 o 0.001 0.001 0.00 0.49806 0.00
6 7 -9 o 0.302 0.325 180.00 0.49806 0.00
7 6 -9 o 0.306 0.330 180.00 0.49806 0.00
1 -10 -7 o 0.875 0.952 0.00 0.49789 0.00
1 10 7 o 6.796 7.408 180.00 0.49787 0.03
10 -1 -7 o 1.623 1.781 180.00 0.49776 0.01
1 -10 7 o 7.254 7.975 0.00 0.49773 0.03
1 10 -7 o 0.368 0.405 180.00 0.49772 0.00
10 1 -7 o 2.288 2.517 0.00 0.49773 0.01
10 -1 7 o 2.932 3.235 180.00 0.49768 0.01
10 1 7 o 1.321 1.458 0.00 0.49767 0.00
7 -8 -5 o 0.640 0.710 0.00 0.49760 0.00
8 -7 -5 o 0.940 1.043 180.00 0.49758 0.00
7 -8 5 o 0.320 0.357 0.00 0.49748 0.00
8 -7 5 o 1.708 1.907 180.00 0.49747 0.01
7 8 5 o 0.002 0.002 0.00 0.49745 0.00
8 7 5 o 0.852 0.954 0.00 0.49743 0.00
7 8 -5 o 0.885 0.992 180.00 0.49740 0.00
0 11 3 o 0.051 0.057 180.00 0.49738 0.00
8 7 -5 o 0.106 0.119 180.00 0.49739 0.00
0 11 -3 o 0.955 1.075 0.00 0.49731 0.00
5 -10 -1 o 3.852 4.340 0.00 0.49729 0.01
2 -11 -1 o 0.329 0.371 0.00 0.49728 0.00
5 -10 1 o 0.586 0.661 0.00 0.49726 0.00
2 -11 1 o 0.460 0.519 180.00 0.49726 0.00
2 11 1 o 0.521 0.589 0.00 0.49723 0.00
11 0 -3 o 0.681 0.769 0.00 0.49724 0.00
10 -5 -1 o 2.179 2.464 180.00 0.49722 0.01
2 11 -1 o 0.259 0.293 180.00 0.49721 0.00
10 -5 1 o 3.084 3.490 180.00 0.49720 0.01
11 0 3 o 0.223 0.252 180.00 0.49721 0.00
5 10 1 o 0.001 0.002 180.00 0.49718 0.00
11 -2 -1 o 0.003 0.003 180.00 0.49717 0.00
5 10 -1 o 3.277 3.714 180.00 0.49717 0.01
11 -2 1 o 0.368 0.417 0.00 0.49715 0.00
11 2 -1 o 0.547 0.622 180.00 0.49712 0.00
11 2 1 o 0.483 0.549 0.00 0.49711 0.00
10 5 1 o 1.073 1.219 0.00 0.49710 0.00
10 5 -1 o 0.000 0.000 0.00 0.49710 0.00
2 -3 -15 o 1.846 1.830 0.00 0.49992 0.01
3 -2 -15 o 0.000 0.000 0.00 0.49991 0.00
2 3 15 o 0.054 0.053 0.00 0.49988 0.00
3 2 15 o 0.138 0.137 0.00 0.49985 0.00
3 2 -15 o 0.588 0.583 0.00 0.49983 0.00
2 3 -15 o 1.657 1.644 180.00 0.49981 0.01
3 -2 15 o 0.152 0.151 180.00 0.49980 0.00
2 -3 15 o 0.552 0.547 180.00 0.49980 0.00
4 -5 -13 o 5.107 5.110 0.00 0.49930 0.02
5 -4 -13 o 0.568 0.569 0.00 0.49929 0.00
4 5 13 o 0.278 0.280 0.00 0.49921 0.00
5 4 13 o 6.247 6.278 0.00 0.49918 0.02
5 4 -13 o 0.006 0.006 0.00 0.49913 0.00
4 -5 13 o 0.005 0.005 180.00 0.49911 0.00
5 -4 13 o 0.113 0.114 180.00 0.49911 0.00
4 5 -13 o 1.245 1.254 180.00 0.49912 0.00
8 -8 0 o 18.595 18.359 0.00 0.49236 0.07
8 8 0 o 9.159 8.894 0.00 0.49223 0.03
0 0 16 o 21.241 26.155 0.00 0.49525 0.08
3 -6 -13 o 0.211 0.188 0.00 0.49148 0.00
6 -3 -13 o 6.298 5.582 0.00 0.49143 0.02
3 6 13 o 8.035 7.105 0.00 0.49141 0.03
6 3 13 o 0.004 0.004 0.00 0.49132 0.00
6 3 -13 o 1.725 1.513 180.00 0.49132 0.01
3 -6 13 o 2.096 1.834 180.00 0.49128 0.01
6 -3 13 o 0.820 0.717 0.00 0.49128 0.00
3 6 -13 o 0.258 0.226 0.00 0.49128 0.00
4 -4 -14 o 0.002 0.002 0.00 0.49080 0.00
4 4 14 o 1.159 0.986 0.00 0.49072 0.00
4 4 -14 o 0.284 0.241 180.00 0.49066 0.00
4 -4 14 o 1.601 1.359 0.00 0.49063 0.01
5 -8 -9 o 0.270 0.228 0.00 0.49051 0.00
8 -5 -9 o 6.367 5.389 0.00 0.49046 0.02
5 8 9 o 9.900 8.375 0.00 0.49038 0.03
5 -8 9 o 3.025 2.559 180.00 0.49031 0.01
8 -5 9 o 2.354 1.991 0.00 0.49029 0.01
8 5 9 o 0.014 0.012 0.00 0.49031 0.00
5 8 -9 o 0.009 0.008 180.00 0.49028 0.00
8 5 -9 o 0.617 0.522 180.00 0.49028 0.00
3 -7 -12 o 0.186 0.157 180.00 0.49026 0.00
7 -3 -12 o 1.668 1.411 0.00 0.49019 0.01
3 7 12 o 1.200 1.015 0.00 0.49018 0.00
7 3 -12 o 0.125 0.106 180.00 0.49008 0.00
3 -7 12 o 1.741 1.472 0.00 0.49005 0.01
7 3 12 o 0.134 0.114 0.00 0.49007 0.00
7 -3 12 o 0.981 0.830 0.00 0.49004 0.00
3 7 -12 o 0.323 0.273 180.00 0.49004 0.00
6 -9 -5 o 0.018 0.015 180.00 0.48986 0.00
9 -6 -5 o 0.017 0.014 0.00 0.48981 0.00
4 -8 -10 o 0.169 0.143 0.00 0.48977 0.00
6 -9 5 o 0.595 0.502 180.00 0.48973 0.00
9 -6 5 o 0.021 0.018 0.00 0.48970 0.00
6 9 5 o 0.773 0.652 0.00 0.48972 0.00
8 -4 -10 o 0.964 0.814 180.00 0.48971 0.00
5 -10 -3 o 0.259 0.219 0.00 0.48966 0.00
2 -11 -3 o 0.599 0.505 180.00 0.48965 0.00
4 8 10 o 0.018 0.016 0.00 0.48967 0.00
6 9 -5 o 0.492 0.415 180.00 0.48966 0.00
9 6 5 o 0.276 0.233 0.00 0.48966 0.00
9 6 -5 o 0.150 0.126 180.00 0.48964 0.00
5 -10 3 o 5.864 4.939 0.00 0.48959 0.02
2 11 3 o 0.504 0.425 180.00 0.48960 0.00
2 -11 3 o 0.339 0.286 0.00 0.48958 0.00
4 -8 10 o 0.367 0.309 0.00 0.48957 0.00
10 -5 -3 o 4.099 3.453 180.00 0.48959 0.01
8 -4 10 o 0.736 0.620 0.00 0.48955 0.00
8 4 10 o 0.052 0.044 0.00 0.48957 0.00
8 4 -10 o 0.931 0.784 180.00 0.48956 0.00
2 11 -3 o 0.798 0.672 0.00 0.48954 0.00
4 8 -10 o 0.304 0.256 180.00 0.48955 0.00
5 10 3 o 5.629 4.739 180.00 0.48955 0.02
10 -5 3 o 2.931 2.467 180.00 0.48953 0.01
11 -2 -3 o 0.213 0.179 0.00 0.48953 0.00
5 10 -3 o 0.063 0.053 0.00 0.48950 0.00
11 -2 3 o 0.001 0.001 0.00 0.48949 0.00
11 2 -3 o 0.152 0.127 0.00 0.48948 0.00
11 2 3 o 0.305 0.256 180.00 0.48946 0.00
10 5 3 o 0.003 0.003 0.00 0.48946 0.00
10 5 -3 o 1.103 0.927 0.00 0.48946 0.00
7 -7 -8 o 0.004 0.004 180.00 0.48935 0.00
7 -7 8 o 0.086 0.072 0.00 0.48918 0.00
7 7 8 o 0.384 0.322 180.00 0.48920 0.00
7 7 -8 o 1.049 0.879 180.00 0.48913 0.00
1 -4 -15 o 0.732 0.696 180.00 0.49207 0.00
1 4 15 o 0.146 0.138 0.00 0.49205 0.00
4 -1 -15 o 3.525 3.337 0.00 0.49203 0.01
1 -11 -4 o 1.968 1.641 0.00 0.48879 0.01
1 11 4 o 0.642 0.535 0.00 0.48876 0.00
4 1 -15 o 2.813 2.650 180.00 0.49199 0.01
4 1 15 o 0.020 0.018 180.00 0.49197 0.00
4 -1 15 o 0.067 0.063 180.00 0.49194 0.00
1 4 -15 o 1.627 1.523 0.00 0.49194 0.01
1 -4 15 o 0.559 0.523 180.00 0.49193 0.00
1 -11 4 o 0.508 0.423 0.00 0.48869 0.00
1 11 -4 o 2.953 2.461 0.00 0.48868 0.01
11 -1 -4 o 0.068 0.056 0.00 0.48866 0.00
8 -8 -2 o 0.000 0.000 0.00 0.48863 0.00
11 1 -4 o 7.219 6.018 0.00 0.48863 0.02
11 -1 4 o 0.061 0.051 0.00 0.48861 0.00
8 -8 2 o 0.062 0.051 0.00 0.48858 0.00
3 -11 0 o 0.001 0.001 0.00 0.48858 0.00
7 -9 0 o 7.372 6.143 0.00 0.48857 0.03
11 1 4 o 7.037 5.868 0.00 0.48860 0.02
9 -7 0 o 5.404 4.505 0.00 0.48855 0.02
3 11 0 o 0.133 0.111 180.00 0.48852 0.00
11 -3 0 o 3.164 2.639 0.00 0.48848 0.01
8 8 2 o 0.165 0.137 180.00 0.48849 0.00
8 8 -2 o 0.189 0.158 180.00 0.48847 0.00
7 9 0 o 6.988 5.832 0.00 0.48845 0.02
9 7 0 o 8.492 7.089 0.00 0.48842 0.03
11 3 0 o 0.553 0.462 180.00 0.48841 0.00
1 -1 -16 o 0.912 0.807 0.00 0.49141 0.00
1 1 16 o 2.680 2.368 0.00 0.49139 0.01
1 1 -16 o 1.066 0.941 0.00 0.49137 0.00
1 -1 16 o 1.396 1.231 0.00 0.49136 0.00
3 -5 -14 o 11.088 9.888 0.00 0.48705 0.04
5 -3 -14 o 5.915 5.285 0.00 0.48702 0.02
3 5 14 o 3.819 3.421 0.00 0.48698 0.01
5 3 14 o 5.267 4.736 0.00 0.48693 0.02
5 3 -14 o 12.094 10.890 0.00 0.48691 0.04
3 -5 14 o 4.160 3.756 0.00 0.48687 0.01
3 5 -14 o 12.874 11.615 0.00 0.48688 0.04
5 -3 14 o 5.723 5.166 0.00 0.48687 0.02
1 -9 -10 o 1.748 1.667 0.00 0.48602 0.01
1 9 10 o 9.522 9.092 0.00 0.48599 0.03
9 -1 -10 o 7.831 7.508 0.00 0.48590 0.03
9 1 -10 o 0.659 0.633 0.00 0.48587 0.00
1 -9 10 o 7.899 7.597 0.00 0.48583 0.03
1 9 -10 o 1.059 1.018 0.00 0.48582 0.00
9 -1 10 o 6.319 6.083 0.00 0.48580 0.02
9 1 10 o 1.714 1.650 0.00 0.48580 0.01
6 -8 -8 o 9.519 9.213 0.00 0.48563 0.03
0 10 8 o 9.438 9.138 0.00 0.48561 0.03
8 -6 -8 o 14.156 13.711 0.00 0.48559 0.05
6 8 8 o 11.397 11.056 0.00 0.48549 0.04
6 -8 8 o 6.539 6.345 0.00 0.48546 0.02
10 0 -8 o 20.777 20.159 0.00 0.48548 0.07
0 10 -8 o 12.570 12.199 0.00 0.48545 0.04
8 -6 8 o 6.668 6.471 0.00 0.48544 0.02
8 6 8 o 11.002 10.678 0.00 0.48544 0.04
6 8 -8 o 13.859 13.452 0.00 0.48541 0.05
10 0 8 o 10.551 10.242 0.00 0.48540 0.04
8 6 -8 o 14.700 14.269 0.00 0.48541 0.05
3 -11 -2 o 2.026 1.953 0.00 0.48493 0.01
7 -9 -2 o 13.437 12.953 0.00 0.48493 0.04
9 -7 -2 o 9.102 8.765 0.00 0.48490 0.03
3 -11 2 o 2.925 2.815 0.00 0.48488 0.01
7 -9 2 o 12.405 11.938 0.00 0.48488 0.04
9 -7 2 o 9.157 8.804 0.00 0.48485 0.03
3 11 2 o 3.018 2.903 0.00 0.48486 0.01
3 11 -2 o 1.888 1.814 0.00 0.48482 0.01
11 -3 -2 o 6.040 5.802 0.00 0.48482 0.02
11 -3 2 o 5.860 5.622 0.00 0.48479 0.02
7 9 2 o 17.711 16.989 0.00 0.48479 0.06
7 9 -2 o 18.281 17.519 0.00 0.48477 0.06
9 7 2 o 18.697 17.910 0.00 0.48476 0.06
11 3 -2 o 0.294 0.282 0.00 0.48475 0.00
9 7 -2 o 18.425 17.641 0.00 0.48475 0.06
11 3 2 o 0.287 0.275 0.00 0.48474 0.00
0 2 16 o 6.185 5.325 0.00 0.48764 0.02
2 0 -16 o 10.075 8.684 0.00 0.48762 0.03
2 0 16 o 4.632 3.999 0.00 0.48759 0.02
0 2 -16 o 7.632 6.594 0.00 0.48757 0.03
0 7 13 o 0.197 0.183 0.00 0.48399 0.00
7 0 -13 o 0.001 0.001 0.00 0.48390 0.00
0 7 -13 o 0.384 0.353 0.00 0.48381 0.00
7 0 13 o 0.003 0.003 180.00 0.48381 0.00
3 -8 -11 o 0.036 0.033 0.00 0.48351 0.00
8 -3 -11 o 3.629 3.282 180.00 0.48343 0.01
3 8 11 o 7.183 6.497 180.00 0.48343 0.02
0 6 14 o 1.807 1.630 180.00 0.48336 0.01
3 -8 11 o 5.435 4.888 0.00 0.48330 0.02
8 3 -11 o 2.022 1.820 0.00 0.48332 0.01
8 3 11 o 0.409 0.368 0.00 0.48330 0.00
8 -3 11 o 1.589 1.428 180.00 0.48328 0.01
3 8 -11 o 0.005 0.005 180.00 0.48328 0.00
6 0 -14 o 0.078 0.070 180.00 0.48328 0.00
6 0 14 o 4.836 4.331 180.00 0.48320 0.02
0 6 -14 o 1.529 1.368 180.00 0.48319 0.01
3 -10 -7 o 3.928 3.436 180.00 0.48273 0.01
3 10 7 o 1.140 0.994 0.00 0.48265 0.00
10 -3 -7 o 3.469 3.020 0.00 0.48262 0.01
3 -10 7 o 1.081 0.939 180.00 0.48257 0.00
3 10 -7 o 5.282 4.580 0.00 0.48253 0.02
10 -3 7 o 3.794 3.288 0.00 0.48252 0.01
10 3 -7 o 0.059 0.051 180.00 0.48252 0.00
10 3 7 o 1.784 1.545 180.00 0.48250 0.01
0 11 5 o 1.475 1.273 0.00 0.48243 0.00
0 11 -5 o 0.066 0.056 180.00 0.48232 0.00
11 0 -5 o 0.014 0.012 0.00 0.48229 0.00
11 0 5 o 0.281 0.241 0.00 0.48224 0.00
4 -10 -6 o 0.587 0.503 180.00 0.48168 0.00
10 -4 -6 o 0.007 0.006 0.00 0.48159 0.00
4 10 6 o 0.263 0.226 0.00 0.48158 0.00
4 -10 6 o 0.894 0.769 180.00 0.48154 0.00
10 -4 6 o 1.171 1.009 180.00 0.48149 0.00
4 10 -6 o 0.105 0.091 0.00 0.48149 0.00
10 4 -6 o 0.016 0.014 0.00 0.48147 0.00
10 4 6 o 0.014 0.012 180.00 0.48146 0.00
2 -2 -16 o 21.404 19.521 0.00 0.48035 0.07
2 2 16 o 28.135 25.705 0.00 0.48031 0.09
2 2 -16 o 19.755 18.081 0.00 0.48028 0.06
2 -2 16 o 29.515 27.041 0.00 0.48026 0.09
0 8 12 o 16.053 15.474 0.00 0.47923 0.05
8 0 -12 o 9.350 9.058 0.00 0.47913 0.03
0 8 -12 o 15.212 14.792 0.00 0.47905 0.05
8 0 12 o 22.596 21.975 0.00 0.47904 0.07
2 -10 -8 o 13.216 13.126 0.00 0.47841 0.04
2 10 8 o 8.942 8.888 0.00 0.47836 0.03
10 -2 -8 o 8.006 7.963 0.00 0.47830 0.03
2 -10 8 o 13.411 13.347 0.00 0.47824 0.04
2 10 -8 o 9.139 9.096 0.00 0.47822 0.03
10 2 -8 o 8.327 8.288 0.00 0.47823 0.03
10 -2 8 o 17.023 16.947 0.00 0.47820 0.05
10 2 8 o 12.946 12.888 0.00 0.47819 0.04
8 -8 -4 o 14.759 14.685 0.00 0.47787 0.05
8 -8 4 o 19.215 19.100 0.00 0.47778 0.06
8 8 4 o 7.769 7.718 0.00 0.47773 0.02
8 8 -4 o 8.806 8.743 0.00 0.47769 0.03
6 -10 0 o 16.359 16.245 0.00 0.47768 0.05
10 -6 0 o 13.428 13.324 0.00 0.47763 0.04
6 10 0 o 6.667 6.610 0.00 0.47757 0.02
10 6 0 o 8.977 8.893 0.00 0.47752 0.03
3 -4 -15 o 0.080 0.080 180.00 0.47741 0.00
0 5 15 o 0.168 0.166 0.00 0.47740 0.00
4 -3 -15 o 3.649 3.606 180.00 0.47739 0.01
3 4 15 o 2.901 2.866 180.00 0.47735 0.01
5 0 -15 o 0.151 0.149 0.00 0.47734 0.00
4 3 15 o 0.065 0.064 180.00 0.47732 0.00
4 3 -15 o 2.626 2.592 0.00 0.47729 0.01
5 0 15 o 0.049 0.048 0.00 0.47727 0.00
3 4 -15 o 0.026 0.025 180.00 0.47727 0.00
4 -3 15 o 0.112 0.111 0.00 0.47726 0.00
3 -4 15 o 0.977 0.964 0.00 0.47725 0.00
0 5 -15 o 0.523 0.516 180.00 0.47726 0.00
2 -7 -13 o 2.245 2.211 0.00 0.47686 0.01
1 -3 -16 o 3.016 2.969 0.00 0.47682 0.01
2 7 13 o 0.560 0.551 0.00 0.47682 0.00
1 3 16 o 0.112 0.111 0.00 0.47680 0.00
3 -1 -16 o 1.285 1.265 0.00 0.47680 0.00
7 -2 -13 o 0.232 0.229 0.00 0.47679 0.00
3 1 -16 o 2.989 2.943 0.00 0.47676 0.01
3 1 16 o 0.452 0.445 0.00 0.47675 0.00
3 -1 16 o 1.945 1.916 0.00 0.47673 0.01
1 3 -16 o 3.378 3.326 0.00 0.47673 0.01
1 -3 16 o 0.856 0.843 0.00 0.47672 0.00
7 2 -13 o 0.034 0.033 180.00 0.47672 0.00
7 2 13 o 3.890 3.831 0.00 0.47669 0.01
2 -7 13 o 0.413 0.407 180.00 0.47667 0.00
2 7 -13 o 0.686 0.675 180.00 0.47666 0.00
7 -2 13 o 0.621 0.612 0.00 0.47666 0.00
2 -6 -14 o 0.351 0.347 0.00 0.47626 0.00
2 6 14 o 0.656 0.648 0.00 0.47621 0.00
6 -2 -14 o 0.456 0.451 180.00 0.47620 0.00
6 2 -14 o 0.669 0.662 180.00 0.47613 0.00
6 2 14 o 1.065 1.054 0.00 0.47611 0.00
2 -6 14 o 0.333 0.330 0.00 0.47607 0.00
6 -2 14 o 1.612 1.596 0.00 0.47608 0.00
2 6 -14 o 0.041 0.040 180.00 0.47608 0.00
4 -9 -9 o 1.780 1.765 0.00 0.47597 0.01
9 -4 -9 o 0.342 0.339 0.00 0.47590 0.00
4 9 9 o 0.319 0.316 0.00 0.47588 0.00
4 -9 9 o 0.116 0.115 180.00 0.47579 0.00
9 -4 9 o 0.236 0.234 0.00 0.47576 0.00
4 9 -9 o 0.119 0.118 180.00 0.47576 0.00
9 4 -9 o 0.812 0.806 180.00 0.47576 0.00
9 4 9 o 3.685 3.660 0.00 0.47576 0.01
7 -8 -7 o 0.143 0.142 180.00 0.47562 0.00
8 -7 -7 o 3.061 3.042 180.00 0.47561 0.01
7 -8 7 o 1.723 1.712 0.00 0.47548 0.01
8 -7 7 o 0.491 0.488 180.00 0.47547 0.00
7 8 7 o 3.918 3.892 180.00 0.47548 0.01
8 7 7 o 0.049 0.048 180.00 0.47546 0.00
7 8 -7 o 0.884 0.878 0.00 0.47542 0.00
8 7 -7 o 0.407 0.404 0.00 0.47541 0.00
5 -10 -5 o 2.864 2.844 0.00 0.47538 0.01
2 -11 -5 o 0.364 0.362 0.00 0.47537 0.00
2 11 5 o 0.381 0.378 0.00 0.47532 0.00
10 -5 -5 o 1.776 1.762 180.00 0.47530 0.01
5 -10 5 o 1.048 1.039 0.00 0.47526 0.00
2 -11 5 o 0.426 0.423 180.00 0.47526 0.00
5 10 5 o 0.059 0.059 180.00 0.47527 0.00
11 -2 -5 o 0.010 0.010 180.00 0.47525 0.00
2 11 -5 o 0.143 0.142 180.00 0.47523 0.00
10 -5 5 o 2.594 2.569 180.00 0.47521 0.01
5 10 -5 o 2.054 2.034 180.00 0.47519 0.01
11 -2 5 o 0.671 0.664 0.00 0.47518 0.00
11 2 -5 o 0.884 0.875 180.00 0.47519 0.00
10 5 5 o 1.243 1.231 0.00 0.47517 0.00
11 2 5 o 1.115 1.103 0.00 0.47516 0.00
10 5 -5 o 0.000 0.000 180.00 0.47517 0.00
4 -11 -1 o 0.695 0.687 0.00 0.47509 0.00
4 -11 1 o 0.095 0.094 180.00 0.47507 0.00
4 11 1 o 0.395 0.389 0.00 0.47501 0.00
11 -4 -1 o 0.022 0.022 180.00 0.47500 0.00
4 11 -1 o 0.480 0.473 180.00 0.47499 0.00
11 -4 1 o 0.003 0.003 0.00 0.47499 0.00
5 -9 -8 o 0.347 0.341 180.00 0.47493 0.00
11 4 -1 o 0.032 0.031 180.00 0.47492 0.00
11 4 1 o 1.465 1.440 0.00 0.47491 0.00
9 -5 -8 o 0.739 0.725 0.00 0.47487 0.00
5 9 8 o 0.031 0.030 180.00 0.47482 0.00
5 -9 8 o 0.143 0.140 0.00 0.47476 0.00
9 -5 8 o 0.486 0.474 0.00 0.47473 0.00
5 9 -8 o 0.725 0.707 180.00 0.47471 0.00
9 5 8 o 0.473 0.461 180.00 0.47473 0.00
9 5 -8 o 0.459 0.447 180.00 0.47471 0.00
3 -11 -4 o 0.093 0.089 180.00 0.47441 0.00
7 -9 -4 o 6.094 5.853 0.00 0.47441 0.02
9 -7 -4 o 4.065 3.899 0.00 0.47438 0.01
3 11 4 o 0.002 0.002 180.00 0.47434 0.00
3 -11 4 o 0.205 0.196 0.00 0.47432 0.00
7 -9 4 o 5.488 5.249 0.00 0.47431 0.02
9 -7 4 o 4.501 4.301 0.00 0.47429 0.01
11 -3 -4 o 2.738 2.618 0.00 0.47430 0.01
6 -10 -2 o 0.106 0.101 0.00 0.47427 0.00
3 11 -4 o 0.250 0.239 180.00 0.47427 0.00
7 9 4 o 4.685 4.471 0.00 0.47427 0.01
11 -3 4 o 2.390 2.278 0.00 0.47424 0.01
6 -10 2 o 0.130 0.124 0.00 0.47422 0.00
10 -6 -2 o 0.386 0.368 180.00 0.47422 0.00
7 9 -4 o 6.378 6.076 0.00 0.47422 0.02
9 7 4 o 6.262 5.967 0.00 0.47423 0.02
11 3 -4 o 0.255 0.243 180.00 0.47422 0.00
9 7 -4 o 7.083 6.743 0.00 0.47421 0.02
11 3 4 o 0.470 0.448 180.00 0.47421 0.00
10 -6 2 o 0.082 0.078 180.00 0.47418 0.00
6 10 2 o 0.209 0.199 180.00 0.47415 0.00
6 10 -2 o 0.206 0.195 180.00 0.47413 0.00
10 6 2 o 0.130 0.123 180.00 0.47409 0.00
10 6 -2 o 0.184 0.174 180.00 0.47408 0.00
2 -8 -12 o 6.409 6.426 0.00 0.47231 0.02
2 8 12 o 6.965 6.999 0.00 0.47226 0.02
8 -2 -12 o 17.199 17.311 0.00 0.47223 0.05
8 2 -12 o 16.839 16.998 0.00 0.47215 0.05
2 -8 12 o 7.875 7.961 0.00 0.47211 0.02
2 8 -12 o 11.512 11.640 0.00 0.47211 0.03
8 2 12 o 6.239 6.305 0.00 0.47212 0.02
8 -2 12 o 4.811 4.865 0.00 0.47210 0.01
3 -9 -10 o 13.035 13.256 0.00 0.47188 0.04
3 9 10 o 6.010 6.117 0.00 0.47181 0.02
9 -3 -10 o 2.724 2.773 0.00 0.47179 0.01
3 -9 10 o 4.126 4.203 0.00 0.47169 0.01
9 3 -10 o 11.528 11.744 0.00 0.47169 0.03
3 9 -10 o 13.267 13.516 0.00 0.47167 0.04
9 -3 10 o 3.910 3.984 0.00 0.47166 0.01
9 3 10 o 10.807 11.010 0.00 0.47167 0.03
1 -11 -6 o 9.375 9.520 0.00 0.47121 0.03
1 11 6 o 5.436 5.517 0.00 0.47119 0.02
1 -11 6 o 3.518 3.566 0.00 0.47108 0.01
1 11 -6 o 9.971 10.104 0.00 0.47107 0.03
11 -1 -6 o 1.106 1.121 0.00 0.47108 0.00
11 1 -6 o 10.024 10.155 0.00 0.47105 0.03
11 -1 6 o 1.352 1.369 0.00 0.47102 0.00
11 1 6 o 10.897 11.033 0.00 0.47101 0.03
2 -5 -15 o 2.146 2.163 180.00 0.47056 0.01
5 -2 -15 o 0.094 0.095 180.00 0.47052 0.00
2 5 15 o 0.377 0.380 180.00 0.47051 0.00
5 2 -15 o 0.011 0.011 0.00 0.47044 0.00
5 2 15 o 1.975 1.992 180.00 0.47044 0.01
5 -2 15 o 0.005 0.005 180.00 0.47040 0.00
2 5 -15 o 1.920 1.936 0.00 0.47040 0.01
2 -5 15 o 0.986 0.994 0.00 0.47039 0.00
0 9 11 o 0.233 0.236 180.00 0.46954 0.00
9 0 -11 o 0.029 0.029 0.00 0.46943 0.00
0 9 -11 o 0.040 0.041 0.00 0.46936 0.00
9 0 11 o 0.116 0.117 0.00 0.46935 0.00
1 -10 -9 o 5.953 6.025 0.00 0.46916 0.02
1 10 9 o 0.409 0.414 180.00 0.46913 0.00
10 -1 -9 o 1.314 1.328 180.00 0.46904 0.00
1 -10 9 o 1.351 1.365 0.00 0.46899 0.00
10 1 -9 o 1.053 1.064 0.00 0.46901 0.00
1 10 -9 o 3.640 3.676 180.00 0.46898 0.01
10 -1 9 o 1.141 1.152 180.00 0.46895 0.00
10 1 9 o 3.203 3.234 0.00 0.46895 0.01
6 -9 -7 o 1.426 1.438 180.00 0.46885 0.00
9 -6 -7 o 0.218 0.220 180.00 0.46880 0.00
6 -9 7 o 0.052 0.053 0.00 0.46870 0.00
6 9 7 o 0.155 0.156 180.00 0.46872 0.00
9 -6 7 o 0.092 0.092 0.00 0.46867 0.00
9 6 7 o 2.107 2.118 180.00 0.46866 0.01
6 9 -7 o 0.196 0.197 0.00 0.46864 0.00
9 6 -7 o 1.801 1.809 0.00 0.46863 0.01
4 -11 -3 o 0.156 0.156 180.00 0.46843 0.00
4 -11 3 o 0.723 0.723 0.00 0.46836 0.00
4 11 3 o 0.297 0.297 180.00 0.46834 0.00
11 -4 -3 o 0.000 0.000 0.00 0.46834 0.00
4 11 -3 o 0.218 0.218 0.00 0.46829 0.00
11 -4 3 o 0.058 0.058 180.00 0.46829 0.00
11 4 -3 o 2.091 2.086 0.00 0.46824 0.01
11 4 3 o 0.300 0.299 180.00 0.46823 0.00
0 4 16 o 20.152 19.822 0.00 0.46668 0.06
4 0 -16 o 13.450 13.233 0.00 0.46664 0.04
4 0 16 o 26.470 26.052 0.00 0.46659 0.08
0 4 -16 o 19.182 18.882 0.00 0.46657 0.05
6 -6 -12 o 12.833 12.541 0.00 0.46565 0.04
6 6 12 o 12.437 12.117 0.00 0.46554 0.04
6 -6 12 o 24.684 24.003 0.00 0.46547 0.07
6 6 -12 o 9.839 9.567 0.00 0.46547 0.03
0 1 17 o 3.137 2.935 0.00 0.46451 0.01
1 0 -17 o 0.526 0.492 0.00 0.46450 0.00
1 0 17 o 0.137 0.128 0.00 0.46449 0.00
0 1 -17 o 0.984 0.919 180.00 0.46448 0.00
6 -10 -4 o 15.069 14.037 0.00 0.46442 0.04
10 -6 -4 o 10.816 10.042 0.00 0.46436 0.03
6 -10 4 o 17.043 15.793 0.00 0.46433 0.05
10 -6 4 o 15.958 14.750 0.00 0.46429 0.04
6 10 4 o 6.054 5.600 0.00 0.46430 0.02
6 10 -4 o 7.333 6.761 0.00 0.46425 0.02
10 6 4 o 8.676 7.990 0.00 0.46423 0.02
0 12 0 o 7.016 6.451 0.00 0.46420 0.02
10 6 -4 o 9.157 8.428 0.00 0.46422 0.03
12 0 0 o 8.322 7.596 0.00 0.46409 0.02
5 -6 -13 o 0.387 0.339 0.00 0.46347 0.00
6 -5 -13 o 1.228 1.077 180.00 0.46346 0.00
3 -3 -16 o 0.382 0.335 0.00 0.46345 0.00
3 3 16 o 2.397 2.094 0.00 0.46339 0.01
5 6 13 o 0.409 0.357 180.00 0.46337 0.00
3 3 -16 o 0.040 0.035 0.00 0.46335 0.00
6 5 13 o 1.588 1.384 0.00 0.46335 0.00
3 -3 16 o 1.308 1.138 0.00 0.46332 0.00
5 -6 13 o 1.226 1.065 0.00 0.46328 0.00
6 -5 13 o 0.057 0.049 180.00 0.46328 0.00
6 5 -13 o 0.402 0.349 0.00 0.46329 0.00
5 6 -13 o 0.346 0.300 180.00 0.46329 0.00
2 -9 -11 o 0.514 0.441 180.00 0.46303 0.00
6 -7 -11 o 1.167 1.002 0.00 0.46303 0.00
7 -6 -11 o 0.006 0.005 0.00 0.46301 0.00
2 9 11 o 0.049 0.042 180.00 0.46298 0.00
9 -2 -11 o 0.021 0.018 0.00 0.46294 0.00
6 7 11 o 0.658 0.562 180.00 0.46290 0.00
7 6 11 o 0.584 0.499 0.00 0.46288 0.00
2 -9 11 o 0.992 0.845 0.00 0.46284 0.00
6 -7 11 o 0.548 0.467 0.00 0.46284 0.00
9 2 -11 o 1.043 0.890 0.00 0.46287 0.00
7 -6 11 o 0.149 0.127 180.00 0.46283 0.00
2 9 -11 o 0.825 0.703 0.00 0.46283 0.00
9 -2 11 o 0.462 0.393 180.00 0.46282 0.00
9 2 11 o 2.288 1.949 180.00 0.46283 0.01
7 6 -11 o 0.400 0.340 0.00 0.46282 0.00
6 7 -11 o 0.140 0.119 0.00 0.46282 0.00
5 -7 -12 o 5.362 4.498 0.00 0.46245 0.01
7 -5 -12 o 2.924 2.449 0.00 0.46242 0.01
5 7 12 o 1.373 1.146 0.00 0.46234 0.00
0 11 7 o 0.027 0.023 180.00 0.46232 0.00
7 5 12 o 2.867 2.387 0.00 0.46229 0.01
5 -7 12 o 2.766 2.299 0.00 0.46225 0.01
7 -5 12 o 3.292 2.735 0.00 0.46225 0.01
7 5 -12 o 8.224 6.835 0.00 0.46225 0.02
5 7 -12 o 8.390 6.969 0.00 0.46224 0.02
0 11 -7 o 0.885 0.733 0.00 0.46219 0.00
11 0 -7 o 0.977 0.809 0.00 0.46219 0.00
11 0 7 o 0.617 0.509 180.00 0.46213 0.00
8 -9 -1 o 3.023 2.454 0.00 0.46183 0.01
1 -12 -1 o 0.511 0.415 180.00 0.46183 0.00
9 -8 -1 o 0.448 0.363 0.00 0.46182 0.00
8 -9 1 o 0.582 0.472 0.00 0.46181 0.00
1 -12 1 o 6.587 5.340 180.00 0.46181 0.02
1 12 1 o 8.441 6.843 0.00 0.46181 0.02
9 -8 1 o 0.025 0.021 180.00 0.46180 0.00
1 12 -1 o 0.842 0.682 0.00 0.46179 0.00
12 -1 -1 o 1.931 1.558 0.00 0.46172 0.01
12 -1 1 o 3.395 2.737 0.00 0.46170 0.01
8 9 1 o 1.534 1.237 0.00 0.46171 0.00
8 9 -1 o 0.003 0.002 0.00 0.46170 0.00
12 1 -1 o 1.243 1.002 180.00 0.46169 0.00
12 1 1 o 0.303 0.244 180.00 0.46169 0.00
9 8 1 o 1.817 1.464 0.00 0.46169 0.00
9 8 -1 o 0.668 0.538 180.00 0.46169 0.00
8 -8 -6 o 0.017 0.013 180.00 0.46141 0.00
8 -8 6 o 0.280 0.222 0.00 0.46129 0.00
8 8 6 o 0.074 0.058 180.00 0.46126 0.00
8 8 -6 o 0.126 0.100 180.00 0.46122 0.00
0 12 2 o 0.143 0.112 180.00 0.46107 0.00
5 -11 0 o 5.269 4.151 0.00 0.46104 0.01
0 12 -2 o 0.253 0.199 180.00 0.46103 0.00
11 -5 0 o 2.010 1.583 0.00 0.46096 0.01
5 11 0 o 4.356 3.430 0.00 0.46094 0.01
12 0 -2 o 1.504 1.185 180.00 0.46095 0.00
12 0 2 o 0.899 0.708 180.00 0.46093 0.00
11 5 0 o 7.791 6.134 0.00 0.46087 0.02
2 -4 -16 o 7.899 6.333 0.00 0.46028 0.02
4 -2 -16 o 12.485 10.021 0.00 0.46026 0.03
2 4 16 o 4.942 3.970 0.00 0.46024 0.01
4 2 16 o 4.090 3.293 0.00 0.46019 0.01
4 2 -16 o 14.540 11.710 0.00 0.46019 0.04
2 4 -16 o 11.809 9.526 0.00 0.46016 0.03
4 -2 16 o 3.856 3.112 0.00 0.46015 0.01
2 -4 16 o 6.073 4.902 0.00 0.46015 0.02
1 -7 -14 o 13.160 10.887 0.00 0.45976 0.04
5 -5 -14 o 1.928 1.596 0.00 0.45975 0.01
1 7 14 o 2.354 1.951 0.00 0.45973 0.01
7 -1 -14 o 2.177 1.811 0.00 0.45968 0.01
5 5 14 o 5.406 4.506 0.00 0.45966 0.01
7 1 -14 o 9.683 8.077 0.00 0.45965 0.03
7 1 14 o 5.774 4.835 0.00 0.45959 0.02
1 -7 14 o 1.908 1.600 0.00 0.45958 0.01
5 -5 14 o 2.950 2.474 0.00 0.45958 0.01
5 5 -14 o 0.250 0.209 0.00 0.45959 0.00
1 7 -14 o 11.298 9.474 0.00 0.45958 0.03
7 -1 14 o 4.788 4.014 0.00 0.45958 0.01
7 -7 -10 o 1.196 1.060 0.00 0.45888 0.00
7 7 10 o 1.882 1.685 0.00 0.45874 0.01
7 -7 10 o 1.434 1.287 0.00 0.45871 0.00
7 7 -10 o 0.195 0.175 0.00 0.45868 0.00
4 -10 -8 o 7.517 6.800 0.00 0.45856 0.02
10 -4 -8 o 18.656 16.942 0.00 0.45848 0.05
4 10 8 o 11.443 10.394 0.00 0.45847 0.03
4 -10 8 o 8.389 7.639 0.00 0.45840 0.02
10 -4 8 o 8.679 7.914 0.00 0.45836 0.02
4 10 -8 o 13.107 11.951 0.00 0.45836 0.03
10 4 -8 o 15.358 14.004 0.00 0.45836 0.04
10 4 8 o 10.792 9.843 0.00 0.45835 0.03
3 -11 -6 o 1.421 1.298 0.00 0.45829 0.00
7 -9 -6 o 12.756 11.655 0.00 0.45829 0.03
9 -7 -6 o 8.099 7.404 0.00 0.45826 0.02
3 11 6 o 4.258 3.895 0.00 0.45822 0.01
1 -2 -17 o 0.309 0.282 0.00 0.45821 0.00
2 -1 -17 o 1.352 1.236 180.00 0.45820 0.00
1 2 17 o 0.133 0.122 0.00 0.45819 0.00
3 -11 6 o 3.874 3.545 0.00 0.45817 0.01
11 -3 -6 o 5.780 5.289 0.00 0.45819 0.02
7 -9 6 o 10.094 9.239 0.00 0.45816 0.03
2 1 17 o 0.072 0.066 180.00 0.45817 0.00
2 1 -17 o 3.520 3.219 0.00 0.45816 0.01
9 -7 6 o 8.269 7.569 0.00 0.45814 0.02
1 2 -17 o 0.109 0.100 180.00 0.45815 0.00
2 -1 17 o 1.631 1.491 0.00 0.45814 0.00
1 -2 17 o 0.716 0.655 0.00 0.45814 0.00
7 9 6 o 14.849 13.593 0.00 0.45815 0.04
3 11 -6 o 1.152 1.055 0.00 0.45813 0.00
11 -3 6 o 5.215 4.775 0.00 0.45811 0.01
9 7 6 o 16.296 14.920 0.00 0.45811 0.04
11 3 -6 o 0.451 0.413 0.00 0.45810 0.00
7 9 -6 o 16.213 14.845 0.00 0.45809 0.04
11 3 6 o 0.435 0.398 0.00 0.45808 0.00
9 7 -6 o 15.580 14.265 0.00 0.45808 0.04
5 -11 -2 o 12.908 11.815 0.00 0.45797 0.03
5 -11 2 o 10.936 10.005 0.00 0.45792 0.03
2 -12 0 o 10.851 9.925 0.00 0.45790 0.03
11 -5 -2 o 4.152 3.797 0.00 0.45789 0.01
11 -5 2 o 4.431 4.050 0.00 0.45786 0.01
2 12 0 o 13.739 12.559 0.00 0.45786 0.04
5 11 2 o 13.849 12.660 0.00 0.45787 0.04
5 11 -2 o 14.828 13.549 0.00 0.45784 0.04
12 -2 0 o 17.803 16.255 0.00 0.45780 0.05
11 5 2 o 15.919 14.530 0.00 0.45779 0.04
11 5 -2 o 14.961 13.656 0.00 0.45779 0.04
12 2 0 o 15.631 14.260 0.00 0.45776 0.04
1 -6 -15 o 0.033 0.030 0.00 0.45768 0.00
1 6 15 o 2.811 2.559 180.00 0.45766 0.01
6 -1 -15 o 2.726 2.480 180.00 0.45762 0.01
6 1 -15 o 2.578 2.344 0.00 0.45758 0.01
6 1 15 o 0.077 0.070 0.00 0.45754 0.00
6 -1 15 o 0.265 0.240 180.00 0.45752 0.00
1 -6 15 o 2.618 2.377 0.00 0.45752 0.01
1 6 -15 o 0.233 0.212 180.00 0.45752 0.00
4 -7 -13 o 0.157 0.142 180.00 0.45720 0.00
1 -8 -13 o 0.013 0.011 180.00 0.45719 0.00
1 8 13 o 6.023 5.455 0.00 0.45717 0.02
7 -4 -13 o 0.015 0.014 0.00 0.45715 0.00
4 7 13 o 1.079 0.978 0.00 0.45711 0.00
8 -1 -13 o 3.068 2.780 0.00 0.45710 0.01
8 1 -13 o 1.184 1.073 180.00 0.45706 0.00
7 4 13 o 0.171 0.155 180.00 0.45704 0.00
4 -7 13 o 0.045 0.041 0.00 0.45700 0.00
1 -8 13 o 2.939 2.667 180.00 0.45700 0.01
7 4 -13 o 0.001 0.001 180.00 0.45702 0.00
1 8 -13 o 0.666 0.605 0.00 0.45700 0.00
7 -4 13 o 0.277 0.252 0.00 0.45700 0.00
8 1 13 o 0.191 0.174 180.00 0.45701 0.00
8 -1 13 o 2.284 2.072 0.00 0.45700 0.01
4 7 -13 o 0.087 0.079 0.00 0.45700 0.00
5 -8 -11 o 0.377 0.344 180.00 0.45677 0.00
8 -5 -11 o 2.205 2.017 0.00 0.45672 0.01
4 -6 -14 o 0.545 0.500 180.00 0.45666 0.00
5 8 11 o 0.864 0.792 0.00 0.45666 0.00
6 -4 -14 o 0.074 0.068 180.00 0.45664 0.00
5 -8 11 o 0.691 0.636 180.00 0.45658 0.00
8 5 11 o 0.892 0.821 180.00 0.45659 0.00
8 -5 11 o 1.502 1.383 0.00 0.45657 0.00
4 6 14 o 0.606 0.558 180.00 0.45658 0.00
8 5 -11 o 0.005 0.004 0.00 0.45657 0.00
5 8 -11 o 1.328 1.223 0.00 0.45656 0.00
6 4 14 o 1.029 0.950 180.00 0.45653 0.00
6 4 -14 o 0.001 0.001 180.00 0.45650 0.00
4 -6 14 o 2.929 2.709 180.00 0.45648 0.01
6 -4 14 o 4.145 3.834 180.00 0.45648 0.01
4 6 -14 o 0.044 0.041 180.00 0.45648 0.00
3 -10 -9 o 0.004 0.003 180.00 0.45641 0.00
3 10 9 o 7.659 7.130 0.00 0.45634 0.02
10 -3 -9 o 3.119 2.907 0.00 0.45631 0.01
3 -10 9 o 4.267 3.992 180.00 0.45623 0.01
3 10 -9 o 0.097 0.091 0.00 0.45621 0.00
10 3 -9 o 0.454 0.425 180.00 0.45622 0.00
10 -3 9 o 3.474 3.255 0.00 0.45620 0.01
10 3 9 o 0.067 0.063 180.00 0.45619 0.00
5 -10 -7 o 0.011 0.010 0.00 0.45611 0.00
2 -11 -7 o 0.405 0.381 180.00 0.45610 0.00
2 11 7 o 0.482 0.454 180.00 0.45606 0.00
10 -5 -7 o 2.657 2.507 180.00 0.45604 0.01
5 10 7 o 4.653 4.396 180.00 0.45600 0.01
5 -10 7 o 4.495 4.253 0.00 0.45597 0.01
11 -2 -7 o 0.050 0.047 0.00 0.45599 0.00
2 -11 7 o 0.170 0.161 0.00 0.45596 0.00
2 11 -7 o 0.614 0.581 0.00 0.45594 0.00
10 -5 7 o 1.873 1.775 180.00 0.45593 0.00
11 2 -7 o 0.001 0.001 0.00 0.45593 0.00
5 10 -7 o 0.238 0.226 0.00 0.45591 0.00
11 -2 7 o 0.014 0.013 0.00 0.45591 0.00
10 5 7 o 0.008 0.008 0.00 0.45591 0.00
4 -11 -5 o 0.570 0.541 0.00 0.45588 0.00
10 5 -7 o 0.546 0.518 0.00 0.45590 0.00
11 2 7 o 0.037 0.035 180.00 0.45589 0.00
6 -8 -10 o 0.311 0.296 180.00 0.45581 0.00
4 -11 5 o 0.025 0.024 180.00 0.45577 0.00
0 10 10 o 0.020 0.019 180.00 0.45579 0.00
4 11 5 o 0.559 0.532 0.00 0.45579 0.00
11 -4 -5 o 0.002 0.002 180.00 0.45579 0.00
8 -6 -10 o 0.016 0.016 180.00 0.45578 0.00
4 11 -5 o 0.524 0.500 180.00 0.45572 0.00
11 -4 5 o 0.006 0.006 0.00 0.45571 0.00
8 -9 -3 o 0.553 0.528 0.00 0.45570 0.00
1 -12 -3 o 5.239 5.002 180.00 0.45570 0.01
9 -8 -3 o 0.001 0.000 0.00 0.45569 0.00
1 12 3 o 0.766 0.732 0.00 0.45568 0.00
6 8 10 o 0.051 0.049 0.00 0.45569 0.00
11 4 -5 o 0.036 0.035 0.00 0.45568 0.00
10 0 -10 o 0.214 0.204 0.00 0.45567 0.00
11 4 5 o 0.723 0.691 0.00 0.45568 0.00
8 -9 3 o 1.931 1.848 0.00 0.45564 0.01
1 -12 3 o 0.456 0.437 180.00 0.45564 0.00
6 -8 10 o 2.028 1.942 180.00 0.45563 0.01
9 -8 3 o 0.109 0.104 0.00 0.45563 0.00
0 10 -10 o 0.006 0.006 180.00 0.45562 0.00
7 -10 -1 o 0.040 0.039 0.00 0.45562 0.00
8 -6 10 o 2.472 2.368 180.00 0.45562 0.01
1 12 -3 o 6.105 5.844 0.00 0.45562 0.02
8 6 10 o 0.000 0.000 180.00 0.45564 0.00
7 -10 1 o 1.026 0.983 180.00 0.45560 0.00
6 8 -10 o 0.013 0.013 0.00 0.45560 0.00
10 0 10 o 0.554 0.531 180.00 0.45560 0.00
8 6 -10 o 0.011 0.011 0.00 0.45560 0.00
10 -7 -1 o 3.792 3.635 0.00 0.45558 0.01
10 -7 1 o 2.022 1.939 0.00 0.45556 0.01
12 -1 -3 o 2.087 2.000 0.00 0.45558 0.01
8 9 3 o 0.003 0.003 180.00 0.45557 0.00
12 1 -3 o 0.160 0.153 180.00 0.45556 0.00
12 -1 3 o 1.727 1.658 0.00 0.45555 0.00
9 8 3 o 0.182 0.174 180.00 0.45555 0.00
8 9 -3 o 1.348 1.294 0.00 0.45554 0.00
12 1 3 o 1.325 1.273 180.00 0.45554 0.00
9 8 -3 o 0.707 0.679 0.00 0.45553 0.00
7 10 1 o 2.747 2.640 0.00 0.45550 0.01
7 10 -1 o 0.104 0.100 180.00 0.45549 0.00
10 7 1 o 0.735 0.708 0.00 0.45546 0.00
10 7 -1 o 0.016 0.016 180.00 0.45546 0.00
2 -12 -2 o 0.026 0.025 0.00 0.45489 0.00
2 -12 2 o 0.032 0.032 0.00 0.45485 0.00
2 12 2 o 0.653 0.652 0.00 0.45485 0.00
2 12 -2 o 0.577 0.578 0.00 0.45482 0.00
12 -2 -2 o 0.161 0.162 0.00 0.45478 0.00
12 -2 2 o 0.022 0.022 0.00 0.45476 0.00
12 2 -2 o 0.121 0.122 0.00 0.45474 0.00
12 2 2 o 0.061 0.062 0.00 0.45473 0.00
4 -8 -12 o 11.645 13.184 0.00 0.45318 0.03
8 -4 -12 o 7.205 8.172 0.00 0.45313 0.02
4 8 12 o 8.361 9.491 0.00 0.45310 0.02
4 -8 12 o 15.374 17.499 0.00 0.45299 0.04
8 4 12 o 10.645 12.113 0.00 0.45300 0.03
8 4 -12 o 6.917 7.872 0.00 0.45300 0.02
8 -4 12 o 18.761 21.361 0.00 0.45298 0.05
4 8 -12 o 7.718 8.788 0.00 0.45297 0.02
3 12 1 o 0.032 0.037 180.00 0.44959 0.00
3 12 -1 o 2.932 3.340 180.00 0.44957 0.01
12 -3 -1 o 1.368 1.556 180.00 0.44955 0.00
12 -3 1 o 1.336 1.519 180.00 0.44953 0.00
12 3 -1 o 0.057 0.065 0.00 0.44949 0.00
12 3 1 o 0.931 1.055 0.00 0.44948 0.00
0 3 17 o 0.188 0.217 180.00 0.45214 0.00
3 0 -17 o 0.000 0.000 180.00 0.45211 0.00
3 0 17 o 0.133 0.154 0.00 0.45207 0.00
0 3 -17 o 1.625 1.874 0.00 0.45205 0.00
0 12 4 o 5.246 6.064 0.00 0.45200 0.01
0 12 -4 o 5.217 6.042 0.00 0.45192 0.01
12 0 -4 o 5.291 6.134 0.00 0.45187 0.01
12 0 4 o 6.962 8.081 0.00 0.45184 0.02
4 -5 -15 o 1.083 1.264 0.00 0.45163 0.00
5 -4 -15 o 0.002 0.002 0.00 0.45161 0.00
4 5 15 o 0.198 0.231 180.00 0.45155 0.00
5 4 15 o 0.479 0.560 0.00 0.45153 0.00
5 4 -15 o 0.307 0.360 0.00 0.45148 0.00
4 5 -15 o 0.220 0.257 180.00 0.45147 0.00
4 -5 15 o 0.008 0.010 180.00 0.45146 0.00
5 -4 15 o 0.170 0.199 180.00 0.45146 0.00
1 -5 -16 o 0.000 0.000 180.00 0.45114 0.00
1 5 16 o 2.416 2.855 0.00 0.45112 0.01
5 -1 -16 o 1.640 1.938 0.00 0.45109 0.00
5 1 -16 o 0.113 0.133 0.00 0.45106 0.00
5 1 16 o 1.251 1.479 0.00 0.45103 0.00
5 -1 16 o 0.546 0.646 0.00 0.45101 0.00
1 5 -16 o 0.030 0.035 0.00 0.45100 0.00
1 -5 16 o 2.206 2.611 0.00 0.45100 0.01
7 -8 -9 o 0.206 0.242 0.00 0.45039 0.00
8 -7 -9 o 0.556 0.654 180.00 0.45037 0.00
7 -8 9 o 0.464 0.544 0.00 0.45023 0.00
7 8 9 o 0.023 0.027 180.00 0.45026 0.00
8 -7 9 o 0.645 0.755 180.00 0.45022 0.00
8 7 9 o 0.689 0.807 0.00 0.45024 0.00
1 -9 -12 o 0.095 0.112 180.00 0.45020 0.00
7 8 -9 o 0.164 0.192 180.00 0.45019 0.00
8 7 -9 o 0.070 0.082 180.00 0.45019 0.00
1 9 12 o 1.513 1.769 0.00 0.45018 0.00
9 -1 -12 o 2.762 3.221 0.00 0.45010 0.01
9 1 -12 o 0.006 0.007 0.00 0.45007 0.00
1 -9 12 o 2.342 2.723 0.00 0.45002 0.01
1 9 -12 o 0.027 0.031 180.00 0.45001 0.00
9 1 12 o 0.090 0.104 0.00 0.45001 0.00
9 -1 12 o 1.493 1.735 0.00 0.45000 0.00
2 -10 -10 o 0.149 0.172 0.00 0.44983 0.00
2 10 10 o 0.005 0.006 0.00 0.44978 0.00
7 -10 -3 o 0.469 0.539 180.00 0.44973 0.00
10 -2 -10 o 1.314 1.509 180.00 0.44972 0.00
10 -7 -3 o 1.508 1.731 0.00 0.44969 0.00
7 -10 3 o 0.011 0.013 180.00 0.44967 0.00
2 -10 10 o 0.000 0.000 180.00 0.44965 0.00
3 -12 -1 o 4.755 5.442 0.00 0.44965 0.01
10 -7 3 o 2.741 3.135 0.00 0.44964 0.01
10 2 -10 o 0.877 1.004 180.00 0.44966 0.00
2 10 -10 o 0.141 0.161 180.00 0.44964 0.00
3 -12 1 o 0.752 0.859 0.00 0.44962 0.00
10 -2 10 o 0.076 0.087 0.00 0.44962 0.00
10 2 10 o 0.007 0.007 0.00 0.44962 0.00
7 10 3 o 0.002 0.002 180.00 0.44961 0.00
7 10 -3 o 1.410 1.608 0.00 0.44958 0.00
10 7 3 o 0.035 0.040 180.00 0.44956 0.00
10 7 -3 o 0.638 0.726 0.00 0.44955 0.00
1 -11 -8 o 1.799 2.041 0.00 0.44950 0.00
1 11 8 o 0.113 0.128 0.00 0.44948 0.00
11 -1 -8 o 0.093 0.104 0.00 0.44938 0.00
1 -11 8 o 0.127 0.143 0.00 0.44935 0.00
1 11 -8 o 2.735 3.070 0.00 0.44934 0.01
11 1 -8 o 4.039 4.538 0.00 0.44935 0.01
11 -1 8 o 0.096 0.108 0.00 0.44931 0.00
11 1 8 o 3.787 4.239 0.00 0.44930 0.01
6 -10 -6 o 0.097 0.108 0.00 0.44926 0.00
10 -6 -6 o 0.503 0.559 180.00 0.44921 0.00
6 -10 6 o 0.154 0.171 0.00 0.44914 0.00
6 10 6 o 0.096 0.106 180.00 0.44915 0.00
10 -6 6 o 0.014 0.015 0.00 0.44911 0.00
5 -11 -4 o 4.067 4.478 0.00 0.44908 0.01
6 10 -6 o 0.095 0.104 180.00 0.44908 0.00
10 6 6 o 0.034 0.037 180.00 0.44907 0.00
10 6 -6 o 0.124 0.136 180.00 0.44906 0.00
5 -11 4 o 2.848 3.116 0.00 0.44899 0.01
11 -5 -4 o 1.201 1.316 0.00 0.44900 0.00
5 11 4 o 2.179 2.382 0.00 0.44898 0.01
11 -5 4 o 1.520 1.657 0.00 0.44894 0.00
5 11 -4 o 3.637 3.960 0.00 0.44892 0.01
11 5 4 o 5.172 5.618 0.00 0.44888 0.01
11 5 -4 o 4.973 5.402 0.00 0.44888 0.01
3 -7 -14 o 0.740 0.797 0.00 0.44773 0.00
7 -3 -14 o 3.348 3.612 0.00 0.44768 0.01
3 7 14 o 6.017 6.494 0.00 0.44767 0.01
7 3 -14 o 0.348 0.376 0.00 0.44758 0.00
7 3 14 o 2.627 2.843 0.00 0.44758 0.01
3 -7 14 o 3.716 4.024 0.00 0.44755 0.01
7 -3 14 o 2.279 2.468 0.00 0.44754 0.01
3 7 -14 o 0.256 0.277 0.00 0.44755 0.00
5 -9 -10 o 0.485 0.535 0.00 0.44693 0.00
9 -5 -10 o 2.478 2.735 0.00 0.44687 0.01
5 9 10 o 2.766 3.056 0.00 0.44683 0.01
5 -9 10 o 1.816 2.010 0.00 0.44675 0.00
6 -11 -1 o 0.604 0.705 0.00 0.44390 0.00
9 -5 10 o 1.702 1.885 0.00 0.44673 0.00
6 -11 1 o 0.028 0.033 180.00 0.44388 0.00
9 5 10 o 0.792 0.877 0.00 0.44674 0.00
5 9 -10 o 0.264 0.292 0.00 0.44672 0.00
9 5 -10 o 0.259 0.287 0.00 0.44673 0.00
11 -6 -1 o 0.286 0.334 0.00 0.44384 0.00
11 -6 1 o 0.147 0.172 0.00 0.44383 0.00
6 11 1 o 1.129 1.319 0.00 0.44380 0.00
6 11 -1 o 0.019 0.022 0.00 0.44379 0.00
11 6 1 o 0.347 0.406 0.00 0.44374 0.00
11 6 -1 o 0.968 1.132 180.00 0.44374 0.00
2 -3 -17 o 3.087 3.440 0.00 0.44631 0.01
3 -2 -17 o 0.403 0.449 0.00 0.44630 0.00
2 3 17 o 1.082 1.206 0.00 0.44627 0.00
3 2 17 o 1.371 1.528 0.00 0.44625 0.00
3 2 -17 o 0.256 0.285 0.00 0.44623 0.00
2 3 -17 o 1.077 1.201 180.00 0.44622 0.00
3 -2 17 o 0.002 0.003 0.00 0.44621 0.00
2 -3 17 o 0.321 0.358 180.00 0.44620 0.00
2 -12 -4 o 7.567 8.433 0.00 0.44618 0.02
2 12 4 o 9.963 11.102 0.00 0.44614 0.02
2 -12 4 o 8.869 9.882 0.00 0.44610 0.02
2 12 -4 o 10.724 11.947 0.00 0.44607 0.03
12 -2 -4 o 15.291 17.034 0.00 0.44606 0.04
12 -2 4 o 11.507 12.814 0.00 0.44602 0.03
12 2 -4 o 12.854 14.314 0.00 0.44602 0.03
12 2 4 o 10.719 11.935 0.00 0.44599 0.03
3 -6 -15 o 0.283 0.315 180.00 0.44581 0.00
6 -3 -15 o 1.911 2.124 0.00 0.44578 0.00
3 6 15 o 0.530 0.589 0.00 0.44575 0.00
6 3 15 o 0.451 0.501 180.00 0.44569 0.00
6 3 -15 o 0.489 0.543 180.00 0.44568 0.00
3 -6 15 o 0.552 0.613 180.00 0.44564 0.00
6 -3 15 o 0.105 0.117 0.00 0.44564 0.00
3 6 -15 o 1.016 1.128 0.00 0.44565 0.00
3 -8 -13 o 1.488 1.653 0.00 0.44536 0.00
8 -3 -13 o 1.084 1.204 180.00 0.44530 0.00
3 8 13 o 0.303 0.337 180.00 0.44530 0.00
8 3 -13 o 0.508 0.566 0.00 0.44520 0.00
3 -8 13 o 1.293 1.441 0.00 0.44517 0.00
8 3 13 o 1.611 1.793 0.00 0.44519 0.00
8 -3 13 o 0.371 0.414 180.00 0.44516 0.00
3 8 -13 o 0.904 1.007 180.00 0.44516 0.00
4 -9 -11 o 0.028 0.031 0.00 0.44497 0.00
9 -4 -11 o 0.074 0.084 0.00 0.44490 0.00
4 9 11 o 0.362 0.408 180.00 0.44488 0.00
4 -9 11 o 0.068 0.077 0.00 0.44478 0.00
9 -4 11 o 0.009 0.010 0.00 0.44476 0.00
9 4 -11 o 0.007 0.008 0.00 0.44478 0.00
9 4 11 o 0.120 0.135 0.00 0.44477 0.00
4 9 -11 o 0.301 0.341 0.00 0.44476 0.00
6 -9 -9 o 0.018 0.020 180.00 0.44462 0.00
9 -6 -9 o 0.001 0.001 0.00 0.44458 0.00
6 9 9 o 0.546 0.626 0.00 0.44451 0.00
6 -9 9 o 0.092 0.106 180.00 0.44446 0.00
9 -6 9 o 0.068 0.078 0.00 0.44444 0.00
9 6 9 o 0.021 0.024 0.00 0.44445 0.00
6 9 -9 o 0.249 0.286 180.00 0.44442 0.00
9 6 -9 o 0.004 0.004 0.00 0.44442 0.00
8 -9 -5 o 2.106 2.449 0.00 0.44412 0.00
1 -12 -5 o 0.216 0.251 180.00 0.44412 0.00
9 -8 -5 o 0.582 0.677 0.00 0.44411 0.00
1 12 5 o 5.268 6.127 0.00 0.44410 0.01
8 -9 5 o 0.261 0.304 0.00 0.44403 0.00
1 -12 5 o 3.654 4.257 180.00 0.44403 0.01
9 -8 5 o 0.056 0.066 180.00 0.44402 0.00
1 12 -5 o 0.386 0.449 0.00 0.44401 0.00
3 -12 -3 o 0.465 0.542 0.00 0.44399 0.00
12 -1 -5 o 0.935 1.089 0.00 0.44400 0.00
8 9 5 o 0.771 0.898 0.00 0.44399 0.00
12 1 -5 o 0.444 0.517 180.00 0.44398 0.00
9 8 5 o 1.784 2.081 0.00 0.44397 0.00
12 -1 5 o 2.373 2.768 0.00 0.44395 0.01
3 -12 3 o 4.733 5.523 0.00 0.44392 0.01
8 9 -5 o 0.016 0.019 0.00 0.44395 0.00
12 1 5 o 0.214 0.250 180.00 0.44394 0.00
9 8 -5 o 0.764 0.892 180.00 0.44394 0.00
3 12 3 o 3.260 3.804 180.00 0.44393 0.01
12 -3 -3 o 1.058 1.235 180.00 0.44388 0.00
3 12 -3 o 0.000 0.001 180.00 0.44388 0.00
12 -3 3 o 1.606 1.876 180.00 0.44384 0.00
12 3 -3 o 0.632 0.738 0.00 0.44382 0.00
12 3 3 o 0.081 0.095 0.00 0.44380 0.00
4 -12 0 o 7.389 8.977 0.00 0.44040 0.02
4 12 0 o 3.159 3.837 0.00 0.44033 0.01
12 -4 0 o 5.741 6.973 0.00 0.44032 0.01
12 4 0 o 5.497 6.675 0.00 0.44025 0.01
4 -4 -16 o 9.733 11.748 0.00 0.44252 0.02
4 4 16 o 13.610 16.443 0.00 0.44245 0.03
4 4 -16 o 8.031 9.708 0.00 0.44240 0.02
4 -4 16 o 17.692 21.389 0.00 0.44238 0.04
6 -11 -3 o 0.011 0.014 180.00 0.43845 0.00
6 -11 3 o 0.388 0.473 0.00 0.43839 0.00
11 -6 -3 o 0.142 0.172 0.00 0.43839 0.00
11 -6 3 o 0.164 0.199 0.00 0.43834 0.00
6 11 3 o 0.000 0.000 0.00 0.43835 0.00
6 11 -3 o 1.220 1.481 0.00 0.43831 0.00
11 6 3 o 0.484 0.587 180.00 0.43828 0.00
11 6 -3 o 0.073 0.089 0.00 0.43827 0.00
8 -8 -8 o 8.169 9.947 0.00 0.44097 0.02
8 -8 8 o 13.444 16.368 0.00 0.44083 0.03
8 8 8 o 4.767 5.804 0.00 0.44083 0.01
8 8 -8 o 5.996 7.298 0.00 0.44078 0.01
1 -4 -17 o 0.143 0.174 0.00 0.44069 0.00
1 4 17 o 1.398 1.700 0.00 0.44068 0.00
4 -1 -17 o 2.908 3.537 0.00 0.44066 0.01
4 1 -17 o 1.109 1.349 180.00 0.44063 0.00
4 1 17 o 0.364 0.443 0.00 0.44061 0.00
4 -1 17 o 0.006 0.008 0.00 0.44059 0.00
1 4 -17 o 0.442 0.538 0.00 0.44058 0.00
1 -4 17 o 0.348 0.423 180.00 0.44058 0.00
4 -12 -2 o 0.030 0.036 0.00 0.43773 0.00
4 -12 2 o 0.007 0.008 0.00 0.43769 0.00
9 -9 0 o 0.016 0.019 180.00 0.43766 0.00
4 12 2 o 0.185 0.220 180.00 0.43765 0.00
12 -4 -2 o 0.844 1.003 180.00 0.43764 0.00
4 12 -2 o 0.184 0.218 180.00 0.43762 0.00
12 -4 2 o 0.434 0.516 180.00 0.43761 0.00
12 4 -2 o 0.185 0.219 180.00 0.43756 0.00
12 4 2 o 0.125 0.149 180.00 0.43755 0.00
9 9 0 o 0.519 0.617 180.00 0.43754 0.00
0 0 18 o 0.365 0.444 0.00 0.44023 0.00
0 7 15 o 0.376 0.456 180.00 0.44020 0.00
7 0 -15 o 0.028 0.034 0.00 0.44012 0.00
7 0 15 o 0.717 0.871 180.00 0.44005 0.00
0 7 -15 o 0.888 1.079 0.00 0.44004 0.00
3 -5 -16 o 2.575 3.140 0.00 0.43976 0.01
5 -3 -16 o 1.233 1.504 0.00 0.43974 0.00
3 5 16 o 0.089 0.109 0.00 0.43971 0.00
5 3 16 o 0.427 0.522 0.00 0.43966 0.00
5 3 -16 o 3.847 4.702 0.00 0.43965 0.01
3 5 -16 o 4.103 5.017 0.00 0.43962 0.01
3 -5 16 o 0.824 1.008 0.00 0.43961 0.00
5 -3 16 o 1.450 1.773 0.00 0.43961 0.00
1 -10 -11 o 0.288 0.354 0.00 0.43938 0.00
1 10 11 o 3.436 4.224 180.00 0.43936 0.01
0 8 14 o 0.316 0.388 0.00 0.43929 0.00
10 -1 -11 o 0.680 0.837 180.00 0.43928 0.00
10 1 -11 o 0.891 1.097 0.00 0.43925 0.00
1 -10 11 o 3.536 4.356 0.00 0.43921 0.01
1 10 -11 o 0.092 0.114 180.00 0.43920 0.00
8 0 -14 o 0.786 0.968 180.00 0.43920 0.00
10 -1 11 o 1.477 1.820 180.00 0.43919 0.00
10 1 11 o 0.660 0.813 0.00 0.43919 0.00
0 8 -14 o 0.001 0.001 180.00 0.43912 0.00
8 0 14 o 0.599 0.739 0.00 0.43912 0.00
0 11 9 o 0.818 1.009 0.00 0.43904 0.00
11 0 -9 o 0.082 0.101 0.00 0.43893 0.00
0 11 -9 o 0.020 0.025 180.00 0.43890 0.00
3 -9 -12 o 3.367 4.149 0.00 0.43890 0.01
11 0 9 o 0.053 0.066 0.00 0.43886 0.00
3 9 12 o 0.223 0.274 0.00 0.43883 0.00
9 -3 -12 o 0.547 0.673 0.00 0.43882 0.00
4 -11 -7 o 0.132 0.162 180.00 0.43880 0.00
3 -9 12 o 0.607 0.746 0.00 0.43871 0.00
9 3 -12 o 4.055 4.984 0.00 0.43873 0.01
4 11 7 o 0.085 0.104 180.00 0.43872 0.00
11 -4 -7 o 0.000 0.000 180.00 0.43872 0.00
3 9 -12 o 4.207 5.167 0.00 0.43870 0.01
9 3 12 o 2.428 2.984 0.00 0.43871 0.01
9 -3 12 o 1.094 1.343 0.00 0.43869 0.00
4 -11 7 o 0.519 0.637 0.00 0.43867 0.00
11 -4 7 o 0.072 0.089 180.00 0.43862 0.00
4 11 -7 o 0.074 0.091 0.00 0.43863 0.00
7 -10 -5 o 0.205 0.251 0.00 0.43859 0.00
11 4 -7 o 1.793 2.198 0.00 0.43861 0.00
11 4 7 o 0.520 0.637 180.00 0.43860 0.00
10 -7 -5 o 2.621 3.208 0.00 0.43855 0.01
7 -10 5 o 0.967 1.181 180.00 0.43850 0.00
10 -7 5 o 1.336 1.631 0.00 0.43847 0.00
7 10 5 o 2.564 3.129 0.00 0.43847 0.01
7 10 -5 o 0.243 0.296 180.00 0.43842 0.00
10 7 5 o 0.442 0.538 0.00 0.43842 0.00
10 7 -5 o 0.000 0.001 180.00 0.43840 0.00
3 -11 -8 o 0.152 0.184 180.00 0.43825 0.00
7 -9 -8 o 3.743 4.526 0.00 0.43824 0.01
9 -7 -8 o 2.303 2.782 0.00 0.43821 0.01
3 11 8 o 0.065 0.079 0.00 0.43818 0.00
11 -3 -8 o 1.873 2.257 0.00 0.43815 0.00
3 -11 8 o 0.541 0.651 0.00 0.43810 0.00
7 -9 8 o 3.091 3.717 0.00 0.43810 0.01
7 9 8 o 2.318 2.790 0.00 0.43811 0.01
9 -7 8 o 2.870 3.449 0.00 0.43808 0.01
3 11 -8 o 0.177 0.213 180.00 0.43807 0.00
9 7 8 o 3.381 4.063 0.00 0.43808 0.01
11 -3 8 o 1.397 1.677 0.00 0.43805 0.00
11 3 -8 o 0.029 0.035 180.00 0.43807 0.00
7 9 -8 o 4.214 5.058 0.00 0.43805 0.01
11 3 8 o 0.184 0.220 180.00 0.43804 0.00
9 7 -8 o 4.301 5.162 0.00 0.43804 0.01
0 12 6 o 0.010 0.012 180.00 0.43799 0.00
0 12 -6 o 0.147 0.175 180.00 0.43788 0.00
9 -9 -2 o 0.493 0.599 0.00 0.43503 0.00
12 0 -6 o 1.023 1.221 180.00 0.43787 0.00
9 -9 2 o 0.451 0.547 0.00 0.43499 0.00
8 -10 0 o 5.374 6.526 0.00 0.43499 0.01
10 -8 0 o 7.242 8.794 0.00 0.43497 0.02
12 0 6 o 0.172 0.205 180.00 0.43782 0.00
9 9 2 o 0.578 0.702 0.00 0.43491 0.00
9 9 -2 o 0.516 0.627 0.00 0.43489 0.00
8 10 0 o 7.447 9.045 0.00 0.43488 0.02
10 8 0 o 7.068 8.586 0.00 0.43486 0.02
1 -1 -18 o 2.233 2.652 0.00 0.43752 0.00
1 1 18 o 4.207 4.997 0.00 0.43751 0.01
1 1 -18 o 2.164 2.571 0.00 0.43749 0.00
1 -1 18 o 2.564 3.045 0.00 0.43748 0.01
0 6 16 o 3.680 4.371 0.00 0.43704 0.01
6 0 -16 o 10.585 12.576 0.00 0.43698 0.02
6 0 16 o 2.392 2.842 0.00 0.43691 0.01
0 6 -16 o 6.124 7.277 0.00 0.43690 0.01
5 -11 -6 o 9.457 11.456 0.00 0.43533 0.02
8 -10 -2 o 0.226 0.251 180.00 0.43241 0.00
11 -5 -6 o 2.613 3.168 0.00 0.43526 0.01
10 -8 -2 o 0.047 0.053 180.00 0.43239 0.00
5 -11 6 o 5.824 7.061 0.00 0.43522 0.01
8 -10 2 o 0.390 0.432 180.00 0.43237 0.00
5 11 6 o 8.147 9.877 0.00 0.43524 0.02
10 -8 2 o 0.217 0.240 180.00 0.43235 0.00
11 -5 6 o 3.177 3.853 0.00 0.43517 0.01
5 11 -6 o 9.896 12.003 0.00 0.43516 0.02
11 5 6 o 10.467 12.697 0.00 0.43514 0.02
11 5 -6 o 8.738 10.599 0.00 0.43514 0.02
8 10 2 o 0.395 0.434 0.00 0.43229 0.00
8 10 -2 o 0.227 0.249 0.00 0.43227 0.00
10 8 2 o 0.159 0.175 0.00 0.43226 0.00
10 8 -2 o 0.077 0.085 0.00 0.43226 0.00
0 2 18 o 1.103 1.337 180.00 0.43485 0.00
2 0 -18 o 0.447 0.542 180.00 0.43484 0.00
2 -7 -15 o 0.104 0.126 0.00 0.43482 0.00
2 0 18 o 1.840 2.232 180.00 0.43481 0.00
0 2 -18 o 0.973 1.180 180.00 0.43480 0.00
2 7 15 o 0.092 0.112 180.00 0.43478 0.00
7 -2 -15 o 0.043 0.052 0.00 0.43476 0.00
7 2 -15 o 0.034 0.042 0.00 0.43470 0.00
7 2 15 o 0.253 0.307 0.00 0.43467 0.00
2 -7 15 o 0.041 0.050 180.00 0.43465 0.00
7 -2 15 o 0.005 0.006 0.00 0.43465 0.00
2 7 -15 o 0.025 0.030 180.00 0.43465 0.00
0 9 13 o 0.352 0.428 0.00 0.43438 0.00
9 0 -13 o 0.034 0.042 180.00 0.43428 0.00
0 9 -13 o 0.234 0.286 180.00 0.43421 0.00
9 0 13 o 1.403 1.710 0.00 0.43420 0.00
2 -8 -14 o 0.267 0.325 180.00 0.43394 0.00
2 8 14 o 0.089 0.108 180.00 0.43390 0.00
8 -2 -14 o 0.104 0.127 0.00 0.43387 0.00
8 2 -14 o 0.093 0.113 0.00 0.43381 0.00
2 -8 14 o 0.426 0.517 180.00 0.43376 0.00
8 2 14 o 0.613 0.745 180.00 0.43377 0.00
2 8 -14 o 0.008 0.010 180.00 0.43376 0.00
8 -2 14 o 1.683 2.044 180.00 0.43376 0.00
5 -10 -9 o 1.122 1.362 0.00 0.43372 0.00
2 -11 -9 o 0.226 0.275 0.00 0.43371 0.00
2 11 9 o 0.142 0.172 0.00 0.43367 0.00
10 -5 -9 o 0.728 0.881 180.00 0.43365 0.00
5 10 9 o 0.086 0.104 180.00 0.43362 0.00
11 -2 -9 o 0.008 0.009 180.00 0.43360 0.00
5 -10 9 o 0.886 1.069 0.00 0.43356 0.00
2 -11 9 o 0.225 0.271 180.00 0.43355 0.00
2 11 -9 o 0.034 0.041 180.00 0.43354 0.00
10 -5 9 o 1.119 1.347 180.00 0.43353 0.00
11 2 -9 o 0.687 0.828 180.00 0.43355 0.00
5 10 -9 o 0.592 0.713 180.00 0.43352 0.00
11 -2 9 o 0.631 0.759 0.00 0.43351 0.00
10 5 9 o 0.818 0.985 0.00 0.43352 0.00
10 5 -9 o 0.001 0.002 180.00 0.43352 0.00
11 2 9 o 1.161 1.396 0.00 0.43351 0.00
3 -12 -5 o 3.459 4.098 0.00 0.43326 0.01
4 -10 -10 o 0.126 0.149 180.00 0.43321 0.00
3 12 5 o 0.067 0.079 180.00 0.43320 0.00
3 -12 5 o 0.806 0.948 0.00 0.43316 0.00
12 -3 -5 o 0.748 0.879 180.00 0.43315 0.00
10 -4 -10 o 0.198 0.232 0.00 0.43313 0.00
3 12 -5 o 1.813 2.126 180.00 0.43312 0.00
4 10 10 o 0.252 0.295 0.00 0.43313 0.00
12 -3 5 o 1.150 1.346 180.00 0.43309 0.00
12 3 -5 o 0.024 0.028 0.00 0.43308 0.00
4 -10 10 o 0.280 0.327 180.00 0.43304 0.00
12 3 5 o 0.958 1.119 0.00 0.43307 0.00
10 -4 10 o 0.753 0.875 180.00 0.43301 0.00
4 10 -10 o 0.104 0.121 0.00 0.43301 0.00
10 4 -10 o 0.081 0.095 0.00 0.43302 0.00
10 4 10 o 0.000 0.000 0.00 0.43301 0.00
4 -12 -4 o 8.868 8.380 0.00 0.42995 0.02
4 -12 4 o 8.794 8.262 0.00 0.42987 0.02
4 12 4 o 3.478 3.268 0.00 0.42987 0.01
12 -4 -4 o 5.588 5.243 0.00 0.42986 0.01
2 -12 -6 o 0.029 0.033 0.00 0.43269 0.00
4 12 -4 o 4.310 4.031 0.00 0.42981 0.01
12 -4 4 o 8.476 7.919 0.00 0.42980 0.02
2 12 6 o 0.586 0.663 0.00 0.43265 0.00
12 4 -4 o 6.641 6.187 0.00 0.42977 0.01
2 -12 6 o 0.054 0.061 0.00 0.43258 0.00
12 4 4 o 6.654 6.195 0.00 0.42976 0.01
12 -2 -6 o 0.370 0.416 0.00 0.43258 0.00
2 12 -6 o 0.436 0.489 0.00 0.43255 0.00
12 2 -6 o 0.197 0.221 0.00 0.43253 0.00
12 -2 6 o 0.001 0.001 180.00 0.43251 0.00
12 2 6 o 0.039 0.043 0.00 0.43250 0.00
2 -6 -16 o 11.879 12.528 0.00 0.43177 0.03
2 6 16 o 12.399 13.036 0.00 0.43173 0.03
6 -2 -16 o 7.364 7.737 0.00 0.43173 0.02
6 2 -16 o 6.978 7.293 0.00 0.43166 0.01
6 2 16 o 15.757 16.446 0.00 0.43165 0.03
2 -6 16 o 14.438 15.025 0.00 0.43161 0.03
6 -2 16 o 19.521 20.323 0.00 0.43162 0.04
2 6 -16 o 9.505 9.895 0.00 0.43162 0.02
6 -11 -5 o 0.941 0.778 0.00 0.42811 0.00
11 -6 -5 o 0.519 0.429 0.00 0.42805 0.00
6 -11 5 o 0.063 0.052 180.00 0.42802 0.00
6 11 5 o 1.057 0.872 0.00 0.42801 0.00
11 -6 5 o 0.184 0.152 0.00 0.42798 0.00
6 11 -5 o 0.078 0.064 0.00 0.42795 0.00
5 -12 -1 o 0.055 0.046 180.00 0.42790 0.00
11 6 5 o 0.993 0.820 0.00 0.42793 0.00
11 6 -5 o 1.758 1.451 180.00 0.42792 0.00
5 -12 1 o 2.848 2.348 180.00 0.42788 0.01
0 13 1 o 0.236 0.195 0.00 0.42788 0.00
0 13 -1 o 0.331 0.273 180.00 0.42786 0.00
12 -5 -1 o 2.969 2.449 0.00 0.42783 0.01
12 -5 1 o 2.585 2.132 0.00 0.42781 0.01
5 12 1 o 3.441 2.838 0.00 0.42782 0.01
5 12 -1 o 0.000 0.000 180.00 0.42781 0.00
13 0 -1 o 0.567 0.468 180.00 0.42777 0.00
13 0 1 o 0.098 0.081 0.00 0.42776 0.00
12 5 -1 o 0.057 0.047 180.00 0.42774 0.00
12 5 1 o 0.326 0.269 0.00 0.42774 0.00
6 -10 -8 o 10.673 10.318 0.00 0.43033 0.02
10 -6 -8 o 6.717 6.478 0.00 0.43028 0.01
9 -9 -4 o 0.012 0.010 180.00 0.42739 0.00
6 10 8 o 4.384 4.215 0.00 0.43022 0.01
6 -10 8 o 13.331 12.796 0.00 0.43019 0.03
10 -6 8 o 14.016 13.434 0.00 0.43016 0.03
9 -9 4 o 0.005 0.004 180.00 0.42732 0.00
6 10 -8 o 6.172 5.908 0.00 0.43014 0.01
10 6 8 o 6.431 6.159 0.00 0.43015 0.01
10 6 -8 o 7.130 6.822 0.00 0.43013 0.01
7 -11 0 o 0.172 0.145 180.00 0.42725 0.00
1 -13 0 o 0.405 0.341 0.00 0.42724 0.00
3 -4 -17 o 0.232 0.221 0.00 0.43007 0.00
9 9 4 o 0.642 0.541 180.00 0.42726 0.00
0 5 17 o 1.645 1.567 0.00 0.43006 0.00
4 -3 -17 o 0.989 0.942 180.00 0.43006 0.00
1 13 0 o 0.040 0.034 0.00 0.42722 0.00
9 9 -4 o 0.478 0.404 180.00 0.42723 0.00
11 -7 0 o 0.328 0.277 0.00 0.42721 0.00
3 4 17 o 0.026 0.024 180.00 0.43002 0.00
5 0 -17 o 0.180 0.171 0.00 0.43001 0.00
4 3 17 o 0.256 0.243 0.00 0.43000 0.00
4 3 -17 o 1.561 1.478 0.00 0.42997 0.00
5 0 17 o 0.916 0.867 0.00 0.42996 0.00
3 4 -17 o 0.179 0.169 180.00 0.42996 0.00
7 11 0 o 0.470 0.398 180.00 0.42715 0.00
4 -3 17 o 0.398 0.376 0.00 0.42994 0.00
0 5 -17 o 0.715 0.675 180.00 0.42994 0.00
3 -4 17 o 0.816 0.771 0.00 0.42994 0.00
13 -1 0 o 3.994 3.389 0.00 0.42714 0.01
13 1 0 o 0.014 0.012 180.00 0.42712 0.00
11 7 0 o 0.494 0.420 180.00 0.42711 0.00
2 -2 -18 o 0.125 0.115 0.00 0.42966 0.00
2 2 18 o 1.173 1.080 0.00 0.42963 0.00
2 2 -18 o 0.004 0.003 0.00 0.42960 0.00
2 -2 18 o 0.886 0.812 0.00 0.42959 0.00
2 -9 -13 o 0.195 0.173 0.00 0.42921 0.00
6 -7 -13 o 3.204 2.833 0.00 0.42920 0.01
7 -6 -13 o 0.839 0.741 0.00 0.42919 0.00
2 9 13 o 0.862 0.760 0.00 0.42917 0.00
9 -2 -13 o 0.022 0.019 0.00 0.42913 0.00
6 7 13 o 0.113 0.099 0.00 0.42910 0.00
7 6 13 o 5.163 4.515 0.00 0.42908 0.01
9 2 -13 o 0.110 0.096 0.00 0.42907 0.00
2 -9 13 o 0.067 0.058 0.00 0.42903 0.00
6 -7 13 o 0.033 0.028 0.00 0.42903 0.00
7 -6 13 o 0.188 0.164 180.00 0.42902 0.00
2 9 -13 o 0.000 0.000 0.00 0.42902 0.00
9 2 13 o 0.014 0.012 180.00 0.42903 0.00
9 -2 13 o 0.010 0.009 0.00 0.42902 0.00
7 6 -13 o 0.441 0.384 180.00 0.42903 0.00
6 7 -13 o 0.102 0.089 180.00 0.42902 0.00
3 -10 -11 o 1.728 1.484 180.00 0.42885 0.00
3 10 11 o 0.790 0.675 0.00 0.42879 0.00
10 -3 -11 o 1.651 1.409 0.00 0.42877 0.00
6 -6 -14 o 0.013 0.011 180.00 0.42876 0.00
3 -10 11 o 0.753 0.639 180.00 0.42868 0.00
10 3 -11 o 0.007 0.006 180.00 0.42868 0.00
3 10 -11 o 2.327 1.971 0.00 0.42866 0.00
10 -3 11 o 1.981 1.677 0.00 0.42865 0.00
10 3 11 o 1.133 0.960 180.00 0.42866 0.00
6 6 14 o 0.239 0.203 0.00 0.42866 0.00
6 -6 14 o 1.058 0.892 0.00 0.42859 0.00
6 6 -14 o 0.249 0.210 180.00 0.42860 0.00
7 -7 -12 o 0.018 0.015 0.00 0.42838 0.00
8 -9 -7 o 0.538 0.447 0.00 0.42829 0.00
1 -12 -7 o 4.222 3.507 180.00 0.42829 0.01
9 -8 -7 o 0.040 0.033 0.00 0.42828 0.00
1 12 7 o 0.690 0.573 0.00 0.42827 0.00
7 7 12 o 0.011 0.009 180.00 0.42826 0.00
7 -7 12 o 0.236 0.196 0.00 0.42821 0.00
7 7 -12 o 0.311 0.258 180.00 0.42819 0.00
8 -9 7 o 1.224 1.013 0.00 0.42817 0.00
1 -12 7 o 0.362 0.300 180.00 0.42817 0.00
9 -8 7 o 0.007 0.005 0.00 0.42816 0.00
1 12 -7 o 4.578 3.788 0.00 0.42816 0.01
12 -1 -7 o 1.260 1.043 0.00 0.42817 0.00
8 9 7 o 0.022 0.018 180.00 0.42816 0.00
12 1 -7 o 0.059 0.048 180.00 0.42815 0.00
9 8 7 o 0.013 0.011 180.00 0.42814 0.00
12 -1 7 o 1.622 1.340 0.00 0.42811 0.00
8 9 -7 o 1.282 1.059 0.00 0.42811 0.00
12 1 7 o 1.386 1.146 180.00 0.42810 0.00
9 8 -7 o 0.208 0.172 0.00 0.42810 0.00
8 -10 -4 o 6.799 6.503 0.00 0.42490 0.01
10 -8 -4 o 9.782 9.354 0.00 0.42488 0.02
8 -10 4 o 5.893 5.635 0.00 0.42483 0.01
10 -8 4 o 7.262 6.944 0.00 0.42481 0.01
7 -11 -2 o 0.466 0.445 0.00 0.42481 0.00
1 -13 -2 o 4.171 3.989 0.00 0.42479 0.01
7 -11 2 o 0.575 0.550 0.00 0.42477 0.00
1 13 2 o 3.961 3.787 0.00 0.42478 0.01
11 -7 -2 o 1.739 1.663 0.00 0.42476 0.00
1 -13 2 o 5.140 4.915 0.00 0.42476 0.01
8 10 4 o 9.106 8.708 0.00 0.42478 0.02
1 13 -2 o 2.880 2.754 0.00 0.42474 0.01
11 -7 2 o 1.511 1.445 0.00 0.42473 0.00
8 10 -4 o 8.419 8.051 0.00 0.42475 0.02
10 8 4 o 8.515 8.144 0.00 0.42475 0.02
10 8 -4 o 8.164 7.809 0.00 0.42473 0.02
7 11 2 o 1.255 1.200 0.00 0.42470 0.00
13 -1 -2 o 6.844 6.546 0.00 0.42469 0.01
7 11 -2 o 1.017 0.973 0.00 0.42468 0.00
13 -1 2 o 7.183 6.871 0.00 0.42467 0.01
13 1 -2 o 0.702 0.672 0.00 0.42467 0.00
13 1 2 o 0.602 0.576 0.00 0.42465 0.00
11 7 2 o 0.546 0.522 0.00 0.42465 0.00
11 7 -2 o 0.600 0.574 0.00 0.42464 0.00
1 -3 -18 o 6.860 5.839 0.00 0.42713 0.01
1 3 18 o 1.881 1.602 0.00 0.42712 0.00
3 -1 -18 o 3.551 3.026 0.00 0.42712 0.01
3 1 -18 o 5.661 4.834 0.00 0.42709 0.01
3 1 18 o 2.429 2.076 0.00 0.42708 0.00
3 -1 18 o 4.741 4.057 0.00 0.42706 0.01
1 3 -18 o 6.112 5.231 0.00 0.42706 0.01
1 -3 18 o 2.655 2.274 0.00 0.42705 0.01
5 -7 -14 o 9.087 8.341 0.00 0.42625 0.02
7 -5 -14 o 5.178 4.762 0.00 0.42623 0.01
7 -10 -7 o 0.154 0.162 180.00 0.42333 0.00
5 7 14 o 5.508 5.092 0.00 0.42616 0.01
10 -7 -7 o 1.104 1.168 0.00 0.42329 0.00
7 5 14 o 6.916 6.415 0.00 0.42612 0.01
5 -7 14 o 4.344 4.043 0.00 0.42608 0.01
7 -5 14 o 5.001 4.656 0.00 0.42607 0.01
7 5 -14 o 10.368 9.641 0.00 0.42609 0.02
5 7 -14 o 11.299 10.516 0.00 0.42607 0.02
7 -10 7 o 0.103 0.110 180.00 0.42320 0.00
7 10 7 o 0.028 0.030 0.00 0.42321 0.00
10 -7 7 o 1.889 2.035 0.00 0.42318 0.00
10 7 7 o 0.051 0.055 180.00 0.42316 0.00
7 10 -7 o 0.618 0.671 0.00 0.42314 0.00
10 7 -7 o 0.553 0.601 0.00 0.42313 0.00
6 -8 -12 o 7.312 6.891 0.00 0.42588 0.01
5 -12 -3 o 1.554 1.730 180.00 0.42301 0.00
0 10 12 o 6.119 5.771 0.00 0.42586 0.01
8 -6 -12 o 11.128 10.501 0.00 0.42585 0.02
0 13 3 o 0.358 0.401 180.00 0.42299 0.00
5 -12 3 o 0.158 0.178 180.00 0.42296 0.00
0 13 -3 o 0.249 0.282 0.00 0.42294 0.00
2 -13 -1 o 0.901 1.022 0.00 0.42293 0.00
12 -5 -3 o 1.426 1.612 0.00 0.42294 0.00
2 -13 1 o 0.000 0.000 180.00 0.42291 0.00
5 12 3 o 0.025 0.028 0.00 0.42293 0.00
6 8 12 o 7.579 7.179 0.00 0.42577 0.02
10 0 -12 o 15.595 14.779 0.00 0.42576 0.03
12 -5 3 o 2.138 2.440 0.00 0.42290 0.00
2 13 1 o 0.336 0.384 0.00 0.42289 0.00
5 12 -3 o 1.755 2.005 0.00 0.42289 0.00
2 13 -1 o 0.168 0.193 180.00 0.42288 0.00
6 -8 12 o 4.565 4.335 0.00 0.42570 0.01
8 6 12 o 7.248 6.876 0.00 0.42573 0.01
0 10 -12 o 9.383 8.912 0.00 0.42570 0.02
13 0 -3 o 0.002 0.002 0.00 0.42288 0.00
8 -6 12 o 4.067 3.864 0.00 0.42569 0.01
13 0 3 o 0.227 0.262 180.00 0.42285 0.00
8 6 -12 o 10.795 10.256 0.00 0.42569 0.02
10 0 12 o 6.153 5.847 0.00 0.42568 0.01
6 8 -12 o 10.065 9.565 0.00 0.42568 0.02
12 5 -3 o 0.258 0.298 0.00 0.42284 0.00
13 -2 -1 o 0.001 0.002 0.00 0.42283 0.00
12 5 3 o 0.074 0.086 180.00 0.42284 0.00
13 -2 1 o 0.263 0.306 0.00 0.42282 0.00
13 2 -1 o 0.043 0.051 0.00 0.42279 0.00
13 2 1 o 1.228 1.435 0.00 0.42279 0.00
1 -11 -10 o 9.166 8.744 0.00 0.42554 0.02
1 11 10 o 3.572 3.409 0.00 0.42552 0.01
11 -1 -10 o 1.151 1.100 0.00 0.42544 0.00
1 -11 10 o 2.023 1.935 0.00 0.42539 0.00
11 1 -10 o 7.405 7.079 0.00 0.42541 0.01
1 11 -10 o 8.969 8.577 0.00 0.42538 0.02
11 -1 10 o 1.582 1.513 0.00 0.42536 0.00
11 1 10 o 8.252 7.893 0.00 0.42535 0.02
2 -5 -17 o 0.209 0.200 180.00 0.42504 0.00
5 -2 -17 o 0.010 0.009 0.00 0.42501 0.00
2 5 17 o 0.099 0.094 0.00 0.42501 0.00
5 2 -17 o 0.003 0.003 180.00 0.42495 0.00
5 2 17 o 0.013 0.012 180.00 0.42494 0.00
5 -2 17 o 0.219 0.210 0.00 0.42491 0.00
2 5 -17 o 0.898 0.859 0.00 0.42491 0.00
2 -5 17 o 0.707 0.677 0.00 0.42490 0.00
5 -6 -15 o 0.218 0.209 180.00 0.42459 0.00
6 -5 -15 o 2.304 2.208 180.00 0.42458 0.00
5 6 15 o 3.510 3.369 180.00 0.42451 0.01
6 5 15 o 0.010 0.010 0.00 0.42449 0.00
5 -6 15 o 1.145 1.101 0.00 0.42443 0.00
6 5 -15 o 0.783 0.752 0.00 0.42444 0.00
6 -5 15 o 0.000 0.000 0.00 0.42443 0.00
5 6 -15 o 0.247 0.237 0.00 0.42443 0.00
5 -8 -13 o 0.458 0.444 0.00 0.42421 0.00
8 -5 -13 o 3.093 2.999 0.00 0.42417 0.01
5 8 13 o 5.272 5.126 0.00 0.42411 0.01
8 5 13 o 0.010 0.009 0.00 0.42405 0.00
5 -8 13 o 1.432 1.399 180.00 0.42403 0.00
8 -5 13 o 0.808 0.790 0.00 0.42402 0.00
8 5 -13 o 0.141 0.138 180.00 0.42403 0.00
5 8 -13 o 0.076 0.074 180.00 0.42401 0.00
7 -8 -11 o 0.303 0.300 180.00 0.42385 0.00
8 -7 -11 o 1.923 1.904 180.00 0.42384 0.00
7 8 11 o 2.983 2.981 180.00 0.42373 0.01
7 -8 11 o 1.253 1.258 0.00 0.42369 0.00
8 7 11 o 0.007 0.007 180.00 0.42371 0.00
8 -7 11 o 0.140 0.141 180.00 0.42368 0.00
7 8 -11 o 0.982 0.989 0.00 0.42366 0.00
8 7 -11 o 0.166 0.167 0.00 0.42366 0.00
3 -12 -7 o 0.232 0.220 0.00 0.41852 0.00
3 12 7 o 3.413 3.214 180.00 0.41846 0.01
12 -3 -7 o 0.749 0.702 180.00 0.41842 0.00
3 -12 7 o 4.593 4.291 0.00 0.41840 0.01
3 12 -7 o 0.029 0.027 0.00 0.41837 0.00
12 -3 7 o 1.737 1.612 180.00 0.41835 0.00
12 3 -7 o 0.390 0.362 0.00 0.41835 0.00
12 3 7 o 0.112 0.104 0.00 0.41833 0.00
2 -13 -3 o 0.002 0.001 0.00 0.41821 0.00
2 13 3 o 0.085 0.077 180.00 0.41817 0.00
2 -13 3 o 0.910 0.826 0.00 0.41816 0.00
2 -10 -12 o 7.137 8.809 0.00 0.42099 0.01
2 13 -3 o 0.226 0.205 0.00 0.41813 0.00
13 -2 -3 o 0.427 0.386 0.00 0.41810 0.00
2 10 12 o 5.077 6.240 0.00 0.42095 0.01
13 -2 3 o 0.024 0.021 180.00 0.41807 0.00
13 2 -3 o 1.995 1.795 0.00 0.41806 0.00
5 -11 -8 o 4.335 3.899 0.00 0.41805 0.01
10 -2 -12 o 3.676 4.492 0.00 0.42090 0.01
13 2 3 o 0.002 0.002 180.00 0.41805 0.00
10 2 -12 o 4.199 5.099 0.00 0.42084 0.01
2 -10 12 o 7.167 8.677 0.00 0.42081 0.01
11 -5 -8 o 1.068 0.955 0.00 0.41797 0.00
2 10 -12 o 5.095 6.161 0.00 0.42080 0.01
10 -2 12 o 10.443 12.613 0.00 0.42079 0.02
10 2 12 o 7.652 9.249 0.00 0.42080 0.01
5 11 8 o 1.537 1.372 0.00 0.41795 0.00
5 -11 8 o 2.182 1.941 0.00 0.41791 0.00
11 -5 8 o 1.718 1.525 0.00 0.41787 0.00
5 11 -8 o 4.110 3.645 0.00 0.41786 0.01
4 -12 -6 o 0.130 0.115 0.00 0.41784 0.00
11 5 8 o 4.704 4.170 0.00 0.41786 0.01
11 5 -8 o 4.375 3.878 0.00 0.41786 0.01
4 12 6 o 0.128 0.113 180.00 0.41777 0.00
4 -12 6 o 0.005 0.004 0.00 0.41773 0.00
12 -4 -6 o 1.266 1.115 180.00 0.41775 0.00
7 -11 -4 o 0.227 0.199 180.00 0.41768 0.00
4 12 -6 o 0.131 0.116 180.00 0.41769 0.00
12 -4 6 o 0.105 0.092 180.00 0.41768 0.00
1 -13 -4 o 0.096 0.084 0.00 0.41767 0.00
1 13 4 o 0.175 0.154 0.00 0.41765 0.00
12 4 -6 o 0.204 0.179 180.00 0.41766 0.00
11 -7 -4 o 0.410 0.359 0.00 0.41764 0.00
12 4 6 o 0.049 0.043 180.00 0.41765 0.00
7 -11 4 o 0.033 0.029 180.00 0.41761 0.00
1 -13 4 o 0.899 0.787 0.00 0.41760 0.00
1 13 -4 o 0.001 0.001 0.00 0.41759 0.00
11 -7 4 o 0.260 0.228 0.00 0.41758 0.00
7 11 4 o 0.323 0.283 180.00 0.41757 0.00
0 12 8 o 4.400 5.071 0.00 0.42039 0.01
13 -1 -4 o 3.454 3.022 0.00 0.41756 0.01
13 1 -4 o 0.003 0.003 0.00 0.41754 0.00
7 11 -4 o 0.356 0.311 180.00 0.41753 0.00
3 -13 0 o 1.542 1.347 0.00 0.41754 0.00
13 -1 4 o 3.635 3.179 0.00 0.41752 0.01
13 1 4 o 0.032 0.028 180.00 0.41751 0.00
11 7 4 o 0.521 0.455 180.00 0.41752 0.00
11 7 -4 o 0.221 0.193 180.00 0.41751 0.00
3 13 0 o 1.786 1.560 0.00 0.41749 0.00
0 12 -8 o 4.340 4.933 0.00 0.42027 0.01
12 0 -8 o 3.845 4.374 0.00 0.42028 0.01
13 -3 0 o 0.318 0.278 0.00 0.41745 0.00
12 0 8 o 6.424 7.264 0.00 0.42022 0.01
13 3 0 o 4.515 3.945 0.00 0.41740 0.01
0 4 18 o 0.566 0.616 0.00 0.41980 0.00
4 0 -18 o 0.056 0.060 180.00 0.41976 0.00
4 -7 -15 o 1.241 1.345 180.00 0.41975 0.00
1 -8 -15 o 1.280 1.386 180.00 0.41975 0.00
1 8 15 o 0.304 0.329 0.00 0.41973 0.00
4 0 18 o 1.274 1.378 0.00 0.41972 0.00
7 -4 -15 o 0.140 0.151 180.00 0.41972 0.00
0 4 -18 o 0.102 0.110 0.00 0.41971 0.00
4 7 15 o 0.007 0.007 180.00 0.41968 0.00
8 -1 -15 o 1.256 1.353 0.00 0.41967 0.00
8 1 -15 o 0.488 0.524 180.00 0.41964 0.00
7 4 15 o 2.339 2.507 180.00 0.41962 0.00
7 4 -15 o 0.509 0.545 0.00 0.41961 0.00
4 -7 15 o 0.334 0.357 0.00 0.41958 0.00
1 -8 15 o 0.350 0.374 180.00 0.41958 0.00
8 1 15 o 0.720 0.770 180.00 0.41959 0.00
1 8 -15 o 1.729 1.847 0.00 0.41958 0.00
7 -4 15 o 0.033 0.035 0.00 0.41958 0.00
8 -1 15 o 0.423 0.452 0.00 0.41958 0.00
4 7 -15 o 0.527 0.564 0.00 0.41958 0.00
1 -7 -16 o 3.006 3.150 0.00 0.41936 0.01
5 -5 -16 o 0.120 0.126 0.00 0.41936 0.00
1 7 16 o 0.002 0.002 180.00 0.41934 0.00
7 -1 -16 o 0.316 0.329 0.00 0.41930 0.00
5 5 16 o 0.688 0.715 0.00 0.41928 0.00
7 1 -16 o 3.241 3.366 0.00 0.41927 0.01
7 1 16 o 0.855 0.884 0.00 0.41923 0.00
5 5 -16 o 0.048 0.049 180.00 0.41922 0.00
1 -7 16 o 0.137 0.141 0.00 0.41921 0.00
5 -5 16 o 0.648 0.668 0.00 0.41921 0.00
7 -1 16 o 1.161 1.198 0.00 0.41921 0.00
1 7 -16 o 3.795 3.916 0.00 0.41921 0.01
6 -9 -11 o 1.000 1.013 180.00 0.41904 0.00
9 -6 -11 o 0.260 0.262 180.00 0.41900 0.00
4 -8 -14 o 0.179 0.179 0.00 0.41897 0.00
6 9 11 o 0.032 0.032 180.00 0.41893 0.00
8 -4 -14 o 0.480 0.479 180.00 0.41892 0.00
6 -9 11 o 0.115 0.114 0.00 0.41887 0.00
4 8 14 o 0.140 0.140 0.00 0.41889 0.00
9 -6 11 o 0.079 0.078 0.00 0.41886 0.00
9 6 11 o 1.907 1.893 180.00 0.41887 0.00
6 9 -11 o 0.076 0.075 0.00 0.41884 0.00
9 6 -11 o 1.655 1.637 0.00 0.41885 0.00
8 4 14 o 0.220 0.217 0.00 0.41881 0.00
4 -8 14 o 0.296 0.291 0.00 0.41879 0.00
8 4 -14 o 0.388 0.382 180.00 0.41881 0.00
8 -4 14 o 0.913 0.896 0.00 0.41878 0.00
4 8 -14 o 0.094 0.092 180.00 0.41878 0.00
4 -11 -9 o 0.354 0.346 0.00 0.41876 0.00
4 11 9 o 0.580 0.562 0.00 0.41868 0.00
11 -4 -9 o 0.001 0.001 0.00 0.41867 0.00
4 -11 9 o 0.000 0.000 0.00 0.41861 0.00
5 -9 -12 o 0.159 0.152 180.00 0.41861 0.00
11 -4 9 o 0.008 0.008 0.00 0.41857 0.00
4 11 -9 o 0.397 0.379 180.00 0.41857 0.00
11 4 -9 o 0.194 0.186 0.00 0.41857 0.00
9 -5 -12 o 0.782 0.746 0.00 0.41856 0.00
11 4 9 o 0.222 0.211 0.00 0.41856 0.00
2 -12 -8 o 6.128 6.087 0.00 0.41570 0.01
5 9 12 o 0.052 0.049 0.00 0.41852 0.00
2 12 8 o 8.289 8.247 0.00 0.41566 0.02
5 -9 12 o 0.451 0.424 0.00 0.41843 0.00
9 5 12 o 0.065 0.061 180.00 0.41844 0.00
9 -5 12 o 0.419 0.392 0.00 0.41842 0.00
9 5 -12 o 0.066 0.062 180.00 0.41843 0.00
5 9 -12 o 0.280 0.262 180.00 0.41841 0.00
12 -2 -8 o 14.658 14.624 0.00 0.41560 0.03
2 -12 8 o 8.363 8.352 0.00 0.41557 0.02
2 12 -8 o 9.617 9.612 0.00 0.41555 0.02
12 2 -8 o 11.965 11.961 0.00 0.41555 0.02
12 -2 8 o 8.488 8.493 0.00 0.41552 0.02
12 2 8 o 8.504 8.512 0.00 0.41551 0.02
9 -9 -6 o 0.740 0.741 0.00 0.41549 0.00
8 -8 -10 o 0.013 0.012 180.00 0.41828 0.00
9 -9 6 o 0.578 0.581 0.00 0.41539 0.00
9 9 6 o 0.858 0.864 0.00 0.41536 0.00
8 -8 10 o 0.466 0.423 0.00 0.41813 0.00
8 8 10 o 0.003 0.002 180.00 0.41816 0.00
9 9 -6 o 0.654 0.659 0.00 0.41532 0.00
8 8 -10 o 0.027 0.024 180.00 0.41810 0.00
3 -13 -2 o 7.014 7.087 0.00 0.41526 0.01
3 -13 2 o 5.579 5.647 0.00 0.41522 0.01
6 -12 0 o 5.554 5.621 0.00 0.41522 0.01
3 13 2 o 7.749 7.850 0.00 0.41521 0.01
3 13 -2 o 8.449 8.573 0.00 0.41518 0.02
12 -6 0 o 10.743 10.908 0.00 0.41516 0.02
13 -3 -2 o 1.411 1.433 0.00 0.41516 0.00
13 -3 2 o 1.444 1.469 0.00 0.41514 0.00
6 12 0 o 8.605 8.752 0.00 0.41513 0.02
13 3 -2 o 8.193 8.349 0.00 0.41511 0.01
13 3 2 o 9.064 9.242 0.00 0.41510 0.02
12 6 0 o 7.564 7.724 0.00 0.41507 0.01
3 -3 -18 o 2.230 1.959 0.00 0.41744 0.00
3 3 18 o 6.274 5.514 0.00 0.41740 0.01
3 3 -18 o 0.922 0.811 0.00 0.41736 0.00
3 -3 18 o 3.085 2.714 0.00 0.41734 0.01
4 -6 -16 o 6.729 6.012 0.00 0.41701 0.01
6 -4 -16 o 10.369 9.279 0.00 0.41699 0.02
4 6 16 o 4.518 4.057 0.00 0.41694 0.01
6 4 16 o 4.172 3.758 0.00 0.41690 0.01
6 4 -16 o 11.779 10.633 0.00 0.41688 0.02
4 -6 16 o 4.127 3.734 0.00 0.41685 0.01
6 -4 16 o 2.911 2.634 0.00 0.41685 0.01
4 6 -16 o 10.297 9.310 0.00 0.41686 0.02
6 -11 -7 o 0.001 0.002 180.00 0.41388 0.00
11 -6 -7 o 0.105 0.149 0.00 0.41382 0.00
6 -11 7 o 0.151 0.221 0.00 0.41376 0.00
6 11 7 o 0.008 0.012 180.00 0.41378 0.00
1 -9 -14 o 1.149 1.063 0.00 0.41661 0.00
1 9 14 o 8.038 7.452 0.00 0.41659 0.01
11 -6 7 o 0.062 0.092 0.00 0.41372 0.00
5 -12 -5 o 0.001 0.002 0.00 0.41371 0.00
6 11 -7 o 0.848 1.272 0.00 0.41370 0.00
11 6 7 o 0.114 0.171 180.00 0.41370 0.00
0 13 5 o 0.060 0.091 0.00 0.41368 0.00
11 6 -7 o 0.000 0.000 0.00 0.41369 0.00
9 -1 -14 o 5.500 5.132 0.00 0.41652 0.01
9 1 -14 o 0.781 0.731 0.00 0.41649 0.00
5 -12 5 o 1.481 2.324 180.00 0.41362 0.00
12 -5 -5 o 1.197 1.866 0.00 0.41363 0.00
5 12 5 o 1.919 3.005 0.00 0.41362 0.00
0 13 -5 o 0.080 0.126 180.00 0.41360 0.00
1 -9 14 o 6.385 6.007 0.00 0.41644 0.01
1 9 -14 o 0.640 0.602 0.00 0.41643 0.00
9 1 14 o 2.060 1.938 0.00 0.41644 0.00
9 -1 14 o 3.940 3.709 0.00 0.41643 0.01
12 -5 5 o 1.297 2.094 0.00 0.41356 0.00
5 12 -5 o 0.026 0.042 180.00 0.41356 0.00
13 0 -5 o 0.340 0.548 180.00 0.41357 0.00
13 0 5 o 0.156 0.258 0.00 0.41353 0.00
9 -10 -1 o 0.147 0.247 0.00 0.41350 0.00
12 5 -5 o 0.005 0.009 180.00 0.41353 0.00
12 5 5 o 0.119 0.197 0.00 0.41352 0.00
10 -9 -1 o 0.154 0.260 180.00 0.41349 0.00
9 -10 1 o 0.008 0.013 180.00 0.41348 0.00
10 -9 1 o 0.674 1.149 180.00 0.41347 0.00
9 10 1 o 0.441 0.793 0.00 0.41339 0.00
9 10 -1 o 0.127 0.229 180.00 0.41338 0.00
10 9 1 o 0.001 0.001 0.00 0.41337 0.00
10 9 -1 o 0.366 0.666 180.00 0.41337 0.00
8 -10 -6 o 0.029 0.058 180.00 0.41321 0.00
10 -8 -6 o 0.004 0.008 0.00 0.41318 0.00
8 -10 6 o 0.193 0.426 180.00 0.41311 0.00
3 -11 -10 o 0.930 0.911 0.00 0.41596 0.00
7 -9 -10 o 8.858 8.678 0.00 0.41596 0.02
10 -8 6 o 0.162 0.362 180.00 0.41309 0.00
9 -7 -10 o 5.405 5.304 0.00 0.41593 0.01
8 10 6 o 0.285 0.640 0.00 0.41308 0.00
0 1 19 o 0.943 0.928 0.00 0.41590 0.00
3 11 10 o 4.269 4.197 0.00 0.41590 0.01
1 0 -19 o 0.053 0.052 0.00 0.41590 0.00
1 0 19 o 0.072 0.071 180.00 0.41589 0.00
10 8 6 o 0.138 0.319 0.00 0.41305 0.00
0 1 -19 o 1.238 1.220 180.00 0.41588 0.00
8 10 -6 o 0.061 0.143 0.00 0.41304 0.00
11 -3 -10 o 4.347 4.282 0.00 0.41587 0.01
10 8 -6 o 0.022 0.051 0.00 0.41303 0.00
6 -12 -2 o 0.017 0.042 180.00 0.41297 0.00
7 9 10 o 9.211 9.088 0.00 0.41584 0.02
3 -11 10 o 3.748 3.705 0.00 0.41580 0.01
7 -9 10 o 6.201 6.131 0.00 0.41580 0.01
9 -7 10 o 5.707 5.646 0.00 0.41579 0.01
6 -12 2 o 0.020 0.052 180.00 0.41294 0.00
9 7 10 o 10.403 10.284 0.00 0.41580 0.02
3 11 -10 o 0.673 0.666 0.00 0.41578 0.00
11 3 -10 o 0.623 0.616 0.00 0.41579 0.00
11 -3 10 o 3.574 3.539 0.00 0.41577 0.01
7 9 -10 o 10.486 10.388 0.00 0.41576 0.02
11 3 10 o 0.625 0.619 0.00 0.41577 0.00
12 -6 -2 o 0.046 0.121 0.00 0.41291 0.00
9 7 -10 o 9.655 9.564 0.00 0.41577 0.02
12 -6 2 o 0.003 0.009 0.00 0.41288 0.00
6 12 2 o 0.348 0.945 0.00 0.41288 0.00
6 12 -2 o 0.242 0.670 0.00 0.41286 0.00
12 6 2 o 0.046 0.134 0.00 0.41281 0.00
12 6 -2 o 0.028 0.082 0.00 0.41281 0.00
1 -6 -17 o 1.160 1.164 0.00 0.41548 0.00
1 6 17 o 0.003 0.003 180.00 0.41546 0.00
6 -1 -17 o 0.904 0.910 180.00 0.41543 0.00
6 1 -17 o 1.592 1.603 0.00 0.41540 0.00
6 1 17 o 0.517 0.522 0.00 0.41536 0.00
6 -1 17 o 0.025 0.025 0.00 0.41535 0.00
1 -6 17 o 0.758 0.765 0.00 0.41534 0.00
1 6 -17 o 0.577 0.583 180.00 0.41534 0.00
2 -4 -18 o 0.355 0.362 180.00 0.41512 0.00
4 -2 -18 o 0.040 0.040 180.00 0.41510 0.00
2 4 18 o 0.893 0.915 180.00 0.41509 0.00
4 2 18 o 1.421 1.461 180.00 0.41505 0.00
4 2 -18 o 0.005 0.005 180.00 0.41505 0.00
2 4 -18 o 0.108 0.112 180.00 0.41502 0.00
4 -2 18 o 2.024 2.087 180.00 0.41502 0.00
2 -4 18 o 1.140 1.176 180.00 0.41501 0.00
4 -9 -13 o 1.105 1.185 0.00 0.41470 0.00
9 -4 -13 o 0.272 0.295 0.00 0.41464 0.00
4 9 13 o 0.119 0.129 0.00 0.41463 0.00
4 -9 13 o 0.110 0.123 180.00 0.41453 0.00
9 4 -13 o 0.584 0.648 180.00 0.41453 0.00
9 4 13 o 2.500 2.775 0.00 0.41453 0.00
9 -4 13 o 0.162 0.181 0.00 0.41451 0.00
4 9 -13 o 0.021 0.023 180.00 0.41451 0.00
0 11 11 o 0.002 0.003 180.00 0.41436 0.00
11 0 -11 o 0.534 0.642 0.00 0.41425 0.00
0 11 -11 o 0.335 0.408 0.00 0.41420 0.00
11 0 11 o 0.473 0.582 180.00 0.41418 0.00
5 -10 -11 o 0.029 0.030 180.00 0.40987 0.00
2 -11 -11 o 0.202 0.213 180.00 0.40986 0.00
2 11 11 o 0.345 0.361 180.00 0.40982 0.00
10 -5 -11 o 1.271 1.330 180.00 0.40981 0.00
5 10 11 o 2.903 3.026 180.00 0.40978 0.00
11 -2 -11 o 0.005 0.005 0.00 0.40977 0.00
5 -10 11 o 2.721 2.808 0.00 0.40971 0.00
2 -11 11 o 0.064 0.066 0.00 0.40970 0.00
11 2 -11 o 0.030 0.031 180.00 0.40971 0.00
2 11 -11 o 0.386 0.397 0.00 0.40969 0.00
10 -5 11 o 0.879 0.904 180.00 0.40968 0.00
10 5 11 o 0.015 0.016 0.00 0.40969 0.00
5 10 -11 o 0.364 0.375 0.00 0.40968 0.00
11 -2 11 o 0.032 0.033 0.00 0.40967 0.00
10 5 -11 o 0.193 0.199 0.00 0.40969 0.00
11 2 11 o 0.005 0.005 0.00 0.40967 0.00
8 -9 -9 o 1.851 1.882 0.00 0.40959 0.00
1 -12 -9 o 0.084 0.085 180.00 0.40959 0.00
9 -8 -9 o 0.812 0.824 0.00 0.40958 0.00
1 12 9 o 4.170 4.228 0.00 0.40957 0.01
12 -1 -9 o 0.551 0.552 0.00 0.40948 0.00
8 -9 9 o 0.131 0.131 0.00 0.40945 0.00
1 -12 9 o 2.512 2.511 180.00 0.40945 0.00
9 -8 9 o 0.083 0.083 180.00 0.40945 0.00
8 9 9 o 0.479 0.480 0.00 0.40947 0.00
1 12 -9 o 0.200 0.199 0.00 0.40944 0.00
12 1 -9 o 0.142 0.142 180.00 0.40945 0.00
9 8 9 o 2.101 2.101 0.00 0.40945 0.00
12 -1 9 o 2.128 2.118 0.00 0.40941 0.00
8 9 -9 o 0.042 0.042 0.00 0.40941 0.00
12 1 9 o 0.181 0.180 180.00 0.40941 0.00
9 8 -9 o 0.969 0.964 180.00 0.40941 0.00
2 -13 -5 o 1.035 1.008 0.00 0.40921 0.00
6 -10 -10 o 0.147 0.142 0.00 0.40918 0.00
2 13 5 o 0.547 0.531 0.00 0.40917 0.00
2 -13 5 o 0.002 0.002 180.00 0.40912 0.00
10 -6 -10 o 0.470 0.454 180.00 0.40913 0.00
2 13 -5 o 0.272 0.262 180.00 0.40910 0.00
13 -2 -5 o 0.043 0.042 0.00 0.40910 0.00
9 -10 -3 o 0.140 0.135 180.00 0.40908 0.00
10 -9 -3 o 1.271 1.223 180.00 0.40907 0.00
6 10 10 o 0.015 0.014 180.00 0.40907 0.00
13 -2 5 o 0.183 0.176 0.00 0.40905 0.00
9 -10 3 o 0.454 0.435 0.00 0.40903 0.00
13 2 -5 o 0.202 0.194 0.00 0.40906 0.00
4 -13 -1 o 0.077 0.074 0.00 0.40903 0.00
6 -10 10 o 0.226 0.217 0.00 0.40902 0.00
10 -9 3 o 0.244 0.234 180.00 0.40902 0.00
8 -11 -1 o 0.021 0.020 0.00 0.40902 0.00
13 2 5 o 0.879 0.843 0.00 0.40904 0.00
4 -13 1 o 0.410 0.393 180.00 0.40901 0.00
8 -11 1 o 0.345 0.330 180.00 0.40901 0.00
10 -6 10 o 0.225 0.216 0.00 0.40900 0.00
11 -8 -1 o 0.001 0.001 180.00 0.40899 0.00
10 6 10 o 0.000 0.000 0.00 0.40900 0.00
11 -8 1 o 0.107 0.102 180.00 0.40898 0.00
6 10 -10 o 0.019 0.018 180.00 0.40899 0.00
10 6 -10 o 0.051 0.049 180.00 0.40899 0.00
4 13 1 o 0.872 0.832 0.00 0.40897 0.00
4 13 -1 o 0.012 0.011 0.00 0.40895 0.00
9 10 3 o 0.517 0.493 180.00 0.40897 0.00
13 -4 -1 o 0.012 0.011 0.00 0.40894 0.00
10 9 3 o 0.593 0.566 180.00 0.40895 0.00
13 -4 1 o 0.186 0.177 0.00 0.40893 0.00
9 10 -3 o 1.228 1.171 0.00 0.40894 0.00
10 9 -3 o 0.000 0.000 180.00 0.40894 0.00
8 11 1 o 0.004 0.004 180.00 0.40892 0.00
8 11 -1 o 0.938 0.892 180.00 0.40891 0.00
11 8 1 o 1.469 1.395 0.00 0.40888 0.00
11 8 -1 o 0.012 0.011 180.00 0.40888 0.00
13 4 -1 o 1.349 1.281 180.00 0.40888 0.00
13 4 1 o 0.029 0.028 0.00 0.40888 0.00
3 -13 -4 o 1.822 1.719 0.00 0.40860 0.00
3 13 4 o 1.057 0.997 0.00 0.40854 0.00
3 -13 4 o 0.910 0.858 0.00 0.40853 0.00
1 -2 -19 o 0.039 0.070 180.00 0.41136 0.00
2 -1 -19 o 0.953 1.722 180.00 0.41135 0.00
1 2 19 o 0.074 0.133 180.00 0.41135 0.00
13 -3 -4 o 0.303 0.286 0.00 0.40850 0.00
3 13 -4 o 2.113 1.994 0.00 0.40849 0.00
2 1 19 o 0.361 0.640 180.00 0.41133 0.00
2 1 -19 o 0.872 1.546 0.00 0.41133 0.00
1 2 -19 o 0.069 0.122 180.00 0.41131 0.00
2 -1 19 o 0.322 0.563 0.00 0.41131 0.00
1 -2 19 o 0.112 0.195 0.00 0.41130 0.00
13 -3 4 o 0.297 0.280 0.00 0.40846 0.00
13 3 -4 o 3.470 3.276 0.00 0.40844 0.01
13 3 4 o 4.118 3.888 0.00 0.40843 0.01
4 -5 -17 o 1.871 2.615 0.00 0.41094 0.00
5 -4 -17 o 0.370 0.514 0.00 0.41093 0.00
4 5 17 o 0.161 0.218 0.00 0.41087 0.00
5 4 17 o 2.167 2.918 0.00 0.41085 0.00
5 4 -17 o 0.001 0.001 180.00 0.41082 0.00
4 5 -17 o 0.324 0.428 180.00 0.41081 0.00
4 -5 17 o 0.042 0.055 180.00 0.41079 0.00
5 -4 17 o 0.029 0.038 180.00 0.41079 0.00
3 -8 -15 o 0.010 0.012 180.00 0.41054 0.00
8 -3 -15 o 1.198 1.420 180.00 0.41049 0.00
3 8 15 o 2.539 3.012 180.00 0.41049 0.00
8 3 -15 o 0.561 0.652 0.00 0.41040 0.00
8 3 15 o 0.129 0.149 0.00 0.41039 0.00
3 -8 15 o 1.993 2.297 0.00 0.41037 0.00
8 -3 15 o 0.357 0.411 180.00 0.41036 0.00
3 8 -15 o 0.021 0.024 0.00 0.41037 0.00
3 -7 -16 o 0.030 0.033 180.00 0.41018 0.00
1 -10 -13 o 2.574 2.848 0.00 0.41017 0.00
1 10 13 o 0.119 0.131 180.00 0.41015 0.00
7 -3 -16 o 1.013 1.115 0.00 0.41014 0.00
3 7 16 o 1.118 1.229 0.00 0.41013 0.00
10 -1 -13 o 0.357 0.389 180.00 0.41008 0.00
7 3 -16 o 0.000 0.000 180.00 0.41005 0.00
7 3 16 o 0.359 0.390 0.00 0.41005 0.00
10 1 -13 o 0.420 0.456 0.00 0.41005 0.00
3 -7 16 o 1.319 1.424 0.00 0.41002 0.00
7 -3 16 o 0.487 0.525 0.00 0.41002 0.00
3 7 -16 o 0.052 0.057 180.00 0.41002 0.00
1 -10 13 o 0.643 0.692 0.00 0.41000 0.00
1 10 -13 o 1.289 1.387 180.00 0.41000 0.00
10 -1 13 o 0.414 0.445 180.00 0.40999 0.00
10 1 13 o 1.659 1.784 0.00 0.41000 0.00
7 -11 -6 o 0.456 0.445 0.00 0.40656 0.00
1 -13 -6 o 2.938 2.865 0.00 0.40654 0.00
1 13 6 o 4.488 4.374 0.00 0.40653 0.01
11 -7 -6 o 1.879 1.830 0.00 0.40651 0.00
7 -11 6 o 0.761 0.740 0.00 0.40646 0.00
1 -13 6 o 5.339 5.187 0.00 0.40645 0.01
1 13 -6 o 1.823 1.770 0.00 0.40644 0.00
11 -7 6 o 1.268 1.231 0.00 0.40643 0.00
7 11 6 o 1.487 1.444 0.00 0.40645 0.00
6 -12 -4 o 5.147 4.993 0.00 0.40642 0.01
13 -1 -6 o 5.518 5.357 0.00 0.40643 0.01
13 1 -6 o 0.853 0.827 0.00 0.40641 0.00
7 11 -6 o 0.866 0.839 0.00 0.40639 0.00
13 -1 6 o 6.315 6.117 0.00 0.40639 0.01
11 7 6 o 0.584 0.566 0.00 0.40639 0.00
13 1 6 o 0.587 0.569 0.00 0.40638 0.00
6 -12 4 o 5.635 5.450 0.00 0.40635 0.01
11 7 -6 o 0.743 0.720 0.00 0.40638 0.00
12 -6 -4 o 11.879 11.491 0.00 0.40636 0.02
6 12 4 o 8.697 8.400 0.00 0.40633 0.01
12 -6 4 o 8.873 8.562 0.00 0.40630 0.01
6 12 -4 o 8.019 7.730 0.00 0.40628 0.01
12 6 4 o 7.448 7.169 0.00 0.40625 0.01
12 6 -4 o 7.446 7.167 0.00 0.40625 0.01
1 -5 -18 o 1.124 1.065 0.00 0.40838 0.00
1 5 18 o 7.043 6.674 0.00 0.40837 0.01
5 -1 -18 o 3.906 3.703 0.00 0.40834 0.01
5 1 -18 o 1.112 1.054 0.00 0.40832 0.00
5 1 18 o 4.343 4.122 0.00 0.40829 0.01
5 -1 18 o 2.182 2.072 0.00 0.40827 0.00
1 5 -18 o 0.817 0.776 0.00 0.40827 0.00
1 -5 18 o 4.665 4.431 0.00 0.40826 0.01
7 -10 -9 o 0.487 0.484 0.00 0.40524 0.00
10 -7 -9 o 2.183 2.178 0.00 0.40521 0.00
7 -10 9 o 0.991 1.001 180.00 0.40510 0.00
7 10 9 o 2.742 2.761 0.00 0.40513 0.00
10 -7 9 o 1.010 1.022 0.00 0.40508 0.00
10 7 9 o 0.304 0.308 0.00 0.40508 0.00
7 10 -9 o 0.423 0.429 180.00 0.40506 0.00
10 7 -9 o 0.006 0.006 0.00 0.40505 0.00
3 -9 -14 o 9.459 9.194 0.00 0.40760 0.02
4 -13 -3 o 0.373 0.392 180.00 0.40475 0.00
8 -11 -3 o 0.413 0.434 180.00 0.40475 0.00
11 -8 -3 o 0.213 0.225 180.00 0.40472 0.00
3 9 14 o 3.397 3.307 0.00 0.40755 0.01
4 -13 3 o 0.061 0.064 0.00 0.40470 0.00
8 -11 3 o 0.036 0.038 0.00 0.40470 0.00
9 -3 -14 o 2.028 1.976 0.00 0.40754 0.00
4 13 3 o 0.002 0.002 180.00 0.40469 0.00
11 -8 3 o 0.003 0.003 0.00 0.40467 0.00
13 -4 -3 o 0.086 0.091 0.00 0.40467 0.00
4 13 -3 o 0.985 1.047 0.00 0.40465 0.00
13 -4 3 o 0.015 0.016 0.00 0.40463 0.00
9 3 -14 o 7.187 7.017 0.00 0.40745 0.01
8 11 3 o 0.657 0.699 180.00 0.40464 0.00
3 -9 14 o 2.291 2.238 0.00 0.40743 0.00
9 3 14 o 6.415 6.266 0.00 0.40744 0.01
3 9 -14 o 9.133 8.924 0.00 0.40742 0.02
9 -3 14 o 3.323 3.247 0.00 0.40742 0.01
8 11 -3 o 0.018 0.019 180.00 0.40461 0.00
11 8 3 o 0.112 0.120 180.00 0.40460 0.00
13 4 -3 o 0.005 0.006 180.00 0.40460 0.00
11 8 -3 o 1.719 1.837 0.00 0.40459 0.00
13 4 3 o 0.771 0.824 180.00 0.40459 0.00
4 -10 -12 o 4.706 4.614 0.00 0.40727 0.01
10 -4 -12 o 12.781 12.544 0.00 0.40720 0.02
4 10 12 o 6.801 6.675 0.00 0.40720 0.01
4 -10 12 o 5.695 5.596 0.00 0.40710 0.01
10 4 -12 o 10.144 9.968 0.00 0.40710 0.02
10 -4 12 o 4.480 4.403 0.00 0.40708 0.01
4 10 -12 o 8.465 8.319 0.00 0.40708 0.01
10 4 12 o 6.310 6.201 0.00 0.40709 0.01
0 3 19 o 1.085 1.067 180.00 0.40695 0.00
3 0 -19 o 0.071 0.070 180.00 0.40693 0.00
3 0 19 o 0.049 0.048 180.00 0.40690 0.00
0 3 -19 o 1.198 1.177 0.00 0.40688 0.00
3 -6 -17 o 0.327 0.319 0.00 0.40654 0.00
6 -3 -17 o 2.643 2.575 0.00 0.40651 0.00
3 6 17 o 3.096 3.015 0.00 0.40649 0.01
6 3 17 o 0.037 0.036 0.00 0.40644 0.00
6 3 -17 o 0.460 0.447 180.00 0.40643 0.00
3 -6 17 o 0.702 0.681 180.00 0.40639 0.00
3 6 -17 o 0.048 0.046 0.00 0.40640 0.00
6 -3 17 o 0.141 0.137 0.00 0.40640 0.00
4 -12 -8 o 7.391 6.768 0.00 0.40248 0.01
4 12 8 o 2.840 2.568 0.00 0.40241 0.00
12 -4 -8 o 3.868 3.488 0.00 0.40240 0.01
4 -12 8 o 7.263 6.499 0.00 0.40235 0.01
4 12 -8 o 4.156 3.694 0.00 0.40232 0.01
12 -4 8 o 8.465 7.513 0.00 0.40231 0.01
12 4 -8 o 5.607 4.974 0.00 0.40231 0.01
12 4 8 o 5.590 4.947 0.00 0.40229 0.01
3 -10 -13 o 0.054 0.043 0.00 0.40157 0.00
3 10 13 o 5.087 4.050 0.00 0.40151 0.01
10 -3 -13 o 1.752 1.393 0.00 0.40149 0.00
3 -10 13 o 2.492 1.972 180.00 0.40140 0.00
10 3 -13 o 0.103 0.082 180.00 0.40142 0.00
3 10 -13 o 0.004 0.003 0.00 0.40139 0.00
10 -3 13 o 2.083 1.647 0.00 0.40138 0.00
10 3 13 o 0.033 0.026 180.00 0.40139 0.00
3 -12 -9 o 3.000 2.355 0.00 0.40102 0.00
3 12 9 o 0.099 0.078 180.00 0.40097 0.00
12 -3 -9 o 0.385 0.302 180.00 0.40093 0.00
3 -12 9 o 0.963 0.756 0.00 0.40088 0.00
1 -11 -12 o 2.476 1.945 0.00 0.40088 0.00
3 12 -9 o 1.193 0.937 180.00 0.40086 0.00
1 11 12 o 0.028 0.022 0.00 0.40086 0.00
12 3 -9 o 0.007 0.005 0.00 0.40086 0.00
12 -3 9 o 1.104 0.867 180.00 0.40084 0.00
5 -12 -7 o 1.148 0.901 180.00 0.40082 0.00
12 3 9 o 1.164 0.914 0.00 0.40083 0.00
0 8 16 o 7.941 8.657 0.00 0.40365 0.01
0 13 7 o 0.536 0.421 180.00 0.40079 0.00
11 -1 -12 o 0.209 0.164 0.00 0.40079 0.00
11 1 -12 o 3.694 2.904 0.00 0.40076 0.01
12 -5 -7 o 1.132 0.890 0.00 0.40075 0.00
1 -11 12 o 0.068 0.054 0.00 0.40073 0.00
8 0 -16 o 4.064 4.405 0.00 0.40358 0.01
1 11 -12 o 3.645 2.866 0.00 0.40072 0.01
5 12 7 o 0.108 0.085 0.00 0.40074 0.00
5 -12 7 o 0.335 0.263 180.00 0.40071 0.00
11 -1 12 o 0.263 0.207 0.00 0.40070 0.00
0 13 -7 o 0.374 0.294 0.00 0.40069 0.00
11 1 12 o 3.212 2.527 0.00 0.40071 0.01
13 0 -7 o 0.021 0.017 180.00 0.40068 0.00
0 8 -16 o 7.169 7.716 0.00 0.40351 0.01
8 0 16 o 11.838 12.752 0.00 0.40351 0.02
12 -5 7 o 2.355 1.852 0.00 0.40066 0.00
5 12 -7 o 1.314 1.033 0.00 0.40066 0.00
9 -10 -5 o 0.105 0.082 0.00 0.40065 0.00
10 -9 -5 o 0.252 0.198 180.00 0.40064 0.00
13 0 7 o 0.100 0.079 180.00 0.40064 0.00
12 5 -7 o 0.351 0.276 0.00 0.40064 0.00
12 5 7 o 0.123 0.097 180.00 0.40064 0.00
0 12 10 o 0.032 0.025 0.00 0.40060 0.00
9 -10 5 o 0.024 0.019 0.00 0.40057 0.00
10 -9 5 o 0.987 0.777 180.00 0.40056 0.00
9 10 5 o 0.499 0.393 0.00 0.40053 0.00
10 9 5 o 0.013 0.010 0.00 0.40051 0.00
7 -12 -1 o 1.533 1.207 0.00 0.40048 0.00
12 0 -10 o 1.020 0.804 180.00 0.40049 0.00
9 10 -5 o 0.050 0.040 180.00 0.40049 0.00
7 -12 1 o 0.090 0.071 0.00 0.40047 0.00
0 12 -10 o 0.101 0.079 180.00 0.40047 0.00
10 9 -5 o 0.732 0.576 180.00 0.40049 0.00
12 -7 -1 o 0.774 0.609 180.00 0.40043 0.00
12 0 10 o 0.003 0.003 180.00 0.40043 0.00
2 -3 -19 o 0.972 0.924 0.00 0.40269 0.00
3 -2 -19 o 0.017 0.016 0.00 0.40268 0.00
2 3 19 o 0.109 0.103 0.00 0.40266 0.00
3 2 19 o 0.018 0.017 0.00 0.40264 0.00
3 2 -19 o 0.198 0.187 0.00 0.40263 0.00
2 3 -19 o 0.842 0.790 180.00 0.40262 0.00
3 -2 19 o 0.108 0.101 180.00 0.40261 0.00
2 -3 19 o 0.507 0.475 180.00 0.40260 0.00
0 7 17 o 0.067 0.059 0.00 0.40227 0.00
7 0 -17 o 0.024 0.021 0.00 0.40221 0.00
7 0 17 o 0.000 0.000 0.00 0.40215 0.00
0 7 -17 o 0.373 0.321 0.00 0.40213 0.00
4 -4 -18 o 0.011 0.009 0.00 0.40195 0.00
4 4 18 o 1.063 0.882 0.00 0.40190 0.00
0 9 15 o 0.105 0.087 180.00 0.40189 0.00
4 4 -18 o 0.113 0.093 180.00 0.40185 0.00
4 -4 18 o 1.085 0.892 0.00 0.40183 0.00
9 0 -15 o 0.000 0.000 0.00 0.40181 0.00
0 9 -15 o 0.006 0.005 0.00 0.40173 0.00
9 0 15 o 0.136 0.111 0.00 0.40174 0.00
