#------------------------------------------------------------------------------
#$Date: 2016-03-21 01:21:50 +0200 (Mon, 21 Mar 2016) $
#$Revision: 178377 $
#$URL: svn://www.crystallography.net/cod/cif/4/00/10/4001073.cif $
#------------------------------------------------------------------------------
#
# This file is available in the Crystallography Open Database (COD),
# http://www.crystallography.net/
#
# All data on this site have been placed in the public domain by the
# contributors.
#
data_4001073
loop_
_publ_author_name
'Achary, S. Nagabhusan'
'Sali, Sanjay K.'
'Kulkarni, Narendra K.'
'Krishna, P. Siva Ram'
'Shinde, Anil B.'
'Tyagi, Avesh K.'
_publ_section_title
;
 Intercalation/Deintercalation of Oxygen: A Sequential Evolution of Phases
 in Ce2O3/CeO2&#x2212;ZrO2Pyrochlores
;
_journal_issue                   24
_journal_name_full               'Chemistry of Materials'
_journal_page_first              5848
_journal_paper_doi               10.1021/cm902450q
_journal_volume                  21
_journal_year                    2009
_chemical_compound_source        Synthetic
_chemical_formula_analytical     'Ce2 Zr2 O7.5'
_chemical_formula_moiety         'Ce2 Zr2 O7.5'
_chemical_formula_structural     'Ce2 Zr2 O7.5'
_chemical_formula_sum            'Ce4 O15.02 Zr4'
_chemical_formula_weight         1165.73
_chemical_name_common            'Cerium zirconate'
_chemical_name_systematic        ' ?'
_space_group_IT_number           216
_symmetry_cell_setting           cubic
_symmetry_space_group_name_Hall  'F -4 2 3'
_symmetry_space_group_name_H-M   'F -4 3 m'
_audit_creation_date             2009-05-07T22:58
_audit_creation_method           'from EXP file using GSAS2CIF'
_audit_update_record
' 2009-05-07T22:58  Initial CIF as created by GSAS2CIF'
_cell_angle_alpha                90.0
_cell_angle_beta                 90.0
_cell_angle_gamma                90.0
_cell_formula_units_Z            4
_cell_length_a                   10.61007(23)
_cell_length_b                   10.61007
_cell_length_c                   10.61007
_cell_volume                     1194.41(3)
_computing_molecular_graphics    ATOMS62
_computing_publication_material  GSAS
_computing_structure_refinement  GSAS
_diffrn_ambient_temperature      298
_diffrn_detector_type            PSD
_diffrn_measurement_device_type  Diffractometer
_diffrn_radiation_probe          neutron
_diffrn_radiation_wavelength     1.249
_diffrn_source                   Reactor
_exptl_absorpt_correction_T_max  1.00000
_exptl_absorpt_correction_T_min  1.00000
_exptl_absorpt_process_details
;   GSAS Absorption/surface roughness correction: function number 0
 No correction is applied.
;
_exptl_crystal_density_diffrn    6.48
_pd_block_id                     2009-05-07T22:58|CE2ZR2O75|SNA|Dhruva
_pd_calc_method                  'Rietveld Refinement'
_pd_char_colour                  Gray
_pd_instr_location
' Dhruva Reseach Reactor, Bhabha Atomic Research Centre'
_pd_meas_2theta_range_inc        0.05
_pd_meas_2theta_range_max        138.6
_pd_meas_2theta_range_min        6.0
_pd_meas_number_of_points        2653
_pd_meas_scan_method             Step
_pd_phase_name                   'from F:/Ce2Zr2o7/Sali-2/75/gs/CE2ZR2O75.EXP'
_pd_prep_pressure                1
_pd_prep_temperature             298
_pd_proc_2theta_range_inc        0.05
_pd_proc_2theta_range_max        138.6
_pd_proc_2theta_range_min        6.0
_pd_proc_info_datetime           2009-05-07T22:58:23
_pd_proc_info_excluded_regions   ' ?'
_pd_proc_ls_background_function
;   GSAS Background function number 1 with 16 terms.
 Shifted Chebyshev function of 1st kind
      1:    552.461     2:    92.2619     3:   -2.11361     4:    29.8823    
      5:   -1.43423     6:   -7.70385     7:   -3.26890     8:   -10.6446    
      9:   -1.68967    10:    7.35041    11:    1.35018    12:    8.34477    
     13:  -0.454113    14:   -7.00338    15:    4.64243    16:    4.11088    
;
_pd_proc_ls_peak_cutoff          0.00800
_pd_proc_ls_profile_function
;
 CW Profile function number 2 with  18 terms
 Profile coefficients for Simpson's rule integration of pseudovoigt function
 C.J. Howard (1982). J. Appl. Cryst.,15,615-620.
 P. Thompson, D.E. Cox & J.B. Hastings (1987). J. Appl. Cryst.,20,79-83.
 Peak tails are ignored  where the intensity is below 0.0080 times the peak
   Aniso. broadening axis   0.0   0.0   1.0
;
_pd_proc_ls_prof_R_factor        0.0441
_pd_proc_ls_prof_wR_expected     0.0351
_pd_proc_ls_prof_wR_factor       0.0587
_pd_proc_number_of_points        2653
_pd_spec_mounting                ' ?'
_refine_ls_goodness_of_fit_all   1.68
_refine_ls_matrix_type           full
_refine_ls_number_parameters     29
_refine_ls_number_restraints     0
_refine_ls_R_Fsqd_factor         0.04246
_refine_ls_shift/su_max          0.00
_refine_ls_shift/su_mean         0.00
_reflns_d_resolution_high        0.670
_reflns_d_resolution_low         6.126
_reflns_limit_h_max              16
_reflns_limit_h_min              1
_reflns_limit_k_max              11
_reflns_limit_k_min              0
_reflns_limit_l_max              9
_reflns_limit_l_min              0
_reflns_number_total             143
_cod_data_source_file            cm902450q_si_002.cif
_cod_data_source_block           CE2ZR2O75_publ
_cod_depositor_comments
;
The following automatic conversions were performed:

'_geom_bond_publ_flag' value 'N' changed to 'n' according to
/home/saulius/struct/CIF-dictionaries/cif_core.dic dictionary named
'cif_core.dic' version 2.4.2 from 2011-04-26 (58
times).

'_geom_angle_publ_flag' value 'N' changed to 'n' according
to /home/saulius/struct/CIF-dictionaries/cif_core.dic dictionary
named 'cif_core.dic' version 2.4.2 from 2011-04-26 (92 times).

Automatic conversion script
Id: cif_fix_values 1715 2011-07-08 13:25:40Z adriana 
;
_cod_original_cell_volume        1194.41(8)
_cod_database_code               4001073
#BEGIN Tags that were not found in dictionaries:
_gsas_exptl_extinct_corr_t_min   1.00000
_gsas_exptl_extinct_corr_t_max   1.00000
#END Tags that were not found in dictionaries
loop_
_symmetry_equiv_pos_site_id
_symmetry_equiv_pos_as_xyz
1 +x,+y,+z
2 +z,+x,+y
3 +y,+z,+x
4 +y,-x,-z
5 -z,+y,-x
6 -x,-z,+y
7 -x,-y,+z
8 -z,+x,-y
9 -y,-z,+x
10 +x,-y,-z
11 +z,-x,-y
12 -y,+z,-x
13 -y,+x,-z
14 -z,-y,+x
15 +x,-z,-y
16 +x,+z,+y
17 +y,+x,+z
18 +z,+y,+x
19 +y,-z,-x
20 -y,-x,+z
21 +z,-y,-x
22 -x,+z,-y
23 -x,+y,-z
24 -z,-x,+y
101 +x,+y+1/2,+z+1/2
102 +z,+x+1/2,+y+1/2
103 +y,+z+1/2,+x+1/2
104 +y,-x+1/2,-z+1/2
105 -z,+y+1/2,-x+1/2
106 -x,-z+1/2,+y+1/2
107 -x,-y+1/2,+z+1/2
108 -z,+x+1/2,-y+1/2
109 -y,-z+1/2,+x+1/2
110 +x,-y+1/2,-z+1/2
111 +z,-x+1/2,-y+1/2
112 -y,+z+1/2,-x+1/2
113 -y,+x+1/2,-z+1/2
114 -z,-y+1/2,+x+1/2
115 +x,-z+1/2,-y+1/2
116 +x,+z+1/2,+y+1/2
117 +y,+x+1/2,+z+1/2
118 +z,+y+1/2,+x+1/2
119 +y,-z+1/2,-x+1/2
120 -y,-x+1/2,+z+1/2
121 +z,-y+1/2,-x+1/2
122 -x,+z+1/2,-y+1/2
123 -x,+y+1/2,-z+1/2
124 -z,-x+1/2,+y+1/2
201 +x+1/2,+y,+z+1/2
202 +z+1/2,+x,+y+1/2
203 +y+1/2,+z,+x+1/2
204 +y+1/2,-x,-z+1/2
205 -z+1/2,+y,-x+1/2
206 -x+1/2,-z,+y+1/2
207 -x+1/2,-y,+z+1/2
208 -z+1/2,+x,-y+1/2
209 -y+1/2,-z,+x+1/2
210 +x+1/2,-y,-z+1/2
211 +z+1/2,-x,-y+1/2
212 -y+1/2,+z,-x+1/2
213 -y+1/2,+x,-z+1/2
214 -z+1/2,-y,+x+1/2
215 +x+1/2,-z,-y+1/2
216 +x+1/2,+z,+y+1/2
217 +y+1/2,+x,+z+1/2
218 +z+1/2,+y,+x+1/2
219 +y+1/2,-z,-x+1/2
220 -y+1/2,-x,+z+1/2
221 +z+1/2,-y,-x+1/2
222 -x+1/2,+z,-y+1/2
223 -x+1/2,+y,-z+1/2
224 -z+1/2,-x,+y+1/2
301 +x+1/2,+y+1/2,+z
302 +z+1/2,+x+1/2,+y
303 +y+1/2,+z+1/2,+x
304 +y+1/2,-x+1/2,-z
305 -z+1/2,+y+1/2,-x
306 -x+1/2,-z+1/2,+y
307 -x+1/2,-y+1/2,+z
308 -z+1/2,+x+1/2,-y
309 -y+1/2,-z+1/2,+x
310 +x+1/2,-y+1/2,-z
311 +z+1/2,-x+1/2,-y
312 -y+1/2,+z+1/2,-x
313 -y+1/2,+x+1/2,-z
314 -z+1/2,-y+1/2,+x
315 +x+1/2,-z+1/2,-y
316 +x+1/2,+z+1/2,+y
317 +y+1/2,+x+1/2,+z
318 +z+1/2,+y+1/2,+x
319 +y+1/2,-z+1/2,-x
320 -y+1/2,-x+1/2,+z
321 +z+1/2,-y+1/2,-x
322 -x+1/2,+z+1/2,-y
323 -x+1/2,+y+1/2,-z
324 -z+1/2,-x+1/2,+y
loop_
_atom_site_type_symbol
_atom_site_label
_atom_site_fract_x
_atom_site_fract_y
_atom_site_fract_z
_atom_site_occupancy
_atom_site_thermal_displace_type
_atom_site_U_iso_or_equiv
_atom_site_symmetry_multiplicity
Ce Ce1 0.12813(28) 0.12813(28) 0.12813(28) 1.0 Uiso 0.00573(34) 16
Zr Zr1 0.62894(22) 0.62894(22) 0.62894(22) 1.0 Uiso 0.00573(34) 16
O O1 0.28181(29) 0.0 0.0 1.0 Uiso 0.0091(4) 24
O O2 0.5074(6) 0.25 0.25 0.96431 Uiso 0.0091(4) 24
O O3 0.0 0.0 0.0 1.0 Uiso 0.0092(4) 4
O O4 0.5 0.5 0.5 0.50354 Uiso 0.0092(4) 4
O O5 0.25 0.25 0.25 0.9704 Uiso 0.0092(4) 4
O O6 0.75 0.75 0.75 0.764 Uiso 0.0092(4) 4
loop_
_atom_type_symbol
_atom_type_number_in_cell
_atom_type_scat_length_neutron
_atom_type_scat_source
Ce+4 16.0 0.4840 International_Tables_Vol_C
Zr+4 16.0 0.7160 International_Tables_Vol_C
O 60.095 0.5805 International_Tables_Vol_C
loop_
_geom_angle_atom_site_label_1
_geom_angle_atom_site_label_2
_geom_angle_atom_site_label_3
_geom_angle
_geom_angle_site_symmetry_1
_geom_angle_site_symmetry_3
_geom_angle_publ_flag
O1 Ce1 O1 114.00(10) 1_555 2_555 n
O1 Ce1 O1 114.00(10) 1_555 3_555 n
O1 Ce1 O2 66.85(4) 1_555 104_555 n
O1 Ce1 O2 66.85(4) 1_555 119_555 n
O1 Ce1 O2 177.88(29) 1_555 222_555 n
O1 Ce1 O3 75.57(13) 1_555 1_555 n
O1 Ce1 O5 104.43(13) 1_555 1_555 n
O1 Ce1 O1 114.00(10) 2_555 3_555 n
O1 Ce1 O2 177.88(29) 2_555 104_555 n
O1 Ce1 O2 66.85(4) 2_555 119_555 n
O1 Ce1 O2 66.85(4) 2_555 222_555 n
O1 Ce1 O3 75.57(13) 2_555 1_555 n
O1 Ce1 O5 104.43(13) 2_555 1_555 n
O1 Ce1 O2 66.85(4) 3_555 104_555 n
O1 Ce1 O2 177.88(29) 3_555 119_555 n
O1 Ce1 O2 66.85(4) 3_555 222_555 n
O1 Ce1 O3 75.57(13) 3_555 1_555 n
O1 Ce1 O5 104.43(13) 3_555 1_555 n
O2 Ce1 O2 112.22(16) 104_555 119_555 n
O2 Ce1 O2 112.22(16) 104_555 222_555 n
O2 Ce1 O3 106.55(18) 104_555 1_555 n
O2 Ce1 O5 73.45(18) 104_555 1_555 n
O2 Ce1 O2 112.22(16) 119_555 222_555 n
O2 Ce1 O3 106.55(18) 119_555 1_555 n
O2 Ce1 O5 73.45(18) 119_555 1_555 n
O2 Ce1 O3 106.55(18) 222_555 1_555 n
O2 Ce1 O5 73.45(18) 222_555 1_555 n
O3 Ce1 O5 179.972 1_555 1_555 n
O1 Zr1 O1 98.92(13) 106_655 204_565 n
O1 Zr1 O1 98.92(13) 106_655 305_556 n
O1 Zr1 O2 75.23(7) 106_655 8_656 n
O1 Zr1 O2 75.23(7) 106_655 9_665 n
O1 Zr1 O2 170.71(25) 106_655 10_566 n
O1 Zr1 O4 61.34(10) 106_655 1_555 n
O1 Zr1 O6 118.66(10) 106_655 1_555 n
O1 Zr1 O1 98.92(13) 204_565 305_556 n
O1 Zr1 O2 170.71(25) 204_565 8_656 n
O1 Zr1 O2 75.23(7) 204_565 9_665 n
O1 Zr1 O2 75.23(7) 204_565 10_566 n
O1 Zr1 O4 61.34(10) 204_565 1_555 n
O1 Zr1 O6 118.66(10) 204_565 1_555 n
O1 Zr1 O2 75.23(7) 305_556 8_656 n
O1 Zr1 O2 170.71(25) 305_556 9_665 n
O1 Zr1 O2 75.23(7) 305_556 10_566 n
O1 Zr1 O4 61.34(10) 305_556 1_555 n
O1 Zr1 O6 118.66(10) 305_556 1_555 n
O2 Zr1 O2 109.58(16) 8_656 9_665 n
O2 Zr1 O2 109.58(16) 8_656 10_566 n
O2 Zr1 O4 109.37(16) 8_656 1_555 n
O2 Zr1 O6 70.63(16) 8_656 1_555 n
O2 Zr1 O2 109.58(16) 9_665 10_566 n
O2 Zr1 O4 109.37(16) 9_665 1_555 n
O2 Zr1 O6 70.63(16) 9_665 1_555 n
O2 Zr1 O4 109.37(16) 10_566 1_555 n
O2 Zr1 O6 70.63(16) 10_566 1_555 n
O4 Zr1 O6 180.0 1_555 1_555 n
Ce1 O1 Ce1 99.40(26) 1_555 4_555 n
Ce1 O1 Zr1 106.52(6) 1_555 105_645 n
Ce1 O1 Zr1 106.52(6) 1_555 106_654 n
Ce1 O1 Zr1 106.52(6) 4_555 105_645 n
Ce1 O1 Zr1 106.52(6) 4_555 106_654 n
Zr1 O1 Zr1 127.84(21) 105_645 106_654 n
Ce1 O2 Ce1 103.6(4) 205_555 306_555 n
Ce1 O2 Zr1 110.97(8) 205_555 4_566 n
Ce1 O2 Zr1 110.97(8) 205_555 101_544 n
Ce1 O2 Zr1 110.97(8) 306_555 4_566 n
Ce1 O2 Zr1 110.97(8) 306_555 101_544 n
Zr1 O2 Zr1 109.26(33) 4_566 101_544 n
Ce1 O3 Ce1 109.4712(8) 1_555 4_555 n
Ce1 O3 Ce1 109.4712(8) 1_555 5_555 n
Ce1 O3 Ce1 109.4712(16) 1_555 6_555 n
Ce1 O3 Ce1 109.4712(16) 4_555 5_555 n
Ce1 O3 Ce1 109.4712(8) 4_555 6_555 n
Ce1 O3 Ce1 109.4712(8) 5_555 6_555 n
Zr1 O4 Zr1 109.4712(8) 1_555 4_566 n
Zr1 O4 Zr1 109.4712(8) 1_555 5_656 n
Zr1 O4 Zr1 109.4712(16) 1_555 6_665 n
Zr1 O4 Zr1 109.4712(16) 4_566 5_656 n
Zr1 O4 Zr1 109.4712(8) 4_566 6_665 n
Zr1 O4 Zr1 109.4712(8) 5_656 6_665 n
Ce1 O5 Ce1 109.4712(8) 1_555 104_555 n
Ce1 O5 Ce1 109.4712(8) 1_555 205_555 n
Ce1 O5 Ce1 109.4712(16) 1_555 306_555 n
Ce1 O5 Ce1 109.4712(16) 104_555 205_555 n
Ce1 O5 Ce1 109.4712(8) 104_555 306_555 n
Ce1 O5 Ce1 109.4712(8) 205_555 306_555 n
Zr1 O6 Zr1 109.4712(8) 1_555 104_566 n
Zr1 O6 Zr1 109.4712(8) 1_555 205_656 n
Zr1 O6 Zr1 109.4712(16) 1_555 306_665 n
Zr1 O6 Zr1 109.4712(16) 104_566 205_656 n
Zr1 O6 Zr1 109.4712(8) 104_566 306_665 n
Zr1 O6 Zr1 109.4712(8) 205_656 306_665 n
loop_
_geom_bond_atom_site_label_1
_geom_bond_atom_site_label_2
_geom_bond_distance
_geom_bond_site_symmetry_2
_geom_bond_publ_flag
Ce1 Ce1 3.845(9) 4_555 n
Ce1 Ce1 3.845(9) 5_555 n
Ce1 Ce1 3.845(9) 6_555 n
Ce1 Ce1 3.657(9) 104_555 n
Ce1 Ce1 3.657(9) 205_555 n
Ce1 Ce1 3.657(9) 306_555 n
Ce1 Zr1 3.75273(15) 105_645 n
Ce1 Zr1 3.75273(16) 106_654 n
Ce1 Zr1 3.75273(15) 204_465 n
Ce1 Zr1 3.75273(16) 206_564 n
Ce1 Zr1 3.75273(15) 304_456 n
Ce1 Zr1 3.75273(15) 305_546 n
Ce1 O1 2.5209(23) 1_555 n
Ce1 O1 2.5209(23) 2_555 n
Ce1 O1 2.5209(23) 3_555 n
Ce1 O2 2.326(4) 104_555 n
Ce1 O2 2.326(4) 119_555 n
Ce1 O2 2.326(4) 222_555 n
Ce1 O3 2.355(5) 1_555 n
Ce1 O5 2.240(5) 1_555 n
Zr1 Ce1 3.75273(15) 105_655 n
Zr1 Ce1 3.75273(16) 106_655 n
Zr1 Ce1 3.75273(15) 204_565 n
Zr1 Ce1 3.75273(16) 206_565 n
Zr1 Ce1 3.75273(15) 304_556 n
Zr1 Ce1 3.75273(15) 305_556 n
Zr1 O1 2.1541(27) 106_655 n
Zr1 O1 2.1541(27) 204_565 n
Zr1 O1 2.1541(27) 305_556 n
Zr1 O2 2.228(4) 8_656 n
Zr1 O2 2.228(4) 9_665 n
Zr1 O2 2.228(4) 10_566 n
Zr1 O4 2.370(4) 1_555 n
Zr1 O6 2.225(4) 1_555 n
O1 Ce1 2.5209(23) 1_555 n
O1 Ce1 2.5209(23) 4_555 n
O1 Zr1 2.1541(27) 105_645 n
O1 Zr1 2.1541(27) 106_654 n
O2 Ce1 2.326(4) 205_555 n
O2 Ce1 2.326(4) 306_555 n
O2 Zr1 2.228(4) 4_566 n
O2 Zr1 2.228(4) 101_544 n
O3 Ce1 2.355(5) 1_555 n
O3 Ce1 2.355(5) 4_555 n
O3 Ce1 2.355(5) 5_555 n
O3 Ce1 2.355(5) 6_555 n
O4 Zr1 2.370(4) 1_555 n
O4 Zr1 2.370(4) 4_566 n
O4 Zr1 2.370(4) 5_656 n
O4 Zr1 2.370(4) 6_665 n
O5 Ce1 2.240(5) 1_555 n
O5 Ce1 2.240(5) 104_555 n
O5 Ce1 2.240(5) 205_555 n
O5 Ce1 2.240(5) 306_555 n
O6 Zr1 2.225(4) 1_555 n
O6 Zr1 2.225(4) 104_566 n
O6 Zr1 2.225(4) 205_656 n
O6 Zr1 2.225(4) 306_665 n
loop_
_pd_meas_counts_total
_pd_proc_ls_weight
_pd_proc_intensity_bkg_calc
_pd_calc_intensity_total
420.0 0.002381 432.89471 432.89465
431.0 0.002320 433.10117 433.10114
434.0 0.002304 433.31146 433.31137
428.0 0.002336 433.52545 433.52533
440.0 0.002273 433.74292 433.74283
456.0 0.002193 433.96387 433.96384
446.0 0.002242 434.18820 434.18811
418.0 0.002392 434.41565 434.41559
402.0 0.002488 434.64630 434.64624
413.0 0.002421 434.87988 434.87982
428.0 0.002336 435.11636 435.11627
456.0 0.002193 435.35568 435.35559
457.0 0.002188 435.59756 435.59747
423.0 0.002364 435.84201 435.84195
425.0 0.002353 436.08884 436.08871
451.0 0.002217 436.33804 436.33798
465.0 0.002151 436.58945 436.58932
458.0 0.002183 436.84299 436.84293
451.0 0.002217 437.09848 437.09836
454.0 0.002203 437.35577 437.35565
460.0 0.002174 437.61496 437.61487
452.0 0.002212 437.87573 437.87564
442.0 0.002262 438.13806 438.13800
459.0 0.002179 438.40189 438.40179
431.0 0.002320 438.66705 438.66696
402.0 0.002488 438.93344 438.93335
411.0 0.002433 439.20099 439.20087
414.0 0.002415 439.46942 439.46933
439.0 0.002278 439.73895 439.73886
458.0 0.002183 440.00928 440.00916
450.0 0.002222 440.28024 440.28018
438.0 0.002283 440.55200 440.55194
438.0 0.002283 440.82419 440.82407
453.0 0.002208 441.09680 441.09671
441.0 0.002268 441.36969 441.36960
406.0 0.002463 441.64291 441.64285
430.0 0.002326 441.91635 441.91626
432.0 0.002315 442.18976 442.18961
428.0 0.002336 442.46313 442.46301
444.0 0.002252 442.73633 442.73630
442.0 0.002262 443.00946 443.00937
453.0 0.002208 443.28226 443.28214
455.0 0.002198 443.55466 443.55453
450.0 0.002222 443.82663 443.82654
460.0 0.002174 444.09793 444.09787
441.0 0.002268 444.36874 444.36862
444.0 0.002252 444.63876 444.63867
448.0 0.002232 444.90802 444.90793
419.0 0.002387 445.17648 445.17642
445.0 0.002247 445.44403 445.44388
446.0 0.002242 445.71045 445.71036
449.0 0.002227 445.97586 445.97574
486.0 0.002058 446.24008 446.24002
450.0 0.002222 446.50305 446.50299
445.0 0.002247 446.76486 446.76483
467.0 0.002141 447.02527 447.02512
472.0 0.002119 447.28421 447.28415
484.0 0.002066 447.54166 447.54153
455.0 0.002198 447.79764 447.79755
429.0 0.002331 448.05197 448.05188
450.0 0.002222 448.30466 448.30453
479.0 0.002088 448.55557 448.55548
460.0 0.002174 448.80478 448.80469
424.0 0.002358 449.05215 449.05203
416.0 0.002404 449.29758 449.29752
435.0 0.002299 449.54114 449.54102
439.0 0.002278 449.78271 449.78259
431.0 0.002320 450.02225 450.02219
440.0 0.002273 450.25970 450.25958
459.0 0.002179 450.49509 450.49496
414.0 0.002415 450.72830 450.72818
416.0 0.002404 450.95920 450.95914
447.0 0.002237 451.18796 451.18793
430.0 0.002326 451.41437 451.41431
462.0 0.002165 451.63855 451.63846
481.0 0.002079 451.86032 451.86020
468.0 0.002137 452.07980 452.07968
466.0 0.002146 452.29675 452.29666
482.0 0.002075 452.51129 452.51120
465.0 0.002151 452.72336 452.72330
444.0 0.002252 452.93289 452.93277
441.0 0.002268 453.13989 453.13977
394.0 0.002538 453.34436 453.34427
430.0 0.002326 453.54620 453.54614
474.0 0.002110 453.74551 453.74539
445.0 0.002247 453.94217 453.94208
459.0 0.002179 454.13614 454.13605
465.0 0.002151 454.32755 454.32748
451.0 0.002217 454.51620 454.51611
442.0 0.002262 454.70221 454.70212
437.0 0.002288 454.88550 454.88544
452.0 0.002212 455.06610 455.06601
475.0 0.002105 455.24380 455.24377
482.0 0.002075 455.41901 455.41891
468.0 0.002137 455.59140 455.59134
466.0 0.002146 455.76102 457.10635
471.0 0.002123 455.92786 457.43445
462.0 0.002165 456.09198 457.81503
455.0 0.002198 456.25327 458.29803
482.0 0.002075 456.41187 458.98688
484.0 0.002066 456.56775 460.08273
457.0 0.002188 456.72070 461.95233
488.0 0.002049 456.87100 465.21411
503.0 0.001988 457.01849 470.82321
513.0 0.001949 457.16330 480.11377
548.0 0.001825 457.30530 494.73383
568.0 0.001761 457.44464 516.40790
565.0 0.001770 457.58115 546.49213
595.0 0.001681 457.71494 585.36902
650.0 0.001538 457.84607 631.82886
638.0 0.001567 457.97458 682.67175
661.0 0.001513 458.10025 732.75476
734.0 0.001362 458.22336 775.61487
788.0 0.001269 458.34372 804.65485
785.0 0.001274 458.46143 814.78851
796.0 0.001256 458.57654 804.11920
797.0 0.001255 458.68909 774.68610
747.0 0.001339 458.79898 731.66455
689.0 0.001451 458.90634 681.67432
642.0 0.001558 459.01117 631.14740
602.0 0.001661 459.11340 585.16077
561.0 0.001783 459.21313 546.83759
522.0 0.001916 459.31046 517.31824
489.0 0.002045 459.40527 496.17203
460.0 0.002174 459.49771 482.01865
439.0 0.002278 459.58768 473.12970
444.0 0.002252 459.67520 467.86584
444.0 0.002252 459.76047 464.90704
446.0 0.002242 459.84338 463.31198
470.0 0.002128 459.92401 462.47333
479.0 0.002088 460.00235 462.03214
452.0 0.002212 460.07852 461.79199
441.0 0.002268 460.15237 461.72449
480.0 0.002083 460.22418 460.30563
473.0 0.002114 460.29379 460.38782
454.0 0.002203 460.36127 460.47461
456.0 0.002193 460.42676 460.57239
463.0 0.002160 460.49008 460.69321
465.0 0.002151 460.55148 460.85873
479.0 0.002088 460.61093 461.10388
486.0 0.002058 460.66846 461.48010
452.0 0.002212 460.72403 462.05536
433.0 0.002309 460.77777 462.90753
441.0 0.002268 460.82968 464.10846
463.0 0.002160 460.87982 465.69925
485.0 0.002062 460.92831 467.66122
479.0 0.002088 460.97498 469.89136
453.0 0.002208 461.02005 472.19455
445.0 0.002247 461.06348 474.29938
481.0 0.002079 461.10550 475.90121
494.0 0.002024 461.14575 476.72955
489.0 0.002045 461.18454 476.63303
488.0 0.002049 461.22195 475.63867
472.0 0.002119 461.25800 473.94028
482.0 0.002075 461.29260 471.82623
490.0 0.002041 461.32593 469.59787
464.0 0.002155 461.35788 467.50784
459.0 0.002179 461.38873 465.72568
456.0 0.002193 461.41837 464.32825
448.0 0.002232 461.44678 463.31436
457.0 0.002188 461.47424 462.63135
472.0 0.002119 461.50043 462.20334
474.0 0.002110 461.52570 461.95435
466.0 0.002146 461.55005 461.82092
467.0 0.002141 461.57346 461.75647
473.0 0.002114 461.59604 461.73047
490.0 0.002041 461.61774 461.72455
494.0 0.002024 461.63861 461.72861
455.0 0.002198 461.65887 461.73743
473.0 0.002114 461.67834 461.67828
488.0 0.002049 461.69724 461.69714
453.0 0.002208 461.71542 461.71533
450.0 0.002222 461.73315 461.73315
462.0 0.002165 461.75034 461.75024
468.0 0.002137 461.76712 461.76700
463.0 0.002160 461.78351 461.78345
441.0 0.002268 461.79953 461.79941
444.0 0.002252 461.81516 461.81509
452.0 0.002212 461.83060 461.83051
439.0 0.002278 461.84583 461.84570
463.0 0.002160 461.86081 461.86069
473.0 0.002114 461.87564 461.87558
456.0 0.002193 461.89053 461.89041
454.0 0.002203 461.90521 461.90515
432.0 0.002315 461.91995 461.91992
443.0 0.002257 461.93481 461.93478
484.0 0.002066 461.94968 461.94958
468.0 0.002137 461.96487 461.96472
448.0 0.002232 461.98019 461.98007
456.0 0.002193 461.99564 461.99557
479.0 0.002088 462.01141 462.01132
483.0 0.002070 462.02762 462.02753
444.0 0.002252 462.04416 462.04401
421.0 0.002375 462.06107 462.06094
453.0 0.002208 462.07849 462.07840
447.0 0.002237 462.09641 462.09634
450.0 0.002222 462.11496 462.11490
470.0 0.002128 462.13400 462.13391
466.0 0.002146 462.15375 462.15366
475.0 0.002105 462.17413 462.17407
471.0 0.002123 462.19534 462.19522
449.0 0.002227 462.21732 462.21725
456.0 0.002193 462.24005 462.23993
470.0 0.002128 462.26367 462.26361
484.0 0.002066 462.28815 462.28809
490.0 0.002041 462.31369 462.31360
461.0 0.002169 462.34012 462.34003
450.0 0.002222 462.36765 462.36749
459.0 0.002179 462.39621 462.39612
456.0 0.002193 462.42587 462.42572
448.0 0.002232 462.45670 462.45660
454.0 0.002203 462.48862 462.48859
466.0 0.002146 462.52191 462.52182
461.0 0.002169 462.55643 462.55637
445.0 0.002247 462.59238 462.59225
458.0 0.002183 462.62949 462.62939
482.0 0.002075 462.66806 462.66797
458.0 0.002183 462.70804 462.70795
482.0 0.002075 462.74945 462.74936
500.0 0.002000 462.79245 462.79239
458.0 0.002183 462.83694 462.83685
467.0 0.002141 462.88303 462.88293
464.0 0.002155 462.93066 462.93057
449.0 0.002227 462.98001 462.97986
471.0 0.002123 463.03094 463.03085
476.0 0.002101 463.08356 463.08350
473.0 0.002114 463.13803 463.13794
474.0 0.002110 463.19424 463.19418
470.0 0.002128 463.25229 463.25220
483.0 0.002070 463.31219 463.31210
472.0 0.002119 463.37393 463.37384
437.0 0.002288 463.43750 463.43747
459.0 0.002179 463.50314 463.50302
447.0 0.002237 463.57062 463.57053
433.0 0.002309 463.64017 463.64008
478.0 0.002092 463.71176 463.71167
486.0 0.002058 463.78540 463.78534
483.0 0.002070 463.86108 463.86096
487.0 0.002053 463.93884 463.93875
476.0 0.002101 464.01889 464.01877
472.0 0.002119 464.10095 464.10086
461.0 0.002169 464.18530 464.18518
450.0 0.002222 464.27173 464.27164
477.0 0.002096 464.36050 464.36044
469.0 0.002132 464.45154 464.45148
464.0 0.002155 464.54486 464.62436
504.0 0.001984 464.64038 464.72937
501.0 0.001996 464.73840 464.83960
472.0 0.002119 464.83865 464.95694
451.0 0.002217 464.94141 465.08591
446.0 0.002242 465.04651 465.23486
440.0 0.002273 465.15402 465.41943
442.0 0.002262 465.26398 465.66534
452.0 0.002212 465.37637 466.01193
460.0 0.002174 465.49127 466.51300
470.0 0.002128 465.60864 467.23224
482.0 0.002075 465.72849 468.23105
486.0 0.002058 465.85095 469.54904
473.0 0.002114 465.97595 471.17798
472.0 0.002119 466.10349 473.04056
472.0 0.002119 466.23358 474.98093
453.0 0.002208 466.36624 476.77399
465.0 0.002151 466.50162 478.15967
483.0 0.002070 466.63953 478.90222
485.0 0.002062 466.78012 478.87265
490.0 0.002041 466.92334 478.10828
474.0 0.002110 467.06921 476.79465
469.0 0.002132 467.21780 475.18723
483.0 0.002070 467.36899 473.53665
451.0 0.002217 467.52295 472.04074
440.0 0.002273 467.67960 470.82162
461.0 0.002169 467.83893 469.92459
463.0 0.002160 468.00098 469.33395
449.0 0.002227 468.16580 468.99811
452.0 0.002212 468.33325 468.85239
470.0 0.002128 468.50357 468.83676
467.0 0.002141 468.67664 468.90332
469.0 0.002132 468.85236 469.01877
467.0 0.002141 469.03082 469.16238
455.0 0.002198 469.21216 469.32217
459.0 0.002179 469.39615 469.49155
456.0 0.002193 469.58295 469.66760
443.0 0.002257 469.77258 469.77249
443.0 0.002257 469.96490 469.96484
461.0 0.002169 470.16006 470.15994
457.0 0.002188 470.35800 470.35788
450.0 0.002222 470.55872 470.55856
494.0 0.002024 470.76215 470.76199
501.0 0.001996 470.96838 470.96826
485.0 0.002062 471.17746 471.17734
483.0 0.002070 471.38925 471.38916
464.0 0.002155 471.60373 471.60364
455.0 0.002198 471.82117 471.82111
462.0 0.002165 472.04123 472.04111
467.0 0.002141 472.26416 472.26401
463.0 0.002160 472.48978 472.48965
444.0 0.002252 472.71808 472.71796
433.0 0.002309 472.94925 472.94913
455.0 0.002198 473.18311 473.18295
471.0 0.002123 473.41965 473.41953
462.0 0.002165 473.65900 473.65891
450.0 0.002222 473.90106 473.90097
471.0 0.002123 474.14581 474.14566
478.0 0.002092 474.39325 474.39316
472.0 0.002119 474.64337 474.64325
478.0 0.002092 474.89627 474.89615
447.0 0.002237 475.15173 475.15164
429.0 0.002331 475.40991 475.40985
455.0 0.002198 475.67075 475.67062
485.0 0.002062 475.93420 475.93411
495.0 0.002020 476.20038 476.20026
492.0 0.002033 476.46902 476.46893
495.0 0.002020 476.74036 479.86877
513.0 0.001949 477.01428 480.50928
513.0 0.001949 477.29071 481.24765
488.0 0.002049 477.56976 482.15207
470.0 0.002128 477.85138 483.36154
496.0 0.002016 478.13550 485.14719
517.0 0.001934 478.42206 488.00607
521.0 0.001919 478.71118 492.78006
540.0 0.001852 479.00290 500.76630
529.0 0.001890 479.29691 513.75488
570.0 0.001754 479.59348 533.89478
670.0 0.001493 479.89240 563.29810
668.0 0.001497 480.19379 603.36157
664.0 0.001506 480.49753 653.91162
733.0 0.001364 480.80368 712.43347
834.0 0.001199 481.11215 773.70276
881.0 0.001135 481.42294 847.04297
893.0 0.001120 481.73611 891.04059
902.0 0.001109 482.05148 913.08429
897.0 0.001115 482.36917 908.74115
857.0 0.001167 482.68909 879.62396
835.0 0.001198 483.01126 832.59021
832.0 0.001202 483.33560 776.81555
757.0 0.001321 483.66220 721.24927
720.0 0.001389 483.99084 673.28723
717.0 0.001395 484.32178 638.51526
696.0 0.001437 484.65475 621.41614
742.0 0.001348 484.98975 626.85345
797.0 0.001255 485.32687 661.85547
867.0 0.001153 485.66599 736.95837
1038.0 0.000963 486.00714 866.22858
1245.0 0.000803 486.35031 1065.15295
1525.0 0.000656 486.69540 1346.05261
1896.0 0.000527 487.04248 1711.60339
2261.0 0.000442 487.39139 2148.20728
2600.0 0.000385 487.74222 2621.71533
2986.0 0.0003349 488.09491 3077.70996
3379.0 0.0002959 488.44940 3444.64966
3499.0 0.0002858 488.80573 3659.61084
3440.0 0.0002907 489.16385 3672.11230
3289.0 0.0003040 489.52368 3479.29980
2997.0 0.0003337 489.88516 3124.20557
2550.0 0.000392 490.24841 2674.73340
2077.0 0.000481 490.61331 2200.32910
1657.0 0.000604 490.97986 1757.36755
1252.0 0.000799 491.34793 1382.24817
968.0 0.001033 491.71759 1090.42480
801.0 0.001248 492.08884 880.15009
679.0 0.001473 492.46158 738.84521
592.0 0.001689 492.83578 649.61499
552.0 0.001812 493.21136 596.11786
553.0 0.001808 493.58850 565.18347
563.0 0.001776 493.96695 547.50726
552.0 0.001812 494.34674 537.18201
552.0 0.001812 494.72787 530.78168
552.0 0.001812 495.11029 526.46448
498.0 0.002008 495.49399 523.29700
487.0 0.002053 495.87888 520.82092
495.0 0.002020 496.26501 518.80902
483.0 0.002070 496.65225 517.14069
509.0 0.001965 497.04074 515.74420
517.0 0.001934 497.43018 514.57092
506.0 0.001976 497.82074 497.82056
516.0 0.001938 498.21231 498.21216
512.0 0.001953 498.60492 498.60480
499.0 0.002004 498.99847 498.99838
490.0 0.002041 499.39297 499.39288
484.0 0.002066 499.78836 499.78824
485.0 0.002062 500.18463 500.18448
507.0 0.001972 500.58167 500.58154
529.0 0.001890 500.97955 500.97940
503.0 0.001988 501.37820 501.37808
499.0 0.002004 501.77756 501.77747
516.0 0.001938 502.17764 502.17755
509.0 0.001965 502.57840 502.57822
493.0 0.002028 502.97977 502.97961
494.0 0.002024 503.38168 503.38156
500.0 0.002000 503.78427 503.78412
484.0 0.002066 504.18723 504.18713
480.0 0.002083 504.59076 504.59061
488.0 0.002049 504.99472 504.99457
495.0 0.002020 505.39911 505.39902
495.0 0.002020 505.80386 505.80377
477.0 0.002096 506.20895 506.20886
468.0 0.002137 506.61444 506.61435
474.0 0.002110 507.02017 507.02008
461.0 0.002169 507.42618 507.42603
482.0 0.002075 507.83224 507.83215
502.0 0.001992 508.23862 508.23856
486.0 0.002058 508.64511 508.64505
524.0 0.001908 509.05188 514.86096
548.0 0.001825 509.45850 515.79218
528.0 0.001894 509.86523 516.79694
510.0 0.001961 510.27188 517.89044
497.0 0.002012 510.67856 519.09430
512.0 0.001953 511.08527 520.44214
541.0 0.001848 511.49176 521.99377
534.0 0.001873 511.89816 523.86548
517.0 0.001934 512.30432 526.29089
502.0 0.001992 512.71033 529.73169
494.0 0.002024 513.11609 535.05774
516.0 0.001938 513.52155 543.79749
564.0 0.001773 513.92676 558.41663
604.0 0.001656 514.33154 582.50879
634.0 0.001577 514.73596 620.70374
719.0 0.001391 515.14014 678.05908
799.0 0.001252 515.54370 758.79395
882.0 0.001134 515.94684 864.45844
1018.0 0.000982 516.34949 991.97437
1131.0 0.000884 516.75159 1132.23657
1228.0 0.000814 517.15295 1269.91479
1341.0 0.000746 517.55383 1384.86047
1452.0 0.000689 517.95416 1455.73413
1458.0 0.000686 518.35364 1466.75806
1369.0 0.000730 518.75232 1415.34180
1263.0 0.000792 519.15051 1313.57874
1186.0 0.000843 519.54785 1181.85828
1087.0 0.000920 519.94434 1041.26868
933.0 0.001072 520.33990 908.98779
778.0 0.001285 520.73474 796.24017
716.0 0.001397 521.12854 707.99957
635.0 0.001575 521.52148 644.04932
561.0 0.001783 521.91351 600.83545
558.0 0.001792 522.30438 573.40533
515.0 0.001942 522.69427 556.88849
495.0 0.002020 523.08319 547.31616
524.0 0.001908 523.47076 541.85907
545.0 0.001835 523.85742 538.70746
542.0 0.001845 524.24274 536.80304
528.0 0.001894 524.62695 535.57202
531.0 0.001883 525.01013 534.72070
555.0 0.001802 525.39172 534.10205
562.0 0.001779 525.77234 533.64227
559.0 0.001789 526.15137 533.30066
556.0 0.001799 526.52917 533.05273
541.0 0.001848 526.90558 532.88165
520.0 0.001923 527.28058 527.28052
523.0 0.001912 527.65411 527.65399
544.0 0.001838 528.02631 528.02625
532.0 0.001880 528.39703 528.39685
505.0 0.001980 528.76605 530.43488
515.0 0.001942 529.13373 530.95343
552.0 0.001812 529.49957 531.49146
521.0 0.001919 529.86389 532.05365
515.0 0.001942 530.22662 532.64581
540.0 0.001852 530.58777 533.27789
546.0 0.001832 530.94708 533.96649
559.0 0.001789 531.30475 534.74390
553.0 0.001808 531.66077 535.67456
546.0 0.001832 532.01489 536.88336
562.0 0.001779 532.36731 538.60455
546.0 0.001832 532.71765 541.24487
583.0 0.001715 533.06647 545.45575
650.0 0.001538 533.41333 552.17700
642.0 0.001558 533.75818 562.60791
627.0 0.001595 534.10138 578.06555
646.0 0.001548 534.44232 599.56573
680.0 0.001471 534.78149 627.48083
701.0 0.001427 535.11853 660.95966
747.0 0.001339 535.45355 697.59937
793.0 0.001261 535.78662 733.39423
814.0 0.001229 536.11755 763.08643
822.0 0.001217 536.44647 781.11334
811.0 0.001233 536.77319 783.43030
785.0 0.001274 537.09796 769.54584
762.0 0.001312 537.42041 742.81439
744.0 0.001344 537.74060 708.63892
674.0 0.001484 538.05872 672.47156
657.0 0.001522 538.37457 638.67456
691.0 0.001447 538.68823 610.05481
607.0 0.001647 538.99951 587.82648
567.0 0.001764 539.30865 571.89935
564.0 0.001773 539.61530 561.34949
541.0 0.001848 539.91986 554.90485
541.0 0.001848 540.22211 551.30688
554.0 0.001805 540.52185 549.51038
561.0 0.001783 540.81909 548.73938
559.0 0.001789 541.11414 548.46161
562.0 0.001779 541.40674 548.33350
562.0 0.001779 541.69678 548.16052
568.0 0.001761 541.98444 547.87042
572.0 0.001748 542.26971 547.47900
557.0 0.001795 542.55243 547.04199
570.0 0.001754 542.83252 546.62079
561.0 0.001783 543.11029 546.26459
524.0 0.001908 543.38550 546.00256
563.0 0.001776 543.65808 544.27765
543.0 0.001842 543.92804 544.33643
522.0 0.001916 544.19550 544.46204
561.0 0.001783 544.46045 544.63672
537.0 0.001862 544.72266 544.84412
535.0 0.001869 544.98230 545.07111
541.0 0.001848 545.23932 545.30853
525.0 0.001905 545.49377 545.55066
544.0 0.001838 545.74536 545.79407
526.0 0.001901 545.99420 546.03699
519.0 0.001927 546.24048 546.27863
564.0 0.001773 546.48413 546.51831
574.0 0.001742 546.72498 546.75598
522.0 0.001916 546.96320 546.99127
500.0 0.002000 547.19861 547.22430
543.0 0.001842 547.43134 547.43127
555.0 0.001802 547.66125 547.66119
555.0 0.001802 547.88843 547.88837
561.0 0.001783 548.11292 548.11279
555.0 0.001802 548.33441 548.33435
525.0 0.001905 548.55316 548.55310
525.0 0.001905 548.76917 548.76904
521.0 0.001919 548.98236 548.98230
515.0 0.001942 549.19263 549.19263
564.0 0.001773 549.40027 549.40021
555.0 0.001802 549.60486 549.60480
520.0 0.001923 549.80701 549.80688
511.0 0.001957 550.00592 550.00580
511.0 0.001957 550.20215 550.20203
519.0 0.001927 550.39532 551.17053
524.0 0.001908 550.58563 551.42889
520.0 0.001923 550.77319 551.69354
517.0 0.001934 550.95801 551.96643
525.0 0.001905 551.13989 552.24969
523.0 0.001912 551.31873 552.54675
511.0 0.001957 551.49475 552.86322
517.0 0.001934 551.66791 553.20850
560.0 0.001786 551.83813 553.60114
586.0 0.001706 552.00543 554.07684
571.0 0.001751 552.16992 554.70343
552.0 0.001812 552.33148 555.60297
575.0 0.001739 552.48999 556.97949
560.0 0.001786 552.64575 559.14624
563.0 0.001776 552.79865 562.53430
554.0 0.001805 552.94849 567.66449
552.0 0.001812 553.09540 575.05743
587.0 0.001704 553.23956 585.07849
604.0 0.001656 553.38068 597.73724
630.0 0.001587 553.51904 612.49872
651.0 0.001536 553.65442 628.16797
637.0 0.001570 553.78674 642.90192
662.0 0.001511 553.91620 654.39227
693.0 0.001443 554.04285 660.34808
694.0 0.001441 554.16669 659.37476
679.0 0.001473 554.28748 651.74780
677.0 0.001477 554.40533 639.24500
639.0 0.001565 554.52045 624.23999
583.0 0.001715 554.63257 608.93121
577.0 0.001733 554.74188 594.97174
590.0 0.001695 554.84808 583.34705
574.0 0.001742 554.95166 574.40771
558.0 0.001792 555.05219 568.01166
581.0 0.001721 555.14990 563.72583
559.0 0.001789 555.24481 561.01605
532.0 0.001880 555.33685 559.38269
535.0 0.001869 555.42603 558.42993
541.0 0.001848 555.51227 561.10583
539.0 0.001855 555.59570 561.01807
544.0 0.001838 555.67651 561.08136
557.0 0.001795 555.75415 561.24414
555.0 0.001802 555.82910 561.48193
533.0 0.001876 555.90125 561.78552
541.0 0.001848 555.97052 562.15356
563.0 0.001776 556.03699 562.59009
534.0 0.001873 556.10077 563.10291
524.0 0.001908 556.16180 562.88306
533.0 0.001876 556.21997 563.65759
529.0 0.001890 556.27533 564.56488
517.0 0.001934 556.32800 565.66425
530.0 0.001887 556.37781 567.06842
559.0 0.001789 556.42511 568.99335
578.0 0.001730 556.46954 571.84192
586.0 0.001706 556.51123 576.32806
583.0 0.001715 556.55023 583.62738
610.0 0.001639 556.58661 595.51416
652.0 0.001534 556.62024 614.39630
627.0 0.001595 556.65125 643.13220
656.0 0.001524 556.67963 684.52332
721.0 0.001387 556.70526 740.45758
754.0 0.001326 556.72827 810.83746
812.0 0.001232 556.74890 892.57959
892.0 0.001121 556.76660 979.01874
981.0 0.001019 556.78168 1059.96423
1076.0 0.000929 556.79443 1122.67004
1163.0 0.000860 556.80438 1154.50012
1178.0 0.000849 556.81201 1147.83740
1127.0 0.000887 556.81708 1104.35645
1065.0 0.000939 556.81946 1033.99426
974.0 0.001027 556.81934 949.87311
891.0 0.001122 556.81683 864.06525
816.0 0.001225 556.81189 785.62207
728.0 0.001374 556.80426 719.96698
702.0 0.001425 556.79431 669.08081
675.0 0.001481 556.78192 632.26587
602.0 0.001661 556.76721 607.21149
550.0 0.001818 556.75006 591.01794
579.0 0.001727 556.73035 580.93964
604.0 0.001656 556.70844 574.77643
567.0 0.001764 556.68420 570.96814
552.0 0.001812 556.65759 568.51202
580.0 0.001724 556.62866 566.81622
573.0 0.001745 556.59741 565.55225
515.0 0.001942 556.56384 564.54718
541.0 0.001848 556.52802 563.71033
581.0 0.001721 556.48993 562.99298
575.0 0.001739 556.44958 562.36743
548.0 0.001825 556.40710 561.81531
551.0 0.001815 556.36243 561.32355
559.0 0.001789 556.31561 560.88220
547.0 0.001828 556.26660 560.48352
537.0 0.001862 556.21552 560.12085
579.0 0.001727 556.16223 559.78912
604.0 0.001656 556.10687 556.10681
574.0 0.001742 556.04938 556.04926
547.0 0.001828 555.99005 555.98999
564.0 0.001773 555.92834 555.92834
572.0 0.001748 555.86481 555.86475
545.0 0.001835 555.79932 555.79932
556.0 0.001799 555.73181 555.73181
583.0 0.001715 555.66229 555.66229
584.0 0.001712 555.59094 555.59088
558.0 0.001792 555.51770 555.51764
566.0 0.001767 555.44244 627.14386
589.0 0.001698 555.36542 632.32288
593.0 0.001686 555.28638 638.09283
570.0 0.001754 555.20563 644.54492
563.0 0.001776 555.12311 651.78882
591.0 0.001692 555.03882 659.95697
629.0 0.001590 554.95282 669.21143
639.0 0.001565 554.86499 679.75531
665.0 0.001504 554.77539 691.85309
687.0 0.001456 554.68420 705.87366
690.0 0.001449 554.59125 722.38165
723.0 0.001383 554.49664 742.33295
761.0 0.001314 554.40039 767.46887
802.0 0.001247 554.30267 801.05731
872.0 0.001147 554.20325 849.16034
987.0 0.001013 554.10242 922.56549
1101.0 0.000908 553.99988 1039.30725
1249.0 0.000801 553.89581 1227.26489
1538.0 0.000650 553.79034 1525.65552
1985.0 0.000504 553.68329 1983.60291
2558.0 0.000391 553.57495 2653.80200
3328.0 0.0003005 553.46509 3580.15381
4473.0 0.0002236 553.35388 4780.35938
5937.0 0.0001684 553.24139 6227.16553
7559.0 0.0001323 553.12750 7833.69531
9211.0 0.0001086 553.01208 9447.59570
10827.0 0.0000924 552.89551 10857.34375
12027.0 0.0000831 552.77771 11819.54004
12579.0 0.0000795 552.65869 12126.10938
12479.0 0.0000801 552.53833 11701.79297
11695.0 0.0000855 552.41675 10649.45410
10197.0 0.0000981 552.29413 9189.50879
8309.0 0.0001204 552.17017 7563.45459
6577.0 0.0001520 552.04523 5974.20703
4892.0 0.0002044 551.91913 4563.42334
3498.0 0.0002859 551.79199 3407.50757
2609.0 0.000383 551.66376 2525.14478
1938.0 0.000516 551.53442 1893.77136
1459.0 0.000685 551.40411 1465.49341
1155.0 0.000866 551.27289 1188.22363
962.0 0.001040 551.14069 1014.18372
880.0 0.001136 551.00745 906.02515
833.0 0.001200 550.87347 837.63940
781.0 0.001280 550.73828 792.37018
747.0 0.001339 550.60248 760.36920
712.0 0.001404 550.46582 736.15027
693.0 0.001443 550.32849 716.77094
702.0 0.001425 550.19031 700.66437
697.0 0.001435 550.05103 686.96826
670.0 0.001493 549.91119 676.14081
647.0 0.001546 549.77075 666.01019
665.0 0.001504 549.62952 657.28357
711.0 0.001406 549.48779 649.87018
703.0 0.001422 549.34515 643.78577
659.0 0.001517 549.20203 639.16809
681.0 0.001468 549.05835 636.28394
715.0 0.001399 548.91406 564.62445
703.0 0.001422 548.76923 571.06549
670.0 0.001493 548.62384 579.99176
700.0 0.001429 548.47809 591.61633
716.0 0.001397 548.33173 605.74976
705.0 0.001418 548.18506 621.66138
717.0 0.001395 548.03778 638.01654
724.0 0.001381 547.89020 652.92456
725.0 0.001379 547.74225 664.17004
720.0 0.001389 547.59406 669.80536
699.0 0.001431 547.44543 669.11041
676.0 0.001479 547.29645 663.21857
688.0 0.001453 547.14734 654.69708
719.0 0.001391 546.99786 646.53815
673.0 0.001486 546.84821 641.36395
635.0 0.001575 546.69824 640.96313
635.0 0.001575 546.54822 646.01221
633.0 0.001580 546.39801 655.94305
662.0 0.001511 546.24768 668.98053
665.0 0.001504 546.09735 682.34375
635.0 0.001575 545.94672 692.64380
657.0 0.001522 545.79608 696.65887
666.0 0.001502 545.64539 692.53467
661.0 0.001513 545.49481 680.63892
669.0 0.001495 545.34412 663.15613
649.0 0.001541 545.19354 642.90814
634.0 0.001577 545.04309 622.45703
614.0 0.001629 544.89264 603.71759
554.0 0.001805 544.74231 587.85211
532.0 0.001880 544.59192 575.31122
549.0 0.001821 544.44202 565.98212
564.0 0.001773 544.29199 559.39569
568.0 0.001761 544.14227 554.93427
570.0 0.001754 543.99274 551.98950
559.0 0.001789 543.84332 550.05389
529.0 0.001890 543.69434 548.75226
528.0 0.001894 543.54578 547.83264
556.0 0.001799 543.39722 546.37006
586.0 0.001706 543.24915 545.86017
588.0 0.001701 543.10144 545.42859
563.0 0.001776 542.95404 545.20032
549.0 0.001821 542.80713 544.86749
564.0 0.001773 542.66052 544.56348
574.0 0.001742 542.51434 544.28333
555.0 0.001802 542.36871 544.02332
533.0 0.001876 542.22351 543.78082
540.0 0.001852 542.07867 543.55389
526.0 0.001901 541.93457 543.34131
517.0 0.001934 541.79095 543.14191
537.0 0.001862 541.64789 541.96509
553.0 0.001808 541.50531 541.85687
549.0 0.001821 541.36334 541.75671
549.0 0.001821 541.22211 541.66785
569.0 0.001757 541.08167 541.59753
563.0 0.001776 540.94147 541.55664
559.0 0.001789 540.80206 541.56598
570.0 0.001754 540.66364 541.65808
576.0 0.001736 540.52576 541.88110
577.0 0.001733 540.38855 542.30121
560.0 0.001786 540.25232 542.99963
542.0 0.001845 540.11652 544.06061
578.0 0.001730 539.98187 545.55566
580.0 0.001724 539.84796 547.51337
551.0 0.001815 539.71460 549.89410
560.0 0.001786 539.58258 552.56665
569.0 0.001757 539.45105 555.29572
572.0 0.001748 539.32043 557.74762
572.0 0.001748 539.19073 559.52179
573.0 0.001745 539.06213 560.24274
609.0 0.001642 538.93439 559.71405
629.0 0.001590 538.80768 558.03082
595.0 0.001681 538.68188 555.52252
587.0 0.001704 538.55701 552.59528
568.0 0.001761 538.43311 549.61371
543.0 0.001842 538.31030 547.69330
565.0 0.001770 538.18872 545.37775
593.0 0.001686 538.06799 543.52704
592.0 0.001689 537.94843 542.13483
577.0 0.001733 537.82990 541.14392
592.0 0.001689 537.71246 540.47321
597.0 0.001675 537.59625 552.74695
570.0 0.001754 537.48108 553.26367
543.0 0.001842 537.36713 553.97076
578.0 0.001730 537.25427 554.84424
579.0 0.001727 537.14270 555.87811
544.0 0.001838 537.03217 557.08344
589.0 0.001698 536.92303 558.48914
580.0 0.001724 536.81506 560.14777
551.0 0.001815 536.70837 562.14734
563.0 0.001776 536.60278 564.62622
527.0 0.001898 536.49866 567.79468
540.0 0.001852 536.39575 571.95117
593.0 0.001686 536.29401 577.49109
587.0 0.001704 536.19373 584.88971
617.0 0.001621 536.09479 594.65729
629.0 0.001590 535.99713 607.26453
605.0 0.001653 535.90082 622.90564
651.0 0.001536 535.80579 642.08917
703.0 0.001422 535.71216 664.72064
718.0 0.001393 535.62006 690.94940
726.0 0.001377 535.52930 721.35596
792.0 0.001263 535.43982 757.50470
865.0 0.001156 535.35181 802.74908
910.0 0.001099 535.26538 863.09442
963.0 0.001038 535.18024 947.30817
1029.0 0.000972 535.09674 1065.47742
1152.0 0.000868 535.01447 1226.28955
1348.0 0.000742 534.93372 1433.90515
1571.0 0.000637 534.85449 1685.05420
1878.0 0.000532 534.77673 1966.86157
2217.0 0.000451 534.70050 2255.81860
2472.0 0.000405 534.62573 2518.26147
2701.0 0.000370 534.55267 2713.56055
2880.0 0.0003472 534.48090 2803.10718
2926.0 0.0003418 534.41077 2765.69580
2786.0 0.000359 534.34216 2609.03271
2569.0 0.000389 534.27521 2365.05688
2287.0 0.000437 534.20978 2074.49951
1925.0 0.000519 534.14587 1774.60974
1589.0 0.000629 534.08337 1493.84607
1300.0 0.000769 534.02295 1250.51208
1063.0 0.000941 533.96362 1053.19360
892.0 0.001121 533.90607 902.43188
779.0 0.001284 533.85016 794.43848
709.0 0.001410 533.79584 718.94592
660.0 0.001515 533.74329 668.61139
610.0 0.001639 533.69202 635.82507
573.0 0.001745 533.64270 614.58124
566.0 0.001767 533.59497 600.58191
579.0 0.001727 533.54883 590.98999
553.0 0.001808 533.50427 583.19678
516.0 0.001938 533.46143 577.95355
515.0 0.001942 533.42035 573.76117
550.0 0.001818 533.38068 570.29755
559.0 0.001789 533.34290 567.37946
540.0 0.001852 533.30670 564.89697
523.0 0.001912 533.27216 562.78015
519.0 0.001927 533.23944 560.98291
523.0 0.001912 533.20831 559.47607
531.0 0.001883 533.17896 558.24780
539.0 0.001855 533.15118 557.30890
546.0 0.001832 533.12512 556.70355
528.0 0.001894 533.10071 556.52765
499.0 0.002004 533.07806 556.95490
522.0 0.001916 533.05719 558.26666
550.0 0.001818 533.03784 560.87952
572.0 0.001748 533.02026 565.35522
592.0 0.001689 533.00458 560.06189
564.0 0.001773 532.99042 571.02435
564.0 0.001773 532.97791 585.79889
593.0 0.001686 532.96722 604.68842
593.0 0.001686 532.95819 627.46399
657.0 0.001522 532.95087 653.17755
707.0 0.001414 532.94537 680.04523
683.0 0.001464 532.94153 705.43402
679.0 0.001473 532.93939 728.78046
711.0 0.001406 532.93896 741.22650
740.0 0.001351 532.94019 742.85632
728.0 0.001374 532.94330 733.34943
702.0 0.001425 532.94800 714.77533
691.0 0.001447 532.95441 690.51550
669.0 0.001495 532.96252 664.01691
596.0 0.001678 532.97235 638.11688
557.0 0.001795 532.98401 614.82092
563.0 0.001776 532.99701 595.28595
568.0 0.001761 533.01208 579.98907
546.0 0.001832 533.02863 568.60321
542.0 0.001845 533.04718 560.65564
551.0 0.001815 533.06720 555.44843
542.0 0.001845 533.08881 552.29718
531.0 0.001883 533.11218 550.63446
534.0 0.001873 533.13733 550.06079
537.0 0.001862 533.16412 550.36292
516.0 0.001938 533.19269 551.52118
501.0 0.001996 533.22272 553.72504
527.0 0.001898 533.25458 557.40265
566.0 0.001767 533.28796 563.25610
543.0 0.001842 533.32312 572.28375
539.0 0.001855 533.35986 585.75159
581.0 0.001721 533.39844 605.08051
633.0 0.001580 533.43854 631.61432
682.0 0.001466 533.48010 666.27856
690.0 0.001449 533.52356 709.16821
709.0 0.001410 533.56866 759.14667
815.0 0.001227 533.61517 813.54938
876.0 0.001142 533.66339 868.04932
892.0 0.001121 533.71338 916.74121
911.0 0.001098 533.76477 952.68707
922.0 0.001085 533.81775 969.44360
925.0 0.001081 533.87244 963.58038
923.0 0.001083 533.92859 935.25928
906.0 0.001104 533.98657 892.51105
848.0 0.001179 534.04578 841.03143
790.0 0.001266 534.10681 787.30786
736.0 0.001359 534.16931 736.36560
663.0 0.001508 534.23340 691.52258
634.0 0.001577 534.29895 654.43640
612.0 0.001634 534.36609 625.34485
577.0 0.001733 534.43475 603.45831
580.0 0.001724 534.50500 587.43848
558.0 0.001792 534.57654 575.84363
529.0 0.001890 534.64978 567.41815
529.0 0.001890 534.72430 561.19501
517.0 0.001934 534.80060 556.48981
513.0 0.001949 534.87830 552.84686
537.0 0.001862 534.95721 549.97925
567.0 0.001764 535.03790 547.90955
548.0 0.001825 535.11975 546.12634
533.0 0.001876 535.20319 544.73102
540.0 0.001852 535.28796 543.64783
517.0 0.001934 535.37415 542.81140
493.0 0.002028 535.46167 542.16492
491.0 0.002037 535.55084 541.66284
502.0 0.001992 535.64124 541.26868
508.0 0.001969 535.73309 540.95636
513.0 0.001949 535.82617 540.70691
527.0 0.001898 535.92078 540.50793
539.0 0.001855 536.01648 540.35059
522.0 0.001916 536.11365 540.22961
533.0 0.001876 536.21216 540.14142
561.0 0.001783 536.31183 540.08417
540.0 0.001852 536.41284 540.05811
506.0 0.001976 536.51508 537.38635
505.0 0.001980 536.61877 537.58429
528.0 0.001894 536.72363 537.82422
525.0 0.001905 536.82977 538.12982
527.0 0.001898 536.93707 538.53632
538.0 0.001859 537.04572 539.09460
547.0 0.001828 537.15533 539.87128
551.0 0.001815 537.26630 540.94830
541.0 0.001848 537.37823 542.41272
527.0 0.001898 537.49176 544.34424
526.0 0.001901 537.60596 546.71606
545.0 0.001835 537.72162 549.68250
556.0 0.001799 537.83826 553.08453
556.0 0.001799 537.95599 556.75195
563.0 0.001776 538.07495 566.13861
570.0 0.001754 538.19495 569.78534
561.0 0.001783 538.31604 572.66888
548.0 0.001825 538.43811 574.38837
555.0 0.001802 538.56128 574.71460
538.0 0.001859 538.68536 573.70721
533.0 0.001876 538.81049 571.68555
557.0 0.001795 538.93683 569.08533
565.0 0.001770 539.06390 566.32776
539.0 0.001855 539.19202 563.75665
528.0 0.001894 539.32117 561.62030
558.0 0.001792 539.45123 560.07373
577.0 0.001733 539.58215 559.19202
560.0 0.001786 539.71393 558.99567
542.0 0.001845 539.84680 559.48413
561.0 0.001783 539.98022 560.67633
584.0 0.001712 540.11493 562.65918
592.0 0.001689 540.25024 565.64435
595.0 0.001681 540.38641 570.03784
608.0 0.001645 540.52350 576.51721
611.0 0.001637 540.66138 586.11230
600.0 0.001667 540.79987 600.25891
603.0 0.001658 540.93933 620.79645
644.0 0.001553 541.07941 649.85571
677.0 0.001477 541.22028 689.60468
719.0 0.001391 541.36182 741.83582
786.0 0.001272 541.50421 807.42822
871.0 0.001148 541.64722 885.76788
968.0 0.001033 541.79077 974.24060
1060.0 0.000943 541.93518 1067.88831
1138.0 0.000879 542.08026 1159.28613
1205.0 0.000830 542.22583 1238.75354
1251.0 0.000799 542.37195 1295.35132
1279.0 0.000782 542.51886 1319.39893
1297.0 0.000771 542.66620 1306.20886
1295.0 0.000772 542.81421 1258.43872
1240.0 0.000806 542.96277 1184.71387
1158.0 0.000864 543.11169 1095.74817
1071.0 0.000934 543.26129 1002.14886
958.0 0.001044 543.41138 911.82660
865.0 0.001156 543.56195 830.45068
784.0 0.001276 543.71289 761.28601
704.0 0.001420 543.86444 717.37152
675.0 0.001481 544.01617 675.02197
658.0 0.001520 544.16858 643.98004
634.0 0.001577 544.32123 622.13818
611.0 0.001637 544.47430 607.32092
587.0 0.001704 544.62762 597.58356
588.0 0.001701 544.78149 591.35938
607.0 0.001647 544.93555 587.48608
610.0 0.001639 545.09003 585.16095
586.0 0.001706 545.24487 583.86285
569.0 0.001757 545.39996 583.27148
575.0 0.001739 545.55511 583.20068
598.0 0.001672 545.71069 583.54877
625.0 0.001600 545.86639 584.26508
611.0 0.001637 546.02222 585.33044
596.0 0.001678 546.17841 586.74664
627.0 0.001595 546.33478 588.53223
623.0 0.001605 546.49115 590.72314
619.0 0.001616 546.64789 593.37927
616.0 0.001623 546.80469 596.59802
603.0 0.001658 546.96149 600.53998
652.0 0.001534 547.11835 605.47491
658.0 0.001520 547.27563 611.85278
619.0 0.001616 547.43274 620.41138
634.0 0.001577 547.58978 632.32562
697.0 0.001435 547.74701 643.89514
711.0 0.001406 547.90417 668.99719
706.0 0.001416 548.06134 705.34241
775.0 0.001290 548.21844 757.40295
855.0 0.001170 548.37567 832.05322
933.0 0.001072 548.53271 931.36328
1031.0 0.000970 548.68958 1061.57300
1180.0 0.000847 548.84637 1225.39832
1388.0 0.000720 549.00330 1422.31152
1566.0 0.000639 549.15991 1647.31580
1809.0 0.000553 549.31659 1890.03589
2157.0 0.000464 549.47290 2134.25146
2314.0 0.000432 549.62909 2358.02783
2540.0 0.000394 549.78503 2535.79297
2761.0 0.000362 549.94086 2639.96924
2754.0 0.000363 550.09650 2652.86377
2510.0 0.000398 550.25183 2572.10522
2422.0 0.000413 550.40686 2412.47021
2206.0 0.000453 550.56165 2199.04785
1935.0 0.000517 550.71613 1958.66626
1750.0 0.000571 550.87042 1714.61108
1526.0 0.000655 551.02435 1484.65039
1295.0 0.000772 551.17773 1280.67615
1122.0 0.000891 551.33105 1109.04224
1000.0 0.001000 551.48407 971.36957
884.0 0.001131 551.63623 865.71735
810.0 0.001235 551.78845 787.92029
769.0 0.001300 551.93994 732.85071
735.0 0.001361 552.09119 695.42480
707.0 0.001414 552.24194 671.25891
702.0 0.001425 552.39221 656.99017
685.0 0.001460 552.54199 650.32617
685.0 0.001460 552.69141 649.91516
703.0 0.001422 552.84015 655.11188
695.0 0.001439 552.98846 665.69861
733.0 0.001364 553.13629 681.59692
764.0 0.001309 553.28351 702.60004
762.0 0.001312 553.43005 728.14795
773.0 0.001294 553.57611 757.16357
804.0 0.001244 553.72150 787.95563
830.0 0.001205 553.86633 818.19086
851.0 0.001175 554.01062 844.97296
871.0 0.001148 554.15399 865.17548
875.0 0.001143 554.29688 876.20160
869.0 0.001151 554.43915 876.99347
875.0 0.001143 554.58069 868.54926
866.0 0.001155 554.72150 853.41272
807.0 0.001239 554.86157 834.57635
768.0 0.001302 555.00085 814.59058
768.0 0.001302 555.13959 795.14276
754.0 0.001326 555.27740 778.07587
712.0 0.001404 555.41467 761.05914
718.0 0.001393 555.55084 744.45154
684.0 0.001462 555.68658 727.49377
651.0 0.001536 555.82129 697.80676
665.0 0.001504 555.95520 680.29742
650.0 0.001538 556.08813 662.87964
624.0 0.001603 556.22034 646.20459
618.0 0.001618 556.35162 630.82715
630.0 0.001587 556.48206 617.15405
628.0 0.001592 556.61169 605.42859
607.0 0.001647 556.74042 595.73206
609.0 0.001642 556.86810 587.99890
619.0 0.001616 556.99487 582.04761
602.0 0.001661 557.12073 577.62341
599.0 0.001669 557.24585 574.44281
617.0 0.001621 557.36957 572.23096
635.0 0.001575 557.49268 570.74817
633.0 0.001580 557.61469 569.80286
611.0 0.001637 557.73560 569.25653
598.0 0.001672 557.85559 569.02118
610.0 0.001639 557.97449 569.05646
626.0 0.001597 558.09241 569.36755
612.0 0.001634 558.20917 570.00745
599.0 0.001669 558.32495 571.08234
612.0 0.001634 558.43988 572.75775
638.0 0.001567 558.55341 575.26495
644.0 0.001553 558.66602 579.78839
629.0 0.001590 558.77747 584.94867
639.0 0.001565 558.88788 591.96283
683.0 0.001464 558.99707 601.17450
714.0 0.001401 559.10516 612.82855
699.0 0.001431 559.21210 626.98981
728.0 0.001374 559.31787 641.84534
786.0 0.001272 559.42249 660.17938
789.0 0.001267 559.52612 679.39465
787.0 0.001271 559.62836 705.54095
784.0 0.001276 559.72943 722.65619
795.0 0.001258 559.82935 735.84808
816.0 0.001225 559.92804 743.33710
795.0 0.001258 560.02545 743.99921
785.0 0.001274 560.12170 737.83856
772.0 0.001295 560.21667 725.32263
737.0 0.001357 560.31049 709.60498
741.0 0.001350 560.40302 691.88513
704.0 0.001420 560.49426 673.83301
659.0 0.001517 560.58429 656.75757
655.0 0.001527 560.67303 641.58405
644.0 0.001553 560.76025 628.87433
639.0 0.001565 560.84656 618.87823
633.0 0.001580 560.93146 611.60773
624.0 0.001603 561.01477 606.92786
634.0 0.001577 561.09717 604.64880
633.0 0.001580 561.17804 604.60516
634.0 0.001577 561.25751 606.71613
641.0 0.001560 561.33575 611.01953
626.0 0.001597 561.41260 617.68335
661.0 0.001513 561.48810 627.00110
694.0 0.001441 561.56226 639.37708
688.0 0.001453 561.63513 655.31329
700.0 0.001429 561.70654 675.40405
717.0 0.001395 561.77673 700.33942
747.0 0.001339 561.84552 730.90948
800.0 0.001250 561.91272 767.98621
863.0 0.001159 561.97864 812.46429
913.0 0.001095 562.04327 865.16284
947.0 0.001056 562.10645 926.74323
998.0 0.001002 562.16815 997.68506
1096.0 0.000912 562.22833 1078.22583
1193.0 0.000838 562.28735 1168.04663
1270.0 0.000787 562.34491 1265.64832
1345.0 0.000743 562.40100 1367.68384
1433.0 0.000698 562.45569 1469.82910
1522.0 0.000657 562.50897 1561.54456
1562.0 0.000640 562.56067 1634.18835
1551.0 0.000645 562.61102 1677.46094
1539.0 0.000650 562.66010 1683.42102
1474.0 0.000678 562.70758 1649.55481
1407.0 0.000711 562.75366 1579.94446
1354.0 0.000739 562.79828 1482.41467
1235.0 0.000810 562.84125 1369.97729
1117.0 0.000895 562.88306 1251.53076
998.0 0.001002 562.92328 1135.36121
875.0 0.001143 562.96210 1027.62317
793.0 0.001261 562.99939 932.34271
731.0 0.001368 563.03522 851.58423
712.0 0.001404 563.06958 785.74646
707.0 0.001414 563.10260 733.95953
631.0 0.001585 563.13397 694.52881
620.0 0.001613 563.16412 665.35846
638.0 0.001567 563.19269 644.29688
603.0 0.001658 563.21967 629.38068
580.0 0.001724 563.24518 618.96985
564.0 0.001773 563.26935 611.79785
563.0 0.001776 563.29211 606.96008
577.0 0.001733 563.31323 603.87042
575.0 0.001739 563.33289 602.20782
598.0 0.001672 563.35114 601.86084
613.0 0.001631 563.36810 602.88159
592.0 0.001689 563.38330 606.64221
609.0 0.001642 563.39722 611.04584
635.0 0.001575 563.40936 617.50671
648.0 0.001543 563.42035 626.26111
653.0 0.001531 563.42981 637.44507
641.0 0.001560 563.43774 651.02502
649.0 0.001541 563.44434 666.73615
665.0 0.001504 563.44928 683.11426
663.0 0.001508 563.45306 702.01257
706.0 0.001416 563.45514 719.65607
727.0 0.001376 563.45569 735.35687
713.0 0.001403 563.45490 747.44507
722.0 0.001385 563.45264 754.33484
720.0 0.001389 563.44904 754.96381
713.0 0.001403 563.44391 749.19220
704.0 0.001420 563.43719 737.86108
687.0 0.001456 563.42926 714.84741
701.0 0.001427 563.41980 697.43494
689.0 0.001451 563.40887 679.17535
630.0 0.001587 563.39673 661.35693
602.0 0.001661 563.38293 644.95685
590.0 0.001695 563.36780 630.65179
584.0 0.001712 563.35126 618.84827
595.0 0.001681 563.33313 609.73541
622.0 0.001608 563.31378 603.34979
640.0 0.001563 563.29285 599.64270
625.0 0.001600 563.27075 598.54156
593.0 0.001686 563.24701 599.98926
608.0 0.001645 563.22205 603.96222
640.0 0.001563 563.19568 610.45966
649.0 0.001541 563.16803 619.47211
635.0 0.001575 563.13892 630.93536
649.0 0.001541 563.10822 644.67987
683.0 0.001464 563.07642 660.38623
718.0 0.001393 563.04321 677.54663
739.0 0.001353 563.00861 695.44006
721.0 0.001387 562.97266 713.12274
730.0 0.001370 562.93555 729.60162
756.0 0.001323 562.89685 743.39777
708.0 0.001412 562.85681 753.64478
718.0 0.001393 562.81567 759.85437
754.0 0.001326 562.77301 762.20709
734.0 0.001362 562.72919 761.39569
714.0 0.001401 562.68396 758.26636
754.0 0.001326 562.63745 753.49683
767.0 0.001304 562.58984 747.42273
690.0 0.001449 562.54071 740.02209
689.0 0.001451 562.49054 731.03442
705.0 0.001418 562.43884 720.19360
675.0 0.001481 562.38617 707.48547
636.0 0.001572 562.33191 693.26129
638.0 0.001567 562.27661 678.14978
633.0 0.001580 562.22021 661.53827
613.0 0.001631 562.16235 646.77893
632.0 0.001582 562.10345 632.98230
622.0 0.001608 562.04333 620.50208
596.0 0.001678 561.98212 609.55139
586.0 0.001706 561.91949 600.21844
559.0 0.001789 561.85577 592.48352
572.0 0.001748 561.79083 586.24084
604.0 0.001656 561.72491 581.32556
595.0 0.001681 561.65771 577.54034
569.0 0.001757 561.58948 574.70667
559.0 0.001789 561.51984 572.58337
572.0 0.001748 561.44928 571.03033
589.0 0.001698 561.37775 569.91565
578.0 0.001730 561.30493 569.14258
565.0 0.001770 561.23120 568.64801
566.0 0.001767 561.15619 568.39716
557.0 0.001795 561.08020 568.37921
554.0 0.001805 561.00317 568.59949
567.0 0.001764 560.92517 569.07385
587.0 0.001704 560.84595 569.82056
585.0 0.001709 560.76587 570.85339
578.0 0.001730 560.68481 572.17291
579.0 0.001727 560.60248 573.75983
586.0 0.001706 560.51947 575.57050
596.0 0.001678 560.43524 577.52954
577.0 0.001733 560.35040 579.53143
552.0 0.001812 560.26422 580.28076
578.0 0.001730 560.17719 581.97583
613.0 0.001631 560.08936 583.22113
620.0 0.001613 560.00043 583.85138
596.0 0.001678 559.91089 583.76190
571.0 0.001751 559.82025 582.94421
589.0 0.001698 559.72876 581.48987
614.0 0.001629 559.63629 579.55804
598.0 0.001672 559.54315 576.46545
575.0 0.001739 559.44922 574.15076
562.0 0.001779 559.35413 571.84906
559.0 0.001789 559.25854 569.67181
563.0 0.001776 559.16193 567.69781
577.0 0.001733 559.06451 565.97607
563.0 0.001776 558.96649 564.52905
527.0 0.001898 558.86768 563.35736
535.0 0.001869 558.76807 562.44641
548.0 0.001825 558.66766 561.77179
556.0 0.001799 558.56665 561.30463
568.0 0.001761 558.46497 561.01453
563.0 0.001776 558.36237 560.87213
560.0 0.001786 558.25928 560.85046
560.0 0.001786 558.15527 560.92316
549.0 0.001821 558.05072 561.06543
558.0 0.001792 557.94556 561.25128
558.0 0.001792 557.83984 561.45288
541.0 0.001848 557.73352 588.75214
556.0 0.001799 557.62659 590.08691
565.0 0.001770 557.51898 591.42328
569.0 0.001757 557.41077 592.74164
586.0 0.001706 557.30206 594.03583
599.0 0.001669 557.19275 595.31714
594.0 0.001684 557.08301 596.61304
573.0 0.001745 556.97266 597.96149
561.0 0.001783 556.86188 599.40442
588.0 0.001701 556.75055 600.98303
605.0 0.001653 556.63867 602.73572
590.0 0.001695 556.52637 604.69788
592.0 0.001689 556.41376 606.90265
607.0 0.001647 556.30066 609.38080
619.0 0.001616 556.18713 612.16351
619.0 0.001616 556.07318 615.28290
613.0 0.001631 555.95886 618.77557
620.0 0.001613 555.84412 622.68652
636.0 0.001572 555.72906 627.07361
642.0 0.001558 555.61383 632.01703
647.0 0.001546 555.49799 637.63049
649.0 0.001541 555.38190 644.08179
652.0 0.001534 555.26563 651.61951
671.0 0.001490 555.14923 660.61603
672.0 0.001488 555.03229 671.48755
704.0 0.001420 554.91522 686.25323
788.0 0.001269 554.79791 704.12024
789.0 0.001267 554.68030 727.60425
801.0 0.001248 554.56238 758.90637
870.0 0.001149 554.44458 800.89685
937.0 0.001067 554.32648 857.16193
1046.0 0.000956 554.20813 931.97430
1181.0 0.000847 554.08972 1030.13843
1355.0 0.000738 553.97113 1156.69482
1638.0 0.000611 553.85254 1316.40991
1875.0 0.000533 553.73364 1513.19690
2119.0 0.000472 553.61493 1749.33130
2497.0 0.000400 553.49591 2024.66455
2864.0 0.0003492 553.37683 2335.87866
3226.0 0.0003100 553.25800 2675.86792
3575.0 0.0002797 553.13879 3033.29761
3846.0 0.0002600 553.01990 3392.36841
4097.0 0.0002441 552.90094 3732.84912
4290.0 0.0002331 552.78192 4030.69727
4357.0 0.0002295 552.66309 4259.95117
4296.0 0.0002328 552.54413 4396.65820
4127.0 0.0002423 552.42523 4424.56006
3896.0 0.0002567 552.30652 4340.15381
3639.0 0.0002748 552.18805 4153.91699
3321.0 0.0003011 552.06940 3886.77612
2952.0 0.0003388 551.95105 3564.42090
2591.0 0.000386 551.83276 3212.19971
2292.0 0.000436 551.71478 2852.40771
2022.0 0.000495 551.59686 2503.12158
1761.0 0.000568 551.47913 2177.94580
1523.0 0.000657 551.36176 1886.13464
1335.0 0.000749 551.24451 1632.93408
1165.0 0.000858 551.12750 1420.11218
1031.0 0.000970 551.01080 1246.64148
973.0 0.001028 550.89429 1109.46521
914.0 0.001094 550.77808 1004.26233
841.0 0.001189 550.66223 926.12006
785.0 0.001274 550.54681 870.06750
768.0 0.001302 550.43146 831.44043
746.0 0.001340 550.31665 806.08710
747.0 0.001339 550.20215 790.44214
783.0 0.001277 550.08813 782.50238
745.0 0.001342 549.97430 777.80640
701.0 0.001427 549.86084 775.19836
719.0 0.001391 549.74799 772.90540
762.0 0.001312 549.63544 769.49622
747.0 0.001339 549.52368 763.96326
711.0 0.001406 549.41205 755.81342
704.0 0.001420 549.30096 745.08167
693.0 0.001443 549.19043 732.21533
682.0 0.001466 549.08044 717.88373
673.0 0.001486 548.97095 702.80499
655.0 0.001527 548.86200 687.63635
633.0 0.001580 548.75348 672.92444
619.0 0.001616 548.64563 659.09027
620.0 0.001613 548.53839 646.42889
625.0 0.001600 548.43158 635.11804
615.0 0.001626 548.32568 625.23132
602.0 0.001661 548.22034 616.75317
598.0 0.001672 548.11542 612.87378
598.0 0.001672 548.01141 607.04443
587.0 0.001704 547.90796 602.26935
586.0 0.001706 547.80524 598.39331
611.0 0.001637 547.70306 595.27094
609.0 0.001642 547.60175 592.77698
601.0 0.001664 547.50110 590.81281
607.0 0.001647 547.40125 589.30981
599.0 0.001669 547.30194 566.82477
610.0 0.001639 547.20355 567.44183
618.0 0.001618 547.10602 568.44873
599.0 0.001669 547.00922 569.90747
598.0 0.001672 546.91315 571.90692
603.0 0.001658 546.81812 574.56116
618.0 0.001618 546.72369 578.00116
652.0 0.001534 546.63025 582.36652
638.0 0.001567 546.53748 587.79187
627.0 0.001595 546.44580 594.39008
653.0 0.001531 546.35480 602.23267
648.0 0.001543 546.26495 611.33044
654.0 0.001529 546.17566 621.61285
684.0 0.001462 546.08765 632.91321
709.0 0.001410 546.00037 644.95428
725.0 0.001379 545.91412 657.34320
735.0 0.001361 545.82880 669.56818
746.0 0.001340 545.74451 681.00818
760.0 0.001316 545.66095 690.96259
761.0 0.001314 545.57867 698.72528
771.0 0.001297 545.49725 703.70844
800.0 0.001250 545.41693 705.59979
802.0 0.001247 545.33740 704.47571
772.0 0.001295 545.25928 700.81342
758.0 0.001319 545.18201 695.38934
781.0 0.001280 545.10577 688.22107
754.0 0.001326 545.03064 682.18262
710.0 0.001408 544.95660 677.29852
712.0 0.001404 544.88385 674.53076
755.0 0.001325 544.81189 674.81201
771.0 0.001297 544.74127 679.04761
770.0 0.001299 544.67169 688.10638
787.0 0.001271 544.60315 702.81055
796.0 0.001256 544.53601 723.90350
831.0 0.001203 544.46985 752.05621
882.0 0.001134 544.40479 787.77124
904.0 0.001106 544.34100 831.37360
951.0 0.001052 544.27850 882.94910
1023.0 0.000978 544.21716 942.28467
1092.0 0.000916 544.15704 1008.80286
1144.0 0.000874 544.09784 1081.48901
1202.0 0.000832 544.04016 1158.81738
1288.0 0.000776 543.98364 1238.70251
1388.0 0.000720 543.92828 1318.54309
1451.0 0.000689 543.87427 1395.43274
1513.0 0.000661 543.82166 1466.55725
1604.0 0.000623 543.77014 1529.64905
1686.0 0.000593 543.71991 1583.23193
1675.0 0.000597 543.67108 1626.46545
1653.0 0.000605 543.62341 1658.67517
1690.0 0.000592 543.57721 1678.86267
1702.0 0.000588 543.53210 1685.48291
1640.0 0.000610 543.48828 1676.65430
1568.0 0.000638 543.44598 1650.77759
1537.0 0.000651 543.40503 1607.34827
1443.0 0.000693 543.36530 1547.53284
1370.0 0.000730 543.32690 1474.16504
1320.0 0.000758 543.28998 1391.91919
1199.0 0.000834 543.25446 1303.59436
1109.0 0.000902 543.22009 1213.87402
1039.0 0.000962 543.18750 1126.10583
960.0 0.001042 543.15582 1042.91089
915.0 0.001093 543.12585 966.19647
876.0 0.001142 543.09705 897.20551
828.0 0.001208 543.06982 836.59082
779.0 0.001284 543.04401 784.49365
744.0 0.001344 543.01953 742.03595
724.0 0.001381 542.99658 704.88715
695.0 0.001439 542.97473 675.62506
640.0 0.001563 542.95447 652.29272
623.0 0.001605 542.93567 633.94348
642.0 0.001558 542.91852 619.66858
646.0 0.001548 542.90277 608.64221
611.0 0.001637 542.88831 600.14862
618.0 0.001618 542.87543 593.59296
645.0 0.001550 542.86377 588.49701
628.0 0.001592 542.85370 584.48969
608.0 0.001645 542.84521 581.29047
603.0 0.001658 542.83813 578.69354
600.0 0.001667 542.83264 576.55011
588.0 0.001701 542.82849 574.75635
591.0 0.001692 542.82581 573.23962
582.0 0.001718 542.82452 571.95099
561.0 0.001783 542.82483 570.85895
576.0 0.001736 542.82666 569.94434
573.0 0.001745 542.83002 569.19714
573.0 0.001745 542.83490 568.61768
601.0 0.001664 542.84100 568.21344
593.0 0.001686 542.84888 568.00293
583.0 0.001715 542.85834 568.01404
586.0 0.001706 542.86902 568.28748
588.0 0.001701 542.88129 568.87842
604.0 0.001656 542.89526 569.85815
613.0 0.001631 542.91052 571.31433
608.0 0.001645 542.92755 573.35223
611.0 0.001637 542.94580 576.09290
601.0 0.001664 542.96588 579.67139
593.0 0.001686 542.98730 584.23022
609.0 0.001642 543.01019 586.94080
638.0 0.001567 543.03455 594.02301
646.0 0.001548 543.06061 602.48590
631.0 0.001585 543.08807 612.42371
624.0 0.001603 543.11713 623.89069
656.0 0.001524 543.14764 636.88715
667.0 0.001499 543.17963 651.34521
656.0 0.001524 543.21338 667.11328
677.0 0.001477 543.24829 678.64075
689.0 0.001451 543.28485 696.35687
671.0 0.001490 543.32312 714.29297
660.0 0.001515 543.36267 731.90405
708.0 0.001412 543.40375 748.62518
737.0 0.001357 543.44641 763.94366
732.0 0.001366 543.49054 777.44940
723.0 0.001383 543.53632 788.83325
721.0 0.001387 543.58350 797.82825
714.0 0.001401 543.63226 804.13947
713.0 0.001403 543.68250 807.40387
719.0 0.001391 543.73413 807.22076
685.0 0.001460 543.78729 803.25354
683.0 0.001464 543.84210 795.37030
694.0 0.001441 543.89813 783.75354
641.0 0.001560 543.95587 768.91925
647.0 0.001546 544.01501 752.57440
656.0 0.001524 544.07568 733.73792
624.0 0.001603 544.13776 714.17572
626.0 0.001597 544.20142 694.64532
622.0 0.001608 544.26648 675.77173
599.0 0.001669 544.33295 658.04095
581.0 0.001721 544.40100 641.80615
589.0 0.001698 544.47046 627.30035
610.0 0.001639 544.54138 614.64935
619.0 0.001616 544.61371 603.88934
603.0 0.001658 544.68744 594.98358
591.0 0.001692 544.76257 587.84131
595.0 0.001681 544.83942 582.33673
614.0 0.001629 544.91748 578.32410
628.0 0.001592 544.99701 575.65137
598.0 0.001672 545.07806 574.17047
595.0 0.001681 545.16028 573.74121
615.0 0.001626 545.24408 574.23389
579.0 0.001727 545.32922 575.52667
583.0 0.001715 545.41589 577.50250
595.0 0.001681 545.50378 580.04266
586.0 0.001706 545.59320 583.02411
611.0 0.001637 545.68384 586.31213
635.0 0.001575 545.77576 589.75769
633.0 0.001580 545.86932 593.19568
609.0 0.001642 545.96411 596.44342
593.0 0.001686 546.06012 599.30853
597.0 0.001675 546.15771 601.60120
617.0 0.001621 546.25647 603.16046
625.0 0.001600 546.35651 603.88422
597.0 0.001675 546.45795 603.75885
609.0 0.001642 546.56055 602.86877
643.0 0.001555 546.66486 601.38556
633.0 0.001580 546.77002 606.32336
615.0 0.001626 546.87677 604.59784
613.0 0.001631 546.98444 603.04010
619.0 0.001616 547.09375 601.90137
618.0 0.001618 547.20410 601.40967
620.0 0.001613 547.31573 601.76520
600.0 0.001667 547.42859 603.13239
586.0 0.001706 547.54279 605.63257
620.0 0.001613 547.65802 609.33740
625.0 0.001600 547.77454 613.51764
624.0 0.001603 547.89227 619.64233
634.0 0.001577 548.01111 626.82684
620.0 0.001613 548.13123 634.89099
608.0 0.001645 548.25244 643.58655
617.0 0.001621 548.37482 652.59772
632.0 0.001582 548.49829 661.54504
628.0 0.001592 548.62311 669.99127
636.0 0.001572 548.74884 676.09937
638.0 0.001567 548.87598 682.15601
631.0 0.001585 549.00391 686.31647
654.0 0.001529 549.13306 688.26971
670.0 0.001493 549.26324 687.88916
655.0 0.001527 549.39435 685.26257
636.0 0.001572 549.52673 680.66779
658.0 0.001520 549.66022 676.08148
663.0 0.001508 549.79449 668.87750
645.0 0.001550 549.92993 661.03705
636.0 0.001572 550.06628 652.98462
635.0 0.001575 550.20374 645.09125
642.0 0.001558 550.34198 637.67065
639.0 0.001565 550.48151 630.98145
627.0 0.001595 550.62201 625.88983
643.0 0.001555 550.76300 621.27087
635.0 0.001575 550.90533 617.90167
608.0 0.001645 551.04852 615.90881
597.0 0.001675 551.19257 615.42346
591.0 0.001692 551.33765 616.59985
616.0 0.001623 551.48334 619.63416
640.0 0.001563 551.62988 624.78217
624.0 0.001603 551.77747 632.37311
613.0 0.001631 551.92596 642.81677
654.0 0.001529 552.07507 656.60406
694.0 0.001441 552.22510 674.29822
683.0 0.001464 552.37592 696.51343
710.0 0.001408 552.52747 723.88287
751.0 0.001332 552.67975 757.01288
791.0 0.001264 552.83295 796.42670
844.0 0.001185 552.98688 842.50122
903.0 0.001107 553.14160 895.39783
949.0 0.001054 553.29669 954.63861
993.0 0.001007 553.45276 1020.47723
1058.0 0.000945 553.60950 1091.67664
1138.0 0.000879 553.76678 1166.92969
1256.0 0.000796 553.92493 1244.46106
1324.0 0.000755 554.08325 1322.01624
1317.0 0.000759 554.24274 1396.86975
1424.0 0.000702 554.40247 1465.87354
1538.0 0.000650 554.56305 1525.58606
1542.0 0.000649 554.72412 1572.52747
1483.0 0.000674 554.88556 1603.59290
1520.0 0.000658 555.04779 1616.56653
1554.0 0.000644 555.21057 1610.58496
1540.0 0.000649 555.37378 1586.34985
1506.0 0.000664 555.53748 1546.48938
1456.0 0.000687 555.70166 1493.14514
1423.0 0.000703 555.86627 1430.41187
1379.0 0.000725 556.03149 1361.93933
1313.0 0.000762 556.19708 1291.12622
1275.0 0.000784 556.36298 1220.96533
1196.0 0.000836 556.52930 1153.97266
1101.0 0.000908 556.69611 1092.16479
1035.0 0.000966 556.86316 1037.05261
987.0 0.001013 557.03070 989.65546
957.0 0.001045 557.19849 949.57330
943.0 0.001060 557.36670 918.85419
932.0 0.001073 557.53522 896.24524
908.0 0.001101 557.70392 881.15002
888.0 0.001126 557.87280 872.70117
870.0 0.001149 558.04218 869.82043
868.0 0.001152 558.21173 871.27051
892.0 0.001121 558.38147 875.70959
886.0 0.001129 558.55139 881.74884
892.0 0.001121 558.72150 888.02820
907.0 0.001103 558.89178 893.30951
882.0 0.001134 559.06226 896.58160
869.0 0.001151 559.23279 897.14819
895.0 0.001117 559.40375 894.65594
919.0 0.001088 559.57434 890.59521
890.0 0.001124 559.74536 882.11328
840.0 0.001190 559.91626 870.98529
873.0 0.001145 560.08728 857.54114
863.0 0.001159 560.25848 842.12360
832.0 0.001202 560.42950 825.09387
792.0 0.001263 560.60065 806.84906
781.0 0.001280 560.77173 787.83026
805.0 0.001242 560.94281 774.73291
770.0 0.001299 561.11383 755.77606
735.0 0.001361 561.28467 737.41650
729.0 0.001372 561.45557 720.01288
691.0 0.001447 561.62628 703.84442
666.0 0.001502 561.79694 689.10980
693.0 0.001443 561.96753 675.93579
712.0 0.001404 562.13770 664.38934
647.0 0.001546 562.30798 654.48901
648.0 0.001543 562.47797 646.21594
658.0 0.001520 562.64771 639.52496
631.0 0.001585 562.81720 634.35138
644.0 0.001553 562.98663 630.61816
657.0 0.001522 563.15564 628.23932
652.0 0.001534 563.32434 627.12427
648.0 0.001543 563.49286 627.17767
664.0 0.001506 563.66107 628.30066
670.0 0.001493 563.82886 630.39044
655.0 0.001527 563.99658 633.33722
647.0 0.001546 564.16351 637.02301
683.0 0.001464 564.33044 641.32104
687.0 0.001456 564.49670 646.09259
669.0 0.001495 564.66278 651.18732
670.0 0.001493 564.82825 656.44189
671.0 0.001490 564.99316 661.77991
679.0 0.001473 565.15790 666.83148
681.0 0.001468 565.32202 664.90387
679.0 0.001473 565.48584 669.27881
712.0 0.001404 565.64874 673.02362
710.0 0.001408 565.81122 676.11353
701.0 0.001427 565.97351 678.62451
729.0 0.001372 566.13483 680.74109
719.0 0.001391 566.29590 682.74982
718.0 0.001393 566.45612 685.01892
739.0 0.001353 566.61572 687.97211
742.0 0.001348 566.77484 692.06934
719.0 0.001391 566.93311 697.78973
699.0 0.001431 567.09088 705.62000
706.0 0.001416 567.24786 716.04694
736.0 0.001359 567.40424 729.54504
757.0 0.001321 567.55981 746.56683
779.0 0.001284 567.71466 767.52594
792.0 0.001263 567.86884 792.78021
778.0 0.001285 568.02216 822.60870
806.0 0.001241 568.17474 857.18750
845.0 0.001183 568.32654 896.56171
873.0 0.001145 568.47754 940.61560
930.0 0.001075 568.62769 989.04199
982.0 0.001018 568.77698 1041.63757
1037.0 0.000964 568.92548 1097.01941
1096.0 0.000912 569.07275 1152.99023
1124.0 0.000890 569.21948 1211.46521
1159.0 0.000863 569.36530 1269.53149
1234.0 0.000810 569.51007 1325.75598
1332.0 0.000751 569.65399 1378.65332
1395.0 0.000717 569.79688 1426.70081
1425.0 0.000702 569.93890 1468.55151
1438.0 0.000695 570.07977 1502.15564
1458.0 0.000686 570.21979 1525.46069
1512.0 0.000661 570.35858 1538.33447
1522.0 0.000657 570.49634 1538.98596
1499.0 0.000667 570.63318 1526.89722
1517.0 0.000659 570.76886 1502.31409
1510.0 0.000662 570.90363 1466.26917
1455.0 0.000687 571.03729 1420.44495
1395.0 0.000717 571.16974 1366.93420
1370.0 0.000730 571.30115 1307.97913
1298.0 0.000770 571.43121 1245.76428
1238.0 0.000808 571.56042 1182.28088
1225.0 0.000816 571.68829 1119.25708
1146.0 0.000873 571.81500 1058.13306
1052.0 0.000951 571.94055 1000.05804
992.0 0.001008 572.06470 945.90228
961.0 0.001041 572.18781 896.27252
928.0 0.001078 572.30975 851.53448
883.0 0.001133 572.43024 811.83832
831.0 0.001203 572.54968 777.15118
783.0 0.001277 572.66766 747.28821
762.0 0.001312 572.78436 721.94977
746.0 0.001340 572.89978 700.75330
719.0 0.001391 573.01392 683.26648
696.0 0.001437 573.12677 669.03479
686.0 0.001458 573.23822 657.60425
685.0 0.001460 573.34839 648.53900
685.0 0.001460 573.45703 641.43530
679.0 0.001473 573.56451 635.92694
656.0 0.001524 573.67047 631.69147
645.0 0.001550 573.77502 629.73627
660.0 0.001515 573.87805 627.28302
637.0 0.001570 573.97980 624.87231
607.0 0.001647 574.08014 623.38226
600.0 0.001667 574.17889 622.15558
609.0 0.001642 574.27631 621.09888
621.0 0.001610 574.37207 620.15216
633.0 0.001580 574.46649 619.28888
636.0 0.001572 574.55951 618.50928
619.0 0.001616 574.65076 617.83661
628.0 0.001592 574.74066 617.30951
642.0 0.001558 574.82904 616.97589
633.0 0.001580 574.91577 616.88599
635.0 0.001575 575.00122 617.08960
632.0 0.001582 575.08478 617.63080
612.0 0.001634 575.16699 618.54730
596.0 0.001678 575.24744 619.86670
613.0 0.001631 575.32642 621.60474
622.0 0.001608 575.40375 623.76385
615.0 0.001626 575.47943 626.33167
633.0 0.001580 575.55359 629.27863
632.0 0.001582 575.62598 632.55841
626.0 0.001597 575.69696 636.10638
645.0 0.001550 575.76611 639.83923
662.0 0.001511 575.83356 644.08490
653.0 0.001531 575.89954 647.87958
632.0 0.001582 575.96375 649.95374
629.0 0.001590 576.02631 653.33771
637.0 0.001570 576.08722 656.29376
659.0 0.001517 576.14648 658.71179
673.0 0.001486 576.20386 660.50916
649.0 0.001541 576.25958 661.63861
634.0 0.001577 576.31360 662.08374
642.0 0.001558 576.36591 661.85669
655.0 0.001527 576.41656 654.69830
657.0 0.001522 576.46539 653.42505
643.0 0.001555 576.51251 651.59332
634.0 0.001577 576.55798 649.26837
640.0 0.001563 576.60150 646.53235
610.0 0.001639 576.64337 643.48663
613.0 0.001631 576.68335 640.24969
652.0 0.001534 576.72162 636.95343
637.0 0.001570 576.75830 633.73553
622.0 0.001608 576.79297 630.73273
614.0 0.001629 576.82587 628.07794
600.0 0.001667 576.85706 625.89539
602.0 0.001661 576.88654 624.30096
618.0 0.001618 576.91400 623.40125
636.0 0.001572 576.93964 623.29327
647.0 0.001546 576.96368 624.06415
643.0 0.001555 576.98578 625.78900
641.0 0.001560 577.00616 628.53021
651.0 0.001536 577.02441 632.33319
658.0 0.001520 577.04126 637.22577
658.0 0.001520 577.05615 643.21191
670.0 0.001493 577.06915 650.26990
695.0 0.001439 577.08020 658.34778
689.0 0.001451 577.08954 667.36206
703.0 0.001422 577.09698 677.19330
723.0 0.001383 577.10278 687.68481
700.0 0.001429 577.10663 698.64142
703.0 0.001422 577.10852 709.82855
742.0 0.001348 577.10858 720.97382
788.0 0.001269 577.10681 731.76691
820.0 0.001220 577.10333 752.36462
823.0 0.001215 577.09772 761.71210
805.0 0.001242 577.09052 769.65295
792.0 0.001263 577.08136 775.84912
802.0 0.001247 577.07043 780.02490
808.0 0.001238 577.05750 782.00494
809.0 0.001236 577.04279 781.74170
822.0 0.001217 577.02618 779.32629
790.0 0.001266 577.00787 774.97583
783.0 0.001277 576.98761 769.00183
814.0 0.001229 576.96545 761.67603
751.0 0.001332 576.94165 753.57983
730.0 0.001370 576.91577 744.98993
762.0 0.001312 576.88812 736.25269
747.0 0.001339 576.85858 727.67206
733.0 0.001364 576.82709 719.50513
724.0 0.001381 576.79407 712.46930
711.0 0.001406 576.75897 705.70917
704.0 0.001420 576.72198 699.82678
699.0 0.001431 576.68353 694.87506
688.0 0.001453 576.64282 690.85876
672.0 0.001488 576.60065 687.73950
664.0 0.001506 576.55627 685.43787
657.0 0.001522 576.51038 683.84198
658.0 0.001520 576.46246 683.71161
670.0 0.001493 576.41272 683.11121
659.0 0.001517 576.36139 682.75336
646.0 0.001548 576.30817 682.47906
657.0 0.001522 576.25305 682.14966
673.0 0.001486 576.19629 681.66272
665.0 0.001504 576.13757 680.96130
649.0 0.001541 576.07727 680.04041
651.0 0.001536 576.01489 678.94446
644.0 0.001553 575.95099 677.76117
636.0 0.001572 575.88519 676.29956
641.0 0.001560 575.81763 675.34808
652.0 0.001534 575.74829 674.75659
651.0 0.001536 575.67725 674.71869
638.0 0.001567 575.60455 675.44897
631.0 0.001585 575.52997 677.18372
658.0 0.001520 575.45374 680.18433
671.0 0.001490 575.37573 684.73871
661.0 0.001513 575.29602 690.94617
662.0 0.001511 575.21466 699.59131
663.0 0.001508 575.13129 710.82355
684.0 0.001462 575.04669 725.03870
725.0 0.001379 574.96021 742.64948
742.0 0.001348 574.87195 764.07660
739.0 0.001353 574.78210 789.73566
746.0 0.001340 574.69049 820.01959
776.0 0.001289 574.59741 855.28027
795.0 0.001258 574.50256 895.80463
851.0 0.001175 574.40613 941.79022
940.0 0.001064 574.30811 993.32037
979.0 0.001021 574.20831 1050.33740
1022.0 0.000978 574.10724 1112.61914
1086.0 0.000921 574.00409 1179.88220
1155.0 0.000866 573.89972 1251.26868
1245.0 0.000803 573.79388 1326.06958
1357.0 0.000737 573.68610 1403.22607
1460.0 0.000685 573.57697 1481.44641
1529.0 0.000654 573.46631 1559.20374
1611.0 0.000621 573.35394 1634.74402
1692.0 0.000591 573.24030 1706.10901
1752.0 0.000571 573.12506 1771.17847
1817.0 0.000550 573.00824 1827.75598
1898.0 0.000527 572.89001 1873.69519
1970.0 0.000508 572.77032 1907.07629
2010.0 0.000498 572.64917 1926.41040
2049.0 0.000488 572.52649 1930.82788
2083.0 0.000480 572.40234 1920.20825
2065.0 0.000484 572.27698 1895.20178
1970.0 0.000508 572.15002 1857.13916
1927.0 0.000519 572.02179 1807.86267
1905.0 0.000525 571.89215 1748.23303
1821.0 0.000549 571.76111 1683.11768
1765.0 0.000567 571.62860 1613.41541
1723.0 0.000580 571.49493 1541.20801
1647.0 0.000607 571.35992 1468.37805
1537.0 0.000651 571.22357 1396.57336
1480.0 0.000676 571.08582 1328.50122
1419.0 0.000705 570.94678 1262.73340
1295.0 0.000772 570.80670 1201.44189
1203.0 0.000831 570.66522 1145.27917
1162.0 0.000861 570.52246 1094.66394
1134.0 0.000882 570.37848 1049.79370
1084.0 0.000923 570.23358 1010.66571
1048.0 0.000954 570.08704 977.09619
1017.0 0.000983 569.93951 950.97614
975.0 0.001026 569.79083 927.45715
933.0 0.001072 569.64111 908.16254
893.0 0.001120 569.48999 892.48816
862.0 0.001160 569.33795 879.80756
843.0 0.001186 569.18475 869.49774
824.0 0.001214 569.03064 860.96497
823.0 0.001215 568.87524 853.65833
821.0 0.001218 568.71899 847.08014
786.0 0.001272 568.56158 840.35162
781.0 0.001280 568.40314 833.97986
802.0 0.001247 568.24371 827.20233
797.0 0.001255 568.08337 819.78168
760.0 0.001316 567.92212 811.56531
764.0 0.001309 567.75989 802.48853
784.0 0.001276 567.59662 792.57172
742.0 0.001348 567.43243 781.90826
719.0 0.001391 567.26752 770.64648
717.0 0.001395 567.10162 758.96808
709.0 0.001410 566.93488 747.06915
703.0 0.001422 566.76746 735.14502
697.0 0.001435 566.59906 723.37848
686.0 0.001458 566.42993 711.93372
673.0 0.001486 566.26001 700.95258
670.0 0.001493 566.08929 690.58051
674.0 0.001484 565.91803 680.85748
668.0 0.001497 565.74573 671.88086
641.0 0.001560 565.57300 663.69989
632.0 0.001582 565.39948 656.34271
642.0 0.001558 565.22528 649.81879
642.0 0.001558 565.05054 644.12292
615.0 0.001626 564.87494 639.23389
586.0 0.001706 564.69897 635.12201
594.0 0.001684 564.52234 631.74780
640.0 0.001563 564.34534 629.06757
633.0 0.001580 564.16766 627.03424
618.0 0.001618 563.98932 625.60083
633.0 0.001580 563.81061 624.72333
616.0 0.001623 563.63141 624.36121
611.0 0.001637 563.45166 624.48083
623.0 0.001605 563.27167 625.05707
622.0 0.001608 563.09113 626.07410
615.0 0.001626 562.91022 627.52814
616.0 0.001623 562.72900 629.43011
620.0 0.001613 562.54749 631.80573
611.0 0.001637 562.36542 634.69745
622.0 0.001608 562.18311 638.16565
646.0 0.001548 562.00055 642.28583
657.0 0.001522 561.81775 648.06134
651.0 0.001536 561.63470 643.16229
651.0 0.001536 561.45154 650.12195
651.0 0.001536 561.26807 658.11377
645.0 0.001550 561.08447 667.23480
679.0 0.001473 560.90051 677.56970
702.0 0.001425 560.71643 689.18756
685.0 0.001460 560.53241 702.13635
688.0 0.001453 560.34833 716.79712
695.0 0.001439 560.16406 732.44983
714.0 0.001401 559.97974 749.40125
754.0 0.001326 559.79547 767.56726
768.0 0.001302 559.61108 786.82062
769.0 0.001300 559.42682 806.98633
779.0 0.001284 559.24249 827.84131
803.0 0.001245 559.05835 849.11243
821.0 0.001218 558.87421 870.48004
850.0 0.001176 558.69006 891.58313
887.0 0.001127 558.50629 912.03101
891.0 0.001122 558.32263 931.41614
917.0 0.001091 558.13904 949.33325
936.0 0.001068 557.95569 965.39612
900.0 0.001111 557.77252 979.25183
901.0 0.001110 557.58954 990.59064
935.0 0.001070 557.40692 999.14832
956.0 0.001046 557.22461 1004.70721
949.0 0.001054 557.04254 1007.09784
974.0 0.001027 556.86078 1006.20612
995.0 0.001005 556.67950 1001.98608
970.0 0.001031 556.49860 994.47577
945.0 0.001058 556.31787 983.80957
947.0 0.001056 556.13776 970.22290
954.0 0.001048 555.95801 954.04376
937.0 0.001067 555.77875 935.67126
930.0 0.001075 555.59998 915.04797
902.0 0.001109 555.42188 893.65558
862.0 0.001160 555.24402 871.43182
867.0 0.001153 555.06696 848.80414
846.0 0.001182 554.89038 826.16010
821.0 0.001218 554.71429 803.84076
823.0 0.001215 554.53900 782.13782
794.0 0.001259 554.36420 761.84283
772.0 0.001295 554.19025 741.17712
755.0 0.001325 554.01697 722.62354
715.0 0.001399 553.84424 705.37897
699.0 0.001431 553.67230 689.51227
701.0 0.001427 553.50116 675.05682
703.0 0.001422 553.33087 662.01721
703.0 0.001422 553.16132 650.37134
687.0 0.001456 552.99255 640.07611
660.0 0.001515 552.82465 631.07336
648.0 0.001543 552.65771 623.29187
668.0 0.001497 552.49158 616.65381
662.0 0.001511 552.32629 611.07788
647.0 0.001546 552.16211 606.48267
663.0 0.001508 551.99890 602.78992
647.0 0.001546 551.83643 599.92664
628.0 0.001592 551.67517 597.82794
629.0 0.001590 551.51471 596.43658
624.0 0.001603 551.35553 595.70612
625.0 0.001600 551.19727 595.59869
622.0 0.001608 551.04034 596.08728
614.0 0.001629 550.88422 597.15381
622.0 0.001608 550.72919 598.78778
642.0 0.001558 550.57556 600.98639
649.0 0.001541 550.42310 603.75043
637.0 0.001570 550.27173 607.63977
646.0 0.001548 550.12152 611.55780
657.0 0.001522 549.97272 616.04950
649.0 0.001541 549.82501 621.11096
632.0 0.001582 549.67871 626.73065
643.0 0.001555 549.53351 632.88837
648.0 0.001543 549.38965 639.55341
632.0 0.001582 549.24744 646.68195
646.0 0.001548 549.10638 654.09210
690.0 0.001449 548.96674 661.96295
706.0 0.001416 548.82843 670.07928
681.0 0.001468 548.69153 678.33698
700.0 0.001429 548.55615 686.61499
709.0 0.001410 548.42212 694.77710
701.0 0.001427 548.28961 702.67310
718.0 0.001393 548.15863 710.14111
739.0 0.001353 548.02930 717.01404
740.0 0.001351 547.90131 723.12476
727.0 0.001376 547.77496 728.31781
736.0 0.001359 547.65009 732.45685
774.0 0.001292 547.52704 735.43549
787.0 0.001271 547.40533 737.18445
759.0 0.001318 547.28546 737.67426
746.0 0.001340 547.16711 736.91492
725.0 0.001379 547.05060 734.95154
716.0 0.001397 546.93549 731.85681
729.0 0.001372 546.82239 727.72595
707.0 0.001414 546.71088 722.67023
689.0 0.001451 546.60107 716.81427
697.0 0.001435 546.49304 710.29150
708.0 0.001412 546.38684 703.24475
702.0 0.001425 546.28235 695.82062
699.0 0.001431 546.17981 688.44659
701.0 0.001427 546.07886 680.77856
688.0 0.001453 545.97992 673.17065
676.0 0.001479 545.88281 665.75439
675.0 0.001481 545.78760 658.64844
668.0 0.001497 545.69446 651.95740
640.0 0.001563 545.60291 645.76959
639.0 0.001565 545.51349 640.15729
649.0 0.001541 545.42584 632.93988
634.0 0.001577 545.34045 628.68567
612.0 0.001634 545.25684 625.12457
607.0 0.001647 545.17505 622.26715
613.0 0.001631 545.09564 620.11011
608.0 0.001645 545.01782 618.63635
587.0 0.001704 544.94250 617.81909
601.0 0.001664 544.86884 617.61957
626.0 0.001597 544.79742 617.98981
615.0 0.001626 544.72797 618.87396
618.0 0.001618 544.66077 620.20880
651.0 0.001536 544.59558 621.92401
657.0 0.001522 544.53247 623.94409
610.0 0.001639 544.47168 626.18994
638.0 0.001567 544.41284 628.57806
662.0 0.001511 544.35626 631.02325
634.0 0.001577 544.30188 633.44073
620.0 0.001613 544.24951 635.74817
636.0 0.001572 544.19952 638.44684
647.0 0.001546 544.15155 640.32629
639.0 0.001565 544.10596 641.90021
642.0 0.001558 544.06256 643.13385
667.0 0.001499 544.02148 644.01300
663.0 0.001508 543.98254 644.54407
636.0 0.001572 543.94611 644.75391
666.0 0.001502 543.91162 644.68469
687.0 0.001456 543.87952 644.62494
667.0 0.001499 543.84979 644.17328
641.0 0.001560 543.82239 643.62109
658.0 0.001520 543.79724 643.02808
649.0 0.001541 543.77441 642.44891
636.0 0.001572 543.75403 641.92981
648.0 0.001543 543.73578 641.50629
626.0 0.001597 543.72028 641.17151
642.0 0.001558 543.70679 641.00751
651.0 0.001536 543.69574 640.98328
612.0 0.001634 543.68707 641.09076
644.0 0.001553 543.68091 641.31097
647.0 0.001546 543.67706 641.61395
628.0 0.001592 543.67566 641.96069
643.0 0.001555 543.67670 642.30383
622.0 0.001608 543.68018 642.58960
626.0 0.001597 543.68604 642.76208
649.0 0.001541 543.69427 642.76550
637.0 0.001570 543.70502 642.54968
629.0 0.001590 543.71820 642.07355
634.0 0.001577 543.73376 641.31042
639.0 0.001565 543.75189 640.25055
637.0 0.001570 543.77258 638.90283
649.0 0.001541 543.79559 637.29425
638.0 0.001567 543.82117 635.46851
618.0 0.001618 543.84930 633.48303
631.0 0.001585 543.87970 631.40466
642.0 0.001558 543.91278 629.30829
625.0 0.001600 543.94818 627.27136
622.0 0.001608 543.98627 625.37427
663.0 0.001508 544.02667 623.69647
660.0 0.001515 544.06989 622.31604
625.0 0.001600 544.11530 621.30884
612.0 0.001634 544.16345 620.74713
637.0 0.001570 544.21393 621.33386
596.0 0.001678 544.26703 621.87616
619.0 0.001616 544.32281 623.05304
598.0 0.001672 544.38080 624.91455
599.0 0.001669 544.44147 627.50293
611.0 0.001637 544.50464 630.85120
608.0 0.001645 544.57056 634.06635
624.0 0.001603 544.63861 639.01245
614.0 0.001629 544.70959 644.75281
617.0 0.001621 544.78284 651.27460
638.0 0.001567 544.85870 658.55188
623.0 0.001605 544.93719 666.54486
640.0 0.001563 545.01807 675.19977
659.0 0.001517 545.10150 684.44806
672.0 0.001488 545.18744 693.84399
696.0 0.001437 545.27582 704.02502
683.0 0.001464 545.36700 714.54712
694.0 0.001441 545.46069 725.20892
724.0 0.001381 545.55676 735.90887
732.0 0.001366 545.65533 746.49677
756.0 0.001323 545.75635 756.81030
772.0 0.001295 545.86023 766.67865
789.0 0.001267 545.96619 775.92529
810.0 0.001235 546.07501 784.37457
797.0 0.001255 546.18622 791.85675
797.0 0.001255 546.29987 800.91095
807.0 0.001239 546.41608 806.07208
802.0 0.001247 546.53473 809.88965
787.0 0.001271 546.65613 812.31158
784.0 0.001276 546.77972 813.33276
796.0 0.001256 546.90588 812.99695
804.0 0.001244 547.03455 811.39130
781.0 0.001280 547.16577 808.64026
747.0 0.001339 547.29944 804.89612
772.0 0.001295 547.43542 800.32782
820.0 0.001220 547.57397 795.11035
788.0 0.001269 547.71490 789.41742
760.0 0.001316 547.85834 783.41431
761.0 0.001314 548.00433 777.25275
755.0 0.001325 548.15240 771.06659
732.0 0.001366 548.30328 764.97314
753.0 0.001328 548.45636 759.06714
736.0 0.001359 548.61194 753.42480
699.0 0.001431 548.76984 748.10004
740.0 0.001351 548.93024 743.12695
751.0 0.001332 549.09308 738.51923
744.0 0.001344 549.25800 734.27094
743.0 0.001346 549.42554 729.80792
734.0 0.001362 549.59552 726.20898
733.0 0.001364 549.76770 722.85870
731.0 0.001368 549.94214 719.69904
708.0 0.001412 550.11902 716.66669
682.0 0.001466 550.29828 713.69934
725.0 0.001379 550.47980 710.73840
744.0 0.001344 550.66351 707.73340
721.0 0.001387 550.84961 704.64380
724.0 0.001381 551.03796 701.44043
716.0 0.001397 551.22864 698.10663
700.0 0.001429 551.42151 694.63544
704.0 0.001420 551.61658 691.03119
718.0 0.001393 551.81396 687.30731
664.0 0.001506 552.01355 683.48358
655.0 0.001527 552.21539 679.58813
704.0 0.001420 552.41949 675.65662
694.0 0.001441 552.62561 671.72778
677.0 0.001477 552.83398 667.84644
662.0 0.001511 553.04449 664.05939
656.0 0.001524 553.25720 660.41547
670.0 0.001493 553.47192 656.96252
659.0 0.001517 553.68884 653.74719
635.0 0.001575 553.90790 650.81335
633.0 0.001580 554.12897 648.19977
658.0 0.001520 554.35229 645.38586
666.0 0.001502 554.57745 643.52374
669.0 0.001495 554.80481 642.06848
676.0 0.001479 555.03412 641.03589
666.0 0.001502 555.26538 640.43671
672.0 0.001488 555.49872 640.27423
673.0 0.001486 555.73401 640.54663
653.0 0.001531 555.97150 641.24512
644.0 0.001553 556.21075 642.35535
651.0 0.001536 556.45215 643.85742
645.0 0.001550 556.69519 645.72742
646.0 0.001548 556.94012 647.93591
707.0 0.001414 557.18719 650.45068
691.0 0.001447 557.43610 653.23517
649.0 0.001541 557.68677 656.25134
668.0 0.001497 557.93933 659.55249
653.0 0.001531 558.19373 662.91150
663.0 0.001508 558.44995 666.37946
689.0 0.001451 558.70782 669.91730
683.0 0.001464 558.96783 673.48938
689.0 0.001451 559.22931 677.06476
680.0 0.001471 559.49261 680.62170
667.0 0.001499 559.75751 684.14728
684.0 0.001462 560.02411 687.64288
687.0 0.001456 560.29266 691.78735
692.0 0.001445 560.56274 695.29309
708.0 0.001412 560.83441 698.85791
712.0 0.001404 561.10779 702.53961
717.0 0.001395 561.38269 706.40747
718.0 0.001393 561.65924 710.53894
720.0 0.001389 561.93750 715.01563
734.0 0.001362 562.21729 719.92004
722.0 0.001385 562.49841 725.33246
706.0 0.001416 562.78119 731.32709
713.0 0.001403 563.06543 737.97003
716.0 0.001397 563.35132 745.31683
733.0 0.001364 563.63843 753.40955
741.0 0.001350 563.92712 762.27686
726.0 0.001377 564.21716 771.93109
765.0 0.001307 564.50879 782.36774
790.0 0.001266 564.80182 793.56409
778.0 0.001285 565.09589 805.47858
779.0 0.001284 565.39154 818.05042
798.0 0.001253 565.68835 831.19910
805.0 0.001242 565.98676 844.82428
800.0 0.001250 566.28619 858.80499
816.0 0.001225 566.58716 873.00183
831.0 0.001203 566.88898 887.25549
867.0 0.001153 567.19220 901.38904
913.0 0.001095 567.49677 915.20972
893.0 0.001120 567.80249 929.15771
891.0 0.001122 568.10925 940.12329
933.0 0.001072 568.41724 951.75702
966.0 0.001035 568.72632 962.19409
944.0 0.001059 569.03662 971.21136
953.0 0.001049 569.34790 978.59961
981.0 0.001019 569.66034 984.17493
954.0 0.001048 569.97351 987.78540
971.0 0.001030 570.28809 989.32379
992.0 0.001008 570.60339 988.73126
985.0 0.001015 570.91998 986.00354
1000.0 0.001000 571.23724 981.18896
992.0 0.001008 571.55566 974.38647
985.0 0.001015 571.87482 965.73706
1007.0 0.000993 572.19476 955.41559
998.0 0.001002 572.51593 943.62054
953.0 0.001049 572.83771 930.56488
924.0 0.001082 573.16040 916.46698
941.0 0.001063 573.48401 901.54437
921.0 0.001086 573.80823 886.00757
915.0 0.001093 574.13336 870.05792
934.0 0.001071 574.45923 853.88184
908.0 0.001101 574.78577 837.65350
883.0 0.001133 575.11298 821.53009
858.0 0.001166 575.44092 805.65332
835.0 0.001198 575.76959 790.14856
854.0 0.001171 576.09894 775.12592
844.0 0.001185 576.42883 761.11890
802.0 0.001247 576.75934 747.35278
787.0 0.001271 577.09045 734.30249
782.0 0.001279 577.42212 722.01678
762.0 0.001312 577.75427 710.53094
732.0 0.001366 578.08710 699.86737
719.0 0.001391 578.42023 690.03699
708.0 0.001412 578.75415 681.04169
689.0 0.001451 579.08826 672.63776
669.0 0.001495 579.42310 665.28406
673.0 0.001486 579.75818 658.71869
700.0 0.001429 580.09351 652.91443
705.0 0.001418 580.42957 647.84106
660.0 0.001515 580.76581 643.46368
649.0 0.001541 581.10236 639.74799
649.0 0.001541 581.43915 636.65692
640.0 0.001563 581.77655 634.15509
660.0 0.001515 582.11407 632.20679
660.0 0.001515 582.45178 630.77759
644.0 0.001553 582.78998 629.83521
644.0 0.001553 583.12836 629.34845
641.0 0.001560 583.46667 629.28851
642.0 0.001558 583.80536 629.62854
644.0 0.001553 584.14441 630.34332
638.0 0.001567 584.48334 631.40948
656.0 0.001524 584.82245 632.80505
673.0 0.001486 585.16180 634.50873
668.0 0.001497 585.50110 636.50110
662.0 0.001511 585.84064 638.76282
648.0 0.001543 586.18011 641.27386
648.0 0.001543 586.51984 644.01550
681.0 0.001468 586.85950 646.96710
675.0 0.001481 587.19897 650.10797
644.0 0.001553 587.53864 653.41675
632.0 0.001582 587.87848 656.87000
658.0 0.001520 588.21790 660.44275
687.0 0.001456 588.55743 670.91125
705.0 0.001418 588.89679 674.74945
710.0 0.001408 589.23621 678.62708
687.0 0.001456 589.57532 682.51318
649.0 0.001541 589.91461 686.37646
646.0 0.001548 590.25360 690.18353
705.0 0.001418 590.59241 693.25806
697.0 0.001435 590.93121 696.86536
663.0 0.001508 591.26965 700.31512
670.0 0.001493 591.60773 703.57422
663.0 0.001508 591.94598 706.61212
682.0 0.001466 592.28381 709.39905
702.0 0.001425 592.62140 711.90912
675.0 0.001481 592.95856 714.12091
682.0 0.001466 593.29572 716.01892
697.0 0.001435 593.63263 717.59357
690.0 0.001449 593.96893 718.84302
694.0 0.001441 594.30518 719.77460
687.0 0.001456 594.64081 720.40228
681.0 0.001468 594.97638 720.75031
699.0 0.001431 595.31158 720.84863
692.0 0.001445 595.64624 720.73395
692.0 0.001445 595.98065 720.44745
712.0 0.001404 596.31458 720.03320
709.0 0.001410 596.64825 719.53735
690.0 0.001449 596.98126 719.00537
684.0 0.001462 597.31396 718.48224
707.0 0.001414 597.64618 718.01025
733.0 0.001364 597.97784 717.62927
734.0 0.001362 598.30927 717.61078
715.0 0.001399 598.64014 717.51965
708.0 0.001412 598.97052 717.61578
722.0 0.001385 599.30054 717.92279
732.0 0.001366 599.62970 718.45929
721.0 0.001387 599.95850 719.24030
719.0 0.001391 600.28687 720.27545
721.0 0.001387 600.61450 721.57007
730.0 0.001370 600.94177 723.12457
750.0 0.001333 601.26849 724.93585
731.0 0.001368 601.59448 727.44751
696.0 0.001437 601.91986 729.74896
692.0 0.001445 602.24475 732.27014
721.0 0.001387 602.56903 734.95135
745.0 0.001342 602.89282 737.84778
745.0 0.001342 603.21588 740.89227
737.0 0.001357 603.53827 744.05615
731.0 0.001368 603.86017 747.30817
751.0 0.001332 604.18134 750.61694
786.0 0.001272 604.50201 753.95068
775.0 0.001290 604.82172 757.27930
740.0 0.001351 605.14093 760.57562
732.0 0.001366 605.45947 761.12549
761.0 0.001314 605.77734 764.34137
761.0 0.001314 606.09448 767.46960
753.0 0.001328 606.41125 770.50397
774.0 0.001292 606.72699 773.44415
788.0 0.001269 607.04211 776.29572
771.0 0.001297 607.35663 779.06903
765.0 0.001307 607.67041 781.77814
802.0 0.001247 607.98334 784.43896
755.0 0.001325 608.29584 787.06927
721.0 0.001387 608.60748 789.68597
778.0 0.001285 608.91827 792.30530
794.0 0.001259 609.22858 794.94080
797.0 0.001255 609.53790 797.60382
800.0 0.001250 609.84674 800.30273
780.0 0.001282 610.15479 803.04218
795.0 0.001258 610.46191 806.12183
807.0 0.001239 610.76855 808.94708
794.0 0.001259 611.07428 811.80707
827.0 0.001209 611.37939 814.69427
809.0 0.001236 611.68359 817.59796
772.0 0.001295 611.98712 820.50702
828.0 0.001208 612.28992 823.40875
826.0 0.001211 612.59186 826.29242
793.0 0.001261 612.89337 829.14771
806.0 0.001241 613.19397 831.96930
818.0 0.001222 613.49377 834.75702
812.0 0.001232 613.79285 837.51746
804.0 0.001244 614.09106 840.26697
817.0 0.001224 614.38873 843.03168
840.0 0.001190 614.68561 845.84998
837.0 0.001195 614.98163 848.77075
814.0 0.001229 615.27704 851.85638
835.0 0.001198 615.57159 855.17786
855.0 0.001170 615.86548 858.81793
854.0 0.001171 616.15863 862.86511
856.0 0.001168 616.45099 867.41663
830.0 0.001205 616.74249 872.57153
829.0 0.001206 617.03345 878.43134
875.0 0.001143 617.32355 885.09711
872.0 0.001147 617.61292 892.66888
858.0 0.001166 617.90173 901.24292
858.0 0.001166 618.18964 910.90942
848.0 0.001179 618.47681 921.75317
847.0 0.001181 618.76331 933.85034
852.0 0.001174 619.04889 947.26758
860.0 0.001163 619.33411 962.26758
876.0 0.001142 619.61841 978.48547
862.0 0.001160 619.90216 996.15460
859.0 0.001164 620.18488 1015.29285
939.0 0.001065 620.46729 1035.90173
972.0 0.001029 620.74884 1057.96545
964.0 0.001037 621.02954 1081.45227
984.0 0.001016 621.30969 1106.31262
1017.0 0.000983 621.58899 1132.47595
1058.0 0.000945 621.86780 1159.85583
1096.0 0.000912 622.14587 1191.78723
1116.0 0.000896 622.42328 1221.30359
1167.0 0.000857 622.70013 1251.65283
1216.0 0.000822 622.97607 1282.66797
1228.0 0.000814 623.25165 1314.16113
1264.0 0.000791 623.52631 1345.92517
1305.0 0.000766 623.80035 1377.64087
1349.0 0.000741 624.07391 1409.25232
1418.0 0.000705 624.34680 1440.40308
1435.0 0.000697 624.61890 1470.81555
1442.0 0.000693 624.89044 1500.20044
1505.0 0.000664 625.16138 1528.25586
1558.0 0.000642 625.43164 1554.67468
1606.0 0.000623 625.70142 1579.14795
1653.0 0.000605 625.97040 1601.37280
1663.0 0.000601 626.23889 1620.39795
1662.0 0.000602 626.50684 1637.28333
1678.0 0.000596 626.77423 1651.11560
1719.0 0.000582 627.04083 1661.69336
1771.0 0.000565 627.30713 1668.86011
1776.0 0.000563 627.57263 1672.51465
1765.0 0.000567 627.83759 1672.61218
1836.0 0.000545 628.10211 1669.17004
1821.0 0.000549 628.36591 1662.26245
1761.0 0.000568 628.62927 1652.01904
1786.0 0.000560 628.89203 1638.61975
1786.0 0.000560 629.15424 1622.28418
1788.0 0.000559 629.41589 1603.26428
1794.0 0.000557 629.67725 1581.83508
1726.0 0.000579 629.93768 1558.28528
1707.0 0.000586 630.19775 1532.91162
1714.0 0.000583 630.45764 1506.00830
1657.0 0.000604 630.71643 1477.86487
1654.0 0.000605 630.97528 1448.76135
1645.0 0.000608 631.23328 1418.96350
1579.0 0.000633 631.49066 1388.72119
1543.0 0.000648 631.74786 1358.26855
1535.0 0.000651 632.00439 1327.81995
1510.0 0.000662 632.26062 1297.57129
1438.0 0.000695 632.51624 1267.69971
1366.0 0.000732 632.77130 1238.36169
1345.0 0.000743 633.02612 1209.69543
1352.0 0.000740 633.28027 1181.81934
1298.0 0.000770 633.53406 1154.83374
1264.0 0.000791 633.78723 1128.82043
1264.0 0.000791 634.04010 1103.84424
1227.0 0.000815 634.29242 1079.95349
1161.0 0.000861 634.54437 1057.18091
1135.0 0.000881 634.79590 1035.54590
1153.0 0.000867 635.04681 1015.05310
1115.0 0.000897 635.29755 995.69720
1075.0 0.000930 635.54761 977.46173
1061.0 0.000943 635.79718 960.32166
1032.0 0.000969 636.04663 944.24420
979.0 0.001021 636.29523 929.19037
961.0 0.001041 636.54376 915.11749
987.0 0.001013 636.79156 901.97803
965.0 0.001036 637.03918 889.72375
947.0 0.001056 637.28613 878.30573
930.0 0.001075 637.53265 867.67426
874.0 0.001144 637.77887 857.78229
893.0 0.001120 638.02448 848.58380
895.0 0.001117 638.26990 839.75262
822.0 0.001217 638.51459 831.83008
836.0 0.001196 638.75897 824.48151
861.0 0.001161 639.00293 817.67224
837.0 0.001195 639.24640 811.37250
809.0 0.001236 639.48938 805.55457
797.0 0.001255 639.73193 800.19360
802.0 0.001247 639.97406 795.26868
809.0 0.001236 640.21576 790.76019
796.0 0.001256 640.45685 786.65088
767.0 0.001304 640.69757 782.92596
745.0 0.001342 640.93774 780.18384
751.0 0.001332 641.17749 777.19946
770.0 0.001299 641.41656 774.56689
784.0 0.001276 641.65540 772.27832
784.0 0.001276 641.89343 770.32703
761.0 0.001314 642.13123 768.70837
740.0 0.001351 642.36847 767.41766
734.0 0.001362 642.60492 766.45184
734.0 0.001362 642.84113 765.80933
736.0 0.001359 643.07648 765.48822
747.0 0.001339 643.31146 765.48779
763.0 0.001311 643.54590 765.80798
759.0 0.001318 643.77966 766.44904
742.0 0.001348 644.01288 767.41150
745.0 0.001342 644.24536 768.69653
777.0 0.001287 644.47748 770.30615
752.0 0.001330 644.70868 771.22498
731.0 0.001368 644.93939 773.50525
768.0 0.001302 645.16937 776.11627
769.0 0.001300 645.39880 779.06085
757.0 0.001321 645.62744 782.34302
765.0 0.001307 645.85522 785.96710
787.0 0.001271 646.08252 789.93878
796.0 0.001256 646.30896 794.26349
789.0 0.001267 646.53473 798.94891
784.0 0.001276 646.75964 804.00244
794.0 0.001259 646.98376 809.43256
795.0 0.001258 647.20709 815.24841
778.0 0.001285 647.42957 821.45923
764.0 0.001309 647.65137 828.07452
781.0 0.001280 647.87201 835.10272
801.0 0.001248 648.09180 842.55133
806.0 0.001241 648.31073 850.88501
827.0 0.001209 648.52875 859.19745
841.0 0.001189 648.74579 867.94299
822.0 0.001217 648.96173 877.12000
791.0 0.001264 649.17657 886.72418
836.0 0.001196 649.39063 896.74707
873.0 0.001145 649.60358 907.17566
844.0 0.001185 649.81549 917.99292
852.0 0.001174 650.02600 929.17664
868.0 0.001152 650.23547 940.70001
870.0 0.001149 650.44379 952.53082
884.0 0.001131 650.65100 964.63177
931.0 0.001074 650.85699 976.96039
954.0 0.001048 651.06146 989.46820
937.0 0.001067 651.26477 1002.10278
945.0 0.001058 651.46680 1014.80481
957.0 0.001045 651.66736 1027.51086
968.0 0.001033 651.86664 1040.15247
993.0 0.001007 652.06451 1052.65601
1016.0 0.000984 652.26080 1064.94348
1036.0 0.000965 652.45569 1076.93420
1049.0 0.000953 652.64905 1088.54175
1046.0 0.000956 652.84070 1100.40173
1059.0 0.000944 653.03088 1110.98560
1064.0 0.000940 653.21924 1120.91736
1051.0 0.000951 653.40613 1130.10693
1114.0 0.000898 653.59113 1138.46362
1122.0 0.000891 653.77466 1145.90161
1078.0 0.000928 653.95605 1152.33923
1135.0 0.000881 654.13586 1157.70203
1144.0 0.000874 654.31366 1161.92322
1137.0 0.000880 654.48956 1164.94751
1173.0 0.000853 654.66345 1166.73157
1135.0 0.000881 654.83539 1167.24609
1127.0 0.000887 655.00531 1166.47693
1181.0 0.000847 655.17322 1164.42480
1207.0 0.000829 655.33893 1161.10669
1209.0 0.000827 655.50244 1156.55371
1199.0 0.000834 655.66364 1150.81213
1194.0 0.000838 655.82275 1143.94055
1205.0 0.000830 655.97955 1136.00830
1158.0 0.000864 656.13391 1127.09363
1110.0 0.000901 656.28589 1110.44446
1146.0 0.000873 656.43542 1099.92896
1143.0 0.000875 656.58258 1088.69666
1126.0 0.000888 656.72705 1076.84241
1122.0 0.000891 656.86902 1064.46021
1086.0 0.000921 657.00824 1051.64307
1076.0 0.000929 657.14496 1038.48181
1090.0 0.000917 657.27893 1025.06458
1086.0 0.000921 657.41010 1011.47455
1053.0 0.000950 657.53833 997.79205
1018.0 0.000982 657.66382 984.09326
997.0 0.001003 657.78619 970.44855
984.0 0.001016 657.90594 956.92493
983.0 0.001017 658.02246 943.58368
980.0 0.001020 658.13586 930.48102
970.0 0.001031 658.24622 917.66937
977.0 0.001024 658.35352 905.19568
948.0 0.001055 658.45734 893.10138
914.0 0.001094 658.55811 881.42480
925.0 0.001081 658.65552 870.19788
895.0 0.001117 658.74957 859.44897
864.0 0.001157 658.84021 849.20142
867.0 0.001153 658.92737 839.47510
859.0 0.001164 659.01117 830.28497
833.0 0.001200 659.09143 821.64209
822.0 0.001217 659.16772 813.55396
824.0 0.001214 659.24066 806.02533
770.0 0.001299 659.31006 799.86389
771.0 0.001297 659.37543 793.46033
823.0 0.001215 659.43713 787.37347
815.0 0.001227 659.49500 782.07001
772.0 0.001295 659.54895 777.30109
758.0 0.001319 659.59900 773.05438
769.0 0.001300 659.64526 769.31635
738.0 0.001355 659.68726 766.07104
731.0 0.001368 659.72540 763.30176
764.0 0.001309 659.75940 760.99060
786.0 0.001272 659.78931 759.11829
758.0 0.001319 659.81488 757.66461
741.0 0.001350 659.83649 756.16138
757.0 0.001321 659.85370 755.49036
768.0 0.001302 659.86670 755.17523
757.0 0.001321 659.87543 755.19391
745.0 0.001342 659.87982 755.52472
759.0 0.001318 659.87976 756.14539
794.0 0.001259 659.87537 757.03418
776.0 0.001289 659.86646 758.16840
747.0 0.001339 659.85309 759.52625
760.0 0.001316 659.83527 761.08563
749.0 0.001335 659.81299 762.82446
750.0 0.001333 659.78625 764.72107
770.0 0.001299 659.75482 766.75372
772.0 0.001295 659.71869 768.90015
754.0 0.001326 659.67816 771.13959
751.0 0.001332 659.63306 773.45050
763.0 0.001311 659.58337 775.81134
748.0 0.001337 659.52905 778.20160
748.0 0.001337 659.46979 780.60010
787.0 0.001271 659.40613 782.98700
826.0 0.001211 659.33783 785.34241
793.0 0.001261 659.26489 787.64703
805.0 0.001242 659.18738 789.88202
839.0 0.001192 659.10510 792.02924
802.0 0.001247 659.01825 794.07239
763.0 0.001311 658.92676 795.99518
768.0 0.001302 658.83093 798.25507
799.0 0.001252 658.73022 800.07849
804.0 0.001244 658.62494 801.56311
804.0 0.001244 658.51520 802.87726
829.0 0.001206 658.40118 804.01172
838.0 0.001193 658.28229 804.95905
769.0 0.001300 658.15918 805.71387
747.0 0.001339 658.03162 806.27325
771.0 0.001297 657.89972 806.63507
774.0 0.001292 657.76355 806.79944
763.0 0.001311 657.62299 806.76898
777.0 0.001287 657.47827 806.54797
803.0 0.001245 657.32953 806.14221
808.0 0.001238 657.17670 805.56012
812.0 0.001232 657.01990 804.81079
811.0 0.001233 656.85895 803.90564
800.0 0.001250 656.69446 802.85748
792.0 0.001263 656.52600 801.67993
814.0 0.001229 656.35388 800.38763
800.0 0.001250 656.17847 798.99689
765.0 0.001307 655.99927 797.52277
805.0 0.001242 655.81689 795.98199
825.0 0.001212 655.63116 794.39050
811.0 0.001233 655.44244 792.76483
799.0 0.001252 655.25073 791.12085
801.0 0.001248 655.05597 789.17755
802.0 0.001247 654.85876 787.54578
804.0 0.001244 654.65887 785.93835
815.0 0.001227 654.45654 784.36932
823.0 0.001215 654.25189 782.85052
787.0 0.001271 654.04541 781.39294
756.0 0.001323 653.83691 780.00647
773.0 0.001294 653.62677 778.70007
763.0 0.001311 653.41498 777.48193
757.0 0.001321 653.20209 776.35846
765.0 0.001307 652.98785 775.33545
764.0 0.001309 652.77301 774.41785
767.0 0.001304 652.55725 773.60883
770.0 0.001299 652.34137 772.91064
767.0 0.001304 652.12518 772.32495
758.0 0.001319 651.90887 772.35059
750.0 0.001333 651.69324 771.99384
754.0 0.001326 651.47815 771.74701
764.0 0.001309 651.26398 771.60791
764.0 0.001309 651.05109 771.57275
768.0 0.001302 650.83960 771.63715
769.0 0.001300 650.63025 771.79633
771.0 0.001297 650.42267 772.04382
787.0 0.001271 650.21802 772.37439
781.0 0.001280 650.01605 772.78076
782.0 0.001279 649.81720 773.25616
789.0 0.001267 649.62238 773.79395
757.0 0.001321 649.43134 774.38654
764.0 0.001309 649.24487 775.02765
762.0 0.001312 649.06305 775.71008
735.0 0.001361 648.88660 776.22162
766.0 0.001305 648.71606 776.97205
771.0 0.001297 648.55151 777.74664
780.0 0.001282 648.39362 778.54053
808.0 0.001238 648.24280 779.35016
785.0 0.001274 648.09979 780.17212
795.0 0.001258 647.96503 781.00330
805.0 0.001242 647.83881 781.84137
776.0 0.001289 647.72198 782.68451
772.0 0.001295 647.61481 783.53076
787.0 0.001271 647.51831 780.91467
802.0 0.001247 647.43262 781.81219
795.0 0.001258 647.35858 782.70831
754.0 0.001326 647.29700 783.60193
765.0 0.001307 647.24805 784.49127
787.0 0.001271 647.21283 785.37524
780.0 0.001282 647.19214 786.25214
798.0 0.001253 647.18610 787.11945
805.0 0.001242 647.19604 787.97479
787.0 0.001271 647.22223 788.81525
779.0 0.001284 647.26587 789.63794
813.0 0.001230 647.32745 790.43915
821.0 0.001218 647.40808 791.21472
787.0 0.001271 647.50818 791.96094
769.0 0.001300 647.62897 792.67316
816.0 0.001225 647.77118 793.34729
835.0 0.001198 647.93579 793.97839
820.0 0.001220 648.12347 794.56146
803.0 0.001245 648.33551 795.09277
789.0 0.001267 648.57288 795.56805
805.0 0.001242 648.83618 795.98370
802.0 0.001247 649.12659 796.33649
787.0 0.001271 649.44556 796.62427
815.0 0.001227 649.79364 796.84521
797.0 0.001255 650.17249 796.99933
792.0 0.001263 650.58252 797.08716
815.0 0.001227 651.02539 797.11011
805.0 0.001242 651.50238 797.07184
827.0 0.001209 652.01422 796.97614
825.0 0.001212 652.56244 796.82874
807.0 0.001239 653.14856 796.63660
822.0 0.001217 653.77319 796.40704
779.0 0.001284 654.43848 796.14941
790.0 0.001266 655.14508 795.87341
843.0 0.001186 655.89508 795.58960
827.0 0.001209 656.68939 795.30884
773.0 0.001294 657.52942 795.04279
783.0 0.001277 658.41718 794.80353
811.0 0.001233 659.35370 794.60266
791.0 0.001264 660.34100 794.45264
793.0 0.001261 661.38031 794.36530
781.0 0.001280 662.47302 794.35138
751.0 0.001332 663.62134 794.42389
740.0 0.001351 664.82721 794.59320
762.0 0.001312 666.09161 794.86957
760.0 . . .
loop_
_refln_index_h
_refln_index_k
_refln_index_l
_refln_observed_status
_refln_F_squared_meas
_refln_F_squared_calc
_refln_phase_calc
_refln_d_spacing
_gsas_i100_meas
1 1 1 o 10.399 10.256 150.12 6.12573 2.87
2 0 0 o 1.346 0.795 180.00 5.30503 0.21
2 2 0 o 0.000 0.614 180.00 3.75123 0.00
3 1 1 o 16.601 14.052 30.65 3.19906 3.80
2 2 2 o 351.451 357.613 -89.99 3.06286 24.63
4 0 0 o 186.931 188.855 0.00 2.65252 7.42
3 3 1 o 19.788 14.637 -6.32 2.43412 2.66
4 2 0 o 0.000 0.211 -180.00 2.37248 0.00
4 2 2 o 6.959 8.035 143.26 2.16577 0.75
5 1 1 o 11.337 12.299 -169.19 2.04191 1.09
3 3 3 o 107.543 116.673 16.92 2.04191 3.44
4 4 0 o 2442.948 2377.824 0.00 1.87561 100.00
5 3 1 o 11.706 6.589 -144.50 1.79343 1.76
4 4 2 o 11.197 11.344 -177.38 1.76834 0.82
6 0 0 o 22.673 22.969 0.00 1.76834 0.42
6 2 0 o 10.687 2.805 0.00 1.67760 0.71
5 3 3 o 17.772 15.948 -26.87 1.61802 1.11
6 2 2 o 338.669 334.988 82.84 1.59953 20.65
4 4 4 o 84.284 102.334 0.08 1.53143 1.58
5 5 1 o 60.661 71.893 156.39 1.48571 3.24
7 1 1 o 4.091 4.849 10.61 1.48571 0.22
6 4 0 o 0.651 2.147 180.00 1.47135 0.03
6 4 2 o 0.848 2.900 -72.97 1.41783 0.08
5 5 3 o 8.298 8.129 167.61 1.38131 0.39
7 3 1 o 80.177 78.544 -19.40 1.38131 7.53
8 0 0 o 2036.648 1989.938 0.00 1.32626 22.28
7 3 3 o 74.668 69.402 14.94 1.29623 3.14
8 2 0 o 24.679 23.305 180.00 1.28666 1.03
6 4 4 o 5.125 4.840 3.85 1.28666 0.21
8 2 2 o 60.900 37.849 -148.46 1.25041 2.41
6 6 0 o 32.265 20.052 0.00 1.25041 0.64
5 5 5 o 83.293 76.640 177.21 1.22515 1.06
7 5 1 o 7.217 6.640 40.37 1.22515 0.55
6 6 2 o 286.989 322.661 -76.13 1.21706 10.87
8 4 0 o 49.525 57.273 0.00 1.18624 1.80
7 5 3 o 6.726 6.764 -8.99 1.16461 0.47
9 1 1 o 37.853 38.066 148.92 1.16461 1.33
8 4 2 o 15.716 18.610 176.12 1.15765 1.10
6 6 4 o 9.293 8.313 32.83 1.13104 0.31
9 3 1 o 0.254 0.758 136.30 1.11224 0.02
8 4 4 o 1565.140 1601.380 -0.04 1.08289 49.30
9 3 3 o 1.755 2.079 62.79 1.06635 0.05
7 5 5 o 7.769 9.204 -154.35 1.06635 0.24
7 7 1 o 37.112 43.968 -17.93 1.06635 1.14
10 0 0 o 0.871 0.945 0.00 1.06101 0.01
8 6 0 o 0.297 0.322 0.00 1.06101 0.01
8 6 2 o 26.575 17.391 132.19 1.04040 1.58
10 2 0 o 39.837 26.069 0.00 1.04040 1.18
7 7 3 o 198.960 179.207 16.86 1.02571 5.79
9 5 1 o 44.768 40.323 176.52 1.02571 2.61
6 6 6 o 323.004 318.919 69.67 1.02095 3.11
10 2 2 o 307.614 303.724 -73.90 1.02095 8.89
9 5 3 o 26.832 29.625 -146.54 0.98939 1.49
10 4 0 o 41.985 55.953 0.00 0.98512 1.16
8 6 4 o 19.426 25.889 -176.84 0.98512 1.07
10 4 2 o 17.533 13.818 23.81 0.96856 0.94
7 7 5 o 44.088 51.219 -21.40 0.95668 1.17
11 1 1 o 18.963 22.031 32.84 0.95668 0.50
8 8 0 o 1302.753 1330.028 0.00 0.93781 16.85
9 5 5 o 116.027 113.298 153.61 0.92701 2.96
11 3 1 o 18.239 17.810 -27.20 0.92701 0.93
9 7 1 o 1.931 1.885 -118.26 0.92701 0.10
8 8 2 o 66.843 64.169 -176.03 0.92349 1.70
10 4 4 o 1.693 1.625 -173.87 0.92349 0.04
8 6 6 o 10.607 8.803 -90.90 0.90981 0.26
10 6 0 o 48.910 40.588 0.00 0.90981 1.22
11 3 3 o 108.790 112.035 20.02 0.89993 2.69
9 7 3 o 18.256 18.800 -20.48 0.89993 0.90
10 6 2 o 310.116 301.757 67.76 0.89671 15.25
12 0 0 o 26.440 22.718 0.00 0.88417 0.16
8 8 4 o 7.020 6.032 1.19 0.88417 0.17
11 5 1 o 1.278 1.363 161.69 0.87510 0.06
7 7 7 o 99.482 106.145 19.13 0.87510 0.80
12 2 0 o 24.460 26.248 -180.00 0.87214 0.58
12 2 2 o 85.598 76.747 149.68 0.86059 2.02
10 6 4 o 43.226 38.757 -13.38 0.86059 2.04
9 7 5 o 1.818 2.194 160.85 0.85222 0.09
11 5 3 o 19.162 23.118 -30.10 0.85222 0.90
12 4 0 o 1238.142 1208.274 0.00 0.83880 28.63
9 9 1 o 70.219 71.956 148.31 0.83104 1.61
10 8 0 o 6.244 6.934 180.00 0.82851 0.14
8 8 6 o 7.728 8.583 169.54 0.82851 0.18
12 4 2 o 49.838 55.349 -176.91 0.82851 2.28
10 8 2 o 7.748 8.630 -75.79 0.81858 0.35
11 5 5 o 3.066 3.267 133.62 0.81137 0.07
9 9 3 o 11.825 12.599 -174.40 0.81137 0.27
13 1 1 o 3.436 3.661 171.31 0.81137 0.08
11 7 1 o 74.431 79.302 -22.52 0.81137 3.37
10 6 6 o 304.426 302.526 -62.59 0.80901 6.88
12 4 4 o 6.404 4.510 0.99 0.79976 0.14
9 7 7 o 11.954 10.880 -7.07 0.79303 0.27
13 3 1 o 7.590 6.908 -94.48 0.79303 0.34
11 7 3 o 67.744 61.662 24.00 0.79303 3.03
10 8 4 o 12.785 12.146 4.25 0.79083 0.57
12 6 0 o 35.637 33.856 -180.00 0.79083 0.80
12 6 2 o 44.993 43.177 -139.74 0.78218 2.01
13 3 3 o 12.913 13.149 -8.94 0.77589 0.29
9 9 5 o 70.990 72.291 172.59 0.77589 1.58
8 8 8 o 819.155 870.080 -0.19 0.76572 6.07
13 5 1 o 41.907 40.762 139.06 0.75980 1.86
11 7 5 o 10.522 10.234 -33.34 0.75980 0.47
12 6 4 o 7.072 6.670 171.42 0.75786 0.31
14 0 0 o 118.635 111.883 0.00 0.75786 0.66
10 8 6 o 11.959 11.655 53.21 0.75025 0.53
14 2 0 o 38.094 37.127 0.00 0.75025 0.85
10 10 0 o 99.860 97.323 0.00 0.75025 1.11
13 5 3 o 2.039 2.062 -168.40 0.74468 0.09
11 9 1 o 1.816 1.836 68.50 0.74468 0.08
10 10 2 o 301.381 288.149 -60.86 0.74285 6.74
14 2 2 o 262.639 251.107 69.26 0.74285 5.87
12 8 0 o 0.147 0.119 0.00 0.73568 0.00
9 9 7 o 14.572 14.672 -139.17 0.73043 0.33
11 9 3 o 1.431 1.441 -18.55 0.73043 0.06
14 4 0 o 0.064 0.069 180.00 0.72870 0.00
12 8 2 o 57.489 61.362 174.42 0.72870 2.60
14 4 2 o 28.678 30.141 -13.99 0.72192 1.31
10 10 4 o 48.187 50.645 10.75 0.72192 1.10
12 6 6 o 25.501 26.802 128.05 0.72192 0.58
11 7 7 o 144.806 160.318 19.27 0.71696 3.33
13 7 1 o 4.895 5.419 12.25 0.71696 0.22
13 5 5 o 34.574 38.277 170.68 0.71696 0.79
12 8 4 o 840.207 791.166 -0.14 0.70891 39.16
11 9 5 o 12.788 11.078 -162.37 0.70421 0.60
13 7 3 o 14.879 12.890 15.12 0.70421 0.70
15 1 1 o 5.265 4.561 130.14 0.70421 0.12
14 4 4 o 75.687 68.124 0.84 0.70267 1.79
10 8 8 o 34.479 31.034 -174.95 0.70267 0.81
14 6 0 o 64.844 73.100 0.00 0.69659 1.56
15 3 1 o 22.643 24.192 -36.62 0.69212 1.10
10 10 6 o 291.959 296.228 55.81 0.69066 7.16
14 6 2 o 247.418 251.036 -63.92 0.69066 12.13
15 3 3 o 17.209 17.488 42.96 0.68064 0.44
13 7 5 o 6.084 6.182 -110.30 0.68064 0.31
9 9 9 o 103.235 104.908 147.71 0.68064 0.88
11 11 1 o 20.435 20.766 -39.00 0.68064 0.52
12 10 0 o 4.456 4.536 0.00 0.67924 0.11
12 8 6 o 68.508 69.736 -174.98 0.67924 3.53
14 6 4 o 38.353 38.333 11.88 0.67374 2.04
12 10 2 o 19.871 19.861 118.57 0.67374 1.05
11 11 3 o 107.285 105.470 22.43 0.66970 2.92
11 9 7 o 23.945 23.540 -24.97 0.66970 1.31
13 9 1 o 19.114 18.790 167.48 0.66970 1.04
15 5 1 o 4.434 4.359 115.53 0.66970 0.24
