#------------------------------------------------------------------------------
#$Date: 2016-02-16 22:30:59 +0200 (Tue, 16 Feb 2016) $
#$Revision: 176467 $
#$URL: svn://www.crystallography.net/cod/cif/4/00/10/4001072.cif $
#------------------------------------------------------------------------------
#
# This file is available in the Crystallography Open Database (COD),
# http://www.crystallography.net/
#
# All data on this site have been placed in the public domain by the
# contributors.
#
data_4001072
loop_
_publ_author_name
'Achary, S. Nagabhusan'
'Sali, Sanjay K.'
'Kulkarni, Narendra K.'
'Krishna, P. Siva Ram'
'Shinde, Anil B.'
'Tyagi, Avesh K.'
_publ_section_title
;
 Intercalation/Deintercalation of Oxygen: A Sequential Evolution of Phases
 in Ce2O3/CeO2&#x2212;ZrO2Pyrochlores
;
_journal_issue                   24
_journal_name_full               'Chemistry of Materials'
_journal_page_first              5848
_journal_paper_doi               10.1021/cm902450q
_journal_volume                  21
_journal_year                    2009
_chemical_compound_source        Synthetic
_chemical_formula_moiety         'Ce2 Zr2 O7'
_chemical_formula_structural     'Ce2 Zr2 O7'
_chemical_formula_sum            'Ce2 O7 Zr2'
_chemical_formula_weight         574.67
_chemical_name_common            'Cerium zirconate'
_chemical_name_systematic        ' ?'
_space_group_IT_number           227
_symmetry_cell_setting           cubic
_symmetry_space_group_name_Hall  '-F 4vw 2vw 3'
_symmetry_space_group_name_H-M   'F d -3 m :2'
_audit_creation_date             2009-05-30T02:13
_audit_creation_method           'from EXP file using GSAS2CIF'
_audit_update_record
' 2009-05-30T02:13  Initial CIF as created by GSAS2CIF'
_cell_angle_alpha                90.0
_cell_angle_beta                 90.0
_cell_angle_gamma                90.0
_cell_formula_units_Z            8
_cell_length_a                   10.69238(33)
_cell_length_b                   10.69238
_cell_length_c                   10.69238
_cell_volume                     1222.43(4)
_computing_molecular_graphics    ATOMS62
_computing_publication_material  GSAS
_computing_structure_refinement  GSAS
_diffrn_ambient_temperature      298
_diffrn_detector_type            PSD
_diffrn_measurement_device_type  Diffractometer
_diffrn_radiation_probe          neutron
_diffrn_radiation_wavelength     1.249
_diffrn_source                   Reactor
_exptl_absorpt_correction_T_max  1.00000
_exptl_absorpt_correction_T_min  1.00000
_exptl_absorpt_process_details
;   GSAS Absorption/surface roughness correction: function number 0
 No correction is applied.
;
_exptl_crystal_density_diffrn    6.25
_pd_block_id                     2009-05-30T02:13|CE2ZR2O7|SNA|Dhruva
_pd_calc_method                  'Rietveld Refinement'
_pd_char_colour                  'Gray black'
_pd_instr_location
' Dhruva Reseach Reactor, Bhabha Atomic Research Centre'
_pd_meas_2theta_range_inc        0.05
_pd_meas_2theta_range_max        138.6
_pd_meas_2theta_range_min        6.0
_pd_meas_number_of_points        2653
_pd_meas_scan_method             Step
_pd_phase_name                   'from F:/Ce2Zr2o7/Sali-2/70/gs2/CE2ZR2O7.EXP'
_pd_prep_pressure                1
_pd_prep_temperature             298
_pd_proc_2theta_range_inc        0.05
_pd_proc_2theta_range_max        137.9313
_pd_proc_2theta_range_min        5.3313
_pd_proc_info_datetime           2009-05-30T02:13:57
_pd_proc_info_excluded_regions   ' ?'
_pd_proc_ls_background_function
;   GSAS Background function number 1 with 16 terms.
 Shifted Chebyshev function of 1st kind
      1:    564.753     2:    102.612     3:   -2.74455     4:    19.3275    
      5:    3.25533     6:   -14.9943     7:   -8.45498     8:   -8.21002    
      9:   -1.41865    10:    14.1810    11:   -2.29047    12:   -3.22228    
     13:  -0.617707    14:   -4.90368    15:    6.40149    16:   0.317130    
;
_pd_proc_ls_peak_cutoff          0.00800
_pd_proc_ls_profile_function
;
 CW Profile function number 2 with  18 terms
 Profile coefficients for Simpson's rule integration of pseudovoigt function
 C.J. Howard (1982). J. Appl. Cryst.,15,615-620.
 P. Thompson, D.E. Cox & J.B. Hastings (1987). J. Appl. Cryst.,20,79-83.
 Peak tails are ignored  where the intensity is below 0.0080 times the peak
   Aniso. broadening axis   0.0   0.0   1.0
;
_pd_proc_ls_prof_R_factor        0.0533
_pd_proc_ls_prof_wR_expected     0.0359
_pd_proc_ls_prof_wR_factor       0.0714
_pd_proc_number_of_points        2653
_pd_spec_mounting                ' ?'
_refine_ls_goodness_of_fit_all   1.99
_refine_ls_matrix_type           full
_refine_ls_number_parameters     11
_refine_ls_number_restraints     0
_refine_ls_R_Fsqd_factor         0.07167
_refine_ls_shift/su_max          0.02
_refine_ls_shift/su_mean         0.00
_reflns_d_resolution_high        0.675
_reflns_d_resolution_low         6.173
_reflns_limit_h_max              16
_reflns_limit_h_min              1
_reflns_limit_k_max              11
_reflns_limit_k_min              0
_reflns_limit_l_max              9
_reflns_limit_l_min              0
_reflns_number_total             129
_cod_data_source_file            cm902450q_si_001.cif
_cod_data_source_block           CE2ZR2O7_publ
_cod_depositor_comments
;
The following automatic conversions were performed:

'_geom_bond_publ_flag' value 'N' changed to 'n' according to
/home/saulius/struct/CIF-dictionaries/cif_core.dic dictionary named
'cif_core.dic' version 2.4.2 from 2011-04-26 (116
times).

'_geom_angle_publ_flag' value 'N' changed to 'n' according
to /home/saulius/struct/CIF-dictionaries/cif_core.dic dictionary
named 'cif_core.dic' version 2.4.2 from 2011-04-26 (102 times).

Automatic conversion script
Id: cif_fix_values 1715 2011-07-08 13:25:40Z adriana 
;
_cod_original_cell_volume        1222.43(11)
_cod_original_sg_symbol_H-M      'F d -3 m'
_cod_original_formula_sum        'Ce2.00 O7 Zr2.00'
_cod_database_code               4001072
#BEGIN Tags that were not found in dictionaries:
_gsas_exptl_extinct_corr_t_min   1.00000
_gsas_exptl_extinct_corr_t_max   1.00000
#END Tags that were not found in dictionaries
loop_
_symmetry_equiv_pos_site_id
_symmetry_equiv_pos_as_xyz
1 +x,+y,+z
2 +z,+x,+y
3 +y,+z,+x
4 +x+1/4,+y+1/4,-z
5 -z,+x+1/4,+y+1/4
6 +y+1/4,-z,+x+1/4
7 -z+1/4,+x+1/2,-y+3/4
8 -y+3/4,-z+1/4,+x+1/2
9 +y+1/2,-z+1/4,-x+3/4
10 -x+3/4,+y+1/2,-z+1/4
11 -z+1/4,-x+3/4,+y+1/2
12 +x+1/2,-y+3/4,-z+1/4
13 +y,+x,+z
14 +z,+y,+x
15 +x,+z,+y
16 +y+1/4,+x+1/4,-z
17 -z,+y+1/4,+x+1/4
18 +x+1/4,-z,+y+1/4
19 -z+1/4,+y+1/2,-x+3/4
20 -x+3/4,-z+1/4,+y+1/2
21 +x+1/2,-z+1/4,-y+3/4
22 -y+3/4,+x+1/2,-z+1/4
23 -z+1/4,-y+3/4,+x+1/2
24 +y+1/2,-x+3/4,-z+1/4
-1 -x,-y,-z
-2 -z,-x,-y
-3 -y,-z,-x
-4 -x+3/4,-y+3/4,+z
-5 +z,-x+3/4,-y+3/4
-6 -y+3/4,+z,-x+3/4
-7 +z+3/4,-x+1/2,+y+1/4
-8 +y+1/4,+z+3/4,-x+1/2
-9 -y+1/2,+z+3/4,+x+1/4
-10 +x+1/4,-y+1/2,+z+3/4
-11 +z+3/4,+x+1/4,-y+1/2
-12 -x+1/2,+y+1/4,+z+3/4
-13 -y,-x,-z
-14 -z,-y,-x
-15 -x,-z,-y
-16 -y+3/4,-x+3/4,+z
-17 +z,-y+3/4,-x+3/4
-18 -x+3/4,+z,-y+3/4
-19 +z+3/4,-y+1/2,+x+1/4
-20 +x+1/4,+z+3/4,-y+1/2
-21 -x+1/2,+z+3/4,+y+1/4
-22 +y+1/4,-x+1/2,+z+3/4
-23 +z+3/4,+y+1/4,-x+1/2
-24 -y+1/2,+x+1/4,+z+3/4
101 +x,+y+1/2,+z+1/2
102 +z,+x+1/2,+y+1/2
103 +y,+z+1/2,+x+1/2
104 +x+1/4,+y+3/4,-z+1/2
105 -z,+x+3/4,+y+3/4
106 +y+1/4,-z+1/2,+x+3/4
107 -z+1/4,+x,-y+1/4
108 -y+3/4,-z+3/4,+x
109 +y+1/2,-z+3/4,-x+1/4
110 -x+3/4,+y,-z+3/4
111 -z+1/4,-x+1/4,+y
112 +x+1/2,-y+1/4,-z+3/4
113 +y,+x+1/2,+z+1/2
114 +z,+y+1/2,+x+1/2
115 +x,+z+1/2,+y+1/2
116 +y+1/4,+x+3/4,-z+1/2
117 -z,+y+3/4,+x+3/4
118 +x+1/4,-z+1/2,+y+3/4
119 -z+1/4,+y,-x+1/4
120 -x+3/4,-z+3/4,+y
121 +x+1/2,-z+3/4,-y+1/4
122 -y+3/4,+x,-z+3/4
123 -z+1/4,-y+1/4,+x
124 +y+1/2,-x+1/4,-z+3/4
-101 -x,-y+1/2,-z+1/2
-102 -z,-x+1/2,-y+1/2
-103 -y,-z+1/2,-x+1/2
-104 -x+3/4,-y+1/4,+z+1/2
-105 +z,-x+1/4,-y+1/4
-106 -y+3/4,+z+1/2,-x+1/4
-107 +z+3/4,-x,+y+3/4
-108 +y+1/4,+z+1/4,-x
-109 -y+1/2,+z+1/4,+x+3/4
-110 +x+1/4,-y,+z+1/4
-111 +z+3/4,+x+3/4,-y
-112 -x+1/2,+y+3/4,+z+1/4
-113 -y,-x+1/2,-z+1/2
-114 -z,-y+1/2,-x+1/2
-115 -x,-z+1/2,-y+1/2
-116 -y+3/4,-x+1/4,+z+1/2
-117 +z,-y+1/4,-x+1/4
-118 -x+3/4,+z+1/2,-y+1/4
-119 +z+3/4,-y,+x+3/4
-120 +x+1/4,+z+1/4,-y
-121 -x+1/2,+z+1/4,+y+3/4
-122 +y+1/4,-x,+z+1/4
-123 +z+3/4,+y+3/4,-x
-124 -y+1/2,+x+3/4,+z+1/4
201 +x+1/2,+y,+z+1/2
202 +z+1/2,+x,+y+1/2
203 +y+1/2,+z,+x+1/2
204 +x+3/4,+y+1/4,-z+1/2
205 -z+1/2,+x+1/4,+y+3/4
206 +y+3/4,-z,+x+3/4
207 -z+3/4,+x+1/2,-y+1/4
208 -y+1/4,-z+1/4,+x
209 +y,-z+1/4,-x+1/4
210 -x+1/4,+y+1/2,-z+3/4
211 -z+3/4,-x+3/4,+y
212 +x,-y+3/4,-z+3/4
213 +y+1/2,+x,+z+1/2
214 +z+1/2,+y,+x+1/2
215 +x+1/2,+z,+y+1/2
216 +y+3/4,+x+1/4,-z+1/2
217 -z+1/2,+y+1/4,+x+3/4
218 +x+3/4,-z,+y+3/4
219 -z+3/4,+y+1/2,-x+1/4
220 -x+1/4,-z+1/4,+y
221 +x,-z+1/4,-y+1/4
222 -y+1/4,+x+1/2,-z+3/4
223 -z+3/4,-y+3/4,+x
224 +y,-x+3/4,-z+3/4
-201 -x+1/2,-y,-z+1/2
-202 -z+1/2,-x,-y+1/2
-203 -y+1/2,-z,-x+1/2
-204 -x+1/4,-y+3/4,+z+1/2
-205 +z+1/2,-x+3/4,-y+1/4
-206 -y+1/4,+z,-x+1/4
-207 +z+1/4,-x+1/2,+y+3/4
-208 +y+3/4,+z+3/4,-x
-209 -y,+z+3/4,+x+3/4
-210 +x+3/4,-y+1/2,+z+1/4
-211 +z+1/4,+x+1/4,-y
-212 -x,+y+1/4,+z+1/4
-213 -y+1/2,-x,-z+1/2
-214 -z+1/2,-y,-x+1/2
-215 -x+1/2,-z,-y+1/2
-216 -y+1/4,-x+3/4,+z+1/2
-217 +z+1/2,-y+3/4,-x+1/4
-218 -x+1/4,+z,-y+1/4
-219 +z+1/4,-y+1/2,+x+3/4
-220 +x+3/4,+z+3/4,-y
-221 -x,+z+3/4,+y+3/4
-222 +y+3/4,-x+1/2,+z+1/4
-223 +z+1/4,+y+1/4,-x
-224 -y,+x+1/4,+z+1/4
301 +x+1/2,+y+1/2,+z
302 +z+1/2,+x+1/2,+y
303 +y+1/2,+z+1/2,+x
304 +x+3/4,+y+3/4,-z
305 -z+1/2,+x+3/4,+y+1/4
306 +y+3/4,-z+1/2,+x+1/4
307 -z+3/4,+x,-y+3/4
308 -y+1/4,-z+3/4,+x+1/2
309 +y,-z+3/4,-x+3/4
310 -x+1/4,+y,-z+1/4
311 -z+3/4,-x+1/4,+y+1/2
312 +x,-y+1/4,-z+1/4
313 +y+1/2,+x+1/2,+z
314 +z+1/2,+y+1/2,+x
315 +x+1/2,+z+1/2,+y
316 +y+3/4,+x+3/4,-z
317 -z+1/2,+y+3/4,+x+1/4
318 +x+3/4,-z+1/2,+y+1/4
319 -z+3/4,+y,-x+3/4
320 -x+1/4,-z+3/4,+y+1/2
321 +x,-z+3/4,-y+3/4
322 -y+1/4,+x,-z+1/4
323 -z+3/4,-y+1/4,+x+1/2
324 +y,-x+1/4,-z+1/4
-301 -x+1/2,-y+1/2,-z
-302 -z+1/2,-x+1/2,-y
-303 -y+1/2,-z+1/2,-x
-304 -x+1/4,-y+1/4,+z
-305 +z+1/2,-x+1/4,-y+3/4
-306 -y+1/4,+z+1/2,-x+3/4
-307 +z+1/4,-x,+y+1/4
-308 +y+3/4,+z+1/4,-x+1/2
-309 -y,+z+1/4,+x+1/4
-310 +x+3/4,-y,+z+3/4
-311 +z+1/4,+x+3/4,-y+1/2
-312 -x,+y+3/4,+z+3/4
-313 -y+1/2,-x+1/2,-z
-314 -z+1/2,-y+1/2,-x
-315 -x+1/2,-z+1/2,-y
-316 -y+1/4,-x+1/4,+z
-317 +z+1/2,-y+1/4,-x+3/4
-318 -x+1/4,+z+1/2,-y+3/4
-319 +z+1/4,-y,+x+1/4
-320 +x+3/4,+z+1/4,-y+1/2
-321 -x,+z+1/4,+y+1/4
-322 +y+3/4,-x,+z+3/4
-323 +z+1/4,+y+3/4,-x+1/2
-324 -y,+x+3/4,+z+3/4
loop_
_atom_site_aniso_label
_atom_site_aniso_U_11
_atom_site_aniso_U_12
_atom_site_aniso_U_13
_atom_site_aniso_U_22
_atom_site_aniso_U_23
_atom_site_aniso_U_33
Ce 0.0071(8) -0.0037(11) -0.0037(11) 0.0071(8) -0.0037(11) 0.0071(8)
Ce 0.0071(8) -0.0037(11) -0.0037(11) 0.0071(8) -0.0037(11) 0.0071(8)
Zr 0.0133(6) 0.0051(10) 0.0051(10) 0.0133(6) 0.0051(10) 0.0133(6)
Zr 0.0133(6) 0.0051(10) 0.0051(10) 0.0133(6) 0.0051(10) 0.0133(6)
O1 0.0371(14) 0.0 0.0 0.0078(5) 0.0011(9) 0.0078(5)
O2 0.0137(14) 0.0 0.0 0.0137(14) 0.0 0.0137(14)
loop_
_atom_site_type_symbol
_atom_site_label
_atom_site_fract_x
_atom_site_fract_y
_atom_site_fract_z
_atom_site_occupancy
_atom_site_thermal_displace_type
_atom_site_U_iso_or_equiv
_atom_site_symmetry_multiplicity
Ce Ce1 0.5 0.5 0.5 0.99797 Uani 0.00709 16
Zr Ce2 0.5 0.5 0.5 0.00203 Uani 0.00709 16
Zr Zr1 0.0 0.0 0.0 0.99797 Uani 0.01332 16
Ce Zr2 0.0 0.0 0.0 0.00203 Uani 0.01332 16
O O1 0.34322(20) 0.125 0.125 1.0 Uani 0.01759 48
O O2 0.375 0.375 0.375 1.0 Uani 0.01366 8
loop_
_atom_type_symbol
_atom_type_number_in_cell
_atom_type_scat_length_neutron
_atom_type_scat_source
Ce 16.0 0.4840 International_Tables_Vol_C
Zr 16.0 0.7160 International_Tables_Vol_C
O 56.0 0.5805 International_Tables_Vol_C
loop_
_geom_angle_atom_site_label_1
_geom_angle_atom_site_label_2
_geom_angle_atom_site_label_3
_geom_angle
_geom_angle_site_symmetry_1
_geom_angle_site_symmetry_3
_geom_angle_publ_flag
O1 Ce O1 114.972(26) 101_555 108_443 n
O1 Ce O1 114.972(26) 101_555 122_434 n
O1 Ce O1 180.0 101_555 -101_544 n
O1 Ce O1 65.028(26) 101_555 -108_545 n
O1 Ce O1 65.028(26) 101_555 -122_554 n
O1 Ce O2 103.17(4) 101_555 1_555 n
O1 Ce O2 76.83(4) 101_555 4_556 n
O1 Ce O1 114.972(26) 108_443 122_434 n
O1 Ce O1 65.028(26) 108_443 -101_544 n
O1 Ce O1 180.0 108_443 -108_545 n
O1 Ce O1 65.028(26) 108_443 -122_554 n
O1 Ce O2 103.17(4) 108_443 1_555 n
O1 Ce O2 76.83(4) 108_443 4_556 n
O1 Ce O1 65.028(26) 122_434 -101_544 n
O1 Ce O1 65.028(26) 122_434 -108_545 n
O1 Ce O1 180.0 122_434 -122_554 n
O1 Ce O2 103.17(4) 122_434 1_555 n
O1 Ce O2 76.83(4) 122_434 4_556 n
O1 Ce O1 114.972(26) -101_544 -108_545 n
O1 Ce O1 114.972(26) -101_544 -122_554 n
O1 Ce O2 76.83(4) -101_544 1_555 n
O1 Ce O2 103.17(4) -101_544 4_556 n
O1 Ce O1 114.972(26) -108_545 -122_554 n
O1 Ce O2 76.83(4) -108_545 1_555 n
O1 Ce O2 103.17(4) -108_545 4_556 n
O1 Ce O2 76.83(4) -122_554 1_555 n
O1 Ce O2 103.17(4) -122_554 4_556 n
O2 Ce O2 179.972 1_555 4_556 n
O2 Ce O2 179.972 1_555 4_556 n
O1 Zr O1 180.0 105_544 111_433 n
O1 Zr O1 101.09(6) 105_544 117_544 n
O1 Zr O1 78.91(6) 105_544 119_433 n
O1 Zr O1 101.09(6) 105_544 218_454 n
O1 Zr O1 78.91(6) 105_544 220_343 n
O1 Zr O1 78.91(6) 111_433 117_544 n
O1 Zr O1 101.09(6) 111_433 119_433 n
O1 Zr O1 78.91(6) 111_433 218_454 n
O1 Zr O1 101.09(6) 111_433 220_343 n
O1 Zr O1 180.0 117_544 119_433 n
O1 Zr O1 101.09(6) 117_544 218_454 n
O1 Zr O1 78.91(6) 117_544 220_343 n
O1 Zr O1 78.91(6) 119_433 218_454 n
O1 Zr O1 101.09(6) 119_433 220_343 n
O1 Zr O1 180.0 218_454 220_343 n
O1 Zr O1 180.0 105_544 111_433 n
O1 Zr O1 101.09(6) 105_544 117_544 n
O1 Zr O1 78.91(6) 105_544 119_433 n
O1 Zr O1 101.09(6) 105_544 218_454 n
O1 Zr O1 78.91(6) 105_544 220_343 n
O1 Zr O1 78.91(6) 111_433 117_544 n
O1 Zr O1 101.09(6) 111_433 119_433 n
O1 Zr O1 78.91(6) 111_433 218_454 n
O1 Zr O1 101.09(6) 111_433 220_343 n
O1 Zr O1 180.0 117_544 119_433 n
O1 Zr O1 101.09(6) 117_544 218_454 n
O1 Zr O1 78.91(6) 117_544 220_343 n
O1 Zr O1 78.91(6) 119_433 218_454 n
O1 Zr O1 101.09(6) 119_433 220_343 n
O1 Zr O1 180.0 218_454 220_343 n
Ce O1 Ce 96.86(7) -5_456 101_544 n
Ce O1 Zr 108.029(18) -5_465 4_555 n
Ce O1 Zr 108.029(18) -5_465 6_555 n
Ce O1 Zr 108.029(18) -5_455 4_555 n
Ce O1 Zr 108.029(18) -5_455 6_555 n
Ce O1 Zr 108.029(18) 101_544 4_555 n
Ce O1 Zr 108.029(18) 101_544 6_555 n
Ce O1 Zr 108.029(18) 101_544 4_555 n
Ce O1 Zr 108.029(18) 101_544 6_555 n
Zr O1 Zr 124.39(10) 4_555 6_555 n
Zr O1 Zr 0.0 4_555 4_555 n
Zr O1 Zr 124.39(10) 4_555 6_555 n
Zr O1 Zr 124.39(10) 6_555 4_555 n
Zr O1 Zr 0.0 6_555 6_555 n
Zr O1 Zr 124.39(10) 4_555 6_555 n
Ce O2 Ce 109.4712(24) 1_555 -4_555 n
Ce O2 Ce 109.4712(12) 1_555 -5_456 n
Ce O2 Ce 109.4712(12) 1_555 -6_546 n
Ce O2 Ce 0.0 1_555 1_555 n
Ce O2 Ce 109.4712(24) 1_555 -4_654 n
Ce O2 Ce 109.4712(12) 1_555 -5_555 n
Ce O2 Ce 109.4712(12) 1_555 -6_645 n
Ce O2 Ce 109.4712(12) -4_555 -5_456 n
Ce O2 Ce 109.4712(12) -4_555 -6_546 n
Ce O2 Ce 109.4712(24) -4_654 1_555 n
Ce O2 Ce 0.0 -4_654 -4_654 n
Ce O2 Ce 109.4712(12) -4_654 -5_555 n
Ce O2 Ce 109.4712(12) -4_654 -6_645 n
Ce O2 Ce 109.4712(24) -5_456 -6_546 n
Ce O2 Ce 109.4712(12) -5_555 1_555 n
Ce O2 Ce 109.4712(12) -5_555 -4_654 n
Ce O2 Ce 0.0 -5_555 -5_555 n
Ce O2 Ce 109.4712(24) -5_555 -6_645 n
Ce O2 Ce 109.4712(12) -6_645 1_555 n
Ce O2 Ce 109.4712(12) -6_645 -4_654 n
Ce O2 Ce 109.4712(24) -6_645 -5_555 n
Ce O2 Ce 0.0 -6_645 -6_645 n
Ce O2 Ce 109.4712(24) 1_555 -4_654 n
Ce O2 Ce 109.4712(12) 1_555 -5_555 n
Ce O2 Ce 109.4712(12) 1_555 -6_645 n
Ce O2 Ce 109.4712(12) -4_654 -5_555 n
Ce O2 Ce 109.4712(12) -4_654 -6_645 n
Ce O2 Ce 109.4712(24) -5_555 -6_645 n
loop_
_geom_bond_atom_site_label_1
_geom_bond_atom_site_label_2
_geom_bond_distance
_geom_bond_site_symmetry_2
_geom_bond_publ_flag
Ce Ce 3.78033(12) 4_556 n
Ce Ce 3.78033(8) 5_655 n
Ce Ce 3.78033(8) 6_565 n
Ce Ce 3.78033(12) -4_555 n
Ce Ce 3.78033(8) -5_555 n
Ce Ce 3.78033(8) -6_555 n
Ce Ce 3.78033(12) 4_556 n
Ce Ce 3.78033(8) 5_655 n
Ce Ce 3.78033(8) 6_565 n
Ce Ce 3.78033(12) -4_555 n
Ce Ce 3.78033(8) -5_555 n
Ce Ce 3.78033(8) -6_555 n
Ce Zr 3.78033(8) 7_555 n
Ce Zr 3.78033(12) 8_555 n
Ce Zr 3.78033(8) 9_555 n
Ce Zr 3.78033(8) 10_555 n
Ce Zr 3.78033(12) 11_555 n
Ce Zr 3.78033(8) 12_555 n
Ce Zr 3.78033(8) 7_555 n
Ce Zr 3.78033(12) 8_555 n
Ce Zr 3.78033(8) 9_555 n
Ce Zr 3.78033(8) 10_555 n
Ce Zr 3.78033(12) 11_555 n
Ce Zr 3.78033(8) 12_555 n
Ce O1 2.5264(14) 101_555 n
Ce O1 2.5264(14) 108_555 n
Ce O1 2.5264(14) 122_555 n
Ce O1 2.5264(14) -101_644 n
Ce O1 2.5264(14) -108_545 n
Ce O1 2.5264(14) -122_554 n
Ce O2 2.31497(5) 1_555 n
Ce O2 2.31497(5) 4_556 n
Ce Ce 3.78033(12) 4_556 n
Ce Ce 3.78033(8) 5_655 n
Ce Ce 3.78033(8) 6_565 n
Ce Ce 3.78033(12) -4_555 n
Ce Ce 3.78033(8) -5_555 n
Ce Ce 3.78033(8) -6_555 n
Ce Zr 3.78033(8) 7_555 n
Ce Zr 3.78033(12) 8_555 n
Ce Zr 3.78033(8) 9_555 n
Ce Zr 3.78033(8) 10_555 n
Ce Zr 3.78033(12) 11_555 n
Ce Zr 3.78033(8) 12_555 n
Ce O1 2.5264(14) 101_555 n
Ce O1 2.5264(14) 108_555 n
Ce O1 2.5264(14) 122_555 n
Ce O1 2.5264(14) -101_644 n
Ce O1 2.5264(14) -108_545 n
Ce O1 2.5264(14) -122_554 n
Ce O2 2.31497(5) 1_555 n
Ce O2 2.31497(5) 4_556 n
Zr Ce 3.78033(8) 7_545 n
Zr Ce 3.78033(12) 8_554 n
Zr Ce 3.78033(8) 9_455 n
Zr Ce 3.78033(8) 10_545 n
Zr Ce 3.78033(12) 11_554 n
Zr Ce 3.78033(8) 12_455 n
Zr Zr 3.78033(12) 4_555 n
Zr Zr 3.78033(8) 5_555 n
Zr Zr 3.78033(8) 6_555 n
Zr Zr 3.78033(12) -4_445 n
Zr Zr 3.78033(8) -5_544 n
Zr Zr 3.78033(8) -6_454 n
Zr O1 2.1369(10) 105_544 n
Zr O1 2.1369(10) 111_555 n
Zr O1 2.1369(10) 117_544 n
Zr O1 2.1369(10) 119_555 n
Zr O1 2.1369(10) 218_454 n
Zr O1 2.1369(10) 220_555 n
Zr Ce 3.78033(8) 7_545 n
Zr Ce 3.78033(12) 8_554 n
Zr Ce 3.78033(8) 9_455 n
Zr Ce 3.78033(8) 10_545 n
Zr Ce 3.78033(12) 11_554 n
Zr Ce 3.78033(8) 12_455 n
Zr Ce 3.78033(8) 7_545 n
Zr Ce 3.78033(12) 8_554 n
Zr Ce 3.78033(8) 9_455 n
Zr Ce 3.78033(8) 10_545 n
Zr Ce 3.78033(12) 11_554 n
Zr Ce 3.78033(8) 12_455 n
Zr Zr 3.78033(12) 4_555 n
Zr Zr 3.78033(8) 5_555 n
Zr Zr 3.78033(8) 6_555 n
Zr Zr 3.78033(12) -4_445 n
Zr Zr 3.78033(8) -5_544 n
Zr Zr 3.78033(8) -6_454 n
Zr Zr 3.78033(12) 4_555 n
Zr Zr 3.78033(8) 5_555 n
Zr Zr 3.78033(8) 6_555 n
Zr Zr 3.78033(12) -4_445 n
Zr Zr 3.78033(8) -5_544 n
Zr Zr 3.78033(8) -6_454 n
Zr O1 2.1369(10) 105_544 n
Zr O1 2.1369(10) 111_555 n
Zr O1 2.1369(10) 117_544 n
Zr O1 2.1369(10) 119_555 n
Zr O1 2.1369(10) 218_454 n
Zr O1 2.1369(10) 220_555 n
O1 Ce 2.5264(14) -5_555 n
O1 Ce 2.5264(14) 101_544 n
O1 Ce 2.5264(14) -5_555 n
O1 Ce 2.5264(14) 101_544 n
O1 Zr 2.1369(10) 4_555 n
O1 Zr 2.1369(10) 6_555 n
O1 Zr 2.1369(10) 4_555 n
O1 Zr 2.1369(10) 6_555 n
O2 Ce 2.31497(5) 1_555 n
O2 Ce 2.31497(5) -4_555 n
O2 Ce 2.31497(5) -5_555 n
O2 Ce 2.31497(5) -6_555 n
O2 Ce 2.31497(5) 1_555 n
O2 Ce 2.31497(5) -4_555 n
O2 Ce 2.31497(5) -5_555 n
O2 Ce 2.31497(5) -6_555 n
loop_
_pd_meas_counts_total
_pd_proc_ls_weight
_pd_proc_intensity_bkg_calc
_pd_calc_intensity_total
453.0 0.002208 453.77615 453.77615
479.0 0.002088 452.98801 452.98801
464.0 0.002155 452.25482 452.25482
434.0 0.002304 451.57492 451.57492
452.0 0.002212 450.94650 450.94650
467.0 0.002141 450.36798 450.36798
455.0 0.002198 449.83792 449.83792
453.0 0.002208 449.35458 449.35458
468.0 0.002137 448.91647 448.91647
468.0 0.002137 448.52216 448.52216
464.0 0.002155 448.17007 448.17007
449.0 0.002227 447.85876 447.85876
445.0 0.002247 447.58682 447.58682
466.0 0.002146 447.35294 447.35294
470.0 0.002128 447.15573 447.15573
445.0 0.002247 446.99384 446.99384
432.0 0.002315 446.86615 446.86615
444.0 0.002252 446.77103 446.77103
454.0 0.002203 446.70761 446.70761
462.0 0.002165 446.67441 446.67441
452.0 0.002212 446.67047 446.67047
441.0 0.002268 446.69443 446.69443
446.0 0.002242 446.74530 446.74530
430.0 0.002326 446.82190 446.82190
422.0 0.002370 446.92313 446.92313
445.0 0.002247 447.04794 447.04794
460.0 0.002174 447.19543 447.19543
423.0 0.002364 447.36450 447.36450
422.0 0.002370 447.55399 447.55399
427.0 0.002342 447.76331 447.76331
426.0 0.002347 447.99121 447.99121
442.0 0.002262 448.23679 448.23679
425.0 0.002353 448.49939 448.49939
434.0 0.002304 448.77792 448.77792
457.0 0.002188 449.07153 449.07153
446.0 0.002242 449.37949 449.37949
436.0 0.002294 449.70102 449.70102
470.0 0.002128 450.03528 450.03528
469.0 0.002132 450.38135 450.38135
416.0 0.002404 450.73877 450.73877
423.0 0.002364 451.10666 451.10666
452.0 0.002212 451.48419 451.48419
461.0 0.002169 451.87088 451.87088
450.0 0.002222 452.26587 452.26587
439.0 0.002278 452.66873 452.66873
445.0 0.002247 453.07858 453.07858
463.0 0.002160 453.49493 453.49493
472.0 0.002119 453.91718 453.91718
462.0 0.002165 454.34470 454.34470
459.0 0.002179 454.77692 454.77692
446.0 0.002242 455.21332 455.21332
434.0 0.002304 455.65341 455.65341
445.0 0.002247 456.09659 456.09659
469.0 0.002132 456.54230 456.54230
468.0 0.002137 456.99023 456.99023
465.0 0.002151 457.43970 457.43970
480.0 0.002083 457.89044 457.89044
472.0 0.002119 458.34183 458.34183
442.0 0.002262 458.79358 458.79358
429.0 0.002331 459.24515 459.24515
441.0 0.002268 459.69629 459.69629
445.0 0.002247 460.14636 460.14636
455.0 0.002198 460.59528 460.59528
462.0 0.002165 461.04248 461.04248
456.0 0.002193 461.48767 461.48767
443.0 0.002257 461.93057 461.93057
451.0 0.002217 462.37070 462.37070
463.0 0.002160 462.80783 462.80783
462.0 0.002165 463.24173 463.24173
465.0 0.002151 463.67191 463.67191
496.0 0.002016 464.09839 464.09839
485.0 0.002062 464.52060 464.52060
459.0 0.002179 464.93842 464.93842
472.0 0.002119 465.35153 465.35153
448.0 0.002232 465.75983 465.75983
438.0 0.002283 466.16302 466.16302
440.0 0.002273 466.56079 466.56079
443.0 0.002257 466.95306 466.95306
489.0 0.002045 467.33957 467.33957
469.0 0.002132 467.72006 467.72006
438.0 0.002283 468.09445 468.09445
463.0 0.002160 468.46259 468.46259
438.0 0.002283 468.82422 468.82422
426.0 0.002347 469.17929 469.17929
451.0 0.002217 469.52759 469.52759
479.0 0.002088 469.86890 469.86890
474.0 0.002110 470.20334 470.20334
444.0 0.002252 470.53055 470.53055
443.0 0.002257 470.85049 470.85049
470.0 0.002128 471.16309 471.16309
445.0 0.002247 471.46811 471.46811
449.0 0.002227 471.76559 471.76559
466.0 0.002146 472.05545 472.05545
470.0 0.002128 472.33762 473.46887
500.0 0.002000 472.61188 474.00815
500.0 0.002000 472.87839 474.71060
466.0 0.002146 473.13693 475.70172
446.0 0.002242 473.38748 477.17871
471.0 0.002123 473.62994 479.43140
465.0 0.002151 473.86450 482.85785
468.0 0.002137 474.09079 487.96411
501.0 0.001996 474.30902 495.33932
493.0 0.002028 474.51910 505.59164
522.0 0.001916 474.72101 519.23840
573.0 0.001745 474.91473 536.54822
594.0 0.001684 475.10022 557.35028
599.0 0.001669 475.27756 580.85620
649.0 0.001541 475.44675 605.56921
729.0 0.001372 475.60764 629.35492
784.0 0.001276 475.76044 649.67084
798.0 0.001253 475.90503 663.90338
833.0 0.001200 476.04153 669.84045
846.0 0.001182 476.16995 666.28455
812.0 0.001232 476.29028 653.54950
812.0 0.001232 476.40240 633.45184
790.0 0.001266 476.50662 608.77643
728.0 0.001374 476.60284 582.55841
663.0 0.001508 476.69113 557.47473
620.0 0.001613 476.77151 535.45636
562.0 0.001779 476.84409 517.54218
511.0 0.001957 476.90891 503.94772
496.0 0.002016 476.96588 494.28162
482.0 0.002075 477.01529 487.81650
481.0 0.002079 477.05710 483.73087
469.0 0.002132 477.09137 481.27658
439.0 0.002278 477.11807 479.86133
457.0 0.002188 477.13751 479.06479
479.0 0.002088 477.14951 478.61423
466.0 0.002146 477.15436 478.34695
438.0 0.002283 477.15198 478.17212
453.0 0.002208 477.14252 477.14252
463.0 0.002160 477.12607 477.12607
472.0 0.002119 477.10272 477.10272
500.0 0.002000 477.07248 477.07248
465.0 0.002151 477.03561 477.03561
448.0 0.002232 476.99203 476.99203
484.0 0.002066 476.94189 476.94189
508.0 0.001969 476.88528 476.88528
489.0 0.002045 476.82236 476.82236
449.0 0.002227 476.75314 476.75314
443.0 0.002257 476.67780 476.67780
484.0 0.002066 476.59631 476.59631
481.0 0.002079 476.50897 476.50897
464.0 0.002155 476.41574 476.41574
459.0 0.002179 476.31677 476.31677
442.0 0.002262 476.21207 476.21207
452.0 0.002212 476.10199 476.10199
480.0 0.002083 475.98636 475.98636
485.0 0.002062 475.86551 475.86551
454.0 0.002203 475.73944 475.73944
468.0 0.002137 475.60822 475.60822
468.0 0.002137 475.47208 475.47208
417.0 0.002398 475.33109 475.33109
425.0 0.002353 475.18524 475.18524
468.0 0.002137 475.03485 475.03485
484.0 0.002066 474.87991 474.87991
455.0 0.002198 474.72055 474.72055
438.0 0.002283 474.55692 474.55692
468.0 0.002137 474.38919 474.38919
497.0 0.002012 474.21732 474.21732
474.0 0.002110 474.04153 474.04153
453.0 0.002208 473.86194 473.86194
458.0 0.002183 473.67862 473.67862
469.0 0.002132 473.49164 473.49164
457.0 0.002188 473.30127 473.30127
450.0 0.002222 473.10757 473.10757
467.0 0.002141 472.91058 472.91058
489.0 0.002045 472.71054 472.71054
476.0 0.002101 472.50751 472.50751
457.0 0.002188 472.30151 472.30151
443.0 0.002257 472.09277 472.09277
442.0 0.002262 471.88138 471.88138
462.0 0.002165 471.66760 471.66760
453.0 0.002208 471.45120 471.45120
443.0 0.002257 471.23267 471.23267
457.0 0.002188 471.01190 471.01190
435.0 0.002299 470.78909 470.78909
452.0 0.002212 470.56427 470.56427
475.0 0.002105 470.33768 470.33768
435.0 0.002299 470.10941 470.10941
427.0 0.002342 469.87943 469.87943
452.0 0.002212 469.64795 469.64795
464.0 0.002155 469.41519 469.41519
450.0 0.002222 469.18112 469.18112
456.0 0.002193 468.94589 468.94589
460.0 0.002174 468.70972 468.70972
449.0 0.002227 468.47244 468.47244
456.0 0.002193 468.23444 468.23444
471.0 0.002123 467.99576 467.99576
475.0 0.002105 467.75644 467.75644
466.0 0.002146 467.51657 467.51657
459.0 0.002179 467.27634 467.27634
461.0 0.002169 467.03589 467.03589
469.0 0.002132 466.79514 466.79514
466.0 0.002146 466.55444 466.55444
431.0 0.002320 466.31372 466.31372
431.0 0.002320 466.07312 466.07312
467.0 0.002141 465.83279 465.83279
482.0 0.002075 465.59271 465.59271
490.0 0.002041 465.35315 465.35315
473.0 0.002114 465.11407 465.11407
449.0 0.002227 464.87567 464.87567
466.0 0.002146 464.63788 464.63788
477.0 0.002096 464.40106 464.40106
453.0 0.002208 464.16510 464.16510
425.0 0.002353 463.93015 463.93015
451.0 0.002217 463.69629 463.69629
460.0 0.002174 463.46359 463.46359
456.0 0.002193 463.23227 463.23227
477.0 0.002096 463.00226 463.00226
484.0 0.002066 462.77374 462.77374
481.0 0.002079 462.54663 462.54663
481.0 0.002079 462.32129 462.32129
483.0 0.002070 462.09763 462.09763
477.0 0.002096 461.87579 461.87579
466.0 0.002146 461.65579 461.65579
463.0 0.002160 461.43784 461.43784
477.0 0.002096 461.22198 461.22198
466.0 0.002146 461.00812 461.00812
463.0 0.002160 460.79651 460.79651
479.0 0.002088 460.58719 460.58719
441.0 0.002268 460.38025 460.38025
433.0 0.002309 460.17572 460.17572
464.0 0.002155 459.97363 459.97363
471.0 0.002123 459.77423 459.77423
470.0 0.002128 459.57736 459.57736
463.0 0.002160 459.38333 459.38333
461.0 0.002169 459.19196 459.19196
476.0 0.002101 459.00354 459.00354
477.0 0.002096 458.81796 458.81796
471.0 0.002123 458.63544 458.63544
468.0 0.002137 458.45590 458.45590
455.0 0.002198 458.27951 458.27951
464.0 0.002155 458.10626 458.10626
483.0 0.002070 457.93622 457.93622
479.0 0.002088 457.76953 457.76953
463.0 0.002160 457.60614 457.60614
468.0 0.002137 457.44617 457.44617
488.0 0.002049 457.28961 457.28961
487.0 0.002053 457.13657 457.13657
474.0 0.002110 456.98715 456.98715
471.0 0.002123 456.84131 457.90182
485.0 0.002062 456.69901 457.89728
495.0 0.002020 456.56058 457.94815
471.0 0.002123 456.42581 458.09433
458.0 0.002183 456.29492 458.40829
487.0 0.002053 456.16785 459.01364
495.0 0.002020 456.04462 460.10895
489.0 0.002045 455.92542 461.99115
481.0 0.002079 455.81006 465.06815
472.0 0.002119 455.69888 469.84830
471.0 0.002123 455.59161 476.88702
480.0 0.002083 455.48846 486.68326
497.0 0.002012 455.38950 499.52405
510.0 0.001961 455.29462 515.30316
515.0 0.001942 455.20395 533.35968
515.0 0.001942 455.11758 552.39624
515.0 0.001942 455.03540 570.53900
512.0 0.001953 454.95758 585.57623
498.0 0.002008 454.88400 595.34674
486.0 0.002058 454.81485 598.22180
493.0 0.002028 454.75003 593.60394
502.0 0.001992 454.68954 582.21033
503.0 0.001988 454.63351 565.85596
493.0 0.002028 454.58200 546.86371
476.0 0.002101 454.53488 527.48737
477.0 0.002096 454.49231 509.53369
486.0 0.002058 454.45422 494.17819
491.0 0.002037 454.42068 481.94479
508.0 0.001969 454.39166 472.81146
493.0 0.002028 454.36731 466.38980
465.0 0.002151 454.34744 462.11584
469.0 0.002132 454.33218 459.40607
457.0 0.002188 454.32159 457.75436
468.0 0.002137 454.31555 456.77307
507.0 0.001972 454.31415 456.19348
509.0 0.001965 454.31741 455.84439
477.0 0.002096 454.32529 455.62436
464.0 0.002155 454.33789 454.33789
482.0 0.002075 454.35519 454.35519
464.0 0.002155 454.37711 454.37711
468.0 0.002137 454.40372 454.40372
487.0 0.002053 454.43503 454.43503
473.0 0.002114 454.47101 454.47101
461.0 0.002169 454.51172 454.51172
457.0 0.002188 454.55704 454.55704
463.0 0.002160 454.60715 454.60715
482.0 0.002075 454.66187 454.66187
489.0 0.002045 454.72134 454.72134
472.0 0.002119 454.78546 454.78546
452.0 0.002212 454.85434 454.85434
469.0 0.002132 454.92776 454.92776
478.0 0.002092 455.00598 455.00598
463.0 0.002160 455.08890 455.08890
452.0 0.002212 455.17639 455.17639
471.0 0.002123 455.26859 455.26859
467.0 0.002141 455.36542 455.36542
453.0 0.002208 455.46692 455.46692
490.0 0.002041 455.57297 455.57297
467.0 0.002141 455.68372 455.68372
439.0 0.002278 455.79907 455.79907
472.0 0.002119 455.91891 455.91891
488.0 0.002049 456.04349 456.04349
480.0 0.002083 456.17252 461.14438
481.0 0.002079 456.30618 461.71069
501.0 0.001996 456.44431 462.34216
493.0 0.002028 456.58698 463.05469
469.0 0.002132 456.73416 463.87451
474.0 0.002110 456.88586 464.84869
518.0 0.001931 457.04199 466.06561
505.0 0.001980 457.20251 467.69208
491.0 0.002037 457.36755 470.03571
526.0 0.001901 457.53690 473.63931
522.0 0.001916 457.71069 479.40988
509.0 0.001965 457.88879 488.76559
517.0 0.001934 458.07129 503.76315
548.0 0.001825 458.25806 527.13190
596.0 0.001678 458.44916 562.12177
628.0 0.001592 458.64453 612.07050
664.0 0.001506 458.84402 679.65033
751.0 0.001332 459.04788 765.85687
832.0 0.001202 459.25586 868.93427
919.0 0.001088 459.46802 983.54767
1015.0 0.000985 459.68423 1100.54321
1054.0 0.000949 459.90460 1225.29968
1090.0 0.000917 460.12912 1310.20093
1141.0 0.000876 460.35760 1358.97656
1163.0 0.000860 460.59003 1363.54529
1107.0 0.000903 460.82648 1323.27966
1032.0 0.000969 461.06699 1245.68811
975.0 0.001026 461.31131 1143.94263
912.0 0.001096 461.55966 1033.18347
825.0 0.001212 461.81186 927.75757
762.0 0.001312 462.06763 839.87823
761.0 0.001314 462.32742 779.41547
787.0 0.001271 462.59091 754.49030
819.0 0.001221 462.85818 772.44818
888.0 0.001126 463.12903 840.59821
1034.0 0.000967 463.40356 966.09491
1236.0 0.000809 463.68170 1154.56372
1483.0 0.000674 463.96350 1407.52209
1794.0 0.000557 464.24875 1719.16821
2161.0 0.000463 464.53757 2073.54102
2456.0 0.000407 464.82990 2443.19727
2765.0 0.000362 465.12552 2790.42627
3078.0 0.0003249 465.42462 3071.66650
3174.0 0.0003151 465.72705 3245.21240
3238.0 0.0003088 466.03290 3281.40332
3188.0 0.0003137 466.34192 3172.63989
2877.0 0.0003476 466.65427 2937.22632
2535.0 0.000394 466.96976 2607.84326
2167.0 0.000461 467.28836 2239.68652
1765.0 0.000567 467.61017 1869.06079
1395.0 0.000717 467.93494 1528.42358
1067.0 0.000937 468.26288 1238.31726
853.0 0.001172 468.59378 1007.42676
746.0 0.001340 468.92767 834.71118
631.0 0.001585 469.26437 712.69098
576.0 0.001736 469.60406 630.85931
566.0 0.001767 469.94653 578.42291
548.0 0.001825 470.29181 546.01630
545.0 0.001835 470.63983 526.42725
526.0 0.001901 470.99060 514.60754
505.0 0.001980 471.34384 507.29913
507.0 0.001972 471.69995 502.54282
478.0 0.002092 472.05859 499.22806
501.0 0.001996 472.41968 496.75446
553.0 0.001808 472.78329 494.80630
497.0 0.002012 473.14938 493.21680
490.0 0.002041 473.51785 491.89404
495.0 0.002020 473.88864 473.88864
458.0 0.002183 474.26178 474.26178
503.0 0.001988 474.63724 474.63724
534.0 0.001873 475.01486 475.01486
508.0 0.001969 475.39465 475.39465
488.0 0.002049 475.77667 475.77667
513.0 0.001949 476.16080 476.16080
498.0 0.002008 476.54688 476.54688
468.0 0.002137 476.93506 476.93506
523.0 0.001912 477.32520 477.32520
518.0 0.001931 477.71725 477.71725
495.0 0.002020 478.11118 478.11118
520.0 0.001923 478.50684 478.50684
524.0 0.001908 478.90436 478.90436
500.0 0.002000 479.30359 479.30359
484.0 0.002066 479.70468 479.70468
500.0 0.002000 480.10727 480.10727
508.0 0.001969 480.51144 480.51144
508.0 0.001969 480.91733 480.91733
504.0 0.001984 481.32462 481.32462
496.0 0.002016 481.73340 481.73340
501.0 0.001996 482.14365 482.14365
496.0 0.002016 482.55533 482.55533
488.0 0.002049 482.96811 482.96811
507.0 0.001972 483.38251 483.38251
491.0 0.002037 483.79810 483.79810
473.0 0.002114 484.21475 484.21475
491.0 0.002037 484.63260 487.62720
497.0 0.002012 485.05157 488.30649
483.0 0.002070 485.47174 489.02374
476.0 0.002101 485.89282 489.78851
492.0 0.002033 486.31497 490.61743
489.0 0.002045 486.73801 491.53940
493.0 0.002028 487.16199 492.60806
497.0 0.002012 487.58685 493.92157
483.0 0.002070 488.01257 495.65540
513.0 0.001949 488.43893 498.10950
543.0 0.001842 488.86618 501.76938
531.0 0.001883 489.29404 507.36932
516.0 0.001938 489.72250 515.93939
559.0 0.001789 490.15155 528.79950
613.0 0.001631 490.58127 547.46075
631.0 0.001585 491.01151 573.39789
657.0 0.001522 491.44220 607.68939
697.0 0.001435 491.87329 650.56323
762.0 0.001312 492.30478 700.94592
831.0 0.001203 492.73663 756.14191
841.0 0.001189 493.16882 811.77081
921.0 0.001086 493.60132 862.06384
1022.0 0.000978 494.03397 900.60559
1014.0 0.000986 494.46686 921.58344
1062.0 0.000942 494.89987 921.41174
1061.0 0.000943 495.33304 900.09760
953.0 0.001049 495.76624 861.33008
860.0 0.001163 496.19943 811.10590
839.0 0.001192 496.63275 755.94305
780.0 0.001282 497.06589 701.59338
661.0 0.001513 497.49902 652.35724
621.0 0.001610 497.93201 610.83112
599.0 0.001669 498.36484 577.99030
568.0 0.001761 498.79742 553.52039
541.0 0.001848 499.22983 536.27783
525.0 0.001905 499.66193 524.74744
537.0 0.001862 500.09369 517.40308
553.0 0.001808 500.52512 512.92834
539.0 0.001855 500.95621 510.30856
512.0 0.001953 501.38681 508.82892
501.0 0.001996 501.81693 508.02335
506.0 0.001976 502.24661 507.60748
502.0 0.001992 502.67569 507.41708
475.0 0.002105 503.10422 507.36148
505.0 0.001980 503.53220 507.39182
565.0 0.001770 503.95947 511.44763
543.0 0.001842 504.38620 508.63934
507.0 0.001972 504.81210 509.38403
506.0 0.001976 505.23730 510.16476
529.0 0.001890 505.66168 510.98740
538.0 0.001859 506.08521 511.85947
548.0 0.001825 506.50797 512.79102
538.0 0.001859 506.92990 513.79645
520.0 0.001923 507.35089 514.89819
554.0 0.001805 507.77090 516.13495
545.0 0.001835 508.18997 517.57562
522.0 0.001916 508.60800 519.34534
541.0 0.001848 509.02509 521.66815
549.0 0.001821 509.44092 524.93011
558.0 0.001792 509.85577 529.76703
565.0 0.001770 510.26953 537.16345
569.0 0.001757 510.68213 548.54370
618.0 0.001618 511.09341 565.80908
671.0 0.001490 511.50366 591.26324
699.0 0.001431 511.91257 627.36462
724.0 0.001381 512.32019 676.27209
786.0 0.001272 512.72650 739.20538
853.0 0.001172 513.13153 815.72101
915.0 0.001093 513.53510 903.07404
984.0 0.001016 513.93744 995.86047
1023.0 0.000978 514.33826 1086.10120
1074.0 0.000931 514.73767 1163.90527
1114.0 0.000898 515.13562 1218.87830
1077.0 0.000929 515.53210 1242.39905
1054.0 0.000949 515.92700 1230.34265
1053.0 0.000950 516.32037 1184.79773
1020.0 0.000980 516.71222 1113.30249
927.0 0.001079 517.10248 1026.14575
845.0 0.001183 517.49109 933.66949
776.0 0.001289 517.87811 844.56995
698.0 0.001433 518.26343 765.07080
623.0 0.001605 518.64697 698.69696
591.0 0.001692 519.02887 646.51392
584.0 0.001712 519.40906 607.70074
566.0 0.001767 519.78754 580.27484
533.0 0.001876 520.16431 561.77954
520.0 0.001923 520.53918 549.80646
535.0 0.001869 520.91217 542.30621
558.0 0.001792 521.28333 537.70856
558.0 0.001792 521.65277 534.90845
544.0 0.001838 522.02026 533.18262
544.0 0.001838 522.38568 532.08691
553.0 0.001808 522.74945 531.36273
533.0 0.001876 523.11121 530.86487
519.0 0.001927 523.47089 530.51349
523.0 0.001912 523.82886 530.26501
526.0 0.001901 524.18463 530.09351
513.0 0.001949 524.53845 529.98346
529.0 0.001890 524.89008 529.92383
540.0 0.001852 525.23993 529.90698
525.0 0.001905 525.58759 529.92621
540.0 0.001852 525.93317 525.93317
538.0 0.001859 526.27673 526.27673
529.0 0.001890 526.61804 526.61804
542.0 0.001845 526.95740 526.95740
542.0 0.001845 527.29468 527.29468
527.0 0.001898 527.62964 527.62964
534.0 0.001873 527.96252 527.96252
560.0 0.001786 528.29315 528.29315
546.0 0.001832 528.62152 528.62152
537.0 0.001862 528.94788 528.94788
548.0 0.001825 529.27191 529.27191
552.0 0.001812 529.59387 529.59387
534.0 0.001873 529.91333 529.91333
541.0 0.001848 530.23071 530.23071
552.0 0.001812 530.54590 530.54590
542.0 0.001845 530.85870 530.85870
549.0 0.001821 531.16919 531.16919
550.0 0.001818 531.47748 531.47748
536.0 0.001866 531.78351 531.78351
529.0 0.001890 532.08698 534.69489
549.0 0.001821 532.38849 535.18250
556.0 0.001799 532.68744 535.68799
520.0 0.001923 532.98413 536.21466
478.0 0.002092 533.27850 536.76624
494.0 0.002024 533.57019 537.34723
535.0 0.001869 533.85992 537.96478
538.0 0.001859 534.14716 538.62769
512.0 0.001953 534.43213 539.35077
522.0 0.001916 534.71442 540.15833
516.0 0.001938 534.99463 541.09418
547.0 0.001828 535.27246 542.23438
578.0 0.001730 535.54767 543.71167
526.0 0.001901 535.82068 545.74976
550.0 0.001818 536.09100 548.70618
565.0 0.001770 536.35907 553.12396
557.0 0.001795 536.62482 559.77271
598.0 0.001672 536.88812 569.66376
589.0 0.001698 537.14886 584.00848
596.0 0.001678 537.40723 604.09369
625.0 0.001600 537.66327 631.05664
631.0 0.001585 537.91693 665.57257
669.0 0.001495 538.16803 707.49988
695.0 0.001439 538.41675 755.56030
695.0 0.001439 538.66296 807.13892
717.0 0.001395 538.90686 858.27802
734.0 0.001362 539.14801 903.91888
753.0 0.001328 539.38702 938.48749
776.0 0.001289 539.62354 956.94788
792.0 0.001263 539.85767 956.25220
788.0 0.001269 540.08911 936.51825
765.0 0.001307 540.31830 901.01996
751.0 0.001332 540.54510 854.95007
713.0 0.001403 540.76929 803.91809
650.0 0.001538 540.99121 752.91473
603.0 0.001658 541.21063 705.77814
587.0 0.001704 541.42761 664.98950
563.0 0.001776 541.64221 631.70294
558.0 0.001792 541.85443 605.95892
592.0 0.001689 542.06396 587.01239
541.0 0.001848 542.27118 573.68945
517.0 0.001934 542.47614 564.69409
533.0 0.001876 542.67865 564.52002
508.0 0.001969 542.87860 561.19366
550.0 0.001818 543.07623 559.30048
574.0 0.001742 543.27142 558.32629
539.0 0.001855 543.46429 557.93958
519.0 0.001927 543.65454 557.94055
538.0 0.001859 543.84259 558.22156
543.0 0.001842 544.02832 558.73535
534.0 0.001873 544.21149 559.48047
549.0 0.001821 544.39240 560.50092
534.0 0.001873 544.57086 561.89825
527.0 0.001898 544.74695 563.86401
547.0 0.001828 544.92084 566.72974
554.0 0.001805 545.09229 571.03790
560.0 0.001786 545.26147 574.85602
589.0 0.001698 545.42816 585.13562
628.0 0.001592 545.59259 600.56390
644.0 0.001553 545.75482 623.22406
673.0 0.001486 545.91455 655.47614
722.0 0.001385 546.07202 699.65149
780.0 0.001282 546.22723 757.57397
851.0 0.001175 546.38013 829.95490
928.0 0.001078 546.53076 915.76563
1019.0 0.000981 546.67908 1011.73163
1105.0 0.000905 546.82513 1112.08643
1153.0 0.000867 546.96906 1208.68933
1237.0 0.000808 547.11053 1291.60950
1336.0 0.000749 547.25006 1350.40234
1380.0 0.000725 547.38708 1376.31250
1369.0 0.000730 547.52197 1365.02344
1329.0 0.000752 547.65472 1318.40454
1271.0 0.000787 547.78522 1243.78870
1187.0 0.000842 547.91370 1151.35266
1067.0 0.000937 548.03967 1051.48730
944.0 0.001059 548.16370 953.15277
834.0 0.001199 548.28558 863.07910
740.0 0.001351 548.40521 785.49750
688.0 0.001453 548.52295 722.25708
665.0 0.001504 548.63831 673.24200
642.0 0.001558 548.75171 636.97266
611.0 0.001637 548.86292 611.23553
596.0 0.001678 548.97205 593.62384
598.0 0.001672 549.07922 581.91394
591.0 0.001692 549.18420 574.26721
558.0 0.001792 549.28723 569.29144
547.0 0.001828 549.38824 566.00580
559.0 0.001789 549.48712 563.76147
567.0 0.001764 549.58411 562.15222
561.0 0.001783 549.67914 560.93433
549.0 0.001821 549.77197 559.96606
551.0 0.001815 549.86310 559.16687
561.0 0.001783 549.95215 558.48950
550.0 0.001818 550.03931 557.90601
544.0 0.001838 550.12433 557.39777
552.0 0.001812 550.20758 556.95245
552.0 0.001812 550.28906 556.56061
543.0 0.001842 550.36853 550.36853
554.0 0.001805 550.44623 550.44623
564.0 0.001773 550.52209 550.52209
537.0 0.001862 550.59595 550.59595
552.0 0.001812 550.66791 550.66791
560.0 0.001786 550.73822 550.73822
538.0 0.001859 550.80670 550.80670
551.0 0.001815 550.87341 550.87341
584.0 0.001712 550.93829 550.93829
605.0 0.001653 551.00159 607.64166
603.0 0.001658 551.06299 611.73346
586.0 0.001706 551.12262 616.26416
554.0 0.001805 551.18073 621.30280
566.0 0.001767 551.23706 626.93610
632.0 0.001582 551.29163 633.28009
621.0 0.001610 551.34448 640.50055
606.0 0.001650 551.39587 648.85217
630.0 0.001587 551.44556 658.74915
643.0 0.001555 551.49371 670.89081
630.0 0.001587 551.54010 686.46735
670.0 0.001493 551.58496 707.47955
765.0 0.001307 551.62842 737.19366
820.0 0.001220 551.67029 780.73059
908.0 0.001101 551.71045 845.73285
1041.0 0.000961 551.74927 942.96893
1221.0 0.000819 551.78644 1086.63513
1503.0 0.000665 551.82214 1294.03076
1854.0 0.000539 551.85626 1584.25745
2249.0 0.000445 551.88922 1975.69641
2703.0 0.000370 551.92053 2482.26001
3235.0 0.0003091 551.95050 3108.80225
3768.0 0.0002654 551.97919 3846.45117
4311.0 0.0002320 552.00610 4668.86865
4963.0 0.0002015 552.03192 5530.37109
5709.0 0.0001752 552.05646 6366.54443
6540.0 0.0001529 552.07941 7098.09473
7388.0 0.0001354 552.10107 7639.62988
8097.0 0.0001235 552.12164 7915.79639
8549.0 0.0001170 552.14081 7883.10986
8653.0 0.0001156 552.15881 7546.54102
8341.0 0.0001199 552.17535 6957.77979
7581.0 0.0001319 552.19073 6196.42676
6440.0 0.0001553 552.20502 5347.91699
5196.0 0.0001925 552.21783 4489.19482
4120.0 0.0002427 552.22968 3680.98438
3107.0 0.0003219 552.24017 2964.88208
2255.0 0.000443 552.24957 2363.32544
1654.0 0.000605 552.25806 1881.92371
1251.0 0.000799 552.26532 1513.47400
1047.0 0.000955 552.27118 1242.69885
939.0 0.001065 552.27618 1050.72925
836.0 0.001196 552.28021 918.62280
773.0 0.001294 552.28302 829.62750
756.0 0.001323 552.28485 770.25342
737.0 0.001357 552.28564 730.42755
687.0 0.001456 552.28552 703.10443
681.0 0.001468 552.28418 683.62262
690.0 0.001449 552.28210 669.04449
669.0 0.001495 552.27875 657.58936
630.0 0.001587 552.27472 648.21051
623.0 0.001605 552.26990 640.30090
634.0 0.001577 552.26379 633.50879
641.0 0.001560 552.25702 627.62836
660.0 0.001515 552.24939 622.53430
648.0 0.001543 552.24078 618.14716
620.0 0.001613 552.23163 554.64685
626.0 0.001597 552.22125 555.45715
645.0 0.001550 552.21021 556.44769
664.0 0.001506 552.19836 557.60089
678.0 0.001475 552.18591 558.87366
682.0 0.001466 552.17267 560.19415
671.0 0.001490 552.15857 561.46393
667.0 0.001499 552.14374 562.56366
684.0 0.001462 552.12811 563.36609
699.0 0.001431 552.11188 563.76056
690.0 0.001449 552.09503 563.68512
675.0 0.001481 552.07751 563.14966
682.0 0.001466 552.05927 562.23273
684.0 0.001462 552.04041 561.05371
690.0 0.001449 552.02106 559.74036
681.0 0.001468 552.00079 558.40717
619.0 0.001616 551.98029 557.14600
606.0 0.001650 551.95911 556.01941
618.0 0.001618 551.93713 555.06207
602.0 0.001661 551.91498 554.28387
612.0 0.001634 551.89215 553.67450
605.0 0.001653 551.86884 553.21124
591.0 0.001692 551.84509 552.86603
610.0 0.001639 551.82068 552.61029
601.0 0.001664 551.79596 552.41974
585.0 0.001709 551.77051 552.27441
582.0 0.001718 551.74500 552.16052
559.0 0.001789 551.71887 552.06738
555.0 0.001802 551.69244 551.98871
558.0 0.001792 551.66559 551.92041
540.0 0.001852 551.63843 551.85968
537.0 0.001862 551.61072 551.80463
527.0 0.001898 551.58295 551.75458
527.0 0.001898 551.55438 551.70770
568.0 0.001761 551.52618 551.87585
563.0 0.001776 551.49707 551.84674
545.0 0.001835 551.46796 551.82086
552.0 0.001812 551.43842 551.79736
539.0 0.001855 551.40875 551.77643
551.0 0.001815 551.37885 551.75781
554.0 0.001805 551.34857 551.74139
514.0 0.001946 551.31830 551.72772
544.0 0.001838 551.28766 551.71667
563.0 0.001776 551.25677 551.63959
542.0 0.001845 551.22589 551.63916
560.0 0.001786 551.19470 551.64288
561.0 0.001783 551.16327 551.65179
547.0 0.001828 551.13196 551.66858
542.0 0.001845 551.10040 551.69604
532.0 0.001880 551.06879 551.74005
555.0 0.001802 551.03693 551.80933
579.0 0.001727 551.00494 551.91803
543.0 0.001842 550.97314 552.08777
508.0 0.001969 550.94116 552.34882
526.0 0.001901 550.90912 552.74329
567.0 0.001764 550.87701 553.32434
555.0 0.001802 550.84479 554.15906
546.0 0.001832 550.81268 555.31818
571.0 0.001751 550.78052 556.87097
603.0 0.001658 550.74835 558.87299
598.0 0.001672 550.71619 561.35046
623.0 0.001605 550.68427 564.28479
653.0 0.001531 550.65216 567.59802
613.0 0.001631 550.62024 571.14563
645.0 0.001550 550.58844 574.71362
673.0 0.001486 550.55658 578.02582
631.0 0.001585 550.52478 580.76367
643.0 0.001555 550.49316 582.60681
691.0 0.001447 550.46161 584.82581
692.0 0.001445 550.43030 584.35455
628.0 0.001592 550.39880 582.71307
622.0 0.001608 550.36792 580.13910
647.0 0.001546 550.33673 576.94879
636.0 0.001572 550.30603 573.46759
593.0 0.001686 550.27533 569.98145
579.0 0.001727 550.24493 566.71680
587.0 0.001704 550.21454 563.83197
584.0 0.001712 550.18457 561.41821
595.0 0.001681 550.15479 559.50739
606.0 0.001650 550.12506 570.32819
591.0 0.001692 550.09570 570.08600
556.0 0.001799 550.06647 570.30945
564.0 0.001773 550.03760 570.96478
582.0 0.001718 550.00897 572.04321
568.0 0.001761 549.98047 573.57538
550.0 0.001818 549.95245 575.64600
569.0 0.001757 549.92450 578.40656
591.0 0.001692 549.89703 582.08868
572.0 0.001748 549.86975 587.01172
577.0 0.001733 549.84296 593.58539
602.0 0.001661 549.81635 602.29694
627.0 0.001595 549.78992 613.68671
649.0 0.001541 549.76404 628.30859
662.0 0.001511 549.73840 646.68097
678.0 0.001475 549.71320 669.24591
698.0 0.001433 549.68817 696.34979
701.0 0.001427 549.66376 728.26404
743.0 0.001346 549.63959 765.24902
819.0 0.001221 549.61584 807.65814
875.0 0.001143 549.59241 856.05707
936.0 0.001068 549.56927 911.35687
1016.0 0.000984 549.54669 974.97272
1117.0 0.000895 549.52435 1048.76611
1228.0 0.000814 549.50262 1135.88208
1289.0 0.000776 549.48132 1238.94080
1357.0 0.000737 549.46033 1359.92175
1486.0 0.000673 549.43970 1498.75073
1552.0 0.000644 549.41962 1652.34656
1636.0 0.000611 549.39990 1814.10449
1780.0 0.000562 549.38086 1973.83850
1913.0 0.000523 549.36212 2118.21021
2071.0 0.000483 549.34363 2231.88477
2224.0 0.000450 549.32587 2299.86719
2330.0 0.000429 549.30859 2311.10254
2403.0 0.000416 549.29181 2262.08447
2405.0 0.000416 549.27527 2158.15308
2310.0 0.000433 549.25940 2011.48352
2126.0 0.000470 549.24402 1837.36816
1878.0 0.000532 549.22913 1651.01343
1599.0 0.000625 549.21454 1465.65466
1326.0 0.000754 549.20050 1291.66663
1091.0 0.000917 549.18726 1136.23218
919.0 0.001088 549.17432 1003.52606
792.0 0.001263 549.16180 894.50696
689.0 0.001451 549.15002 808.33105
635.0 0.001575 549.13861 742.51501
599.0 0.001669 549.12775 693.77429
575.0 0.001739 549.11749 658.61493
579.0 0.001727 549.10779 633.76111
564.0 0.001773 549.09851 616.40576
545.0 0.001835 549.08972 604.30969
540.0 0.001852 549.08173 595.79169
516.0 0.001938 549.07410 589.65210
506.0 0.001976 549.06708 585.07526
502.0 0.001992 549.06049 581.52661
486.0 0.002058 549.05457 577.08636
512.0 0.001953 549.04926 574.79675
545.0 0.001835 549.04437 572.85455
538.0 0.001859 549.04016 571.18597
501.0 0.001996 549.03644 569.74915
516.0 0.001938 549.03333 568.52380
546.0 0.001832 549.03064 567.50446
535.0 0.001869 549.02869 566.69775
528.0 0.001894 549.02728 566.11884
530.0 0.001887 549.02649 565.78918
532.0 0.001880 549.02625 565.73212
529.0 0.001890 549.02643 553.22815
520.0 0.001923 549.02734 554.47754
515.0 0.001942 549.02893 558.73553
521.0 0.001919 549.03082 560.58258
536.0 0.001866 549.03351 562.60461
542.0 0.001845 549.03668 564.71808
536.0 0.001866 549.04041 566.80963
541.0 0.001848 549.04486 568.73920
585.0 0.001709 549.04980 570.35040
587.0 0.001704 549.05536 571.49249
556.0 0.001799 549.06152 572.05292
576.0 0.001736 549.06824 571.99261
595.0 0.001681 549.07562 571.36121
584.0 0.001712 549.08331 570.28009
565.0 0.001770 549.09192 568.90900
578.0 0.001730 549.10089 567.41107
580.0 0.001724 549.11053 565.93542
558.0 0.001792 549.12067 564.60736
541.0 0.001848 549.13159 563.52783
551.0 0.001815 549.14288 562.77600
547.0 0.001828 549.15485 562.41974
527.0 0.001898 549.16742 562.52856
533.0 0.001876 549.18054 563.19342
538.0 0.001859 549.19427 564.55090
544.0 0.001838 549.20862 566.80914
560.0 0.001786 549.22357 570.27380
573.0 0.001745 549.23883 575.36957
593.0 0.001686 549.25500 582.65137
617.0 0.001621 549.27161 592.79474
642.0 0.001558 549.28876 606.56177
687.0 0.001456 549.30640 624.73273
699.0 0.001431 549.32477 648.00232
686.0 0.001458 549.34344 676.84515
715.0 0.001399 549.36310 711.36694
766.0 0.001305 549.38324 751.15692
798.0 0.001253 549.40369 795.17212
806.0 0.001241 549.42480 841.66840
829.0 0.001206 549.44653 888.19055
865.0 0.001156 549.46881 931.63824
911.0 0.001098 549.49170 968.44238
965.0 0.001036 549.51489 994.94440
1011.0 0.000989 549.53882 1008.05536
1066.0 0.000938 549.56323 1006.07739
1097.0 0.000912 549.58820 989.12250
1053.0 0.000950 549.61365 959.62988
1013.0 0.000987 549.63995 920.75922
946.0 0.001057 549.66650 876.20166
840.0 0.001190 549.69373 829.43329
787.0 0.001271 549.72137 783.39777
731.0 0.001368 549.74945 740.36725
672.0 0.001488 549.77826 701.89929
638.0 0.001567 549.80762 668.86121
589.0 0.001698 549.83716 641.51324
577.0 0.001733 549.86761 619.66174
592.0 0.001689 549.89838 602.70404
565.0 0.001770 549.92957 589.92767
543.0 0.001842 549.96155 580.53699
529.0 0.001890 549.99390 573.77045
518.0 0.001931 550.02655 568.96021
523.0 0.001912 550.05988 565.55951
524.0 0.001908 550.09375 563.14435
531.0 0.001883 550.12799 561.40240
540.0 0.001852 550.16278 560.11365
517.0 0.001934 550.19812 559.12842
525.0 0.001905 550.23370 558.34796
557.0 0.001795 550.26990 557.70917
548.0 0.001825 550.30646 557.17175
511.0 0.001957 550.34375 556.71051
514.0 0.001946 550.38141 556.30878
545.0 0.001835 550.41937 555.95569
523.0 0.001912 550.45795 555.64423
515.0 0.001942 550.49658 555.36847
523.0 0.001912 550.53601 555.12579
525.0 0.001905 550.57599 554.91339
531.0 0.001883 550.61609 554.72961
510.0 0.001961 550.65686 554.57489
495.0 0.002020 550.69794 554.44995
521.0 0.001919 550.73944 554.35730
535.0 0.001869 550.78149 554.30023
535.0 0.001869 550.82373 554.28265
535.0 0.001869 550.86652 554.30988
539.0 0.001855 550.90967 551.65277
530.0 0.001887 550.95325 558.40594
532.0 0.001880 550.99713 559.03680
538.0 0.001859 551.04156 559.73657
516.0 0.001938 551.08624 560.50214
551.0 0.001815 551.13135 561.32617
561.0 0.001783 551.17682 562.19666
511.0 0.001957 551.22266 563.09668
534.0 0.001873 551.26886 564.00568
552.0 0.001812 551.31555 564.90131
536.0 0.001866 551.36243 565.76233
531.0 0.001883 551.40973 566.57507
563.0 0.001776 551.45734 567.33899
560.0 0.001786 551.50525 568.07135
546.0 0.001832 551.55353 568.80634
572.0 0.001748 551.60229 569.59241
550.0 0.001818 551.65100 570.49005
530.0 0.001887 551.70020 571.57562
545.0 0.001835 551.74988 572.94769
557.0 0.001795 551.79974 574.74005
556.0 0.001799 551.84991 577.14221
558.0 0.001792 551.90051 580.42395
579.0 0.001727 551.95129 584.96661
617.0 0.001621 552.00226 591.29742
647.0 0.001546 552.05371 600.12262
676.0 0.001479 552.10522 612.34863
721.0 0.001387 552.15729 629.08655
773.0 0.001294 552.20947 651.61975
809.0 0.001236 552.26184 681.33118
838.0 0.001193 552.31451 719.57733
879.0 0.001138 552.36743 767.51135
922.0 0.001085 552.42059 825.86432
963.0 0.001038 552.47418 894.71088
993.0 0.001007 552.52771 973.24304
1009.0 0.000991 552.58160 1059.59363
1031.0 0.000970 552.63574 1150.72729
1074.0 0.000931 552.69000 1242.42090
1161.0 0.000861 552.74457 1329.34485
1277.0 0.000783 552.79944 1405.30188
1309.0 0.000764 552.85425 1463.74792
1363.0 0.000734 552.90948 1498.74719
1457.0 0.000686 552.96503 1506.29004
1465.0 0.000683 553.02057 1485.46350
1451.0 0.000689 553.07617 1438.75366
1420.0 0.000704 553.13214 1371.26001
1336.0 0.000749 553.18829 1289.36133
1194.0 0.000838 553.24438 1199.52979
1077.0 0.000929 553.30084 1107.59570
959.0 0.001043 553.35736 1018.37964
832.0 0.001202 553.41418 944.53320
771.0 0.001297 553.47113 870.99652
731.0 0.001368 553.52808 807.66138
674.0 0.001484 553.58527 754.94214
614.0 0.001629 553.64252 712.39764
595.0 0.001681 553.69995 679.06757
593.0 0.001686 553.75739 653.67780
584.0 0.001712 553.81506 634.84119
578.0 0.001730 553.87280 621.21033
603.0 0.001658 553.93073 611.58002
590.0 0.001695 553.98865 604.93958
558.0 0.001792 554.04669 600.48785
557.0 0.001795 554.10498 597.62256
553.0 0.001808 554.16315 595.91431
566.0 0.001767 554.22150 595.07843
578.0 0.001730 554.27997 594.94781
578.0 0.001730 554.33838 595.45392
616.0 0.001623 554.39691 596.61853
628.0 0.001592 554.45557 598.55542
627.0 0.001595 554.51422 601.48291
657.0 0.001522 554.57288 605.74762
654.0 0.001529 554.63171 611.85431
688.0 0.001453 554.69055 620.49805
733.0 0.001364 554.74915 632.59265
731.0 0.001368 554.80829 649.28583
792.0 0.001263 554.86713 671.94470
838.0 0.001193 554.92596 702.10809
871.0 0.001148 554.98499 741.38544
940.0 0.001064 555.04382 791.30316
957.0 0.001045 555.10297 856.76544
1007.0 0.000993 555.16193 931.33527
1064.0 0.000940 555.22095 1011.76270
1065.0 0.000939 555.27991 1110.59460
1147.0 0.000872 555.33881 1218.52332
1235.0 0.000810 555.39771 1331.93408
1324.0 0.000755 555.45673 1445.88159
1459.0 0.000685 555.51569 1554.17908
1541.0 0.000649 555.57465 1649.65076
1674.0 0.000597 555.63354 1724.68469
1815.0 0.000551 555.69238 1772.24475
1842.0 0.000543 555.75116 1787.30652
1859.0 0.000538 555.81006 1768.21851
1888.0 0.000530 555.86859 1717.21729
1871.0 0.000534 555.92725 1639.75366
1764.0 0.000567 555.98602 1543.07373
1624.0 0.000616 556.04456 1434.82922
1499.0 0.000667 556.10315 1322.14612
1345.0 0.000743 556.16144 1211.13806
1155.0 0.000866 556.21991 1106.69580
1061.0 0.000943 556.27832 1012.42938
967.0 0.001034 556.33661 930.71204
879.0 0.001138 556.39471 862.81012
827.0 0.001209 556.45270 809.08032
832.0 0.001202 556.51074 769.20551
829.0 0.001206 556.56879 742.43127
816.0 0.001225 556.62659 727.76978
825.0 0.001212 556.68420 724.14526
851.0 0.001175 556.74176 730.47003
851.0 0.001175 556.79938 745.65338
836.0 0.001196 556.85669 768.55890
859.0 0.001164 556.91412 797.93170
868.0 0.001152 556.97137 832.31580
826.0 0.001211 557.02844 869.98492
866.0 0.001155 557.08539 908.89624
922.0 0.001085 557.14227 946.68030
952.0 0.001050 557.19885 980.68518
980.0 0.001020 557.25549 1008.11938
1015.0 0.000985 557.31213 1026.34644
1011.0 0.000989 557.36841 1036.24402
1000.0 0.001000 557.42444 1031.20593
998.0 0.001002 557.48071 1014.44336
991.0 0.001009 557.53656 987.59833
985.0 0.001015 557.59235 953.08240
944.0 0.001059 557.64801 913.57281
882.0 0.001134 557.70355 871.64069
826.0 0.001211 557.75885 829.53888
772.0 0.001295 557.81390 789.10376
759.0 0.001318 557.86902 751.71582
745.0 0.001342 557.92413 718.29913
702.0 0.001425 557.97864 679.97681
664.0 0.001506 558.03345 656.06567
654.0 0.001529 558.08783 636.54224
626.0 0.001597 558.14191 621.02612
599.0 0.001669 558.19611 609.00989
609.0 0.001642 558.25006 599.93353
606.0 0.001650 558.30377 593.24487
601.0 0.001664 558.35736 588.44067
615.0 0.001626 558.41077 585.09113
623.0 0.001605 558.46405 582.85114
591.0 0.001692 558.51703 581.46155
593.0 0.001686 558.57001 580.74481
608.0 0.001645 558.62268 580.59863
619.0 0.001616 558.67523 580.99164
645.0 0.001550 558.72754 581.95953
637.0 0.001570 558.77972 583.60693
633.0 0.001580 558.83167 586.72229
654.0 0.001529 558.88342 590.35571
678.0 0.001475 558.93506 595.42279
702.0 0.001425 558.98663 602.32532
722.0 0.001385 559.03772 611.52753
727.0 0.001376 559.08875 623.53577
735.0 0.001361 559.13971 638.86005
786.0 0.001272 559.19025 657.96332
785.0 0.001274 559.24084 681.19861
775.0 0.001290 559.29120 713.68494
807.0 0.001239 559.34125 745.65277
824.0 0.001214 559.39111 781.44464
835.0 0.001198 559.44086 820.28345
853.0 0.001172 559.49036 857.44220
875.0 0.001143 559.53961 898.60089
892.0 0.001121 559.58875 938.06628
930.0 0.001075 559.63770 973.55548
954.0 0.001048 559.68646 1002.61304
970.0 0.001031 559.73511 1022.88275
1007.0 0.000993 559.78333 1032.50916
1009.0 0.000991 559.83154 1030.57410
1023.0 0.000978 559.87939 1017.35071
1019.0 0.000981 559.92725 994.23120
966.0 0.001035 559.97491 963.36688
969.0 0.001032 560.02228 927.22833
909.0 0.001100 560.06934 888.25684
827.0 0.001209 560.11646 848.65662
811.0 0.001233 560.16327 810.29315
747.0 0.001339 560.20984 774.65332
695.0 0.001439 560.25629 742.84021
685.0 0.001460 560.30255 715.59314
682.0 0.001466 560.34863 693.33197
668.0 0.001497 560.39447 676.21875
683.0 0.001464 560.44012 664.23242
704.0 0.001420 560.48547 657.24536
710.0 0.001408 560.53088 655.09595
726.0 0.001377 560.57593 657.64636
737.0 0.001357 560.62085 664.82678
766.0 0.001305 560.66577 676.65808
813.0 0.001230 560.71033 693.25311
818.0 0.001222 560.75464 714.79944
827.0 0.001209 560.79877 741.51764
878.0 0.001139 560.84283 773.60089
937.0 0.001067 560.88647 811.13977
943.0 0.001060 560.93030 854.04517
963.0 0.001038 560.97382 901.99414
1013.0 0.000987 561.01709 954.34760
1057.0 0.000946 561.06030 1010.20538
1073.0 0.000932 561.10315 1068.34119
1105.0 0.000905 561.14618 1127.16980
1145.0 0.000873 561.18872 1184.67725
1181.0 0.000847 561.23126 1238.37354
1230.0 0.000813 561.27356 1285.31384
1279.0 0.000782 561.31555 1322.25793
1311.0 0.000763 561.35760 1346.02649
1334.0 0.000750 561.39954 1354.05676
1368.0 0.000731 561.44122 1345.02356
1359.0 0.000736 561.48267 1319.24365
1281.0 0.000781 561.52417 1278.63403
1201.0 0.000833 561.56531 1226.24744
1186.0 0.000843 561.60645 1165.65515
1083.0 0.000923 561.64734 1100.42188
978.0 0.001022 561.68817 1033.78357
927.0 0.001079 561.72876 968.48004
831.0 0.001203 561.76947 906.68719
760.0 0.001316 561.80981 847.02496
710.0 0.001408 561.84985 796.58588
658.0 0.001520 561.89014 752.77380
634.0 0.001577 561.93018 715.64557
622.0 0.001608 561.96997 684.90277
597.0 0.001675 562.00989 659.99176
566.0 0.001767 562.04950 641.55481
564.0 0.001773 562.08911 626.16931
579.0 0.001727 562.12842 614.35938
579.0 0.001727 562.16772 605.40765
566.0 0.001767 562.20691 598.68256
577.0 0.001733 562.24615 593.65436
576.0 0.001736 562.28497 589.89447
581.0 0.001721 562.32391 587.06982
591.0 0.001692 562.36285 584.92865
556.0 0.001799 562.40143 583.28693
537.0 0.001862 562.44006 582.00861
553.0 0.001808 562.47870 581.00104
564.0 0.001773 562.51709 580.19775
547.0 0.001828 562.55554 579.55231
572.0 0.001748 562.59381 579.03082
591.0 0.001692 562.63208 578.60870
554.0 0.001805 562.67029 578.26721
556.0 0.001799 562.70831 577.99170
563.0 0.001776 562.74622 577.77277
561.0 0.001783 562.78430 577.60596
565.0 0.001770 562.82227 577.49329
554.0 0.001805 562.86017 576.81055
578.0 0.001730 562.89801 576.87872
612.0 0.001634 562.93585 577.06964
594.0 0.001684 562.97363 577.43372
584.0 0.001712 563.01135 578.03711
594.0 0.001684 563.04907 578.96350
610.0 0.001639 563.08661 580.31561
618.0 0.001618 563.12433 582.21655
596.0 0.001678 563.16193 584.80713
585.0 0.001709 563.19952 583.12488
600.0 0.001667 563.23724 587.78082
605.0 0.001653 563.27466 593.59253
602.0 0.001661 563.31232 600.70416
603.0 0.001658 563.34991 609.22333
605.0 0.001653 563.38739 619.20386
603.0 0.001658 563.42505 630.82159
630.0 0.001587 563.46265 643.57855
653.0 0.001531 563.50018 657.44452
642.0 0.001558 563.53784 672.08514
641.0 0.001560 563.57538 687.04547
679.0 0.001473 563.61316 701.75476
704.0 0.001420 563.65088 715.53607
679.0 0.001473 563.68872 727.63385
693.0 0.001443 563.72656 737.26538
718.0 0.001393 563.76434 743.71039
717.0 0.001395 563.80225 746.43054
708.0 0.001412 563.84021 745.18658
740.0 0.001351 563.87811 740.09656
728.0 0.001374 563.91620 731.60736
673.0 0.001486 563.95447 720.39032
674.0 0.001484 563.99249 707.21704
692.0 0.001445 564.03088 692.85944
672.0 0.001488 564.06927 678.02319
621.0 0.001610 564.10773 663.31635
606.0 0.001650 564.14618 649.23212
627.0 0.001595 564.18475 636.14520
636.0 0.001572 564.22351 624.31305
613.0 0.001631 564.26221 613.88293
608.0 0.001645 564.30121 604.90546
609.0 0.001642 564.34033 597.35065
608.0 0.001645 564.37933 591.12799
605.0 0.001653 564.41870 586.18988
599.0 0.001669 564.45813 582.22064
588.0 0.001701 564.49762 579.14081
580.0 0.001724 564.53735 576.79858
578.0 0.001730 564.57697 575.04413
564.0 0.001773 564.61682 573.78558
573.0 0.001745 564.65698 572.91681
599.0 0.001669 564.69720 572.36676
588.0 0.001701 564.73743 572.08630
594.0 0.001684 564.77808 572.04578
595.0 0.001681 564.81891 572.23047
579.0 0.001727 564.85974 572.63837
600.0 0.001667 564.90070 573.27612
593.0 0.001686 564.94196 574.15540
580.0 0.001724 564.98340 575.28802
609.0 0.001642 565.02509 576.68256
605.0 0.001653 565.06683 578.34021
575.0 0.001739 565.10864 580.25153
562.0 0.001779 565.15070 582.39307
585.0 0.001709 565.19324 584.72516
596.0 0.001678 565.23578 587.18970
601.0 0.001664 565.27856 589.71063
612.0 0.001634 565.32159 592.19415
609.0 0.001642 565.36487 594.52966
604.0 0.001656 565.40833 596.59479
603.0 0.001658 565.45190 598.26239
608.0 0.001645 565.49579 599.41504
621.0 0.001610 565.53992 599.96234
633.0 0.001580 565.58447 599.86005
636.0 0.001572 565.62903 599.11945
627.0 0.001595 565.67389 596.43542
622.0 0.001608 565.71918 594.71484
614.0 0.001629 565.76447 592.65381
598.0 0.001672 565.81012 590.38562
587.0 0.001704 565.85620 588.03674
585.0 0.001709 565.90240 585.71967
569.0 0.001757 565.94885 583.53149
547.0 0.001828 565.99573 581.55072
563.0 0.001776 566.04266 579.83655
557.0 0.001795 566.09009 578.42816
553.0 0.001808 566.13763 577.35101
584.0 0.001712 566.18567 576.60864
562.0 0.001779 566.23383 588.42719
544.0 0.001838 566.28241 588.77063
569.0 0.001757 566.33124 589.40546
593.0 0.001686 566.38031 590.28937
555.0 0.001802 566.42981 591.37292
527.0 0.001898 566.47968 592.60132
555.0 0.001802 566.52972 593.91559
573.0 0.001745 566.58032 595.25525
567.0 0.001764 566.63104 596.55933
554.0 0.001805 566.68207 597.77142
554.0 0.001805 566.73358 598.84479
562.0 0.001779 566.78546 599.74866
553.0 0.001808 566.83759 600.47400
541.0 0.001848 566.89008 601.03491
553.0 0.001808 566.94305 601.46588
550.0 0.001818 566.99622 601.81427
550.0 0.001818 567.04987 602.13525
570.0 0.001754 567.10358 602.48511
583.0 0.001715 567.15814 602.92041
582.0 0.001718 567.21271 603.49457
574.0 0.001742 567.26776 604.26135
569.0 0.001757 567.32324 605.27557
574.0 0.001742 567.37909 606.59644
591.0 0.001692 567.43518 608.29395
615.0 0.001626 567.49188 610.45538
636.0 0.001572 567.54901 614.56476
647.0 0.001546 567.60614 618.08704
680.0 0.001471 567.66406 622.55182
721.0 0.001387 567.72223 628.23724
712.0 0.001404 567.78088 635.51190
736.0 0.001359 567.83984 644.85217
795.0 0.001258 567.89935 656.86133
843.0 0.001186 567.95917 672.28040
894.0 0.001119 568.01935 691.99567
957.0 0.001045 568.07996 717.03149
1004.0 0.000996 568.14117 748.52924
1014.0 0.000986 568.20258 787.70551
1069.0 0.000935 568.26453 835.79211
1131.0 0.000884 568.32697 893.74896
1159.0 0.000863 568.38977 962.97125
1191.0 0.000840 568.45300 1043.94177
1223.0 0.000818 568.51685 1136.92981
1287.0 0.000777 568.58075 1241.65723
1402.0 0.000713 568.64526 1357.18762
1507.0 0.000664 568.71033 1481.83557
1632.0 0.000613 568.77588 1613.10828
1774.0 0.000564 568.84167 1747.67798
1891.0 0.000529 568.90820 1881.39197
2046.0 0.000489 568.97491 2009.32837
2207.0 0.000453 569.04218 2125.92578
2336.0 0.000428 569.10986 2225.24731
2470.0 0.000405 569.17810 2301.44458
2570.0 0.000389 569.24658 2349.45386
2602.0 0.000384 569.31580 2365.81494
2569.0 0.000389 569.38538 2349.36279
2508.0 0.000399 569.45538 2301.49756
2367.0 0.000422 569.52606 2225.88867
2176.0 0.000460 569.59692 2127.77271
2035.0 0.000491 569.66827 2013.13257
1848.0 0.000541 569.74030 1888.01990
1638.0 0.000611 569.81268 1758.09399
1459.0 0.000685 569.88562 1628.37036
1279.0 0.000782 569.95911 1503.08582
1135.0 0.000881 570.03284 1385.63855
1028.0 0.000973 570.10699 1278.48865
930.0 0.001075 570.18188 1183.50671
865.0 0.001156 570.25708 1103.15393
837.0 0.001195 570.33295 1034.42444
822.0 0.001217 570.40906 978.48645
793.0 0.001261 570.48584 934.44202
778.0 0.001285 570.56305 901.02209
783.0 0.001277 570.64081 876.70581
791.0 0.001264 570.71893 859.82452
779.0 0.001284 570.79761 848.65137
775.0 0.001290 570.87677 841.47583
793.0 0.001261 570.95648 836.67072
812.0 0.001232 571.03662 832.76025
802.0 0.001247 571.11731 828.49469
781.0 0.001280 571.19836 822.92462
778.0 0.001285 571.27991 815.45508
787.0 0.001271 571.36212 805.85284
768.0 0.001302 571.44470 794.19855
734.0 0.001362 571.52771 780.80133
719.0 0.001391 571.61127 766.10278
699.0 0.001431 571.69537 750.59558
683.0 0.001464 571.77997 734.76715
672.0 0.001488 571.86493 719.06573
651.0 0.001536 571.95056 703.88135
622.0 0.001608 572.03650 689.53479
610.0 0.001639 572.12286 676.27466
620.0 0.001613 572.20996 664.27832
618.0 0.001618 572.29742 661.36475
615.0 0.001626 572.38538 652.44055
608.0 0.001645 572.47382 644.96045
600.0 0.001667 572.56274 638.89600
644.0 0.001553 572.65210 634.19879
654.0 0.001529 572.74207 630.81396
621.0 0.001610 572.83246 628.69061
651.0 0.001536 572.92328 627.79230
657.0 0.001522 573.01459 628.10260
646.0 0.001548 573.10651 629.62799
668.0 0.001497 573.19867 632.39648
691.0 0.001447 573.29144 636.45428
704.0 0.001420 573.38477 641.85809
705.0 0.001418 573.47839 648.66406
697.0 0.001435 573.57263 656.91760
694.0 0.001441 573.66724 654.42615
706.0 0.001416 573.76257 666.03186
728.0 0.001374 573.85785 678.99402
743.0 0.001346 573.95398 693.18433
751.0 0.001332 574.05048 708.40387
749.0 0.001335 574.14752 724.37988
742.0 0.001348 574.24475 740.76434
768.0 0.001302 574.34271 757.13715
807.0 0.001239 574.44110 773.01233
827.0 0.001209 574.53973 787.85480
834.0 0.001199 574.63904 801.10901
882.0 0.001134 574.73865 812.24432
920.0 0.001087 574.83881 820.82611
909.0 0.001100 574.93939 826.59576
912.0 0.001096 575.04028 829.54456
933.0 0.001072 575.14166 829.95282
950.0 0.001053 575.24353 828.37683
955.0 0.001047 575.34583 825.59222
967.0 0.001034 575.44855 822.51672
974.0 0.001027 575.55170 820.13531
971.0 0.001030 575.65527 819.44110
976.0 0.001025 575.75922 821.39154
963.0 0.001038 575.86359 826.87512
966.0 0.001035 575.96820 836.68274
1010.0 0.000990 576.07361 851.48053
1036.0 0.000965 576.17902 870.41492
1067.0 0.000937 576.28497 896.60040
1092.0 0.000916 576.39130 928.75244
1092.0 0.000916 576.49805 966.78040
1151.0 0.000869 576.60516 1010.35333
1202.0 0.000832 576.71277 1058.88525
1204.0 0.000831 576.82056 1111.52478
1243.0 0.000805 576.92896 1167.15002
1335.0 0.000749 577.03766 1224.37061
1419.0 0.000705 577.14642 1281.55676
1450.0 0.000690 577.25592 1336.90027
1469.0 0.000681 577.36572 1388.52368
1491.0 0.000671 577.47565 1434.63660
1517.0 0.000659 577.58600 1473.70190
1543.0 0.000648 577.69690 1504.55981
1566.0 0.000639 577.80811 1526.45862
1562.0 0.000640 577.91943 1538.98999
1548.0 0.000646 578.03125 1542.19556
1565.0 0.000639 578.14319 1535.56348
1514.0 0.000661 578.25568 1519.34424
1439.0 0.000695 578.36841 1493.72241
1420.0 0.000704 578.48145 1459.15515
1371.0 0.000729 578.59467 1416.47217
1310.0 0.000763 578.70837 1366.90454
1255.0 0.000797 578.82227 1312.00745
1179.0 0.000848 578.93652 1253.51599
1080.0 0.000926 579.05096 1193.17212
1005.0 0.000995 579.16577 1132.59851
956.0 0.001046 579.28076 1073.20605
875.0 0.001143 579.39600 1016.15906
813.0 0.001230 579.51147 962.36505
781.0 0.001280 579.62744 912.48694
747.0 0.001339 579.74335 866.96112
704.0 0.001420 579.85968 826.02271
653.0 0.001531 579.97632 789.72968
614.0 0.001629 580.09296 757.99103
608.0 0.001645 580.21002 730.59735
604.0 0.001656 580.32715 707.24799
607.0 0.001647 580.44458 687.58057
624.0 0.001603 580.56226 671.19666
628.0 0.001592 580.67999 657.68512
591.0 0.001692 580.79810 644.98376
566.0 0.001767 580.91620 636.08380
592.0 0.001689 581.03461 628.91406
587.0 0.001704 581.15302 623.16174
575.0 0.001739 581.27179 618.55609
585.0 0.001709 581.39069 614.86786
591.0 0.001692 581.50958 611.90698
570.0 0.001754 581.62885 609.52081
561.0 0.001783 581.74811 607.58832
579.0 0.001727 581.86743 606.01587
584.0 0.001712 581.98712 604.73425
593.0 0.001686 582.10675 603.69208
591.0 0.001692 582.22644 602.85461
571.0 0.001751 582.34625 602.19940
591.0 0.001692 582.46631 601.71393
598.0 0.001672 582.58624 601.39294
580.0 0.001724 582.70648 601.46552
585.0 0.001709 582.82660 601.48840
596.0 0.001678 582.94696 601.69031
600.0 0.001667 583.06726 602.08008
600.0 0.001667 583.18762 602.66644
600.0 0.001667 583.30786 603.45642
566.0 0.001767 583.42841 604.45380
552.0 0.001812 583.54883 605.65741
594.0 0.001684 583.66925 607.06036
602.0 0.001661 583.78986 604.42816
597.0 0.001675 583.91022 606.32782
598.0 0.001672 584.03082 608.35126
595.0 0.001681 584.15137 610.45819
604.0 0.001656 584.27155 612.59869
613.0 0.001631 584.39221 614.71497
615.0 0.001626 584.51251 616.73950
618.0 0.001618 584.63293 618.59857
613.0 0.001631 584.75305 620.21423
622.0 0.001608 584.87329 621.51025
643.0 0.001555 584.99341 622.41779
620.0 0.001613 585.11334 622.88440
626.0 0.001597 585.23346 622.88269
638.0 0.001567 585.35333 622.41296
602.0 0.001661 585.47321 621.50525
596.0 0.001678 585.59290 617.47394
611.0 0.001637 585.71222 615.99988
622.0 0.001608 585.83167 614.28296
623.0 0.001605 585.95087 612.40033
600.0 0.001667 586.07001 610.42578
586.0 0.001706 586.18896 608.42676
603.0 0.001658 586.30774 606.46228
625.0 0.001600 586.42645 604.58362
612.0 0.001634 586.54468 602.83270
588.0 0.001701 586.66302 601.24426
585.0 0.001709 586.78101 599.84393
584.0 0.001712 586.89880 598.65094
600.0 0.001667 587.01636 597.67816
615.0 0.001626 587.13361 596.93341
607.0 0.001647 587.25092 596.42114
609.0 0.001642 587.36768 596.14209
618.0 0.001618 587.48431 596.09644
620.0 0.001613 587.60065 596.28247
619.0 0.001616 587.71667 596.69812
626.0 0.001597 587.83252 597.34119
617.0 0.001621 587.94800 598.20801
599.0 0.001669 588.06305 599.29388
609.0 0.001642 588.17804 600.59253
604.0 0.001656 588.29248 602.09393
602.0 0.001661 588.40674 603.78516
623.0 0.001605 588.52069 605.64838
622.0 0.001608 588.63416 607.66071
620.0 0.001613 588.74738 609.79364
626.0 0.001597 588.86011 612.01312
634.0 0.001577 588.97247 614.27979
649.0 0.001541 589.08466 616.54895
646.0 0.001548 589.19623 621.57703
649.0 0.001541 589.30743 623.78381
684.0 0.001462 589.41821 625.84680
675.0 0.001481 589.52856 627.72052
666.0 0.001502 589.63849 629.37097
682.0 0.001466 589.74792 630.78143
680.0 0.001471 589.85712 631.95972
662.0 0.001511 589.96564 632.94025
665.0 0.001504 590.07373 633.78528
677.0 0.001477 590.18134 634.57806
652.0 0.001534 590.28845 635.41675
676.0 0.001479 590.39520 636.40460
687.0 0.001456 590.50128 637.64221
636.0 0.001572 590.60675 639.22101
638.0 0.001567 590.71191 641.21869
639.0 0.001565 590.81653 643.69312
639.0 0.001565 590.92029 646.67969
650.0 0.001538 591.02380 650.18976
620.0 0.001613 591.12659 654.20587
645.0 0.001550 591.22888 658.68268
682.0 0.001466 591.33063 663.54498
644.0 0.001553 591.43164 668.68817
650.0 0.001538 591.53217 673.98010
651.0 0.001536 591.63196 679.26215
644.0 0.001553 591.73120 686.01111
683.0 0.001464 591.82971 690.76147
702.0 0.001425 591.92767 694.69330
686.0 0.001458 592.02496 698.06708
672.0 0.001488 592.12158 700.47314
686.0 0.001458 592.21747 701.77997
674.0 0.001484 592.31268 701.91791
662.0 0.001511 592.40723 700.88989
665.0 0.001504 592.50116 698.77240
650.0 0.001538 592.59418 695.69757
656.0 0.001524 592.68665 691.84509
673.0 0.001486 592.77844 687.42139
669.0 0.001495 592.86926 682.63843
642.0 0.001558 592.95953 677.70966
636.0 0.001572 593.04889 672.84119
645.0 0.001550 593.13751 668.23016
646.0 0.001548 593.22552 664.06390
647.0 0.001546 593.31256 660.51996
655.0 0.001527 593.39880 657.76776
662.0 0.001511 593.48444 655.97089
660.0 0.001515 593.56897 655.28662
650.0 0.001538 593.65308 655.86975
677.0 0.001477 593.73602 657.87079
721.0 0.001387 593.81799 661.43817
724.0 0.001381 593.89941 666.71643
684.0 0.001462 593.97980 673.84210
692.0 0.001445 594.05939 682.94104
726.0 0.001377 594.13812 694.12079
730.0 0.001370 594.21588 707.46356
743.0 0.001346 594.29291 723.01752
745.0 0.001342 594.36884 740.78522
762.0 0.001312 594.44397 760.71631
810.0 0.001235 594.51807 782.69568
822.0 0.001217 594.59143 806.53705
826.0 0.001211 594.66370 831.97522
851.0 0.001175 594.73486 858.66248
884.0 0.001131 594.80530 886.16663
902.0 0.001109 594.87482 913.97113
935.0 0.001070 594.94324 941.47748
997.0 0.001003 595.01074 968.01422
1050.0 0.000952 595.07715 993.77136
1048.0 0.000954 595.14246 1016.16840
1057.0 0.000946 595.20691 1035.11414
1090.0 0.000917 595.27045 1050.37634
1112.0 0.000899 595.33276 1061.16113
1141.0 0.000876 595.39410 1067.12207
1157.0 0.000864 595.45459 1068.18115
1134.0 0.000882 595.51385 1064.55042
1086.0 0.000921 595.57202 1056.71130
1068.0 0.000936 595.62903 1045.35449
1057.0 0.000946 595.68518 1031.30164
1017.0 0.000983 595.74023 1015.42688
962.0 0.001040 595.79395 998.59027
950.0 0.001053 595.84686 981.59070
929.0 0.001076 595.89844 965.13287
901.0 0.001110 595.94897 949.80817
882.0 0.001134 595.99847 936.08081
828.0 0.001208 596.04688 924.28149
807.0 0.001239 596.09406 914.60370
804.0 0.001244 596.14014 907.10376
792.0 0.001263 596.18481 901.70514
815.0 0.001227 596.22858 898.20618
803.0 0.001245 596.27118 896.29016
792.0 0.001263 596.31250 897.45331
822.0 0.001217 596.35266 897.42969
824.0 0.001214 596.39178 897.53125
854.0 0.001171 596.42950 896.45404
873.0 0.001145 596.46619 895.15936
863.0 0.001159 596.50159 892.41882
881.0 0.001135 596.53564 887.88556
853.0 0.001172 596.56873 881.36285
833.0 0.001200 596.60034 876.65662
853.0 0.001172 596.63080 866.30334
839.0 0.001192 596.66016 854.26910
806.0 0.001241 596.68817 840.86243
804.0 0.001244 596.71490 826.43500
819.0 0.001221 596.74042 811.35187
799.0 0.001252 596.76459 795.97003
782.0 0.001279 596.78754 780.62555
763.0 0.001311 596.80908 765.62482
734.0 0.001362 596.82953 751.24011
718.0 0.001393 596.84875 737.70599
741.0 0.001350 596.86646 725.21887
734.0 0.001362 596.88300 713.93689
723.0 0.001383 596.89801 703.97980
759.0 0.001318 596.91199 695.43292
764.0 0.001309 596.92462 688.34784
702.0 0.001425 596.93573 682.74738
708.0 0.001412 596.94568 678.62921
700.0 0.001429 596.95435 675.96875
703.0 0.001422 596.96161 674.72302
717.0 0.001395 596.96729 674.83331
709.0 0.001410 596.97192 676.22864
691.0 0.001447 596.97528 678.82550
687.0 0.001456 596.97693 682.52936
702.0 0.001425 596.97736 687.23785
713.0 0.001403 596.97650 692.83765
705.0 0.001418 596.97424 699.20758
713.0 0.001403 596.97052 706.21692
739.0 0.001353 596.96558 713.72797
734.0 0.001362 596.95905 721.59558
717.0 0.001395 596.95142 729.66901
730.0 0.001370 596.94226 738.20038
762.0 0.001312 596.93164 746.23566
774.0 0.001292 596.91962 754.02441
827.0 0.001209 596.90625 761.43872
849.0 0.001178 596.89160 768.38116
825.0 0.001212 596.87524 774.80145
853.0 0.001172 596.85773 780.71429
861.0 0.001161 596.83868 786.20953
874.0 0.001144 596.81830 791.45898
926.0 0.001080 596.79651 796.70972
965.0 0.001036 596.77313 802.27045
956.0 0.001046 596.74835 808.49146
940.0 0.001064 596.72247 812.92719
958.0 0.001044 596.69470 821.65021
981.0 0.001019 596.66577 832.11285
959.0 0.001043 596.63531 844.62573
933.0 0.001072 596.60345 859.81000
939.0 0.001065 596.57013 877.15900
931.0 0.001074 596.53546 897.15283
956.0 0.001046 596.49927 919.83960
974.0 0.001027 596.46167 945.17645
950.0 0.001053 596.42249 973.02155
972.0 0.001029 596.38190 1003.12665
972.0 0.001029 596.34009 1035.13440
977.0 0.001024 596.29657 1068.57507
1035.0 0.000966 596.25177 1102.87646
1031.0 0.000970 596.20538 1137.37073
1041.0 0.000961 596.15753 1171.31873
1076.0 0.000929 596.10834 1203.93811
1075.0 0.000930 596.05768 1234.43726
1105.0 0.000905 596.00549 1262.04871
1144.0 0.000874 595.95203 1286.05896
1170.0 0.000855 595.89697 1305.82312
1204.0 0.000831 595.84045 1320.77466
1241.0 0.000806 595.78253 1330.43066
1269.0 0.000788 595.72308 1332.72021
1288.0 0.000776 595.66217 1330.79138
1315.0 0.000760 595.59991 1322.80090
1349.0 0.000741 595.53613 1308.83130
1376.0 0.000727 595.47095 1289.17883
1375.0 0.000727 595.40424 1264.35242
1340.0 0.000746 595.33618 1235.04199
1319.0 0.000758 595.26666 1202.06714
1306.0 0.000766 595.19550 1166.31274
1274.0 0.000785 595.12311 1128.68030
1237.0 0.000808 595.04913 1090.02979
1198.0 0.000835 594.97369 1051.15601
1159.0 0.000863 594.89697 1012.76733
1114.0 0.000898 594.81879 975.47546
1046.0 0.000956 594.73914 939.79193
1008.0 0.000992 594.65802 906.12866
982.0 0.001018 594.57556 874.80084
906.0 0.001104 594.49139 846.03046
853.0 0.001172 594.40607 819.95465
837.0 0.001195 594.31915 796.62994
819.0 0.001221 594.23083 778.16339
774.0 0.001292 594.14117 760.29474
737.0 0.001357 594.04999 744.96478
725.0 0.001379 593.95758 732.00635
725.0 0.001379 593.86377 721.21936
720.0 0.001389 593.76837 712.38153
706.0 0.001416 593.67175 705.25696
686.0 0.001458 593.57349 699.60254
672.0 0.001488 593.47394 695.17627
676.0 0.001479 593.37305 691.74243
691.0 0.001447 593.27063 689.07660
692.0 0.001445 593.16699 686.97321
673.0 0.001486 593.06177 685.24847
684.0 0.001462 592.95532 683.74860
702.0 0.001425 592.84753 682.35181
693.0 0.001443 592.73822 680.97272
664.0 0.001506 592.62775 679.56122
660.0 0.001515 592.51575 678.09955
678.0 0.001475 592.40247 676.59717
694.0 0.001441 592.28778 675.08179
701.0 0.001427 592.17181 672.68903
692.0 0.001445 592.05450 671.29834
683.0 0.001464 591.93585 670.02313
687.0 0.001456 591.81592 669.12762
676.0 0.001479 591.69452 668.20026
654.0 0.001529 591.57184 667.48199
644.0 0.001553 591.44806 666.98419
655.0 0.001527 591.32275 666.70483
650.0 0.001538 591.19623 666.63031
642.0 0.001558 591.06836 666.73438
645.0 0.001550 590.93933 666.97894
638.0 0.001567 590.80902 667.31396
636.0 0.001572 590.67737 667.68079
646.0 0.001548 590.54443 668.01324
662.0 0.001511 590.41022 668.24237
678.0 0.001475 590.27490 668.30042
659.0 0.001517 590.13824 668.12720
633.0 0.001580 590.00037 667.67542
647.0 0.001546 589.86121 666.91730
658.0 0.001520 589.72095 665.84784
658.0 0.001520 589.57941 664.48541
662.0 0.001511 589.43658 662.87201
676.0 0.001479 589.29266 661.06879
686.0 0.001458 589.14758 657.20795
675.0 0.001481 589.00140 655.31921
656.0 0.001524 588.85382 653.49664
676.0 0.001479 588.70526 651.84015
698.0 0.001433 588.55548 650.45148
705.0 0.001418 588.40466 649.43427
711.0 0.001406 588.25269 648.89191
709.0 0.001410 588.09937 648.92694
697.0 0.001435 587.94507 645.76569
688.0 0.001453 587.78973 647.36157
698.0 0.001433 587.63312 649.81921
708.0 0.001412 587.47565 653.22357
713.0 0.001403 587.31708 657.64905
721.0 0.001387 587.15723 663.15784
731.0 0.001368 586.99664 669.79797
722.0 0.001385 586.83478 677.59906
722.0 0.001385 586.67188 686.57050
756.0 0.001323 586.50812 696.69891
748.0 0.001337 586.34326 707.94403
735.0 0.001361 586.17749 720.23877
748.0 0.001337 586.01068 738.85852
751.0 0.001332 585.84271 753.06696
745.0 0.001342 585.67383 767.94391
746.0 0.001340 585.50415 783.29724
758.0 0.001319 585.33325 798.90210
761.0 0.001314 585.16156 814.50293
778.0 0.001285 584.98907 829.81488
795.0 0.001258 584.81555 844.52643
793.0 0.001261 584.64117 858.30499
828.0 0.001208 584.46594 870.80597
847.0 0.001181 584.28967 881.68427
831.0 0.001203 584.11267 890.61346
843.0 0.001186 583.93481 897.30688
867.0 0.001153 583.75598 901.54120
905.0 0.001105 583.57666 903.17944
946.0 0.001057 583.39612 902.18408
934.0 0.001071 583.21497 898.62341
914.0 0.001094 583.03308 892.66260
923.0 0.001083 582.85034 884.54681
946.0 0.001057 582.66669 874.57800
938.0 0.001066 582.48236 862.68274
914.0 0.001094 582.29755 850.03357
903.0 0.001107 582.11163 836.54962
898.0 0.001114 581.92548 822.93866
879.0 0.001138 581.73816 808.72589
846.0 0.001182 581.55035 794.55292
814.0 0.001229 581.36194 780.64728
786.0 0.001272 581.17279 767.20068
761.0 0.001314 580.98309 754.36920
744.0 0.001344 580.79242 742.27301
737.0 0.001357 580.60156 730.99951
720.0 0.001389 580.40985 720.60223
693.0 0.001443 580.21771 711.10767
670.0 0.001493 580.02478 702.51538
660.0 0.001515 579.83160 694.80701
654.0 0.001529 579.63763 687.94751
637.0 0.001570 579.44318 681.89594
612.0 0.001634 579.24829 676.60864
605.0 0.001653 579.05273 672.04694
615.0 0.001626 578.85693 668.18207
626.0 0.001597 578.66052 664.99792
625.0 0.001600 578.46375 662.49457
645.0 0.001550 578.26630 660.68884
650.0 0.001538 578.06866 659.61481
621.0 0.001610 577.87061 659.32275
646.0 0.001548 577.67200 659.87921
662.0 0.001511 577.47308 661.36603
656.0 0.001524 577.27386 663.87842
680.0 0.001471 577.07428 667.52490
665.0 0.001504 576.87445 672.42358
673.0 0.001486 576.67413 678.70099
730.0 0.001370 576.47357 686.48816
728.0 0.001374 576.27283 695.56500
731.0 0.001368 576.07172 706.77173
747.0 0.001339 575.87036 719.90491
736.0 0.001359 575.66882 734.99164
745.0 0.001342 575.46710 752.15326
757.0 0.001321 575.26508 771.44574
755.0 0.001325 575.06305 792.89233
761.0 0.001314 574.86053 816.47668
790.0 0.001266 574.65808 842.13885
814.0 0.001229 574.45563 869.76825
813.0 0.001230 574.25275 899.20093
812.0 0.001232 574.04987 930.21661
822.0 0.001217 573.84698 962.53564
840.0 0.001190 573.64404 995.81769
865.0 0.001156 573.44092 1029.66296
879.0 0.001138 573.23785 1063.60999
895.0 0.001117 573.03467 1097.14185
924.0 0.001082 572.83179 1129.68762
957.0 0.001045 572.62866 1160.62903
1004.0 0.000996 572.42566 1189.31482
1049.0 0.000953 572.22272 1215.07629
1072.0 0.000933 572.01965 1237.25330
1100.0 0.000909 571.81683 1255.22839
1149.0 0.000870 571.61414 1268.46667
1204.0 0.000831 571.41168 1276.55688
1227.0 0.000815 571.20923 1279.24854
1229.0 0.000814 571.00690 1277.55273
1254.0 0.000797 570.80481 1269.47131
1304.0 0.000767 570.60297 1256.36353
1291.0 0.000775 570.40118 1238.68701
1294.0 0.000773 570.19958 1217.00867
1313.0 0.000762 569.99835 1191.96448
1270.0 0.000787 569.79736 1164.21790
1285.0 0.000778 569.59668 1134.42871
1269.0 0.000788 569.39642 1104.40845
1170.0 0.000855 569.19629 1072.41772
1167.0 0.000857 568.99634 1040.14404
1160.0 0.000862 568.79736 1008.06433
1099.0 0.000910 568.59827 976.59039
1036.0 0.000965 568.39948 943.96112
987.0 0.001013 568.20135 914.72980
956.0 0.001046 568.00348 886.95099
933.0 0.001072 567.80615 860.78174
891.0 0.001122 567.60931 836.32062
817.0 0.001224 567.41302 813.61298
763.0 0.001311 567.21698 792.65729
765.0 0.001307 567.02161 773.41382
764.0 0.001309 566.82672 755.81110
716.0 0.001397 566.63251 739.75702
657.0 0.001522 566.43872 725.14423
655.0 0.001527 566.24561 711.86108
671.0 0.001490 566.05316 699.79346
663.0 0.001508 565.86108 688.83197
630.0 0.001587 565.66998 678.87305
616.0 0.001623 565.47943 669.82019
634.0 0.001577 565.28937 661.58496
656.0 0.001524 565.10016 654.08777
653.0 0.001531 564.91174 647.25592
649.0 0.001541 564.72400 641.02570
651.0 0.001536 564.53693 635.34064
641.0 0.001560 564.35077 630.15179
606.0 0.001650 564.16516 625.41681
604.0 0.001656 563.98059 620.87042
622.0 0.001608 563.79694 616.94794
619.0 0.001616 563.61377 613.38782
630.0 0.001587 563.43170 610.16913
626.0 0.001597 563.25061 607.37891
603.0 0.001658 563.07013 604.79413
601.0 0.001664 562.89075 602.50507
602.0 0.001661 562.71228 600.50043
597.0 0.001675 562.53467 598.77063
600.0 0.001667 562.35828 597.30817
622.0 0.001608 562.18274 596.10645
630.0 0.001587 562.00800 595.16022
619.0 0.001616 561.83466 594.46771
610.0 0.001639 561.66217 594.02698
604.0 0.001656 561.49060 593.83978
603.0 0.001658 561.32043 593.91071
606.0 0.001650 561.15112 594.24579
608.0 0.001645 560.98291 594.85516
615.0 0.001626 560.81586 595.75214
614.0 0.001629 560.65021 596.95325
597.0 0.001675 560.48547 598.47766
608.0 0.001645 560.32196 600.34851
618.0 0.001618 560.15973 602.59155
612.0 0.001634 559.99860 605.23553
624.0 0.001603 559.83881 608.31140
641.0 0.001560 559.68011 611.85193
642.0 0.001558 559.52283 615.89148
631.0 0.001585 559.36682 620.46411
647.0 0.001546 559.21204 627.05389
645.0 0.001550 559.05884 632.82440
639.0 0.001565 558.90680 639.22064
674.0 0.001484 558.75586 646.26514
660.0 0.001515 558.60681 653.97333
640.0 0.001563 558.45886 662.35010
669.0 0.001495 558.31219 671.39081
695.0 0.001439 558.16730 681.07898
680.0 0.001471 558.02356 691.38312
659.0 0.001517 557.88135 702.25720
676.0 0.001479 557.74060 713.64032
683.0 0.001464 557.60144 725.45294
691.0 0.001447 557.46368 732.26367
708.0 0.001412 557.32758 744.76093
716.0 0.001397 557.19293 757.34137
730.0 0.001370 557.05975 769.85645
735.0 0.001361 556.92841 782.14447
722.0 0.001385 556.79852 794.02924
740.0 0.001351 556.67004 805.32813
758.0 0.001319 556.54346 815.85675
766.0 0.001305 556.41840 825.43274
785.0 0.001274 556.29498 833.88586
803.0 0.001245 556.17328 841.06238
815.0 0.001227 556.05310 846.83118
823.0 0.001215 555.93488 851.08728
830.0 0.001205 555.81818 853.75415
855.0 0.001170 555.70319 854.78381
858.0 0.001166 555.59009 854.15759
822.0 0.001217 555.47876 851.88593
833.0 0.001200 555.36926 848.00903
853.0 0.001172 555.26129 842.59692
859.0 0.001164 555.15533 836.49060
878.0 0.001139 555.05127 828.35181
865.0 0.001156 554.94891 819.05908
855.0 0.001170 554.84827 808.78375
866.0 0.001155 554.74957 797.71051
840.0 0.001190 554.65295 786.02936
817.0 0.001224 554.55792 773.92871
807.0 0.001239 554.46497 761.59155
792.0 0.001263 554.37402 749.18958
790.0 0.001266 554.28485 736.88031
791.0 0.001264 554.19769 724.80566
776.0 0.001289 554.11237 713.09149
742.0 0.001348 554.02917 701.84644
733.0 0.001364 553.94794 691.16223
724.0 0.001381 553.86877 681.11481
692.0 0.001445 553.79138 671.76471
690.0 0.001449 553.71619 663.15845
684.0 0.001462 553.64301 655.32953
672.0 0.001488 553.57196 648.29944
683.0 0.001464 553.50287 642.07947
689.0 0.001451 553.43597 636.67188
680.0 0.001471 553.37103 631.79938
666.0 0.001502 553.30823 627.99945
663.0 0.001508 553.24744 624.97821
688.0 0.001453 553.18890 623.11163
695.0 0.001439 553.13257 621.59143
666.0 0.001502 553.07825 620.78174
670.0 0.001493 553.02600 620.65619
679.0 0.001473 552.97614 621.18982
666.0 0.001502 552.92841 622.35675
652.0 0.001534 552.88275 624.13239
672.0 0.001488 552.83948 626.49310
665.0 0.001504 552.79810 629.41541
641.0 0.001560 552.75916 632.87708
683.0 0.001464 552.72272 636.85474
687.0 0.001456 552.68805 641.32269
663.0 0.001508 552.65582 646.25385
665.0 0.001504 552.62592 651.61639
673.0 0.001486 552.59814 657.37341
681.0 0.001468 552.57275 663.48218
680.0 0.001471 552.54956 669.89276
668.0 0.001497 552.52875 676.54803
657.0 0.001522 552.51031 683.38226
669.0 0.001495 552.49420 690.32184
690.0 0.001449 552.48029 697.28418
686.0 0.001458 552.46881 704.17920
694.0 0.001441 552.45959 710.90912
694.0 0.001441 552.45282 717.36835
673.0 0.001486 552.44818 723.44653
679.0 0.001473 552.44617 729.03070
697.0 0.001435 552.44641 734.00616
694.0 0.001441 552.44922 738.26410
679.0 0.001473 552.45416 741.70319
718.0 0.001393 552.46155 744.19806
731.0 0.001368 552.47150 745.76300
709.0 0.001410 552.48352 746.31683
726.0 0.001377 552.49829 745.84851
732.0 0.001366 552.51544 744.37683
718.0 0.001393 552.53497 741.94977
710.0 0.001408 552.55682 738.64160
733.0 0.001364 552.58142 734.54865
749.0 0.001335 552.60822 729.78229
742.0 0.001348 552.63757 724.46472
728.0 0.001374 552.66937 718.72351
716.0 0.001397 552.70343 712.68573
709.0 0.001410 552.74042 706.96936
709.0 0.001410 552.77924 700.71967
709.0 0.001410 552.82104 694.53223
676.0 0.001479 552.86517 688.51038
669.0 0.001495 552.91180 682.74908
691.0 0.001447 552.96075 677.33228
679.0 0.001473 553.01257 672.33405
680.0 0.001471 553.06665 667.81549
672.0 0.001488 553.12329 663.82788
642.0 0.001558 553.18231 660.40973
634.0 0.001577 553.24396 657.58820
632.0 0.001582 553.30804 655.37817
637.0 0.001570 553.37482 652.70837
649.0 0.001541 553.44397 651.74658
638.0 0.001567 553.51556 651.37457
628.0 0.001592 553.58978 651.96289
628.0 0.001592 553.66638 652.68622
634.0 0.001577 553.74561 653.89056
655.0 0.001527 553.82745 655.52289
644.0 0.001553 553.91180 657.52386
614.0 0.001629 553.99847 658.65082
624.0 0.001603 554.08783 661.21423
637.0 0.001570 554.17981 663.93567
644.0 0.001553 554.27411 666.73834
649.0 0.001541 554.37109 669.54443
647.0 0.001546 554.47058 672.27557
654.0 0.001529 554.57251 674.85620
661.0 0.001513 554.67694 677.21588
662.0 0.001511 554.78406 679.29138
670.0 0.001493 554.89368 681.02924
677.0 0.001477 555.00574 682.38873
681.0 0.001468 555.12036 683.34338
681.0 0.001468 555.23761 683.88214
675.0 0.001481 555.35730 684.00793
660.0 0.001515 555.47943 683.73822
660.0 0.001515 555.60419 683.10144
678.0 0.001475 555.73138 682.13440
652.0 0.001534 555.86115 680.88000
645.0 0.001550 555.99335 679.38324
661.0 0.001513 556.12817 677.69019
652.0 0.001534 556.26544 675.84406
650.0 0.001538 556.40509 673.88525
650.0 0.001538 556.54742 671.84967
646.0 0.001548 556.69220 669.76752
648.0 0.001543 556.83960 667.66339
659.0 0.001517 556.98920 665.55591
666.0 0.001502 557.14142 663.45770
672.0 0.001488 557.29620 661.37579
684.0 0.001462 557.45337 659.31152
652.0 0.001534 557.61310 657.26147
636.0 0.001572 557.77521 655.21869
657.0 0.001522 557.93970 653.17322
642.0 0.001558 558.10675 651.00934
642.0 0.001558 558.27631 648.92841
669.0 0.001495 558.44818 646.81390
678.0 0.001475 558.62274 644.66058
634.0 0.001577 558.79938 642.46661
635.0 0.001575 558.97870 640.93951
651.0 0.001536 559.16016 638.69305
632.0 0.001582 559.34424 636.43225
647.0 0.001546 559.53082 634.17383
645.0 0.001550 559.71960 631.93787
636.0 0.001572 559.91089 629.74695
650.0 0.001538 560.10443 627.62476
651.0 0.001536 560.30042 625.59460
663.0 0.001508 560.49878 623.68036
662.0 0.001511 560.69946 621.90430
625.0 0.001600 560.90265 620.28802
615.0 0.001626 561.10803 618.85095
614.0 0.001629 561.31573 617.61078
613.0 0.001631 561.52576 616.58356
613.0 0.001631 561.73816 615.78290
599.0 0.001669 561.95282 615.21960
617.0 0.001621 562.16956 614.90198
647.0 0.001546 562.38898 614.83636
635.0 0.001575 562.61053 615.02533
617.0 0.001621 562.83429 615.46832
606.0 0.001650 563.06024 616.16260
605.0 0.001653 563.28857 617.10211
616.0 0.001623 563.51904 618.27704
634.0 0.001577 563.75177 619.67560
622.0 0.001608 563.98669 621.28253
605.0 0.001653 564.22375 623.07977
620.0 0.001613 564.46313 625.05591
615.0 0.001626 564.70465 627.17017
627.0 0.001595 564.94836 629.40576
640.0 0.001563 565.19403 631.73529
613.0 0.001631 565.44208 634.12964
597.0 0.001675 565.69202 636.55804
618.0 0.001618 565.94427 638.98914
623.0 0.001605 566.19849 641.39099
636.0 0.001572 566.45496 645.51794
650.0 0.001538 566.71326 647.80127
644.0 0.001553 566.97400 649.96771
626.0 0.001597 567.23627 650.98688
633.0 0.001580 567.50085 652.87067
649.0 0.001541 567.76752 654.58008
648.0 0.001543 568.03607 656.10730
633.0 0.001580 568.30664 657.45154
617.0 0.001621 568.57928 658.61694
634.0 0.001577 568.85376 659.61322
646.0 0.001548 569.13025 660.45392
614.0 0.001629 569.40869 661.15533
639.0 0.001565 569.68878 661.73523
647.0 0.001546 569.97113 662.21204
639.0 0.001565 570.25525 662.60236
659.0 0.001517 570.54126 662.92175
642.0 0.001558 570.82910 663.18323
619.0 0.001616 571.11877 663.39685
621.0 0.001610 571.41016 663.56940
638.0 0.001567 571.70343 663.70514
636.0 0.001572 571.99860 663.80408
647.0 0.001546 572.29547 663.86383
657.0 0.001522 572.59412 663.87866
651.0 0.001536 572.89429 663.84070
654.0 0.001529 573.19659 663.89929
632.0 0.001582 573.50024 663.72797
631.0 0.001585 573.80585 663.47241
661.0 0.001513 574.11273 663.12195
651.0 0.001536 574.42157 662.66974
652.0 0.001534 574.73206 662.11017
647.0 0.001546 575.04419 661.44293
639.0 0.001565 575.35779 660.67157
661.0 0.001513 575.67297 659.80548
651.0 0.001536 575.98981 658.85852
646.0 0.001548 576.30811 657.84930
665.0 0.001504 576.62793 656.05908
666.0 0.001502 576.94934 655.01074
676.0 0.001479 577.27228 653.97504
686.0 0.001458 577.59637 652.98029
679.0 0.001473 577.92224 652.05603
662.0 0.001511 578.24939 651.22992
662.0 0.001511 578.57800 650.52966
668.0 0.001497 578.90820 649.98157
667.0 0.001499 579.23950 649.60876
657.0 0.001522 579.57233 649.43384
643.0 0.001555 579.90619 649.47540
654.0 0.001529 580.24176 649.75085
674.0 0.001484 580.57831 650.27386
666.0 0.001502 580.91644 651.05524
655.0 0.001527 581.25555 652.10260
651.0 0.001536 581.59595 653.55713
660.0 0.001515 581.93787 655.14990
677.0 0.001477 582.28040 657.01190
674.0 0.001484 582.62463 659.13928
686.0 0.001458 582.96985 661.52240
710.0 0.001408 583.31598 664.14941
705.0 0.001418 583.66351 667.00635
701.0 0.001427 584.01202 670.07471
705.0 0.001418 584.36169 673.33459
723.0 0.001383 584.71234 676.36053
754.0 0.001326 585.06403 679.94061
770.0 0.001299 585.41687 683.63696
732.0 0.001366 585.77039 687.42108
708.0 0.001412 586.12500 691.26349
777.0 0.001287 586.48059 695.13458
787.0 0.001271 586.83710 699.00421
775.0 0.001290 587.19446 702.84375
786.0 0.001272 587.55273 706.62671
782.0 0.001279 587.91193 710.32971
786.0 0.001272 588.27191 713.93359
792.0 0.001263 588.63275 717.42566
799.0 0.001252 588.99432 720.79932
823.0 0.001215 589.35663 724.05542
824.0 0.001214 589.71973 727.20313
813.0 0.001230 590.08362 730.25885
810.0 0.001235 590.44818 733.24597
811.0 0.001233 590.81335 736.19409
819.0 0.001221 591.17914 739.13660
811.0 0.001233 591.54572 742.11029
794.0 0.001259 591.91290 745.15179
821.0 0.001218 592.28070 748.29797
817.0 0.001224 592.64893 751.58203
792.0 0.001263 593.01776 755.03406
794.0 0.001259 593.38715 758.67926
808.0 0.001238 593.75708 762.53662
804.0 0.001244 594.12738 766.61859
780.0 0.001282 594.49841 770.93066
767.0 0.001304 594.86951 775.47028
791.0 0.001264 595.24139 780.22791
791.0 0.001264 595.61340 785.18530
773.0 0.001294 595.98572 790.31622
789.0 0.001267 596.35876 795.58771
799.0 0.001252 596.73181 800.95703
818.0 0.001222 597.10529 806.37488
840.0 0.001190 597.47919 812.47406
831.0 0.001203 597.85297 817.82294
823.0 0.001215 598.22723 823.03052
821.0 0.001218 598.60175 828.02118
831.0 0.001203 598.97656 832.71606
864.0 0.001157 599.35138 837.03333
867.0 0.001153 599.72638 840.89172
858.0 0.001166 600.10138 843.71808
872.0 0.001147 600.47662 846.43402
888.0 0.001126 600.85187 848.46912
869.0 0.001151 601.22748 849.76740
862.0 0.001160 601.60284 850.28577
900.0 0.001111 601.97821 849.99634
887.0 0.001127 602.35376 848.88916
863.0 0.001159 602.72919 846.96991
868.0 0.001152 603.10461 844.26184
880.0 0.001136 603.47974 841.77380
869.0 0.001151 603.85510 837.63086
875.0 0.001143 604.23010 832.84998
886.0 0.001129 604.60516 827.50140
844.0 0.001185 604.97998 821.65924
837.0 0.001195 605.35480 815.40082
848.0 0.001179 605.72925 808.80371
831.0 0.001203 606.10352 801.94489
800.0 0.001250 606.47754 794.89807
758.0 0.001319 606.85132 787.73389
751.0 0.001332 607.22473 780.51886
781.0 0.001280 607.59796 773.31482
733.0 0.001364 607.97089 766.17798
695.0 0.001439 608.34357 759.15955
714.0 0.001401 608.71558 752.30469
734.0 0.001362 609.08740 745.65393
710.0 0.001408 609.45880 739.24115
682.0 0.001466 609.82983 733.09509
680.0 0.001471 610.20013 727.23828
676.0 0.001479 610.57031 721.68890
677.0 0.001477 610.93988 716.45874
688.0 0.001453 611.30908 711.55511
697.0 0.001435 611.67767 706.98041
679.0 0.001473 612.04553 702.73279
670.0 0.001493 612.41309 698.80707
663.0 0.001508 612.77991 694.78961
636.0 0.001572 613.14618 691.48480
649.0 0.001541 613.51202 688.46710
671.0 0.001490 613.87695 685.72064
663.0 0.001508 614.24133 683.22919
644.0 0.001553 614.60504 680.97595
647.0 0.001546 614.96808 678.94446
648.0 0.001543 615.33020 677.11768
638.0 0.001567 615.69208 675.48077
667.0 0.001499 616.05280 674.01813
665.0 0.001504 616.41266 672.71631
627.0 0.001595 616.77203 671.56293
612.0 0.001634 617.13049 670.54614
628.0 0.001592 617.48828 669.65466
641.0 0.001560 617.84503 668.87866
640.0 0.001563 618.20093 668.20856
644.0 0.001553 618.55597 667.63580
628.0 0.001592 618.91016 667.15240
613.0 0.001631 619.26349 666.75049
624.0 0.001603 619.61591 666.42340
631.0 0.001585 619.96729 666.16394
643.0 0.001555 620.31781 668.62927
645.0 0.001550 620.66736 668.52875
618.0 0.001618 621.01569 668.48004
612.0 0.001634 621.36353 668.47876
627.0 0.001595 621.70978 668.51971
639.0 0.001565 622.05536 668.60071
638.0 0.001567 622.39972 668.71832
640.0 0.001563 622.74316 668.87128
651.0 0.001536 623.08539 669.05811
654.0 0.001529 623.42657 669.27979
630.0 0.001587 623.76672 669.53766
630.0 0.001587 624.10565 669.83459
657.0 0.001522 624.44354 670.17468
666.0 0.001502 624.78033 670.56323
672.0 0.001488 625.11584 671.00653
670.0 0.001493 625.45026 671.51208
661.0 0.001513 625.78333 672.08813
672.0 0.001488 626.11530 672.74359
675.0 0.001481 626.44611 673.48743
677.0 0.001477 626.77551 674.32947
695.0 0.001439 627.10376 675.27826
691.0 0.001447 627.43091 675.63141
697.0 0.001435 627.75665 676.83496
710.0 0.001408 628.08124 678.17212
681.0 0.001468 628.40442 679.64984
708.0 0.001412 628.72638 681.27582
736.0 0.001359 629.04694 683.05640
689.0 0.001451 629.36621 684.99603
681.0 0.001468 629.68433 687.66278
680.0 0.001471 630.00085 689.94171
682.0 0.001466 630.31610 692.39032
722.0 0.001385 630.63013 695.00922
719.0 0.001391 630.94257 697.79828
703.0 0.001422 631.25391 700.75635
714.0 0.001401 631.56384 703.88055
702.0 0.001425 631.87213 707.16650
704.0 0.001420 632.17908 710.60858
720.0 0.001389 632.48468 714.20087
716.0 0.001397 632.78912 717.93445
742.0 0.001348 633.09174 721.79950
762.0 0.001312 633.39301 725.78522
750.0 0.001333 633.69287 729.87909
757.0 0.001321 633.99121 734.06702
758.0 0.001319 634.28839 738.33423
756.0 0.001323 634.58386 742.66370
770.0 0.001299 634.87793 747.03772
772.0 0.001295 635.17041 751.43817
776.0 0.001289 635.46161 755.83685
790.0 0.001266 635.75122 760.23187
794.0 0.001259 636.03925 764.59497
795.0 0.001258 636.32593 768.90741
800.0 0.001250 636.61102 773.15112
808.0 0.001238 636.89465 777.31097
817.0 0.001224 637.17682 781.37238
804.0 0.001244 637.45734 785.32404
787.0 0.001271 637.73663 787.35278
807.0 0.001239 638.01398 791.09576
807.0 0.001239 638.29022 794.71259
800.0 0.001250 638.56458 798.20203
820.0 0.001220 638.83759 801.56744
829.0 0.001206 639.10895 804.81293
824.0 0.001214 639.37885 807.94379
822.0 0.001217 639.64716 810.96613
836.0 0.001196 639.91412 813.88574
837.0 0.001195 640.17932 817.12482
822.0 0.001217 640.44312 819.85992
805.0 0.001242 640.70520 822.50433
802.0 0.001247 640.96594 825.06036
820.0 0.001220 641.22522 827.52698
850.0 0.001176 641.48260 829.90118
864.0 0.001157 641.73883 832.17950
838.0 0.001193 641.99323 834.35577
814.0 0.001229 642.24615 836.42255
825.0 0.001212 642.49768 838.37201
838.0 0.001193 642.74750 840.19507
830.0 0.001205 642.99585 841.88312
817.0 0.001224 643.24268 843.42865
820.0 0.001220 643.48798 844.82556
806.0 0.001241 643.73181 846.07013
808.0 0.001238 643.97388 847.16180
840.0 0.001190 644.21478 848.10529
834.0 0.001199 644.45367 848.90771
829.0 0.001206 644.69147 849.58453
829.0 0.001206 644.92761 850.15375
808.0 0.001238 645.16223 850.63989
820.0 0.001220 645.39520 851.07196
840.0 0.001190 645.62695 851.48413
838.0 0.001193 645.85706 851.91266
846.0 0.001182 646.08557 852.39764
826.0 0.001211 646.31268 852.98047
813.0 0.001230 646.53845 853.70306
861.0 0.001161 646.76257 856.35754
849.0 0.001178 646.98517 857.50562
823.0 0.001215 647.20648 859.08447
851.0 0.001175 647.42621 860.79150
859.0 0.001164 647.64459 862.82751
839.0 0.001192 647.86121 865.22095
821.0 0.001218 648.07684 867.99689
829.0 0.001206 648.29083 871.17511
819.0 0.001221 648.50348 874.77130
799.0 0.001252 648.71454 878.63599
803.0 0.001245 648.92401 883.09637
828.0 0.001208 649.13245 887.99091
818.0 0.001222 649.33948 893.31305
805.0 0.001242 649.54492 899.05170
859.0 0.001164 649.74915 905.19061
858.0 0.001166 649.95184 911.70648
837.0 0.001195 650.15326 918.57190
862.0 0.001160 650.35321 925.75262
879.0 0.001138 650.55206 933.20990
889.0 0.001125 650.74969 940.89832
895.0 0.001117 650.94556 948.76740
892.0 0.001121 651.14032 956.76215
900.0 0.001111 651.33386 964.82257
921.0 0.001086 651.52588 972.88318
946.0 0.001057 651.71692 980.87573
972.0 0.001029 651.90656 988.72760
979.0 0.001021 652.09497 996.36346
983.0 0.001017 652.28192 1003.70551
1009.0 0.000991 652.46796 1010.67664
1014.0 0.000986 652.65259 1017.19836
1007.0 0.000993 652.83588 1023.19440
1011.0 0.000989 653.01825 1028.59338
1013.0 0.000987 653.19928 1033.32715
1036.0 0.000965 653.37927 1037.33606
1074.0 0.000931 653.55804 1040.56824
1087.0 0.000920 653.73547 1042.84460
1059.0 0.000944 653.91199 1044.41309
1043.0 0.000959 654.08728 1045.11536
1072.0 0.000933 654.26141 1044.94629
1086.0 0.000921 654.43451 1043.91357
1097.0 0.000912 654.60657 1042.03589
1105.0 0.000905 654.77753 1039.34302
1084.0 0.000923 654.94739 1035.87317
1075.0 0.000930 655.11633 1031.67395
1087.0 0.000920 655.28406 1026.79529
1097.0 0.000912 655.45099 1021.29877
1087.0 0.000920 655.61658 1015.24146
1061.0 0.000943 655.78137 1008.68488
1049.0 0.000953 655.94525 1001.69012
1075.0 0.000930 656.10809 994.31696
1065.0 0.000939 656.26990 986.62341
1028.0 0.000973 656.43091 978.66559
1015.0 0.000985 656.59100 970.49591
1018.0 0.000982 656.75018 962.16370
1017.0 0.000983 656.90839 953.71497
998.0 0.001002 657.06573 945.19232
969.0 0.001032 657.22229 936.63409
959.0 0.001043 657.37805 928.07654
940.0 0.001064 657.53284 919.55103
889.0 0.001125 657.68683 911.39148
873.0 0.001145 657.84003 903.01892
884.0 0.001131 657.99268 894.75824
898.0 0.001114 658.14417 886.63098
907.0 0.001103 658.29523 878.65686
895.0 0.001117 658.44531 870.85419
867.0 0.001153 658.59479 863.24011
840.0 0.001190 658.74347 855.82996
814.0 0.001229 658.89154 848.63861
824.0 0.001214 659.03900 841.67999
855.0 0.001170 659.18555 834.96613
831.0 0.001203 659.33160 828.50989
795.0 0.001258 659.47705 822.32031
779.0 0.001284 659.62177 816.40765
781.0 0.001280 659.76587 810.77997
803.0 0.001245 659.90948 805.44415
814.0 0.001229 660.05261 800.40619
799.0 0.001252 660.19507 795.66980
787.0 0.001271 660.33685 791.23822
787.0 0.001271 660.47815 787.11365
790.0 0.001266 660.61908 782.59680
780.0 0.001282 660.75940 779.09875
769.0 0.001300 660.89929 775.90649
769.0 0.001300 661.03864 773.01782
772.0 0.001295 661.17761 770.42999
762.0 0.001312 661.31598 768.13953
764.0 0.001309 661.45410 766.14258
766.0 0.001305 661.59174 764.43469
739.0 0.001353 661.72888 763.01062
730.0 0.001370 661.86560 761.86566
742.0 0.001348 662.00214 760.99457
755.0 0.001325 662.13812 760.39111
764.0 0.001309 662.27386 760.04993
783.0 0.001277 662.40918 759.96503
793.0 0.001261 662.54431 760.13013
770.0 0.001299 662.67896 760.53912
764.0 0.001309 662.81335 761.18542
779.0 0.001284 662.94745 762.06293
793.0 0.001261 663.08136 763.16479
797.0 0.001255 663.21497 764.48419
802.0 0.001247 663.34833 766.01453
809.0 0.001236 663.48126 767.74866
811.0 0.001233 663.61420 769.68024
809.0 0.001236 663.74683 771.80170
825.0 0.001212 663.87927 774.10626
846.0 0.001182 664.01160 776.58728
808.0 0.001238 664.14337 779.23761
792.0 0.001263 664.27539 782.05157
816.0 0.001225 664.40692 785.02264
826.0 0.001211 664.53845 788.14557
862.0 0.001160 664.66998 791.41516
874.0 0.001144 664.80115 794.82666
831.0 0.001203 664.93219 798.37689
822.0 0.001217 665.06317 802.55353
842.0 0.001188 665.19415 806.37805
854.0 0.001171 665.32477 810.33362
845.0 0.001183 665.45538 814.41876
856.0 0.001168 665.58594 818.63263
858.0 0.001166 665.71643 821.99048
836.0 0.001196 665.84674 826.47241
856.0 0.001168 665.97699 831.07837
877.0 0.001140 666.10724 835.80573
867.0 0.001153 666.23737 840.65094
849.0 0.001178 666.36749 845.60968
863.0 0.001159 666.49750 850.67566
862.0 0.001160 666.62756 855.84161
827.0 0.001209 666.75745 861.09802
849.0 0.001178 666.88751 866.43396
857.0 0.001167 667.01715 871.83575
840.0 0.001190 667.14709 877.28906
860.0 0.001163 667.27686 882.77612
866.0 0.001155 667.40662 888.27795
874.0 0.001144 667.53644 893.77313
901.0 0.001110 667.66614 899.23816
886.0 0.001129 667.79572 905.24249
868.0 0.001152 667.92529 910.57593
873.0 0.001145 668.05499 915.79816
887.0 0.001127 668.18463 920.87836
910.0 0.001099 668.31409 925.78412
912.0 0.001096 668.44354 930.48303
901.0 0.001110 668.57306 934.94092
941.0 0.001063 668.70258 939.12292
941.0 0.001063 668.83197 942.99500
906.0 0.001104 668.96124 946.52197
929.0 0.001076 669.09058 949.67126
966.0 0.001035 669.21985 952.41028
980.0 0.001020 669.34912 954.70917
972.0 0.001029 669.47809 956.53986
964.0 0.001037 669.60706 957.87915
961.0 0.001041 669.73608 958.70642
972.0 0.001029 669.86505 959.00568
993.0 0.001007 669.99396 958.76599
974.0 0.001027 670.12262 957.98169
956.0 0.001046 670.25110 956.65259
980.0 0.001020 670.37976 954.78455
1008.0 0.000992 670.50800 952.38745
1017.0 0.000983 670.63611 949.47791
1009.0 0.000991 670.76440 946.07715
994.0 0.001006 670.89227 942.20917
967.0 0.001034 671.02002 937.90344
948.0 0.001055 671.14746 933.19135
961.0 0.001041 671.27496 928.10760
995.0 0.001005 671.40204 922.68762
980.0 0.001020 671.52893 916.96887
948.0 0.001055 671.65564 908.31396
965.0 0.001036 671.78223 902.15112
960.0 0.001042 671.90820 895.80121
950.0 0.001053 672.03418 889.30182
941.0 0.001063 672.15973 882.68829
902.0 0.001109 672.28497 875.99579
924.0 0.001082 672.40997 869.25739
946.0 0.001057 672.53448 862.50513
885.0 0.001130 672.65869 855.76941
853.0 0.001172 672.78253 849.07898
866.0 0.001155 672.90601 842.46033
881.0 0.001135 673.02869 835.93823
856.0 0.001168 673.15131 829.53668
826.0 0.001211 673.27338 823.27643
821.0 0.001218 673.39490 817.75269
823.0 0.001215 673.51587 811.83740
785.0 0.001274 673.63623 806.11584
766.0 0.001305 673.75616 800.60254
776.0 0.001289 673.87549 795.30853
767.0 0.001304 673.99408 790.24414
742.0 0.001348 674.11200 785.41785
727.0 0.001376 674.22937 780.83624
741.0 0.001350 674.34589 776.50385
769.0 0.001300 674.46185 772.42419
762.0 0.001312 674.57690 768.59894
730.0 0.001370 674.69128 765.02820
714.0 0.001401 674.80475 761.71082
703.0 0.001422 674.91730 758.64423
702.0 0.001425 675.02917 755.82507
710.0 0.001408 675.14014 753.24835
709.0 0.001410 675.24988 750.90778
713.0 0.001403 675.35876 748.79694
708.0 0.001412 675.46686 746.90851
690.0 0.001449 675.57361 745.23334
703.0 0.001422 675.67950 743.76331
700.0 0.001429 675.78406 742.48810
680.0 0.001471 675.88757 741.40631
701.0 0.001427 675.99005 740.49115
713.0 0.001403 676.09125 739.73987
711.0 0.001406 676.19122 739.14178
710.0 0.001408 676.28992 738.68555
700.0 0.001429 676.38721 738.35974
698.0 0.001433 676.48309 738.15363
709.0 0.001410 676.57770 738.05542
726.0 0.001377 676.67084 738.05463
740.0 0.001351 676.76245 738.13983
744.0 0.001344 676.85266 738.30042
737.0 0.001357 676.94110 738.52563
724.0 0.001381 677.02802 738.80566
710.0 0.001408 677.11340 738.70984
708.0 0.001412 677.19702 739.07532
716.0 0.001397 677.27905 739.46729
715.0 0.001399 677.35931 739.87701
721.0 0.001387 677.43774 740.29718
732.0 0.001366 677.51434 740.72040
730.0 0.001370 677.58899 741.14056
730.0 0.001370 677.66180 741.55231
717.0 0.001395 677.73260 741.95074
709.0 0.001410 677.80157 742.33240
750.0 0.001333 677.86841 742.69434
758.0 0.001319 677.93286 743.03461
742.0 0.001348 677.99567 743.35315
740.0 0.001351 678.05585 743.64856
710.0 0.001408 678.11401 743.92273
709.0 0.001410 678.16992 744.17719
749.0 0.001335 678.22363 744.41400
769.0 0.001300 678.27484 744.63635
738.0 0.001355 678.32361 744.84753
718.0 0.001393 678.37012 745.05182
740.0 0.001351 678.41418 745.25354
753.0 0.001328 678.45544 745.45685
755.0 0.001325 678.49432 745.66675
735.0 0.001361 678.53070 745.88818
710.0 0.001408 678.56427 746.12567
750.0 0.001333 678.59528 746.38440
781.0 0.001280 678.62347 746.66852
765.0 0.001307 678.64893 746.98248
743.0 0.001346 678.67151 747.33087
737.0 0.001357 678.69128 747.71716
752.0 0.001330 678.70819 748.14539
760.0 0.001316 678.72223 748.61853
728.0 0.001374 678.73309 749.13977
704.0 0.001420 678.74097 749.71130
721.0 0.001387 678.74597 750.33588
753.0 0.001328 678.74768 751.01465
743.0 0.001346 678.74652 752.26801
772.0 0.001295 678.74200 753.06433
801.0 0.001248 678.73444 753.49719
764.0 0.001309 678.72333 754.41382
783.0 0.001277 678.70935 755.38751
788.0 0.001269 678.69171 756.41669
766.0 0.001305 678.67090 757.50043
788.0 0.001269 678.64679 758.63672
777.0 0.001287 678.61908 759.82343
754.0 0.001326 678.58801 761.05774
763.0 0.001311 678.55359 762.33630
791.0 0.001264 678.51563 763.65558
784.0 0.001276 678.47418 765.01184
760.0 0.001316 678.42896 766.39941
764.0 0.001309 678.38043 767.81470
786.0 0.001272 678.32831 769.25220
778.0 0.001285 678.27252 770.70618
750.0 0.001333 678.21295 772.17102
746.0 0.001340 678.15002 773.64124
766.0 0.001305 678.08307 775.10999
784.0 0.001276 678.01263 776.57227
783.0 0.001277 677.93854 778.02155
776.0 0.001289 677.86066 779.45184
795.0 0.001258 677.77911 780.85785
782.0 0.001279 677.69391 782.23389
743.0 0.001346 677.60474 783.75128
760.0 0.001316 677.51196 785.05420
781.0 0.001280 677.41547 786.31348
787.0 0.001271 677.31512 787.52545
790.0 0.001266 677.21112 788.68671
799.0 0.001252 677.10327 789.79468
797.0 0.001255 676.99188 790.84760
798.0 0.001253 676.87653 791.84326
809.0 0.001236 676.75763 792.78076
796.0 0.001256 676.63489 793.65961
783.0 0.001277 676.50867 794.47906
787.0 0.001271 676.37854 795.23901
799.0 0.001252 676.24500 795.93958
802.0 0.001247 676.10773 796.58051
806.0 0.001241 675.96680 797.65930
805.0 0.001242 675.82233 798.18677
790.0 0.001266 675.67456 798.65540
790.0 0.001266 675.52301 799.06531
812.0 0.001232 675.36804 799.41663
807.0 0.001239 675.20984 799.70959
763.0 0.001311 675.04810 799.94293
809.0 0.001236 674.88324 800.11682
837.0 0.001195 674.71497 800.22992
806.0 0.001241 674.54352 800.28204
815.0 0.001227 674.36908 800.27209
820.0 0.001220 674.19141 800.19861
819.0 0.001221 674.01080 800.06061
829.0 0.001206 673.82745 799.85773
835.0 0.001198 673.64099 797.68420
793.0 0.001261 673.45197 797.37189
786.0 0.001272 673.26025 796.99133
820.0 0.001220 673.06592 796.54218
791.0 0.001264 672.86920 796.02484
812.0 0.001232 672.66992 795.43933
830.0 0.001205 672.46844 794.78693
793.0 0.001261 672.26501 794.06958
780.0 0.001282 672.05945 793.28906
777.0 0.001287 671.85205 792.44763
786.0 0.001272 671.64276 791.54889
806.0 0.001241 671.43201 790.59662
807.0 0.001239 671.21960 789.59521
798.0 0.001253 671.00592 788.54901
793.0 0.001261 670.79108 787.46350
793.0 0.001261 670.57507 786.34393
788.0 0.001269 670.35828 785.19611
798.0 0.001253 670.14093 784.02643
803.0 0.001245 669.92291 782.84058
781.0 0.001280 669.70471 781.64465
753.0 0.001328 669.48633 780.44476
768.0 0.001302 669.26794 779.24652
792.0 0.001263 669.04999 778.05652
794.0 0.001259 668.83246 776.87970
804.0 0.001244 668.61566 775.72131
782.0 0.001279 668.39984 774.58667
767.0 0.001304 668.18512 773.48004
781.0 0.001280 667.97192 772.40594
770.0 0.001299 667.76050 771.36841
771.0 0.001297 667.55084 770.37024
787.0 0.001271 667.34375 769.41528
791.0 0.001264 667.13898 768.50580
776.0 0.001289 666.93695 767.64374
765.0 0.001307 666.73822 766.83173
758.0 0.001319 666.54279 766.06989
754.0 0.001326 666.35126 765.36011
766.0 0.001305 666.16370 764.70227
781.0 0.001280 665.98047 764.09674
765.0 0.001307 665.80212 763.54340
733.0 0.001364 665.62885 763.04089
734.0 0.001362 665.46118 762.58862
733.0 0.001364 665.29932 762.18463
774.0 0.001292 665.14368 761.82709
801.0 0.001248 664.99487 761.51398
727.0 0.001376 664.85291 761.24194
738.0 0.001355 664.71869 761.00879
765.0 0.001307 664.59235 760.81061
756.0 0.001323 664.47437 760.64386
758.0 0.001319 664.36530 760.50488
753.0 0.001328 664.26581 760.38965
758.0 0.001319 664.17578 760.29309
767.0 0.001304 664.09637 760.21118
761.0 0.001314 664.02777 760.13922
758.0 0.001319 663.97064 760.07220
761.0 0.001314 663.92517 760.00531
755.0 0.001325 663.89233 759.93390
741.0 0.001350 663.87262 759.85321
749.0 0.001335 663.86646 759.75848
770.0 0.001299 663.87469 759.64526
763.0 0.001311 663.89758 759.50952
743.0 0.001346 663.93616 759.34717
772.0 0.001295 663.99072 759.15491
759.0 . . .
loop_
_refln_index_h
_refln_index_k
_refln_index_l
_refln_observed_status
_refln_F_squared_meas
_refln_F_squared_calc
_refln_phase_calc
_refln_d_spacing
_gsas_i100_meas
1 1 1 o 10.402 6.113 180.00 6.17325 3.66
2 2 0 o 6.000 7.881 0.00 3.78033 1.20
3 1 1 o 29.105 33.677 0.00 3.22388 8.51
2 2 2 o 344.841 351.951 0.00 3.08663 30.85
4 0 0 o 125.667 97.276 180.00 2.67310 6.37
3 3 1 o 46.034 49.655 180.00 2.45300 7.90
4 2 2 o 20.993 37.167 180.00 2.18257 2.88
3 3 3 o 231.023 236.559 180.00 2.05775 9.44
5 1 1 o 5.155 5.279 0.00 2.05775 0.63
4 4 0 o 1915.285 1827.070 0.00 1.89016 100.00
5 3 1 o 11.898 0.802 0.00 1.80734 2.29
4 4 2 o 0.682 0.024 180.00 1.78206 0.06
6 2 0 o 16.490 5.310 0.00 1.69061 1.40
5 3 3 o 39.966 38.796 0.00 1.63057 3.17
6 2 2 o 303.983 314.724 0.00 1.61194 23.64
4 4 4 o 2.338 11.370 180.00 1.54331 0.06
7 1 1 o 13.594 15.212 180.00 1.49723 0.92
5 5 1 o 76.235 85.311 180.00 1.49723 5.19
6 4 2 o 0.000 0.474 0.00 1.42883 0.00
7 3 1 o 115.334 124.724 0.00 1.39203 13.80
5 5 3 o 2.116 2.288 180.00 1.39203 0.13
8 0 0 o 1585.158 1437.616 0.00 1.33655 22.09
7 3 3 o 153.434 142.936 0.00 1.30628 8.22
6 4 4 o 0.002 0.002 180.00 1.29664 0.00
6 6 0 o 62.745 56.400 180.00 1.26011 1.58
8 2 2 o 145.580 130.858 0.00 1.26011 7.34
5 5 5 o 77.947 65.747 0.00 1.23465 1.27
7 5 1 o 7.231 6.099 0.00 1.23465 0.70
6 6 2 o 263.339 275.671 0.00 1.22650 12.70
8 4 0 o 0.502 0.658 180.00 1.19545 0.02
7 5 3 o 23.821 26.146 180.00 1.17364 2.14
9 1 1 o 21.404 23.494 180.00 1.17364 0.96
8 4 2 o 0.054 0.049 180.00 1.16663 0.00
6 6 4 o 19.161 14.666 0.00 1.13981 0.82
9 3 1 o 0.030 3.059 0.00 1.12087 0.00
8 4 4 o 943.233 909.847 0.00 1.09129 37.79
7 7 1 o 61.113 77.955 180.00 1.07463 2.39
9 3 3 o 15.197 19.386 180.00 1.07463 0.59
7 5 5 o 3.606 4.600 0.00 1.07463 0.14
10 2 0 o 58.541 43.134 180.00 1.04847 2.21
8 6 2 o 54.088 39.853 180.00 1.04847 4.08
7 7 3 o 300.146 276.631 180.00 1.03367 11.10
9 5 1 o 22.506 20.743 0.00 1.03367 1.66
10 2 2 o 219.781 246.004 0.00 1.02888 8.08
6 6 6 o 230.366 257.853 0.00 1.02888 2.82
9 5 3 o 9.677 10.899 0.00 0.99707 0.68
8 6 4 o 0.069 0.060 180.00 0.99276 0.00
10 4 2 o 17.887 10.878 0.00 0.97608 1.22
7 7 5 o 52.127 59.037 0.00 0.96410 1.75
11 1 1 o 10.160 11.507 0.00 0.96410 0.34
8 8 0 o 696.702 685.489 0.00 0.94508 11.44
9 5 5 o 121.679 131.812 180.00 0.93420 3.94
11 3 1 o 28.928 31.337 180.00 0.93420 1.87
9 7 1 o 2.452 2.656 180.00 0.93420 0.16
8 8 2 o 0.156 0.152 180.00 0.93065 0.01
10 4 4 o 0.032 0.031 180.00 0.93065 0.00
8 6 6 o 2.260 1.774 0.00 0.91686 0.07
10 6 0 o 135.341 106.260 0.00 0.91686 4.29
11 3 3 o 159.091 155.607 180.00 0.90692 4.98
9 7 3 o 36.278 35.484 0.00 0.90692 2.27
10 6 2 o 239.989 226.129 0.00 0.90367 14.96
8 8 4 o 48.700 47.550 0.00 0.89103 1.50
12 0 0 o 1.386 1.354 180.00 0.89103 0.01
7 7 7 o 166.416 151.226 0.00 0.88189 1.69
11 5 1 o 0.468 0.426 0.00 0.88189 0.03
10 6 4 o 67.032 64.284 180.00 0.86727 4.01
12 2 2 o 178.918 171.582 180.00 0.86727 5.35
11 5 3 o 13.336 15.298 0.00 0.85883 0.79
9 7 5 o 0.574 0.659 180.00 0.85883 0.03
12 4 0 o 695.261 737.926 0.00 0.84531 20.34
12 4 2 o 0.070 0.068 180.00 0.83494 0.00
8 8 6 o 0.051 0.050 180.00 0.83494 0.00
9 9 1 o 54.155 53.710 180.00 0.83749 1.57
10 8 2 o 3.690 3.210 0.00 0.82494 0.21
13 1 1 o 0.002 0.002 180.00 0.81767 0.00
11 7 1 o 81.413 81.061 0.00 0.81767 4.65
11 5 5 o 12.620 12.565 180.00 0.81767 0.36
9 9 3 o 0.292 0.291 180.00 0.81767 0.01
10 6 6 o 207.483 190.656 0.00 0.81529 5.92
12 4 4 o 21.324 16.622 0.00 0.80597 0.60
10 8 4 o 0.013 0.014 0.00 0.79696 0.00
13 3 1 o 5.337 5.480 180.00 0.79919 0.30
9 7 7 o 45.073 46.274 180.00 0.79919 1.27
11 7 3 o 82.619 84.819 0.00 0.79919 4.67
12 6 2 o 61.459 68.838 0.00 0.78825 3.45
9 9 5 o 34.277 33.654 0.00 0.78190 0.96
13 3 3 o 40.101 39.372 0.00 0.78190 1.12
8 8 8 o 226.793 263.269 0.00 0.77166 2.11
13 5 1 o 25.579 26.113 180.00 0.76570 1.43
11 7 5 o 15.591 15.917 180.00 0.76570 0.87
12 6 4 o 0.019 0.017 180.00 0.76374 0.00
10 10 0 o 262.834 196.212 180.00 0.75607 3.68
10 8 6 o 6.502 4.854 0.00 0.75607 0.36
14 2 0 o 47.058 35.130 0.00 0.75607 1.32
11 9 1 o 0.416 0.374 180.00 0.75046 0.02
13 5 3 o 0.558 0.502 0.00 0.75046 0.03
14 2 2 o 183.013 176.531 0.00 0.74862 5.13
10 10 2 o 180.870 174.466 0.00 0.74862 5.07
12 8 0 o 22.938 36.179 0.00 0.74138 0.65
11 9 3 o 10.937 14.879 180.00 0.73609 0.62
9 9 7 o 0.343 0.466 0.00 0.73609 0.01
12 8 2 o 0.192 0.220 180.00 0.73436 0.01
10 10 4 o 112.460 106.224 0.00 0.72752 3.20
12 6 6 o 16.014 15.126 180.00 0.72752 0.46
14 4 2 o 13.156 12.427 180.00 0.72752 0.75
13 7 1 o 9.547 10.196 0.00 0.72252 0.55
13 5 5 o 16.861 18.007 0.00 0.72252 0.48
11 7 7 o 186.477 199.145 180.00 0.72252 5.34
12 8 4 o 306.085 306.699 0.00 0.71442 17.75
14 4 4 o 0.049 0.047 0.00 0.70812 0.00
10 8 8 o 0.095 0.091 180.00 0.70812 0.00
15 1 1 o 0.000 0.000 180.00 0.70968 0.00
13 7 3 o 60.055 57.745 180.00 0.70968 3.51
11 9 5 o 5.022 4.829 0.00 0.70968 0.29
14 6 0 o 114.105 102.893 180.00 0.70199 3.40
14 6 2 o 159.193 154.650 0.00 0.69602 9.64
10 10 6 o 176.346 171.313 0.00 0.69602 5.34
15 3 1 o 21.163 20.244 0.00 0.69749 1.28
13 7 5 o 0.884 1.052 180.00 0.68592 0.06
9 9 9 o 85.105 101.260 180.00 0.68592 0.89
11 11 1 o 12.929 15.384 180.00 0.68592 0.41
15 3 3 o 29.926 35.606 0.00 0.68592 0.94
12 8 6 o 0.068 0.075 180.00 0.68451 0.00
12 10 2 o 17.176 16.937 180.00 0.67897 1.11
14 6 4 o 47.866 47.201 0.00 0.67897 3.10
11 9 7 o 17.007 16.563 0.00 0.67490 1.13
13 9 1 o 1.697 1.653 0.00 0.67490 0.11
11 11 3 o 117.639 114.571 180.00 0.67490 3.90
15 5 1 o 8.745 8.517 180.00 0.67490 0.58
