#------------------------------------------------------------------------------
#$Date: 2016-03-21 01:21:50 +0200 (Mon, 21 Mar 2016) $
#$Revision: 178377 $
#$URL: svn://www.crystallography.net/cod/cif/4/00/11/4001189.cif $
#------------------------------------------------------------------------------
#
# This file is available in the Crystallography Open Database (COD),
# http://www.crystallography.net/
#
# All data on this site have been placed in the public domain by the
# contributors.
#
data_4001189
loop_
_publ_author_name
'Zhou, Yongkai'
'Adams, Stefan'
'Rao, R. Prasada'
'Edwards, Doreen D.'
'Neiman, Arkady'
'Pestereva, N.'
_publ_section_title
;
 Charge Transport by Polyatomic Anion Diffusion in Sc2(WO4)3
;
_journal_issue                   20
_journal_name_full               'Chemistry of Materials'
_journal_page_first              6335
_journal_paper_doi               10.1021/cm800466y
_journal_volume                  20
_journal_year                    2008
_chemical_formula_moiety         ' Sc2(WO4)3 '
_chemical_formula_sum            'O12 Sc2 W3'
_chemical_formula_weight         833.45
_chemical_melting_point          1913
_chemical_name_common            ' Scandium Tungstate '
_chemical_name_systematic        ' Scandium Tungstate '
_space_group_IT_number           60
_symmetry_cell_setting           orthorhombic
_symmetry_space_group_name_Hall  '-P 2a 2n'
_symmetry_space_group_name_H-M   'P n c a'
_audit_creation_date             2008-01-25T12:03
_audit_creation_method           'from EXP file using GSAS2CIF'
_audit_update_record
' 2008-01-25T12:03  Initial CIF as created by GSAS2CIF'
_cell_angle_alpha                90.0
_cell_angle_beta                 90.0
_cell_angle_gamma                90.0
_cell_formula_units_Z            4
_cell_length_a                   9.66691(6)
_cell_length_b                   13.33095(8)
_cell_length_c                   9.57804(6)
_cell_measurement_temperature    350
_cell_volume                     1234.313(13)
_computing_structure_refinement  GSAS
_diffrn_radiation_polarisn_ratio 0.68
_diffrn_radiation_probe          x-ray
_exptl_absorpt_correction_T_max  1.00000
_exptl_absorpt_correction_T_min  1.00000
_exptl_absorpt_process_details
;   GSAS Absorption/surface roughness correction: function number 0
 No correction is applied.
;
_pd_block_id
2008-01-25T12:03|T11K|Zhou_Yongkai|Philips_Xpert
_pd_calc_method                  'Rietveld Refinement'
_pd_instr_location               ' ?'
_pd_meas_2theta_range_inc        0.017
_pd_meas_2theta_range_max        119.9874
_pd_meas_2theta_range_min        10.0144
_pd_meas_number_of_points        6470
_pd_proc_2theta_range_inc        0.017
_pd_proc_2theta_range_max        119.9874
_pd_proc_2theta_range_min        10.0144
_pd_proc_info_datetime           2008-01-25T12:07:34
_pd_proc_info_excluded_regions   ' ?'
_pd_proc_ls_background_function
;   GSAS Background function number 1 with 12 terms.
 Shifted Chebyshev function of 1st kind
      1:    304.977     2:   -56.9476     3:    40.5009     4:    30.8173    
      5:   -12.7991     6:    14.1051     7:   -10.8634     8:    4.28675    
      9:    6.05841    10:   -18.9342    11:    17.0775    12:   -7.12058    
;
_pd_proc_ls_peak_cutoff          0.00250
_pd_proc_ls_pref_orient_corr
;   March-Dollase
 AXIS  1 Ratio=   0.94938  h= 0.000  k= 1.000  l= 0.000
 Prefered orientation correction range: Min=   0.92505, Max=   1.16862
;
_pd_proc_ls_profile_function
;
 CW Profile function number 3 with  19 terms
 Pseudovoigt profile coefficients as parameterized in
 P. Thompson, D.E. Cox & J.B. Hastings (1987). J. Appl. Cryst.,20,79-83.
 Asymmetry correction of L.W. Finger, D.E. Cox & A. P. Jephcoat (1994).
 J. Appl. Cryst.,27,892-900.
 Peak tails are ignored  where the intensity is below 0.0025 times the peak
   Aniso. broadening axis   0.0   0.0   1.0
;
_pd_proc_ls_prof_R_factor        0.0493
_pd_proc_ls_prof_wR_expected     0.0355
_pd_proc_ls_prof_wR_factor       0.0653
_pd_proc_number_of_points        6470
_pd_spec_mounting                ' ?'
_refine_ls_goodness_of_fit_all   1.85
_refine_ls_matrix_type           full
_refine_ls_number_parameters     51
_refine_ls_number_restraints     0
_refine_ls_R_Fsqd_factor         0.04486
_refine_ls_shift/su_max          0.03
_refine_ls_shift/su_mean         0.01
_reflns_d_resolution_high        0.890
_reflns_d_resolution_low         6.665
_reflns_limit_h_max              10
_reflns_limit_h_min              0
_reflns_limit_k_max              15
_reflns_limit_k_min              0
_reflns_limit_l_max              10
_reflns_limit_l_min              0
_reflns_number_total             1838
_cod_data_source_file            cm800466y_si_008.cif
_cod_data_source_block           T350K
_cod_depositor_comments
;
The following automatic conversions were performed:

'_chemical_melting_point' value ' 1913K ' was changed to '1913' - the
value should be numeric and without a unit
designator.

'_geom_bond_publ_flag' value 'N' changed to 'n'
according to /home/saulius/struct/CIF-dictionaries/cif_core.dic
dictionary named 'cif_core.dic' version 2.4.1 from 2010-06-29 (26
times).

'_geom_angle_publ_flag' value 'N' changed to 'n' according
to /home/saulius/struct/CIF-dictionaries/cif_core.dic dictionary
named 'cif_core.dic' version 2.4.1 from 2010-06-29 (33 times).

Automatic conversion script
Id: cif_fix_values 1715 2011-07-08 13:25:40Z adriana 
;
_cod_original_cell_volume        1234.314(16)
_cod_database_code               4001189
#BEGIN Tags that were not found in dictionaries:
_gsas_exptl_extinct_corr_t_min   1.00000
_gsas_exptl_extinct_corr_t_max   1.00000
#END Tags that were not found in dictionaries
loop_
_symmetry_equiv_pos_site_id
_symmetry_equiv_pos_as_xyz
1 +x,+y,+z
2 -x+1/2,+y+1/2,+z+1/2
3 +x,-y+1/2,+z+1/2
4 -x+1/2,-y,+z
-1 -x,-y,-z
-2 +x+1/2,-y+1/2,-z+1/2
-3 -x,+y+1/2,-z+1/2
-4 +x+1/2,+y,-z
loop_
_atom_site_type_symbol
_atom_site_label
_atom_site_fract_x
_atom_site_fract_y
_atom_site_fract_z
_atom_site_occupancy
_atom_site_thermal_displace_type
_atom_site_U_iso_or_equiv
_atom_site_symmetry_multiplicity
Sc Sc1 0.46750(32) 0.38094(22) 0.2484(4) 1.0 Uiso 0.0169(10) 8
W W1 0.25 0.0 0.47288(13) 1.0 Uiso 0.01551(24) 4
W W2 0.11609(9) 0.35601(7) 0.39406(10) 1.0 Uiso 0.01551(24) 8
O O1 0.0903(10) 0.1358(7) 0.0760(10) 1.0 Uiso 0.0258(14) 8
O O2 0.1365(11) 0.0673(7) 0.3680(11) 1.0 Uiso 0.0258(14) 8
O O3 0.0091(11) 0.2633(8) 0.3195(10) 1.0 Uiso 0.0258(14) 8
O O4 0.3326(10) 0.4070(7) 0.0782(10) 1.0 Uiso 0.0258(14) 8
O O5 0.0682(9) 0.4751(7) 0.3240(10) 1.0 Uiso 0.0258(14) 8
O O6 0.2975(11) 0.3401(7) 0.3536(10) 1.0 Uiso 0.0258(14) 8
loop_
_atom_type_symbol
_atom_type_number_in_cell
_atom_type_scat_dispersion_real
_atom_type_scat_dispersion_imag
_atom_type_scat_Cromer_Mann_a1
_atom_type_scat_Cromer_Mann_a2
_atom_type_scat_Cromer_Mann_a3
_atom_type_scat_Cromer_Mann_a4
_atom_type_scat_Cromer_Mann_b1
_atom_type_scat_Cromer_Mann_b2
_atom_type_scat_Cromer_Mann_b3
_atom_type_scat_Cromer_Mann_b4
_atom_type_scat_Cromer_Mann_c
_atom_type_scat_source
Sc 8.0 0.000 0.000 9.18900 9.02130 7.36790 0.57290 1.64090 136.108 1.46800
51.3531 1.33290 International_Tables_Vol_C
W 12.0 0.000 0.000 29.0818 1.72029 15.4300 9.22590 14.4327 0.32170 5.11982
57.0560 9.88750 International_Tables_Vol_C
O 48.0 0.000 0.000 3.04850 13.2771 2.28680 5.70110 1.54630 0.32390 0.86700
32.9089 0.25080 International_Tables_Vol_C
loop_
_diffrn_radiation_wavelength
_diffrn_radiation_wavelength_wt
_diffrn_radiation_type
_diffrn_radiation_wavelength_id
1.540500 1.000 K\a~1~ 1
1.544300 0.500 K\a~2~ 2
loop_
_geom_angle_atom_site_label_1
_geom_angle_atom_site_label_2
_geom_angle_atom_site_label_3
_geom_angle
_geom_angle_site_symmetry_1
_geom_angle_site_symmetry_3
_geom_angle_publ_flag
O1 Sc1 O2 91.2(4) -2_666 -2_666 n
O1 Sc1 O3 92.5(4) -2_666 -2_666 n
O1 Sc1 O4 175.3(4) -2_666 1_555 n
O1 Sc1 O5 84.9(4) -2_666 4_565 n
O1 Sc1 O6 91.9(4) -2_666 1_555 n
O2 Sc1 O3 89.3(4) -2_666 -2_666 n
O2 Sc1 O4 91.0(4) -2_666 1_555 n
O2 Sc1 O5 90.6(4) -2_666 4_565 n
O2 Sc1 O6 175.6(5) -2_666 1_555 n
O3 Sc1 O4 91.8(4) -2_666 1_555 n
O3 Sc1 O5 177.4(4) -2_666 4_565 n
O3 Sc1 O6 93.7(4) -2_666 1_555 n
O4 Sc1 O5 90.8(4) 1_555 4_565 n
O4 Sc1 O6 85.8(4) 1_555 1_555 n
O5 Sc1 O6 86.5(4) 4_565 1_555 n
O2 W1 O2 109.4(7) 1_555 4_555 n
O2 W1 O4 113.7(5) 1_555 2_545 n
O2 W1 O4 104.5(4) 1_555 3_555 n
O2 W1 O4 104.5(4) 4_555 2_545 n
O2 W1 O4 113.7(5) 4_555 3_555 n
O4 W1 O4 111.2(6) 2_545 3_555 n
O1 W2 O3 111.2(5) 3_555 1_555 n
O1 W2 O5 106.3(4) 3_555 1_555 n
O1 W2 O6 110.9(4) 3_555 1_555 n
O3 W2 O5 108.6(5) 1_555 1_555 n
O3 W2 O6 113.6(5) 1_555 1_555 n
O5 W2 O6 106.0(4) 1_555 1_555 n
Sc1 O1 W2 152.9(6) -2_466 3_554 n
Sc1 O2 W1 166.0(6) -2_555 1_555 n
Sc1 O3 W2 153.2(6) -2_466 1_555 n
Sc1 O4 W1 145.5(5) 1_555 2_554 n
Sc1 O5 W2 174.1(6) 4_565 1_555 n
Sc1 O6 W2 150.6(6) 1_555 1_555 n
loop_
_geom_bond_atom_site_label_1
_geom_bond_atom_site_label_2
_geom_bond_distance
_geom_bond_site_symmetry_2
_geom_bond_publ_flag
Sc1 O1 2.071(10) -2_555 n
Sc1 O2 2.094(11) -2_555 n
Sc1 O3 2.069(10) -2_555 n
Sc1 O4 2.116(10) 1_555 n
Sc1 O5 2.081(10) 4_565 n
Sc1 O6 2.003(10) 1_555 n
W1 O2 1.738(10) 1_555 n
W1 O2 1.738(10) 4_555 n
W1 O4 1.786(9) 2_545 n
W1 O4 1.786(9) 3_555 n
W2 O1 1.764(10) 3_555 n
W2 O3 1.763(10) 1_555 n
W2 O5 1.784(10) 1_555 n
W2 O6 1.808(10) 1_555 n
O1 Sc1 2.071(10) -2_455 n
O1 W2 1.764(10) 3_554 n
O2 Sc1 2.094(11) -2_455 n
O2 W1 1.738(10) 1_555 n
O3 Sc1 2.069(10) -2_455 n
O3 W2 1.763(10) 1_555 n
O4 Sc1 2.116(10) 1_555 n
O4 W1 1.786(9) 2_554 n
O5 Sc1 2.081(10) 4_565 n
O5 W2 1.784(10) 1_555 n
O6 Sc1 2.003(10) 1_555 n
O6 W2 1.808(10) 1_555 n
loop_
_pd_meas_counts_total
_pd_proc_ls_weight
_pd_proc_intensity_bkg_calc
_pd_calc_intensity_total
314.0 0.0 609.90424 .
304.0 0.0 606.76520 .
276.0 0.0 603.65070 .
286.0 0.0 600.56042 .
311.0 0.0 597.49396 .
300.0 0.0 594.45203 .
289.0 0.0 591.43372 .
287.0 0.0 588.43909 .
272.0 0.0 585.46844 .
294.0 0.0 582.52075 .
324.0 0.0 579.59692 .
307.0 0.0 576.69611 .
339.0 0.0 573.81854 .
322.0 0.0 570.96405 .
321.0 0.0 568.13239 .
309.0 0.0 565.32355 .
294.0 0.0 562.53723 .
309.0 0.0 559.77338 .
308.0 0.0 557.03235 .
300.0 0.0 554.31360 .
291.0 0.0 551.61694 .
280.0 0.0 548.94232 .
279.0 0.0 546.28937 .
292.0 0.0 543.65869 .
298.0 0.0 541.04974 .
295.0 0.0 538.46228 .
297.0 0.0 535.89630 .
300.0 0.0 533.35156 .
304.0 0.0 530.82819 .
302.0 0.0 528.32629 .
285.0 0.0 525.84503 .
295.0 0.0 523.38483 .
298.0 0.0 520.94531 .
298.0 0.0 518.52679 .
306.0 0.0 516.12891 .
303.0 0.0 513.75128 .
290.0 0.0 511.39410 .
315.0 0.0 509.05692 .
319.0 0.0 506.74020 .
289.0 0.0 504.44363 .
288.0 0.0 502.16681 .
320.0 0.0 499.90979 .
316.0 0.0 497.67242 .
316.0 0.0 495.45474 .
302.0 0.0 493.25687 .
330.0 0.0 491.07806 .
332.0 0.0 488.91855 .
313.0 0.0 486.77808 .
314.0 0.0 484.65704 .
332.0 0.0 482.55490 .
320.0 0.0 480.47168 .
329.0 0.0 478.40695 .
304.0 0.0 476.36096 .
327.0 0.0 474.33359 .
341.0 0.0 472.32474 .
314.0 0.0 470.33423 .
311.0 0.0 468.36191 .
325.0 0.0 466.40759 .
344.0 0.0 464.47159 .
325.0 0.0 462.55353 .
297.0 0.0 460.65323 .
311.0 0.0 458.77054 .
304.0 0.0 456.90552 .
290.0 0.0 455.05817 .
318.0 0.0 453.22830 .
317.0 0.0 451.41580 .
339.0 0.0 449.62036 .
316.0 0.0 447.84198 .
301.0 0.0 446.08087 .
293.0 0.0 444.33679 .
298.0 0.0 442.60953 .
314.0 0.0 440.89890 .
320.0 0.0 439.20499 .
304.0 0.0 437.52756 .
320.0 0.0 435.86688 .
339.0 0.0 434.22241 .
350.0 0.0 432.59406 .
327.0 0.0 430.98212 .
329.0 0.0 429.38617 .
323.0 0.0 427.80624 .
325.0 0.0 426.24240 .
317.0 0.0 424.69418 .
328.0 0.0 423.16168 .
332.0 0.0 421.64481 .
319.0 0.0 420.14365 .
327.0 0.0 418.65790 .
324.0 0.0 417.18744 .
298.0 0.0 415.73221 .
304.0 0.0 414.29218 .
323.0 0.0 412.86737 .
314.0 0.0 411.45743 .
321.0 0.0 410.06241 .
332.0 0.0 408.68228 .
328.0 0.0 407.31677 .
314.0 0.0 405.96609 .
305.0 0.0 404.62997 .
317.0 0.0 403.30811 .
330.0 0.0 402.00073 .
330.0 0.0 400.70770 .
306.0 0.0 399.42889 .
309.0 0.0 398.16425 .
332.0 0.0 396.91351 .
345.0 0.0 395.67679 .
328.0 0.0 394.45395 .
327.0 0.0 393.24490 .
326.0 0.0 392.04965 .
333.0 0.0 390.86783 .
299.0 0.0 389.69965 .
326.0 0.0 388.54498 .
337.0 0.0 387.40369 .
297.0 0.0 386.27567 .
336.0 0.0 385.16074 .
317.0 0.0 384.05902 .
345.0 0.0 382.97040 .
347.0 0.0 381.89465 .
355.0 0.0 380.83182 .
327.0 0.0 379.78180 .
336.0 0.002976 378.74442 378.73602
363.0 0.002755 377.71985 377.71155
379.0 0.002639 376.70779 376.69952
348.0 0.002874 375.70819 375.70001
325.0 0.003077 374.72107 374.71298
336.0 0.002976 373.74615 373.73822
345.0 0.002899 372.78357 372.77567
322.0 0.003106 371.83319 371.82535
322.0 0.003106 370.89487 370.88712
340.0 0.002941 369.96851 369.96082
356.0 0.002809 369.05411 369.04651
328.0 0.003049 368.15167 368.14420
320.0 0.003125 367.26093 367.25354
328.0 0.003049 366.38202 366.37466
359.0 0.002786 365.51465 365.50735
334.0 0.002994 364.65878 364.65167
321.0 0.003115 363.81454 363.80750
327.0 0.003058 362.98172 362.97464
349.0 0.002865 362.16022 362.15326
333.0 0.003003 361.34995 361.34302
344.0 0.002907 360.55078 360.54398
343.0 0.002915 359.76291 359.75623
321.0 0.003115 358.98608 358.97943
313.0 0.003195 358.22009 358.21356
325.0 0.003077 357.46518 357.45865
327.0 0.003058 356.72095 356.71451
333.0 0.003003 355.98758 355.98126
329.0 0.003040 355.26489 355.25851
315.0 0.003175 354.55283 354.54660
305.0 0.003279 353.85129 353.84509
330.0 0.003030 353.16016 353.15405
351.0 0.002849 352.47955 352.47348
348.0 0.002874 351.80923 351.80328
362.0 0.002762 351.14920 351.14328
353.0 0.002833 350.49936 350.49353
338.0 0.002959 349.85956 349.85379
340.0 0.002941 349.23001 349.22427
329.0 0.003040 348.61032 348.60474
343.0 0.002915 348.00073 347.99506
360.0 0.002778 347.40079 347.39520
332.0 0.003012 346.81070 346.80524
348.0 0.002874 346.23041 346.22495
369.0 0.002710 345.65973 345.65439
363.0 0.002755 345.09863 349.41092
339.0 0.002950 344.54712 349.27118
332.0 0.003012 344.00497 351.37451
375.0 0.002667 343.47229 351.63208
357.0 0.002801 342.94897 352.07169
365.0 0.002740 342.43491 352.77725
365.0 0.002740 341.92996 354.00342
391.0 0.002558 341.43414 356.76395
417.0 0.002398 340.94751 363.53891
413.0 0.002421 340.46982 376.63635
441.0 0.002268 340.00110 396.05368
463.0 0.002160 339.54120 420.79376
432.0 0.002315 339.09015 449.57565
485.0 0.002062 338.64792 481.45795
494.0 0.002024 338.21436 516.28784
497.0 0.002012 337.78946 554.31488
565.0 0.001770 337.37305 595.95947
556.0 0.001799 336.96512 641.78113
650.0 0.001538 336.56577 692.46466
688.0 0.001453 336.17468 748.87372
764.0 0.001309 335.79202 812.16376
812.0 0.001232 335.41754 883.80835
891.0 0.001122 335.05127 965.77942
956.0 0.001046 334.69321 1060.81396
1091.0 0.000917 334.34323 1172.75415
1328.0 0.000753 334.00122 1307.35510
1586.0 0.000631 333.66721 1473.59961
1910.0 0.000524 333.34106 1686.80054
2331.0 0.000429 333.02283 1977.25879
2870.0 0.0003484 332.71240 2417.39893
3533.0 0.0002830 332.40970 3124.97046
4099.0 0.0002440 332.11453 3882.14819
3931.0 0.0002544 331.82718 3714.57886
2898.0 0.0003451 331.54727 2707.81616
1830.0 0.000546 331.27499 1732.45044
1040.0 0.000962 331.01001 918.65485
602.0 0.001661 330.75247 548.38379
473.0 0.002114 330.50226 443.62509
439.0 0.002278 330.25934 408.03668
419.0 0.002387 330.02365 388.33249
405.0 0.002469 329.79514 375.37820
398.0 0.002513 329.57370 366.30017
389.0 0.002571 329.35934 359.64890
368.0 0.002717 329.15201 354.60266
373.0 0.002681 328.95163 350.66418
379.0 0.002639 328.75809 347.51794
368.0 0.002717 328.57141 344.95486
365.0 0.002740 328.39154 342.83206
369.0 0.002710 328.21841 341.04886
383.0 0.002611 328.05200 339.53207
365.0 0.002740 327.89215 338.22794
345.0 0.002899 327.73886 337.09595
334.0 0.002994 327.59213 336.10529
342.0 0.002924 327.45190 335.23203
363.0 0.002755 327.31796 329.95831
353.0 0.002833 327.19052 329.61145
379.0 0.002639 327.06931 327.06622
386.0 0.002591 326.95444 326.95135
382.0 0.002618 326.84573 326.84265
368.0 0.002717 326.74323 326.74017
358.0 0.002793 326.64676 326.64380
339.0 0.002950 326.55643 326.55347
353.0 0.002833 326.47208 326.46909
350.0 0.002857 326.39374 326.39081
336.0 0.002976 326.32129 326.31833
403.0 0.002481 326.25467 326.25177
329.0 0.003040 326.19391 326.19104
375.0 0.002667 326.13885 326.13602
406.0 0.002463 326.08963 326.08673
386.0 0.002591 326.04596 326.04318
368.0 0.002717 326.00797 326.00516
401.0 0.002494 325.97556 325.97272
371.0 0.002695 325.94861 325.94586
356.0 0.002809 325.92712 325.92441
362.0 0.002762 325.91116 325.90848
377.0 0.002653 325.90054 325.89780
351.0 0.002849 325.89529 325.89255
408.0 0.002451 325.89529 325.89264
381.0 0.002625 325.90057 332.72906
367.0 0.002725 325.91104 333.32257
421.0 0.002375 325.92670 337.37112
435.0 0.002299 325.94739 338.45224
404.0 0.002475 325.97321 339.71460
432.0 0.002315 326.00397 341.20776
436.0 0.002294 326.03970 343.00510
463.0 0.002160 326.08044 345.22287
418.0 0.002392 326.12598 348.09619
419.0 0.002387 326.17648 352.43393
442.0 0.002262 326.23172 361.09369
482.0 0.002075 326.29169 379.48132
481.0 0.002079 326.35632 410.75076
512.0 0.001953 326.42569 453.98306
591.0 0.001692 326.49963 507.72086
639.0 0.001565 326.57822 569.92834
656.0 0.001524 326.66132 639.18207
707.0 0.001414 326.74890 715.53735
767.0 0.001304 326.84091 799.90442
799.0 0.001252 326.93735 893.63312
872.0 0.001147 327.03821 998.42346
991.0 0.001009 327.14328 1116.49243
1112.0 0.000899 327.25272 1250.92859
1249.0 0.000801 327.36636 1405.84180
1464.0 0.000683 327.48422 1586.90723
1714.0 0.000583 327.60626 1802.56677
2003.0 0.000499 327.73236 2065.56641
2464.0 0.000406 327.86261 2396.94287
3146.0 0.0003179 327.99689 2835.52612
3972.0 0.0002518 328.13513 3468.59570
4757.0 0.0002102 328.27740 4482.37207
5798.0 0.0001725 328.42349 5851.36328
5940.0 0.0001684 328.57361 6324.91699
4649.0 0.0002151 328.72739 4928.20898
3289.0 0.0003040 328.88507 3448.50415
1887.0 0.000530 329.04654 2007.70581
947.0 0.001056 329.21170 980.90497
609.0 0.001642 329.38046 603.41351
524.0 0.001908 329.55307 496.25800
490.0 0.002041 329.72913 450.14713
445.0 0.002247 329.90887 422.08670
437.0 0.002288 330.09207 403.21255
402.0 0.002488 330.27878 389.85547
392.0 0.002551 330.46906 380.03955
388.0 0.002577 330.66260 372.61185
401.0 0.002494 330.85962 366.85883
387.0 0.002584 331.05997 362.31726
367.0 0.002725 331.26361 358.67621
422.0 0.002370 331.47058 355.71945
358.0 0.002793 331.68076 353.29303
356.0 0.002809 331.89417 351.28476
366.0 0.002732 332.11069 349.61057
373.0 0.002681 332.33051 348.20721
354.0 0.002825 332.55328 347.02579
380.0 0.002632 332.77911 337.74850
371.0 0.002695 333.00800 337.55197
376.0 0.002660 333.23990 333.23761
377.0 0.002653 333.47479 333.47244
384.0 0.002604 333.71252 333.71021
399.0 0.002506 333.95325 333.95096
374.0 0.002674 334.19681 334.19446
345.0 0.002899 334.44318 334.44080
343.0 0.002915 334.69235 334.68997
376.0 0.002660 334.94421 334.94189
366.0 0.002732 335.19888 335.19653
335.0 0.002985 335.45615 335.45389
320.0 0.003125 335.71622 335.71384
357.0 0.002801 335.97879 335.97647
361.0 0.002770 336.24408 336.24173
359.0 0.002786 336.51187 336.50949
363.0 0.002755 336.78217 336.77982
348.0 0.002874 337.05493 337.05258
376.0 0.002660 337.33017 337.32788
347.0 0.002882 337.60794 337.60553
341.0 0.002933 337.88803 337.88562
341.0 0.002933 338.17050 338.16815
362.0 0.002762 338.45532 338.45294
360.0 0.002778 338.74246 338.74005
326.0 0.003067 339.03192 339.02951
337.0 0.002967 339.32355 339.32117
361.0 0.002770 339.61743 339.61502
350.0 0.002857 339.91348 339.91104
360.0 0.002778 340.21170 340.20926
369.0 0.002710 340.51205 340.50967
353.0 0.002833 340.81454 340.81210
354.0 0.002825 341.11902 341.11661
340.0 0.002941 341.42566 341.42313
348.0 0.002874 341.73422 341.73175
353.0 0.002833 342.04477 342.04230
339.0 0.002950 342.35727 342.35480
337.0 0.002967 342.67166 342.66916
327.0 0.003058 342.98801 342.98550
361.0 0.002770 343.30615 343.30368
374.0 0.002674 343.62625 343.62372
337.0 0.002967 343.94809 343.94553
333.0 0.003003 344.27164 344.26917
350.0 0.002857 344.59705 344.59451
349.0 0.002865 344.92413 344.92160
350.0 0.002857 345.25296 345.25043
345.0 0.002899 345.58347 345.58087
354.0 0.002825 345.91556 345.91299
369.0 0.002710 346.24930 346.24670
342.0 0.002924 346.58456 346.58200
348.0 0.002874 346.92148 346.91895
339.0 0.002950 347.25992 347.25732
378.0 0.002646 347.59985 347.59732
356.0 0.002809 347.94128 347.93869
344.0 0.002907 348.28424 348.28159
351.0 0.002849 348.62851 348.62595
358.0 0.002793 348.97424 348.97156
350.0 0.002857 349.32135 349.31873
335.0 0.002985 349.66986 349.66718
334.0 0.002994 350.01962 350.01700
345.0 0.002899 350.37076 350.36807
364.0 0.002747 350.72318 350.72046
338.0 0.002959 351.07678 351.07413
353.0 0.002833 351.43173 351.42899
355.0 0.002817 351.78778 351.78506
366.0 0.002732 352.14502 352.14236
346.0 0.002890 352.50351 352.50073
350.0 0.002857 352.86307 352.86038
363.0 0.002755 353.22369 353.22098
357.0 0.002801 353.58551 353.58276
332.0 0.003012 353.94836 353.94559
356.0 0.002809 354.31232 354.30951
355.0 0.002817 354.67715 354.67435
335.0 0.002985 355.04300 355.04019
304.0 0.003289 355.40988 355.40707
341.0 0.002933 355.77774 355.77484
341.0 0.002933 356.14645 356.14355
342.0 0.002924 356.51614 356.51324
329.0 0.003040 356.88654 356.88364
318.0 0.003145 357.25793 357.25507
352.0 0.002841 357.63022 357.62729
348.0 0.002874 358.00327 358.00031
332.0 0.003012 358.37708 358.37405
341.0 0.002933 358.75165 358.74872
346.0 0.002890 359.12695 359.12393
343.0 0.002915 359.50308 359.50006
346.0 0.002890 359.87979 359.87680
349.0 0.002865 360.25732 360.25424
343.0 0.002915 360.63538 360.63242
351.0 0.002849 361.01416 361.01111
348.0 0.002874 361.39349 361.39047
362.0 0.002762 361.77356 361.77048
367.0 0.002725 362.15411 362.15103
346.0 0.002890 362.53525 362.53214
333.0 0.003003 362.91681 362.91376
318.0 0.003145 363.29910 363.29602
311.0 0.003215 363.68176 363.67865
339.0 0.002950 364.06506 364.06183
339.0 0.002950 364.44855 364.44540
357.0 0.002801 364.83267 364.82941
356.0 0.002809 365.21713 365.21399
344.0 0.002907 365.60205 365.59882
342.0 0.002924 365.98730 365.98410
336.0 0.002976 366.37299 366.36972
341.0 0.002933 366.75888 366.75565
342.0 0.002924 367.14529 367.14200
322.0 0.003106 367.53186 367.52859
346.0 0.002890 367.91876 367.91547
342.0 0.002924 368.30588 368.30264
330.0 0.003030 368.69336 368.69006
321.0 0.003115 369.08105 369.07770
365.0 0.002740 369.46887 369.46558
354.0 0.002825 369.85699 369.85358
334.0 0.002994 370.24527 370.24188
339.0 0.002950 370.63364 370.63019
354.0 0.002825 371.02219 371.01883
345.0 0.002899 371.41092 371.40750
366.0 0.002732 371.79974 371.79623
359.0 0.002786 372.18860 372.18509
350.0 0.002857 372.57758 372.57410
316.0 0.003165 372.96655 372.96307
361.0 0.002770 373.35559 373.35214
327.0 0.003058 373.74469 373.74118
332.0 0.003012 374.13376 374.13028
316.0 0.003165 374.52283 374.51929
359.0 0.002786 374.91196 374.90842
373.0 0.002681 375.30093 375.29736
344.0 0.002907 375.68985 375.68625
338.0 0.002959 376.07877 376.07516
349.0 0.002865 376.46753 376.46393
315.0 0.003175 376.85626 376.85263
312.0 0.003205 377.24478 377.24115
330.0 0.003030 377.63321 377.62955
348.0 0.002874 378.02151 378.01779
331.0 0.003021 378.40961 378.40588
335.0 0.002985 378.79755 378.79379
351.0 0.002849 379.18536 379.18158
330.0 0.003030 379.57278 379.56897
351.0 0.002849 379.96005 379.95633
373.0 0.002681 380.34711 380.34326
351.0 0.002849 380.73386 380.73010
340.0 0.002941 381.12039 381.11664
347.0 0.002882 381.50665 381.50281
336.0 0.002976 381.89252 381.88873
333.0 0.003003 382.27817 382.27426
350.0 0.002857 382.66339 382.65952
366.0 0.002732 383.04837 383.04449
358.0 0.002793 383.43292 383.42908
378.0 0.002646 383.81714 383.81323
372.0 0.002688 384.20090 384.19702
367.0 0.002725 384.58435 384.58041
362.0 0.002762 384.96738 384.96344
352.0 0.002841 385.34995 385.34592
367.0 0.002725 385.73212 385.72812
374.0 0.002674 386.11371 386.10977
343.0 0.002915 386.49496 386.49097
315.0 0.003175 386.87576 386.87173
337.0 0.002967 387.25595 387.25192
365.0 0.002740 387.63574 387.63165
351.0 0.002849 388.01492 388.01086
346.0 0.002890 388.39368 388.38956
350.0 0.002857 388.77185 388.76770
317.0 0.003155 389.14941 389.14526
367.0 0.002725 389.52643 389.52231
359.0 0.002786 389.90292 389.89874
343.0 0.002915 390.27875 390.27457
350.0 0.002857 390.65405 390.64990
350.0 0.002857 391.02863 391.07495
351.0 0.002849 391.40271 391.45288
357.0 0.002801 391.77609 391.83069
355.0 0.002817 392.14886 392.23410
328.0 0.003049 392.52087 392.61380
310.0 0.003226 392.89233 392.99402
344.0 0.002907 393.26294 393.37482
331.0 0.003021 393.63297 393.75662
335.0 0.002985 394.00229 394.13971
367.0 0.002725 394.37088 394.52487
350.0 0.002857 394.73871 396.91171
363.0 0.002755 395.10590 397.45743
355.0 0.002817 395.47220 398.02856
368.0 0.002717 395.83792 399.65140
375.0 0.002667 396.20273 400.39673
348.0 0.002874 396.56671 401.26755
347.0 0.002882 396.92999 402.73181
356.0 0.002809 397.29245 404.01324
351.0 0.002849 397.65411 405.50327
347.0 0.002882 398.01498 407.43604
375.0 0.002667 398.37491 409.43527
386.0 0.002591 398.73410 411.74142
371.0 0.002695 399.09235 414.45032
375.0 0.002667 399.44983 417.77509
391.0 0.002558 399.80634 422.38248
396.0 0.002525 400.16205 430.04910
403.0 0.002481 400.51678 443.10132
425.0 0.002353 400.87064 462.35593
482.0 0.002075 401.22366 487.72964
502.0 0.001992 401.57571 520.16730
499.0 0.002004 401.92685 560.91223
560.0 0.001786 402.27698 607.69733
637.0 0.001570 402.62622 650.42847
619.0 0.001616 402.97458 691.07629
657.0 0.001522 403.32187 745.64496
704.0 0.001420 403.66821 811.77209
812.0 0.001232 404.01358 893.67383
1000.0 0.001000 404.35791 1003.10461
1151.0 0.000869 404.70126 1151.59192
1402.0 0.000713 405.04364 1367.25854
1730.0 0.000578 405.38507 1700.54907
2080.0 0.000481 405.72534 2087.77686
2135.0 0.000468 406.06464 2113.10327
1696.0 0.000590 406.40289 1695.54028
1372.0 0.000729 406.74017 1438.81348
1235.0 0.000810 407.07623 1203.30261
985.0 0.001015 407.41132 928.60083
811.0 0.001233 407.74536 838.26270
771.0 0.001297 408.07822 828.20801
711.0 0.001406 408.41010 736.78394
621.0 0.001610 408.74091 648.28925
559.0 0.001789 409.07053 593.28833
467.0 0.002141 409.39896 516.30225
402.0 0.002488 409.72653 461.99408
369.0 0.002710 410.05280 441.06088
386.0 0.002591 410.37796 433.42447
379.0 0.002639 410.70193 429.26743
434.0 0.002304 411.02487 426.44061
392.0 0.002551 411.34662 424.44775
353.0 0.002833 411.66718 422.98123
393.0 0.002545 411.98657 421.88153
415.0 0.002410 412.30484 421.04822
391.0 0.002558 412.62183 420.41425
421.0 0.002375 412.93771 419.93341
404.0 0.002475 413.25247 416.83203
416.0 0.002404 413.56592 416.78250
403.0 0.002481 413.87814 416.78543
382.0 0.002618 414.18924 415.49698
434.0 0.002304 414.49905 415.68030
439.0 0.002278 414.80777 430.69543
439.0 0.002278 415.11514 431.41806
419.0 0.002387 415.42133 432.93274
401.0 0.002494 415.72620 442.05957
448.0 0.002232 416.02991 444.19000
439.0 0.002278 416.33231 446.92648
445.0 0.002247 416.63351 450.00717
444.0 0.002252 416.93338 453.50568
430.0 0.002326 417.23199 457.51755
442.0 0.002262 417.52936 462.17072
500.0 0.002000 417.82550 467.63965
532.0 0.001880 418.12027 474.17221
576.0 0.001736 418.41376 482.13785
571.0 0.001751 418.70593 492.13214
592.0 0.001689 418.99692 505.39520
674.0 0.001484 419.28650 525.89435
723.0 0.001383 419.57477 565.48035
781.0 0.001280 419.86176 643.12994
891.0 0.001122 420.14740 767.31958
1013.0 0.000987 420.43173 934.30121
1137.0 0.000880 420.71472 1145.34387
1241.0 0.000806 420.99637 1402.88135
1478.0 0.000677 421.27670 1706.08289
1747.0 0.000572 421.55569 2058.63159
2077.0 0.000481 421.83331 2471.41479
2552.0 0.000392 422.10962 2962.31274
3229.0 0.0003097 422.38455 3558.90454
4142.0 0.0002414 422.65811 4305.99512
5256.0 0.0001903 422.93030 5285.39063
6800.0 0.0001471 423.20111 6675.66943
9264.0 0.0001079 423.47049 8834.85840
12213.0 0.0000819 423.73862 11709.58203
12816.0 0.0000780 424.00531 12888.96387
10082.0 0.0000992 424.27057 10036.22656
7672.0 0.0001303 424.53455 7506.89941
6005.0 0.0001665 424.79709 6041.90039
3499.0 0.0002858 425.05814 3565.43140
1632.0 0.000613 425.31781 1723.07776
977.0 0.001024 425.57617 1033.62048
730.0 0.001370 425.83307 814.17889
587.0 0.001704 426.08859 710.86346
533.0 0.001876 426.34268 646.41125
493.0 0.002028 426.59534 602.44147
517.0 0.001934 426.84653 570.94702
495.0 0.002020 427.09637 547.54950
494.0 0.002024 427.34479 529.66278
475.0 0.002105 427.59174 515.66962
451.0 0.002217 427.83725 504.51114
452.0 0.002212 428.08136 495.46997
451.0 0.002217 428.32397 488.04443
446.0 0.002242 428.56512 481.87521
456.0 0.002193 428.80496 476.69867
503.0 0.001988 429.04318 472.31674
510.0 0.001961 429.28003 468.57901
498.0 0.002008 429.51547 443.58405
466.0 0.002146 429.74939 442.54782
409.0 0.002445 429.98190 441.67593
437.0 0.002288 430.21295 430.20721
424.0 0.002358 430.44247 430.43671
431.0 0.002320 430.67059 430.66483
437.0 0.002288 430.89713 430.89136
448.0 0.002232 431.12228 431.11652
429.0 0.002331 431.34595 431.34018
421.0 0.002375 431.56818 431.56235
427.0 0.002342 431.78882 431.78305
444.0 0.002252 432.00815 432.00232
484.0 0.002066 432.22583 432.22000
468.0 0.002137 432.44208 432.43625
480.0 0.002083 432.65695 432.65106
471.0 0.002123 432.87018 453.17383
460.0 0.002174 433.08200 454.92581
444.0 0.002252 433.29230 456.86288
451.0 0.002217 433.50113 469.10831
491.0 0.002037 433.70840 472.28442
500.0 0.002000 433.91422 475.86139
507.0 0.001972 434.11856 479.91849
508.0 0.001969 434.32135 484.55740
507.0 0.001972 434.52271 489.91104
531.0 0.001883 434.72244 496.15549
539.0 0.001855 434.92081 503.53098
565.0 0.001770 435.11758 512.37512
605.0 0.001653 435.31287 523.18274
640.0 0.001563 435.50665 536.72986
712.0 0.001404 435.69888 554.46771
792.0 0.001263 435.88962 580.53998
886.0 0.001129 436.07892 628.08362
961.0 0.001041 436.26669 722.85583
1126.0 0.000888 436.45285 882.70392
1301.0 0.000769 436.63754 1106.93250
1427.0 0.000701 436.82065 1394.65198
1589.0 0.000629 437.00247 1752.82666
1889.0 0.000529 437.18253 2185.03296
2308.0 0.000433 437.36121 2696.24268
2897.0 0.0003452 437.53827 3302.37305
3620.0 0.0002762 437.71381 4033.62671
4409.0 0.0002268 437.88794 4939.31006
5662.0 0.0001766 438.06039 6104.52637
7617.0 0.0001313 438.23151 7706.07080
10169.0 0.0000983 438.40094 10126.50879
13745.0 0.0000728 438.56888 13652.18555
16709.0 0.0000598 438.73535 16397.02148
14243.0 0.0000702 438.90027 14149.03809
9878.0 0.0001012 439.06369 10144.93262
8288.0 0.0001207 439.22549 8491.46777
6263.0 0.0001597 439.38580 6155.45459
2954.0 0.0003385 439.54468 3123.54663
1370.0 0.000730 439.70187 1573.73645
958.0 0.001044 439.85764 1068.11572
822.0 0.001217 440.01187 877.73547
725.0 0.001379 440.16452 771.02411
610.0 0.001639 440.31573 700.69049
595.0 0.001681 440.46533 651.38904
597.0 0.001675 440.61353 615.31854
546.0 0.001832 440.76010 588.07068
581.0 0.001721 440.90506 566.93555
532.0 0.001880 441.04871 550.18756
554.0 0.001805 441.19067 536.68805
540.0 0.001852 441.33112 525.63409
544.0 0.001838 441.47006 516.47064
533.0 0.001876 441.60751 508.78574
550.0 0.001818 441.74347 502.27670
532.0 0.001880 441.87775 496.71979
529.0 0.001890 442.01062 491.93570
529.0 0.001890 442.14194 460.15723
544.0 0.001838 442.27173 475.91022
558.0 0.001792 442.40005 475.90393
582.0 0.001718 442.52676 462.39542
553.0 0.001808 442.65201 472.56424
560.0 0.001786 442.77567 475.07043
552.0 0.001812 442.89786 477.88052
528.0 0.001894 443.01855 481.05176
579.0 0.001727 443.13763 502.99805
593.0 0.001686 443.25528 508.48541
587.0 0.001704 443.37134 514.77014
631.0 0.001585 443.48593 531.05023
695.0 0.001439 443.59900 540.20410
749.0 0.001335 443.71051 550.98175
783.0 0.001277 443.82056 563.87091
878.0 0.001139 443.92899 579.57501
904.0 0.001106 444.03601 599.26587
930.0 0.001075 444.14154 625.54877
1039.0 0.000962 444.24548 666.47900
1164.0 0.000859 444.34799 742.30664
1317.0 0.000759 444.44891 877.54242
1476.0 0.000678 444.54834 1079.34753
1727.0 0.000579 444.64627 1343.71155
1969.0 0.000508 444.74271 1678.37537
2339.0 0.000428 444.83762 2096.82007
2699.0 0.000371 444.93106 2661.65771
3256.0 0.0003071 445.02295 3326.42896
4163.0 0.0002402 445.11337 4179.81787
5233.0 0.0001911 445.20224 5291.38184
6727.0 0.0001487 445.28967 6710.44287
8747.0 0.0001143 445.37558 8662.47266
12012.0 0.0000833 445.46011 11537.68848
15970.0 0.0000626 445.54297 15296.89258
17973.0 0.0000556 445.62442 17436.90820
15569.0 0.0000642 445.70441 15155.82324
13678.0 0.0000731 445.78278 13220.45996
14138.0 0.0000707 445.85971 13547.42676
13956.0 0.0000717 445.93533 13415.61426
14057.0 0.0000711 446.00928 13939.65430
15831.0 0.0000632 446.08176 15672.38477
14496.0 0.0000690 446.15280 14309.12012
10176.0 0.0000983 446.22235 10339.89551
8691.0 0.0001151 446.29044 8619.26367
7922.0 0.0001262 446.35703 7381.17139
5214.0 0.0001918 446.42218 4877.07959
3733.0 0.0002679 446.48584 3410.44263
3623.0 0.0002760 446.54794 3318.49756
3698.0 0.0002704 446.60864 3878.31885
4627.0 0.0002161 446.66791 4764.35205
5399.0 0.0001852 446.72565 5915.64795
6468.0 0.0001546 446.78198 7346.70313
8198.0 0.0001220 446.83682 9127.32617
10503.0 0.0000952 446.89029 11393.94238
14093.0 0.0000710 446.94220 14409.29980
19266.0 0.0000519 446.99265 18761.21094
25782.0 0.0000388 447.04169 25401.64258
32223.0 0.00003103 447.08926 33391.45313
33623.0 0.00002974 447.13544 34811.35938
26692.0 0.0000375 447.18005 25707.29492
19462.0 0.0000514 447.22333 19571.94727
16250.0 0.0000615 447.26511 17193.12500
11424.0 0.0000875 447.30545 11208.25000
5531.0 0.0001808 447.34436 5235.53857
2615.0 0.000382 447.38190 2610.36475
1648.0 0.000607 447.41791 1753.08679
1345.0 0.000743 447.45258 1381.31067
1194.0 0.000838 447.48572 1164.75415
1044.0 0.000958 447.51749 1019.15039
921.0 0.001086 447.54788 919.05688
845.0 0.001183 447.57675 843.12524
780.0 0.001282 447.60422 785.56683
743.0 0.001346 447.63034 740.92615
683.0 0.001464 447.65497 705.70276
688.0 0.001453 447.67838 681.37256
691.0 0.001447 447.70013 659.00226
666.0 0.001502 447.72055 641.03381
661.0 0.001513 447.73962 628.52698
664.0 0.001506 447.75729 617.40674
707.0 0.001414 447.77350 609.08813
674.0 0.001484 447.78839 536.18347
670.0 0.001493 447.80188 538.70392
715.0 0.001399 447.81387 544.07343
720.0 0.001389 447.82465 520.70129
715.0 0.001399 447.83389 546.87592
775.0 0.001290 447.84177 595.24957
847.0 0.001181 447.84830 669.57056
948.0 0.001055 447.85352 768.00543
1039.0 0.000962 447.85721 893.03998
1131.0 0.000884 447.85968 1049.90320
1253.0 0.000798 447.86069 1242.86365
1515.0 0.000660 447.86038 1479.08264
1783.0 0.000561 447.85873 1775.37744
2161.0 0.000463 447.85568 2163.14038
2800.0 0.000357 447.85126 2697.54858
3548.0 0.0002818 447.84549 3489.64990
4720.0 0.0002119 447.83838 4639.11963
5725.0 0.0001747 447.82996 5670.37500
5144.0 0.0001944 447.82013 5265.59180
3937.0 0.0002540 447.80905 4066.92456
3693.0 0.0002708 447.79657 3711.36963
3442.0 0.0002905 447.78271 3525.57544
2822.0 0.000354 447.76758 2854.56226
2476.0 0.000404 447.75113 2548.62354
2828.0 0.000354 447.73328 2870.27686
3321.0 0.0003011 447.71420 3417.59058
3284.0 0.0003045 447.69373 3332.46704
2420.0 0.000413 447.67203 2508.47339
1963.0 0.000509 447.64896 2063.89478
1785.0 0.000560 447.62451 1884.77942
1328.0 0.000753 447.59882 1378.42334
829.0 0.001206 447.57187 885.83673
669.0 0.001495 447.54361 665.62903
610.0 0.001639 447.51398 589.79987
568.0 0.001761 447.48309 555.26532
534.0 0.001873 447.45096 533.65588
555.0 0.001802 447.41748 518.53284
575.0 0.001739 447.38272 507.37689
540.0 0.001852 447.34668 498.83578
538.0 0.001859 447.30939 492.11124
568.0 0.001761 447.27075 486.69070
555.0 0.001802 447.23090 482.24164
567.0 0.001764 447.18982 478.53098
550.0 0.001818 447.14737 475.39468
552.0 0.001812 447.10373 472.71548
570.0 0.001754 447.05884 470.40219
549.0 0.001821 447.01266 468.38812
523.0 0.001912 446.96527 466.62030
509.0 0.001965 446.91666 465.05725
498.0 0.002008 446.86673 458.68387
485.0 0.002062 446.81549 457.72812
480.0 0.002083 446.76318 456.87308
488.0 0.002049 446.70959 453.56717
513.0 0.001949 446.65475 453.01880
522.0 0.001916 446.59866 452.52118
481.0 0.002079 446.54138 452.06696
491.0 0.002037 446.48285 464.44846
487.0 0.002053 446.42319 462.00366
487.0 0.002053 446.36218 462.86542
513.0 0.001949 446.30008 470.01447
489.0 0.002045 446.23669 470.08066
497.0 0.002012 446.17218 471.99326
508.0 0.001969 446.10641 474.16788
517.0 0.001934 446.03946 476.65576
535.0 0.001869 445.97134 479.51849
530.0 0.001887 445.90198 482.83972
540.0 0.001852 445.83151 486.72354
556.0 0.001799 445.75983 491.31229
594.0 0.001684 445.68704 496.79858
617.0 0.001621 445.61295 503.44598
599.0 0.001669 445.53775 511.64758
646.0 0.001548 445.46140 521.99207
672.0 0.001488 445.38382 535.49890
685.0 0.001460 445.30521 554.57092
788.0 0.001269 445.22531 586.56409
822.0 0.001217 445.14438 648.73285
976.0 0.001025 445.06223 760.09296
1162.0 0.000861 444.97906 927.16113
1266.0 0.000790 444.89456 1145.68896
1522.0 0.000657 444.80905 1424.55676
1798.0 0.000556 444.72235 1778.17993
2133.0 0.000469 444.63455 2219.55200
2668.0 0.000375 444.54568 2768.80811
3371.0 0.0002966 444.45557 3470.41821
4448.0 0.0002248 444.36447 4418.49219
5987.0 0.0001670 444.27219 5815.67676
8013.0 0.0001248 444.17877 7857.01221
9707.0 0.0001030 444.08435 9751.85449
9052.0 0.0001105 443.98880 9035.76758
6699.0 0.0001493 443.89212 6430.55127
5246.0 0.0001906 443.79437 5322.41162
4711.0 0.0002123 443.69553 4897.03125
3446.0 0.0002902 443.59564 3318.07690
1865.0 0.000536 443.49457 1751.21582
1079.0 0.000927 443.39246 1071.82458
772.0 0.001295 443.28928 835.43079
719.0 0.001391 443.18509 734.88995
629.0 0.001590 443.07980 675.91803
653.0 0.001531 442.97345 650.12000
627.0 0.001595 442.86603 624.43469
584.0 0.001712 442.75754 606.86517
557.0 0.001795 442.64807 594.97119
559.0 0.001789 442.53751 587.35852
574.0 0.001742 442.42584 583.17523
611.0 0.001637 442.31329 581.95032
646.0 0.001548 442.19962 583.41486
665.0 0.001504 442.08490 587.55945
686.0 0.001458 441.96924 594.56006
712.0 0.001404 441.85248 604.82269
782.0 0.001279 441.73477 619.04913
831.0 0.001203 441.61597 638.43585
876.0 0.001142 441.49622 665.08423
1021.0 0.000979 441.37543 704.01520
1151.0 0.000869 441.25366 770.60809
1241.0 0.000806 441.13092 901.11902
1474.0 0.000678 441.00717 1137.70166
1795.0 0.000557 440.88235 1495.46558
2154.0 0.000464 440.75665 1966.89502
2496.0 0.000401 440.62994 2574.27856
3115.0 0.0003210 440.50223 3337.94727
4039.0 0.0002476 440.37350 4312.46094
5053.0 0.0001979 440.24393 5538.51074
6881.0 0.0001453 440.11337 7128.31250
9443.0 0.0001059 439.98181 9346.93555
13216.0 0.0000757 439.84930 12669.32520
18208.0 0.0000549 439.71585 17131.03125
20639.0 0.0000485 439.58148 19818.00391
16904.0 0.0000592 439.44611 16206.40820
11977.0 0.0000835 439.30978 11472.48340
10794.0 0.0000926 439.17258 10215.67188
9455.0 0.0001058 439.03442 9061.80176
5576.0 0.0001793 438.89542 5514.76172
2553.0 0.000392 438.75540 2710.78516
1393.0 0.000718 438.61444 1554.71777
1041.0 0.000961 438.47263 1152.56995
854.0 0.001171 438.32993 964.75677
775.0 0.001290 438.18628 846.54022
677.0 0.001477 438.04172 762.30145
654.0 0.001529 437.89630 702.00543
618.0 0.001618 437.74994 658.14081
547.0 0.001828 437.60275 624.87018
552.0 0.001812 437.45462 598.78571
531.0 0.001883 437.30563 577.86133
506.0 0.001976 437.15570 560.78156
490.0 0.002041 437.00504 546.64569
515.0 0.001942 436.85339 534.78967
489.0 0.002045 436.70099 524.74182
470.0 0.002128 436.54767 516.13934
485.0 0.002062 436.39352 508.70932
487.0 0.002053 436.23843 502.24628
476.0 0.002101 436.08252 496.58023
445.0 0.002247 435.92584 491.58365
450.0 0.002222 435.76825 487.14914
438.0 0.002283 435.60983 483.19159
441.0 0.002268 435.45065 479.64429
463.0 0.002160 435.29062 476.44733
442.0 0.002262 435.12973 473.55511
425.0 0.002353 434.96808 448.94699
451.0 0.002217 434.80548 447.85297
440.0 0.002273 434.64221 446.84885
419.0 0.002387 434.47809 445.92264
440.0 0.002273 434.31314 434.36166
459.0 0.002179 434.14749 434.19244
449.0 0.002227 433.98093 433.99396
442.0 0.002262 433.81366 433.82550
418.0 0.002392 433.64557 433.65631
409.0 0.002445 433.47672 433.48648
440.0 0.002273 433.30713 433.30194
454.0 0.002203 433.13666 433.13150
435.0 0.002299 432.96552 432.96039
439.0 0.002278 432.79352 432.78842
462.0 0.002165 432.62085 432.61575
466.0 0.002146 432.44742 432.44238
455.0 0.002198 432.27319 432.26810
450.0 0.002222 432.09827 432.09317
439.0 0.002278 431.92258 431.91751
435.0 0.002299 431.74615 431.74109
446.0 0.002242 431.56903 431.56396
437.0 0.002288 431.39099 431.38599
452.0 0.002212 431.21249 431.20746
468.0 0.002137 431.03311 431.02811
464.0 0.002155 430.85306 430.84802
476.0 0.002101 430.67230 430.66736
468.0 0.002137 430.49084 430.48581
445.0 0.002247 430.30862 430.30365
462.0 0.002165 430.12579 430.12082
446.0 0.002242 429.94220 429.93723
436.0 0.002294 429.75793 429.75302
423.0 0.002364 429.57297 429.56802
425.0 0.002353 429.38730 429.38239
437.0 0.002288 429.20102 438.91830
434.0 0.002304 429.01410 439.43530
394.0 0.002538 428.82639 440.03189
421.0 0.002375 428.63800 445.28925
426.0 0.002347 428.44907 446.40631
412.0 0.002427 428.25934 447.68597
410.0 0.002439 428.06906 449.15625
522.0 0.001916 427.87814 450.85339
480.0 0.002083 427.68649 452.82285
446.0 0.002242 427.49435 455.11954
464.0 0.002155 427.30145 457.81827
491.0 0.002037 427.10797 461.01273
462.0 0.002165 426.91382 464.83139
444.0 0.002252 426.71902 469.44888
564.0 0.001773 426.52359 475.10547
537.0 0.001862 426.32761 482.15976
585.0 0.001709 426.13107 491.15024
631.0 0.001585 425.93381 503.00439
651.0 0.001536 425.73596 519.84723
710.0 0.001408 425.53754 547.91730
783.0 0.001277 425.33850 601.60956
853.0 0.001172 425.13892 697.64679
968.0 0.001033 424.93872 842.23267
1121.0 0.000892 424.73785 1035.44214
1324.0 0.000755 424.53656 1287.04541
1628.0 0.000614 424.33450 1608.36523
1973.0 0.000507 424.13217 2023.03735
2469.0 0.000405 423.92905 2568.20239
3363.0 0.0002974 423.72537 3319.37280
4774.0 0.0002095 423.52127 4425.00586
6706.0 0.0001491 423.31641 5944.96045
7934.0 0.0001260 423.11121 7086.72754
6706.0 0.0001491 422.90536 6188.01318
4552.0 0.0002197 422.69891 4387.85107
3975.0 0.0002516 422.49197 3768.09131
3914.0 0.0002555 422.28455 3673.28271
2869.0 0.0003486 422.07660 2755.96069
1525.0 0.000656 421.86804 1570.29822
885.0 0.001130 421.65897 953.43970
672.0 0.001488 421.44946 732.47668
572.0 0.001748 421.23941 644.03772
537.0 0.001862 421.02887 594.63965
519.0 0.001927 420.81784 562.40619
517.0 0.001934 420.60614 540.20587
526.0 0.001901 420.39401 524.52081
501.0 0.001996 420.18152 513.35248
477.0 0.002096 419.96844 505.54800
471.0 0.002123 419.75488 500.43533
536.0 0.001866 419.54086 497.68225
577.0 0.001733 419.32635 497.23926
527.0 0.001898 419.11127 501.52460
504.0 0.001984 418.89597 507.66647
568.0 0.001761 418.68002 521.52905
591.0 0.001692 418.46365 551.50836
654.0 0.001529 418.24683 606.87329
724.0 0.001381 418.02954 689.06580
827.0 0.001209 417.81189 797.41095
965.0 0.001036 417.59366 939.33136
1134.0 0.000882 417.37503 1124.55237
1405.0 0.000712 417.15604 1366.02771
1757.0 0.000569 416.93646 1689.00024
2349.0 0.000426 416.71661 2150.38843
3114.0 0.0003211 416.49631 2834.79980
4025.0 0.0002484 416.27548 3621.91772
4242.0 0.0002357 416.05432 3824.19141
3281.0 0.0003048 415.83270 2956.73999
2459.0 0.000407 415.61075 2249.11743
2255.0 0.000443 415.38840 2149.98462
2194.0 0.000456 415.16553 2012.86316
1531.0 0.000653 414.94238 1413.05444
933.0 0.001072 414.71878 900.60834
711.0 0.001406 414.49484 687.52008
639.0 0.001565 414.27042 632.60022
591.0 0.001692 414.04559 634.21997
637.0 0.001570 413.82053 661.84949
676.0 0.001479 413.59497 711.57043
722.0 0.001385 413.36920 785.90131
816.0 0.001225 413.14294 890.02844
1021.0 0.000979 412.91626 1035.87671
1277.0 0.000783 412.68939 1252.01599
1567.0 0.000638 412.46213 1565.15515
1898.0 0.000527 412.23450 1868.27417
1840.0 0.000543 412.00650 1809.90295
1450.0 0.000690 411.77808 1416.63867
1241.0 0.000806 411.54938 1229.22217
1265.0 0.000791 411.32034 1259.48328
1191.0 0.000840 411.09103 1205.34119
983.0 0.001017 410.86142 1007.53668
839.0 0.001192 410.63132 913.55536
879.0 0.001138 410.40106 960.84900
1028.0 0.000973 410.17038 1097.96887
1253.0 0.000798 409.93951 1316.28857
1587.0 0.000630 409.70825 1649.82983
2052.0 0.000487 409.47656 2058.79736
2213.0 0.000452 409.24478 2208.75049
1804.0 0.000554 409.01257 1785.15344
1371.0 0.000729 408.78021 1381.34717
1276.0 0.000784 408.54745 1304.92676
1231.0 0.000812 408.31442 1268.63062
970.0 0.001031 408.08112 983.16290
660.0 0.001515 407.84756 686.97968
511.0 0.001957 407.61374 543.66052
463.0 0.002160 407.37958 491.40897
418.0 0.002392 407.14514 468.57208
401.0 0.002494 406.91055 454.91986
373.0 0.002681 406.67563 445.55478
357.0 0.002801 406.44049 438.73965
344.0 0.002907 406.20508 433.56903
379.0 0.002639 405.96927 429.51630
372.0 0.002688 405.73346 426.25708
361.0 0.002770 405.49728 423.57587
375.0 0.002667 405.26089 421.32996
361.0 0.002770 405.02429 419.41727
341.0 0.002933 404.78735 416.01947
347.0 0.002882 404.55032 414.67816
379.0 0.002639 404.31302 413.49527
388.0 0.002577 404.07556 412.44183
364.0 0.002747 403.83777 410.62408
384.0 0.002604 403.59982 409.81555
386.0 0.002591 403.36169 409.07681
350.0 0.002857 403.12323 408.39639
357.0 0.002801 402.88480 407.76566
394.0 0.002538 402.64600 407.17719
358.0 0.002793 402.40698 406.62491
369.0 0.002710 402.16794 406.10431
380.0 0.002632 401.92856 403.37872
370.0 0.002703 401.68909 403.04138
381.0 0.002625 401.44943 402.71341
390.0 0.002564 401.20947 402.39346
410.0 0.002439 400.96942 400.96606
395.0 0.002532 400.72928 400.72589
397.0 0.002519 400.48889 400.48560
357.0 0.002801 400.24844 400.24503
388.0 0.002577 400.00766 400.00427
372.0 0.002688 399.76685 399.76352
409.0 0.002445 399.52585 399.52246
398.0 0.002513 399.28473 399.28146
382.0 0.002618 399.04346 399.04019
389.0 0.002571 398.80194 398.79865
381.0 0.002625 398.56046 398.55716
375.0 0.002667 398.31873 398.31543
370.0 0.002703 398.07693 398.07361
386.0 0.002591 397.83496 397.83176
385.0 0.002597 397.59286 397.58963
363.0 0.002755 397.35068 397.34747
369.0 0.002710 397.10834 397.10510
372.0 0.002688 396.86591 396.86273
384.0 0.002604 396.62341 396.62021
387.0 0.002584 396.38068 396.37753
398.0 0.002513 396.13803 396.13483
395.0 0.002532 395.89517 403.56052
374.0 0.002674 395.65222 403.85971
376.0 0.002660 395.40921 404.21884
375.0 0.002667 395.16602 404.64725
358.0 0.002793 394.92288 408.91144
359.0 0.002786 394.67950 415.33621
375.0 0.002667 394.43616 416.73224
389.0 0.002571 394.19284 418.33575
390.0 0.002564 393.94916 420.18460
417.0 0.002398 393.70560 425.04391
422.0 0.002370 393.46198 430.69751
404.0 0.002475 393.21826 434.03024
363.0 0.002755 392.97449 437.93088
409.0 0.002445 392.73053 442.53445
434.0 0.002304 392.48672 449.47125
463.0 0.002160 392.24274 456.18350
458.0 0.002183 391.99881 464.37814
482.0 0.002075 391.75476 474.56973
482.0 0.002075 391.51068 487.56497
529.0 0.001890 391.26657 504.87558
607.0 0.001647 391.02237 530.43762
654.0 0.001529 390.77826 574.20569
725.0 0.001379 390.53406 652.88544
839.0 0.001192 390.28970 776.84760
1069.0 0.000935 390.04556 955.76215
1230.0 0.000813 389.80127 1187.76599
1486.0 0.000673 389.55698 1502.79260
1871.0 0.000534 389.31281 1938.62378
2541.0 0.000394 389.06839 2549.93311
3347.0 0.0002988 388.82413 3440.78223
4723.0 0.0002117 388.57977 4695.31348
6014.0 0.0001663 388.33548 5977.04199
5920.0 0.0001689 388.09125 6140.80908
4809.0 0.0002079 387.84683 5159.45801
4780.0 0.0002092 387.60260 4930.24512
5640.0 0.0001773 387.35828 5762.66357
6490.0 0.0001541 387.11404 6559.67139
5979.0 0.0001673 386.86981 5927.46191
4386.0 0.0002280 386.62558 4363.56641
3636.0 0.0002750 386.38138 3593.52466
3887.0 0.0002573 386.13718 3813.93140
4207.0 0.0002377 385.89310 4143.91357
3626.0 0.0002758 385.64899 3560.37500
2582.0 0.000387 385.40491 2400.53784
1691.0 0.000591 385.16098 1725.25989
1520.0 0.000658 384.91690 1575.52490
1475.0 0.000678 384.67297 1493.94348
1157.0 0.000864 384.42911 1161.03284
817.0 0.001224 384.18521 817.55756
608.0 0.001645 383.94147 641.29657
535.0 0.001869 383.69769 569.12665
492.0 0.002033 383.45413 533.91644
473.0 0.002114 383.21054 511.69147
435.0 0.002299 382.96692 496.16196
441.0 0.002268 382.72351 485.00455
445.0 0.002247 382.48007 476.98840
454.0 0.002203 382.23685 471.42181
480.0 0.002083 381.99356 467.91656
473.0 0.002114 381.75037 466.30460
439.0 0.002278 381.50726 466.60123
451.0 0.002217 381.26431 469.02182
490.0 0.002041 381.02145 474.07434
523.0 0.001912 380.77856 482.95532
558.0 0.001792 380.53586 492.57590
604.0 0.001656 380.29330 526.90881
686.0 0.001458 380.05075 589.08832
739.0 0.001353 379.80847 689.09894
842.0 0.001188 379.56610 830.68994
1024.0 0.000977 379.32382 1014.61816
1213.0 0.000824 379.08179 1266.37305
1560.0 0.000641 378.83981 1610.03064
2103.0 0.000476 378.59802 2095.33081
2802.0 0.000357 378.35617 2806.47192
3809.0 0.0002625 378.11459 3737.45020
4273.0 0.0002340 377.87314 4364.05811
3581.0 0.0002793 377.63177 3757.17163
2590.0 0.000386 377.39056 2682.75171
2214.0 0.000452 377.14951 2294.97632
2304.0 0.000434 376.90848 2368.94238
2009.0 0.000498 376.66772 2137.94604
1362.0 0.000734 376.42700 1423.05701
838.0 0.001193 376.18646 886.28149
612.0 0.001634 375.94608 655.46124
519.0 0.001927 375.70581 571.59082
484.0 0.002066 375.46576 534.67303
511.0 0.001957 375.22580 516.18280
508.0 0.001969 374.98605 511.09787
527.0 0.001898 374.74643 521.18750
587.0 0.001704 374.50687 547.41754
589.0 0.001698 374.26764 591.88501
645.0 0.001550 374.02850 653.35730
691.0 0.001447 373.78955 739.73676
872.0 0.001147 373.55084 857.29980
1035.0 0.000966 373.31213 1026.29602
1266.0 0.000790 373.07376 1278.17383
1608.0 0.000622 372.83545 1607.87854
1864.0 0.000536 372.59750 1845.51965
1699.0 0.000589 372.35956 1707.52722
1481.0 0.000675 372.12180 1457.58801
1489.0 0.000672 371.88437 1483.92371
1617.0 0.000618 371.64700 1709.92883
1797.0 0.000556 371.40985 1911.75903
2005.0 0.000499 371.17297 2050.96948
2439.0 0.000410 370.93619 2405.06836
3248.0 0.0003079 370.69958 3106.30615
4169.0 0.0002399 370.46335 3952.51782
4184.0 0.0002390 370.22723 4165.56934
3223.0 0.0003103 369.99139 3220.27002
2401.0 0.000416 369.75558 2371.52539
2284.0 0.000438 369.52017 2219.72168
2337.0 0.000428 369.28485 2289.05615
1946.0 0.000514 369.04984 1896.34265
1228.0 0.000814 368.81500 1210.37891
749.0 0.001335 368.58026 789.29883
594.0 0.001684 368.34598 625.63611
528.0 0.001894 368.11176 571.34283
501.0 0.001996 367.87793 556.36127
513.0 0.001949 367.64423 562.76099
574.0 0.001742 367.41071 574.78638
584.0 0.001712 367.17761 558.25000
501.0 0.001996 366.94449 510.58325
442.0 0.002262 366.71182 479.54803
460.0 0.002174 366.47937 472.75064
453.0 0.002208 366.24698 468.34473
393.0 0.002545 366.01511 445.35825
387.0 0.002584 365.78326 418.38354
373.0 0.002681 365.55182 402.65570
366.0 0.002732 365.32056 393.25046
358.0 0.002793 365.08951 389.03458
317.0 0.003155 364.85880 385.98325
342.0 0.002924 364.62830 383.53253
335.0 0.002985 364.39813 381.48270
328.0 0.003049 364.16821 378.82724
324.0 0.003086 363.93848 377.34299
366.0 0.002732 363.70898 376.02982
372.0 0.002688 363.47986 374.85379
359.0 0.002786 363.25107 373.79099
349.0 0.002865 363.02249 367.53769
332.0 0.003012 362.79407 366.96188
330.0 0.003030 362.56607 366.42700
321.0 0.003115 362.33835 365.92642
344.0 0.002907 362.11084 362.74432
319.0 0.003135 361.88373 362.46130
340.0 0.002941 361.65683 362.18558
346.0 0.002890 361.43024 361.91629
395.0 0.002532 361.20386 361.65213
329.0 0.003040 360.97787 361.39273
347.0 0.002882 360.75211 361.13718
352.0 0.002841 360.52664 360.88495
324.0 0.003086 360.30154 360.63583
346.0 0.002890 360.07669 360.20139
343.0 0.002915 359.85220 359.96832
332.0 0.003012 359.62799 359.73642
339.0 0.002950 359.40399 359.50543
334.0 0.002994 359.18048 359.17899
321.0 0.003115 358.95718 358.95572
327.0 0.003058 358.73419 358.73276
342.0 0.002924 358.51154 358.51010
329.0 0.003040 358.28912 358.28769
302.0 0.003311 358.06714 358.06577
312.0 0.003205 357.84540 357.84399
347.0 0.002882 357.62402 357.62262
347.0 0.002882 357.40302 357.40161
317.0 0.003155 357.18219 357.18085
327.0 0.003058 356.96182 356.96048
360.0 0.002778 356.74176 356.74039
339.0 0.002950 356.52206 356.52063
335.0 0.002985 356.30261 356.30130
338.0 0.002959 356.08350 356.08218
329.0 0.003040 355.86484 355.86349
340.0 0.002941 355.64639 355.64505
347.0 0.002882 355.42834 355.42706
336.0 0.002976 355.21060 355.20932
344.0 0.002907 354.99319 354.99194
329.0 0.003040 354.77621 354.77496
335.0 0.002985 354.55954 354.55826
346.0 0.002890 354.34317 354.34195
335.0 0.002985 354.12714 354.12595
330.0 0.003030 353.91156 353.91031
326.0 0.003067 353.69632 353.69507
335.0 0.002985 353.48132 353.48007
329.0 0.003040 353.26682 353.26563
329.0 0.003040 353.05261 353.05142
341.0 0.002933 352.83871 352.83749
331.0 0.003021 352.62527 352.62408
335.0 0.002985 352.41211 352.41095
331.0 0.003021 352.19943 352.19824
338.0 0.002959 351.98703 351.98584
329.0 0.003040 351.77496 351.77383
345.0 0.002899 351.56335 351.56223
335.0 0.002985 351.35208 351.35092
351.0 0.002849 351.14124 351.14005
335.0 0.002985 350.93066 350.92963
358.0 0.002793 350.72049 350.71933
335.0 0.002985 350.51074 350.50958
352.0 0.002841 350.30133 350.30023
365.0 0.002740 350.09232 350.09119
373.0 0.002681 349.88373 349.88257
359.0 0.002786 349.67542 349.67438
372.0 0.002688 349.46762 349.46655
324.0 0.003086 349.26010 349.25900
386.0 0.002591 349.05304 349.05194
338.0 0.002959 348.84631 348.84537
388.0 0.002577 348.64001 348.63898
319.0 0.003135 348.43411 348.43311
302.0 0.003311 348.22861 351.60678
338.0 0.002959 348.02350 351.63782
340.0 0.002941 347.81873 351.69498
328.0 0.003049 347.61441 351.78223
352.0 0.002841 347.41052 351.90433
344.0 0.002907 347.20697 353.77304
341.0 0.002933 347.00391 354.10278
347.0 0.002882 346.80115 354.50165
341.0 0.002933 346.59882 354.98209
382.0 0.002618 346.39694 355.55923
346.0 0.002890 346.19543 356.25305
328.0 0.003049 345.99435 357.08789
380.0 0.002632 345.79367 370.06619
370.0 0.002703 345.59338 372.12772
380.0 0.002632 345.39349 374.55084
336.0 0.002976 345.19406 377.42715
346.0 0.002890 344.99506 380.87796
386.0 0.002591 344.79648 391.10873
394.0 0.002538 344.59821 396.73593
435.0 0.002299 344.40045 403.80325
440.0 0.002273 344.20313 413.04099
431.0 0.002320 344.00620 426.17929
477.0 0.002096 343.80972 447.57767
523.0 0.001912 343.61362 490.19357
574.0 0.001742 343.41797 551.85785
655.0 0.001527 343.22275 641.80157
749.0 0.001335 343.02802 764.24792
882.0 0.001134 342.83359 929.59747
1142.0 0.000876 342.63959 1160.98608
1558.0 0.000642 342.44611 1501.39307
2047.0 0.000489 342.25299 1967.14185
2415.0 0.000414 342.06046 2393.77100
2374.0 0.000421 341.86813 2341.35327
1955.0 0.000512 341.67630 1829.13306
1719.0 0.000582 341.48508 1548.74768
1796.0 0.000557 341.29413 1655.97595
1923.0 0.000520 341.10370 1924.11621
1924.0 0.000520 340.91364 2046.91064
1946.0 0.000514 340.72409 2110.88525
2175.0 0.000460 340.53497 2444.81226
2799.0 0.000357 340.34628 3137.96265
3934.0 0.0002542 340.15802 4280.48779
5501.0 0.0001818 339.97031 5868.19922
6683.0 0.0001496 339.78287 7242.26416
6214.0 0.0001609 339.59595 6833.43896
4440.0 0.0002252 339.40952 4902.58154
3354.0 0.0002982 339.22348 3788.03735
3482.0 0.0002872 339.03796 3843.86914
3766.0 0.0002655 338.85278 4167.85107
3333.0 0.0003000 338.66815 3663.01660
2442.0 0.000410 338.48392 2637.13696
1976.0 0.000506 338.30017 2126.43823
2202.0 0.000454 338.11685 2223.15283
2692.0 0.000371 337.93405 2722.33716
3253.0 0.0003074 337.75165 3348.92749
3361.0 0.0002975 337.56973 3487.56030
2609.0 0.000383 337.38828 2798.09888
2077.0 0.000481 337.20731 2207.72534
2105.0 0.000475 337.02673 2177.41113
2319.0 0.000431 336.84668 2457.86377
2359.0 0.000424 336.66705 2517.36230
1871.0 0.000534 336.48792 2032.13403
1261.0 0.000793 336.30927 1390.30066
873.0 0.001145 336.13092 1005.69244
781.0 0.001280 335.95325 891.53467
782.0 0.001279 335.77594 883.50842
751.0 0.001332 335.59909 817.79120
643.0 0.001555 335.42279 658.36395
468.0 0.002137 335.24686 529.08063
401.0 0.002494 335.07147 464.84598
388.0 0.002577 334.89645 435.39978
349.0 0.002865 334.72198 418.85703
358.0 0.002793 334.54800 407.49863
370.0 0.002703 334.37451 399.07993
329.0 0.003040 334.20139 392.71558
340.0 0.002941 334.02878 381.36133
359.0 0.002786 333.85675 379.14420
360.0 0.002778 333.68512 379.09671
376.0 0.002660 333.51389 382.27216
378.0 0.002646 333.34329 383.88986
400.0 0.002500 333.17307 397.84399
398.0 0.002513 333.00339 414.93735
377.0 0.002653 332.83411 439.72528
431.0 0.002320 332.66534 476.64285
511.0 0.001957 332.49716 529.86053
547.0 0.001828 332.32928 588.56311
553.0 0.001808 332.16196 599.57703
517.0 0.001934 331.99521 540.03253
475.0 0.002105 331.82880 481.70438
475.0 0.002105 331.66290 468.44638
471.0 0.002123 331.49753 480.44446
470.0 0.002128 331.33270 475.10507
437.0 0.002288 331.16824 436.10172
389.0 0.002571 331.00427 400.86145
391.0 0.002558 330.84091 385.93491
444.0 0.002252 330.67795 384.70532
438.0 0.002283 330.51550 390.85483
458.0 0.002183 330.35355 404.01102
488.0 0.002049 330.19199 431.72891
533.0 0.001876 330.03104 483.29819
599.0 0.001669 329.87048 563.64874
651.0 0.001536 329.71054 683.06665
818.0 0.001222 329.55109 844.97455
1055.0 0.000948 329.39191 1074.64819
1454.0 0.000688 329.23349 1405.48267
2032.0 0.000492 329.07541 1872.28162
2579.0 0.000388 328.91785 2334.38184
2431.0 0.000411 328.76080 2351.73267
1796.0 0.000557 328.60422 1800.46094
1359.0 0.000736 328.44818 1364.38379
1420.0 0.000704 328.29266 1293.76672
1501.0 0.000666 328.13763 1389.29993
1399.0 0.000715 327.98297 1317.54590
949.0 0.001054 327.82889 966.43567
627.0 0.001595 327.67532 658.51318
492.0 0.002033 327.52219 509.47772
448.0 0.002232 327.36969 450.03021
418.0 0.002392 327.21753 423.66812
359.0 0.002786 327.06598 409.51047
387.0 0.002584 326.91486 401.20743
401.0 0.002494 326.76434 397.94891
416.0 0.002404 326.61423 396.49875
416.0 0.002404 326.46460 400.04919
407.0 0.002457 326.31549 404.23557
431.0 0.002320 326.16696 412.25986
460.0 0.002174 326.01877 427.08667
496.0 0.002016 325.87128 454.76846
520.0 0.001923 325.72421 502.70563
622.0 0.001608 325.57758 576.20746
702.0 0.001425 325.43155 683.51392
846.0 0.001182 325.28595 832.63171
1104.0 0.000906 325.14087 1058.04431
1408.0 0.000710 324.99634 1390.91296
1787.0 0.000560 324.85226 1822.41443
2095.0 0.000477 324.70865 2169.99658
2117.0 0.000472 324.56558 2147.68628
2004.0 0.000499 324.42303 2006.59473
2103.0 0.000476 324.28101 2166.80200
2411.0 0.000415 324.13943 2500.29199
2427.0 0.000412 323.99841 2512.42163
1952.0 0.000512 323.85785 2021.30823
1565.0 0.000639 323.71786 1570.33655
1492.0 0.000670 323.57840 1478.37024
1552.0 0.000644 323.43933 1606.67285
1629.0 0.000614 323.30084 1707.77234
1828.0 0.000547 323.16278 1734.26355
2030.0 0.000493 323.02533 1874.35852
2047.0 0.000489 322.88831 1987.86255
1691.0 0.000591 322.75180 1758.62024
1338.0 0.000747 322.61581 1461.52625
1344.0 0.000744 322.48038 1430.14783
1681.0 0.000595 322.34537 1653.23315
2091.0 0.000478 322.21097 1969.00244
2276.0 0.000439 322.07697 2159.90308
2220.0 0.000450 321.94363 2124.82715
1766.0 0.000566 321.81058 1741.80652
1238.0 0.000808 321.67822 1270.71069
1017.0 0.000983 321.54636 1058.78223
1076.0 0.000929 321.41486 1074.17761
1196.0 0.000836 321.28406 1118.10510
995.0 0.001005 321.15359 977.12244
707.0 0.001414 321.02365 712.99597
512.0 0.001953 320.89435 532.34015
405.0 0.002469 320.76538 450.88638
402.0 0.002488 320.63712 415.88889
351.0 0.002849 320.50919 395.21051
386.0 0.002591 320.38190 383.65262
340.0 0.002941 320.25504 375.74487
341.0 0.002933 320.12866 370.30005
369.0 0.002710 320.00296 366.47433
331.0 0.003021 319.87759 360.92261
350.0 0.002857 319.75284 356.69739
349.0 0.002865 319.62854 354.42969
384.0 0.002604 319.50470 353.38660
366.0 0.002732 319.38144 353.34515
369.0 0.002710 319.25870 352.70941
392.0 0.002551 319.13641 353.62500
379.0 0.002639 319.01468 355.38498
396.0 0.002525 318.89340 356.31723
427.0 0.002342 318.77271 361.81766
420.0 0.002381 318.65250 370.93188
408.0 0.002451 318.53278 387.55325
499.0 0.002004 318.41357 418.77637
545.0 0.001835 318.29483 470.30194
581.0 0.001721 318.17664 549.43762
703.0 0.001422 318.05893 659.31421
881.0 0.001135 317.94174 817.35181
1133.0 0.000883 317.82513 1047.38806
1368.0 0.000731 317.70892 1368.81116
1625.0 0.000615 317.59329 1681.55615
1729.0 0.000578 317.47815 1695.03662
1392.0 0.000718 317.36359 1320.19043
1024.0 0.000977 317.24942 1013.92072
928.0 0.001078 317.13574 951.54810
999.0 0.001001 317.02264 1022.66205
1026.0 0.000975 316.91000 1021.69006
851.0 0.001175 316.79797 814.12531
627.0 0.001595 316.68631 581.27228
488.0 0.002049 316.57516 451.03076
407.0 0.002457 316.46463 396.25647
378.0 0.002646 316.35455 372.41632
383.0 0.002611 316.24503 360.98221
372.0 0.002688 316.13599 352.27048
353.0 0.002833 316.02734 346.09628
350.0 0.002857 315.91925 341.54941
366.0 0.002732 315.81177 338.10376
364.0 0.002747 315.70468 335.43796
376.0 0.002660 315.59814 334.33008
354.0 0.002825 315.49207 332.74850
343.0 0.002915 315.38654 331.52072
362.0 0.002762 315.28149 330.58353
349.0 0.002865 315.17700 329.89502
330.0 0.003030 315.07294 340.19678
351.0 0.002849 314.96933 340.66916
373.0 0.002681 314.86639 341.42245
355.0 0.002817 314.76385 342.47568
344.0 0.002907 314.66183 343.86008
343.0 0.002915 314.56030 345.62534
325.0 0.003077 314.45926 353.43301
329.0 0.003040 314.35870 356.59235
371.0 0.002695 314.25873 360.49985
348.0 0.002874 314.15924 363.00620
394.0 0.002538 314.06027 369.39392
380.0 0.002632 313.96164 377.89050
408.0 0.002451 313.86365 390.34152
472.0 0.002119 313.76617 410.78159
490.0 0.002041 313.66910 444.05313
489.0 0.002045 313.57263 496.49222
571.0 0.001751 313.47650 572.76495
682.0 0.001466 313.38101 679.77917
869.0 0.001151 313.28601 831.20197
1105.0 0.000905 313.19147 1047.63550
1345.0 0.000743 313.09741 1310.68164
1589.0 0.000629 313.00381 1470.89575
1422.0 0.000703 312.91080 1338.23096
1213.0 0.000824 312.81824 1111.65332
1172.0 0.000853 312.72626 1081.19556
1301.0 0.000769 312.63458 1273.81702
1646.0 0.000608 312.54355 1596.77478
1910.0 0.000524 312.45294 1938.67053
2283.0 0.000438 312.36285 2334.03613
3028.0 0.0003303 312.27335 3019.66187
4254.0 0.0002351 312.18417 4129.18848
5569.0 0.0001796 312.09555 5485.71094
6048.0 0.0001653 312.00748 6149.31152
4918.0 0.0002033 311.91980 5096.52295
3390.0 0.0002950 311.83264 3541.74585
2698.0 0.000371 311.74606 2886.19702
2901.0 0.0003447 311.65982 3027.27588
3160.0 0.0003165 311.57422 3308.51392
2796.0 0.000358 311.48904 2915.36182
1819.0 0.000550 311.40433 1910.50085
1073.0 0.000932 311.32010 1144.42761
699.0 0.001431 311.23639 776.23981
581.0 0.001721 311.15314 626.86163
533.0 0.001876 311.07040 560.24817
502.0 0.001992 310.98816 528.67578
491.0 0.002037 310.90634 521.27423
513.0 0.001949 310.82510 535.79333
560.0 0.001786 310.74423 573.63043
627.0 0.001595 310.66388 639.23444
716.0 0.001397 310.58411 741.60815
847.0 0.001181 310.50470 889.19025
983.0 0.001017 310.42581 1047.17480
1077.0 0.000929 310.34744 1108.37708
1006.0 0.000994 310.26950 1014.88684
854.0 0.001171 310.19208 900.00378
834.0 0.001199 310.11511 908.57257
982.0 0.001018 310.03864 1038.44482
1226.0 0.000816 309.96259 1223.46375
1385.0 0.000722 309.88705 1359.51892
1425.0 0.000702 309.81201 1331.08228
1135.0 0.000881 309.73740 1085.65955
791.0 0.001264 309.66333 824.39484
668.0 0.001497 309.58972 715.34930
709.0 0.001410 309.51654 715.55182
790.0 0.001266 309.44388 751.26099
727.0 0.001376 309.37170 697.26428
564.0 0.001773 309.29999 554.97247
480.0 0.002083 309.22867 442.82245
411.0 0.002433 309.15784 386.70718
340.0 0.002941 309.08765 357.53342
329.0 0.003040 309.01770 345.67068
360.0 0.002778 308.94843 338.26620
356.0 0.002809 308.87946 333.05527
333.0 0.003003 308.81104 329.17984
345.0 0.002899 308.74307 326.19540
341.0 0.002933 308.67554 323.83176
299.0 0.003344 308.60849 321.91733
312.0 0.003205 308.54193 320.33878
354.0 0.002825 308.47586 319.01556
349.0 0.002865 308.41022 318.41583
299.0 0.003344 308.34503 317.48569
312.0 0.003205 308.28027 316.68628
298.0 0.003356 308.21600 315.99527
299.0 0.003344 308.15222 314.12344
305.0 0.003279 308.08890 313.67639
326.0 0.003067 308.02609 313.55725
336.0 0.002976 307.96362 313.24112
303.0 0.003300 307.90164 312.97452
343.0 0.002915 307.84015 312.52600
318.0 0.003145 307.77908 311.96497
310.0 0.003226 307.71851 310.41138
313.0 0.003195 307.65842 310.44168
320.0 0.003125 307.59875 310.50769
334.0 0.002994 307.53949 310.61472
329.0 0.003040 307.48074 310.77045
308.0 0.003247 307.42239 310.98563
327.0 0.003058 307.36459 310.57413
309.0 0.003236 307.30716 311.00150
293.0 0.003413 307.25015 311.55344
323.0 0.003096 307.19363 312.27829
336.0 0.002976 307.13760 313.25513
331.0 0.003021 307.08194 315.66617
345.0 0.002899 307.02679 317.87146
368.0 0.002717 306.97208 321.68069
351.0 0.002849 306.91776 328.63382
335.0 0.002985 306.86401 340.46552
366.0 0.002732 306.81052 358.81192
416.0 0.002404 306.75760 385.52802
437.0 0.002288 306.70517 423.22424
487.0 0.002053 306.65302 477.80469
582.0 0.001718 306.60144 542.96411
626.0 0.001597 306.55023 581.74481
580.0 0.001724 306.49951 542.31921
470.0 0.002128 306.44922 467.71634
419.0 0.002387 306.39926 431.58170
426.0 0.002347 306.34991 433.71185
451.0 0.002217 306.30084 451.88159
454.0 0.002203 306.25235 448.82202
434.0 0.002304 306.20419 408.37314
371.0 0.002695 306.15649 368.25925
352.0 0.002841 306.10925 346.30545
342.0 0.002924 306.06241 338.25940
338.0 0.002959 306.01599 336.86566
359.0 0.002786 305.97006 338.65106
360.0 0.002778 305.92453 344.10312
366.0 0.002732 305.87936 355.58530
390.0 0.002564 305.83469 376.34305
423.0 0.002364 305.79044 408.48267
453.0 0.002208 305.74661 457.18491
525.0 0.001905 305.70316 526.17847
654.0 0.001529 305.66019 626.32123
822.0 0.001217 305.61761 746.88129
868.0 0.001152 305.57547 823.77179
800.0 0.001250 305.53375 760.29089
621.0 0.001610 305.49243 626.22968
544.0 0.001838 305.45157 555.74176
520.0 0.001923 305.41113 562.67676
654.0 0.001529 305.37109 606.76917
673.0 0.001486 305.33145 628.35754
605.0 0.001653 305.29224 596.29871
622.0 0.001608 305.25336 577.74292
634.0 0.001577 305.21503 625.59039
768.0 0.001302 305.17703 741.85822
966.0 0.001035 305.13947 934.91095
1172.0 0.000853 305.10226 1193.53113
1366.0 0.000732 305.06558 1426.02173
1469.0 0.000681 305.02924 1422.90857
1232.0 0.000812 304.99329 1189.86523
990.0 0.001010 304.95776 1007.23224
914.0 0.001094 304.92270 935.77118
894.0 0.001119 304.88797 935.78674
898.0 0.001114 304.85367 943.22913
852.0 0.001174 304.81976 839.93811
692.0 0.001445 304.78629 674.72003
534.0 0.001873 304.75320 551.20105
437.0 0.002288 304.72049 464.00534
390.0 0.002564 304.68823 405.09540
368.0 0.002717 304.65631 372.78311
348.0 0.002874 304.62479 356.27164
345.0 0.002899 304.59363 347.12891
338.0 0.002959 304.56290 341.94684
317.0 0.003155 304.53262 337.90787
316.0 0.003165 304.50269 335.02631
339.0 0.002950 304.47314 332.01450
352.0 0.002841 304.44406 330.63470
336.0 0.002976 304.41528 330.06171
337.0 0.002967 304.38693 329.59161
334.0 0.002994 304.35895 329.47897
332.0 0.003012 304.33136 329.69614
336.0 0.002976 304.30417 329.76852
353.0 0.002833 304.27740 330.65961
370.0 0.002703 304.25092 331.89575
354.0 0.002825 304.22491 333.51367
355.0 0.002817 304.19916 335.57196
366.0 0.002732 304.17395 338.15134
361.0 0.002770 304.14908 341.36859
358.0 0.002793 304.12448 351.80081
383.0 0.002611 304.10031 355.25140
401.0 0.002494 304.07657 362.13443
436.0 0.002294 304.05316 370.50735
430.0 0.002326 304.03018 382.02902
468.0 0.002137 304.00754 397.75644
458.0 0.002183 303.98526 423.28534
550.0 0.001818 303.96338 462.65424
611.0 0.001637 303.94180 533.79089
742.0 0.001348 303.92068 657.43713
977.0 0.001024 303.89990 845.46063
1215.0 0.000823 303.87949 1133.61780
1675.0 0.000597 303.85944 1551.29736
2276.0 0.000439 303.83969 2134.80859
2978.0 0.0003358 303.82040 2793.31323
3433.0 0.0002913 303.80142 3125.13477
2927.0 0.0003416 303.78287 2652.86401
2006.0 0.000499 303.76462 1911.88245
1612.0 0.000620 303.74677 1551.26379
1600.0 0.000625 303.72928 1598.87439
1814.0 0.000551 303.71204 1817.75659
1937.0 0.000516 303.69525 1878.46069
1637.0 0.000611 303.67877 1572.39661
1234.0 0.000810 303.66272 1225.48682
1132.0 0.000883 303.64700 1091.19409
1166.0 0.000858 303.63159 1081.61902
1147.0 0.000872 303.61658 1012.24963
894.0 0.001119 303.60193 841.34198
748.0 0.001337 303.58752 718.24841
743.0 0.001346 303.57358 689.47900
759.0 0.001318 303.55994 726.18817
845.0 0.001183 303.54663 767.24091
826.0 0.001211 303.53369 748.52393
765.0 0.001307 303.52112 689.62988
736.0 0.001359 303.50882 677.98743
828.0 0.001208 303.49692 754.54095
1022.0 0.000978 303.48535 945.52155
1288.0 0.000776 303.47403 1272.23547
1702.0 0.000588 303.46320 1774.33447
2388.0 0.000419 303.45264 2539.98267
3548.0 0.0002818 303.44241 3603.15894
5248.0 0.0001905 303.43253 4916.91699
6213.0 0.0001610 303.42294 5821.06787
5449.0 0.0001835 303.41367 5259.19580
3798.0 0.0002633 303.40482 3735.45654
2756.0 0.000363 303.39627 2775.64575
2653.0 0.000377 303.38806 2644.82080
3102.0 0.0003224 303.38007 2996.04785
3263.0 0.0003065 303.37253 3214.47095
2708.0 0.000369 303.36533 2693.26733
1807.0 0.000553 303.35840 1766.84583
1164.0 0.000859 303.35175 1117.18079
848.0 0.001179 303.34552 810.04633
655.0 0.001527 303.33951 701.57404
626.0 0.001597 303.33389 687.80884
737.0 0.001357 303.32855 733.71832
846.0 0.001182 303.32355 839.63141
1030.0 0.000971 303.31891 1019.11969
1365.0 0.000733 303.31451 1286.02112
1712.0 0.000584 303.31046 1606.37573
1967.0 0.000508 303.30670 1813.11389
1813.0 0.000552 303.30328 1684.70776
1449.0 0.000690 303.30017 1411.20386
1319.0 0.000758 303.29739 1318.67090
1474.0 0.000678 303.29483 1465.81396
1820.0 0.000549 303.29266 1762.64124
2127.0 0.000470 303.29083 1963.55737
1906.0 0.000525 303.28918 1764.68115
1394.0 0.000717 303.28790 1303.47241
993.0 0.001007 303.28702 979.26251
906.0 0.001104 303.28635 872.54364
942.0 0.001062 303.28592 901.65436
997.0 0.001003 303.28583 949.27161
983.0 0.001017 303.28607 905.72955
829.0 0.001206 303.28662 788.64935
766.0 0.001305 303.28748 747.32788
835.0 0.001198 303.28857 810.07819
1013.0 0.000987 303.28995 977.01379
1290.0 0.000775 303.29166 1243.35254
1710.0 0.000585 303.29361 1574.21558
1972.0 0.000507 303.29596 1846.11890
1967.0 0.000508 303.29852 1919.43311
2096.0 0.000477 303.30133 2005.06812
2297.0 0.000435 303.30453 2315.52246
2668.0 0.000375 303.30798 2686.88501
2637.0 0.000379 303.31168 2810.50415
2761.0 0.000362 303.31570 2791.90698
2686.0 0.000372 303.32001 2816.20532
2676.0 0.000374 303.32452 2754.01221
2346.0 0.000426 303.32938 2414.20361
1934.0 0.000517 303.33444 2009.36194
1599.0 0.000625 303.33987 1668.75867
1410.0 0.000709 303.34555 1458.52869
1350.0 0.000741 303.35147 1421.74402
1310.0 0.000763 303.35770 1396.80042
1212.0 0.000825 303.36420 1228.00366
1103.0 0.000907 303.37100 1066.79138
1136.0 0.000880 303.37799 1065.55225
1252.0 0.000799 303.38531 1219.90759
1453.0 0.000688 303.39291 1450.26709
1600.0 0.000625 303.40076 1568.92078
1435.0 0.000697 303.40884 1406.55469
1135.0 0.000881 303.41714 1143.04138
968.0 0.001033 303.42581 974.86200
939.0 0.001065 303.43466 938.07672
1007.0 0.000993 303.44385 1001.54108
1052.0 0.000951 303.45331 1056.95532
1011.0 0.000989 303.46295 999.59338
938.0 0.001066 303.47284 907.36322
906.0 0.001104 303.48306 884.53357
967.0 0.001034 303.49347 952.05908
1117.0 0.000895 303.50421 1070.44263
1135.0 0.000881 303.51511 1127.45447
1011.0 0.000989 303.52634 1029.75293
938.0 0.001066 303.53775 928.91296
947.0 0.001056 303.54941 962.94543
1088.0 0.000919 303.56140 1158.15930
1380.0 0.000725 303.57355 1468.58618
1836.0 0.000545 303.58594 1811.73315
2066.0 0.000484 303.59866 1970.36755
1763.0 0.000567 303.61157 1755.60828
1244.0 0.000804 303.62469 1306.92896
940.0 0.001064 303.63809 1010.59076
918.0 0.001089 303.65173 941.66388
1037.0 0.000964 303.66559 1020.49054
1170.0 0.000855 303.67978 1108.30579
1075.0 0.000930 303.69406 1052.03088
902.0 0.001109 303.70865 852.26923
803.0 0.001245 303.72345 703.09753
821.0 0.001218 303.73853 679.24329
917.0 0.001091 303.75378 767.36218
1106.0 0.000904 303.76926 952.87555
1523.0 0.000657 303.78497 1257.11206
2087.0 0.000479 303.80093 1677.90479
2468.0 0.000405 303.81711 2132.89844
2617.0 0.000382 303.83350 2317.81055
2262.0 0.000442 303.85016 1946.54053
1599.0 0.000625 303.86697 1414.20789
1282.0 0.000780 303.88406 1149.46216
1286.0 0.000778 303.90131 1157.16162
1417.0 0.000706 303.91882 1304.57947
1484.0 0.000674 303.93658 1383.69238
1339.0 0.000747 303.95456 1202.55908
988.0 0.001012 303.97266 897.86835
741.0 0.001350 303.99103 706.50439
669.0 0.001495 304.00955 651.31610
681.0 0.001468 304.02835 679.37738
767.0 0.001304 304.04739 721.35822
705.0 0.001418 304.06659 699.15558
618.0 0.001618 304.08603 598.60010
484.0 0.002066 304.10562 513.44440
476.0 0.002101 304.12540 479.34512
483.0 0.002070 304.14542 489.05188
507.0 0.001972 304.16571 510.63162
515.0 0.001942 304.18613 505.40424
466.0 0.002146 304.20673 455.05804
403.0 0.002481 304.22754 400.84882
376.0 0.002660 304.24860 367.23172
344.0 0.002907 304.26984 353.80850
351.0 0.002849 304.29123 351.42328
377.0 0.002653 304.31281 357.02045
385.0 0.002597 304.33466 370.80286
388.0 0.002577 304.35666 394.96295
435.0 0.002299 304.37878 432.82242
480.0 0.002083 304.40118 484.19839
520.0 0.001923 304.42374 535.62128
544.0 0.001838 304.44647 544.03296
504.0 0.001984 304.46945 492.52713
422.0 0.002370 304.49258 431.65805
385.0 0.002597 304.51584 404.13965
386.0 0.002591 304.53931 407.23120
411.0 0.002433 304.56302 424.57712
457.0 0.002188 304.58685 429.35345
447.0 0.002237 304.61081 404.33591
378.0 0.002646 304.63501 365.34854
359.0 0.002786 304.65939 338.11346
351.0 0.002849 304.68393 324.43933
352.0 0.002841 304.70865 318.26453
346.0 0.002890 304.73352 315.10764
349.0 0.002865 304.75858 313.13773
315.0 0.003175 304.78384 311.92029
321.0 0.003115 304.80927 310.91052
327.0 0.003058 304.83487 310.27628
313.0 0.003195 304.86053 309.68524
314.0 0.003185 304.88641 309.21823
314.0 0.003185 304.91251 308.84412
306.0 0.003268 304.93869 308.62088
297.0 0.003367 304.96509 308.37933
331.0 0.003021 304.99158 308.24915
309.0 0.003236 305.01825 307.68192
315.0 0.003175 305.04517 307.57895
300.0 0.003333 305.07217 307.50278
320.0 0.003125 305.09937 307.45013
313.0 0.003195 305.12671 307.41898
288.0 0.003472 305.15414 307.40796
339.0 0.002950 305.18170 307.20847
312.0 0.003205 305.20953 307.24561
308.0 0.003247 305.23743 307.30246
298.0 0.003356 305.26556 307.38052
329.0 0.003040 305.29367 307.48309
343.0 0.002915 305.32208 307.61615
331.0 0.003021 305.35059 308.02725
311.0 0.003215 305.37927 308.28571
294.0 0.003401 305.40805 308.66531
314.0 0.003185 305.43692 309.23410
327.0 0.003058 305.46594 310.04337
316.0 0.003165 305.49524 311.20938
323.0 0.003096 305.52463 312.66144
335.0 0.002985 305.55411 314.54532
315.0 0.003175 305.58362 316.07629
316.0 0.003165 305.61343 316.12781
331.0 0.003021 305.64331 315.29059
318.0 0.003145 305.67328 315.22742
302.0 0.003311 305.70346 316.51901
330.0 0.003030 305.73370 319.03860
341.0 0.002933 305.76410 327.33661
330.0 0.003030 305.79465 334.30038
352.0 0.002841 305.82529 345.38467
363.0 0.002755 305.85602 363.27893
389.0 0.002571 305.88693 392.43213
474.0 0.002110 305.91797 432.67380
538.0 0.001859 305.94910 479.92084
545.0 0.001835 305.98035 513.87317
527.0 0.001898 306.01169 509.85849
506.0 0.001976 306.04318 477.59677
449.0 0.002227 306.07480 437.38193
405.0 0.002469 306.10645 415.39850
410.0 0.002439 306.13831 416.35410
403.0 0.002481 306.17029 426.78772
414.0 0.002415 306.20230 426.39532
428.0 0.002336 306.23444 410.14224
393.0 0.002545 306.26682 384.72418
365.0 0.002740 306.29916 361.74612
368.0 0.002717 306.33160 348.84076
346.0 0.002890 306.36414 344.14453
327.0 0.003058 306.39688 344.41418
340.0 0.002941 306.42960 348.37238
366.0 0.002732 306.46255 356.75784
350.0 0.002857 306.49554 371.20593
398.0 0.002513 306.52866 393.14307
429.0 0.002331 306.56177 428.06375
445.0 0.002247 306.59512 472.04056
542.0 0.001845 306.62851 516.28375
616.0 0.001623 306.66202 532.45490
517.0 0.001934 306.69553 502.70157
509.0 0.001965 306.72925 466.40823
437.0 0.002288 306.76297 456.70236
486.0 0.002058 306.79684 476.04761
529.0 0.001890 306.83069 513.70557
606.0 0.001650 306.86472 561.51910
640.0 0.001563 306.89883 614.30426
727.0 0.001376 306.93307 701.97485
852.0 0.001174 306.96729 877.59418
1105.0 0.000905 307.00171 1173.05518
1568.0 0.000638 307.03610 1649.24182
2345.0 0.000426 307.07065 2308.98364
3259.0 0.0003068 307.10519 2995.63550
3673.0 0.0002723 307.13989 3296.45483
2999.0 0.0003334 307.17459 2781.30396
1951.0 0.000513 307.20947 1976.47095
1421.0 0.000704 307.24438 1516.64319
1420.0 0.000704 307.27933 1480.56934
1659.0 0.000603 307.31433 1679.81262
1976.0 0.000506 307.34946 1883.23865
1912.0 0.000523 307.38474 1762.62903
1332.0 0.000751 307.41995 1305.92236
896.0 0.001116 307.45526 882.10474
616.0 0.001623 307.49066 636.68219
507.0 0.001972 307.52606 522.34186
440.0 0.002273 307.56155 470.36310
407.0 0.002457 307.59720 443.04214
413.0 0.002421 307.63284 427.10376
429.0 0.002331 307.66855 417.83145
434.0 0.002304 307.70432 414.44318
405.0 0.002469 307.74011 417.22968
440.0 0.002273 307.77597 429.94095
495.0 0.002020 307.81192 459.42151
575.0 0.001739 307.84796 515.32843
661.0 0.001513 307.88403 605.65735
798.0 0.001253 307.92007 747.78241
989.0 0.001011 307.95621 941.61835
1186.0 0.000843 307.99243 1138.27893
1295.0 0.000772 308.02869 1213.21875
1136.0 0.000880 308.06500 1056.32874
930.0 0.001075 308.10132 830.09216
767.0 0.001304 308.13773 707.35638
725.0 0.001379 308.17419 705.76941
788.0 0.001269 308.21063 772.69507
869.0 0.001151 308.24719 842.52179
914.0 0.001094 308.28378 825.04169
793.0 0.001261 308.32037 717.32910
667.0 0.001499 308.35699 630.47522
645.0 0.001550 308.39368 622.62646
771.0 0.001297 308.43039 705.76648
934.0 0.001071 308.46719 891.15668
1200.0 0.000833 308.50394 1194.97412
1589.0 0.000629 308.54083 1670.43384
2134.0 0.000469 308.57770 2269.60522
2770.0 0.000361 308.61462 2806.12036
2816.0 0.000355 308.65152 2838.20972
2306.0 0.000434 308.68848 2241.88770
1588.0 0.000630 308.72549 1638.05408
1377.0 0.000726 308.76245 1396.67004
1400.0 0.000714 308.79959 1487.65381
1551.0 0.000645 308.83661 1719.85754
1797.0 0.000556 308.87366 1846.63367
1637.0 0.000611 308.91083 1619.83716
1207.0 0.000829 308.94794 1172.63306
807.0 0.001239 308.98508 829.80878
624.0 0.001603 309.02231 660.16785
592.0 0.001689 309.05948 604.06805
541.0 0.001848 309.09671 594.29663
526.0 0.001901 309.13394 592.24683
591.0 0.001692 309.17120 602.35413
642.0 0.001558 309.20840 625.62653
704.0 0.001420 309.24576 631.65179
616.0 0.001623 309.28302 579.76691
520.0 0.001923 309.32034 506.32309
431.0 0.002320 309.35760 461.39218
413.0 0.002421 309.39490 452.07544
459.0 0.002179 309.43231 465.58435
488.0 0.002049 309.46960 482.84015
468.0 0.002137 309.50696 479.27457
435.0 0.002299 309.54434 445.98535
402.0 0.002488 309.58167 409.52942
377.0 0.002653 309.61905 389.40115
378.0 0.002646 309.65646 383.66049
388.0 0.002577 309.69379 388.34821
396.0 0.002525 309.73117 401.81955
430.0 0.002326 309.76849 424.78445
469.0 0.002132 309.80582 459.09692
507.0 0.001972 309.84320 500.45428
552.0 0.001812 309.88058 534.15222
581.0 0.001721 309.91794 536.61462
596.0 0.001678 309.95529 521.91138
599.0 0.001669 309.99258 536.01349
623.0 0.001605 310.02991 606.87512
767.0 0.001304 310.06723 749.55273
1009.0 0.000991 310.10458 973.08221
1367.0 0.000732 310.14185 1292.42334
1771.0 0.000565 310.17914 1639.18469
2098.0 0.000477 310.21640 1884.38269
1930.0 0.000518 310.25369 1775.25903
1464.0 0.000683 310.29092 1381.63306
1121.0 0.000892 310.32816 1083.95972
1062.0 0.000942 310.36536 1022.94482
1210.0 0.000826 310.40256 1163.60632
1482.0 0.000675 310.43976 1414.39233
1664.0 0.000601 310.47690 1642.59204
1669.0 0.000599 310.51404 1669.20032
1419.0 0.000705 310.55115 1484.27698
1117.0 0.000895 310.58826 1206.57910
984.0 0.001016 310.62531 1026.04944
1021.0 0.000979 310.66232 1021.37292
1134.0 0.000882 310.69934 1135.22742
1213.0 0.000824 310.73636 1242.98730
1164.0 0.000859 310.77328 1200.32544
951.0 0.001052 310.81024 1012.93158
799.0 0.001252 310.84714 804.96722
647.0 0.001546 310.88397 682.16284
608.0 0.001645 310.92081 654.10645
628.0 0.001592 310.95764 671.09943
630.0 0.001587 310.99442 665.19269
566.0 0.001767 311.03116 590.51642
465.0 0.002151 311.06784 495.66483
400.0 0.002500 311.10449 430.00641
347.0 0.002882 311.14114 395.27423
373.0 0.002681 311.17776 378.49881
361.0 0.002770 311.21429 369.75092
333.0 0.003003 311.25076 365.39609
332.0 0.003012 311.28729 362.33246
367.0 0.002725 311.32364 360.73975
358.0 0.002793 311.36008 360.36505
348.0 0.002874 311.39639 361.11795
340.0 0.002941 311.43268 362.83578
368.0 0.002717 311.46890 366.45090
378.0 0.002646 311.50519 371.34219
379.0 0.002639 311.54132 378.50342
384.0 0.002604 311.57739 389.25476
417.0 0.002398 311.61346 406.40179
442.0 0.002262 311.64948 435.46225
512.0 0.001953 311.68542 485.53357
596.0 0.001678 311.72125 569.22705
766.0 0.001305 311.75717 700.96320
960.0 0.001042 311.79288 888.94006
1211.0 0.000826 311.82870 1119.15369
1385.0 0.000722 311.86432 1321.16150
1475.0 0.000678 311.89999 1434.24939
1513.0 0.000661 311.93555 1431.08936
1505.0 0.000664 311.97110 1405.01648
1558.0 0.000642 312.00650 1519.17786
1778.0 0.000562 312.04190 1738.01733
1874.0 0.000534 312.07721 1856.42957
1722.0 0.000581 312.11249 1681.25989
1416.0 0.000706 312.14761 1376.85144
1158.0 0.000864 312.18283 1117.84656
983.0 0.001017 312.21786 966.05780
937.0 0.001067 312.25290 941.20428
933.0 0.001072 312.28781 976.64099
917.0 0.001091 312.32263 951.49231
825.0 0.001212 312.35751 800.99408
683.0 0.001464 312.39221 630.71997
554.0 0.001805 312.42694 518.35516
500.0 0.002000 312.46149 461.48026
457.0 0.002188 312.49594 441.33743
481.0 0.002079 312.53043 448.28851
472.0 0.002119 312.56479 482.04831
530.0 0.001887 312.59903 549.76025
609.0 0.001642 312.63333 652.09894
728.0 0.001374 312.66742 777.50684
842.0 0.001188 312.70151 879.56720
806.0 0.001241 312.73547 862.17731
726.0 0.001377 312.76941 723.13715
592.0 0.001689 312.80319 592.50006
512.0 0.001953 312.83698 535.67316
546.0 0.001832 312.87061 543.34253
558.0 0.001792 312.90421 585.97876
558.0 0.001792 312.93771 624.16370
600.0 0.001667 312.97107 602.64655
520.0 0.001923 313.00443 522.62201
438.0 0.002283 313.03772 446.39255
356.0 0.002809 313.07089 400.23947
360.0 0.002778 313.10388 377.79633
322.0 0.003106 313.13690 367.53036
335.0 0.002985 313.16980 362.42126
381.0 0.002625 313.20261 359.67288
362.0 0.002762 313.23532 358.31964
355.0 0.002817 313.26794 357.53958
320.0 0.003125 313.30048 358.03287
388.0 0.002577 313.33292 358.29675
349.0 0.002865 313.36523 360.27158
364.0 0.002747 313.39752 362.97900
383.0 0.002611 313.42966 366.49472
382.0 0.002618 313.46173 369.38605
385.0 0.002597 313.49368 380.08365
357.0 0.002801 313.52551 387.40210
366.0 0.002732 313.55731 396.06195
418.0 0.002392 313.58896 407.62314
447.0 0.002237 313.62051 422.46954
489.0 0.002045 313.65195 442.04138
554.0 0.001805 313.68335 468.27863
594.0 0.001684 313.71457 511.33563
657.0 0.001522 313.74573 578.37958
809.0 0.001236 313.77679 695.98572
1040.0 0.000962 313.80777 900.28058
1375.0 0.000727 313.83862 1226.10657
1853.0 0.000540 313.86932 1710.38855
2349.0 0.000426 313.89999 2384.78101
2926.0 0.0003418 313.93051 3024.54102
3264.0 0.0003064 313.96091 3326.58228
3235.0 0.0003091 313.99121 3291.29956
3093.0 0.0003233 314.02142 3261.15698
2978.0 0.0003358 314.05151 3160.09521
2732.0 0.000366 314.08139 2775.23413
2308.0 0.000433 314.11130 2401.90967
2087.0 0.000479 314.14099 2240.76538
1984.0 0.000504 314.17059 2135.22412
1831.0 0.000546 314.20010 1975.90015
1694.0 0.000590 314.22955 1854.86792
1575.0 0.000635 314.25876 1700.58752
1295.0 0.000772 314.28802 1381.64771
999.0 0.001001 314.31711 1018.02539
768.0 0.001302 314.34601 768.15045
585.0 0.001709 314.37479 636.16565
523.0 0.001912 314.40347 576.53723
498.0 0.002008 314.43204 552.67535
516.0 0.001938 314.46051 547.54895
515.0 0.001942 314.48877 556.94507
571.0 0.001751 314.51700 583.47321
678.0 0.001475 314.54510 638.29614
800.0 0.001250 314.57309 748.59601
1013.0 0.000987 314.60089 956.46906
1271.0 0.000787 314.62863 1320.92981
1788.0 0.000559 314.65613 1874.05835
2443.0 0.000409 314.68362 2654.84253
3399.0 0.0002942 314.71097 3521.15454
3813.0 0.0002623 314.73816 3927.41479
3342.0 0.0002992 314.76523 3445.00537
2422.0 0.000413 314.79214 2480.28027
1724.0 0.000580 314.81891 1810.69275
1556.0 0.000643 314.84564 1605.78955
1653.0 0.000605 314.87219 1758.99841
1934.0 0.000517 314.89859 2091.80298
2180.0 0.000459 314.92493 2274.70068
1988.0 0.000503 314.95102 2042.93591
1432.0 0.000698 314.97708 1514.16699
1094.0 0.000914 315.00293 1080.72034
807.0 0.001239 315.02875 856.77063
765.0 0.001307 315.05432 805.81189
826.0 0.001211 315.07980 887.70313
998.0 0.001002 315.10510 1090.64111
1294.0 0.000773 315.13028 1419.23657
1614.0 0.000620 315.15536 1875.23877
1988.0 0.000503 315.18030 2273.32324
2159.0 0.000463 315.20508 2314.91235
1837.0 0.000544 315.22974 1895.32813
1355.0 0.000738 315.25412 1421.32507
1119.0 0.000894 315.27853 1188.38745
1058.0 0.000945 315.30276 1200.50818
1177.0 0.000850 315.32681 1360.08948
1324.0 0.000755 315.35083 1514.48926
1395.0 0.000717 315.37454 1494.85571
1220.0 0.000820 315.39816 1244.52710
923.0 0.001083 315.42166 936.43378
697.0 0.001435 315.44501 734.39160
627.0 0.001595 315.46823 647.19281
578.0 0.001730 315.49124 628.13928
619.0 0.001616 315.51413 639.71039
692.0 0.001445 315.53696 680.60339
795.0 0.001258 315.55954 778.74213
965.0 0.001036 315.58197 947.29114
1165.0 0.000858 315.60425 1174.40100
1364.0 0.000733 315.62643 1333.70386
1362.0 0.000734 315.64838 1278.11487
1116.0 0.000896 315.67023 1023.40430
839.0 0.001192 315.69202 794.22186
675.0 0.001481 315.71359 690.59937
701.0 0.001427 315.73492 697.06854
783.0 0.001277 315.75610 768.97119
853.0 0.001172 315.77725 845.18408
868.0 0.001152 315.79813 832.69556
762.0 0.001312 315.81894 705.34894
554.0 0.001805 315.83960 560.97540
464.0 0.002155 315.86002 464.81653
407.0 0.002457 315.88031 415.21204
383.0 0.002611 315.90042 389.67889
344.0 0.002907 315.92038 381.10333
350.0 0.002857 315.94022 376.17136
324.0 0.003086 315.95993 372.42032
329.0 0.003040 315.97937 367.83652
328.0 0.003049 315.99872 364.12061
357.0 0.002801 316.01791 364.58893
346.0 0.002890 316.03690 370.92596
402.0 0.002488 316.05582 383.27417
424.0 0.002358 316.07446 402.19382
419.0 0.002387 316.09296 416.48941
424.0 0.002358 316.11136 419.85202
438.0 0.002283 316.12958 403.46103
400.0 0.002500 316.14755 382.22296
387.0 0.002584 316.16550 369.95325
378.0 0.002646 316.18317 369.40796
392.0 0.002551 316.20068 374.90179
361.0 0.002770 316.21805 383.01816
395.0 0.002532 316.23520 389.91803
399.0 0.002506 316.25229 389.73428
396.0 0.002525 316.26913 388.71121
399.0 0.002506 316.28580 396.27936
402.0 0.002488 316.30237 420.51343
461.0 0.002169 316.31866 462.37131
511.0 0.001957 316.33490 523.10181
607.0 0.001647 316.35092 591.84210
636.0 0.001572 316.36670 633.24536
638.0 0.001567 316.38235 617.81958
564.0 0.001773 316.39792 572.00098
521.0 0.001919 316.41318 552.33911
553.0 0.001808 316.42838 589.94092
654.0 0.001529 316.44333 682.09924
763.0 0.001311 316.45813 815.33655
909.0 0.001100 316.47272 924.45544
904.0 0.001106 316.48721 921.13995
798.0 0.001253 316.50140 797.91382
658.0 0.001520 316.51550 673.28412
594.0 0.001684 316.52954 627.01862
666.0 0.001502 316.54318 671.10162
794.0 0.001259 316.55676 805.13708
977.0 0.001024 316.57016 1017.76434
1226.0 0.000816 316.58340 1272.22766
1444.0 0.000693 316.59637 1515.04907
1599.0 0.000625 316.60922 1618.38037
1492.0 0.000670 316.62189 1462.55408
1134.0 0.000882 316.63443 1131.48523
824.0 0.001214 316.64673 873.95142
708.0 0.001412 316.65884 772.49677
747.0 0.001339 316.67078 798.27557
826.0 0.001211 316.68256 906.74109
998.0 0.001002 316.69409 1021.86578
1085.0 0.000922 316.70554 1049.92529
1026.0 0.000975 316.71674 977.58984
925.0 0.001081 316.72775 932.47876
971.0 0.001030 316.73865 995.17432
1086.0 0.000921 316.74927 1153.13245
1212.0 0.000825 316.75980 1288.00452
1278.0 0.000782 316.77002 1266.25977
1082.0 0.000924 316.78015 1109.86157
962.0 0.001040 316.79004 1008.49866
1048.0 0.000954 316.79977 1042.20923
1137.0 0.000880 316.80939 1159.74146
1244.0 0.000804 316.81876 1241.49780
1286.0 0.000778 316.82791 1202.83557
1153.0 0.000867 316.83685 1069.96448
888.0 0.001126 316.84567 893.17053
736.0 0.001359 316.85419 750.04694
690.0 0.001449 316.86270 689.30792
712.0 0.001404 316.87091 692.07086
692.0 0.001445 316.87897 698.55371
697.0 0.001435 316.88681 656.84106
594.0 0.001684 316.89450 582.04150
530.0 0.001887 316.90189 532.99921
505.0 0.001980 316.90924 533.46826
555.0 0.001802 316.91623 582.07513
670.0 0.001493 316.92322 667.30273
772.0 0.001295 316.92990 765.65778
773.0 0.001294 316.93640 809.04205
740.0 0.001351 316.94278 746.43811
583.0 0.001715 316.94882 628.76428
523.0 0.001912 316.95477 545.01642
501.0 0.001996 316.96054 519.13007
524.0 0.001908 316.96600 542.71112
623.0 0.001605 316.97141 599.47180
682.0 0.001466 316.97656 667.80389
718.0 0.001393 316.98148 717.26654
793.0 0.001261 316.98627 749.66650
879.0 0.001138 316.99088 803.58978
952.0 0.001050 316.99518 863.55255
918.0 0.001089 316.99936 853.59863
806.0 0.001241 317.00333 743.21490
701.0 0.001427 317.00711 620.52307
578.0 0.001730 317.01071 552.81830
590.0 0.001695 317.01410 548.34131
625.0 0.001600 317.01727 592.84442
713.0 0.001403 317.02029 672.46259
837.0 0.001195 317.02307 761.32819
909.0 0.001100 317.02567 842.15839
981.0 0.001019 317.02805 938.92340
1095.0 0.000913 317.03021 1094.23059
1225.0 0.000816 317.03226 1249.45190
1236.0 0.000809 317.03409 1263.65198
1050.0 0.000952 317.03558 1081.46375
789.0 0.001267 317.03702 844.41290
629.0 0.001590 317.03818 692.60120
605.0 0.001653 317.03922 651.35394
641.0 0.001560 317.04001 692.43243
708.0 0.001412 317.04062 774.83429
771.0 0.001297 317.04099 827.92194
734.0 0.001362 317.04120 785.23065
617.0 0.001621 317.04117 664.44641
508.0 0.001969 317.04092 550.25873
466.0 0.002146 317.04056 484.25815
445.0 0.002247 317.03986 463.18246
466.0 0.002146 317.03903 471.63843
507.0 0.001972 317.03802 495.55173
491.0 0.002037 317.03680 515.29602
500.0 0.002000 317.03537 514.84357
481.0 0.002079 317.03372 506.27176
522.0 0.001916 317.03183 524.92303
541.0 0.001848 317.02982 595.53156
682.0 0.001466 317.02759 721.33044
883.0 0.001133 317.02509 892.87543
1075.0 0.000930 317.02243 1041.26526
1113.0 0.000898 317.01950 1052.95288
966.0 0.001035 317.01651 895.12415
664.0 0.001506 317.01324 705.83984
530.0 0.001887 317.00967 591.71008
517.0 0.001934 317.00604 562.92810
575.0 0.001739 317.00211 594.97681
642.0 0.001558 316.99799 657.47498
667.0 0.001499 316.99368 696.64319
655.0 0.001527 316.98920 661.57910
581.0 0.001721 316.98444 567.44977
468.0 0.002137 316.97955 481.59503
381.0 0.002625 316.97440 429.24182
387.0 0.002584 316.96902 404.67236
386.0 0.002591 316.96347 396.72949
404.0 0.002475 316.95776 398.71201
395.0 0.002532 316.95169 411.56528
459.0 0.002179 316.94556 440.96619
524.0 0.001908 316.93915 498.13052
624.0 0.001603 316.93256 593.07635
690.0 0.001449 316.92578 730.77692
813.0 0.001230 316.91873 883.88110
913.0 0.001095 316.91153 972.85583
872.0 0.001147 316.90408 913.71802
718.0 0.001393 316.89645 751.90033
559.0 0.001789 316.88855 616.12573
540.0 0.001852 316.88046 555.88330
549.0 0.001821 316.87219 564.18018
555.0 0.001802 316.86374 615.44543
612.0 0.001634 316.85504 678.36658
661.0 0.001513 316.84616 699.39532
638.0 0.001567 316.83704 647.17017
562.0 0.001779 316.82764 567.51044
510.0 0.001961 316.81815 511.06769
491.0 0.002037 316.80841 493.27686
544.0 0.001838 316.79843 513.56079
611.0 0.001637 316.78830 579.16418
731.0 0.001368 316.77789 710.50806
933.0 0.001072 316.76730 928.14874
1228.0 0.000814 316.75650 1228.25012
1605.0 0.000623 316.74548 1555.03516
1793.0 0.000558 316.73428 1717.65723
1593.0 0.000628 316.72281 1551.97791
1195.0 0.000837 316.71115 1194.87158
922.0 0.001085 316.69934 914.64111
806.0 0.001241 316.68723 798.79950
835.0 0.001198 316.67490 822.00708
950.0 0.001053 316.66245 934.45410
1083.0 0.000923 316.64975 1064.57886
1127.0 0.000887 316.63675 1096.61157
991.0 0.001009 316.62366 968.85101
808.0 0.001238 316.61029 782.30579
668.0 0.001497 316.59671 646.79529
573.0 0.001745 316.58298 584.54700
584.0 0.001712 316.56900 573.52783
582.0 0.001718 316.55478 606.09479
700.0 0.001429 316.54041 691.84442
922.0 0.001085 316.52570 863.30200
1164.0 0.000859 316.51089 1164.46643
1556.0 0.000643 316.49588 1610.30493
2118.0 0.000472 316.48059 2160.38525
2768.0 0.000361 316.46509 2603.78687
2800.0 0.000357 316.44940 2613.99194
2339.0 0.000428 316.43347 2190.50684
1748.0 0.000572 316.41742 1769.17114
1623.0 0.000616 316.40100 1590.68286
1621.0 0.000617 316.38449 1599.43384
1668.0 0.000600 316.36774 1672.18066
1811.0 0.000552 316.35080 1783.64758
1912.0 0.000523 316.33362 1884.48572
1905.0 0.000525 316.31616 1856.46130
1733.0 0.000577 316.29858 1745.17383
1627.0 0.000615 316.28070 1737.45215
1781.0 0.000561 316.26266 1837.96216
1797.0 0.000556 316.24442 1834.41516
1579.0 0.000633 316.22598 1569.26367
1146.0 0.000873 316.20731 1196.85413
890.0 0.001124 316.18839 929.92743
804.0 0.001244 316.16931 816.92078
817.0 0.001224 316.14996 828.21301
874.0 0.001144 316.13043 918.03088
1015.0 0.000985 316.11069 1032.04541
1107.0 0.000903 316.09073 1087.55713
1117.0 0.000895 316.07053 1061.96582
1144.0 0.000874 316.05005 1056.78162
1202.0 0.000832 316.02945 1143.27527
1318.0 0.000759 316.00873 1291.23926
1401.0 0.000714 315.98767 1366.46301
1323.0 0.000756 315.96634 1261.20996
1140.0 0.000877 315.94492 1072.86768
1038.0 0.000963 315.92328 978.38440
1199.0 0.000834 315.90140 1057.32056
1526.0 0.000655 315.87927 1330.04065
1857.0 0.000539 315.85696 1761.31677
2166.0 0.000462 315.83438 2243.65845
2408.0 0.000415 315.81171 2503.52686
2295.0 0.000436 315.78864 2286.56152
1756.0 0.000569 315.76550 1748.48657
1295.0 0.000772 315.74216 1276.62683
1021.0 0.000979 315.71851 1023.07068
908.0 0.001101 315.69464 973.18231
1003.0 0.000997 315.67072 1061.98853
1157.0 0.000864 315.64645 1206.60852
1212.0 0.000825 315.62198 1273.39221
1133.0 0.000883 315.59735 1161.72388
908.0 0.001101 315.57242 927.04694
684.0 0.001462 315.54736 715.12836
522.0 0.001916 315.52200 576.43579
437.0 0.002288 315.49649 498.11578
422.0 0.002370 315.47079 457.80048
406.0 0.002463 315.44479 436.53461
416.0 0.002404 315.41864 422.97159
403.0 0.002481 315.39227 417.76495
415.0 0.002410 315.36566 416.31216
374.0 0.002674 315.33887 420.10159
414.0 0.002415 315.31180 427.74866
449.0 0.002227 315.28467 442.61438
461.0 0.002169 315.25720 475.15973
520.0 0.001923 315.22955 537.92706
596.0 0.001678 315.20169 652.28131
816.0 0.001225 315.17361 834.30878
1159.0 0.000863 315.14532 1073.21680
1451.0 0.000689 315.11682 1307.54663
1488.0 0.000672 315.08810 1385.09839
1355.0 0.000738 315.05920 1219.64124
969.0 0.001032 315.03009 955.45959
748.0 0.001337 315.00070 766.55615
704.0 0.001420 314.97119 698.53210
729.0 0.001372 314.94138 733.39941
867.0 0.001153 314.91144 835.30371
1056.0 0.000947 314.88116 957.11023
1057.0 0.000946 314.85077 1012.72125
987.0 0.001013 314.82019 949.38330
902.0 0.001109 314.78934 839.16602
831.0 0.001203 314.75833 791.78174
877.0 0.001140 314.72702 865.90558
1077.0 0.000929 314.69556 1080.07410
1313.0 0.000762 314.66397 1396.06299
1664.0 0.000601 314.63205 1733.68237
1972.0 0.000507 314.60001 1963.91272
1830.0 0.000546 314.56772 1831.77722
1426.0 0.000701 314.53519 1450.10400
1191.0 0.000840 314.50241 1140.73792
1070.0 0.000935 314.46951 1010.95013
1034.0 0.000967 314.43637 1037.50671
1093.0 0.000915 314.40302 1134.34045
1221.0 0.000819 314.36948 1238.65137
1306.0 0.000766 314.33563 1306.53064
1245.0 0.000803 314.30173 1223.23962
1087.0 0.000920 314.26749 1042.43005
921.0 0.001086 314.23306 930.13483
917.0 0.001091 314.19852 942.67676
1055.0 0.000948 314.16373 1056.54858
1180.0 0.000847 314.12863 1208.92749
1256.0 0.000796 314.09344 1303.69922
1326.0 0.000754 314.05804 1286.10681
1205.0 0.000830 314.02237 1147.98352
983.0 0.001017 313.98654 933.07666
831.0 0.001203 313.95044 767.95233
715.0 0.001399 313.91418 700.37048
677.0 0.001477 313.87769 714.91699
716.0 0.001397 313.84097 777.64441
823.0 0.001215 313.80411 835.16241
842.0 0.001188 313.76694 849.18555
837.0 0.001195 313.72968 815.10016
765.0 0.001307 313.69217 757.55896
723.0 0.001383 313.65448 739.45117
711.0 0.001406 313.61661 771.52338
801.0 0.001248 313.57843 824.14941
818.0 0.001222 313.54010 830.03870
732.0 0.001366 313.50159 734.18628
588.0 0.001701 313.46289 611.51135
523.0 0.001912 313.42392 527.48877
482.0 0.002075 313.38470 496.43542
497.0 0.002012 313.34540 508.39801
502.0 0.001992 313.30582 544.37610
554.0 0.001805 313.26605 584.40753
575.0 0.001739 313.22607 601.64471
542.0 0.001845 313.18591 566.41870
480.0 0.002083 313.14554 511.40030
515.0 0.001942 313.10495 475.80948
494.0 0.002024 313.06412 470.13654
535.0 0.001869 313.02313 506.23950
620.0 0.001613 312.98199 591.46826
762.0 0.001312 312.94055 736.55261
908.0 0.001101 312.89908 927.60944
1067.0 0.000937 312.85718 1112.68738
1163.0 0.000860 312.81522 1221.86731
1140.0 0.000877 312.77298 1134.20801
982.0 0.001018 312.73059 904.95154
769.0 0.001300 312.68802 713.21771
606.0 0.001650 312.64520 617.81702
601.0 0.001664 312.60223 613.24573
591.0 0.001692 312.55902 670.34338
663.0 0.001508 312.51559 746.20490
757.0 0.001321 312.47198 799.70612
745.0 0.001342 312.42816 768.92957
671.0 0.001490 312.38412 651.28967
523.0 0.001912 312.33997 536.42194
444.0 0.002252 312.29553 460.12143
402.0 0.002488 312.25095 419.55386
399.0 0.002506 312.20618 401.76318
371.0 0.002695 312.16119 397.14612
384.0 0.002604 312.11591 402.52786
392.0 0.002551 312.07053 421.17310
415.0 0.002410 312.02499 457.40375
475.0 0.002105 311.97919 513.79266
564.0 0.001773 311.93320 580.52289
645.0 0.001550 311.88699 638.60931
671.0 0.001490 311.84064 651.86945
616.0 0.001623 311.79407 608.86176
535.0 0.001869 311.74734 552.36597
515.0 0.001942 311.70035 524.39362
534.0 0.001873 311.65317 539.36530
581.0 0.001721 311.60577 587.15088
634.0 0.001577 311.55829 646.00739
638.0 0.001567 311.51056 681.00269
632.0 0.001582 311.46255 661.59937
565.0 0.001770 311.41449 606.77118
539.0 0.001855 311.36612 552.38110
519.0 0.001927 311.31760 524.69159
505.0 0.001980 311.26889 530.88367
588.0 0.001701 311.21997 568.21112
618.0 0.001618 311.17084 637.76953
738.0 0.001355 311.12155 753.12329
936.0 0.001068 311.07208 944.87207
1225.0 0.000816 311.02243 1276.19714
1694.0 0.000590 310.97256 1746.31213
2271.0 0.000440 310.92249 2248.86646
2743.0 0.000365 310.87222 2605.18726
2646.0 0.000378 310.82184 2477.48315
1958.0 0.000511 310.77118 1916.19812
1361.0 0.000735 310.72037 1378.59875
926.0 0.001080 310.66934 1070.65442
956.0 0.001046 310.61810 1002.75049
991.0 0.001009 310.56677 1119.77368
1292.0 0.000774 310.51520 1320.72803
1468.0 0.000681 310.46341 1502.81665
1522.0 0.000657 310.41150 1508.63770
1324.0 0.000755 310.35934 1252.37231
912.0 0.001096 310.30695 935.12384
697.0 0.001435 310.25449 700.12207
522.0 0.001916 310.20178 562.31250
424.0 0.002358 310.14886 491.43741
427.0 0.002342 310.09579 455.88312
397.0 0.002519 310.04254 437.27002
398.0 0.002513 309.98914 428.33200
422.0 0.002370 309.93546 427.83200
429.0 0.002331 309.88165 437.80692
422.0 0.002370 309.82767 461.88245
485.0 0.002062 309.77344 500.89899
525.0 0.001905 309.71912 548.21466
550.0 0.001818 309.66455 592.17761
625.0 0.001600 309.60983 609.87256
631.0 0.001585 309.55487 598.77014
590.0 0.001695 309.49979 595.72803
611.0 0.001637 309.44449 616.02039
633.0 0.001580 309.38907 649.32300
618.0 0.001618 309.33340 666.84912
618.0 0.001618 309.27759 658.15491
633.0 0.001580 309.22159 654.61829
642.0 0.001558 309.16537 673.43951
714.0 0.001401 309.10904 721.38733
819.0 0.001221 309.05246 838.40765
1012.0 0.000988 308.99573 1081.84277
1394.0 0.000717 308.93887 1494.14014
2015.0 0.000496 308.88174 2036.17603
2745.0 0.000364 308.82446 2554.24585
3073.0 0.0003254 308.76706 2835.14502
2659.0 0.000376 308.70944 2557.64160
1882.0 0.000531 308.65161 1921.93689
1250.0 0.000800 308.59372 1375.01501
965.0 0.001036 308.53555 1084.98328
926.0 0.001080 308.47720 1040.55005
1093.0 0.000915 308.41873 1178.88318
1422.0 0.000703 308.36005 1398.51001
1574.0 0.000635 308.30118 1584.35022
1625.0 0.000615 308.24222 1565.16772
1328.0 0.000753 308.18298 1279.70276
907.0 0.001103 308.12360 943.17206
652.0 0.001534 308.06403 698.08740
513.0 0.001949 308.00436 553.44489
445.0 0.002247 307.94452 477.14642
410.0 0.002439 307.88437 436.65811
370.0 0.002703 307.82416 412.85043
384.0 0.002604 307.76373 397.12823
374.0 0.002674 307.70319 386.27856
368.0 0.002717 307.64240 382.04132
360.0 0.002778 307.58157 377.95279
387.0 0.002584 307.52045 377.34207
352.0 0.002841 307.45920 381.91904
425.0 0.002353 307.39777 395.37390
375.0 0.002667 307.33621 423.29779
444.0 0.002252 307.27441 470.06268
562.0 0.001779 307.21246 529.66187
650.0 0.001538 307.15033 586.66882
678.0 0.001475 307.08813 608.72235
594.0 0.001684 307.02570 566.75903
483.0 0.002070 306.96307 498.30524
481.0 0.002079 306.90036 442.69830
418.0 0.002392 306.83740 415.59552
426.0 0.002347 306.77423 416.40714
452.0 0.002212 306.71106 434.30426
425.0 0.002353 306.64761 459.56094
492.0 0.002033 306.58401 479.33325
529.0 0.001890 306.52029 474.14539
465.0 0.002151 306.45636 443.67120
417.0 0.002398 306.39227 409.07913
385.0 0.002597 306.32803 385.10226
381.0 0.002625 306.26364 373.65991
343.0 0.002915 306.19913 365.06967
337.0 0.002967 306.13440 366.75958
358.0 0.002793 306.06949 373.53729
429.0 0.002331 306.00443 386.58911
411.0 0.002433 305.93924 407.22525
393.0 0.002545 305.87387 432.32028
451.0 0.002217 305.80841 456.04929
466.0 0.002146 305.74265 468.12085
459.0 0.002179 305.67685 459.32919
435.0 0.002299 305.61081 449.25320
448.0 0.002232 305.54471 449.99277
493.0 0.002028 305.47839 468.01529
563.0 0.001776 305.41196 510.09744
665.0 0.001504 305.34534 589.98743
821.0 0.001218 305.27853 731.62982
1027.0 0.000974 305.21164 964.30688
1266.0 0.000790 305.14453 1291.58167
1587.0 0.000630 305.07730 1646.14514
1872.0 0.000534 305.00986 1913.75342
1975.0 0.000506 304.94229 1894.20789
1666.0 0.000600 304.87466 1560.09167
1241.0 0.000806 304.80679 1195.31116
1044.0 0.000958 304.73880 970.10907
987.0 0.001013 304.67062 916.51593
1147.0 0.000872 304.60233 1023.63647
1416.0 0.000706 304.53384 1269.00073
1724.0 0.000580 304.46530 1612.99243
2087.0 0.000479 304.39655 1986.57581
2314.0 0.000432 304.32761 2249.65259
2443.0 0.000409 304.25861 2382.24927
2429.0 0.000412 304.18936 2363.65894
2277.0 0.000439 304.12003 2193.96313
2006.0 0.000499 304.05051 2010.51294
1818.0 0.000550 303.98090 1795.24890
1575.0 0.000635 303.91113 1544.16931
1353.0 0.000739 303.84116 1402.72656
1424.0 0.000702 303.77109 1416.38037
1560.0 0.000641 303.70084 1519.85339
1516.0 0.000660 303.63049 1589.15125
1482.0 0.000675 303.55991 1516.50110
1368.0 0.000731 303.48935 1361.68408
1183.0 0.000845 303.41852 1206.82800
1025.0 0.000976 303.34756 1032.45166
876.0 0.001142 303.27646 856.17633
683.0 0.001464 303.20529 734.89435
605.0 0.001653 303.13391 669.82410
600.0 0.001667 303.06241 632.00165
588.0 0.001701 302.99072 584.54297
526.0 0.001901 302.91898 526.10535
451.0 0.002217 302.84698 476.68204
432.0 0.002315 302.77493 445.76862
384.0 0.002604 302.70273 431.32114
389.0 0.002571 302.63034 433.21170
423.0 0.002364 302.55789 454.20740
500.0 0.002000 302.48529 503.41202
539.0 0.001855 302.41251 582.20062
621.0 0.001610 302.33966 681.05701
745.0 0.001342 302.26663 768.63678
776.0 0.001289 302.19342 793.60809
721.0 0.001387 302.12012 719.31189
597.0 0.001675 302.04669 605.62866
488.0 0.002049 301.97318 522.76019
448.0 0.002232 301.89941 485.42258
448.0 0.002232 301.82559 493.28549
493.0 0.002028 301.75162 538.07538
576.0 0.001736 301.67755 608.91394
676.0 0.001479 301.60330 686.89636
730.0 0.001370 301.52896 737.03668
762.0 0.001312 301.45444 736.17743
738.0 0.001355 301.37985 693.30878
651.0 0.001536 301.30511 626.85181
572.0 0.001748 301.23022 551.07196
508.0 0.001969 301.15524 492.12341
462.0 0.002165 301.08014 460.62958
470.0 0.002128 301.00482 454.59369
482.0 0.002075 300.92947 472.66397
488.0 0.002049 300.85400 505.93494
559.0 0.001789 300.77829 547.44623
626.0 0.001597 300.70255 593.20557
684.0 0.001462 300.62662 657.88812
856.0 0.001168 300.55063 770.33057
1049.0 0.000953 300.47446 948.81305
1320.0 0.000758 300.39825 1155.68555
1578.0 0.000634 300.32181 1306.90454
1537.0 0.000651 300.24530 1279.70215
1177.0 0.000850 300.16870 1069.37280
891.0 0.001122 300.09201 843.46259
688.0 0.001453 300.01511 698.48773
698.0 0.001433 299.93811 650.79724
775.0 0.001290 299.86096 691.66296
891.0 0.001122 299.78378 804.84302
1138.0 0.000879 299.70642 966.09174
1289.0 0.000776 299.62900 1147.13708
1381.0 0.000724 299.55133 1300.02917
1422.0 0.000703 299.47366 1422.08057
1410.0 0.000709 299.39578 1529.66187
1526.0 0.000655 299.31793 1550.45422
1436.0 0.000696 299.23987 1398.08887
1213.0 0.000824 299.16171 1176.32959
992.0 0.001008 299.08337 984.06586
847.0 0.001181 299.00504 835.95502
750.0 0.001333 298.92654 758.29413
773.0 0.001294 298.84793 763.07172
761.0 0.001314 298.76913 827.39307
800.0 0.001250 298.69031 902.59229
839.0 0.001192 298.61130 922.67334
879.0 0.001138 298.53232 848.90228
733.0 0.001364 298.45309 741.89728
667.0 0.001499 298.37375 648.41101
531.0 0.001883 298.29437 570.73883
508.0 0.001969 298.21487 513.23352
427.0 0.002342 298.13528 473.74457
424.0 0.002358 298.05557 438.40683
393.0 0.002545 297.97571 407.85413
377.0 0.002653 297.89575 385.93381
337.0 0.002967 297.81577 372.79752
355.0 0.002817 297.73557 366.92007
363.0 0.002755 297.65527 366.62970
375.0 0.002667 297.57498 370.27621
381.0 0.002625 297.49445 374.31018
399.0 0.002506 297.41394 376.21994
386.0 0.002591 297.33328 372.47675
376.0 0.002660 297.25247 366.64154
385.0 0.002597 297.17148 362.96573
367.0 0.002725 297.09055 363.88699
357.0 0.002801 297.00946 365.48007
370.0 0.002703 296.92831 372.96201
396.0 0.002525 296.84702 385.69464
458.0 0.002183 296.76559 407.69681
511.0 0.001957 296.68417 446.45349
568.0 0.001761 296.60257 512.17694
667.0 0.001499 296.52087 611.84961
777.0 0.001287 296.43912 734.44946
881.0 0.001135 296.35727 849.43677
967.0 0.001034 296.27521 910.00018
999.0 0.001001 296.19318 905.50305
991.0 0.001009 296.11102 920.26312
1066.0 0.000938 296.02875 1020.21362
1182.0 0.000846 295.94638 1182.98206
1299.0 0.000770 295.86395 1332.55786
1289.0 0.000776 295.78140 1350.91260
1212.0 0.000825 295.69882 1216.63940
1103.0 0.000907 295.61609 1058.48596
955.0 0.001047 295.53320 943.42743
889.0 0.001125 295.45032 878.84833
872.0 0.001147 295.36734 887.91443
940.0 0.001064 295.28424 970.73492
1078.0 0.000928 295.20108 1085.47339
1147.0 0.000872 295.11780 1158.10156
1124.0 0.000890 295.03439 1131.05164
1037.0 0.000964 294.95102 1011.57935
860.0 0.001163 294.86749 860.29730
755.0 0.001325 294.78384 721.32874
627.0 0.001595 294.70013 630.68481
604.0 0.001656 294.61633 595.15448
585.0 0.001709 294.53250 600.53302
621.0 0.001610 294.44852 629.20917
689.0 0.001451 294.36447 668.64508
734.0 0.001362 294.28040 729.53992
854.0 0.001171 294.19614 835.79181
995.0 0.001005 294.11185 990.63226
1082.0 0.000924 294.02750 1173.67505
1215.0 0.000823 293.94293 1344.28210
1406.0 0.000711 293.85846 1419.81580
1436.0 0.000696 293.77383 1375.60962
1182.0 0.000846 293.68915 1212.63074
890.0 0.001124 293.60434 988.42902
763.0 0.001311 293.51950 814.12665
705.0 0.001418 293.43460 735.28540
656.0 0.001524 293.34955 747.19464
791.0 0.001264 293.26440 822.63251
824.0 0.001214 293.17923 924.15656
979.0 0.001021 293.09399 1007.88184
1069.0 0.000935 293.00870 1066.37085
1042.0 0.000960 292.92331 1115.26440
1122.0 0.000891 292.83786 1172.62488
1236.0 0.000809 292.75226 1248.66467
1277.0 0.000783 292.66669 1284.66736
1131.0 0.000884 292.58102 1185.48486
939.0 0.001065 292.49521 983.53900
766.0 0.001305 292.40942 797.79688
636.0 0.001572 292.32349 684.87854
621.0 0.001610 292.23749 654.89368
686.0 0.001458 292.15152 695.13635
768.0 0.001302 292.06531 776.67542
830.0 0.001205 291.97922 851.39972
866.0 0.001155 291.89294 872.56152
807.0 0.001239 291.80661 811.84589
676.0 0.001479 291.72018 691.41907
556.0 0.001799 291.63370 575.53082
502.0 0.001992 291.54727 494.54306
463.0 0.002160 291.46063 452.21454
430.0 0.002326 291.37396 435.14417
434.0 0.002304 291.28720 430.76349
426.0 0.002347 291.20047 422.87500
418.0 0.002392 291.11362 404.10132
369.0 0.002710 291.02670 383.06189
343.0 0.002915 290.93979 368.66931
340.0 0.002941 290.85272 364.03671
369.0 0.002710 290.76566 370.60434
378.0 0.002646 290.67844 388.05566
451.0 0.002217 290.59125 412.92773
469.0 0.002132 290.50397 437.02914
466.0 0.002146 290.41656 448.82178
460.0 0.002174 290.32916 440.04953
440.0 0.002273 290.24179 424.49371
432.0 0.002315 290.15427 408.00867
391.0 0.002558 290.06671 391.85635
356.0 0.002809 289.97913 377.98325
391.0 0.002558 289.89139 372.14215
368.0 0.002717 289.80368 375.46753
420.0 0.002381 289.71585 383.67096
416.0 0.002404 289.62802 390.02087
397.0 0.002519 289.54013 388.95419
397.0 0.002519 289.45215 382.91556
380.0 0.002632 289.36411 377.54846
357.0 0.002801 289.27615 372.53564
363.0 0.002755 289.18799 368.58179
382.0 0.002618 289.09985 369.35220
373.0 0.002681 289.01166 378.86844
408.0 0.002451 288.92340 402.60138
465.0 0.002151 288.83508 449.91174
541.0 0.001848 288.74670 534.35492
702.0 0.001425 288.65826 664.03094
798.0 0.001253 288.56979 824.03357
928.0 0.001078 288.48135 963.83679
978.0 0.001022 288.39276 1008.71027
892.0 0.001121 288.30423 916.37115
783.0 0.001277 288.21548 768.65521
665.0 0.001504 288.12683 643.51917
567.0 0.001764 288.03815 565.09949
548.0 0.001825 287.94934 541.58923
549.0 0.001821 287.86050 572.03278
643.0 0.001555 287.77167 644.37891
704.0 0.001420 287.68277 729.90662
742.0 0.001348 287.59378 788.15143
711.0 0.001406 287.50485 780.20569
689.0 0.001451 287.41580 723.59033
648.0 0.001543 287.32672 653.95496
577.0 0.001733 287.23764 582.02136
534.0 0.001873 287.14850 528.81592
495.0 0.002020 287.05930 514.55048
530.0 0.001887 286.97006 546.05731
595.0 0.001681 286.88080 618.53754
670.0 0.001493 286.79150 709.07458
768.0 0.001302 286.70224 775.77258
757.0 0.001321 286.61285 770.60284
649.0 0.001541 286.52344 692.71307
555.0 0.001802 286.43393 594.99799
485.0 0.002062 286.34448 517.01880
448.0 0.002232 286.25497 475.76721
448.0 0.002232 286.16550 473.39633
492.0 0.002033 286.07584 506.88370
553.0 0.001808 285.98621 569.72266
639.0 0.001565 285.89664 642.85773
677.0 0.001477 285.80692 699.34167
671.0 0.001490 285.71729 714.14685
655.0 0.001527 285.62756 694.38458
640.0 0.001563 285.53778 662.32159
673.0 0.001486 285.44803 650.66113
682.0 0.001466 285.35815 666.96674
724.0 0.001381 285.26834 690.47064
731.0 0.001368 285.17853 694.38208
701.0 0.001427 285.08853 691.85602
722.0 0.001385 284.99860 723.48816
831.0 0.001203 284.90869 798.89050
929.0 0.001076 284.81873 884.82574
922.0 0.001085 284.72879 924.53009
902.0 0.001109 284.63867 880.02704
826.0 0.001211 284.54868 788.33875
720.0 0.001389 284.45859 709.12976
685.0 0.001460 284.36853 655.62811
612.0 0.001634 284.27835 620.75311
634.0 0.001577 284.18820 608.57849
535.0 0.001869 284.09811 617.70056
624.0 0.001603 284.00790 636.22723
646.0 0.001548 283.91766 650.70306
691.0 0.001447 283.82755 641.43134
685.0 0.001460 283.73730 605.85681
685.0 0.001460 283.64700 578.70428
744.0 0.001344 283.55676 592.40887
778.0 0.001285 283.46649 662.89435
934.0 0.001071 283.37619 796.90820
1045.0 0.000957 283.28583 981.65985
1214.0 0.000824 283.19556 1172.80652
1329.0 0.000752 283.10522 1302.65369
1371.0 0.000729 283.01483 1309.43018
1274.0 0.000785 282.92447 1233.21350
1132.0 0.000883 282.83408 1127.13513
1025.0 0.000976 282.74362 1001.70795
938.0 0.001066 282.65323 897.46918
883.0 0.001133 282.56281 845.47821
889.0 0.001125 282.47238 861.88867
973.0 0.001028 282.38196 946.76965
1079.0 0.000927 282.29147 1074.06348
1190.0 0.000840 282.20102 1196.07495
1260.0 0.000794 282.11053 1279.29395
1296.0 0.000772 282.02008 1315.43103
1259.0 0.000794 281.92953 1283.31689
1129.0 0.000886 281.83902 1185.87598
1031.0 0.000970 281.74854 1079.55493
969.0 0.001032 281.65808 1002.15765
943.0 0.001060 281.56757 955.31171
903.0 0.001107 281.47696 950.62012
945.0 0.001058 281.38644 1029.03369
1155.0 0.000866 281.29593 1201.03894
1397.0 0.000716 281.20538 1416.29639
1542.0 0.000649 281.11484 1578.73230
1556.0 0.000643 281.02429 1595.03784
1453.0 0.000688 280.93375 1496.79395
1389.0 0.000720 280.84317 1404.01624
1323.0 0.000756 280.75272 1345.50659
1222.0 0.000818 280.66211 1274.62134
1140.0 0.000877 280.57150 1168.27612
1022.0 0.000978 280.48099 1054.36035
986.0 0.001014 280.39041 982.40765
908.0 0.001101 280.30002 956.21338
856.0 0.001168 280.20932 932.52777
825.0 0.001212 280.11880 874.95618
775.0 0.001290 280.02823 810.61749
705.0 0.001418 279.93774 768.94800
717.0 0.001395 279.84720 738.66705
719.0 0.001391 279.75668 695.39575
617.0 0.001621 279.66617 627.46600
558.0 0.001792 279.57559 551.15717
489.0 0.002045 279.48508 492.69119
480.0 0.002083 279.39462 463.02057
463.0 0.002160 279.30408 464.66568
497.0 0.002012 279.21362 498.58087
571.0 0.001751 279.12308 561.73108
636.0 0.001572 279.03268 638.67615
660.0 0.001515 278.94217 697.47192
656.0 0.001524 278.85175 697.81555
594.0 0.001684 278.76132 638.04352
574.0 0.001742 278.67084 572.04260
524.0 0.001908 278.58041 541.61890
556.0 0.001799 278.49005 563.19763
680.0 0.001471 278.39963 637.36462
711.0 0.001406 278.30917 744.13855
844.0 0.001185 278.21884 842.99670
916.0 0.001092 278.12848 874.30212
817.0 0.001224 278.03821 814.48669
713.0 0.001403 277.94785 703.31897
550.0 0.001818 277.85748 591.01178
497.0 0.002012 277.76718 514.07794
479.0 0.002088 277.67694 482.61475
486.0 0.002058 277.58664 492.15674
493.0 0.002028 277.49643 529.73193
525.0 0.001905 277.40619 571.27844
569.0 0.001757 277.31595 582.87964
599.0 0.001669 277.22577 570.05280
621.0 0.001610 277.13565 570.75153
585.0 0.001709 277.04544 601.09546
609.0 0.001642 276.95532 637.57953
597.0 0.001675 276.86517 627.59369
570.0 0.001754 276.77502 561.69092
504.0 0.001984 276.68500 483.13922
429.0 0.002331 276.59500 422.43024
385.0 0.002597 276.50491 386.78357
365.0 0.002740 276.41492 374.15338
372.0 0.002688 276.32498 379.83902
410.0 0.002439 276.23499 403.06030
433.0 0.002309 276.14505 435.26157
437.0 0.002288 276.05515 458.11600
459.0 0.002179 275.96524 448.18100
449.0 0.002227 275.87543 412.90198
407.0 0.002457 275.78558 376.06357
371.0 0.002695 275.69580 348.66544
343.0 0.002915 275.60593 331.93646
320.0 0.003125 275.51624 323.21539
312.0 0.003205 275.42654 318.84256
334.0 0.002994 275.33685 317.83374
336.0 0.002976 275.24713 318.60284
326.0 0.003067 275.15753 320.73965
338.0 0.002959 275.06793 324.64706
333.0 0.003003 274.97839 330.31201
351.0 0.002849 274.88885 339.18719
341.0 0.002933 274.79929 352.99033
367.0 0.002725 274.70984 375.80771
425.0 0.002353 274.62039 415.16122
465.0 0.002151 274.53101 482.64618
597.0 0.001675 274.44162 592.79315
655.0 0.001527 274.35229 749.26672
869.0 0.001151 274.26297 929.81256
987.0 0.001013 274.17374 1090.06177
1107.0 0.000903 274.08444 1162.06494
1097.0 0.000912 273.99524 1084.50366
939.0 0.001065 273.90613 903.83704
755.0 0.001325 273.81693 721.94946
696.0 0.001437 273.72784 597.16223
539.0 0.001855 273.63885 541.09021
542.0 0.001845 273.54980 546.68524
585.0 0.001709 273.46088 597.26172
602.0 0.001661 273.37195 669.07184
699.0 0.001431 273.28299 732.03168
695.0 0.001439 273.19418 747.28186
692.0 0.001445 273.10538 690.02631
604.0 0.001656 273.01654 590.23566
553.0 0.001808 272.92786 495.24512
438.0 0.002283 272.83914 426.83212
425.0 0.002353 272.75052 385.44946
401.0 0.002494 272.66196 364.06140
397.0 0.002519 272.57333 355.78741
376.0 0.002660 272.48489 358.77945
376.0 0.002660 272.39639 374.13660
406.0 0.002463 272.30798 408.23181
426.0 0.002347 272.21960 461.70599
496.0 0.002016 272.13123 530.23529
559.0 0.001789 272.04297 588.00824
565.0 0.001770 271.95471 589.97406
539.0 0.001855 271.86652 534.54492
489.0 0.002045 271.77841 466.21295
422.0 0.002370 271.69031 413.40656
370.0 0.002703 271.60226 383.14029
372.0 0.002688 271.51425 373.43625
388.0 0.002577 271.42633 381.80997
401.0 0.002494 271.33838 404.52008
414.0 0.002415 271.25058 436.54489
438.0 0.002283 271.16272 462.86319
481.0 0.002079 271.07498 461.26846
469.0 0.002132 270.98727 433.80289
409.0 0.002445 270.89969 402.46555
390.0 0.002564 270.81207 380.16916
364.0 0.002747 270.72455 368.71875
344.0 0.002907 270.63702 366.99603
357.0 0.002801 270.54959 371.81818
379.0 0.002639 270.46225 382.81146
413.0 0.002421 270.37491 401.21094
466.0 0.002146 270.28766 431.63467
551.0 0.001815 270.20038 484.89493
631.0 0.001585 270.11331 581.09045
749.0 0.001335 270.02621 748.49432
899.0 0.001112 269.93918 1014.69958
1128.0 0.000887 269.85214 1361.12952
1529.0 0.000654 269.76517 1695.34961
1603.0 0.000624 269.67838 1835.12622
1640.0 0.000610 269.59155 1693.83167
1425.0 0.000702 269.50482 1392.31067
1169.0 0.000855 269.41809 1103.37842
975.0 0.001026 269.33142 900.75311
887.0 0.001127 269.24490 787.72943
713.0 0.001403 269.15842 763.24896
776.0 0.001289 269.07193 828.61292
829.0 0.001206 268.98563 962.19708
876.0 0.001142 268.89923 1109.26160
1029.0 0.000972 268.81299 1174.14087
1092.0 0.000916 268.72678 1107.94751
1029.0 0.000972 268.64059 959.94452
832.0 0.001202 268.55457 805.59570
694.0 0.001441 268.46857 683.73376
593.0 0.001686 268.38263 601.73242
614.0 0.001629 268.29678 560.14191
567.0 0.001764 268.21088 561.60809
604.0 0.001656 268.12521 613.28772
723.0 0.001383 268.03946 728.00842
836.0 0.001196 267.95386 914.11420
1020.0 0.000980 267.86835 1152.68042
1195.0 0.000837 267.78284 1381.69861
1348.0 0.000742 267.69736 1491.63928
1375.0 0.000727 267.61206 1382.06006
1218.0 0.000821 267.52682 1132.30505
978.0 0.001022 267.44165 892.12555
785.0 0.001274 267.35648 730.41071
694.0 0.001441 267.27133 659.78748
667.0 0.001499 267.18634 672.08813
701.0 0.001427 267.10147 752.95917
767.0 0.001304 267.01666 876.65009
882.0 0.001134 266.93192 995.33173
943.0 0.001060 266.84705 1044.68506
981.0 0.001019 266.76245 980.21124
915.0 0.001093 266.67795 847.61871
799.0 0.001252 266.59344 730.00079
728.0 0.001374 266.50900 670.41150
716.0 0.001397 266.42459 678.21381
753.0 0.001328 266.34033 746.88629
817.0 0.001224 266.25620 850.30341
895.0 0.001117 266.17209 939.77368
949.0 0.001054 266.08801 969.17853
959.0 0.001043 266.00403 933.20746
995.0 0.001005 265.92014 889.39453
1040.0 0.000962 265.83630 914.41089
1155.0 0.000866 265.75256 1071.41467
1343.0 0.000745 265.66895 1414.22339
1708.0 0.000585 265.58533 1961.80762
2285.0 0.000438 265.50177 2640.34229
2806.0 0.000356 265.41837 3171.79199
3029.0 0.0003301 265.33502 3159.18896
2901.0 0.0003447 265.25177 2632.65576
2328.0 0.000430 265.16858 1976.00000
1633.0 0.000612 265.08545 1442.56396
1261.0 0.000793 265.00238 1112.29285
1065.0 0.000939 264.91943 979.10370
1043.0 0.000959 264.83661 1016.31396
1124.0 0.000890 264.75378 1194.90125
1243.0 0.000805 264.67105 1465.05225
1401.0 0.000714 264.58841 1700.14905
1572.0 0.000636 264.50589 1702.46643
1567.0 0.000638 264.42343 1446.05164
1296.0 0.000772 264.34100 1112.70947
979.0 0.001021 264.25873 834.23230
747.0 0.001339 264.17654 644.05725
533.0 0.001876 264.09448 528.71936
463.0 0.002160 264.01242 462.71729
423.0 0.002364 263.93042 424.16452
446.0 0.002242 263.84851 400.00601
373.0 0.002681 263.76669 383.67764
380.0 0.002632 263.68506 372.28598
358.0 0.002793 263.60349 364.58566
349.0 0.002865 263.52191 360.21994
389.0 0.002571 263.44043 359.66528
393.0 0.002545 263.35913 364.33966
370.0 0.002703 263.27786 377.30698
425.0 0.002353 263.19669 399.73380
461.0 0.002169 263.11557 434.50500
546.0 0.001832 263.03458 472.64648
577.0 0.001733 262.95377 494.10492
576.0 0.001736 262.87286 482.52682
530.0 0.001887 262.79208 452.46130
494.0 0.002024 262.71152 427.19272
460.0 0.002174 262.63098 419.39038
453.0 0.002208 262.55048 435.72754
496.0 0.002016 262.47012 482.06555
570.0 0.001754 262.38989 561.61340
649.0 0.001541 262.30963 670.29675
737.0 0.001357 262.22958 784.39459
809.0 0.001236 262.14957 854.62921
843.0 0.001186 262.06970 835.07733
833.0 0.001200 261.98987 755.67426
749.0 0.001335 261.91013 669.24927
676.0 0.001479 261.83051 598.38239
623.0 0.001605 261.75101 560.74774
610.0 0.001639 261.67151 569.27734
643.0 0.001555 261.59222 630.56702
702.0 0.001425 261.51294 740.48126
834.0 0.001199 261.43378 878.05884
958.0 0.001044 261.35477 994.34753
1039.0 0.000962 261.27585 1042.49292
1119.0 0.000894 261.19693 1065.69934
1160.0 0.000862 261.11816 1139.70483
1205.0 0.000830 261.03949 1271.42786
1270.0 0.000787 260.96097 1392.47656
1281.0 0.000781 260.88251 1366.63135
1206.0 0.000829 260.80405 1187.14978
1048.0 0.000954 260.72583 978.47638
867.0 0.001153 260.64758 824.61432
745.0 0.001342 260.56952 734.31622
693.0 0.001443 260.49164 681.88348
697.0 0.001435 260.41370 657.08282
686.0 0.001458 260.33594 673.64734
715.0 0.001399 260.25821 731.25775
719.0 0.001391 260.18063 804.25024
788.0 0.001269 260.10318 823.51953
724.0 0.001381 260.02579 750.73816
689.0 0.001451 259.94852 632.74402
550.0 0.001818 259.87134 524.60168
455.0 0.002198 259.79434 444.68454
402.0 0.002488 259.71732 392.34070
347.0 0.002882 259.64047 360.67200
356.0 0.002809 259.56372 343.15033
339.0 0.002950 259.48697 334.58600
348.0 0.002874 259.41049 332.44455
363.0 0.002755 259.33405 335.67990
334.0 0.002994 259.25766 342.32080
374.0 0.002674 259.18146 347.64972
334.0 0.002994 259.10529 345.53098
369.0 0.002710 259.02921 336.11966
350.0 0.002857 258.95337 324.84079
343.0 0.002915 258.87750 316.07379
339.0 0.002950 258.80182 311.62515
339.0 0.002950 258.72617 313.26657
369.0 0.002710 258.65070 319.21375
353.0 0.002833 258.57526 330.14001
358.0 0.002793 258.49997 342.04379
398.0 0.002513 258.42480 349.32129
369.0 0.002710 258.34970 347.02072
372.0 0.002688 258.27475 337.74783
356.0 0.002809 258.19989 327.90787
346.0 0.002890 258.12515 321.59311
327.0 0.003058 258.05048 320.03702
312.0 0.003205 257.97595 322.61816
360.0 0.002778 257.90158 330.89905
366.0 0.002732 257.82718 343.11456
377.0 0.002653 257.75302 358.33582
413.0 0.002421 257.67892 377.04230
439.0 0.002278 257.60486 402.66202
456.0 0.002193 257.53110 443.58798
502.0 0.001992 257.45734 507.70889
562.0 0.001779 257.38361 594.12097
622.0 0.001608 257.31009 683.61066
678.0 0.001475 257.23663 736.68530
700.0 0.001429 257.16333 740.95471
730.0 0.001370 257.09015 749.95654
793.0 0.001261 257.01703 817.35999
915.0 0.001093 256.94403 960.03302
995.0 0.001005 256.87115 1148.49597
1115.0 0.000897 256.79840 1281.66467
1208.0 0.000828 256.72583 1252.52197
1126.0 0.000888 256.65326 1099.79321
959.0 0.001043 256.58081 936.73468
838.0 0.001193 256.50848 809.91888
764.0 0.001309 256.43631 714.62311
666.0 0.001502 256.36426 649.78998
606.0 0.001650 256.29227 631.00427
655.0 0.001527 256.22043 664.64709
689.0 0.001451 256.14874 741.85577
759.0 0.001318 256.07709 834.04138
827.0 0.001209 256.00562 879.89441
890.0 0.001124 255.93420 859.23932
903.0 0.001107 255.86293 825.07404
832.0 0.001202 255.79178 822.71448
860.0 0.001163 255.72079 847.85828
890.0 0.001124 255.64987 865.72015
882.0 0.001134 255.57904 840.61194
838.0 0.001193 255.50835 762.16388
703.0 0.001422 255.43777 662.64874
590.0 0.001695 255.36731 582.84088
593.0 0.001686 255.29707 540.58710
531.0 0.001883 255.22679 542.13062
573.0 0.001745 255.15672 593.40875
672.0 0.001488 255.08670 702.80585
758.0 0.001319 255.01692 874.07922
1062.0 0.000942 254.94714 1092.56873
1316.0 0.000760 254.87749 1309.97180
1543.0 0.000648 254.80798 1429.20483
1561.0 0.000641 254.73869 1368.85132
1260.0 0.000794 254.66942 1167.72058
1014.0 0.000986 254.60030 938.36127
809.0 0.001236 254.53123 758.48566
650.0 0.001538 254.46233 651.96582
602.0 0.001661 254.39357 614.98096
633.0 0.001580 254.32491 634.57166
697.0 0.001435 254.25638 694.12787
736.0 0.001359 254.18793 776.17865
862.0 0.001160 254.11964 857.09924
943.0 0.001060 254.05147 894.25238
881.0 0.001135 253.98349 862.96741
803.0 0.001245 253.91548 796.53296
778.0 0.001285 253.84769 751.34308
773.0 0.001294 253.78004 767.81946
843.0 0.001186 253.71243 866.81689
922.0 0.001085 253.64505 1051.13794
1088.0 0.000919 253.57771 1294.92871
1360.0 0.000735 253.51048 1520.34143
1494.0 0.000669 253.44347 1631.31030
1571.0 0.000637 253.37646 1661.98682
1616.0 0.000619 253.30966 1753.30090
1777.0 0.000563 253.24300 1967.84180
2090.0 0.000478 253.17641 2222.37036
2343.0 0.000427 253.10995 2297.24048
2227.0 0.000449 253.04359 2078.08569
1830.0 0.000546 252.97746 1739.62354
1457.0 0.000686 252.91138 1465.03516
1252.0 0.000799 252.84543 1308.42053
1148.0 0.000871 252.77956 1228.01575
1125.0 0.000889 252.71390 1162.36572
1088.0 0.000919 252.64830 1121.59143
1117.0 0.000895 252.58281 1149.18030
1200.0 0.000833 252.51758 1244.63574
1339.0 0.000747 252.45238 1338.30945
1355.0 0.000738 252.38730 1314.60071
1222.0 0.000818 252.32239 1159.50183
1092.0 0.000916 252.25754 976.10321
944.0 0.001059 252.19289 849.10565
887.0 0.001127 252.12828 811.18915
906.0 0.001104 252.06384 857.30530
1024.0 0.000977 251.99953 954.76208
1042.0 0.000960 251.93538 1029.79724
1088.0 0.000919 251.87126 998.93524
1051.0 0.000951 251.80737 872.87451
914.0 0.001094 251.74359 731.07526
688.0 0.001453 251.67989 623.80542
651.0 0.001536 251.61636 565.09644
616.0 0.001623 251.55298 549.74829
605.0 0.001653 251.48967 566.70789
631.0 0.001585 251.42647 610.68353
718.0 0.001393 251.36348 681.07294
753.0 0.001328 251.30058 761.40900
807.0 0.001239 251.23781 801.67145
790.0 0.001266 251.17517 757.18372
789.0 0.001267 251.11261 655.67456
693.0 0.001443 251.05029 552.24432
536.0 0.001866 250.98801 474.58801
465.0 0.002151 250.92587 426.97180
423.0 0.002364 250.86397 402.31500
412.0 0.002427 250.80205 390.06357
386.0 0.002591 250.74031 384.46570
406.0 0.002463 250.67867 385.12405
396.0 0.002525 250.61725 388.26956
394.0 0.002538 250.55588 385.88470
390.0 0.002564 250.49464 372.54974
385.0 0.002597 250.43356 354.02795
365.0 0.002740 250.37260 338.24039
361.0 0.002770 250.31184 329.09183
359.0 0.002786 250.25108 328.28262
335.0 0.002985 250.19057 336.91058
373.0 0.002681 250.13016 355.49268
414.0 0.002415 250.06985 381.27292
425.0 0.002353 250.00970 412.11572
442.0 0.002262 249.94965 429.09915
468.0 0.002137 249.88977 420.51022
415.0 0.002410 249.83002 394.54453
404.0 0.002475 249.77036 364.59473
391.0 0.002558 249.71094 344.81003
365.0 0.002740 249.65150 334.71796
351.0 0.002849 249.59224 334.13293
355.0 0.002817 249.53319 342.44977
394.0 0.002538 249.47420 359.58011
437.0 0.002288 249.41534 385.09412
464.0 0.002155 249.35661 420.87753
508.0 0.001969 249.29807 463.46472
595.0 0.001681 249.23962 516.87042
702.0 0.001425 249.18137 595.79333
756.0 0.001323 249.12311 711.57849
864.0 0.001157 249.06509 858.82446
986.0 0.001014 249.00719 995.12195
1070.0 0.000935 248.94943 1076.95264
1101.0 0.000908 248.89182 1094.46423
1116.0 0.000896 248.83429 1030.61072
1055.0 0.000948 248.77686 896.84436
872.0 0.001147 248.71964 758.22687
766.0 0.001305 248.66252 659.76746
701.0 0.001427 248.60561 611.79987
703.0 0.001422 248.54872 601.66888
674.0 0.001484 248.49200 619.17297
646.0 0.001548 248.43546 657.73065
686.0 0.001458 248.37903 697.56226
761.0 0.001314 248.32274 717.23419
726.0 0.001377 248.26656 711.07385
715.0 0.001399 248.21054 668.75781
735.0 0.001361 248.15466 595.27948
645.0 0.001550 248.09888 520.85736
528.0 0.001894 248.04327 464.08374
466.0 0.002146 247.98776 427.27655
433.0 0.002309 247.93240 397.65402
385.0 0.002597 247.87718 370.57104
399.0 0.002506 247.82213 347.78989
304.0 0.003289 247.76714 331.04590
348.0 0.002874 247.71234 320.18207
312.0 0.003205 247.65765 314.44186
336.0 0.002976 247.60313 312.79327
341.0 0.002933 247.54874 314.55264
314.0 0.003185 247.49446 319.30652
326.0 0.003067 247.44029 327.56308
371.0 0.002695 247.38631 340.68726
427.0 0.002342 247.33238 360.59537
450.0 0.002222 247.27867 394.89938
484.0 0.002066 247.22510 454.58292
551.0 0.001815 247.17168 550.49359
630.0 0.001587 247.11830 686.06061
757.0 0.001321 247.06511 844.94135
879.0 0.001138 247.01208 972.00757
931.0 0.001074 246.95921 988.96326
958.0 0.001044 246.90636 893.48022
781.0 0.001280 246.85374 763.63617
667.0 0.001499 246.80127 652.58362
592.0 0.001689 246.74884 569.86127
512.0 0.001953 246.69666 512.30859
477.0 0.002096 246.64456 484.18735
472.0 0.002119 246.59258 490.26083
513.0 0.001949 246.54074 528.56610
555.0 0.001802 246.48903 588.66052
600.0 0.001667 246.43747 642.19623
630.0 0.001587 246.38612 647.73871
566.0 0.001767 246.33478 597.66016
515.0 0.001942 246.28362 527.98535
474.0 0.002110 246.23264 466.22556
449.0 0.002227 246.18181 417.50174
428.0 0.002336 246.13104 378.65259
393.0 0.002545 246.08044 347.88959
363.0 0.002755 246.03000 326.80853
346.0 0.002890 245.97968 311.86462
323.0 0.003096 245.92947 303.25067
317.0 0.003155 245.87941 298.48895
306.0 0.003268 245.82956 296.48770
304.0 0.003289 245.77971 296.61472
322.0 0.003106 245.73010 298.54788
307.0 0.003257 245.68060 302.89362
327.0 0.003058 245.63124 310.51242
371.0 0.002695 245.58199 323.66638
369.0 0.002710 245.53297 346.57632
379.0 0.002639 245.48399 385.42740
423.0 0.002364 245.43520 448.11420
511.0 0.001957 245.38652 541.20691
607.0 0.001647 245.33797 660.92285
797.0 0.001255 245.28955 785.40759
853.0 0.001172 245.24133 860.26575
803.0 0.001245 245.19318 830.28815
758.0 0.001319 245.14516 719.20331
594.0 0.001684 245.09731 593.82721
533.0 0.001876 245.04958 493.36652
485.0 0.002062 245.00201 429.53360
440.0 0.002273 244.95454 400.45514
425.0 0.002353 244.90718 401.76227
446.0 0.002242 244.86008 428.79813
478.0 0.002092 244.81305 475.82510
522.0 0.001916 244.76613 531.66040
574.0 0.001742 244.71941 571.62512
588.0 0.001701 244.67274 564.46313
516.0 0.001938 244.62631 511.96439
473.0 0.002114 244.57988 446.07443
397.0 0.002519 244.53375 389.43185
401.0 0.002494 244.48764 349.10864
360.0 0.002778 244.44171 324.44620
322.0 0.003106 244.39587 311.22742
338.0 0.002959 244.35025 305.05759
336.0 0.002976 244.30469 306.73431
371.0 0.002695 244.25935 315.15189
363.0 0.002755 244.21405 331.56253
395.0 0.002532 244.16893 356.51089
423.0 0.002364 244.12395 389.11469
447.0 0.002237 244.07912 422.56290
497.0 0.002012 244.03441 444.49792
518.0 0.001931 243.98988 440.17502
463.0 0.002160 243.94545 414.54239
418.0 0.002392 243.90111 386.67719
382.0 0.002618 243.85699 370.20178
420.0 0.002381 243.81297 371.56558
433.0 0.002309 243.76912 391.86215
432.0 0.002315 243.72531 427.51086
477.0 0.002096 243.68170 468.22284
507.0 0.001972 243.63823 496.51376
522.0 0.001916 243.59491 499.82535
513.0 0.001949 243.55173 483.61972
475.0 0.002105 243.50867 454.93533
434.0 0.002304 243.46570 420.68164
422.0 0.002370 243.42288 393.06638
398.0 0.002513 243.38026 381.92346
412.0 0.002427 243.33772 393.69528
437.0 0.002288 243.29533 431.97232
476.0 0.002101 243.25311 495.33490
523.0 0.001912 243.21101 578.87799
614.0 0.001629 243.16904 660.34015
664.0 0.001506 243.12717 699.02112
643.0 0.001555 243.08545 666.21973
550.0 0.001818 243.04396 584.88928
477.0 0.002096 243.00249 497.85550
428.0 0.002336 242.96117 428.90817
391.0 0.002558 242.92001 385.94055
371.0 0.002695 242.87901 365.78265
375.0 0.002667 242.83813 367.02484
412.0 0.002427 242.79741 386.44333
394.0 0.002538 242.75676 421.37875
418.0 0.002392 242.71631 464.62894
473.0 0.002114 242.67593 499.10062
495.0 0.002020 242.63574 502.23499
477.0 0.002096 242.59564 471.50378
453.0 0.002208 242.55574 427.04932
408.0 0.002451 242.51593 386.87741
394.0 0.002538 242.47627 358.97412
359.0 0.002786 242.43674 345.61682
380.0 0.002632 242.39731 344.71542
364.0 0.002747 242.35806 357.47183
370.0 0.002703 242.31889 383.31168
419.0 0.002387 242.27992 420.55334
429.0 0.002331 242.24112 462.49454
491.0 0.002037 242.20232 494.91315
492.0 0.002033 242.16376 502.17908
510.0 0.001961 242.12532 491.41446
499.0 0.002004 242.08702 484.85056
488.0 0.002049 242.04878 498.20581
497.0 0.002012 242.01076 534.66400
572.0 0.001748 241.97281 583.95801
620.0 0.001613 241.93504 621.15674
636.0 0.001572 241.89740 626.58722
665.0 0.001504 241.85988 615.48657
649.0 0.001541 241.82251 616.30194
641.0 0.001560 241.78529 640.56677
689.0 0.001451 241.74814 677.20673
682.0 0.001466 241.71118 703.77075
765.0 0.001307 241.67435 702.79041
779.0 0.001284 241.63763 679.70923
705.0 0.001418 241.60103 653.34692
670.0 0.001493 241.56459 639.27850
665.0 0.001504 241.52824 642.51404
681.0 0.001468 241.49211 657.19550
727.0 0.001376 241.45601 692.76532
828.0 0.001208 241.42014 777.71661
981.0 0.001019 241.38437 942.40717
1179.0 0.000848 241.34872 1200.60950
1451.0 0.000689 241.31319 1531.66138
1729.0 0.000578 241.27785 1850.18689
1920.0 0.000521 241.24263 1997.36963
1922.0 0.000520 241.20746 1867.79980
1665.0 0.000601 241.17250 1560.38354
1298.0 0.000770 241.13760 1242.73193
1023.0 0.000978 241.10295 1008.59003
895.0 0.001117 241.06833 888.11890
911.0 0.001098 241.03383 885.33643
1007.0 0.000993 240.99954 988.85083
1142.0 0.000876 240.96532 1174.12708
1318.0 0.000759 240.93127 1386.80798
1513.0 0.000661 240.89734 1541.72363
1522.0 0.000657 240.86354 1573.55042
1411.0 0.000709 240.82988 1459.95020
1235.0 0.000810 240.79636 1235.09167
1014.0 0.000986 240.76295 990.41296
795.0 0.001258 240.72972 792.24622
693.0 0.001443 240.69653 661.98480
598.0 0.001672 240.66350 597.67792
596.0 0.001678 240.63062 588.36395
613.0 0.001631 240.59787 620.21143
607.0 0.001647 240.56529 672.96771
748.0 0.001337 240.53276 717.70428
771.0 0.001297 240.50041 730.82355
721.0 0.001387 240.46819 723.82355
700.0 0.001429 240.43608 720.30475
634.0 0.001577 240.40408 722.79517
723.0 0.001383 240.37231 718.78802
686.0 0.001458 240.34058 689.80536
631.0 0.001585 240.30896 627.27826
582.0 0.001718 240.27756 548.93134
463.0 0.002160 240.24619 479.74554
424.0 0.002358 240.21503 430.13037
429.0 0.002331 240.18393 401.86688
455.0 0.002198 240.15297 393.81439
437.0 0.002288 240.12221 403.14346
391.0 0.002558 240.09154 425.55884
426.0 0.002347 240.06096 455.83923
481.0 0.002079 240.03056 485.10638
447.0 0.002237 240.00023 505.03946
514.0 0.001946 239.97003 508.81207
527.0 0.001898 239.94005 499.47858
494.0 0.002024 239.91010 490.08832
466.0 0.002146 239.88033 495.55157
497.0 0.002012 239.85069 522.10675
507.0 0.001972 239.82117 566.29187
555.0 0.001802 239.79175 607.50177
581.0 0.001721 239.76242 612.27570
544.0 0.001838 239.73331 569.94135
495.0 0.002020 239.70425 505.84570
442.0 0.002262 239.67538 446.66153
374.0 0.002674 239.64661 403.93683
365.0 0.002740 239.61800 379.63354
384.0 0.002604 239.58945 371.08624
414.0 0.002415 239.56100 374.22476
400.0 0.002500 239.53279 388.16031
399.0 0.002506 239.50462 414.32642
462.0 0.002165 239.47661 447.29089
486.0 0.002058 239.44872 476.02155
495.0 0.002020 239.42093 487.25064
499.0 0.002004 239.39331 483.40918
503.0 0.001988 239.36581 480.73700
503.0 0.001988 239.33838 490.08176
526.0 0.001901 239.31110 513.23273
613.0 0.001631 239.28397 548.43903
665.0 0.001504 239.25694 597.11792
720.0 0.001389 239.23007 643.64288
736.0 0.001359 239.20329 670.49432
710.0 0.001408 239.17662 672.82861
682.0 0.001466 239.15010 673.52179
688.0 0.001453 239.12373 686.72162
716.0 0.001397 239.09746 705.49298
714.0 0.001401 239.07130 720.26007
747.0 0.001339 239.04527 726.54553
723.0 0.001383 239.01933 711.99396
723.0 0.001383 238.99356 676.14465
632.0 0.001582 238.96786 640.50592
625.0 0.001600 238.94238 625.43109
618.0 0.001618 238.91692 632.36261
682.0 0.001466 238.89162 656.02258
733.0 0.001364 238.86646 700.11969
735.0 0.001361 238.84140 774.56403
840.0 0.001190 238.81644 873.59875
951.0 0.001052 238.79166 975.54950
1024.0 0.000977 238.76691 1055.47412
1062.0 0.000942 238.74239 1078.64453
1047.0 0.000955 238.71794 1011.55975
850.0 0.001176 238.69359 874.48096
715.0 0.001399 238.66936 724.02490
574.0 0.001742 238.64529 600.18878
529.0 0.001890 238.62132 517.44250
453.0 0.002208 238.59750 475.67563
467.0 0.002141 238.57372 468.22382
471.0 0.002123 238.55009 487.02979
461.0 0.002169 238.52660 522.30157
565.0 0.001770 238.50327 561.56085
574.0 0.001742 238.47998 593.27417
590.0 0.001695 238.45688 600.11334
575.0 0.001739 238.43381 570.20135
499.0 0.002004 238.41090 514.83929
473.0 0.002114 238.38817 455.62488
429.0 0.002331 238.36549 408.39114
394.0 0.002538 238.34294 378.50372
365.0 0.002740 238.32051 365.84940
362.0 0.002762 238.29817 369.78403
368.0 0.002717 238.27603 388.81488
395.0 0.002532 238.25392 420.22607
446.0 0.002242 238.23195 456.82617
489.0 0.002045 238.21011 484.46283
513.0 0.001949 238.18840 487.41241
500.0 0.002000 238.16678 465.89835
457.0 0.002188 238.14528 437.09427
433.0 0.002309 238.12389 417.24561
403.0 0.002481 238.10263 416.54517
454.0 0.002203 238.08150 440.25275
507.0 0.001972 238.06044 489.27463
526.0 0.001901 238.03952 562.42932
605.0 0.001653 238.01872 650.10474
713.0 0.001403 237.99802 724.49402
753.0 0.001328 237.97748 747.29114
704.0 0.001420 237.95699 709.03156
610.0 0.001639 237.93660 638.11902
534.0 0.001873 237.91640 563.64874
462.0 0.002165 237.89626 504.40552
444.0 0.002252 237.87627 465.17419
445.0 0.002247 237.85635 442.05286
425.0 0.002353 237.83658 431.32620
422.0 0.002370 237.81686 433.78815
405.0 0.002469 237.79738 451.31870
428.0 0.002336 237.77789 478.26334
469.0 0.002132 237.75858 499.58603
475.0 0.002105 237.73935 495.60364
445.0 0.002247 237.72023 464.01065
402.0 0.002488 237.70123 423.07190
370.0 0.002703 237.68234 387.66922
357.0 0.002801 237.66357 363.27292
342.0 0.002924 237.64493 347.93228
321.0 0.003115 237.62634 338.47934
325.0 0.003077 237.60789 332.24826
334.0 0.002994 237.58955 330.15488
317.0 0.003155 237.57132 336.59311
334.0 0.002994 237.55318 353.56509
341.0 0.002933 237.53520 381.41077
434.0 0.002304 237.51729 417.64413
422.0 0.002370 237.49953 454.52652
486.0 0.002058 237.48183 478.36133
484.0 0.002066 237.46425 479.05219
455.0 0.002198 237.44682 459.54657
407.0 0.002457 237.42946 430.76904
373.0 0.002681 237.41220 405.79276
379.0 0.002639 237.39508 394.45374
378.0 0.002646 237.37802 401.71063
402.0 0.002488 237.36107 426.72668
430.0 0.002326 237.34430 463.79849
479.0 0.002088 237.32759 500.36539
527.0 0.001898 237.31096 522.48962
543.0 0.001842 237.29445 529.03308
498.0 0.002008 237.27808 527.55389
505.0 0.001980 237.26175 523.17487
500.0 0.002000 237.24564 518.84619
502.0 0.001992 237.22951 513.40363
494.0 0.002024 237.21359 502.17087
469.0 0.002132 237.19769 488.29968
443.0 0.002257 237.18193 484.37943
472.0 0.002119 237.16629 499.33264
492.0 0.002033 237.15073 534.00964
541.0 0.001848 237.13527 582.11584
606.0 0.001650 237.11992 631.17346
656.0 0.001524 237.10471 663.08411
626.0 0.001597 237.08957 657.76392
534.0 0.001873 237.07452 614.11487
452.0 0.002212 237.05959 556.40991
449.0 0.002227 237.04477 504.30231
438.0 0.002283 237.03003 464.80560
414.0 0.002415 237.01540 438.07962
393.0 0.002545 237.00082 428.73605
404.0 0.002475 236.98647 441.44806
446.0 0.002242 236.97212 477.81253
504.0 0.001984 236.95795 536.42328
560.0 0.001786 236.94380 609.41205
635.0 0.001575 236.92978 673.42511
690.0 0.001449 236.91589 691.95074
625.0 0.001600 236.90204 649.38672
549.0 0.001821 236.88837 570.93469
470.0 0.002128 236.87471 488.85995
394.0 0.002538 236.86118 422.20041
354.0 0.002825 236.84775 376.10373
313.0 0.003195 236.83446 349.71918
320.0 0.003125 236.82123 340.08948
317.0 0.003155 236.80811 344.01605
334.0 0.002994 236.79509 358.88660
366.0 0.002732 236.78217 381.12509
396.0 0.002525 236.76938 403.72610
386.0 0.002591 236.75661 415.32388
416.0 0.002404 236.74396 408.99350
408.0 0.002451 236.73143 391.12265
389.0 0.002571 236.71901 373.54428
368.0 0.002717 236.70668 364.69543
363.0 0.002755 236.69443 368.54257
384.0 0.002604 236.68225 385.03235
402.0 0.002488 236.67023 409.90756
422.0 0.002370 236.65825 434.66678
439.0 0.002278 236.64638 448.29913
467.0 0.002141 236.63461 448.71490
425.0 0.002353 236.62294 444.16782
433.0 0.002309 236.61134 439.64868
450.0 0.002222 236.59988 431.33859
407.0 0.002457 236.58847 416.56412
404.0 0.002475 236.57716 402.92419
405.0 0.002469 236.56593 401.17551
398.0 0.002513 236.55487 418.44019
437.0 0.002288 236.54387 457.31302
512.0 0.001953 236.53290 514.67450
553.0 0.001808 236.52206 577.79633
631.0 0.001585 236.51134 621.27435
607.0 0.001647 236.50067 621.60138
540.0 0.001852 236.49014 584.64880
501.0 0.001996 236.47968 533.68243
452.0 0.002212 236.46931 481.57120
409.0 0.002445 236.45898 432.38498
366.0 0.002732 236.44882 391.16785
332.0 0.003012 236.43871 362.72733
325.0 0.003077 236.42868 348.92340
332.0 0.003012 236.41876 349.09326
332.0 0.003012 236.40892 361.19547
336.0 0.002976 236.39919 380.49597
388.0 0.002577 236.38954 397.96997
407.0 0.002457 236.37996 401.52811
374.0 0.002674 236.37047 387.50867
343.0 0.002915 236.36108 363.78876
321.0 0.003115 236.35181 338.71085
314.0 0.003185 236.34254 316.26102
302.0 0.003311 236.33344 298.67743
291.0 0.003436 236.32442 286.43088
269.0 0.00372 236.31546 279.23630
254.0 0.00394 236.30663 275.65915
278.0 0.00360 236.29781 276.44897
297.0 0.003367 236.28914 281.31564
307.0 0.003257 236.28053 291.35992
325.0 0.003077 236.27199 307.53571
332.0 0.003012 236.26357 329.74261
342.0 0.002924 236.25520 355.63089
345.0 0.002899 236.24693 377.96851
366.0 0.002732 236.23875 385.99774
359.0 0.002786 236.23067 375.79755
354.0 0.002825 236.22267 355.12054
323.0 0.003096 236.21471 332.47021
310.0 0.003226 236.20685 311.99960
322.0 0.003106 236.19911 295.50220
277.0 0.00361 236.19142 285.31372
264.0 0.00379 236.18379 281.18039
283.0 0.00353 236.17632 282.71420
287.0 0.003484 236.16887 289.30432
304.0 0.003289 236.16151 299.87219
309.0 0.003236 236.15428 311.34900
281.0 0.00356 236.14705 318.89511
297.0 0.003367 236.13998 318.28656
325.0 0.003077 236.13295 311.20135
290.0 0.003448 236.12598 302.66937
268.0 0.00373 236.11913 295.76581
283.0 0.00353 236.11237 291.60703
258.0 0.00388 236.10564 290.41336
266.0 0.00376 236.09901 290.05414
316.0 0.003165 236.09247 287.30380
281.0 0.00356 236.08600 281.05176
263.0 0.00380 236.07959 273.32928
257.0 0.00389 236.07327 266.33768
266.0 0.00376 236.06706 260.95609
271.0 0.00369 236.06094 257.49884
248.0 0.00403 236.05484 255.62593
253.0 0.00395 236.04884 255.57552
257.0 0.00389 236.04291 256.82117
263.0 0.00380 236.03705 259.24988
267.0 0.00375 236.03125 262.44458
266.0 0.00376 236.02559 265.99072
258.0 0.00388 236.01997 268.57571
275.0 0.00364 236.01442 268.92044
258.0 0.00388 236.00896 267.70294
272.0 0.00368 236.00354 266.44659
283.0 0.00353 235.99823 266.20718
295.0 0.003390 235.99303 267.75266
281.0 0.00356 235.98787 271.38077
271.0 0.00369 235.98274 279.04865
281.0 0.00356 235.97771 292.05106
316.0 0.003165 235.97276 312.62805
352.0 0.002841 235.96788 342.52884
388.0 0.002577 235.96307 382.85754
413.0 0.002421 235.95833 430.57596
460.0 0.002174 235.95370 476.92261
465.0 0.002151 235.94911 510.77209
479.0 0.002088 235.94460 523.75421
514.0 0.001946 235.94016 508.70953
481.0 0.002079 235.93576 469.28970
405.0 0.002469 235.93146 422.34808
361.0 0.002770 235.92725 382.77148
350.0 0.002857 235.92311 356.32684
332.0 0.003012 235.91899 343.45810
335.0 0.002985 235.91501 341.30255
344.0 0.002907 235.91103 347.04767
375.0 0.002667 235.90714 358.68124
349.0 0.002865 235.90332 374.14767
336.0 0.002976 235.89960 388.67438
360.0 0.002778 235.89589 397.27277
374.0 0.002674 235.89230 395.79761
386.0 0.002591 235.88875 381.50079
340.0 0.002941 235.88525 358.71069
296.0 0.003378 235.88185 335.77084
281.0 0.00356 235.87854 317.69958
281.0 0.00356 235.87526 305.30408
298.0 0.003356 235.87202 296.74380
281.0 0.00356 235.86894 290.43506
281.0 0.00356 235.86583 285.03629
273.0 0.00366 235.86284 281.20102
308.0 0.003247 235.85991 280.34656
288.0 0.003472 235.85703 283.20477
312.0 0.003205 235.85420 290.96951
333.0 0.003003 235.85144 304.28125
344.0 0.002907 235.84872 322.81473
360.0 0.002778 235.84613 344.19586
376.0 0.002660 235.84357 362.51248
385.0 0.002597 235.84103 369.75800
372.0 0.002688 235.83862 363.99368
329.0 0.003040 235.83626 351.84116
303.0 0.003300 235.83395 340.55627
358.0 0.002793 235.83171 332.17709
350.0 0.002857 235.82954 326.00131
307.0 0.003257 235.82741 319.75635
330.0 0.003030 235.82536 315.65823
291.0 0.003436 235.82335 316.80051
325.0 0.003077 235.82140 325.02145
357.0 0.002801 235.81952 340.80444
357.0 0.002801 235.81770 362.39178
409.0 0.002445 235.81598 385.12512
410.0 0.002439 235.81424 403.39285
405.0 0.002469 235.81264 415.21933
433.0 0.002309 235.81105 421.33649
420.0 0.002381 235.80948 421.81985
419.0 0.002387 235.80803 415.82056
382.0 0.002618 235.80663 405.69733
358.0 0.002793 235.80530 396.81427
377.0 0.002653 235.80399 394.03485
394.0 0.002538 235.80276 397.08835
407.0 0.002457 235.80156 400.80130
388.0 0.002577 235.80051 401.26929
388.0 0.002577 235.79939 401.15198
391.0 0.002558 235.79837 405.44382
408.0 0.002451 235.79744 417.05182
423.0 0.002364 235.79652 436.48526
445.0 0.002247 235.79568 460.30838
484.0 0.002066 235.79491 481.01788
471.0 0.002123 235.79419 487.89212
467.0 0.002141 235.79349 473.95264
464.0 0.002155 235.79289 445.40494
440.0 0.002273 235.79231 415.09900
390.0 0.002564 235.79181 389.97369
381.0 0.002625 235.79135 370.15115
353.0 0.002833 235.79092 354.66095
331.0 0.003021 235.79057 344.41113
352.0 0.002841 235.79028 341.16983
350.0 0.002857 235.79001 346.68002
340.0 0.002941 235.78984 360.71512
353.0 0.002833 235.78969 382.50589
390.0 0.002564 235.78955 407.95978
377.0 0.002653 235.78954 429.08405
388.0 0.002577 235.78954 435.93130
400.0 0.002500 235.78957 423.90231
412.0 0.002427 235.78967 398.23108
383.0 0.002611 235.78986 369.47626
333.0 0.003003 235.79004 345.37445
328.0 0.003049 235.79034 329.42017
315.0 0.003175 235.79059 322.50647
297.0 0.003367 235.79097 325.00891
309.0 0.003236 235.79138 338.38202
356.0 0.002809 235.79182 362.40216
386.0 0.002591 235.79228 398.19101
439.0 0.002278 235.79286 443.85135
398.0 0.002513 235.79346 492.25394
486.0 0.002058 235.79404 530.54358
497.0 0.002012 235.79475 548.44934
503.0 0.001988 235.79547 545.09583
515.0 0.001942 235.79628 522.29791
427.0 0.002342 235.79706 484.73438
398.0 0.002513 235.79800 444.49075
379.0 0.002639 235.79889 413.41977
404.0 0.002475 235.79980 398.33420
394.0 0.002538 235.80084 403.26874
433.0 0.002309 235.80190 430.37381
499.0 0.002004 235.80296 481.76825
548.0 0.001825 235.80411 555.67365
615.0 0.001626 235.80530 643.40533
696.0 0.001437 235.80650 725.24518
737.0 0.001357 235.80780 771.85754
721.0 0.001387 235.80910 759.69067
678.0 0.001475 235.81044 695.10095
585.0 0.001709 235.81187 606.47308
498.0 0.002008 235.81325 521.13599
468.0 0.002137 235.81477 453.73416
402.0 0.002488 235.81625 408.93497
387.0 0.002584 235.81784 386.36377
367.0 0.002725 235.81944 383.94000
386.0 0.002591 235.82108 399.95578
387.0 0.002584 235.82275 432.58371
447.0 0.002237 235.82452 477.62119
518.0 0.001931 235.82626 526.45416
533.0 0.001876 235.82802 563.13538
561.0 0.001783 235.82993 570.42102
519.0 0.001927 235.83177 545.84998
453.0 0.002208 235.83369 501.41974
424.0 0.002358 235.83565 452.80411
394.0 0.002538 235.83765 411.22162
384.0 0.002604 235.83966 381.45493
368.0 0.002717 235.84175 362.52734
355.0 0.002817 235.84384 351.06726
346.0 0.002890 235.84601 344.76886
323.0 0.003096 235.84814 343.81702
330.0 0.003030 235.85033 349.35394
387.0 0.002584 235.85266 361.93405
419.0 0.002387 235.85493 382.17654
418.0 0.002392 235.85727 410.68835
435.0 0.002299 235.85965 447.92679
480.0 0.002083 235.86198 495.59286
528.0 0.001894 235.86447 555.52844
601.0 0.001664 235.86688 624.45313
652.0 0.001534 235.86942 688.40216
721.0 0.001387 235.87193 728.37592
740.0 0.001351 235.87453 731.75897
677.0 0.001477 235.87709 694.68573
640.0 0.001563 235.87976 626.51227
543.0 0.001842 235.88240 550.22308
456.0 0.002193 235.88509 484.72885
438.0 0.002283 235.88782 439.03510
391.0 0.002558 235.89059 415.97690
367.0 0.002725 235.89336 416.16885
414.0 0.002415 235.89619 439.47723
453.0 0.002208 235.89906 485.52847
524.0 0.001908 235.90196 551.51636
611.0 0.001637 235.90488 628.94806
672.0 0.001488 235.90782 703.14111
763.0 0.001311 235.91080 754.78082
776.0 0.001289 235.91382 761.47491
722.0 0.001385 235.91687 713.94580
678.0 0.001475 235.91991 632.71442
592.0 0.001689 235.92300 546.51984
482.0 0.002075 235.92615 471.87534
379.0 0.002639 235.92928 415.36649
398.0 0.002513 235.93248 378.00192
362.0 0.002762 235.93567 357.58173
349.0 0.002865 235.93892 351.20663
350.0 0.002857 235.94217 357.20776
373.0 0.002681 235.94547 372.97375
365.0 0.002740 235.94881 395.92703
405.0 0.002469 235.95215 420.63699
437.0 0.002288 235.95552 438.26291
444.0 0.002252 235.95889 441.96054
449.0 0.002227 235.96231 436.61133
443.0 0.002257 235.96581 432.85764
441.0 0.002268 235.96927 437.32629
462.0 0.002165 235.97276 453.61163
490.0 0.002041 235.97632 477.56342
502.0 0.001992 235.97983 499.20172
510.0 0.001961 235.98340 503.07141
504.0 0.001984 235.98700 485.74091
474.0 0.002110 235.99062 459.67908
435.0 0.002299 235.99425 439.34009
413.0 0.002421 235.99791 433.33020
434.0 0.002304 236.00160 442.38815
457.0 0.002188 236.00536 462.98581
491.0 0.002037 236.00908 484.81155
486.0 0.002058 236.01280 495.17737
468.0 0.002137 236.01657 487.89514
466.0 0.002146 236.02042 472.72397
456.0 0.002193 236.02422 459.05762
443.0 0.002257 236.02806 449.51157
402.0 0.002488 236.03194 438.93857
393.0 0.002545 236.03580 424.10757
362.0 0.002762 236.03973 409.17465
346.0 0.002890 236.04364 401.86551
375.0 0.002667 236.04761 407.54971
417.0 0.002398 236.05157 428.28506
444.0 0.002252 236.05556 461.39142
501.0 0.001996 236.05956 499.38129
555.0 0.001802 236.06358 527.34698
573.0 0.001745 236.06760 529.66547
500.0 0.002000 236.07166 505.17151
459.0 0.002179 236.07574 469.44403
404.0 0.002475 236.07982 437.27902
347.0 0.002882 236.08395 418.58392
401.0 0.002494 236.08806 417.79602
405.0 0.002469 236.09221 431.54327
437.0 0.002288 236.09641 456.10440
464.0 0.002155 236.10054 480.78189
557.0 0.001795 236.10478 492.91125
524.0 0.001908 236.10898 486.32486
447.0 0.002237 236.11319 469.56177
510.0 0.001961 236.11745 450.52808
423.0 0.002364 236.12173 430.84357
416.0 0.002404 236.12596 408.82028
399.0 0.002506 236.13029 386.40906
361.0 0.002770 236.13457 368.67047
359.0 0.002786 236.13889 358.25870
353.0 0.002833 236.14323 356.81049
378.0 0.002646 236.14752 364.58447
409.0 0.002445 236.15189 378.77609
417.0 0.002398 236.15628 396.67947
416.0 0.002404 236.16064 412.06418
449.0 0.002227 236.16505 420.35114
421.0 0.002375 236.16945 422.16547
440.0 0.002273 236.17389 423.77921
429.0 0.002331 236.17833 426.15781
427.0 0.002342 236.18279 428.81897
449.0 0.002227 236.18721 433.38629
464.0 0.002155 236.19168 444.54041
471.0 0.002123 236.19618 466.59570
534.0 0.001873 236.20064 501.90289
566.0 0.001767 236.20515 550.69958
600.0 0.001667 236.20967 611.67401
697.0 0.001435 236.21419 686.90216
819.0 0.001221 236.21875 786.13806
946.0 0.001057 236.22325 918.74274
1108.0 0.000903 236.22781 1081.65710
1286.0 0.000778 236.23235 1246.84131
1426.0 0.000701 236.23692 1354.46423
1414.0 0.000707 236.24150 1345.68762
1255.0 0.000797 236.24611 1227.15039
1064.0 0.000940 236.25067 1063.87964
884.0 0.001131 236.25531 915.47668
775.0 0.001290 236.25990 812.15973
766.0 0.001305 236.26450 763.51776
775.0 0.001290 236.26913 764.94299
801.0 0.001248 236.27374 804.12970
841.0 0.001189 236.27838 863.05682
909.0 0.001100 236.28304 923.01385
930.0 0.001075 236.28766 967.11316
985.0 0.001015 236.29236 995.21942
1012.0 0.000988 236.29701 1005.19604
961.0 0.001041 236.30167 978.27936
873.0 0.001145 236.30635 903.23572
757.0 0.001321 236.31105 799.05963
649.0 0.001541 236.31570 697.01300
592.0 0.001689 236.32039 616.82440
519.0 0.001927 236.32509 565.61334
487.0 0.002053 236.32976 543.63013
498.0 0.002008 236.33450 546.96478
529.0 0.001890 236.33919 569.80280
560.0 0.001786 236.34389 603.74396
593.0 0.001686 236.34859 642.07550
682.0 0.001466 236.35329 685.67572
757.0 0.001321 236.35802 748.46332
855.0 0.001170 236.36275 844.71204
975.0 0.001026 236.36746 978.83838
1203.0 0.000831 236.37216 1138.72986
1420.0 0.000704 236.37692 1295.70190
1482.0 0.000675 236.38164 1421.67102
1561.0 0.000641 236.38635 1494.25562
1537.0 0.000651 236.39111 1483.34094
1375.0 0.000727 236.39583 1373.51233
1077.0 0.000929 236.40056 1199.84521
931.0 0.001074 236.40529 1020.96704
847.0 0.001181 236.41005 874.74048
679.0 0.001473 236.41476 774.61169
672.0 0.001488 236.41951 718.33319
662.0 0.001511 236.42419 701.67499
705.0 0.001418 236.42897 722.13556
755.0 0.001325 236.43369 775.76208
884.0 0.001131 236.43842 851.52466
996.0 0.001004 236.44315 933.72418
998.0 0.001002 236.44788 1009.86243
1079.0 0.000927 236.45259 1065.67065
1136.0 0.000880 236.45734 1081.07129
1053.0 0.000950 236.46205 1043.57263
968.0 0.001033 236.46678 963.01117
863.0 0.001159 236.47148 862.69543
736.0 0.001359 236.47624 764.38135
656.0 0.001524 236.48091 677.51160
568.0 0.001761 236.48563 601.80676
509.0 0.001965 236.49037 536.69208
468.0 0.002137 236.49506 483.37543
414.0 0.002415 236.49973 444.56363
412.0 0.002427 236.50447 420.43594
415.0 0.002410 236.50914 409.96341
402.0 0.002488 236.51382 411.46289
437.0 0.002288 236.51852 421.96240
476.0 0.002101 236.52316 437.13443
466.0 0.002146 236.52785 450.62646
437.0 0.002288 236.53253 456.27628
455.0 0.002198 236.53717 454.24304
459.0 0.002179 236.54189 449.44461
452.0 0.002212 236.54652 446.27170
492.0 0.002033 236.55115 447.28146
505.0 0.001980 236.55579 458.98642
539.0 0.001855 236.56041 485.32648
595.0 0.001681 236.56505 531.38470
680.0 0.001471 236.56970 599.01868
690.0 0.001449 236.57428 686.72961
775.0 0.001290 236.57892 789.37079
833.0 0.001200 236.58353 893.19305
930.0 0.001075 236.58807 972.71185
979.0 0.001021 236.59268 1000.21161
914.0 0.001094 236.59726 960.63342
825.0 0.001212 236.60182 865.72479
728.0 0.001374 236.60638 748.01190
584.0 0.001712 236.61093 638.61945
532.0 0.001880 236.61549 553.20459
447.0 0.002237 236.62000 497.54056
479.0 0.002088 236.62454 470.33224
421.0 0.002375 236.62907 468.17587
487.0 0.002053 236.63359 486.53271
516.0 0.001938 236.63809 520.60120
514.0 0.001946 236.64255 564.88446
514.0 0.001946 236.64708 610.58594
588.0 0.001701 236.65152 643.81879
588.0 0.001701 236.65596 651.14099
641.0 0.001560 236.66043 626.09570
569.0 0.001757 236.66487 575.82678
495.0 0.002020 236.66928 516.93848
429.0 0.002331 236.67372 464.04651
393.0 0.002545 236.67812 424.42975
418.0 0.002392 236.68253 400.11404
404.0 0.002475 236.68687 389.61963
379.0 0.002639 236.69125 391.68457
390.0 0.002564 236.69562 402.69675
451.0 0.002217 236.69995 416.60580
455.0 0.002198 236.70428 431.59763
459.0 0.002179 236.70865 445.54712
486.0 0.002058 236.71295 460.51630
495.0 0.002020 236.71721 476.20566
477.0 0.002096 236.72150 488.30191
485.0 0.002062 236.72578 494.12299
502.0 0.001992 236.73001 499.01224
502.0 0.001992 236.73430 510.96509
552.0 0.001812 236.73851 533.47046
624.0 0.001603 236.74274 562.37823
635.0 0.001575 236.74693 587.21570
634.0 0.001577 236.75110 596.17700
615.0 0.001626 236.75528 590.96460
618.0 0.001618 236.75945 584.15692
624.0 0.001603 236.76361 589.61945
661.0 0.001513 236.76773 615.88660
700.0 0.001429 236.77184 666.61572
753.0 0.001328 236.77592 737.92395
840.0 0.001190 236.78000 815.03235
914.0 0.001094 236.78407 871.97223
913.0 0.001095 236.78812 884.02429
895.0 0.001117 236.79218 850.07874
830.0 0.001205 236.79619 793.13672
745.0 0.001342 236.80019 736.66492
712.0 0.001404 236.80417 689.17578
669.0 0.001495 236.80818 651.34973
672.0 0.001488 236.81209 627.13849
663.0 0.001508 236.81609 624.85883
701.0 0.001427 236.81996 650.83313
741.0 0.001350 236.82390 707.72198
785.0 0.001274 236.82776 791.57074
845.0 0.001183 236.83160 887.46277
912.0 0.001096 236.83548 964.52924
998.0 0.001002 236.83934 986.15173
861.0 0.001161 236.84315 938.60388
820.0 0.001220 236.84694 842.71112
718.0 0.001393 236.85074 732.91388
616.0 0.001623 236.85449 634.12219
558.0 0.001792 236.85820 558.24701
502.0 0.001992 236.86195 507.29874
476.0 0.002101 236.86565 480.20099
477.0 0.002096 236.86934 473.80444
514.0 0.001946 236.87299 484.63290
482.0 0.002075 236.87666 508.80948
555.0 0.001802 236.88029 538.66235
544.0 0.001838 236.88388 564.87793
509.0 0.001965 236.88748 577.55243
511.0 0.001957 236.89108 567.85547
464.0 0.002155 236.89461 535.87158
480.0 0.002083 236.89816 494.13138
398.0 0.002513 236.90164 454.82474
448.0 0.002232 236.90515 423.20132
377.0 0.002653 236.90862 399.24261
389.0 0.002571 236.91203 380.72223
353.0 0.002833 236.91548 366.03046
374.0 0.002674 236.91893 355.98236
372.0 0.002688 236.92229 350.22693
374.0 0.002674 236.92564 348.80566
359.0 0.002786 236.92900 349.42270
360.0 0.002778 236.93231 349.63443
333.0 0.003003 236.93561 348.86594
370.0 0.002703 236.93890 349.04257
352.0 0.002841 236.94215 352.22168
375.0 0.002667 236.94542 359.70398
403.0 0.002481 236.94859 370.16324
381.0 0.002625 236.95177 379.07794
376.0 0.002660 236.95497 380.19452
375.0 0.002667 236.95810 371.29395
336.0 0.002976 236.96121 355.10907
323.0 0.003096 236.96431 337.44363
329.0 0.003040 236.96738 322.16757
332.0 0.003012 236.97047 310.85999
322.0 0.003106 236.97346 304.44522
318.0 0.003145 236.97647 302.05890
331.0 0.003021 236.97949 302.97226
333.0 0.003003 236.98245 306.71063
328.0 0.003049 236.98537 313.55917
338.0 0.002959 236.98831 323.62054
331.0 0.003021 236.99117 337.56787
369.0 0.002710 236.99406 353.57645
403.0 0.002481 236.99690 369.84161
403.0 0.002481 236.99968 382.92499
437.0 0.002288 237.00252 394.82513
419.0 0.002387 237.00525 407.09225
443.0 0.002257 237.00798 421.52673
438.0 0.002283 237.01077 439.66650
451.0 0.002217 237.01338 461.15598
492.0 0.002033 237.01610 480.15259
507.0 0.001972 237.01874 488.14374
468.0 0.002137 237.02135 478.92203
479.0 0.002088 237.02393 457.71906
464.0 0.002155 237.02650 433.47113
402.0 0.002488 237.02905 412.00534
385.0 0.002597 237.03159 395.55841
397.0 0.002519 237.03409 383.69620
405.0 0.002469 237.03653 376.42560
400.0 0.002500 237.03903 373.36142
359.0 0.002786 237.04140 374.32520
395.0 0.002532 237.04378 379.57834
432.0 0.002315 237.04617 389.31314
406.0 0.002463 237.04846 405.75351
462.0 0.002165 237.05078 426.46448
472.0 0.002119 237.05310 447.62250
497.0 0.002012 237.05534 463.94067
473.0 0.002114 237.05756 473.86124
527.0 0.001898 237.05977 478.51770
495.0 0.002020 237.06192 480.33942
485.0 0.002062 237.06410 484.65378
508.0 0.001969 237.06625 496.23221
508.0 0.001969 237.06833 517.48279
562.0 0.001779 237.07042 544.72510
590.0 0.001695 237.07240 569.47046
597.0 0.001675 237.07440 584.48743
618.0 0.001618 237.07640 584.80518
588.0 0.001701 237.07837 569.01953
574.0 0.001742 237.08031 540.31152
480.0 0.002083 237.08221 507.63696
474.0 0.002110 237.08408 478.32120
462.0 0.002165 237.08592 456.36887
437.0 0.002288 237.08771 443.31140
420.0 0.002381 237.08955 439.18060
464.0 0.002155 237.09131 444.06168
498.0 0.002008 237.09303 458.16220
524.0 0.001908 237.09474 479.36685
503.0 0.001988 237.09641 501.62106
513.0 0.001949 237.09805 517.06610
514.0 0.001946 237.09970 522.10950
523.0 0.001912 237.10124 518.28430
500.0 0.002000 237.10283 509.16132
493.0 0.002028 237.10432 498.15646
503.0 0.001988 237.10590 490.83060
517.0 0.001934 237.10732 489.24023
518.0 0.001931 237.10880 494.18286
542.0 0.001845 237.11021 500.98135
557.0 0.001795 237.11159 502.57239
517.0 0.001934 237.11293 493.98666
513.0 0.001949 237.11426 479.32901
531.0 0.001883 237.11557 465.80103
506.0 0.001976 237.11687 458.66730
516.0 0.001938 237.11807 460.17740
530.0 0.001887 237.11928 472.82034
571.0 0.001751 237.12045 501.11398
597.0 0.001675 237.12163 549.59619
637.0 0.001570 237.12271 619.98853
694.0 0.001441 237.12386 708.35535
846.0 0.001182 237.12489 802.54871
891.0 0.001122 237.12592 877.41687
906.0 0.001104 237.12691 909.09180
918.0 0.001089 237.12788 893.29272
852.0 0.001174 237.12883 844.54340
797.0 0.001255 237.12975 781.21289
727.0 0.001376 237.13062 719.00708
639.0 0.001565 237.13148 668.08783
661.0 0.001513 237.13229 635.25500
658.0 0.001520 237.13307 626.54871
651.0 0.001536 237.13382 646.70233
694.0 0.001441 237.13452 697.55505
759.0 0.001318 237.13522 773.63745
866.0 0.001155 237.13591 859.68549
904.0 0.001106 237.13651 929.41534
955.0 0.001047 237.13713 956.33380
922.0 0.001085 237.13773 931.23877
786.0 0.001272 237.13824 865.63104
710.0 0.001408 237.13873 781.24677
622.0 0.001608 237.13921 697.38641
588.0 0.001701 237.13966 625.23840
566.0 0.001767 237.14008 568.49207
501.0 0.001996 237.14049 525.72919
535.0 0.001869 237.14082 495.32922
486.0 0.002058 237.14116 477.51923
454.0 0.002203 237.14146 473.73721
467.0 0.002141 237.14169 482.12683
471.0 0.002123 237.14192 498.47604
487.0 0.002053 237.14212 514.17102
487.0 0.002053 237.14227 517.37103
480.0 0.002083 237.14241 501.53638
463.0 0.002160 237.14249 471.49408
412.0 0.002427 237.14255 436.95926
377.0 0.002653 237.14264 404.97098
350.0 0.002857 237.14264 379.49094
354.0 0.002825 237.14261 360.69843
328.0 0.003049 237.14252 348.76752
327.0 0.003058 237.14246 340.73407
333.0 0.003003 237.14233 335.93341
312.0 0.003205 237.14218 334.22336
314.0 0.003185 237.14197 336.49680
339.0 0.002950 237.14175 343.41055
364.0 0.002747 237.14148 356.67969
390.0 0.002564 237.14122 378.00339
404.0 0.002475 237.14093 409.43484
450.0 0.002222 237.14056 453.02240
494.0 0.002024 237.14020 509.36871
552.0 0.001812 237.13982 577.52112
645.0 0.001550 237.13934 653.97998
746.0 0.001340 237.13887 734.29077
856.0 0.001168 237.13838 810.74884
937.0 0.001067 237.13780 865.84076
871.0 0.001148 237.13725 879.02667
821.0 0.001218 237.13664 846.29602
807.0 0.001239 237.13602 785.60687
711.0 0.001406 237.13533 719.12994
656.0 0.001524 237.13461 657.70459
634.0 0.001577 237.13385 604.23260
531.0 0.001883 237.13312 559.53601
510.0 0.001961 237.13232 526.51453
486.0 0.002058 237.13148 508.52478
470.0 0.002128 237.13062 506.85690
516.0 0.001938 237.12971 520.16180
536.0 0.001866 237.12877 545.01807
578.0 0.001730 237.12781 577.42096
605.0 0.001653 237.12682 611.66852
664.0 0.001506 237.12581 637.47375
668.0 0.001497 237.12474 644.86664
647.0 0.001546 237.12364 631.13983
627.0 0.001595 237.12253 605.48163
625.0 0.001600 237.12137 573.50586
531.0 0.001883 237.12019 536.40302
512.0 0.001953 237.11897 496.47302
448.0 0.002232 237.11771 457.38312
471.0 0.002123 237.11639 423.22443
374.0 0.002674 237.11511 395.76346
370.0 0.002703 237.11375 374.91199
388.0 0.002577 237.11232 358.91501
392.0 0.002551 237.11093 346.59894
390.0 0.002564 237.10947 337.73758
371.0 0.002695 237.10800 332.47253
369.0 0.002710 237.10645 330.20404
349.0 0.002865 237.10493 332.62003
379.0 0.002639 237.10336 338.50354
391.0 0.002558 237.10173 347.94907
406.0 0.002463 237.10007 359.99265
409.0 0.002445 237.09839 373.87817
410.0 0.002439 237.09666 391.27133
447.0 0.002237 237.09494 413.32782
463.0 0.002160 237.09314 438.86093
499.0 0.002004 237.09132 462.82977
493.0 0.002028 237.08952 476.27774
472.0 0.002119 237.08765 472.05408
452.0 0.002212 237.08572 451.67426
418.0 0.002392 237.08377 424.14496
394.0 0.002538 237.08180 398.53320
373.0 0.002681 237.07982 379.64169
382.0 0.002618 237.07777 371.33270
393.0 0.002545 237.07570 374.34174
402.0 0.002488 237.07359 388.26602
433.0 0.002309 237.07143 411.23672
468.0 0.002137 237.06926 438.91364
493.0 0.002028 237.06712 464.12708
522.0 0.001916 237.06487 478.78278
510.0 0.001961 237.06261 479.96365
490.0 0.002041 237.06030 470.64478
485.0 0.002062 237.05794 453.97147
446.0 0.002242 237.05557 431.35706
403.0 0.002481 237.05325 405.65179
382.0 0.002618 237.05080 381.60590
352.0 0.002841 237.04829 363.15909
369.0 0.002710 237.04581 352.67667
373.0 0.002681 237.04329 350.86316
358.0 0.002793 237.04073 358.10297
361.0 0.002770 237.03813 373.65598
405.0 0.002469 237.03554 396.28635
458.0 0.002183 237.03287 422.51718
498.0 0.002008 237.03020 446.93564
509.0 0.001965 237.02747 462.48068
550.0 0.001818 237.02475 462.38342
495.0 0.002020 237.02194 447.90717
437.0 0.002288 237.01912 424.39111
419.0 0.002387 237.01628 399.90427
392.0 0.002551 237.01340 380.42648
403.0 0.002481 237.01051 369.60962
381.0 0.002625 237.00758 369.71619
380.0 0.002632 237.00456 382.04688
405.0 0.002469 237.00159 407.67120
435.0 0.002299 236.99855 446.93481
515.0 0.001942 236.99551 498.43738
624.0 0.001603 236.99240 557.91882
626.0 0.001597 236.98924 616.09503
695.0 0.001439 236.98607 662.10834
676.0 0.001479 236.98285 687.03162
707.0 0.001414 236.97966 685.58234
679.0 0.001473 236.97641 654.10809
651.0 0.001536 236.97311 600.58875
568.0 0.001761 236.96983 539.90247
469.0 0.002132 236.96642 485.66785
440.0 0.002273 236.96309 444.34631
406.0 0.002463 236.95967 419.05704
391.0 0.002558 236.95625 410.66904
423.0 0.002364 236.95276 419.23749
482.0 0.002075 236.94925 445.15234
532.0 0.001880 236.94572 488.62415
612.0 0.001634 236.94215 547.72748
648.0 0.001543 236.93855 617.96509
684.0 0.001462 236.93492 691.08893
755.0 0.001325 236.93126 755.42883
824.0 0.001214 236.92758 797.43896
850.0 0.001176 236.92386 805.47571
808.0 0.001238 236.92007 775.35742
703.0 0.001422 236.91632 713.04834
590.0 0.001695 236.91249 633.85162
518.0 0.001931 236.90865 554.63757
484.0 0.002066 236.90475 486.48300
416.0 0.002404 236.90085 434.14325
379.0 0.002639 236.89691 398.29492
377.0 0.002653 236.89296 377.36343
367.0 0.002725 236.88899 370.26694
377.0 0.002653 236.88492 374.91803
396.0 0.002525 236.88087 389.47263
440.0 0.002273 236.87682 411.08322
449.0 0.002227 236.87268 436.00375
475.0 0.002105 236.86855 458.39999
470.0 0.002128 236.86436 472.31876
480.0 0.002083 236.86018 473.45529
481.0 0.002079 236.85594 460.68738
433.0 0.002309 236.85170 437.62094
400.0 0.002500 236.84740 412.05447
381.0 0.002625 236.84305 390.85999
367.0 0.002725 236.83875 378.21368
379.0 0.002639 236.83432 375.74988
417.0 0.002398 236.82993 383.27042
406.0 0.002463 236.82549 398.74908
422.0 0.002370 236.82101 417.98935
465.0 0.002151 236.81651 433.89368
446.0 0.002242 236.81198 438.51486
449.0 0.002227 236.80742 428.17636
382.0 0.002618 236.80283 407.88980
352.0 0.002841 236.79823 384.22244
337.0 0.002967 236.79361 362.89499
291.0 0.003436 236.78891 346.24420
313.0 0.003195 236.78419 334.92545
295.0 0.003390 236.77950 328.56033
328.0 0.003049 236.77477 326.21234
324.0 0.003086 236.76996 326.98950
304.0 0.003289 236.76518 329.85516
349.0 0.002865 236.76035 334.98093
313.0 0.003195 236.75543 342.32217
330.0 0.003030 236.75056 351.85394
373.0 0.002681 236.74561 361.88080
345.0 0.002899 236.74068 369.31833
350.0 0.002857 236.73569 372.08496
353.0 0.002833 236.73071 371.65268
370.0 0.002703 236.72566 372.17743
349.0 0.002865 236.72060 376.74594
405.0 0.002469 236.71550 385.97134
434.0 0.002304 236.71040 398.66821
458.0 0.002183 236.70529 409.94244
461.0 0.002169 236.70010 413.80591
451.0 0.002217 236.69489 406.19852
393.0 0.002545 236.68964 389.81375
348.0 0.002874 236.68442 369.70883
359.0 0.002786 236.67917 350.66339
293.0 0.003413 236.67383 335.17084
293.0 0.003413 236.66853 324.61313
305.0 0.003279 236.66319 319.30353
307.0 0.003257 236.65776 319.09109
315.0 0.003175 236.65236 323.72540
345.0 0.002899 236.64693 333.13742
372.0 0.002688 236.64149 347.68900
413.0 0.002421 236.63600 367.96243
434.0 0.002304 236.63049 394.47028
460.0 0.002174 236.62497 427.36710
489.0 0.002045 236.61938 464.72336
538.0 0.001859 236.61383 503.11777
617.0 0.001621 236.60820 541.11615
665.0 0.001504 236.60257 576.85687
697.0 0.001435 236.59691 609.72424
699.0 0.001431 236.59120 639.29297
710.0 0.001408 236.58548 663.45856
710.0 0.001408 236.57976 678.18842
691.0 0.001447 236.57402 679.76373
668.0 0.001497 236.56819 667.65631
644.0 0.001553 236.56241 643.16913
633.0 0.001580 236.55656 607.41333
582.0 0.001718 236.55069 564.11182
523.0 0.001912 236.54478 521.15283
487.0 0.002053 236.53889 486.33673
458.0 0.002183 236.53297 463.12045
426.0 0.002347 236.52704 452.15631
445.0 0.002247 236.52106 451.89383
466.0 0.002146 236.51503 459.34290
508.0 0.001969 236.50899 472.86176
518.0 0.001931 236.50294 490.71423
548.0 0.001825 236.49689 511.98798
558.0 0.001792 236.49080 535.43158
570.0 0.001754 236.48465 559.11127
622.0 0.001608 236.47853 581.49512
594.0 0.001684 236.47238 601.47992
673.0 0.001486 236.46620 615.92627
629.0 0.001590 236.45992 618.85046
606.0 0.001650 236.45375 605.38373
588.0 0.001701 236.44749 577.43292
521.0 0.001919 236.44121 543.16290
498.0 0.002008 236.43486 510.62439
462.0 0.002165 236.42856 483.21539
404.0 0.002475 236.42224 459.74072
422.0 0.002370 236.41588 438.55444
381.0 0.002625 236.40952 419.64420
353.0 0.002833 236.40306 405.82974
361.0 0.002770 236.39664 400.07379
383.0 0.002611 236.39017 404.78659
439.0 0.002278 236.38370 421.57852
462.0 0.002165 236.37721 451.31262
515.0 0.001942 236.37071 493.27136
537.0 0.001862 236.36421 544.41016
686.0 0.001458 236.35760 597.77454
718.0 0.001393 236.35107 644.08264
692.0 0.001445 236.34444 673.10754
709.0 0.001410 236.33784 678.92456
677.0 0.001477 236.33118 665.49152
639.0 0.001565 236.32454 643.99298
581.0 0.001721 236.31789 623.88013
594.0 0.001684 236.31119 608.92542
600.0 0.001667 236.30443 599.69989
599.0 0.001669 236.29770 595.46490
580.0 0.001724 236.29097 594.47894
591.0 0.001692 236.28418 591.87500
567.0 0.001764 236.27740 585.86554
545.0 0.001835 236.27060 578.61151
565.0 0.001770 236.26375 575.04980
581.0 0.001721 236.25688 579.02441
622.0 0.001608 236.25003 590.11731
659.0 0.001517 236.24315 604.48938
644.0 0.001553 236.23625 613.26862
615.0 0.001626 236.22934 607.34570
588.0 0.001701 236.22240 585.15057
553.0 0.001808 236.21545 554.08008
502.0 0.001992 236.20844 523.09406
460.0 0.002174 236.20149 497.34415
471.0 0.002123 236.19446 477.93622
474.0 0.002110 236.18742 463.23532
449.0 0.002227 236.18039 451.65231
431.0 0.002320 236.17332 439.86902
398.0 0.002513 236.16628 426.88571
400.0 0.002500 236.15918 413.25763
405.0 0.002469 236.15204 401.10477
394.0 0.002538 236.14493 391.63400
381.0 0.002625 236.13782 385.18304
397.0 0.002519 236.13057 381.37558
392.0 0.002551 236.12344 378.42755
442.0 0.002262 236.11629 373.74142
373.0 0.002681 236.10905 365.78885
377.0 0.002653 236.10187 355.15753
349.0 0.002865 236.09457 343.21234
333.0 0.003003 236.08734 330.75952
313.0 0.003195 236.08005 318.80246
300.0 0.003333 236.07281 308.26328
298.0 0.003356 236.06546 299.53070
302.0 0.003311 236.05818 293.05569
295.0 0.003390 236.05084 289.24802
293.0 0.003413 236.04349 287.77335
299.0 0.003344 236.03618 288.54419
299.0 0.003344 236.02876 291.37097
328.0 0.003049 236.02141 295.60388
324.0 0.003086 236.01401 300.51028
317.0 0.003155 236.00659 306.19391
359.0 0.002786 235.99918 311.54114
296.0 0.003378 235.99174 315.41492
284.0 0.00352 235.98427 316.12189
325.0 0.003077 235.97684 312.64429
329.0 0.003040 235.96935 305.83289
271.0 0.00369 235.96187 297.35809
294.0 0.003401 235.95436 289.08398
319.0 0.003135 235.94684 282.11380
277.0 0.00361 235.93932 276.98083
297.0 0.003367 235.93181 273.84637
283.0 0.00353 235.92429 272.64832
291.0 0.003436 235.91666 272.77783
290.0 0.003448 235.90910 274.39612
307.0 0.003257 235.90150 277.12946
297.0 0.003367 235.89391 280.57013
297.0 0.003367 235.88632 284.49951
297.0 0.003367 235.87871 289.03757
308.0 0.003247 235.87111 293.51917
324.0 0.003086 235.86346 297.40497
297.0 0.003367 235.85580 300.29282
324.0 0.003086 235.84814 302.49911
334.0 0.002994 235.84047 304.41516
325.0 0.003077 235.83281 306.22037
339.0 0.002950 235.82515 307.79709
339.0 0.002950 235.81743 308.33325
300.0 0.003333 235.80972 308.09943
297.0 0.003367 235.80202 307.76331
316.0 0.003165 235.79430 308.68414
330.0 0.003030 235.78653 311.61508
345.0 0.002899 235.77882 317.29315
345.0 0.002899 235.77107 326.17520
354.0 0.002825 235.76334 338.58133
400.0 0.002500 235.75554 355.40189
398.0 0.002513 235.74776 377.56219
410.0 0.002439 235.73994 408.29886
465.0 0.002151 235.73216 449.78839
576.0 0.001736 235.72443 503.62595
619.0 0.001616 235.71658 568.72260
650.0 0.001538 235.70877 640.42529
706.0 0.001416 235.70096 708.07397
773.0 0.001294 235.69316 755.21942
789.0 0.001267 235.68530 769.61163
738.0 0.001355 235.67746 751.66913
680.0 0.001471 235.66965 714.72766
630.0 0.001587 235.66176 670.61261
558.0 0.001792 235.65392 625.74304
549.0 0.001821 235.64607 584.12317
545.0 0.001835 235.63818 550.81244
500.0 0.002000 235.63029 531.21277
510.0 0.001961 235.62242 529.34454
530.0 0.001887 235.61458 547.71063
611.0 0.001637 235.60669 587.12616
705.0 0.001418 235.59877 644.93555
814.0 0.001229 235.59087 714.84174
855.0 0.001170 235.58299 784.44812
838.0 0.001193 235.57507 837.44678
854.0 0.001171 235.56718 860.10388
857.0 0.001167 235.55925 847.95538
789.0 0.001267 235.55132 806.67383
730.0 0.001370 235.54341 748.66815
605.0 0.001653 235.53548 684.70746
540.0 0.001852 235.52754 620.88184
481.0 0.002079 235.51962 561.70593
437.0 0.002288 235.51170 511.22598
418.0 0.002392 235.50375 473.10532
442.0 0.002262 235.49583 449.17068
429.0 0.002331 235.48788 439.75317
451.0 0.002217 235.47995 443.69821
448.0 0.002232 235.47200 458.60446
514.0 0.001946 235.46407 480.43021
555.0 0.001802 235.45610 502.82983
551.0 0.001815 235.44817 517.77234
519.0 0.001927 235.44019 519.77277
499.0 0.002004 235.43227 508.87546
488.0 0.002049 235.42430 490.09625
466.0 0.002146 235.41638 469.19345
453.0 0.002208 235.40840 449.97220
416.0 0.002404 235.40045 434.59497
407.0 0.002457 235.39250 423.88562
437.0 0.002288 235.38455 417.86435
432.0 0.002315 235.37659 415.77744
432.0 0.002315 235.36865 417.14447
456.0 0.002193 235.36067 422.83929
465.0 0.002151 235.35275 434.14667
493.0 0.002028 235.34479 451.13327
516.0 0.001938 235.33685 471.58905
556.0 0.001799 235.32889 492.76700
546.0 0.001832 235.32098 512.12994
547.0 0.001828 235.31302 529.66083
565.0 0.001770 235.30508 544.82001
532.0 0.001880 235.29715 553.94232
508.0 0.001969 235.28920 552.73602
486.0 0.002058 235.28128 539.12659
481.0 0.002079 235.27336 515.30023
470.0 0.002128 235.26541 487.63440
424.0 0.002358 235.25751 462.48541
414.0 0.002415 235.24957 443.63998
413.0 0.002421 235.24167 432.70718
435.0 0.002299 235.23373 430.18301
449.0 0.002227 235.22585 435.90515
452.0 0.002212 235.21794 448.62903
462.0 0.002165 235.21002 466.21295
509.0 0.001965 235.20213 484.90106
517.0 0.001934 235.19423 500.34531
503.0 0.001988 235.18639 508.15021
506.0 0.001976 235.17851 506.72849
501.0 0.001996 235.17059 497.35690
469.0 0.002132 235.16275 481.57187
425.0 0.002353 235.15488 460.54929
420.0 0.002381 235.14700 436.01080
381.0 0.002625 235.13913 410.88882
343.0 0.002915 235.13130 388.71625
341.0 0.002933 235.12349 372.32666
363.0 0.002755 235.11565 362.80640
362.0 0.002762 235.10780 360.65427
403.0 0.002481 235.09998 365.53680
420.0 0.002381 235.09219 376.74863
401.0 0.002494 235.08437 393.46967
463.0 0.002160 235.07660 415.09406
462.0 0.002165 235.06877 439.24698
471.0 0.002123 235.06102 462.24792
512.0 0.001953 235.05324 478.44049
508.0 0.001969 235.04546 481.53848
477.0 0.002096 235.03770 470.43121
444.0 0.002252 235.02997 447.68198
378.0 0.002646 235.02223 419.94772
364.0 0.002747 235.01453 393.46472
348.0 0.002874 235.00676 372.01062
366.0 0.002732 234.99907 357.06046
353.0 0.002833 234.99136 348.84897
329.0 0.003040 234.98364 346.26495
323.0 0.003096 234.97598 347.72211
363.0 0.002755 234.96832 351.16211
392.0 0.002551 234.96068 355.64896
349.0 0.002865 234.95300 360.90472
340.0 0.002941 234.94537 368.32166
363.0 0.002755 234.93774 377.67664
405.0 0.002469 234.93015 388.95438
425.0 0.002353 234.92250 399.15991
404.0 0.002475 234.91496 406.30569
402.0 0.002488 234.90736 408.12964
387.0 0.002584 234.89978 404.83212
361.0 0.002770 234.89224 397.40582
381.0 0.002625 234.88469 387.87891
392.0 0.002551 234.87715 379.23926
375.0 0.002667 234.86964 374.40549
378.0 0.002646 234.86214 375.94614
380.0 0.002632 234.85461 385.36151
390.0 0.002564 234.84712 403.02371
426.0 0.002347 234.83972 428.60614
475.0 0.002105 234.83228 461.17014
502.0 0.001992 234.82483 498.28607
529.0 0.001890 234.81738 535.09949
586.0 0.001706 234.80997 562.97186
595.0 0.001681 234.80258 573.34821
564.0 0.001773 234.79521 563.08344
539.0 0.001855 234.78781 537.91016
477.0 0.002096 234.78047 507.62607
478.0 0.002092 234.77318 479.84604
435.0 0.002299 234.76584 459.30197
452.0 0.002212 234.75856 448.89020
443.0 0.002257 234.75127 450.81982
468.0 0.002137 234.74400 466.32111
513.0 0.001949 234.73676 495.44016
567.0 0.001764 234.72951 535.91138
628.0 0.001592 234.72229 582.93402
711.0 0.001406 234.71510 629.21704
698.0 0.001433 234.70790 666.69098
740.0 0.001351 234.70076 690.69360
678.0 0.001475 234.69359 699.59290
661.0 0.001513 234.68648 692.92383
646.0 0.001548 234.67934 669.73804
571.0 0.001751 234.67224 632.20190
568.0 0.001761 234.66518 585.93134
469.0 0.002132 234.65814 537.88721
463.0 0.002160 234.65106 492.86890
408.0 0.002451 234.64404 454.71225
420.0 0.002381 234.63705 426.30603
405.0 0.002469 234.63005 408.76187
398.0 0.002513 234.62312 401.87152
407.0 0.002457 234.61617 404.29419
423.0 0.002364 234.60927 413.67917
459.0 0.002179 234.60236 426.61691
509.0 0.001965 234.59546 438.83792
499.0 0.002004 234.58859 446.54022
466.0 0.002146 234.58179 448.27966
462.0 0.002165 234.57497 445.57657
434.0 0.002304 234.56818 440.46466
422.0 0.002370 234.56142 434.72546
436.0 0.002294 234.55466 430.32169
394.0 0.002538 234.54790 428.06561
410.0 0.002439 234.54121 428.84680
436.0 0.002294 234.53450 432.29855
427.0 0.002342 234.52782 437.44028
427.0 0.002342 234.52119 442.66830
425.0 0.002353 234.51457 446.91772
424.0 0.002358 234.50803 450.48886
432.0 0.002315 234.50139 454.13428
441.0 0.002268 234.49484 457.21329
461.0 0.002169 234.48833 457.01886
439.0 0.002278 234.48183 450.86209
406.0 0.002463 234.47536 439.44797
417.0 0.002398 234.46890 426.70630
440.0 0.002273 234.46248 417.60992
425.0 0.002353 234.45605 415.13303
448.0 0.002232 234.44968 420.86069
467.0 0.002141 234.44328 434.33981
483.0 0.002070 234.43703 453.33771
469.0 0.002132 234.43069 474.36221
474.0 0.002110 234.42444 494.06290
501.0 0.001996 234.41817 511.19305
541.0 0.001848 234.41196 526.12665
561.0 0.001783 234.40579 538.82202
569.0 0.001757 234.39958 547.52905
585.0 0.001709 234.39342 548.46997
576.0 0.001736 234.38730 538.62640
558.0 0.001792 234.38124 518.02570
516.0 0.001938 234.37517 490.04218
444.0 0.002252 234.36911 459.29388
416.0 0.002404 234.36311 430.62503
379.0 0.002639 234.35713 407.32138
370.0 0.002703 234.35115 391.31818
391.0 0.002558 234.34525 382.55750
344.0 0.002907 234.33934 380.07663
405.0 0.002469 234.33347 382.45212
381.0 0.002625 234.32765 387.60022
400.0 0.002500 234.32181 393.61136
410.0 0.002439 234.31606 399.64450
449.0 0.002227 234.31032 404.78290
403.0 0.002481 234.30455 408.22961
410.0 0.002439 234.29890 408.34070
397.0 0.002519 234.29323 403.55957
434.0 0.002304 234.28757 393.00983
378.0 0.002646 234.28201 377.72723
319.0 0.003135 234.27643 360.03082
340.0 0.002941 234.27089 342.00278
295.0 0.003390 234.26540 325.75638
284.0 0.00352 234.25989 312.43481
277.0 0.00361 234.25444 302.15393
274.0 0.00365 234.24905 294.76514
291.0 0.003436 234.24367 289.85867
285.0 0.00351 234.23831 287.41901
287.0 0.003484 234.23296 286.89865
287.0 0.003484 234.22768 288.31354
285.0 0.00351 234.22246 291.72751
299.0 0.003344 234.21719 296.55670
325.0 0.003077 234.21207 302.74496
325.0 0.003077 234.20688 310.15182
312.0 0.003205 234.20175 319.52838
323.0 0.003096 234.19662 331.01797
340.0 0.002941 234.19159 344.94388
338.0 0.002959 234.18660 360.00623
358.0 0.002793 234.18164 373.44849
363.0 0.002755 234.17665 382.30545
356.0 0.002809 234.17172 383.37357
349.0 0.002865 234.16685 376.29526
347.0 0.002882 234.16202 364.16135
328.0 0.003049 234.15721 350.41544
331.0 0.003021 234.15244 337.26639
325.0 0.003077 234.14767 325.55917
308.0 0.003247 234.14299 315.23065
318.0 0.003145 234.13829 306.62335
325.0 0.003077 234.13367 300.36517
304.0 0.003289 234.12903 297.12961
284.0 0.00352 234.12451 297.30743
292.0 0.003425 234.12003 301.07587
316.0 0.003165 234.11549 308.17227
307.0 0.003257 234.11104 318.29016
313.0 0.003195 234.10663 330.25674
333.0 0.003003 234.10226 341.86679
350.0 0.002857 234.09796 350.52914
334.0 0.002994 234.09363 353.10248
348.0 0.002874 234.08936 349.31339
342.0 0.002924 234.08511 341.43375
313.0 0.003195 234.08095 332.65433
301.0 0.003322 234.07680 325.05057
301.0 0.003322 234.07271 320.00797
299.0 0.003344 234.06865 318.11252
311.0 0.003215 234.06462 320.03006
338.0 0.002959 234.06061 325.46735
360.0 0.002778 234.05666 334.49338
378.0 0.002646 234.05276 346.00153
370.0 0.002703 234.04887 358.64063
415.0 0.002410 234.04510 369.52576
402.0 0.002488 234.04128 376.51105
377.0 0.002653 234.03752 378.00485
397.0 0.002519 234.03381 373.33426
365.0 0.002740 234.03015 363.36444
337.0 0.002967 234.02647 349.94055
321.0 0.003115 234.02292 335.60181
290.0 0.003448 234.01941 322.17456
309.0 0.003236 234.01588 311.23505
285.0 0.00351 234.01242 303.23245
279.0 0.00358 234.00897 298.36478
277.0 0.00361 234.00560 296.38351
288.0 0.003472 234.00227 297.18094
304.0 0.003289 233.99895 300.32947
304.0 0.003289 233.99573 306.04333
313.0 0.003195 233.99252 313.35526
317.0 0.003155 233.98935 322.30991
333.0 0.003003 233.98624 332.30792
359.0 0.002786 233.98318 342.68600
351.0 0.002849 233.98016 353.18762
372.0 0.002688 233.97714 363.52722
420.0 0.002381 233.97420 373.84778
419.0 0.002387 233.97128 384.43588
413.0 0.002421 233.96841 394.83923
433.0 0.002309 233.96564 402.96518
406.0 0.002463 233.96283 406.06302
426.0 0.002347 233.96016 402.31567
401.0 0.002494 233.95747 392.93900
376.0 0.002660 233.95483 380.81012
382.0 0.002618 233.95224 368.41028
353.0 0.002833 233.94972 357.02353
335.0 0.002985 233.94722 348.11481
319.0 0.003135 233.94476 342.97668
336.0 0.002976 233.94234 342.76694
371.0 0.002695 233.93997 348.47995
388.0 0.002577 233.93771 360.44290
397.0 0.002519 233.93541 378.25693
411.0 0.002433 233.93318 400.37195
429.0 0.002331 233.93102 423.90952
458.0 0.002183 233.92888 444.54068
458.0 0.002183 233.92683 457.96472
446.0 0.002242 233.92480 461.64975
410.0 0.002439 233.92281 455.30670
417.0 0.002398 233.92088 440.18713
396.0 0.002525 233.91901 419.18704
355.0 0.002817 233.91719 396.10745
348.0 0.002874 233.91537 374.27780
329.0 0.003040 233.91367 355.58200
314.0 0.003185 233.91194 340.78442
281.0 0.00356 233.91026 330.32504
310.0 0.003226 233.90874 324.47058
306.0 0.003268 233.90721 323.30319
322.0 0.003106 233.90570 326.45734
330.0 0.003030 233.90424 334.00552
391.0 0.002558 233.90286 345.07187
347.0 0.002882 233.90150 358.48587
357.0 0.002801 233.90024 372.46957
382.0 0.002618 233.89893 384.91830
378.0 0.002646 233.89778 394.75183
420.0 0.002381 233.89664 402.11356
407.0 0.002457 233.89555 408.76801
401.0 0.002494 233.89449 416.84857
421.0 0.002375 233.89351 428.09146
423.0 0.002364 233.89253 443.88663
437.0 0.002288 233.89168 465.04221
511.0 0.001957 233.89084 491.33054
561.0 0.001783 233.89009 520.69989
613.0 0.001631 233.88934 549.31287
598.0 0.001672 233.88867 573.32452
628.0 0.001592 233.88803 590.25055
616.0 0.001623 233.88747 602.33051
623.0 0.001605 233.88693 612.30035
622.0 0.001608 233.88644 620.45459
669.0 0.001495 233.88606 624.90912
663.0 0.001508 233.88568 623.41150
665.0 0.001504 233.88541 615.26019
636.0 0.001572 233.88513 601.01440
580.0 0.001724 233.88492 581.76788
525.0 0.001905 233.88478 560.28296
511.0 0.001957 233.88469 539.87073
475.0 0.002105 233.88463 522.23779
466.0 0.002146 233.88464 507.40005
464.0 0.002155 233.88474 495.55750
444.0 0.002252 233.88483 487.17142
466.0 0.002146 233.88501 482.38806
479.0 0.002088 233.88524 480.47672
477.0 0.002096 233.88554 480.01294
475.0 0.002105 233.88591 480.45386
473.0 0.002114 233.88629 482.93765
501.0 0.001996 233.88678 488.87918
516.0 0.001938 233.88727 497.55533
497.0 0.002012 233.88785 507.81342
512.0 0.001953 233.88847 517.65295
541.0 0.001848 233.88913 525.28107
542.0 0.001845 233.88991 528.43549
525.0 0.001905 233.89067 524.47351
496.0 0.002016 233.89153 512.38171
472.0 0.002119 233.89244 493.80048
461.0 0.002169 233.89336 471.49210
441.0 0.002268 233.89435 447.56790
382.0 0.002618 233.89548 423.18466
357.0 0.002801 233.89664 399.38330
325.0 0.003077 233.89781 377.98788
360.0 0.002778 233.89902 360.14102
373.0 0.002681 233.90034 346.98517
341.0 0.002933 233.90172 338.72858
382.0 0.002618 233.90312 335.04190
343.0 0.002915 233.90460 334.89246
326.0 0.003067 233.90614 337.49173
365.0 0.002740 233.90779 341.39023
388.0 0.002577 233.90941 345.59918
362.0 0.002762 233.91110 349.68619
365.0 0.002740 233.91290 353.42804
370.0 0.002703 233.91470 355.74365
400.0 0.002500 233.91664 355.68835
353.0 0.002833 233.91859 353.34558
384.0 0.002604 233.92061 349.22040
317.0 0.003155 233.92265 343.60428
332.0 0.003012 233.92482 336.26736
309.0 0.003236 233.92700 327.55527
281.0 0.00356 233.92926 318.33298
290.0 0.003448 233.93156 309.60803
284.0 0.00352 233.93393 302.46603
287.0 0.003484 233.93640 297.23300
269.0 0.00372 233.93884 293.71304
273.0 0.00366 233.94141 291.94815
291.0 0.003436 233.94402 291.24551
327.0 0.003058 233.94672 291.09872
320.0 0.003125 233.94943 291.34885
287.0 0.003484 233.95227 292.32330
289.0 0.003460 233.95511 294.74152
292.0 0.003425 233.95804 299.41031
291.0 0.003436 233.96103 306.70700
325.0 0.003077 233.96408 317.18170
329.0 0.003040 233.96719 330.92532
348.0 0.002874 233.97035 347.75577
394.0 0.002538 233.97360 367.05573
436.0 0.002294 233.97685 387.44864
475.0 0.002105 233.98027 407.05521
468.0 0.002137 233.98367 422.60638
471.0 0.002123 233.98715 431.14325
434.0 0.002304 233.99072 431.73718
409.0 0.002445 233.99434 426.98068
418.0 0.002392 233.99800 420.95789
431.0 0.002320 234.00172 417.15070
426.0 0.002347 234.00554 417.62643
442.0 0.002262 234.00940 422.75366
461.0 0.002169 234.01332 431.50638
503.0 0.001988 234.01732 441.52951
488.0 0.002049 234.02139 449.64627
465.0 0.002151 234.02550 453.29718
455.0 0.002198 234.02972 452.18765
431.0 0.002320 234.03395 446.55402
417.0 0.002398 234.03825 437.50085
422.0 0.002370 234.04268 426.80753
425.0 0.002353 234.04712 416.52911
396.0 0.002525 234.05157 408.07291
393.0 0.002545 234.05618 400.98691
424.0 0.002358 234.06078 393.81348
371.0 0.002695 234.06551 386.47406
374.0 0.002674 234.07027 379.47028
366.0 0.002732 234.07518 374.48886
371.0 0.002695 234.08002 373.00699
373.0 0.002681 234.08499 376.12030
410.0 0.002439 234.09007 383.72607
384.0 0.002604 234.09517 395.07700
424.0 0.002358 234.10034 408.63834
437.0 0.002288 234.10556 422.33002
438.0 0.002283 234.11082 434.25281
454.0 0.002203 234.11618 442.18488
441.0 0.002268 234.12164 443.91864
408.0 0.002451 234.12712 437.68472
414.0 0.002415 234.13271 423.94162
392.0 0.002551 234.13834 405.01620
351.0 0.002849 234.14403 384.71622
359.0 0.002786 234.14980 365.53616
307.0 0.003257 234.15561 349.12177
313.0 0.003195 234.16153 335.57086
289.0 0.003460 234.16753 326.05447
326.0 0.003067 234.17357 320.84897
315.0 0.003175 234.17967 320.39517
310.0 0.003226 234.18584 324.57611
341.0 0.002933 234.19208 333.45367
331.0 0.003021 234.19838 346.99255
342.0 0.002924 234.20477 364.58789
409.0 0.002445 234.21123 385.19479
440.0 0.002273 234.21774 406.93179
430.0 0.002326 234.22432 426.63626
448.0 0.002232 234.23097 440.12213
430.0 0.002326 234.23767 443.77151
408.0 0.002451 234.24446 437.05869
398.0 0.002513 234.25131 423.37012
379.0 0.002639 234.25827 407.11597
385.0 0.002597 234.26527 392.37622
378.0 0.002646 234.27231 381.55066
379.0 0.002639 234.27946 375.93906
375.0 0.002667 234.28665 375.73077
393.0 0.002545 234.29393 380.50983
391.0 0.002558 234.30127 388.93762
390.0 0.002564 234.30867 398.79523
399.0 0.002506 234.31618 407.49042
429.0 0.002331 234.32372 413.62222
425.0 0.002353 234.33134 418.19482
395.0 0.002532 234.33907 423.68286
389.0 0.002571 234.34682 432.24579
417.0 0.002398 234.35466 444.72314
453.0 0.002208 234.36255 460.23462
471.0 0.002123 234.37050 476.60455
499.0 0.002004 234.37859 491.10779
538.0 0.001859 234.38672 500.86072
534.0 0.001873 234.39490 503.14294
514.0 0.001946 234.40312 496.79080
486.0 0.002058 234.41147 483.48557
466.0 0.002146 234.41986 466.44348
447.0 0.002237 234.42833 448.49615
403.0 0.002481 234.43686 431.11584
363.0 0.002755 234.44551 414.97250
399.0 0.002506 234.45418 400.55453
411.0 0.002433 234.46294 387.76880
404.0 0.002475 234.47177 376.21548
374.0 0.002674 234.48065 365.79956
346.0 0.002890 234.48962 357.19501
348.0 0.002874 234.49866 351.93320
351.0 0.002849 234.50778 350.88287
346.0 0.002890 234.51701 354.38693
346.0 0.002890 234.52623 362.44247
390.0 0.002564 234.53555 374.34140
368.0 0.002717 234.54498 388.61121
395.0 0.002532 234.55444 403.19962
417.0 0.002398 234.56401 415.80325
420.0 0.002381 234.57364 425.02664
434.0 0.002304 234.58333 430.29846
439.0 0.002278 234.59306 430.79007
450.0 0.002222 234.60295 425.15109
418.0 0.002392 234.61285 412.68997
402.0 0.002488 234.62289 395.12561
373.0 0.002681 234.63287 375.45389
335.0 0.002985 234.64304 356.57474
324.0 0.003086 234.65326 340.37500
332.0 0.003012 234.66351 327.76340
359.0 0.002786 234.67386 319.32098
315.0 0.003175 234.68433 314.73291
300.0 0.003333 234.69479 313.72702
310.0 0.003226 234.70537 316.08749
319.0 0.003135 234.71602 320.55939
346.0 0.002890 234.72672 326.68304
340.0 0.002941 234.73753 333.86237
360.0 0.002778 234.74841 341.96664
375.0 0.002667 234.75932 351.26559
401.0 0.002494 234.77036 361.83850
405.0 0.002469 234.78146 373.14798
410.0 0.002439 234.79263 383.83301
404.0 0.002475 234.80386 391.64871
430.0 0.002326 234.81517 394.82544
401.0 0.002494 234.82657 392.42386
360.0 0.002778 234.83801 385.00613
339.0 0.002950 234.84955 374.50720
350.0 0.002857 234.86115 363.49622
348.0 0.002874 234.87282 354.21603
333.0 0.003003 234.88458 348.39023
332.0 0.003012 234.89647 346.99832
338.0 0.002959 234.90836 350.85880
350.0 0.002857 234.92029 360.66727
374.0 0.002674 234.93239 376.60104
400.0 0.002500 234.94450 398.88379
425.0 0.002353 234.95668 427.77255
459.0 0.002179 234.96901 463.14780
540.0 0.001852 234.98135 504.16360
587.0 0.001704 234.99377 548.79779
624.0 0.001603 235.00627 593.38092
693.0 0.001443 235.01888 634.31396
805.0 0.001242 235.03152 669.06470
771.0 0.001297 235.04424 695.91187
746.0 0.001340 235.05705 712.04993
754.0 0.001326 235.06995 714.49915
693.0 0.001443 235.08293 702.50244
648.0 0.001543 235.09593 678.58411
606.0 0.001650 235.10904 646.16748
563.0 0.001776 235.12225 608.20050
575.0 0.001739 235.13551 568.34375
489.0 0.002045 235.14886 530.56403
507.0 0.001972 235.16229 498.05933
486.0 0.002058 235.17575 473.05695
486.0 0.002058 235.18936 456.22757
443.0 0.002257 235.20296 448.09113
473.0 0.002114 235.21666 448.50461
469.0 0.002132 235.23050 456.37509
473.0 0.002114 235.24434 469.92380
507.0 0.001972 235.25830 486.46170
479.0 0.002088 235.27229 502.97601
565.0 0.001770 235.28639 517.43402
584.0 0.001712 235.30058 528.51392
543.0 0.001842 235.31483 535.07257
565.0 0.001770 235.32918 536.10785
484.0 0.002066 235.34357 531.38812
554.0 0.001805 235.35808 521.46259
474.0 0.002110 235.37263 506.64215
485.0 0.002062 235.38724 486.88205
451.0 0.002217 235.40195 462.71918
395.0 0.002532 235.41675 436.55136
388.0 0.002577 235.43164 410.73218
339.0 0.002950 235.44656 387.16348
361.0 0.002770 235.46156 367.09888
330.0 0.003030 235.47668 351.14905
352.0 0.002841 235.49185 339.56580
327.0 0.003058 235.50706 332.36151
313.0 0.003195 235.52243 329.23364
312.0 0.003205 235.53780 329.45544
316.0 0.003165 235.55331 332.02072
330.0 0.003030 235.56882 336.38034
342.0 0.002924 235.58447 341.29053
371.0 0.002695 235.60022 345.83899
360.0 0.002778 235.61595 349.05270
346.0 0.002890 235.63187 350.59219
337.0 0.002967 235.64775 350.45224
323.0 0.003096 235.66379 349.12268
323.0 0.003096 235.67987 347.02298
349.0 0.002865 235.69601 344.73114
359.0 0.002786 235.71231 342.76660
349.0 0.002865 235.72862 341.91791
326.0 0.003067 235.74503 342.81241
332.0 0.003012 235.76152 345.91339
367.0 0.002725 235.77808 351.79376
374.0 0.002674 235.79471 361.08633
403.0 0.002481 235.81142 374.22476
433.0 0.002309 235.82823 391.23227
481.0 0.002079 235.84505 411.22629
502.0 0.001992 235.86200 432.30145
527.0 0.001898 235.87906 451.57364
545.0 0.001835 235.89615 465.66162
524.0 0.001908 235.91335 473.13058
507.0 0.001972 235.93057 474.83432
457.0 0.002188 235.94794 474.38794
449.0 0.002227 235.96533 475.15109
483.0 0.002070 235.98282 479.66229
487.0 0.002053 236.00037 489.16095
518.0 0.001931 236.01801 503.28003
545.0 0.001835 236.03572 519.90869
509.0 0.001965 236.05357 535.59595
502.0 0.001992 236.07140 546.27039
547.0 0.001828 236.08934 548.44537
523.0 0.001912 236.10739 540.41046
506.0 0.001976 236.12552 523.80060
490.0 0.002041 236.14368 502.80914
465.0 0.002151 236.16197 481.95233
429.0 0.002331 236.18028 464.14706
454.0 0.002203 236.19875 450.10822
473.0 0.002114 236.21722 439.03421
411.0 0.002433 236.23579 429.03796
406.0 0.002463 236.25446 418.97043
417.0 0.002398 236.27316 409.03104
409.0 0.002445 236.29199 400.71844
369.0 0.002710 236.31087 395.72519
387.0 0.002584 236.32985 395.22543
382.0 0.002618 236.34885 399.51480
413.0 0.002421 236.36800 408.17953
432.0 0.002315 236.38721 420.01120
420.0 0.002381 236.40649 432.58725
459.0 0.002179 236.42584 443.21420
472.0 0.002119 236.44524 448.81195
458.0 0.002183 236.46478 446.89029
415.0 0.002410 236.48436 436.73071
403.0 0.002481 236.50395 420.02557
372.0 0.002688 236.52373 399.87650
334.0 0.002994 236.54356 379.10336
348.0 0.002874 236.56348 359.65964
339.0 0.002950 236.58344 342.46750
321.0 0.003115 236.60349 327.75467
320.0 0.003125 236.62361 315.29733
324.0 0.003086 236.64384 305.03519
300.0 0.003333 236.66415 296.76480
304.0 0.003289 236.68451 290.17123
284.0 0.00352 236.70493 285.87146
281.0 0.00356 236.72545 283.34805
290.0 0.003448 236.74605 282.38226
291.0 0.003436 236.76678 282.54263
303.0 0.003300 236.78748 283.99701
297.0 0.003367 236.80830 286.00311
292.0 0.003425 236.82921 288.05939
287.0 0.003484 236.85022 289.46100
288.0 0.003472 236.87129 289.69263
292.0 0.003425 236.89246 288.51437
299.0 0.003344 236.91367 286.14679
285.0 0.00351 236.93494 283.09238
253.0 0.00395 236.95627 279.86359
248.0 0.00403 236.97777 276.79803
257.0 0.00389 236.99927 274.11777
284.0 0.00352 237.02086 272.31094
285.0 0.00351 237.04260 271.09216
261.0 0.00383 237.06433 270.81149
263.0 0.00380 237.08621 271.35843
276.0 0.00362 237.10814 273.17627
267.0 0.00375 237.13008 276.11539
271.0 0.00369 237.15218 280.14401
290.0 0.003448 237.17433 284.95892
299.0 0.003344 237.19656 290.36191
314.0 0.003185 237.21889 295.83051
313.0 0.003195 237.24121 300.57965
324.0 0.003086 237.26372 304.10184
331.0 0.003021 237.28624 306.64594
300.0 0.003333 237.30885 308.44574
292.0 0.003425 237.33157 310.26755
310.0 0.003226 237.35434 311.91913
280.0 0.00357 237.37720 313.48969
313.0 0.003195 237.40009 314.43652
338.0 0.002959 237.42310 314.56750
329.0 0.003040 237.44620 314.02682
295.0 0.003390 237.46931 313.05948
315.0 0.003175 237.49260 311.88611
283.0 0.00353 237.51585 310.93039
283.0 0.00353 237.53929 309.93390
331.0 0.003021 237.56273 309.91223
319.0 0.003135 237.58624 311.34634
336.0 0.002976 237.60991 314.52768
334.0 0.002994 237.63362 319.39493
353.0 0.002833 237.65739 325.49011
366.0 0.002732 237.68126 332.00330
330.0 0.003030 237.70517 337.96072
360.0 0.002778 237.72919 342.81683
357.0 0.002801 237.75325 346.92520
339.0 0.002950 237.77747 351.25916
384.0 0.002604 237.80170 357.28271
400.0 0.002500 237.82599 365.47446
369.0 0.002710 237.85037 376.25732
400.0 0.002500 237.87483 389.10083
428.0 0.002336 237.89941 403.02032
441.0 0.002268 237.92404 416.17175
453.0 0.002208 237.94873 425.67151
464.0 0.002155 237.97351 429.23810
427.0 0.002342 237.99829 425.30450
400.0 0.002500 238.02327 415.27924
371.0 0.002695 238.04825 401.80130
394.0 0.002538 238.07335 388.24655
412.0 0.002427 238.09851 376.96143
378.0 0.002646 238.12375 369.43390
367.0 0.002725 238.14908 366.21994
382.0 0.002618 238.17445 367.53558
412.0 0.002427 238.19991 372.86758
434.0 0.002304 238.22546 381.27667
416.0 0.002404 238.25108 392.57736
404.0 0.002475 238.27679 405.61575
449.0 0.002227 238.30254 419.31747
453.0 0.002208 238.32835 432.61880
471.0 0.002123 238.35432 444.73373
478.0 0.002092 238.38028 455.05682
487.0 0.002053 238.40639 463.24875
484.0 0.002066 238.43254 468.12613
461.0 0.002169 238.45874 469.09241
423.0 0.002364 238.48508 465.68442
439.0 0.002278 238.51141 458.63776
462.0 0.002165 238.53789 449.72964
444.0 0.002252 238.56444 440.98160
403.0 0.002481 238.59105 433.63641
446.0 0.002242 238.61777 427.93192
444.0 0.002252 238.64445 423.70111
427.0 0.002342 238.67130 421.33859
399.0 0.002506 238.69818 421.73474
429.0 0.002331 238.72522 426.19357
427.0 0.002342 238.75226 435.94107
430.0 0.002326 238.77936 450.94659
452.0 0.002212 238.80661 470.18222
496.0 0.002016 238.83389 491.70944
526.0 0.001901 238.86125 512.88226
529.0 0.001890 238.88869 530.54504
531.0 0.001883 238.91623 540.79529
523.0 0.001912 238.94385 540.92859
496.0 0.002016 238.97150 530.20471
480.0 0.002083 238.99919 510.94931
447.0 0.002237 239.02702 487.10577
458.0 0.002183 239.05489 462.59433
385.0 0.002597 239.08292 440.05878
396.0 0.002525 239.11093 420.96854
388.0 0.002577 239.13902 405.77817
386.0 0.002591 239.16722 394.26602
371.0 0.002695 239.19547 386.02240
342.0 0.002924 239.22385 380.80661
361.0 0.002770 239.25227 378.44470
386.0 0.002591 239.28072 379.11325
380.0 0.002632 239.30927 382.65475
364.0 0.002747 239.33792 388.69461
380.0 0.002632 239.36664 396.38278
394.0 0.002538 239.39542 404.76126
418.0 0.002392 239.42427 412.74292
438.0 0.002283 239.45319 419.21387
412.0 0.002427 239.48219 423.30643
421.0 0.002375 239.51131 424.07614
437.0 0.002288 239.54048 422.19507
457.0 0.002188 239.56966 419.48193
458.0 0.002183 239.59901 418.50699
444.0 0.002252 239.62836 421.72305
461.0 0.002169 239.65788 430.95459
511.0 0.001957 239.68739 447.26260
502.0 0.001992 239.71693 470.94971
535.0 0.001869 239.74664 501.54779
615.0 0.001626 239.77641 537.33630
651.0 0.001536 239.80623 574.89136
670.0 0.001493 239.83617 609.59161
686.0 0.001458 239.86606 636.06860
681.0 0.001468 239.89610 650.32092
663.0 0.001508 239.92624 651.22803
615.0 0.001626 239.95642 641.12360
609.0 0.001642 239.98677 624.58929
589.0 0.001698 240.01704 606.34302
573.0 0.001745 240.04747 590.03101
589.0 0.001698 240.07796 577.51605
619.0 0.001616 240.10849 568.22351
631.0 0.001585 240.13913 559.79535
609.0 0.001642 240.16983 549.54205
527.0 0.001898 240.20062 536.04932
530.0 0.001887 240.23145 520.45685
485.0 0.002062 240.26241 505.20914
473.0 0.002114 240.29340 492.51950
452.0 0.002212 240.32443 483.58554
449.0 0.002227 240.35562 478.80084
492.0 0.002033 240.38681 478.04120
496.0 0.002016 240.41808 480.39584
497.0 0.002012 240.44945 484.07504
493.0 0.002028 240.48087 486.52731
476.0 0.002101 240.51239 485.41721
516.0 0.001938 240.54393 479.61371
423.0 0.002364 240.57562 469.65643
407.0 0.002457 240.60733 457.37680
406.0 0.002463 240.63911 445.04999
431.0 0.002320 240.67097 434.21115
414.0 0.002415 240.70290 425.78983
430.0 0.002326 240.73497 419.60663
397.0 0.002519 240.76703 414.18497
416.0 0.002404 240.79913 408.29672
423.0 0.002364 240.83141 400.65924
377.0 0.002653 240.86368 391.31900
372.0 0.002688 240.89606 381.30762
364.0 0.002747 240.92848 371.88599
367.0 0.002725 240.96098 364.00952
344.0 0.002907 240.99358 358.36374
368.0 0.002717 241.02623 355.60852
358.0 0.002793 241.05899 356.34561
350.0 0.002857 241.09177 360.97675
359.0 0.002786 241.12459 369.53638
372.0 0.002688 241.15755 381.61853
372.0 0.002688 241.19055 396.38724
418.0 0.002392 241.22366 412.15082
456.0 0.002193 241.25684 426.67596
458.0 0.002183 241.29004 437.19904
462.0 0.002165 241.32330 441.95657
438.0 0.002283 241.35664 440.70471
407.0 0.002457 241.39011 435.38162
389.0 0.002571 241.42366 428.84775
392.0 0.002551 241.45718 423.48053
410.0 0.002439 241.49083 420.78503
405.0 0.002469 241.52454 421.10931
426.0 0.002347 241.55833 423.73212
423.0 0.002364 241.59219 426.75848
425.0 0.002353 241.62610 428.38779
439.0 0.002278 241.66011 427.17999
433.0 0.002309 241.69420 423.35104
416.0 0.002404 241.72832 418.41470
400.0 0.002500 241.76251 414.26614
396.0 0.002525 241.79678 412.29865
421.0 0.002375 241.83118 413.02878
417.0 0.002398 241.86557 416.12405
417.0 0.002398 241.90007 420.12177
411.0 0.002433 241.93459 423.05722
405.0 0.002469 241.96921 423.04150
404.0 0.002475 242.00392 418.77621
372.0 0.002688 242.03867 411.00583
384.0 0.002604 242.07350 400.91724
382.0 0.002618 242.10843 390.54150
378.0 0.002646 242.14340 381.38892
371.0 0.002695 242.17845 374.79883
374.0 0.002674 242.21352 371.41614
391.0 0.002558 242.24875 371.15994
354.0 0.002825 242.28403 373.33429
369.0 0.002710 242.31929 376.92001
403.0 0.002481 242.35464 380.72455
367.0 0.002725 242.39012 383.96585
384.0 0.002604 242.42566 386.55621
382.0 0.002618 242.46127 388.81140
372.0 0.002688 242.49686 391.10370
345.0 0.002899 242.53264 393.79587
348.0 0.002874 242.56842 396.74161
384.0 0.002604 242.60434 399.19092
379.0 0.002639 242.64027 399.63629
375.0 0.002667 242.67618 396.74921
339.0 0.002950 242.71231 390.16742
375.0 0.002667 242.74843 381.08136
321.0 0.003115 242.78467 371.36157
344.0 0.002907 242.82095 362.52179
328.0 0.003049 242.85727 355.75400
322.0 0.003106 242.89369 351.27719
335.0 0.002985 242.93016 349.02783
326.0 0.003067 242.96671 348.34573
314.0 0.003185 243.00336 348.53305
351.0 0.002849 243.03998 348.38376
367.0 0.002725 243.07675 347.93265
377.0 0.002653 243.11357 347.45789
335.0 0.002985 243.15045 348.01447
340.0 0.002941 243.18742 349.50296
345.0 0.002899 243.22440 352.68076
323.0 0.003096 243.26149 356.88330
359.0 0.002786 243.29865 361.62476
400.0 0.002500 243.33586 365.77737
382.0 0.002618 243.37318 367.93289
360.0 0.002778 243.41048 366.83624
350.0 0.002857 243.44794 362.11035
342.0 0.002924 243.48543 354.59760
344.0 0.002907 243.52298 345.37659
336.0 0.002976 243.56061 336.59769
319.0 0.003135 243.59825 329.13843
316.0 0.003165 243.63606 323.43558
319.0 0.003135 243.67384 319.75287
337.0 0.002967 243.71173 317.85788
322.0 0.003106 243.74969 317.41525
315.0 0.003175 243.78766 317.76425
307.0 0.003257 243.82581 318.16510
297.0 0.003367 243.86389 318.45044
314.0 0.003185 243.90213 318.98471
303.0 0.003300 243.94048 319.77670
304.0 0.003289 243.97878 321.24838
323.0 0.003096 244.01723 322.87778
340.0 0.002941 244.05565 324.07407
349.0 0.002865 244.09424 324.16245
329.0 0.003040 244.13286 322.62985
311.0 0.003215 244.17151 319.57156
284.0 0.00352 244.21022 314.94998
307.0 0.003257 244.24902 309.33450
296.0 0.003378 244.28795 303.35999
263.0 0.00380 244.32687 297.98218
288.0 0.003472 244.36591 293.60757
282.0 0.00355 244.40495 290.22513
293.0 0.003413 244.44409 287.91696
272.0 0.00368 244.48332 286.51041
283.0 0.00353 244.52260 285.76160
282.0 0.00355 244.56187 285.31958
286.0 0.003497 244.60126 284.89218
326.0 0.003067 244.64075 284.41977
304.0 0.003289 244.68028 283.99664
247.0 0.00405 244.71989 283.78485
262.0 0.00382 244.75948 283.91455
244.0 0.00410 244.79924 284.40302
283.0 0.00353 244.83902 285.14639
272.0 0.00368 244.87888 285.75769
292.0 0.003425 244.91881 286.31985
293.0 0.003413 244.95877 286.81775
284.0 0.00352 244.99879 287.30969
307.0 0.003257 245.03888 288.00937
292.0 0.003425 245.07909 289.07559
317.0 0.003155 245.11934 289.98022
303.0 0.003300 245.15959 290.72290
299.0 0.003344 245.19998 291.02957
289.0 0.003460 245.24039 290.97507
305.0 0.003279 245.28091 290.29520
332.0 0.003012 245.32147 289.82556
283.0 0.00353 245.36205 289.67886
282.0 0.00355 245.40277 290.19577
307.0 0.003257 245.44351 291.53864
282.0 0.00355 245.48434 293.99286
294.0 0.003401 245.52516 297.81735
302.0 0.003311 245.56613 303.20786
303.0 0.003300 245.60713 310.22617
322.0 0.003106 245.64816 318.59283
341.0 0.002933 245.68932 328.06000
362.0 0.002762 245.73051 337.86652
363.0 0.002755 245.77171 346.76910
361.0 0.002770 245.81306 353.61899
365.0 0.002740 245.85440 357.17871
351.0 0.002849 245.89592 357.52124
363.0 0.002755 245.93741 355.51004
360.0 0.002778 245.97897 352.32520
350.0 0.002857 246.02063 348.86624
346.0 0.002890 246.06229 345.65759
363.0 0.002755 246.10405 342.86856
350.0 0.002857 246.14590 340.94781
332.0 0.003012 246.18776 340.14005
359.0 0.002786 246.22971 340.92059
361.0 0.002770 246.27177 343.72623
349.0 0.002865 246.31383 349.04361
354.0 0.002825 246.35599 357.13568
366.0 0.002732 246.39813 367.94693
391.0 0.002558 246.44043 381.18365
418.0 0.002392 246.48274 395.82565
435.0 0.002299 246.52510 411.15939
473.0 0.002114 246.56760 425.89240
467.0 0.002141 246.61006 438.91486
475.0 0.002105 246.65268 449.78699
473.0 0.002114 246.69525 458.15466
476.0 0.002101 246.73801 463.90567
476.0 0.002101 246.78075 466.76993
491.0 0.002037 246.82356 466.31796
448.0 0.002232 246.86647 461.80072
475.0 0.002105 246.90938 452.57889
420.0 0.002381 246.95244 439.23886
408.0 0.002451 246.99551 423.24216
396.0 0.002525 247.03856 406.59216
377.0 0.002653 247.08180 390.97745
338.0 0.002959 247.12506 377.71426
346.0 0.002890 247.16844 367.38599
345.0 0.002899 247.21178 360.45667
350.0 0.002857 247.25516 356.99142
360.0 0.002778 247.29869 356.80734
358.0 0.002793 247.34227 359.36636
386.0 0.002591 247.38591 364.27231
360.0 0.002778 247.42958 370.80032
394.0 0.002538 247.47330 378.04092
387.0 0.002584 247.51714 385.29739
393.0 0.002545 247.56105 391.88666
392.0 0.002551 247.60497 397.63474
413.0 0.002421 247.64900 402.67014
408.0 0.002451 247.69302 407.15710
431.0 0.002320 247.73714 411.26193
450.0 0.002222 247.78127 414.79202
449.0 0.002227 247.82559 417.59842
413.0 0.002421 247.86987 420.01620
426.0 0.002347 247.91420 422.92621
429.0 0.002331 247.95865 427.40027
440.0 0.002273 248.00313 434.17041
441.0 0.002268 248.04773 443.37219
476.0 0.002101 248.09230 454.50958
482.0 0.002075 248.13695 466.58804
515.0 0.001942 248.18169 478.32291
507.0 0.001972 248.22653 487.93234
512.0 0.001953 248.27133 493.35565
518.0 0.001931 248.31628 493.56296
483.0 0.002070 248.36116 488.20114
493.0 0.002028 248.40630 478.30435
478.0 0.002092 248.45135 465.04208
431.0 0.002320 248.49654 449.36139
418.0 0.002392 248.54179 432.29105
413.0 0.002421 248.58699 415.09106
370.0 0.002703 248.63237 399.08304
367.0 0.002725 248.67775 385.56073
370.0 0.002703 248.72321 375.03064
350.0 0.002857 248.76875 368.16006
352.0 0.002841 248.81432 365.33069
375.0 0.002667 248.86003 366.78195
380.0 0.002632 248.90565 372.61737
379.0 0.002639 248.95148 382.74875
400.0 0.002500 248.99733 396.72348
430.0 0.002326 249.04317 413.81174
445.0 0.002247 249.08916 432.93356
473.0 0.002114 249.13506 452.58255
515.0 0.001942 249.18118 470.54181
567.0 0.001764 249.22734 484.16614
543.0 0.001842 249.27345 490.89975
503.0 0.001988 249.31979 489.31268
433.0 0.002309 249.36604 479.62585
429.0 0.002331 249.41245 463.90533
415.0 0.002410 249.45894 444.63968
376.0 0.002660 249.50536 423.92746
356.0 0.002809 249.55197 403.34717
358.0 0.002793 249.59853 384.12936
343.0 0.002915 249.64528 366.97015
331.0 0.003021 249.69200 352.29221
333.0 0.003003 249.73877 340.23599
322.0 0.003106 249.78561 330.71884
287.0 0.003484 249.83255 323.81583
308.0 0.003247 249.87956 319.43884
293.0 0.003413 249.92657 317.45697
305.0 0.003279 249.97362 317.66360
315.0 0.003175 250.02081 319.80261
325.0 0.003077 250.06802 323.49551
341.0 0.002933 250.11531 328.28571
366.0 0.002732 250.16270 333.44363
385.0 0.002597 250.21002 338.41501
358.0 0.002793 250.25754 342.23956
379.0 0.002639 250.30501 344.14435
326.0 0.003067 250.35266 343.81689
318.0 0.003145 250.40028 341.62000
333.0 0.003003 250.44794 338.39069
335.0 0.002985 250.49576 335.22653
333.0 0.003003 250.54356 332.95111
313.0 0.003195 250.59151 332.03622
333.0 0.003003 250.63945 332.65536
340.0 0.002941 250.68739 334.72672
325.0 0.003077 250.73555 337.93832
355.0 0.002817 250.78362 341.85132
355.0 0.002817 250.83182 345.90921
338.0 0.002959 250.88008 349.36215
354.0 0.002825 250.92831 351.23798
362.0 0.002762 250.97676 350.70767
366.0 0.002732 251.02515 347.82553
347.0 0.002882 251.07367 343.14780
344.0 0.002907 251.12221 337.48367
326.0 0.003067 251.17078 332.08603
318.0 0.003145 251.21951 327.58063
323.0 0.003096 251.26817 324.70126
306.0 0.003268 251.31703 323.73355
321.0 0.003115 251.36589 324.70999
337.0 0.002967 251.41476 328.17966
360.0 0.002778 251.46381 333.88480
346.0 0.002890 251.51280 341.73370
357.0 0.002801 251.56192 351.11191
373.0 0.002681 251.61110 361.67267
396.0 0.002525 251.66029 372.96228
400.0 0.002500 251.70958 384.30157
398.0 0.002513 251.75894 394.92697
407.0 0.002457 251.80836 403.72256
415.0 0.002410 251.85780 409.46347
435.0 0.002299 251.90730 411.58090
407.0 0.002457 251.95692 409.81686
405.0 0.002469 252.00653 404.95633
400.0 0.002500 252.05627 397.98260
395.0 0.002532 252.10606 389.84210
370.0 0.002703 252.15584 381.57947
334.0 0.002994 252.20580 374.23407
358.0 0.002793 252.25571 368.67648
340.0 0.002941 252.30574 365.48300
373.0 0.002681 252.35583 364.83459
373.0 0.002681 252.40591 366.60068
406.0 0.002463 252.45610 370.11005
375.0 0.002667 252.50635 374.79337
351.0 0.002849 252.55676 379.72202
392.0 0.002551 252.60710 384.22321
427.0 0.002342 252.65752 387.97684
382.0 0.002618 252.70807 390.73459
373.0 0.002681 252.75861 392.70825
403.0 0.002481 252.80930 394.33850
416.0 0.002404 252.85997 395.77582
394.0 0.002538 252.91061 397.02765
374.0 0.002674 252.96150 397.55176
360.0 0.002778 253.01236 397.08844
382.0 0.002618 253.06332 395.45181
358.0 0.002793 253.11435 392.51263
367.0 0.002725 253.16534 388.71503
355.0 0.002817 253.21649 384.99088
347.0 0.002882 253.26764 381.97479
353.0 0.002833 253.31889 380.40515
351.0 0.002849 253.37024 380.79077
369.0 0.002710 253.42160 383.72067
386.0 0.002591 253.47307 389.62509
393.0 0.002545 253.52449 398.72839
369.0 0.002710 253.57610 410.88519
420.0 0.002381 253.62773 425.46954
462.0 0.002165 253.67938 441.47620
464.0 0.002155 253.73114 457.52145
506.0 0.001976 253.78291 471.91159
501.0 0.001996 253.83484 483.04556
479.0 0.002088 253.88676 489.82864
487.0 0.002053 253.93871 492.38187
493.0 0.002028 253.99078 491.96115
473.0 0.002114 254.04291 490.27600
470.0 0.002128 254.09512 488.87585
507.0 0.001972 254.14740 488.86292
528.0 0.001894 254.19965 489.56857
519.0 0.001927 254.25204 489.79562
506.0 0.001976 254.30446 487.72235
471.0 0.002123 254.35699 482.39996
448.0 0.002232 254.40956 473.87872
434.0 0.002304 254.46211 463.51166
438.0 0.002283 254.51488 453.02631
427.0 0.002342 254.56758 444.00067
409.0 0.002445 254.62045 437.44989
417.0 0.002398 254.67331 433.89569
444.0 0.002252 254.72623 433.39157
465.0 0.002151 254.77927 435.62106
457.0 0.002188 254.83229 439.92810
461.0 0.002169 254.88548 445.46170
463.0 0.002160 254.93869 451.16568
470.0 0.002128 254.99185 455.88644
472.0 0.002119 255.04524 458.47348
430.0 0.002326 255.09862 458.14734
433.0 0.002309 255.15216 454.68857
437.0 0.002288 255.20566 448.77686
413.0 0.002421 255.25919 441.17145
434.0 0.002304 255.31288 432.82211
408.0 0.002451 255.36653 424.47620
400.0 0.002500 255.42036 416.40173
403.0 0.002481 255.47418 408.41125
393.0 0.002545 255.52809 400.17871
347.0 0.002882 255.58206 391.40359
386.0 0.002591 255.63609 382.42133
340.0 0.002941 255.69028 373.86795
354.0 0.002825 255.74443 366.48126
319.0 0.003135 255.79858 360.46811
340.0 0.002941 255.85295 356.00793
326.0 0.003067 255.90726 352.94003
289.0 0.003460 255.96173 350.99216
328.0 0.003049 256.01627 349.68057
321.0 0.003115 256.07071 348.67740
351.0 0.002849 256.12540 347.76434
358.0 0.002793 256.18005 346.88120
345.0 0.002899 256.23486 345.94409
369.0 0.002710 256.28964 345.43079
338.0 0.002959 256.34448 344.44852
326.0 0.003067 256.39948 343.28439
362.0 0.002762 256.45456 342.00574
355.0 0.002817 256.50964 341.00787
348.0 0.002874 256.56479 340.13553
349.0 0.002865 256.61993 340.01596
357.0 0.002801 256.67529 340.99048
380.0 0.002632 256.73065 343.15189
377.0 0.002653 256.78610 346.47318
374.0 0.002674 256.84158 350.74622
381.0 0.002625 256.89709 355.66437
412.0 0.002427 256.95279 360.85495
412.0 0.002427 257.00845 366.21121
404.0 0.002475 257.06418 371.45197
416.0 0.002404 257.12009 376.33194
412.0 0.002427 257.17587 381.28455
394.0 0.002538 257.23190 386.61942
386.0 0.002591 257.28790 393.09756
400.0 0.002500 257.34406 401.13831
396.0 0.002525 257.40024 410.86057
424.0 0.002358 257.45639 421.93274
457.0 0.002188 257.51270 433.59741
460.0 0.002174 257.56909 444.73358
472.0 0.002119 257.62558 454.50150
470.0 0.002128 257.68210 461.99847
476.0 0.002101 257.73862 467.69171
494.0 0.002024 257.79529 472.00241
487.0 0.002053 257.85199 475.80191
519.0 0.001927 257.90881 479.21909
482.0 0.002075 257.96570 482.03674
493.0 0.002028 258.02258 483.71432
496.0 0.002016 258.07953 483.20547
510.0 0.001961 258.13663 480.08374
487.0 0.002053 258.19385 474.34155
472.0 0.002119 258.25101 466.36887
501.0 0.001996 258.30826 456.62534
437.0 0.002288 258.36560 445.03629
404.0 0.002475 258.42297 432.59238
432.0 0.002315 258.48050 420.18314
401.0 0.002494 258.53815 409.04224
383.0 0.002611 258.59567 399.95993
384.0 0.002604 258.65341 393.52249
394.0 0.002538 258.71115 389.88510
413.0 0.002421 258.76901 388.73230
388.0 0.002577 258.82693 389.56848
391.0 0.002558 258.88486 391.53439
416.0 0.002404 258.94296 393.77808
436.0 0.002294 259.00110 395.84436
411.0 0.002433 259.05933 397.45111
418.0 0.002392 259.11761 398.45871
392.0 0.002551 259.17590 398.86212
370.0 0.002703 259.23434 398.68155
413.0 0.002421 259.29279 397.68271
377.0 0.002653 259.35141 395.71371
405.0 0.002469 259.41000 392.49469
403.0 0.002481 259.46863 388.19196
401.0 0.002494 259.52753 383.01602
407.0 0.002457 259.58630 377.31418
415.0 0.002410 259.64526 371.50070
364.0 0.002747 259.70432 365.66327
339.0 0.002950 259.76334 360.05237
357.0 0.002801 259.82251 355.09012
358.0 0.002793 259.88168 351.00186
339.0 0.002950 259.94107 347.91013
349.0 0.002865 260.00040 345.81796
378.0 0.002646 260.05978 344.63657
351.0 0.002849 260.11932 344.36676
353.0 0.002833 260.17889 345.00250
351.0 0.002849 260.23859 346.42056
334.0 0.002994 260.29831 348.95483
374.0 0.002674 260.35812 352.47726
379.0 0.002639 260.41809 357.30911
361.0 0.002770 260.47800 363.19974
361.0 0.002770 260.53809 369.74564
380.0 0.002632 260.59824 376.33841
394.0 0.002538 260.65829 382.09219
404.0 0.002475 260.71863 385.97290
386.0 0.002591 260.77902 387.06107
368.0 0.002717 260.83948 385.00516
369.0 0.002710 260.89993 380.28284
364.0 0.002747 260.96048 373.67517
371.0 0.002695 261.02112 366.26617
374.0 0.002674 261.08191 359.17902
352.0 0.002841 261.14273 353.00476
345.0 0.002899 261.20364 348.27649
337.0 0.002967 261.26453 345.25452
331.0 0.003021 261.32559 343.97842
342.0 0.002924 261.38669 344.32474
362.0 0.002762 261.44788 346.42807
365.0 0.002740 261.50919 349.70007
350.0 0.002857 261.57047 353.98386
380.0 0.002632 261.63196 359.15836
382.0 0.002618 261.69342 364.97443
384.0 0.002604 261.75507 371.29462
411.0 0.002433 261.81671 378.06732
375.0 0.002667 261.87836 385.30191
396.0 0.002525 261.94028 393.29105
413.0 0.002421 262.00214 402.10587
390.0 0.002564 262.06415 411.78397
445.0 0.002247 262.12625 422.12097
447.0 0.002237 262.18832 432.70923
492.0 0.002033 262.25067 443.44864
456.0 0.002193 262.31284 454.18430
462.0 0.002165 262.37527 465.04449
522.0 0.001916 262.43781 476.23557
534.0 0.001873 262.50027 488.06451
580.0 0.001724 262.56296 501.04791
569.0 0.001757 262.62561 515.83398
556.0 0.001799 262.68845 533.10583
601.0 0.001664 262.75131 553.23663
640.0 0.001563 262.81418 576.11066
662.0 0.001511 262.87726 601.10931
696.0 0.001437 262.94031 626.51251
728.0 0.001374 263.00357 649.59186
758.0 0.001319 263.06686 667.47980
735.0 0.001361 263.13013 677.87408
679.0 0.001473 263.19360 680.13165
726.0 0.001377 263.25711 674.77173
727.0 0.001376 263.32086 662.77789
667.0 0.001499 263.38455 645.44769
673.0 0.001486 263.44821 624.45837
632.0 0.001582 263.51212 601.87256
554.0 0.001805 263.57602 579.99274
543.0 0.001842 263.64011 560.65411
534.0 0.001873 263.70419 545.22577
494.0 0.002024 263.76834 534.49371
510.0 0.001961 263.83267 528.13690
551.0 0.001815 263.89703 525.64679
542.0 0.001845 263.96152 525.85303
531.0 0.001883 264.02603 527.41528
533.0 0.001876 264.09064 529.48303
537.0 0.001862 264.15536 531.65765
534.0 0.001873 264.22012 534.28137
550.0 0.001818 264.28503 538.06604
515.0 0.001942 264.35004 543.61523
532.0 0.001880 264.41498 550.95129
602.0 0.001661 264.48016 559.43011
600.0 0.001667 264.54535 567.71088
612.0 0.001634 264.61075 574.17303
620.0 0.001613 264.67609 578.13495
607.0 0.001647 264.74155 578.53998
642.0 0.001558 264.80713 576.03137
601.0 0.001664 264.87274 571.29755
579.0 0.001727 264.93860 565.39008
548.0 0.001825 265.00443 559.55188
583.0 0.001715 265.07028 555.02850
549.0 0.001821 265.13632 552.22772
520.0 0.001923 265.20245 551.62805
569.0 0.001757 265.26865 552.30334
560.0 0.001786 265.33484 552.76013
537.0 0.001862 265.40118 551.10699
563.0 0.001776 265.46768 545.78583
548.0 0.001825 265.53421 535.98523
545.0 0.001835 265.60086 522.27893
484.0 0.002066 265.66760 505.90778
477.0 0.002096 265.73434 488.42975
420.0 0.002381 265.80130 471.32977
484.0 0.002066 265.86819 455.88516
422.0 0.002370 265.93542 443.02615
376.0 0.002660 266.00250 433.04489
393.0 0.002545 266.06973 426.09760
423.0 0.002364 266.13715 421.84464
374.0 0.002674 266.20453 419.89700
468.0 0.002137 266.27213 419.58289
435.0 0.002299 266.33984 420.23608
414.0 0.002415 266.40747 421.74902
427.0 0.002342 266.47522 424.33353
439.0 0.002278 266.54318 428.36685
452.0 0.002212 266.61121 434.25610
493.0 0.002028 266.67935 441.77219
471.0 0.002123 266.74744 450.57639
480.0 0.002083 266.81577 459.54672
515.0 0.001942 266.88412 467.19913
485.0 0.002062 266.95255 471.78180
462.0 0.002165 267.02112 471.95480
470.0 0.002128 267.08969 467.19598
454.0 0.002203 267.15848 458.12802
414.0 0.002415 267.22723 446.11554
432.0 0.002315 267.29630 432.78931
428.0 0.002336 267.36533 419.51923
417.0 0.002398 267.43436 407.23001
371.0 0.002695 267.50360 396.35059
359.0 0.002786 267.57285 387.15753
362.0 0.002762 267.64227 379.43008
365.0 0.002740 267.71179 373.16354
363.0 0.002755 267.78131 368.11850
375.0 0.002667 267.85104 364.50443
387.0 0.002584 267.92078 362.00684
347.0 0.002882 267.99072 360.73822
350.0 0.002857 268.06070 360.76730
366.0 0.002732 268.13068 362.25943
388.0 0.002577 268.20090 365.54175
397.0 0.002519 268.27118 370.57492
409.0 0.002445 268.34152 377.74539
409.0 0.002445 268.41199 386.84235
447.0 0.002237 268.48251 397.74582
436.0 0.002294 268.55322 410.09195
436.0 0.002294 268.62390 423.33582
456.0 0.002193 268.69479 436.97772
458.0 0.002183 268.76581 450.39828
458.0 0.002183 268.83670 463.01862
449.0 0.002227 268.90784 474.05380
509.0 0.001965 268.97910 482.37784
482.0 0.002075 269.05048 486.92938
475.0 0.002105 269.12195 487.02292
484.0 0.002066 269.19345 482.69800
469.0 0.002132 269.26505 474.46500
443.0 0.002257 269.33676 463.14282
414.0 0.002415 269.40857 449.43039
410.0 0.002439 269.48059 434.26407
406.0 0.002463 269.55249 418.53354
372.0 0.002688 269.62469 403.43668
396.0 0.002525 269.69690 389.66830
344.0 0.002907 269.76926 377.86081
356.0 0.002809 269.84171 368.37793
346.0 0.002890 269.91418 361.31061
349.0 0.002865 269.98682 356.78845
359.0 0.002786 270.05957 354.70023
325.0 0.003077 270.13245 355.06625
324.0 0.003086 270.20526 357.84064
379.0 0.002639 270.27832 363.03766
388.0 0.002577 270.35147 370.44385
336.0 0.002976 270.42468 379.90079
423.0 0.002364 270.49811 391.12372
444.0 0.002252 270.57150 403.53558
429.0 0.002331 270.64499 416.42813
420.0 0.002381 270.71875 428.82178
467.0 0.002141 270.79239 439.56766
479.0 0.002088 270.86633 447.69180
463.0 0.002160 270.94025 452.55002
455.0 0.002198 271.01425 453.81412
453.0 0.002208 271.08841 452.67538
459.0 0.002179 271.16266 449.68948
446.0 0.002242 271.23703 445.85440
448.0 0.002232 271.31155 441.95337
447.0 0.002237 271.38599 439.14844
432.0 0.002315 271.46075 437.57874
416.0 0.002404 271.53549 437.12094
430.0 0.002326 271.61038 437.41702
463.0 0.002160 271.68546 437.54410
453.0 0.002208 271.76038 436.72067
453.0 0.002208 271.83566 434.50259
419.0 0.002387 271.91092 431.05994
421.0 0.002375 271.98633 427.14160
405.0 0.002469 272.06192 423.70438
422.0 0.002370 272.13742 421.80426
432.0 0.002315 272.21317 422.17166
424.0 0.002358 272.28894 425.05844
430.0 0.002326 272.36493 430.54642
432.0 0.002315 272.44095 438.43515
438.0 0.002283 272.51703 448.15811
449.0 0.002227 272.59332 458.87921
474.0 0.002110 272.66959 469.38446
499.0 0.002004 272.74603 478.22583
499.0 0.002004 272.82269 484.64563
530.0 0.001887 272.89932 488.09518
530.0 0.001887 272.97610 489.26971
485.0 0.002062 273.05295 489.07852
470.0 0.002128 273.12994 488.34555
480.0 0.002083 273.20703 487.86823
476.0 0.002101 273.28418 487.70908
507.0 0.001972 273.36154 487.80936
502.0 0.001992 273.43887 488.17557
493.0 0.002028 273.51648 488.54123
526.0 0.001901 273.59406 488.50989
503.0 0.001988 273.67166 487.57852
490.0 0.002041 273.74957 485.03955
484.0 0.002066 273.82751 481.33704
520.0 0.001923 273.90564 476.67267
468.0 0.002137 273.98373 471.80844
468.0 0.002137 274.06195 467.53714
455.0 0.002198 274.14038 464.23581
460.0 0.002174 274.21878 461.93784
488.0 0.002049 274.29736 460.50275
465.0 0.002151 274.37610 459.71182
493.0 0.002028 274.45480 459.46255
435.0 0.002299 274.53378 459.75989
466.0 0.002146 274.61273 460.48712
433.0 0.002309 274.69193 461.57132
450.0 0.002222 274.77118 462.70096
447.0 0.002237 274.85037 463.98694
463.0 0.002160 274.92987 465.32123
490.0 0.002041 275.00943 466.59772
445.0 0.002247 275.08914 467.57968
465.0 0.002151 275.16898 467.99466
477.0 0.002096 275.24872 467.86884
451.0 0.002217 275.32877 467.62820
430.0 0.002326 275.40878 468.10318
483.0 0.002070 275.48901 470.25195
500.0 0.002000 275.56940 474.64197
500.0 0.002000 275.64972 481.89139
508.0 0.001969 275.73026 492.21872
564.0 0.001773 275.81088 505.47711
587.0 0.001704 275.89157 521.47107
616.0 0.001623 275.97250 539.66211
659.0 0.001517 276.05341 559.03094
672.0 0.001488 276.13458 578.01672
693.0 0.001443 276.21564 594.45618
689.0 0.001451 276.29697 606.15570
661.0 0.001513 276.37839 611.51477
622.0 0.001608 276.45984 609.88446
614.0 0.001629 276.54144 601.75824
623.0 0.001605 276.62311 588.56848
576.0 0.001736 276.70499 571.92847
555.0 0.001802 276.78696 553.66046
512.0 0.001953 276.86887 535.02942
485.0 0.002062 276.95108 516.71564
470.0 0.002128 277.03333 499.09937
461.0 0.002169 277.11575 482.30896
455.0 0.002198 277.19818 466.59891
440.0 0.002273 277.28067 452.28928
408.0 0.002451 277.36340 439.82950
375.0 0.002667 277.44620 429.39636
374.0 0.002674 277.52914 421.24252
378.0 0.002646 277.61215 415.63586
379.0 0.002639 277.69519 412.58746
378.0 0.002646 277.77850 412.16458
410.0 0.002439 277.86179 414.34293
428.0 0.002336 277.94531 418.85428
429.0 0.002331 278.02884 425.68768
492.0 0.002033 278.11246 434.08008
514.0 0.001946 278.19626 443.30109
535.0 0.001869 278.28006 452.24792
530.0 0.001887 278.36411 459.90207
537.0 0.001862 278.44824 465.42935
495.0 0.002020 278.53229 468.40561
511.0 0.001957 278.61670 468.92703
481.0 0.002079 278.70102 467.50058
502.0 0.001992 278.78564 464.86935
467.0 0.002141 278.87030 461.79138
488.0 0.002049 278.95486 458.71625
470.0 0.002128 279.03976 455.77081
469.0 0.002132 279.12473 452.70016
463.0 0.002160 279.20981 448.96896
423.0 0.002364 279.29501 443.93494
448.0 0.002232 279.38016 437.18683
412.0 0.002427 279.46558 428.35864
397.0 0.002519 279.55103 417.95135
384.0 0.002604 279.63666 406.51401
339.0 0.002950 279.72235 394.86722
367.0 0.002725 279.80807 383.68689
378.0 0.002646 279.89398 373.44775
349.0 0.002865 279.98001 364.54382
336.0 0.002976 280.06613 357.08478
293.0 0.003413 280.15234 351.36130
325.0 0.003077 280.23856 347.27301
306.0 0.003268 280.32507 344.94028
337.0 0.002967 280.41153 344.02512
346.0 0.002890 280.49823 344.52414
322.0 0.003106 280.58496 346.23291
321.0 0.003115 280.67169 348.83298
352.0 0.002841 280.75873 352.11920
334.0 0.002994 280.84570 355.79660
351.0 0.002849 280.93292 359.64896
386.0 0.002591 281.02020 363.58786
348.0 0.002874 281.10745 367.49161
360.0 0.002778 281.19501 371.23108
375.0 0.002667 281.28244 375.00235
388.0 0.002577 281.37018 378.36639
387.0 0.002584 281.45795 380.86804
391.0 0.002558 281.54568 382.00177
405.0 0.002469 281.63379 381.48541
387.0 0.002584 281.72177 379.22955
347.0 0.002882 281.81000 375.63541
328.0 0.003049 281.89825 371.22125
338.0 0.002959 281.98654 366.50250
356.0 0.002809 282.07507 361.80783
354.0 0.002825 282.16360 357.21301
346.0 0.002890 282.25235 352.79236
341.0 0.002933 282.34119 348.35785
335.0 0.002985 282.42990 344.46719
316.0 0.003165 282.51886 341.00513
308.0 0.003247 282.60794 338.12540
321.0 0.003115 282.69711 335.81699
324.0 0.003086 282.78641 334.08810
312.0 0.003205 282.87567 332.76514
303.0 0.003300 282.96515 331.91534
319.0 0.003135 283.05466 331.32965
307.0 0.003257 283.14435 330.96738
290.0 0.003448 283.23410 330.67548
327.0 0.003058 283.32385 330.42657
311.0 0.003215 283.41388 330.43774
315.0 0.003175 283.50385 330.65543
320.0 0.003125 283.59402 331.34738
329.0 0.003040 283.68417 332.47922
313.0 0.003195 283.77441 334.06036
321.0 0.003115 283.86490 336.08780
320.0 0.003125 283.95529 338.49698
330.0 0.003030 284.04596 341.30933
326.0 0.003067 284.13666 344.44370
355.0 0.002817 284.22733 348.12292
312.0 0.003205 284.31818 351.99121
368.0 0.002717 284.40915 355.90640
370.0 0.002703 284.50027 359.51505
359.0 0.002786 284.59137 362.39529
381.0 0.002625 284.68250 364.44385
370.0 0.002703 284.77386 365.41687
356.0 0.002809 284.86520 365.29605
370.0 0.002703 284.95676 364.14749
315.0 0.003175 285.04831 362.16617
369.0 0.002710 285.13989 359.63327
331.0 0.003021 285.23163 356.89981
355.0 0.002817 285.32343 354.19147
350.0 0.002857 285.41544 351.78583
356.0 0.002809 285.50742 349.83618
337.0 0.002967 285.59940 348.48074
327.0 0.003058 285.69162 347.68246
330.0 0.003030 285.78384 347.40198
357.0 0.002801 285.87622 347.59329
351.0 0.002849 285.96869 348.04596
325.0 0.003077 286.06107 348.61267
332.0 0.003012 286.15369 349.36234
341.0 0.002933 286.24625 350.05096
346.0 0.002890 286.33914 350.77960
337.0 0.002967 286.43195 352.05496
325.0 0.003077 286.52475 353.74643
340.0 0.002941 286.61777 356.11923
347.0 0.002882 286.71075 358.79163
356.0 0.002809 286.80396 361.74762
354.0 0.002825 286.89713 364.59204
354.0 0.002825 286.99036 367.01233
355.0 0.002817 287.08380 368.74573
348.0 0.002874 287.17712 369.52463
352.0 0.002841 287.27066 369.41544
345.0 0.002899 287.36435 368.38998
346.0 0.002890 287.45782 366.69980
347.0 0.002882 287.55167 364.66287
339.0 0.002950 287.64542 362.60025
322.0 0.003106 287.73929 360.90820
340.0 0.002941 287.83319 359.88544
358.0 0.002793 287.92706 359.80450
341.0 0.002933 288.02127 360.73712
347.0 0.002882 288.11530 362.70267
389.0 0.002571 288.20953 365.61771
384.0 0.002604 288.30380 369.28516
360.0 0.002778 288.39804 373.42612
372.0 0.002688 288.49246 377.74438
409.0 0.002445 288.58688 382.05045
393.0 0.002545 288.68149 386.23273
408.0 0.002451 288.77600 390.38983
416.0 0.002404 288.87057 394.74551
453.0 0.002208 288.96533 399.53708
432.0 0.002315 289.06000 404.60281
423.0 0.002364 289.15494 409.80917
423.0 0.002364 289.24973 414.60272
440.0 0.002273 289.34460 418.47159
435.0 0.002299 289.43967 421.05786
414.0 0.002415 289.53461 422.26016
417.0 0.002398 289.62982 422.40982
427.0 0.002342 289.72495 421.90442
423.0 0.002364 289.82001 420.98041
432.0 0.002315 289.91531 420.22638
404.0 0.002475 290.01056 419.60165
449.0 0.002227 290.10596 419.11862
471.0 0.002123 290.20135 418.97644
432.0 0.002315 290.29675 418.55594
447.0 0.002237 290.39221 418.03918
429.0 0.002331 290.48776 417.10620
422.0 0.002370 290.58334 415.84308
413.0 0.002421 290.67899 414.51962
409.0 0.002445 290.77454 413.40012
409.0 0.002445 290.87030 412.91519
405.0 0.002469 290.96597 413.34424
423.0 0.002364 291.06183 414.81818
427.0 0.002342 291.15771 417.32724
406.0 0.002463 291.25342 420.75720
430.0 0.002326 291.34940 424.77994
453.0 0.002208 291.44525 428.96094
444.0 0.002252 291.54129 432.65683
471.0 0.002123 291.63727 435.34344
471.0 0.002123 291.73315 436.56552
461.0 0.002169 291.82925 436.23816
451.0 0.002217 291.92532 434.60815
431.0 0.002320 292.02148 432.15030
418.0 0.002392 292.11752 429.43341
424.0 0.002358 292.21362 426.98663
429.0 0.002331 292.30988 424.94907
444.0 0.002252 292.40604 423.68329
444.0 0.002252 292.50235 422.89792
432.0 0.002315 292.59851 422.27921
434.0 0.002304 292.69476 421.51825
419.0 0.002387 292.79108 420.33899
422.0 0.002370 292.88727 418.75705
452.0 0.002212 292.98364 416.54828
429.0 0.002331 293.07996 413.92349
423.0 0.002364 293.17618 411.02225
428.0 0.002336 293.27264 407.99115
411.0 0.002433 293.36899 405.01620
401.0 0.002494 293.46536 402.26050
377.0 0.002653 293.56177 399.68399
406.0 0.002463 293.65799 397.49988
386.0 0.002591 293.75446 395.80301
383.0 0.002611 293.85080 394.68689
408.0 0.002451 293.94720 394.03174
406.0 0.002463 294.04364 393.68738
400.0 0.002500 294.13995 393.41620
392.0 0.002551 294.23636 393.00189
392.0 0.002551 294.33270 392.32181
373.0 0.002681 294.42917 391.42194
422.0 0.002370 294.52548 390.20261
353.0 0.002833 294.62177 388.80725
367.0 0.002725 294.71811 387.34210
350.0 0.002857 294.81445 386.01041
389.0 0.002571 294.91077 384.92670
351.0 0.002849 295.00714 384.25204
384.0 0.002604 295.10327 384.06638
370.0 0.002703 295.19962 384.52817
388.0 0.002577 295.29584 385.28464
397.0 0.002519 295.39206 386.43063
336.0 0.002976 295.48828 387.95520
378.0 0.002646 295.58438 389.76120
391.0 0.002558 295.68057 391.75058
366.0 0.002732 295.77664 393.73245
399.0 0.002506 295.87274 395.73764
401.0 0.002494 295.96887 397.73215
376.0 0.002660 296.06476 399.88882
371.0 0.002695 296.16089 402.29773
419.0 0.002387 296.25671 405.15768
395.0 0.002532 296.35272 408.55569
390.0 0.002564 296.44855 412.45444
368.0 0.002717 296.54428 416.73584
409.0 0.002445 296.64017 421.14880
425.0 0.002353 296.73587 425.45261
440.0 0.002273 296.83160 429.39056
382.0 0.002618 296.92719 432.71759
427.0 0.002342 297.02264 435.31985
426.0 0.002347 297.11829 437.23657
418.0 0.002392 297.21368 438.60992
419.0 0.002387 297.30917 439.75613
447.0 0.002237 297.40454 440.91238
450.0 0.002222 297.49979 442.25476
421.0 0.002375 297.59506 443.73987
433.0 0.002309 297.69012 445.16949
463.0 0.002160 297.78540 446.54306
461.0 0.002169 297.88043 447.91296
455.0 0.002198 297.97525 449.25433
452.0 0.002212 298.07013 450.78946
453.0 0.002208 298.16486 452.66061
436.0 0.002294 298.25970 454.98083
451.0 0.002217 298.35440 457.80582
461.0 0.002169 298.44882 461.11209
461.0 0.002169 298.54337 464.86823
468.0 0.002137 298.63773 468.71487
505.0 0.001980 298.73206 472.25650
508.0 0.001969 298.82632 474.71069
484.0 0.002066 298.92035 475.42166
462.0 0.002165 299.01443 474.09445
472.0 0.002119 299.10831 470.63766
460.0 0.002174 299.20218 465.38208
459.0 0.002179 299.29593 458.84644
460.0 0.002174 299.38943 451.52728
455.0 0.002198 299.48294 443.87170
395.0 0.002532 299.57639 436.24127
416.0 0.002404 299.66971 428.98099
412.0 0.002427 299.76285 422.47168
397.0 0.002519 299.85587 416.89835
388.0 0.002577 299.94879 412.44659
393.0 0.002545 300.04160 409.11090
393.0 0.002545 300.13437 406.82629
385.0 0.002597 300.22690 405.44290
392.0 0.002551 300.31924 404.83444
394.0 0.002538 300.41159 404.81287
409.0 0.002445 300.50372 405.36011
398.0 0.002513 300.59583 406.44876
382.0 0.002618 300.68774 408.09604
429.0 0.002331 300.77930 410.41943
437.0 0.002288 300.87103 413.22684
422.0 0.002370 300.96240 416.57861
389.0 0.002571 301.05383 420.32776
428.0 0.002336 301.14490 424.22623
478.0 0.002092 301.23590 427.83862
451.0 0.002217 301.32672 430.71069
409.0 0.002445 301.41739 432.55798
454.0 0.002203 301.50793 433.28336
462.0 0.002165 301.59836 433.16513
442.0 0.002262 301.68842 432.79959
446.0 0.002242 301.77847 432.92334
411.0 0.002433 301.86823 434.26151
436.0 0.002294 301.95801 437.44678
441.0 0.002268 302.04745 442.90540
451.0 0.002217 302.13663 450.84583
448.0 0.002232 302.22574 461.59854
489.0 0.002045 302.31464 474.98145
542.0 0.001845 302.40338 490.73709
593.0 0.001686 302.49194 507.97784
629.0 0.001590 302.58023 525.80115
660.0 0.001515 302.66833 542.90173
681.0 0.001468 302.75623 557.35345
613.0 0.001631 302.84390 567.59637
618.0 0.001618 302.93149 572.26068
624.0 0.001603 303.01862 570.84314
588.0 0.001701 303.10580 563.71252
550.0 0.001818 303.19260 551.86841
519.0 0.001927 303.27921 536.81860
512.0 0.001953 303.36557 519.93298
475.0 0.002105 303.45169 502.34497
439.0 0.002278 303.53766 485.05011
430.0 0.002326 303.62329 468.84552
425.0 0.002353 303.70886 454.26526
403.0 0.002481 303.79398 441.70828
367.0 0.002725 303.87891 431.29968
375.0 0.002667 303.96362 423.21710
368.0 0.002717 304.04803 417.60580
386.0 0.002591 304.13226 414.42596
409.0 0.002445 304.21616 413.92426
407.0 0.002457 304.29984 415.96930
417.0 0.002398 304.38327 420.45822
441.0 0.002268 304.46634 427.30969
442.0 0.002262 304.54919 436.28171
467.0 0.002141 304.63171 447.10864
473.0 0.002114 304.71393 459.39236
493.0 0.002028 304.79611 472.79489
536.0 0.001866 304.87772 486.62262
542.0 0.001845 304.95917 500.22485
567.0 0.001764 305.04031 512.68640
544.0 0.001838 305.12097 523.20844
539.0 0.001855 305.20157 530.91248
577.0 0.001733 305.28165 535.37408
562.0 0.001779 305.36163 536.56445
559.0 0.001789 305.44125 534.90527
518.0 0.001931 305.52042 530.84949
536.0 0.001866 305.59940 524.90454
554.0 0.001805 305.67792 517.55676
541.0 0.001848 305.75629 509.29407
517.0 0.001934 305.83417 500.82742
485.0 0.002062 305.91165 492.81467
458.0 0.002183 305.98898 485.81528
497.0 0.002012 306.06586 480.35257
432.0 0.002315 306.14243 476.94839
464.0 0.002155 306.21860 475.32394
489.0 0.002045 306.29437 475.56265
495.0 0.002020 306.36987 477.52655
528.0 0.001894 306.44495 480.79761
542.0 0.001845 306.51974 484.98541
510.0 0.001961 306.59406 489.70578
578.0 0.001730 306.66791 494.56268
579.0 0.001727 306.74155 499.20755
598.0 0.001672 306.81467 503.09290
581.0 0.001721 306.88751 505.65222
580.0 0.001724 306.95987 506.45908
540.0 0.001852 307.03174 504.76053
518.0 0.001931 307.10336 500.59122
506.0 0.001976 307.17450 494.33408
514.0 0.001946 307.24533 486.47934
494.0 0.002024 307.31564 477.84009
435.0 0.002299 307.38541 469.15939
419.0 0.002387 307.45490 460.99643
446.0 0.002242 307.52386 453.73254
446.0 0.002242 307.59253 447.62933
429.0 0.002331 307.66068 442.69012
436.0 0.002294 307.72827 438.93463
432.0 0.002315 307.79559 436.31873
431.0 0.002320 307.86230 434.87738
426.0 0.002347 307.92859 434.78909
418.0 0.002392 307.99442 435.87808
414.0 0.002415 308.05969 438.28662
407.0 0.002457 308.12469 442.07571
422.0 0.002370 308.18900 447.28275
458.0 0.002183 308.25299 453.48746
488.0 0.002049 308.31641 460.46530
516.0 0.001938 308.37930 468.00793
534.0 0.001873 308.44165 475.62402
520.0 0.001923 308.50351 482.88660
549.0 0.001821 308.56497 489.30594
552.0 0.001812 308.62579 494.35248
541.0 0.001848 308.68604 497.52304
518.0 0.001931 308.74591 498.44690
517.0 0.001934 308.80518 497.04495
515.0 0.001942 308.86389 493.40335
491.0 0.002037 308.92209 488.17300
470.0 0.002128 308.97964 481.78809
469.0 0.002132 309.03671 474.85266
459.0 0.002179 309.09326 468.07898
414.0 0.002415 309.14917 461.73965
469.0 0.002132 309.20459 456.08591
439.0 0.002278 309.25931 451.06198
414.0 0.002415 309.31348 446.52051
438.0 0.002283 309.36703 442.33115
437.0 0.002288 309.42014 438.45877
427.0 0.002342 309.47253 434.88821
410.0 0.002439 309.52429 431.61960
372.0 0.002688 309.57547 429.07617
422.0 0.002370 309.62601 427.24063
428.0 0.002336 309.67599 426.04025
416.0 0.002404 309.72534 425.49240
415.0 0.002410 309.77393 425.53528
407.0 0.002457 309.82196 426.15405
405.0 0.002469 309.86929 427.31976
461.0 0.002169 309.91602 428.96133
440.0 0.002273 309.96213 431.08398
443.0 0.002257 310.00745 433.66354
466.0 0.002146 310.05222 436.64642
449.0 0.002227 310.09622 439.90375
463.0 0.002160 310.13956 443.27286
462.0 0.002165 310.18222 446.58557
504.0 0.001984 310.22412 449.62616
509.0 0.001965 310.26544 452.30478
493.0 0.002028 310.30597 454.50409
505.0 0.001980 310.34579 455.83749
473.0 0.002114 310.38492 456.37585
462.0 0.002165 310.42325 455.80945
465.0 0.002151 310.46085 454.40857
464.0 0.002155 310.49774 452.24438
404.0 0.002475 310.53391 449.66562
423.0 0.002364 310.56924 446.99652
448.0 0.002232 310.60388 444.53348
437.0 0.002288 310.63776 442.48718
427.0 0.002342 310.67081 441.26816
413.0 0.002421 310.70309 440.93246
403.0 0.002481 310.73456 441.70200
431.0 0.002320 310.76523 443.63248
458.0 0.002183 310.79514 446.65930
444.0 0.002252 310.82419 450.56067
481.0 0.002079 310.85245 455.02643
491.0 0.002037 310.87991 459.60690
479.0 0.002088 310.90652 463.79654
462.0 0.002165 310.93228 467.09744
456.0 0.002193 310.95715 469.11075
454.0 0.002203 310.98123 469.54233
470.0 0.002128 311.00446 468.40256
438.0 0.002283 311.02670 465.86826
419.0 0.002387 311.04822 462.23126
443.0 0.002257 311.06873 457.87354
431.0 0.002320 311.08841 452.91406
420.0 0.002381 311.10718 448.16327
396.0 0.002525 311.12506 443.80368
405.0 0.002469 311.14200 439.85309
417.0 0.002398 311.15805 436.34531
406.0 . . .
loop_
_refln_index_h
_refln_index_k
_refln_index_l
_pd_refln_wavelength_id
_refln_observed_status
_refln_F_squared_meas
_refln_F_squared_calc
_refln_phase_calc
_refln_d_spacing
_gsas_i100_meas
0 2 0 1 o 38277.59 35569.36 0.00 6.66548 11.91
0 2 0 2 o 38721.33 35569.36 0.00 6.66548 6.00
1 1 1 1 o 21346.520 20846.713 0.00 6.06021 18.47
1 1 1 2 o 20917.850 20846.713 0.00 6.06021 8.99
2 0 0 1 o 1446.667 2310.749 180.00 4.83346 0.00
2 0 0 2 o 1446.667 2310.749 180.00 4.83346 0.00
0 0 2 1 o 44368.64 48120.29 0.00 4.78902 4.38
0 0 2 2 o 45481.42 48120.29 0.00 4.78902 2.26
1 2 1 1 o 3669.891 3858.116 0.00 4.76139 0.92
1 2 1 2 o 3450.885 3858.116 0.00 4.76139 0.39
2 1 0 1 o 165365.47 166424.50 180.00 4.54400 36.07
2 1 0 2 o 164397.14 166424.50 180.00 4.54400 17.82
1 0 2 1 o 236198.80 238020.89 0.00 4.29129 45.90
1 0 2 2 o 234905.55 238020.89 0.00 4.29129 22.69
2 1 1 1 o 117969.02 111216.29 0.00 4.10542 43.29
2 1 1 2 o 116021.94 111216.29 0.00 4.10542 21.13
1 1 2 1 o 118561.42 115525.93 0.00 4.08486 42.73
1 1 2 2 o 119191.59 115525.93 0.00 4.08486 21.39
0 3 1 1 o 486615.2 494641.0 180.00 4.03096 100.00
0 3 1 2 o 490987.7 494641.0 180.00 4.03096 50.27
2 2 0 1 o 87989.80 83805.74 180.00 3.91294 15.20
2 2 0 2 o 85218.60 83805.74 180.00 3.91294 7.28
0 2 2 1 o 50891.46 50210.98 0.00 3.88925 8.59
0 2 2 2 o 50645.22 50210.98 0.00 3.88925 4.25
1 3 1 1 o 83384.91 80220.47 180.00 3.72047 28.78
1 3 1 2 o 81907.59 80220.47 180.00 3.72047 14.03
2 2 1 1 o 199095.45 193233.00 180.00 3.62232 58.43
2 2 1 2 o 197238.14 193233.00 180.00 3.62232 28.75
1 2 2 1 o 267.330 239.390 0.00 3.60818 0.08
1 2 2 2 o 190.615 239.390 0.00 3.60818 0.03
2 0 2 1 o 166282.03 152960.86 180.00 3.40195 21.49
2 0 2 2 o 160886.58 152960.86 180.00 3.40195 10.32
0 4 0 1 o 142340.30 129873.09 180.00 3.33274 11.22
0 4 0 2 o 141221.31 129873.09 180.00 3.33274 5.53
2 1 2 1 o 17583.434 17900.035 180.00 3.29631 4.18
2 1 2 2 o 17442.262 17900.035 180.00 3.29631 2.06
2 3 0 1 o 39934.48 43442.57 180.00 3.27128 4.77
2 3 0 2 o 37458.97 43442.57 180.00 3.27128 2.20
0 1 3 1 o 146850.25 149148.50 180.00 3.10488 14.67
0 1 3 2 o 146466.11 149148.50 180.00 3.10488 7.27
2 3 1 1 o 49273.86 49894.76 0.00 3.09570 10.73
2 3 1 2 o 50245.91 49894.76 0.00 3.09570 5.46
1 3 2 1 o 26971.607 26715.188 0.00 3.08686 5.87
1 3 2 2 o 26354.143 26715.188 0.00 3.08686 2.84
2 2 2 1 o 60731.73 61228.06 180.00 3.03011 11.81
2 2 2 2 o 58845.72 61228.06 180.00 3.03011 5.66
1 4 1 1 o 17557.801 17619.625 180.00 2.99297 3.97
1 4 1 2 o 17183.754 17619.625 180.00 2.99297 1.93
3 1 1 1 o 61072.42 61057.25 0.00 2.97697 11.50
3 1 1 2 o 60133.82 61057.25 0.00 2.97697 5.62
1 1 3 1 o 1932.871 2504.229 0.00 2.95614 0.29
1 1 3 2 o 946.923 2504.229 0.00 2.95614 0.04
3 2 1 1 o 36908.60 36489.33 180.00 2.77652 6.16
3 2 1 2 o 36747.37 36489.33 180.00 2.77652 3.05
1 2 3 1 o 121360.80 131149.67 0.00 2.75959 19.53
1 2 3 2 o 120106.01 131149.67 0.00 2.75959 9.60
2 4 0 1 o 94587.55 99476.08 180.00 2.74373 8.43
2 4 0 2 o 92354.35 99476.08 180.00 2.74373 4.08
0 4 2 1 o 24498.422 26873.822 0.00 2.73553 2.27
0 4 2 2 o 22573.248 26873.822 0.00 2.73553 1.03
2 3 2 1 o 3906.773 4612.460 180.00 2.70123 0.65
2 3 2 2 o 4491.434 4612.460 180.00 2.70123 0.38
3 0 2 1 o 97089.84 92347.97 0.00 2.67346 6.94
3 0 2 2 o 96152.52 92347.97 0.00 2.67346 3.41
2 4 1 1 o 28629.680 28496.785 0.00 2.63764 4.52
1 4 2 1 o 29372.396 29917.660 180.00 2.63217 4.49
2 4 1 2 o 27941.434 28496.785 0.00 2.63764 2.18
1 4 2 2 o 29644.650 29917.660 180.00 2.63217 2.26
3 1 2 1 o 33397.676 33211.281 180.00 2.62127 4.43
3 1 2 2 o 33564.277 33211.281 180.00 2.62127 2.22
2 1 3 1 o 34761.348 34224.414 0.00 2.61233 4.68
2 1 3 2 o 34248.324 34224.414 0.00 2.61233 2.29
0 3 3 1 o 144.761 174.062 180.00 2.59284 0.01
0 3 3 2 o 226.407 174.062 180.00 2.59284 0.01
0 5 1 1 o 63093.30 59023.32 180.00 2.56853 4.91
0 5 1 2 o 62263.67 59023.32 180.00 2.56853 2.40
3 3 1 1 o 26463.287 24821.268 180.00 2.51695 3.54
3 3 1 2 o 25625.305 24821.268 180.00 2.51695 1.69
1 3 3 1 o 140245.36 141210.16 180.00 2.50432 18.42
1 3 3 2 o 135223.28 141210.16 180.00 2.50432 8.77
1 5 1 1 o 5342.601 5619.733 180.00 2.48240 0.79
3 2 2 1 o 12350.236 12880.570 180.00 2.48131 1.38
1 5 1 2 o 5466.479 5619.733 180.00 2.48240 0.40
3 2 2 2 o 12782.777 12880.570 180.00 2.48131 0.72
2 2 3 1 o 22394.447 22207.449 0.00 2.47373 2.63
2 2 3 2 o 23143.727 22207.449 0.00 2.47373 1.36
4 0 0 1 o 38749.38 33148.555 180.00 2.41673 1.08
4 0 0 2 o 35557.42 33148.555 180.00 2.41673 0.48
0 0 4 1 o 62953.42 59010.84 180.00 2.39451 1.76
0 0 4 2 o 61542.18 59010.84 180.00 2.39451 0.85
2 4 2 1 o 30594.891 30254.078 180.00 2.38069 3.46
4 1 0 1 o 12106.038 12128.693 180.00 2.37797 0.69
2 4 2 2 o 29784.125 30254.078 180.00 2.38069 1.66
4 1 0 2 o 11710.725 12128.693 180.00 2.37797 0.33
2 5 0 1 o 165823.69 151482.34 0.00 2.33457 10.29
2 5 0 2 o 157790.98 151482.34 0.00 2.33457 4.82
1 0 4 1 o 41381.11 38589.26 0.00 2.32427 2.02
1 0 4 2 o 42517.99 38589.26 0.00 2.32427 1.04
4 1 1 1 o 183327.86 178390.64 180.00 2.30790 18.91
4 1 1 2 o 181524.86 178390.64 180.00 2.30790 9.30
3 3 2 1 o 36827.45 34993.504 180.00 2.29082 4.33
1 1 4 1 o 4861.014 4675.664 0.00 2.28973 0.43
3 3 2 2 o 36816.07 34993.504 180.00 2.29082 2.15
2 3 3 1 o 31253.965 29840.012 0.00 2.28485 3.20
1 1 4 2 o 4885.717 4675.664 0.00 2.28973 0.21
2 3 3 2 o 31532.289 29840.012 0.00 2.28485 1.61
4 2 0 1 o 73523.45 70443.81 0.00 2.27200 3.61
2 5 1 1 o 41540.05 41485.51 0.00 2.26816 4.80
4 2 0 2 o 69440.89 70443.81 0.00 2.27200 1.67
1 5 2 1 o 48740.12 49761.35 180.00 2.26468 5.16
2 5 1 2 o 40342.45 41485.51 0.00 2.26816 2.30
1 5 2 2 o 48582.52 49761.35 180.00 2.26468 2.56
0 2 4 1 o 70579.32 69534.93 0.00 2.25351 3.53
3 4 1 1 o 5551.753 5505.945 0.00 2.25165 0.60
0 2 4 2 o 70127.46 69534.93 0.00 2.25351 1.74
3 4 1 2 o 5603.347 5505.945 0.00 2.25165 0.30
1 4 3 1 o 21074.334 20772.570 180.00 2.24259 2.26
1 4 3 2 o 20620.381 20772.570 180.00 2.24259 1.09
3 1 3 1 o 52307.35 52438.04 0.00 2.23584 4.62
3 1 3 2 o 54660.73 52438.04 0.00 2.23584 2.43
0 6 0 1 o 264791.38 228627.73 0.00 2.22183 7.99
0 6 0 2 o 252121.84 228627.73 0.00 2.22183 3.75
4 2 1 1 o 11994.481 11424.072 180.00 2.21066 1.23
4 2 1 2 o 11700.219 11424.072 180.00 2.21066 0.59
1 2 4 1 o 9137.257 8746.124 0.00 2.19467 0.84
1 2 4 2 o 10557.607 8746.124 0.00 2.19467 0.50
4 0 2 1 o 461.064 63.384 180.00 2.15757 0.04
4 0 2 2 o 177.113 63.384 180.00 2.15757 0.01
3 2 3 1 o 8026.593 7232.286 180.00 2.14708 0.51
2 0 4 1 o 11586.490 10541.576 180.00 2.14565 0.40
3 2 3 2 o 7288.141 7232.286 180.00 2.14708 0.21
2 0 4 2 o 10883.567 10541.576 180.00 2.14565 0.18
4 1 2 1 o 6390.502 5881.604 180.00 2.12985 0.66
4 1 2 2 o 6303.746 5881.604 180.00 2.12985 0.33
4 3 0 1 o 943.994 916.941 180.00 2.12306 0.04
2 1 4 1 o 121162.02 117017.34 0.00 2.11838 10.72
4 3 0 2 o 942.805 916.941 180.00 2.12306 0.02
2 1 4 2 o 118911.90 117017.34 0.00 2.11838 5.22
1 6 1 1 o 72.623 71.269 180.00 2.11207 0.01
1 6 1 2 o 68.194 71.269 180.00 2.11207 0.00
2 5 2 1 o 31044.092 28421.512 0.00 2.09850 3.28
2 5 2 2 o 30918.676 28421.512 0.00 2.09850 1.63
3 4 2 1 o 102450.97 103148.88 180.00 2.08540 8.85
2 4 3 1 o 6810.822 7031.021 180.00 2.08089 0.61
3 4 2 2 o 100455.59 103148.88 180.00 2.08540 4.29
2 4 3 2 o 6568.909 7031.021 180.00 2.08089 0.29
4 3 1 1 o 9956.369 9788.262 0.00 2.07275 0.87
4 3 1 2 o 9315.045 9788.262 0.00 2.07275 0.40
1 3 4 1 o 6380.915 5869.810 0.00 2.05955 0.56
1 3 4 2 o 6297.433 5869.810 0.00 2.05955 0.28
4 2 2 1 o 68530.84 64001.64 0.00 2.05271 5.74
4 2 2 2 o 64882.14 64001.64 0.00 2.05271 2.68
0 5 3 1 o 48496.35 49072.15 180.00 2.04645 2.33
2 2 4 1 o 24171.941 24974.219 180.00 2.04243 1.92
0 5 3 2 o 46913.44 49072.15 180.00 2.04645 1.11
2 2 4 2 o 22552.400 24974.219 180.00 2.04243 0.88
3 3 3 1 o 16462.742 15549.328 180.00 2.02007 1.20
2 6 0 1 o 53866.59 51030.35 180.00 2.01876 2.63
0 6 2 1 o 85548.92 83167.84 0.00 2.01548 4.04
3 3 3 2 o 15917.439 15549.328 180.00 2.02007 0.57
2 6 0 2 o 52300.70 51030.35 180.00 2.01876 1.26
0 6 2 2 o 84312.84 83167.84 0.00 2.01548 1.98
3 5 1 1 o 479.296 436.060 180.00 2.00852 0.05
3 5 1 2 o 414.954 436.060 180.00 2.00852 0.02
1 5 3 1 o 21674.875 22746.473 180.00 2.00208 1.82
1 5 3 2 o 21028.654 22746.473 180.00 2.00208 0.87
2 6 1 1 o 85738.45 84271.52 0.00 1.97536 7.75
1 6 2 1 o 81028.78 83101.84 0.00 1.97305 7.24
2 6 1 2 o 79975.70 84271.52 0.00 1.97536 3.55
1 6 2 2 o 77874.86 83101.84 0.00 1.97305 3.43
4 4 0 1 o 322724.00 333906.50 0.00 1.95647 12.29
4 4 0 2 o 318648.63 333906.50 0.00 1.95647 6.02
0 4 4 1 o 176443.47 191700.47 0.00 1.94463 6.30
4 3 2 1 o 6418.166 7231.194 180.00 1.94088 0.58
0 4 4 2 o 177273.70 191700.47 0.00 1.94463 3.15
4 3 2 2 o 6814.516 7231.194 180.00 1.94088 0.31
2 3 4 1 o 46759.70 45624.32 0.00 1.93219 3.63
2 3 4 2 o 46169.93 45624.32 0.00 1.93219 1.78
3 0 4 1 o 397.924 865.156 180.00 1.92195 0.02
3 0 4 2 o 930.892 865.156 180.00 1.92195 0.02
4 4 1 1 o 3704.457 3432.666 0.00 1.91689 0.30
4 4 1 2 o 3574.598 3432.666 0.00 1.91689 0.14
4 1 3 1 o 11011.809 11091.350 180.00 1.90711 0.79
1 4 4 1 o 2390.348 2427.663 0.00 1.90644 0.20
4 1 3 2 o 10600.051 11091.350 180.00 1.90711 0.38
3 1 4 1 o 20480.471 21428.236 180.00 1.90228 1.50
1 4 4 2 o 2326.678 2427.663 0.00 1.90644 0.10
3 1 4 2 o 20636.996 21428.236 180.00 1.90228 0.75
0 1 5 1 o 125255.93 128668.41 180.00 1.89613 4.10
0 1 5 2 o 125418.83 128668.41 180.00 1.89613 2.04
3 5 2 1 o 41591.44 42690.79 0.00 1.88785 2.98
2 5 3 1 o 28012.877 27877.514 0.00 1.88450 2.02
3 5 2 2 o 43499.80 42690.79 0.00 1.88785 1.57
2 5 3 2 o 28303.248 27877.514 0.00 1.88450 1.02
5 1 1 1 o 519.423 523.341 180.00 1.87629 0.01
3 4 3 1 o 20770.432 21505.191 0.00 1.87500 1.55
5 1 1 2 o 521.635 523.341 180.00 1.87629 0.00
3 4 3 2 o 22158.543 21505.191 0.00 1.87500 0.83
0 7 1 1 o 44180.84 40014.42 0.00 1.86786 1.96
0 7 1 2 o 43510.16 40014.42 0.00 1.86786 0.96
1 1 5 1 o 31071.217 31257.119 180.00 1.86068 1.96
2 6 2 1 o 20399.854 20806.732 180.00 1.86023 1.42
1 1 5 2 o 28376.891 31257.119 180.00 1.86068 0.87
2 6 2 2 o 18985.873 20806.732 180.00 1.86023 0.64
4 2 3 1 o 5817.323 6221.516 0.00 1.85113 0.42
3 2 4 1 o 36990.57 37584.88 180.00 1.84671 2.44
4 2 3 2 o 6118.574 6221.516 0.00 1.85113 0.22
3 2 4 2 o 35377.83 37584.88 180.00 1.84671 1.15
1 7 1 1 o 27253.336 28965.479 0.00 1.83394 2.18
1 7 1 2 o 26893.682 28965.479 0.00 1.83394 1.07
5 2 1 1 o 78777.95 77044.45 180.00 1.82291 5.21
5 2 1 2 o 78890.87 77044.45 180.00 1.82291 2.59
4 4 2 1 o 124237.43 121120.10 0.00 1.81116 8.48
1 2 5 1 o 26649.162 26221.561 180.00 1.80858 1.93
4 4 2 2 o 121727.68 121120.10 0.00 1.81116 4.12
1 2 5 2 o 25660.428 26221.561 180.00 1.80858 0.92
2 4 4 1 o 53489.89 54610.66 180.00 1.80409 3.84
2 4 4 2 o 55170.64 54610.66 180.00 1.80409 1.98
3 6 1 1 o 44032.72 41941.73 0.00 1.79669 3.42
5 0 2 1 o 12812.846 12467.496 180.00 1.79280 0.37
3 6 1 2 o 42574.67 41941.73 0.00 1.79669 1.64
1 6 3 1 o 83093.83 82257.45 180.00 1.79207 6.13
4 5 0 1 o 5351.066 5405.479 0.00 1.79060 0.16
5 0 2 2 o 11912.022 12467.496 180.00 1.79280 0.17
1 6 3 2 o 77711.88 82257.45 180.00 1.79207 2.83
4 5 0 2 o 4962.310 5405.479 0.00 1.79060 0.07
5 1 2 1 o 70324.75 67560.16 180.00 1.77680 4.08
5 1 2 2 o 70808.43 67560.16 180.00 1.77680 2.05
2 7 0 1 o 6051.591 5715.240 180.00 1.77185 0.25
4 3 3 1 o 99315.53 99697.70 180.00 1.76787 5.85
2 7 0 2 o 5708.683 5715.240 180.00 1.77185 0.12
2 1 5 1 o 10859.039 10794.751 0.00 1.76517 0.62
3 3 4 1 o 2108.749 2106.192 180.00 1.76402 0.13
4 3 3 2 o 99969.87 99697.70 180.00 1.76787 2.93
2 1 5 2 o 10745.541 10794.751 0.00 1.76517 0.30
4 5 1 1 o 23039.484 23052.850 180.00 1.76011 1.46
3 3 4 2 o 2118.827 2106.192 180.00 1.76402 0.06
0 3 5 1 o 73875.07 72616.45 0.00 1.75911 2.25
4 5 1 2 o 22608.119 23052.850 180.00 1.76011 0.71
0 3 5 2 o 71441.49 72616.45 0.00 1.75911 1.07
1 5 4 1 o 25757.264 26690.652 180.00 1.75200 1.64
1 5 4 2 o 25135.365 26690.652 180.00 1.75200 0.79
5 3 1 1 o 3022.139 2998.819 0.00 1.74324 0.15
2 7 1 1 o 49866.06 49808.89 0.00 1.74229 3.32
1 7 2 1 o 57.525 57.557 0.00 1.74071 0.00
5 3 1 2 o 2824.059 2998.819 0.00 1.74324 0.07
2 7 1 2 o 46602.20 49808.89 0.00 1.74229 1.52
1 7 2 2 o 54.431 57.557 0.00 1.74071 0.00
5 2 2 1 o 12801.778 13488.999 0.00 1.73127 0.71
1 3 5 1 o 7396.800 7652.914 180.00 1.73069 0.40
3 5 3 1 o 8885.913 9451.509 0.00 1.72751 0.61
5 2 2 2 o 12708.694 13488.999 0.00 1.73127 0.35
1 3 5 2 o 7215.631 7652.914 180.00 1.73069 0.19
3 5 3 2 o 9151.804 9451.509 0.00 1.72751 0.31
2 2 5 1 o 160160.94 160597.36 0.00 1.72050 8.86
2 2 5 2 o 155015.13 160597.36 0.00 1.72050 4.24
3 6 2 1 o 12406.534 13003.364 0.00 1.70876 0.71
2 6 3 1 o 12074.771 12678.342 180.00 1.70627 0.71
3 6 2 2 o 12349.439 13003.364 0.00 1.70876 0.35
2 6 3 2 o 12442.212 12678.342 180.00 1.70627 0.37
4 0 4 1 o 348109.78 349895.06 0.00 1.70098 9.53
4 0 4 2 o 339284.66 349895.06 0.00 1.70098 4.60
4 1 4 1 o 19306.693 18087.977 0.00 1.68730 1.15
4 1 4 2 o 19245.332 18087.977 0.00 1.68730 0.57
4 5 2 1 o 5231.083 5354.214 0.00 1.67720 0.35
4 5 2 2 o 5770.614 5354.214 0.00 1.67720 0.19
2 5 4 1 o 115818.64 112029.67 180.00 1.67158 6.44
4 4 3 1 o 164.275 154.344 180.00 1.66817 0.01
2 5 4 2 o 118006.84 112029.67 180.00 1.67158 3.28
0 8 0 1 o 294910.03 285424.09 0.00 1.66637 4.97
3 4 4 1 o 71634.91 70695.39 180.00 1.66493 3.85
4 4 3 2 o 154.859 154.344 180.00 1.66817 0.00
5 3 2 1 o 23759.398 23980.850 180.00 1.66258 1.25
0 8 0 2 o 281945.22 285424.09 0.00 1.66637 2.35
2 7 2 1 o 677.798 691.515 0.00 1.66176 0.05
3 4 4 2 o 69182.19 70695.39 180.00 1.66493 1.83
5 3 2 2 o 22490.207 23980.850 180.00 1.66258 0.58
2 7 2 2 o 623.851 691.515 0.00 1.66176 0.03
2 3 5 1 o 31736.090 34010.742 0.00 1.65304 1.63
2 3 5 2 o 33016.754 34010.742 0.00 1.65304 0.85
4 2 4 1 o 11026.833 10871.285 0.00 1.64816 0.59
5 4 1 1 o 8886.617 8588.685 0.00 1.64743 0.46
4 2 4 2 o 11443.881 10871.285 0.00 1.64816 0.31
5 4 1 2 o 9208.964 8588.685 0.00 1.64743 0.24
5 1 3 1 o 84633.90 74349.05 180.00 1.64121 4.50
5 1 3 2 o 81006.93 74349.05 180.00 1.64121 2.13
1 4 5 1 o 218.340 207.371 0.00 1.63683 0.01
4 6 0 1 o 3367.650 3306.418 180.00 1.63564 0.09
0 7 3 1 o 135168.80 132913.25 180.00 1.63555 3.96
3 1 5 1 o 19259.383 19103.127 0.00 1.63419 0.99
1 4 5 2 o 203.653 207.371 0.00 1.63683 0.00
4 6 0 2 o 3157.181 3306.418 180.00 1.63564 0.04
0 7 3 2 o 126996.88 132913.25 180.00 1.63555 1.83
3 1 5 2 o 18340.094 19103.127 0.00 1.63419 0.47
0 6 4 1 o 7480.767 8163.058 180.00 1.62870 0.21
0 6 4 2 o 8803.583 8163.058 180.00 1.62870 0.13
1 8 1 1 o 33563.953 30698.064 0.00 1.61853 2.10
1 7 3 1 o 15328.962 15373.889 0.00 1.61263 0.82
4 6 1 1 o 2650.960 2655.402 0.00 1.61230 0.14
3 7 1 2 o 63515.24 63492.55 0.00 1.61599 1.80
6 0 0 1 o 76012.77 75466.57 180.00 1.61115 0.85
3 7 1 1 o 64426.30 63492.55 0.00 1.61599 3.68
1 8 1 2 o 30970.678 30698.064 0.00 1.61853 0.95
1 7 3 2 o 15371.164 15373.889 0.00 1.61263 0.41
4 6 1 2 o 2654.362 2655.402 0.00 1.61230 0.07
6 0 0 2 o 74573.94 75466.57 180.00 1.61115 0.41
1 6 4 1 o 39156.09 40395.84 0.00 1.60606 2.03
5 2 3 1 o 59941.81 62097.21 180.00 1.60512 2.63
1 6 4 2 o 37879.08 40395.84 0.00 1.60606 0.97
5 2 3 2 o 59365.37 62097.21 180.00 1.60512 1.29
6 1 0 1 o 130281.16 135681.08 0.00 1.59951 3.17
3 2 5 1 o 2068.691 2227.201 180.00 1.59856 0.15
0 0 6 1 o 45761.35 47251.94 180.00 1.59634 0.57
6 1 0 2 o 132573.83 135681.08 0.00 1.59951 1.61
3 2 5 2 o 2176.008 2227.201 180.00 1.59856 0.08
0 0 6 2 o 46682.99 47251.94 180.00 1.59634 0.29
4 3 4 1 o 8767.940 8067.573 0.00 1.58857 0.49
3 6 3 1 o 5991.923 5747.270 0.00 1.58713 0.23
4 3 4 2 o 8918.296 8067.573 0.00 1.58857 0.25
3 6 3 2 o 5869.999 5747.270 0.00 1.58713 0.11
5 4 2 1 o 57690.89 58027.84 0.00 1.57885 2.75
6 1 1 1 o 6679.808 6685.077 0.00 1.57767 0.26
2 8 0 1 o 2668.414 2720.510 180.00 1.57537 0.04
1 0 6 1 o 4459.492 4692.844 180.00 1.57501 0.11
5 4 2 2 o 55429.78 58027.84 0.00 1.57885 1.31
0 8 2 1 o 22231.914 23015.320 0.00 1.57382 0.51
6 1 1 2 o 6452.324 6685.077 0.00 1.57767 0.13
2 8 0 2 o 2656.465 2720.510 180.00 1.57537 0.02
1 0 6 2 o 4435.377 4692.844 180.00 1.57501 0.06
2 4 5 1 o 32152.477 33942.199 180.00 1.57067 1.50
0 8 2 2 o 21753.285 23015.320 0.00 1.57382 0.25
2 4 5 2 o 32458.189 33942.199 180.00 1.57067 0.76
6 2 0 1 o 33153.223 34326.066 180.00 1.56605 0.75
1 1 6 1 o 25299.691 24712.828 180.00 1.56413 1.10
6 2 0 2 o 35359.80 34326.066 180.00 1.56605 0.41
4 5 3 1 o 40087.10 38932.25 180.00 1.56175 1.91
1 1 6 2 o 25315.697 24712.828 180.00 1.56413 0.55
3 5 4 1 o 6429.077 6373.432 0.00 1.55909 0.29
4 5 3 2 o 41798.46 38932.25 180.00 1.56175 1.00
0 5 5 1 o 2784.498 2434.266 180.00 1.55570 0.07
3 5 4 2 o 7075.173 6373.432 0.00 1.55909 0.16
2 8 1 1 o 60405.25 56503.14 180.00 1.55449 3.23
1 8 2 1 o 33210.746 31971.002 0.00 1.55337 1.71
0 2 6 1 o 21419.742 20711.266 0.00 1.55244 0.46
0 5 5 2 o 2507.091 2434.266 180.00 1.55570 0.03
3 7 2 1 o 5.677 5.366 0.00 1.55112 0.00
2 8 1 2 o 56991.68 56503.14 180.00 1.55449 1.50
5 3 3 1 o 12907.708 13004.050 0.00 1.54993 0.65
1 8 2 2 o 31553.012 31971.002 0.00 1.55337 0.80
2 7 3 1 o 29247.072 29811.088 0.00 1.54926 1.51
0 2 6 2 o 20167.602 20711.266 0.00 1.55244 0.21
4 6 2 1 o 20961.916 21715.514 0.00 1.54785 1.04
3 7 2 2 o 4.747 5.366 0.00 1.55112 0.00
5 3 3 2 o 12528.704 13004.050 0.00 1.54993 0.31
6 2 1 1 o 75178.84 77318.92 0.00 1.54553 3.24
2 7 3 2 o 28976.588 29811.088 0.00 1.54926 0.74
5 5 1 1 o 2452.624 2531.873 180.00 1.54469 0.14
4 6 2 2 o 21133.311 21715.514 0.00 1.54785 0.52
3 3 5 1 o 23186.865 23754.576 0.00 1.54402 0.94
2 6 4 1 o 31408.865 32331.168 180.00 1.54343 1.51
6 2 1 2 o 73780.97 77318.92 0.00 1.54553 1.58
5 5 1 2 o 2382.666 2531.873 180.00 1.54469 0.07
3 3 5 2 o 22997.150 23754.576 0.00 1.54402 0.46
2 6 4 2 o 31709.900 32331.168 180.00 1.54343 0.76
1 5 5 1 o 30221.338 31296.496 180.00 1.53594 1.45
1 2 6 1 o 40968.88 41081.06 0.00 1.53280 1.73
1 5 5 2 o 30968.922 31296.496 180.00 1.53594 0.74
1 2 6 2 o 40027.98 41081.06 0.00 1.53280 0.84
6 0 2 1 o 57247.69 57449.16 180.00 1.52705 1.24
6 0 2 2 o 60364.45 57449.16 180.00 1.52705 0.66
6 1 2 1 o 304.276 305.644 0.00 1.51713 0.00
2 0 6 1 o 30145.523 31480.672 180.00 1.51581 0.67
4 4 4 1 o 41760.55 42597.67 180.00 1.51505 1.95
6 3 0 1 o 55761.36 55665.46 0.00 1.51467 1.29
6 1 2 2 o 309.598 305.644 0.00 1.51713 0.00
2 0 6 2 o 31014.768 31480.672 180.00 1.51581 0.35
4 4 4 2 o 42445.89 42597.67 180.00 1.51505 0.99
6 3 0 2 o 56889.89 55665.46 0.00 1.51467 0.66
2 1 6 1 o 30266.301 30866.703 0.00 1.50610 1.19
5 0 4 1 o 692.613 694.895 0.00 1.50426 0.01
2 1 6 2 o 31056.326 30866.703 0.00 1.50610 0.61
5 0 4 2 o 684.971 694.895 0.00 1.50426 0.01
2 8 2 1 o 59558.93 62753.35 180.00 1.49649 3.11
6 3 1 1 o 73910.33 76478.68 0.00 1.49608 3.01
4 7 0 1 o 3777.256 3879.600 180.00 1.49581 0.11
5 1 4 1 o 11426.359 11321.516 180.00 1.49477 0.45
2 8 2 2 o 58341.54 62753.35 180.00 1.49649 1.51
6 3 1 2 o 72947.07 76478.68 0.00 1.49608 1.48
4 7 0 2 o 3730.542 3879.600 180.00 1.49581 0.05
4 1 5 1 o 6845.986 6918.403 0.00 1.49178 0.26
5 1 4 2 o 11427.263 11321.516 180.00 1.49477 0.22
6 2 2 1 o 18198.068 19083.275 180.00 1.48849 0.68
4 1 5 2 o 6631.286 6918.403 0.00 1.49178 0.12
5 5 2 1 o 97364.59 100095.38 0.00 1.48774 4.11
6 2 2 2 o 18358.477 19083.275 180.00 1.48849 0.34
1 3 6 1 o 10466.300 10884.857 180.00 1.48452 0.43
5 5 2 2 o 98323.52 100095.38 0.00 1.48774 2.07
5 4 3 1 o 20546.285 20275.660 0.00 1.48142 0.85
2 5 5 1 o 26548.863 25969.463 0.00 1.48089 1.17
1 3 6 2 o 11131.972 10884.857 180.00 1.48452 0.23
2 2 6 1 o 8055.145 8137.314 180.00 1.47807 0.32
4 7 1 1 o 249323.47 249613.67 180.00 1.47789 11.29
5 4 3 2 o 20398.771 20275.660 0.00 1.48142 0.42
2 5 5 2 o 27126.020 25969.463 0.00 1.48089 0.60
3 4 5 1 o 373.549 351.324 180.00 1.47626 0.02
2 2 6 2 o 8086.852 8137.314 180.00 1.47807 0.16
4 7 1 2 o 250442.44 249613.67 180.00 1.47789 5.65
1 7 4 1 o 88.355 80.794 0.00 1.47309 0.00
3 4 5 2 o 383.449 351.324 180.00 1.47626 0.01
1 7 4 2 o 88.827 80.794 0.00 1.47309 0.00
5 2 4 1 o 21991.010 18145.006 0.00 1.46735 0.88
4 2 5 1 o 5414.384 5211.949 0.00 1.46452 0.21
0 9 1 1 o 71720.66 68980.88 180.00 1.46382 1.73
5 2 4 2 o 18917.000 18145.006 0.00 1.46735 0.37
3 8 1 1 o 9721.638 8961.280 180.00 1.46280 0.43
4 2 5 2 o 5308.703 5211.949 0.00 1.46452 0.10
1 8 3 1 o 33129.340 32945.539 0.00 1.46031 1.45
0 9 1 2 o 69353.07 68980.88 180.00 1.46382 0.83
3 8 1 2 o 8957.572 8961.280 180.00 1.46280 0.19
3 7 3 1 o 101922.50 102040.16 0.00 1.45844 4.25
1 8 3 2 o 33907.055 32945.539 0.00 1.46031 0.74
4 6 3 1 o 57.067 56.637 180.00 1.45572 0.00
3 7 3 2 o 102729.57 102040.16 0.00 1.45844 2.13
3 6 4 1 o 1221.328 1160.995 180.00 1.45357 0.05
4 6 3 2 o 59.981 56.637 180.00 1.45572 0.00
6 4 0 1 o 10765.436 9168.524 180.00 1.45054 0.23
3 6 4 2 o 1429.291 1160.995 180.00 1.45357 0.03
1 9 1 1 o 4439.431 3514.233 180.00 1.44732 0.20
6 4 0 2 o 11810.744 9168.524 180.00 1.45054 0.13
6 3 2 1 o 777.138 612.491 180.00 1.44416 0.05
1 9 1 2 o 3926.319 3514.233 180.00 1.44732 0.09
5 6 1 1 o 34634.477 35712.81 0.00 1.44188 1.49
6 3 2 2 o 565.896 612.491 180.00 1.44416 0.02
0 4 6 1 o 187881.00 194943.44 0.00 1.43971 3.88
5 6 1 2 o 36140.25 35712.81 0.00 1.44188 0.78
0 4 6 2 o 192706.95 194943.44 0.00 1.43971 1.99
1 6 5 1 o 13319.399 12807.648 0.00 1.43475 0.64
2 3 6 1 o 3374.606 3280.294 0.00 1.43464 0.10
6 4 1 1 o 23636.275 22619.566 180.00 1.43419 0.94
4 5 4 1 o 15528.246 14772.312 180.00 1.43400 0.68
1 6 5 2 o 12707.204 12807.648 0.00 1.43475 0.31
2 3 6 2 o 3274.694 3280.294 0.00 1.43464 0.05
6 4 1 2 o 23090.617 22619.566 180.00 1.43419 0.46
4 5 4 2 o 15263.430 14772.312 180.00 1.43400 0.33
3 0 6 1 o 146221.45 141758.16 180.00 1.43043 2.67
6 1 3 1 o 43861.16 41987.18 0.00 1.43008 1.64
4 7 2 1 o 5074.251 5056.772 0.00 1.42778 0.27
3 0 6 2 o 142648.59 141758.16 180.00 1.43043 1.29
6 1 3 2 o 42282.13 41987.18 0.00 1.43008 0.78
5 3 4 1 o 155.001 159.470 180.00 1.42483 0.00
2 7 4 1 o 31.795 37.724 180.00 1.42431 0.00
4 7 2 2 o 4631.582 5056.772 0.00 1.42778 0.12
1 4 6 1 o 104395.95 111609.20 0.00 1.42400 3.90
3 1 6 1 o 17211.848 17483.775 0.00 1.42227 0.63
4 3 5 1 o 195353.06 198226.05 180.00 1.42224 7.19
5 3 4 2 o 159.179 159.470 180.00 1.42483 0.00
2 7 4 2 o 36.722 37.724 180.00 1.42431 0.00
1 4 6 2 o 110087.48 111609.20 0.00 1.42400 2.07
3 1 6 2 o 18036.098 17483.775 0.00 1.42227 0.33
4 3 5 2 o 204680.33 198226.05 180.00 1.42224 3.79
2 9 0 1 o 146881.61 131811.97 180.00 1.41621 3.34
3 8 2 1 o 8417.255 7537.313 0.00 1.41416 0.35
2 8 3 1 o 17813.855 16023.756 0.00 1.41275 0.77
2 9 0 2 o 146718.92 131811.97 180.00 1.41621 1.66
3 8 2 2 o 8503.003 7537.313 0.00 1.41416 0.17
2 8 3 2 o 18136.854 16023.756 0.00 1.41275 0.39
6 2 3 1 o 20664.395 17805.383 180.00 1.40601 0.75
5 5 3 1 o 98.670 47.603 0.00 1.40538 0.01
6 2 3 2 o 21062.570 17805.383 180.00 1.40601 0.38
5 5 3 2 o 86.607 47.603 0.00 1.40538 0.01
2 9 1 1 o 38109.91 34941.676 0.00 1.40098 1.70
3 5 5 1 o 11414.205 10586.713 0.00 1.40097 0.38
1 9 2 1 o 64419.69 58369.53 0.00 1.40016 2.80
3 2 6 1 o 12731.207 11139.967 180.00 1.39859 0.46
2 9 1 2 o 38584.36 34941.676 0.00 1.40098 0.86
3 5 5 2 o 11540.002 10586.713 0.00 1.40097 0.19
1 9 2 2 o 66480.33 58369.53 0.00 1.40016 1.45
5 6 2 1 o 2293.292 1951.674 180.00 1.39523 0.09
3 2 6 2 o 13148.216 11139.967 180.00 1.39859 0.24
5 6 2 2 o 2257.238 1951.674 180.00 1.39523 0.04
2 6 5 1 o 85696.14 85374.57 180.00 1.38957 3.28
6 4 2 1 o 13739.952 13498.248 180.00 1.38826 0.46
2 6 5 2 o 85426.07 85374.57 180.00 1.38957 1.63
6 4 2 2 o 15231.600 13498.248 180.00 1.38826 0.26
2 4 6 1 o 1221.286 1164.504 0.00 1.37980 0.09
6 5 0 1 o 154188.59 149251.27 180.00 1.37894 2.89
2 4 6 2 o 1361.959 1164.504 0.00 1.37980 0.05
6 5 0 2 o 161896.05 149251.27 180.00 1.37894 1.52
4 8 0 1 o 3022.416 2220.861 0.00 1.37187 0.08
5 4 4 1 o 27964.289 23303.744 0.00 1.37107 0.97
4 4 5 1 o 3261.787 2940.269 180.00 1.36876 0.12
4 8 0 2 o 2515.988 2220.861 0.00 1.37187 0.03
6 3 3 1 o 20425.957 18661.570 0.00 1.36847 0.74
0 8 4 1 o 1715.999 1503.924 0.00 1.36776 0.06
5 4 4 2 o 25115.855 23303.744 0.00 1.37107 0.42
4 4 5 2 o 2867.454 2940.269 180.00 1.36876 0.05
6 3 3 2 o 18078.998 18661.570 0.00 1.36847 0.32
6 5 1 1 o 44779.99 46274.99 0.00 1.36486 1.60
0 8 4 2 o 1435.658 1503.924 0.00 1.36776 0.02
3 3 6 1 o 4584.131 4591.239 0.00 1.36162 0.16
6 5 1 2 o 46490.09 46274.99 0.00 1.36486 0.83
0 1 7 1 o 5340.269 5187.400 180.00 1.36114 0.09
7 1 1 1 o 316.871 312.854 180.00 1.35972 0.00
3 3 6 2 o 4590.533 4591.239 0.00 1.36162 0.08
2 9 2 1 o 10306.643 10318.546 180.00 1.35807 0.43
4 8 1 1 o 7941.148 7949.675 180.00 1.35801 0.34
0 1 7 2 o 5187.558 5187.400 180.00 1.36114 0.04
7 1 1 2 o 313.049 312.854 180.00 1.35972 0.00
1 5 6 1 o 37261.89 36798.67 0.00 1.35607 1.29
2 9 2 2 o 10758.422 10318.546 180.00 1.35807 0.23
4 8 1 2 o 8314.349 7949.675 180.00 1.35801 0.18
4 7 3 1 o 78.125 72.521 0.00 1.35452 0.00
1 8 4 1 o 28232.400 26881.678 0.00 1.35428 1.07
5 1 5 1 o 11453.011 10804.555 180.00 1.35375 0.36
3 7 4 1 o 352.051 329.043 0.00 1.35278 0.02
1 5 6 2 o 38658.44 36798.67 0.00 1.35607 0.67
4 7 3 2 o 73.165 72.521 0.00 1.35452 0.00
1 8 4 2 o 26945.109 26881.678 0.00 1.35428 0.50
4 6 4 1 o 89895.43 89532.28 0.00 1.35062 3.06
0 7 5 1 o 242736.91 241531.64 180.00 1.35057 4.47
5 1 5 2 o 10881.426 10804.555 180.00 1.35375 0.17
3 7 4 2 o 335.825 329.043 0.00 1.35278 0.01
1 1 7 1 o 88788.79 89586.62 180.00 1.34784 2.85
4 6 4 2 o 88885.28 89532.28 0.00 1.35062 1.50
0 7 5 2 o 239829.86 241531.64 180.00 1.35057 2.19
1 1 7 2 o 89117.98 89586.62 180.00 1.34784 1.42
0 9 3 1 o 14084.167 14273.853 180.00 1.34365 0.28
5 7 1 1 o 11376.050 11504.335 180.00 1.34334 0.37
3 8 3 1 o 31592.564 31637.426 180.00 1.34287 1.22
0 9 3 2 o 14176.508 14273.853 180.00 1.34365 0.14
5 7 1 2 o 11290.779 11504.335 180.00 1.34334 0.18
3 8 3 2 o 30789.326 31637.426 180.00 1.34287 0.59
7 2 1 1 o 4769.378 4911.916 0.00 1.33899 0.15
1 7 5 1 o 39659.91 42071.88 180.00 1.33758 1.44
6 0 4 1 o 392.050 402.727 180.00 1.33673 0.00
7 2 1 2 o 5008.946 4911.916 0.00 1.33899 0.08
1 7 5 2 o 43787.11 42071.88 180.00 1.33758 0.81
6 0 4 2 o 421.170 402.727 180.00 1.33673 0.00
5 2 5 1 o 1393.698 1324.336 0.00 1.33328 0.04
0 10 0 1 o 25087.943 23470.973 180.00 1.33310 0.25
3 9 1 1 o 1372.552 1226.730 0.00 1.33274 0.08
4 0 6 1 o 93359.68 86957.24 0.00 1.33199 1.46
1 9 3 1 o 22655.809 21957.984 180.00 1.33086 0.87
6 1 4 1 o 40781.44 39945.22 180.00 1.33006 1.23
5 2 5 2 o 1348.012 1324.336 0.00 1.33328 0.02
0 10 0 2 o 23943.572 23470.973 180.00 1.33310 0.12
3 9 1 2 o 1256.472 1226.730 0.00 1.33274 0.04
4 0 6 2 o 87490.06 86957.24 0.00 1.33199 0.67
1 2 7 1 o 25197.473 25441.744 180.00 1.32764 0.67
1 9 3 2 o 21692.488 21957.984 180.00 1.33086 0.41
7 0 2 1 o 123905.60 125606.71 180.00 1.32692 1.91
6 1 4 2 o 39423.70 39945.22 180.00 1.33006 0.58
5 6 3 1 o 24987.320 25313.156 0.00 1.32663 0.77
4 1 6 1 o 49.530 49.661 0.00 1.32539 0.00
6 5 2 1 o 786.175 800.681 180.00 1.32510 0.01
1 2 7 2 o 24684.082 25441.744 180.00 1.32764 0.32
7 0 2 2 o 123350.57 125606.71 180.00 1.32692 0.95
5 6 3 2 o 25112.764 25313.156 0.00 1.32663 0.38
3 6 5 1 o 112.790 111.456 0.00 1.32292 0.01
4 1 6 2 o 49.669 49.661 0.00 1.32539 0.00
6 5 2 2 o 796.837 800.681 180.00 1.32510 0.01
6 4 3 1 o 8444.983 8422.068 0.00 1.32063 0.29
7 1 2 1 o 20905.863 20615.607 0.00 1.32039 0.70
3 6 5 2 o 118.252 111.456 0.00 1.32292 0.01
4 8 2 1 o 2739.170 2745.397 0.00 1.31882 0.07
2 5 6 1 o 57149.34 59106.42 180.00 1.31773 1.88
6 4 3 2 o 8065.641 8422.068 0.00 1.32063 0.14
7 1 2 2 o 19627.828 20615.607 0.00 1.32039 0.32
2 8 4 1 o 9568.941 10087.345 180.00 1.31608 0.28
4 8 2 2 o 2612.599 2745.397 0.00 1.31882 0.03
2 5 6 2 o 53994.30 59106.42 180.00 1.31773 0.87
3 4 6 1 o 2270.990 2492.557 0.00 1.31447 0.07
2 1 7 1 o 2058.938 2181.470 0.00 1.31018 0.06
5 5 4 1 o 10105.871 10719.748 0.00 1.31012 0.30
2 8 4 2 o 9454.300 10087.345 180.00 1.31608 0.14
1 10 1 1 o 771.031 806.077 0.00 1.30822 0.02
4 5 5 1 o 23106.561 24564.482 180.00 1.30811 0.71
0 3 7 1 o 3166.425 3353.075 180.00 1.30770 0.05
3 4 6 2 o 2302.073 2492.557 0.00 1.31447 0.04
6 2 4 2 o 21999.746 23199.492 180.00 1.31063 0.33
6 2 4 1 o 21858.068 23199.492 180.00 1.31063 0.66
2 1 7 2 o 2068.768 2181.470 0.00 1.31018 0.03
5 5 4 2 o 10160.145 10719.748 0.00 1.31012 0.15
7 3 1 1 o 20541.041 21766.973 0.00 1.30644 0.55
4 2 6 1 o 131.951 137.507 0.00 1.30617 0.00
5 7 2 1 o 3050.868 3392.622 180.00 1.30538 0.12
1 10 1 2 o 759.004 806.077 0.00 1.30822 0.01
4 5 5 2 o 22472.887 24564.482 180.00 1.30811 0.34
0 3 7 2 o 3016.658 3353.075 180.00 1.30770 0.02
6 6 0 1 o 79180.77 88527.91 180.00 1.30431 1.32
7 3 1 2 o 19395.621 21766.973 0.00 1.30644 0.25
4 2 6 2 o 127.989 137.507 0.00 1.30617 0.00
5 7 2 2 o 2966.663 3392.622 180.00 1.30538 0.06
7 2 2 1 o 4.446 6.790 180.00 1.30138 0.00
5 3 5 1 o 35429.31 38720.68 180.00 1.30114 1.14
6 6 0 2 o 81160.04 88527.91 180.00 1.30431 0.68
2 7 5 1 o 4392.380 4771.066 0.00 1.30074 0.14
7 2 2 2 o 4.837 6.790 180.00 1.30138 0.00
5 3 5 2 o 36588.50 38720.68 180.00 1.30114 0.59
2 7 5 2 o 4650.281 4771.066 0.00 1.30074 0.08
0 6 6 1 o 712.145 721.072 180.00 1.29642 0.01
1 3 7 1 o 3585.612 3674.268 0.00 1.29590 0.12
3 9 2 1 o 17910.520 18288.604 180.00 1.29565 0.58
2 9 3 1 o 15753.532 16052.503 0.00 1.29456 0.53
0 6 6 2 o 700.180 721.072 180.00 1.29642 0.00
1 3 7 2 o 3486.267 3674.268 0.00 1.29590 0.06
3 9 2 2 o 17392.061 18288.604 180.00 1.29565 0.28
6 6 1 1 o 39160.56 41500.20 180.00 1.29239 1.26
2 2 7 1 o 4393.916 4898.016 0.00 1.29160 0.16
2 9 3 2 o 14603.144 16052.503 0.00 1.29456 0.24
6 6 1 2 o 37665.44 41500.20 180.00 1.29239 0.60
2 2 7 2 o 4490.576 4898.016 0.00 1.29160 0.08
2 10 0 1 o 34250.043 35785.64 180.00 1.28511 0.60
1 6 6 1 o 1145.865 1202.725 0.00 1.28491 0.04
0 10 2 1 o 5187.306 5364.339 0.00 1.28427 0.09
2 10 0 2 o 32123.871 35785.64 180.00 1.28511 0.27
1 6 6 2 o 1064.835 1202.725 0.00 1.28491 0.02
0 10 2 2 o 4670.546 5364.339 0.00 1.28427 0.04
6 3 4 1 o 6367.781 6895.792 180.00 1.28007 0.16
6 3 4 2 o 7060.299 6895.792 180.00 1.28007 0.09
4 3 6 1 o 3.578 0.193 180.00 1.27590 0.00
2 10 1 1 o 14217.628 14748.062 180.00 1.27370 0.53
1 10 2 1 o 27566.881 28886.617 180.00 1.27308 1.01
4 3 6 2 o -1.091 0.193 180.00 1.27590 0.00
7 3 2 1 o 3701.440 3942.341 0.00 1.27144 0.11
2 10 1 2 o 13272.957 14748.062 180.00 1.27370 0.24
1 10 2 2 o 25445.436 28886.617 180.00 1.27308 0.46
4 7 4 1 o 930.242 1071.890 180.00 1.26862 0.04
7 3 2 2 o 3720.526 3942.341 0.00 1.27144 0.06
6 5 3 1 o 19625.998 18538.914 0.00 1.26591 0.60
4 7 4 2 o 1109.942 1071.890 180.00 1.26862 0.02
7 4 1 1 o 6042.664 5964.293 180.00 1.26463 0.20
4 9 0 1 o 6121.956 6058.884 180.00 1.26289 0.10
6 5 3 2 o 18711.430 18538.914 0.00 1.26591 0.28
2 3 7 1 o 6934.590 6957.943 0.00 1.26232 0.21
7 1 3 1 o 12400.266 12746.531 180.00 1.26181 0.38
7 4 1 2 o 5705.563 5964.293 180.00 1.26463 0.09
3 5 6 1 o 12093.715 12613.889 180.00 1.26048 0.33
4 8 3 1 o 2324.696 2445.360 0.00 1.26043 0.08
5 4 5 1 o 2309.170 2422.404 180.00 1.25981 0.08
4 9 0 2 o 5809.333 6058.884 180.00 1.26289 0.05
2 3 7 2 o 6710.847 6957.943 0.00 1.26232 0.10
3 8 4 1 o 2537.559 2622.665 180.00 1.25904 0.09
7 1 3 2 o 12468.259 12746.531 180.00 1.26181 0.19
6 6 2 1 o 26549.367 26891.346 180.00 1.25847 0.79
3 5 6 2 o 12566.285 12613.889 180.00 1.26048 0.17
4 8 3 2 o 2430.599 2445.360 0.00 1.26043 0.04
5 4 5 2 o 2338.331 2422.404 180.00 1.25981 0.04
3 8 4 2 o 2407.508 2622.665 180.00 1.25904 0.04
6 6 2 2 o 24590.318 26891.346 180.00 1.25847 0.36
1 4 7 1 o 15781.177 17196.086 0.00 1.25505 0.47
3 1 7 1 o 300.822 334.571 180.00 1.25386 0.01
2 6 6 1 o 11517.554 12985.083 180.00 1.25216 0.34
4 9 1 1 o 8034.386 9046.832 180.00 1.25205 0.26
1 4 7 2 o 15228.755 17196.086 0.00 1.25505 0.22
5 8 1 1 o 21988.201 24539.115 180.00 1.25141 0.69
3 1 7 2 o 300.024 334.571 180.00 1.25386 0.01
1 9 4 1 o 3463.627 3580.076 0.00 1.24913 0.09
2 6 6 2 o 12452.331 12985.083 180.00 1.25216 0.19
4 9 1 2 o 8669.788 9046.832 180.00 1.25205 0.14
5 7 3 1 o 62362.62 65257.55 180.00 1.24868 1.96
5 8 1 2 o 23481.059 24539.115 180.00 1.25141 0.37
1 8 5 1 o 333.046 348.083 180.00 1.24675 0.01
1 9 4 2 o 3380.311 3580.076 0.00 1.24913 0.04
5 6 4 1 o 983.677 1040.475 0.00 1.24562 0.02
5 7 3 2 o 60844.84 65257.55 180.00 1.24868 0.95
3 7 5 1 o 5446.788 5836.367 0.00 1.24558 0.17
7 2 3 1 o 13562.939 14487.393 0.00 1.24518 0.38
4 6 5 1 o 4217.537 4335.045 180.00 1.24389 0.13
1 8 5 2 o 342.612 348.083 180.00 1.24675 0.00
5 6 4 2 o 1040.287 1040.475 0.00 1.24562 0.01
3 7 5 2 o 5831.821 5836.367 0.00 1.24558 0.09
7 2 3 2 o 14300.480 14487.393 0.00 1.24518 0.20
2 10 2 1 o 32901.980 33939.543 180.00 1.24120 1.14
4 6 5 2 o 4204.449 4335.045 180.00 1.24389 0.06
6 4 4 1 o 50168.59 51735.63 180.00 1.24066 1.45
3 9 3 1 o 338.658 361.224 180.00 1.24016 0.02
2 10 2 2 o 32674.654 33939.543 180.00 1.24120 0.56
6 4 4 2 o 51369.53 51735.63 180.00 1.24066 0.74
3 2 7 1 o 52419.31 52671.77 0.00 1.23755 1.54
3 9 3 2 o 366.460 361.224 180.00 1.24016 0.01
4 4 6 1 o 3820.786 3789.711 180.00 1.23686 0.09
3 2 7 2 o 52009.46 52671.77 0.00 1.23755 0.76
4 4 6 2 o 3813.646 3789.711 180.00 1.23686 0.04
7 4 2 1 o 41664.13 41260.42 0.00 1.23280 1.17
5 0 6 1 o 71488.36 73843.78 0.00 1.23097 0.97
6 7 0 1 o 748.516 840.273 180.00 1.23002 0.02
7 4 2 2 o 37830.35 41260.42 0.00 1.23280 0.52
5 0 6 2 o 71395.37 73843.78 0.00 1.23097 0.48
6 1 5 1 o 31532.963 32589.252 0.00 1.22778 0.86
6 7 0 2 o 760.031 840.273 180.00 1.23002 0.01
5 1 6 1 o 36368.05 36216.59 0.00 1.22575 1.01
6 1 5 2 o 33590.055 32589.252 0.00 1.22778 0.46
2 4 7 1 o 27.540 26.165 0.00 1.22447 0.00
5 1 6 2 o 38092.56 36216.59 0.00 1.22575 0.53
3 10 1 1 o 9114.550 8730.124 180.00 1.22178 0.35
2 4 7 2 o 27.921 26.165 0.00 1.22447 0.00
4 9 2 1 o 571.925 549.230 180.00 1.22114 0.02
5 8 2 1 o 313.514 305.973 180.00 1.22055 0.01
1 10 3 1 o 17905.510 17347.883 0.00 1.22032 0.66
6 7 1 1 o 4830.000 4709.412 0.00 1.22000 0.14
2 9 4 1 o 79366.37 77870.39 0.00 1.21897 2.50
7 3 3 1 o 120601.40 118487.47 0.00 1.21888 3.35
3 10 1 2 o 8886.442 8730.124 180.00 1.22178 0.17
4 9 2 2 o 548.746 549.230 180.00 1.22114 0.01
5 8 2 2 o 303.716 305.973 180.00 1.22055 0.00
0 5 7 1 o 2888.059 2920.858 180.00 1.21734 0.04
1 10 3 2 o 17121.721 17347.883 0.00 1.22032 0.31
6 7 1 2 o 4640.269 4709.412 0.00 1.22000 0.07
2 8 5 1 o 56625.79 57637.80 0.00 1.21676 1.66
7 5 1 1 o 9.403 10.280 0.00 1.21633 0.00
2 9 4 2 o 75389.88 77870.39 0.00 1.21897 1.17
7 3 3 2 o 114359.96 118487.47 0.00 1.21888 1.56
0 5 7 2 o 2719.670 2920.858 180.00 1.21734 0.02
2 8 5 2 o 54936.47 57637.80 0.00 1.21676 0.80
1 7 6 1 o 189.075 198.969 180.00 1.21371 0.01
7 5 1 2 o 9.425 10.280 0.00 1.21633 0.00
6 2 5 1 o 83692.70 82984.37 180.00 1.21245 2.23
5 5 5 1 o 25739.135 25638.154 180.00 1.21204 0.77
3 3 7 1 o 171083.80 172674.19 0.00 1.21172 4.68
1 7 6 2 o 189.357 198.969 180.00 1.21371 0.00
5 2 6 1 o 13837.499 14455.112 0.00 1.21050 0.37
6 2 5 2 o 82534.95 82984.37 180.00 1.21245 1.09
5 5 5 2 o 25681.686 25638.154 180.00 1.21204 0.38
3 3 7 2 o 172862.89 172674.19 0.00 1.21172 2.36
8 0 0 1 o 179849.64 180824.05 0.00 1.20836 1.16
1 5 7 1 o 7886.580 8050.347 180.00 1.20780 0.20
5 2 6 2 o 14032.770 14455.112 0.00 1.21050 0.19
6 6 3 1 o 11718.864 12092.899 0.00 1.20744 0.34
8 0 0 2 o 186030.48 180824.05 0.00 1.20836 0.60
1 5 7 2 o 8407.532 8050.347 180.00 1.20780 0.11
6 6 3 2 o 12898.779 12092.899 0.00 1.20744 0.19
8 1 0 1 o 23489.414 22373.971 0.00 1.20343 0.34
3 6 6 1 o 59395.40 59952.91 180.00 1.20273 1.61
0 11 1 1 o 155178.61 159949.81 180.00 1.20232 2.57
8 1 0 2 o 20805.211 22373.971 0.00 1.20343 0.15
3 6 6 2 o 55970.49 59952.91 180.00 1.20273 0.74
0 11 1 2 o 150622.77 159949.81 180.00 1.20232 1.23
0 0 8 1 o 61353.75 59528.83 0.00 1.19725 0.42
7 0 4 1 o 59893.58 58201.07 180.00 1.19629 0.78
6 5 4 1 o 54327.55 51423.55 0.00 1.19496 1.42
0 0 8 2 o 63287.62 59528.83 0.00 1.19725 0.22
8 1 1 1 o 996.119 936.393 180.00 1.19404 0.03
7 0 4 2 o 60930.20 58201.07 180.00 1.19629 0.40
1 11 1 1 o 17976.631 17220.795 180.00 1.19313 0.58
3 10 2 1 o 75857.95 72733.16 180.00 1.19301 2.33
2 10 3 1 o 6008.024 5745.146 0.00 1.19216 0.21
6 5 4 2 o 53466.18 51423.55 0.00 1.19496 0.69
4 5 6 1 o 839.270 814.088 180.00 1.19157 0.02
7 1 4 1 o 1276.804 1233.505 0.00 1.19150 0.03
6 7 2 1 o 2826.031 2705.397 0.00 1.19135 0.11
8 1 1 2 o 961.241 936.393 180.00 1.19404 0.01
4 8 4 1 o 91034.94 91845.25 0.00 1.19035 2.69
1 11 1 2 o 17011.129 17220.795 180.00 1.19313 0.27
3 10 2 2 o 71706.02 72733.16 180.00 1.19301 1.08
2 10 3 2 o 5665.378 5745.146 0.00 1.19216 0.10
8 2 0 1 o 4952.550 5002.335 0.00 1.18898 0.06
4 5 6 2 o 806.957 814.088 180.00 1.19157 0.01
7 1 4 2 o 1220.001 1233.505 0.00 1.19150 0.01
6 7 2 2 o 2653.125 2705.397 0.00 1.19135 0.05
1 0 8 1 o 394.294 409.019 0.00 1.18818 0.01
6 3 5 1 o 104.530 108.982 180.00 1.18813 0.00
7 5 2 1 o 13434.974 13907.521 180.00 1.18793 0.36
4 8 4 2 o 86617.70 91845.25 0.00 1.19035 1.26
5 3 6 1 o 7726.141 7803.901 0.00 1.18629 0.20
8 2 0 2 o 5042.662 5002.335 0.00 1.18898 0.03
2 7 6 1 o 1102.220 1083.474 0.00 1.18599 0.04
4 1 7 1 o 876.335 865.051 180.00 1.18597 0.02
1 0 8 2 o 444.595 409.019 0.00 1.18818 0.00
6 3 5 2 o 118.970 108.982 180.00 1.18813 0.00
7 5 2 2 o 14690.184 13907.521 180.00 1.18793 0.20
7 4 3 1 o 4677.058 4420.449 180.00 1.18471 0.13
1 1 8 1 o 21390.164 20507.096 180.00 1.18349 0.54
5 3 6 2 o 8138.232 7803.901 0.00 1.18629 0.11
2 7 6 2 o 1146.865 1083.474 0.00 1.18599 0.02
4 1 7 2 o 900.175 865.051 180.00 1.18597 0.01
7 4 3 2 o 5107.313 4420.449 180.00 1.18471 0.07
1 1 8 2 o 22684.084 20507.096 180.00 1.18349 0.29
2 5 7 1 o 3865.114 3499.252 0.00 1.18048 0.10
5 7 4 1 o 111.663 96.573 0.00 1.18043 0.00
8 2 1 1 o 11313.924 10470.817 0.00 1.17993 0.29
4 7 5 1 o 42572.69 40658.89 0.00 1.17896 1.19
0 2 8 1 o 0.383 0.177 0.00 1.17840 0.00
3 4 7 1 o 7954.503 7571.002 180.00 1.17813 0.21
2 5 7 2 o 3721.940 3499.252 0.00 1.18048 0.05
5 7 4 2 o 106.036 96.573 0.00 1.18043 0.00
7 2 4 1 o 4624.771 4340.156 180.00 1.17748 0.12
8 2 1 2 o 11245.124 10470.817 0.00 1.17993 0.14
4 7 5 2 o 43745.55 40658.89 0.00 1.17896 0.61
2 11 0 1 o 31828.480 29918.152 0.00 1.17552 0.52
0 2 8 2 o 0.442 0.177 0.00 1.17840 0.00
3 4 7 2 o 7972.441 7571.002 180.00 1.17813 0.10
7 2 4 2 o 4513.785 4340.156 180.00 1.17748 0.06
4 9 3 1 o 27369.152 26356.830 180.00 1.17435 0.79
5 8 3 1 o 39422.20 38112.11 180.00 1.17383 1.11
3 9 4 1 o 7174.668 7005.742 180.00 1.17322 0.21
2 11 0 2 o 30763.914 29918.152 0.00 1.17552 0.25
4 2 7 1 o 104.418 99.099 180.00 1.17214 0.00
0 9 5 1 o 70.890 68.718 180.00 1.17178 0.00
8 0 2 1 o 44990.79 43445.11 0.00 1.17164 0.56
4 9 3 2 o 27218.965 26356.830 180.00 1.17435 0.39
3 8 5 1 o 689.811 667.694 0.00 1.17125 0.02
5 8 3 2 o 39472.29 38112.11 180.00 1.17383 0.55
3 9 4 2 o 7457.291 7005.742 180.00 1.17322 0.11
1 2 8 1 o 40225.82 36652.43 0.00 1.16974 1.03
4 2 7 2 o 115.494 99.099 180.00 1.17214 0.00
0 9 5 2 o 75.815 68.718 180.00 1.17178 0.00
8 0 2 2 o 48704.21 43445.11 0.00 1.17164 0.31
3 8 5 2 o 740.943 667.694 0.00 1.17125 0.01
4 10 0 1 o 195306.28 188447.88 0.00 1.16728 2.92
8 1 2 1 o 1.049 0.091 0.00 1.16714 0.00
5 9 1 1 o 1562.775 1503.528 0.00 1.16705 0.06
1 2 8 2 o 37527.82 36652.43 0.00 1.16974 0.47
2 11 1 1 o 15088.814 14769.216 0.00 1.16676 0.46
1 11 2 1 o 12421.291 12238.340 180.00 1.16629 0.38
8 3 0 1 o 15133.013 14917.878 0.00 1.16602 0.22
0 10 4 1 o 162308.75 165760.20 0.00 1.16475 2.44
4 10 0 2 o 182310.48 188447.88 0.00 1.16728 1.34
8 1 2 2 o -1.033 0.091 0.00 1.16714 0.00
7 6 1 1 o 3749.802 3904.855 180.00 1.16419 0.10
5 9 1 2 o 1422.045 1503.528 0.00 1.16705 0.03
2 11 1 2 o 14155.312 14769.216 0.00 1.16676 0.21
1 11 2 2 o 11809.804 12238.340 180.00 1.16629 0.18
1 9 5 1 o 6870.945 7083.010 180.00 1.16326 0.18
8 3 0 2 o 14373.355 14917.878 0.00 1.16602 0.11
2 0 8 1 o 165.186 186.142 0.00 1.16213 0.00
0 10 4 2 o 155494.17 165760.20 0.00 1.16475 1.15
7 6 1 2 o 3608.774 3904.855 180.00 1.16419 0.05
5 6 5 1 o 369.512 391.088 180.00 1.16043 0.01
1 9 5 2 o 6565.611 7083.010 180.00 1.16326 0.08
2 0 8 2 o 173.649 186.142 0.00 1.16213 0.00
4 10 1 1 o 1074.726 1093.883 180.00 1.15871 0.03
6 8 0 1 o 40268.96 40525.37 180.00 1.15829 0.54
2 1 8 1 o 13403.392 13338.414 180.00 1.15774 0.31
5 6 5 2 o 392.792 391.088 180.00 1.16043 0.00
8 3 1 1 o 120042.67 119301.81 180.00 1.15748 2.98
1 6 7 1 o 16756.607 16799.725 0.00 1.15671 0.39
6 4 5 1 o 18128.215 18292.273 0.00 1.15641 0.46
1 10 4 1 o 107.436 108.487 0.00 1.15639 0.00
4 10 1 2 o 1075.791 1093.883 180.00 1.15871 0.02
6 8 0 2 o 40291.37 40525.37 180.00 1.15829 0.27
7 3 4 1 o 2496.552 2481.957 0.00 1.15516 0.07
2 1 8 2 o 13555.490 13338.414 180.00 1.15774 0.16
5 4 6 1 o 1479.899 1441.860 0.00 1.15472 0.04
8 3 1 2 o 122744.99 119301.81 180.00 1.15748 1.53
8 2 2 1 o 20577.691 19562.463 0.00 1.15395 0.52
1 6 7 2 o 17592.725 16799.725 0.00 1.15671 0.21
6 4 5 2 o 19467.221 18292.273 0.00 1.15641 0.25
1 10 4 2 o 115.759 108.487 0.00 1.15639 0.00
0 8 6 1 o 10783.660 9244.346 180.00 1.15274 0.18
7 3 4 2 o 3022.730 2481.957 0.00 1.15516 0.04
5 4 6 2 o 1763.495 1441.860 0.00 1.15472 0.02
8 2 2 2 o 23241.104 19562.463 0.00 1.15395 0.30
4 3 7 1 o 6872.408 6281.504 180.00 1.15012 0.18
0 8 6 2 o 10080.424 9244.346 180.00 1.15274 0.08
6 8 1 1 o 39808.74 37029.57 0.00 1.14991 1.10
3 10 3 1 o 950.976 919.336 180.00 1.14926 0.02
3 10 3 2 o 953.427 919.336 180.00 1.14926 0.01
6 6 4 1 o 2634.279 2425.987 180.00 1.14541 0.07
1 3 8 1 o 6771.258 6243.858 180.00 1.14785 0.17
6 7 3 1 o 33668.738 31073.029 0.00 1.14779 0.90
1 3 8 2 o 6942.483 6243.858 180.00 1.14785 0.09
6 7 3 2 o 34594.543 31073.029 0.00 1.14779 0.47
2 2 8 1 o 502.485 459.024 180.00 1.14486 0.01
7 5 3 1 o 25299.088 22492.805 0.00 1.14472 0.70
1 8 6 1 o 2972.671 2651.740 0.00 1.14464 0.09
4 3 7 2 o 6752.977 6281.504 180.00 1.15012 0.09
6 8 1 2 o 39493.28 37029.57 0.00 1.14991 0.54
3 7 6 1 o 5.102 4.245 180.00 1.14373 0.00
6 6 4 2 o 2533.681 2425.987 180.00 1.14541 0.03
4 6 6 1 o 43347.24 41474.08 0.00 1.14242 1.12
2 2 8 2 o 474.522 459.024 180.00 1.14486 0.00
7 5 3 2 o 23444.414 22492.805 0.00 1.14472 0.32
5 9 2 1 o 57905.07 55747.09 180.00 1.14190 1.59
1 8 6 2 o 2757.855 2651.740 0.00 1.14464 0.04
2 11 2 1 o 446.537 435.154 0.00 1.14163 0.01
3 7 6 2 o 4.505 4.245 180.00 1.14373 0.00
4 6 6 2 o 43108.67 41474.08 0.00 1.14242 0.55
7 6 2 1 o 42302.86 41292.89 180.00 1.13922 1.05
5 9 2 2 o 56837.81 55747.09 180.00 1.14190 0.77
2 11 2 2 o 437.691 435.154 0.00 1.14163 0.00
2 9 5 1 o 12057.323 11981.658 0.00 1.13879 0.33
3 5 7 1 o 47991.25 47683.92 0.00 1.13879 1.25
7 6 2 2 o 42132.97 41292.89 180.00 1.13922 0.52
8 4 0 1 o 5133.718 5071.142 180.00 1.13600 0.06
2 9 5 2 o 12137.771 11981.658 0.00 1.13879 0.17
3 5 7 2 o 48331.47 47683.92 0.00 1.13879 0.63
4 10 2 1 o 37143.62 37843.05 0.00 1.13408 1.01
6 0 6 1 o 827.640 857.439 180.00 1.13398 0.01
8 4 0 2 o 4565.862 5071.142 180.00 1.13600 0.02
0 11 3 1 o 216.015 239.654 180.00 1.13302 0.00
8 3 2 1 o 557.005 679.880 180.00 1.13292 0.02
2 6 7 1 o 553.733 629.406 180.00 1.13264 0.02
2 10 4 1 o 4684.586 5112.165 180.00 1.13234 0.12
4 10 2 2 o 35826.25 37843.05 0.00 1.13408 0.48
6 0 6 2 o 806.552 857.439 180.00 1.13398 0.01
0 11 3 2 o 246.424 239.654 180.00 1.13302 0.00
8 3 2 2 o 719.824 679.880 180.00 1.13292 0.01
6 1 6 1 o 33423.172 32175.855 180.00 1.12990 0.85
2 6 7 2 o 654.317 629.406 180.00 1.13264 0.01
2 10 4 2 o 5162.793 5112.165 180.00 1.13234 0.07
8 4 1 1 o 2128.854 2056.991 180.00 1.12809 0.05
6 1 6 2 o 35855.55 32175.855 180.00 1.12990 0.46
0 4 8 1 o 39418.41 35240.25 180.00 1.12675 0.54
3 11 1 1 o 13846.413 12611.877 180.00 1.12646 0.42
8 1 3 1 o 30513.332 28520.895 180.00 1.12609 0.70
7 4 4 1 o 107.733 102.615 0.00 1.12595 0.00
6 8 2 1 o 34790.066 32847.293 180.00 1.12582 0.96
1 11 3 1 o 41346.15 40086.36 180.00 1.12532 1.15
8 4 1 2 o 2123.558 2056.991 180.00 1.12809 0.03
2 3 8 1 o 4156.974 4084.392 180.00 1.12432 0.09
0 4 8 2 o 36362.88 35240.25 180.00 1.12675 0.25
3 11 1 2 o 13090.692 12611.877 180.00 1.12646 0.19
8 1 3 2 o 29603.822 28520.895 180.00 1.12609 0.34
7 4 4 2 o 105.671 102.615 0.00 1.12595 0.00
6 8 2 2 o 34088.582 32847.293 180.00 1.12582 0.47
1 11 3 2 o 40779.29 40086.36 180.00 1.12532 0.56
3 0 8 1 o 104805.87 104514.08 180.00 1.12229 1.21
2 3 8 2 o 3887.819 4084.392 180.00 1.12432 0.04
2 8 6 1 o 15703.521 16909.012 180.00 1.12130 0.45
4 4 7 1 o 46.371 50.347 180.00 1.12128 0.00
3 0 8 2 o 107520.95 104514.08 180.00 1.12229 0.62
1 4 8 1 o 73028.88 71226.21 0.00 1.11918 1.72
6 5 5 1 o 3754.648 3671.374 0.00 1.11914 0.08
2 8 6 2 o 16953.641 16909.012 180.00 1.12130 0.24
4 4 7 2 o 50.465 50.347 180.00 1.12128 0.00
3 1 8 1 o 14844.236 14879.717 0.00 1.11834 0.36
6 2 6 1 o 14610.635 14706.086 180.00 1.11792 0.37
5 5 6 1 o 36826.56 36999.23 180.00 1.11760 0.89
4 9 4 1 o 7055.980 6991.532 0.00 1.11705 0.21
5 8 4 1 o 1919.935 1890.831 0.00 1.11660 0.05
1 4 8 2 o 72270.91 71226.21 0.00 1.11918 0.85
6 5 5 2 o 3719.699 3671.374 0.00 1.11914 0.04
7 1 5 1 o 34594.559 34135.941 0.00 1.11630 0.87
3 1 8 2 o 14784.520 14879.717 0.00 1.11834 0.18
4 8 5 1 o 3428.804 3456.446 0.00 1.11535 0.09
6 2 6 2 o 14591.480 14706.086 180.00 1.11792 0.18
5 5 6 2 o 36901.61 36999.23 180.00 1.11760 0.45
4 9 4 2 o 7185.832 6991.532 0.00 1.11705 0.11
8 2 3 1 o 2041.148 1983.472 180.00 1.11423 0.05
5 8 4 2 o 1993.693 1890.831 0.00 1.11660 0.02
7 1 5 2 o 36788.43 34135.941 0.00 1.11630 0.47
5 1 7 1 o 5834.919 5437.769 180.00 1.11298 0.15
4 8 5 2 o 3667.881 3456.446 0.00 1.11535 0.05
8 2 3 2 o 2239.382 1983.472 180.00 1.11423 0.03
0 7 7 1 o 4623.527 4060.362 180.00 1.11121 0.06
0 12 0 1 o 6100.104 5486.934 0.00 1.11091 0.04
7 7 1 1 o 13615.093 12398.559 180.00 1.11044 0.32
5 1 7 2 o 6116.834 5437.769 180.00 1.11298 0.08
0 7 7 2 o 5051.173 4060.362 180.00 1.11121 0.03
0 12 0 2 o 6562.304 5486.934 0.00 1.11091 0.02
7 7 1 2 o 14736.470 12398.559 180.00 1.11044 0.18
5 7 5 1 o 2800.431 2435.540 180.00 1.10718 0.06
3 2 8 1 o 8451.326 7306.071 180.00 1.10671 0.20
8 4 2 1 o 6959.979 6210.540 0.00 1.10533 0.17
7 2 5 1 o 745.059 680.084 180.00 1.10474 0.02
5 7 5 2 o 2564.054 2435.540 180.00 1.10718 0.03
3 2 8 2 o 7512.402 7306.071 180.00 1.10671 0.08
1 7 7 1 o 110167.20 107403.32 180.00 1.10395 2.74
3 11 2 1 o 6247.103 6161.719 0.00 1.10379 0.17
5 9 3 1 o 8327.990 8447.133 180.00 1.10336 0.26
2 11 3 1 o 21616.266 22019.279 0.00 1.10312 0.61
8 4 2 2 o 6156.616 6210.540 0.00 1.10533 0.07
7 2 5 2 o 692.893 680.084 180.00 1.10474 0.01
5 2 7 1 o 72681.54 71866.72 0.00 1.10153 1.73
1 7 7 2 o 106481.45 107403.32 180.00 1.10395 1.31
3 9 5 1 o 17413.146 17576.234 0.00 1.10122 0.47
3 11 2 2 o 6033.880 6161.719 0.00 1.10379 0.08
7 6 3 1 o 8656.018 8957.216 180.00 1.10095 0.22
5 9 3 2 o 7889.591 8447.133 180.00 1.10336 0.12
8 5 0 1 o 25067.781 26711.652 180.00 1.10060 0.32
2 11 3 2 o 20568.836 22019.279 0.00 1.10312 0.28
5 2 7 2 o 73112.52 71866.72 0.00 1.10153 0.87
6 3 6 1 o 12851.475 12611.421 180.00 1.09877 0.33
3 9 5 2 o 17853.668 17576.234 0.00 1.10122 0.24
7 6 3 2 o 9081.370 8957.216 180.00 1.10095 0.12
8 5 0 2 o 27210.258 26711.652 180.00 1.10060 0.17
2 4 8 1 o 12786.818 12124.566 180.00 1.09733 0.36
1 12 1 1 o 22141.777 20828.979 180.00 1.09639 0.66
4 10 3 1 o 242.156 228.150 0.00 1.09631 0.01
6 3 6 2 o 13114.926 12611.421 180.00 1.09877 0.17
3 6 7 1 o 25856.236 26013.787 180.00 1.09566 0.67
3 10 4 1 o 32291.385 33183.121 180.00 1.09539 0.84
8 3 3 1 o 369.579 381.073 180.00 1.09526 0.01
2 4 8 2 o 11644.936 12124.566 180.00 1.09733 0.16
6 7 4 1 o 4258.134 4320.289 180.00 1.09411 0.13
1 12 1 2 o 20716.838 20828.979 180.00 1.09639 0.31
4 10 3 2 o 226.624 228.150 0.00 1.09631 0.00
8 5 1 1 o 33196.891 33563.066 180.00 1.09341 0.78
3 6 7 2 o 25174.830 26013.787 180.00 1.09566 0.32
3 10 4 2 o 31893.850 33183.121 180.00 1.09539 0.41
8 3 3 2 o 367.119 381.073 180.00 1.09526 0.00
4 7 6 1 o 107.139 100.247 0.00 1.09151 0.00
7 5 4 1 o 3028.365 2904.392 180.00 1.09146 0.07
6 7 4 2 o 4567.970 4320.289 180.00 1.09411 0.07
8 5 1 2 o 34804.914 33563.066 180.00 1.09341 0.41
6 9 0 1 o 73763.51 72665.77 0.00 1.09043 0.96
5 10 1 1 o 5379.990 5326.025 180.00 1.09036 0.15
6 8 3 1 o 9921.347 10100.048 180.00 1.08884 0.25
4 7 6 2 o 97.238 100.247 0.00 1.09151 0.00
7 5 4 2 o 2857.235 2904.392 180.00 1.09146 0.03
7 7 2 1 o 75.541 77.317 180.00 1.08871 0.00
3 3 8 1 o 3027.510 3064.544 0.00 1.08812 0.07
6 9 0 2 o 71577.72 72665.77 0.00 1.09043 0.46
5 10 1 2 o 5234.218 5326.025 180.00 1.09036 0.07
1 10 5 1 o 8261.412 8482.111 180.00 1.08727 0.28
4 5 7 1 o 3498.187 3570.949 180.00 1.08720 0.08
7 3 5 1 o 680.992 683.153 0.00 1.08625 0.01
6 8 3 2 o 10056.952 10100.048 180.00 1.08884 0.13
7 7 2 2 o 77.074 77.317 180.00 1.08871 0.00
3 3 8 2 o 3069.917 3064.544 0.00 1.08812 0.03
3 8 6 1 o 47389.28 47324.23 180.00 1.08538 1.16
1 5 8 1 o 31992.223 31976.094 0.00 1.08529 0.76
1 10 5 2 o 8450.825 8482.111 180.00 1.08727 0.14
4 5 7 2 o 3564.784 3570.949 180.00 1.08720 0.04
7 3 5 2 o 693.435 683.153 0.00 1.08625 0.00
6 9 1 1 o 24751.729 24164.160 0.00 1.08343 0.62
4 11 0 1 o 4251.343 4145.314 0.00 1.08333 0.07
5 3 7 1 o 48846.83 48162.18 180.00 1.08319 1.05
2 7 7 1 o 1776.465 1776.437 0.00 1.08296 0.04
3 8 6 2 o 46460.29 47324.23 180.00 1.08538 0.57
2 12 0 1 o 41286.00 42226.53 180.00 1.08268 0.63
1 5 8 2 o 31171.014 31976.094 0.00 1.08529 0.36
0 12 2 1 o 26857.754 28131.141 0.00 1.08218 0.41
6 9 1 2 o 25181.521 24164.160 0.00 1.08343 0.32
4 11 0 2 o 4360.882 4145.314 0.00 1.08333 0.04
5 3 7 2 o 50042.37 48162.18 180.00 1.08319 0.54
2 7 7 2 o 1827.377 1776.437 0.00 1.08296 0.02
2 12 0 2 o 42685.05 42226.53 180.00 1.08268 0.33
0 12 2 2 o 27464.883 28131.141 0.00 1.08218 0.21
1 9 6 1 o 18517.357 19178.768 180.00 1.07901 0.45
8 0 4 1 o 13065.367 13570.104 180.00 1.07878 0.14
6 6 5 1 o 38735.46 39593.60 0.00 1.07813 0.91
5 6 6 1 o 31363.957 30600.139 0.00 1.07675 0.73
4 11 1 1 o 3245.190 3161.818 0.00 1.07646 0.09
1 9 6 2 o 19663.902 19178.768 180.00 1.07901 0.24
8 0 4 2 o 13946.857 13570.104 180.00 1.07878 0.08
2 12 1 1 o 42384.57 41318.50 0.00 1.07583 1.16
6 6 5 2 o 40137.15 39593.60 0.00 1.07813 0.47
1 12 2 1 o 1015.812 1001.632 0.00 1.07546 0.03
8 1 4 1 o 1813.868 1810.804 180.00 1.07527 0.03
1 11 4 1 o 2846.414 2889.734 180.00 1.07460 0.08
5 6 6 2 o 30588.910 30600.139 0.00 1.07675 0.35
4 11 1 2 o 3177.394 3161.818 0.00 1.07646 0.04
6 4 6 1 o 12247.979 12250.078 180.00 1.07354 0.26
2 12 1 2 o 40408.43 41318.50 0.00 1.07583 0.54
4 0 8 1 o 9284.859 9804.384 180.00 1.07282 0.09
1 12 2 2 o 935.658 1001.632 0.00 1.07546 0.01
8 5 2 1 o 6.106 6.675 180.00 1.07264 0.00
8 1 4 2 o 1712.297 1810.804 180.00 1.07527 0.01
1 11 4 2 o 2632.030 2889.734 180.00 1.07460 0.04
6 4 6 2 o 12063.767 12250.078 180.00 1.07354 0.13
8 4 3 1 o 35.800 36.721 0.00 1.07027 0.00
4 0 8 2 o 9357.062 9804.384 180.00 1.07282 0.05
8 5 2 2 o 6.233 6.675 180.00 1.07264 0.00
5 10 2 1 o 30399.969 32617.961 0.00 1.06976 0.78
4 1 8 1 o 88.331 104.725 0.00 1.06937 0.01
3 11 3 1 o 7111.833 7295.157 180.00 1.06887 0.17
8 4 3 2 o 35.859 36.721 0.00 1.07027 0.00
2 10 5 1 o 9503.090 10050.117 0.00 1.06721 0.24
5 10 2 2 o 30764.158 32617.961 0.00 1.06976 0.39
4 1 8 2 o 88.605 104.725 0.00 1.06937 0.00
3 11 3 2 o 7077.797 7295.157 180.00 1.06887 0.08
2 5 8 1 o 16687.453 16078.021 0.00 1.06533 0.36
8 2 4 1 o 24409.609 24067.742 0.00 1.06493 0.54
2 10 5 2 o 9774.138 10050.117 0.00 1.06721 0.12
9 1 1 1 o 659.214 736.717 0.00 1.06401 0.02
3 4 8 1 o 769.117 825.957 0.00 1.06360 0.02
6 9 2 1 o 1903.082 1964.494 0.00 1.06321 0.04
2 5 8 2 o 16271.134 16078.021 0.00 1.06533 0.17
8 2 4 2 o 25130.834 24067.742 0.00 1.06493 0.28
7 4 5 1 o 930.315 871.480 0.00 1.06185 0.03
8 6 0 1 o 77171.60 73913.39 0.00 1.06153 0.87
9 1 1 2 o 775.600 736.717 0.00 1.06401 0.01
3 4 8 2 o 840.220 825.957 0.00 1.06360 0.01
0 1 9 1 o 18420.953 18213.363 0.00 1.06085 0.19
6 9 2 2 o 1976.681 1964.494 0.00 1.06321 0.02
2 9 6 1 o 30750.557 31424.676 0.00 1.05940 0.75
7 4 5 2 o 832.460 871.480 0.00 1.06185 0.01
4 2 8 1 o 5049.579 5278.722 0.00 1.05919 0.11
5 4 7 1 o 11939.922 12731.302 180.00 1.05900 0.26
8 6 0 2 o 68892.68 73913.39 0.00 1.06153 0.38
0 1 9 2 o 16324.350 18213.363 0.00 1.06085 0.08
7 8 1 1 o 2807.152 2873.090 0.00 1.05681 0.07
2 9 6 2 o 30719.939 31424.676 0.00 1.05940 0.38
4 11 2 1 o 692.820 714.032 180.00 1.05663 0.03
4 2 8 2 o 5176.117 5278.722 0.00 1.05919 0.06
5 4 7 2 o 12529.519 12731.302 180.00 1.05900 0.14
2 12 2 1 o 8203.522 8253.718 180.00 1.05603 0.19
5 9 4 1 o 10370.827 10149.448 180.00 1.05543 0.25
2 11 4 1 o 11465.603 11159.104 180.00 1.05522 0.28
7 7 3 1 o 36041.95 34934.453 180.00 1.05516 0.89
8 6 1 1 o 5411.300 5245.320 180.00 1.05507 0.13
1 1 9 1 o 29860.918 29097.453 180.00 1.05452 0.65
4 9 5 1 o 24664.350 24147.627 180.00 1.05438 0.60
7 8 1 2 o 2914.116 2873.090 0.00 1.05681 0.04
4 11 2 2 o 717.298 714.032 180.00 1.05663 0.01
5 8 5 1 o 5580.989 5576.225 0.00 1.05400 0.15
9 2 1 1 o 28525.754 28532.260 0.00 1.05398 0.64
0 6 8 1 o 15370.869 15384.145 0.00 1.05397 0.17
2 12 2 2 o 8003.665 8253.718 180.00 1.05603 0.09
7 6 4 1 o 21673.363 22550.447 180.00 1.05332 0.48
5 9 4 2 o 9787.574 10149.448 180.00 1.05543 0.12
2 11 4 2 o 10859.587 11159.104 180.00 1.05522 0.13
7 7 3 2 o 33973.637 34934.453 180.00 1.05516 0.41
8 6 1 2 o 5125.626 5245.320 180.00 1.05507 0.06
1 1 9 2 o 28839.203 29097.453 180.00 1.05452 0.31
4 9 5 2 o 23947.029 24147.627 180.00 1.05438 0.29
5 8 5 2 o 5483.999 5576.225 0.00 1.05400 0.08
9 2 1 2 o 28104.760 28532.260 0.00 1.05398 0.31
0 6 8 2 o 15160.890 15384.145 0.00 1.05397 0.08
1 8 7 1 o 31692.521 32384.115 180.00 1.05120 0.77
7 6 4 2 o 21795.693 22550.447 180.00 1.05332 0.24
3 7 7 1 o 11167.907 11553.545 180.00 1.05051 0.27
4 6 7 1 o 105.554 98.359 180.00 1.04949 0.00
4 10 4 1 o 10714.705 10054.145 180.00 1.04925 0.26
1 8 7 2 o 34072.105 32384.115 180.00 1.05120 0.42
8 3 4 1 o 5.471 4.930 180.00 1.04833 0.00
9 0 2 1 o 15787.793 16134.547 0.00 1.04806 0.17
3 7 7 2 o 11049.384 11553.545 180.00 1.05051 0.13
1 6 8 1 o 1420.354 1513.643 0.00 1.04776 0.03
4 6 7 2 o 94.260 98.359 180.00 1.04949 0.00
4 10 4 2 o 10010.659 10054.145 180.00 1.04925 0.12
8 3 4 2 o 6.071 4.930 180.00 1.04833 0.00
9 0 2 2 o 17105.293 16134.547 0.00 1.04806 0.10
1 6 8 2 o 1632.566 1513.643 0.00 1.04776 0.02
9 1 2 1 o 40114.96 37277.84 0.00 1.04484 0.88
1 2 9 1 o 11943.120 10984.232 180.00 1.04476 0.31
7 0 6 1 o 5481.308 5163.671 0.00 1.04441 0.06
3 12 1 1 o 4185.302 3993.233 0.00 1.04399 0.10
6 5 6 1 o 34765.137 33186.914 0.00 1.04352 0.82
1 12 3 1 o 22864.139 22439.393 180.00 1.04309 0.57
4 3 8 1 o 1013.112 997.624 0.00 1.04286 0.03
6 8 4 1 o 1152.380 1147.843 180.00 1.04270 0.02
9 1 2 2 o 37251.65 37277.84 0.00 1.04484 0.40
1 2 9 2 o 10969.682 10984.232 180.00 1.04476 0.14
6 1 7 1 o 4069.546 4463.590 0.00 1.03976 0.09
7 0 6 2 o 5160.202 5163.671 0.00 1.04441 0.03
3 12 1 2 o 3999.437 3993.233 0.00 1.04399 0.04
7 1 6 1 o 4154.546 4153.172 180.00 1.04122 0.09
6 5 6 2 o 32926.246 33186.914 0.00 1.04352 0.38
7 1 6 2 o 4009.310 4153.172 180.00 1.04122 0.04
1 12 3 2 o 21703.857 22439.393 180.00 1.04309 0.26
8 5 3 1 o 9038.198 9370.611 180.00 1.04051 0.20
4 8 6 1 o 22209.098 23107.252 0.00 1.04045 0.49
4 3 8 2 o 915.405 997.624 0.00 1.04286 0.02
7 8 2 1 o 29253.893 29979.643 180.00 1.03802 0.67
8 5 3 2 o 9128.210 9370.611 180.00 1.04051 0.10
4 8 6 2 o 22508.326 23107.252 0.00 1.04045 0.25
9 3 1 1 o 10121.297 10444.684 180.00 1.03789 0.25
5 10 3 1 o 1811.698 1848.854 180.00 1.03788 0.03
6 8 4 2 o 1090.985 1147.843 180.00 1.04270 0.01
6 1 7 2 o 4347.626 4463.590 0.00 1.03976 0.05
8 6 2 1 o 31534.602 32160.996 0.00 1.03637 0.72
2 1 9 1 o 140.938 143.275 0.00 1.03619 0.00
3 10 5 1 o 644.026 668.591 180.00 1.03610 0.03
7 8 2 2 o 29581.908 29979.643 180.00 1.03802 0.34
9 2 2 1 o 796.222 803.266 0.00 1.03534 0.02
9 3 1 2 o 10345.933 10444.684 180.00 1.03789 0.13
5 10 3 2 o 1837.696 1848.854 180.00 1.03788 0.02
6 7 5 1 o 27367.348 27395.549 0.00 1.03502 0.62
0 3 9 1 o 55359.98 55402.30 180.00 1.03496 0.60
3 5 8 1 o 15634.407 15764.462 180.00 1.03439 0.35
8 6 2 2 o 32033.404 32160.996 0.00 1.03637 0.37
5 7 6 1 o 25.492 25.567 0.00 1.03381 0.00
2 1 9 2 o 142.872 143.275 0.00 1.03619 0.00
3 10 5 2 o 663.843 668.591 180.00 1.03610 0.01
2 8 7 1 o 91.522 92.426 0.00 1.03304 0.00
9 2 2 2 o 795.190 803.266 0.00 1.03534 0.01
7 5 5 1 o 1436.803 1444.838 0.00 1.03278 0.02
6 7 5 2 o 27264.900 27395.549 0.00 1.03502 0.31
0 3 9 2 o 55216.88 55402.30 180.00 1.03496 0.30
6 9 3 1 o 9849.841 9775.579 0.00 1.03190 0.23
3 5 8 2 o 15897.436 15764.462 180.00 1.03439 0.18
7 2 6 1 o 24829.199 24616.832 180.00 1.03182 0.54
5 7 6 2 o 25.840 25.567 0.00 1.03381 0.00
2 8 7 2 o 95.848 92.426 0.00 1.03304 0.00
6 2 7 1 o 86.148 82.993 180.00 1.03040 0.00
7 5 5 2 o 1488.847 1444.838 0.00 1.03278 0.01
5 5 7 1 o 11290.135 10749.822 180.00 1.03015 0.22
2 6 8 1 o 945.531 872.805 180.00 1.02977 0.02
6 9 3 2 o 10299.200 9775.579 0.00 1.03190 0.12
7 2 6 2 o 25783.646 24616.832 180.00 1.03182 0.28
1 3 9 1 o 12645.344 12300.707 180.00 1.02908 0.29
3 9 6 1 o 12626.312 12472.179 0.00 1.02895 0.30
6 2 7 2 o 82.161 82.993 180.00 1.03040 0.00
5 5 7 2 o 10801.226 10749.822 180.00 1.03015 0.10
2 6 8 2 o 906.225 872.805 180.00 1.02977 0.01
6 10 0 1 o 1581.190 1524.817 180.00 1.02709 0.02
2 2 9 1 o 58706.42 56083.88 180.00 1.02692 1.26
1 3 9 2 o 12862.661 12300.707 180.00 1.02908 0.15
3 9 6 2 o 12926.859 12472.179 0.00 1.02895 0.16
8 4 4 1 o 86545.56 83830.66 0.00 1.02635 1.90
4 11 3 1 o 39409.28 39110.32 180.00 1.02588 0.98
3 12 2 1 o 5239.079 5199.877 180.00 1.02587 0.14
2 12 3 1 o 7826.278 7747.219 180.00 1.02533 0.19
3 11 4 1 o 1566.611 1540.011 0.00 1.02512 0.04
6 10 0 2 o 1559.363 1524.817 180.00 1.02709 0.01
2 2 9 2 o 57451.73 56083.88 180.00 1.02692 0.61
0 11 5 1 o 22000.129 21546.281 0.00 1.02416 0.28
8 4 4 2 o 84369.14 83830.66 0.00 1.02635 0.92
4 11 3 2 o 38096.93 39110.32 180.00 1.02588 0.47
3 12 2 2 o 5061.741 5199.877 180.00 1.02587 0.06
0 10 6 1 o 36158.24 37384.24 0.00 1.02323 0.41
2 12 3 2 o 7349.847 7747.219 180.00 1.02533 0.09
3 11 4 2 o 1450.527 1540.011 0.00 1.02512 0.02
0 11 5 2 o 20881.934 21546.281 0.00 1.02416 0.13
6 10 1 1 o 5121.690 5219.815 0.00 1.02124 0.12
4 4 8 1 o 11145.601 11321.454 0.00 1.02122 0.20
5 11 1 1 o 504.008 509.455 0.00 1.02100 0.01
0 10 6 2 o 37157.86 37384.24 0.00 1.02323 0.21
8 7 0 1 o 2526.916 2449.418 180.00 1.02031 0.04
9 3 2 1 o 6694.836 6421.755 0.00 1.02008 0.14
0 13 1 1 o 255.356 232.330 0.00 1.01963 0.00
8 1 5 1 o 61092.57 55447.64 180.00 1.01903 1.34
6 10 1 2 o 5587.525 5219.815 0.00 1.02124 0.07
4 4 8 2 o 11965.954 11321.454 0.00 1.02122 0.11
5 11 1 2 o 524.551 509.455 0.00 1.02100 0.00
1 11 5 1 o 4289.670 4124.231 180.00 1.01846 0.11
5 0 8 1 o 55122.24 55156.57 0.00 1.01789 0.59
8 7 0 2 o 2431.389 2449.418 180.00 1.02031 0.02
9 3 2 2 o 6342.201 6421.755 0.00 1.02008 0.06
1 10 6 1 o 58440.52 59280.70 0.00 1.01754 1.43
0 13 1 2 o 227.926 232.330 0.00 1.01963 0.00
7 3 6 1 o 2172.007 2209.181 180.00 1.01670 0.05
9 4 1 1 o 4906.747 4978.497 180.00 1.01655 0.11
8 1 5 2 o 54641.23 55447.64 180.00 1.01903 0.58
1 11 5 2 o 4068.061 4124.231 180.00 1.01846 0.05
5 0 8 2 o 54549.98 55156.57 0.00 1.01789 0.29
6 3 7 1 o 759.808 767.056 0.00 1.01534 0.01
9 1 3 1 o 3492.710 3563.663 180.00 1.01508 0.09
1 10 6 2 o 58253.09 59280.70 0.00 1.01754 0.71
5 1 8 1 o 17139.492 17476.266 0.00 1.01494 0.35
8 7 1 1 o 2395.975 2451.241 0.00 1.01457 0.05
7 3 6 2 o 2198.504 2209.181 180.00 1.01670 0.03
9 4 1 2 o 5023.703 4978.497 180.00 1.01655 0.05
1 13 1 1 o 2073.957 2049.957 0.00 1.01401 0.05
7 7 4 1 o 125.943 117.747 0.00 1.01301 0.00
6 3 7 2 o 798.015 767.056 0.00 1.01534 0.01
9 1 3 2 o 3671.622 3563.663 180.00 1.01508 0.05
5 1 8 2 o 17613.055 17476.266 0.00 1.01494 0.18
8 7 1 2 o 2366.131 2451.241 0.00 1.01457 0.03
2 3 9 1 o 527.666 551.157 180.00 1.01202 0.01
1 13 1 2 o 1952.412 2049.957 0.00 1.01401 0.02
7 7 4 2 o 121.450 117.747 0.00 1.01301 0.00
8 2 5 1 o 13251.393 12796.011 180.00 1.01021 0.29
6 6 6 1 o 647.329 630.040 180.00 1.01004 0.01
4 7 7 1 o 871.408 867.604 180.00 1.00960 0.02
2 3 9 2 o 552.210 551.157 180.00 1.01202 0.01
4 12 0 1 o 19950.221 19971.518 0.00 1.00938 0.24
7 8 3 1 o 8185.369 8115.203 0.00 1.00882 0.20
1 4 9 1 o 233.480 223.513 0.00 1.00826 0.00
1 7 8 1 o 7.441 7.208 180.00 1.00807 0.00
0 12 4 1 o 5818.567 5492.776 0.00 1.00774 0.06
8 2 5 2 o 13840.192 12796.011 180.00 1.01021 0.15
3 1 9 1 o 12133.041 11188.992 0.00 1.00765 0.28
6 6 6 2 o 675.984 630.040 180.00 1.01004 0.01
8 6 3 1 o 812.202 759.286 0.00 1.00731 0.02
4 7 7 2 o 927.819 867.604 180.00 1.00960 0.01
4 12 0 2 o 21272.221 19971.518 0.00 1.00938 0.13
9 2 3 1 o 46955.10 44428.71 0.00 1.00636 1.00
7 8 3 2 o 8605.070 8115.203 0.00 1.00882 0.11
5 2 8 1 o 10751.179 10192.733 0.00 1.00622 0.23
1 4 9 2 o 233.710 223.513 0.00 1.00826 0.00
1 7 8 2 o 7.424 7.208 180.00 1.00807 0.00
0 12 4 2 o 5811.303 5492.776 0.00 1.00774 0.03
3 1 9 2 o 12133.160 11188.992 0.00 1.00765 0.14
0 9 7 1 o 1708.997 1586.534 180.00 1.00508 0.02
8 6 3 2 o 811.342 759.286 0.00 1.00731 0.01
3 8 7 1 o 13331.081 12473.256 0.00 1.00475 0.30
7 9 1 1 o 12588.759 11792.341 0.00 1.00451 0.34
6 10 2 1 o 9220.582 8867.960 180.00 1.00426 0.22
5 11 2 1 o 14157.401 13818.348 0.00 1.00403 0.36
9 2 3 2 o 45108.13 44428.71 0.00 1.00636 0.47
4 12 1 1 o 3312.537 3270.550 0.00 1.00382 0.09
5 2 8 2 o 10283.441 10192.733 0.00 1.00622 0.11
2 13 0 1 o 40376.81 40562.61 0.00 1.00313 0.54
0 9 7 2 o 1562.235 1586.534 180.00 1.00508 0.01
1 12 4 1 o 3842.268 3928.077 0.00 1.00231 0.09
3 8 7 2 o 12192.536 12473.256 0.00 1.00475 0.13
5 9 5 1 o 3944.061 4033.678 180.00 1.00209 0.07
7 9 1 2 o 11376.872 11792.341 0.00 1.00451 0.15
2 11 5 1 o 9901.497 10254.286 0.00 1.00191 0.24
6 10 2 2 o 8515.284 8867.960 180.00 1.00426 0.10
3 6 8 1 o 55771.98 58245.70 180.00 1.00175 1.22
5 11 2 2 o 13104.848 13818.348 0.00 1.00403 0.16
4 12 1 2 o 3067.474 3270.550 0.00 1.00382 0.04
2 10 6 1 o 3243.136 3481.261 180.00 1.00104 0.08
2 13 0 2 o 38099.81 40562.61 0.00 1.00313 0.25
7 6 5 1 o 743.960 784.494 0.00 1.00028 0.02
8 5 4 1 o 4866.860 4987.756 0.00 1.00003 0.09
1 12 4 2 o 3873.946 3928.077 0.00 1.00231 0.05
9 4 2 1 o 480.944 486.088 180.00 0.99979 0.01
1 9 7 1 o 7148.453 7159.733 180.00 0.99969 0.18
5 9 5 2 o 4047.694 4033.678 180.00 1.00209 0.04
2 11 5 2 o 10471.593 10254.286 0.00 1.00191 0.13
3 6 8 2 o 60456.49 58245.70 180.00 1.00175 0.68
3 2 9 1 o 5.770 4.087 0.00 0.99912 0.00
2 10 6 2 o 3805.581 3481.261 180.00 1.00104 0.05
8 7 2 1 o 1357.943 1233.552 0.00 0.99791 0.04
5 6 7 1 o 40161.36 37432.63 180.00 0.99790 0.94
7 6 5 2 o 844.155 784.494 0.00 1.00028 0.01
5 10 4 1 o 22579.385 21362.148 0.00 0.99769 0.56
2 13 1 1 o 21457.486 20347.758 0.00 0.99767 0.57
3 12 3 1 o 24620.668 23319.600 0.00 0.99766 0.66
8 5 4 2 o 5192.133 4987.756 0.00 1.00003 0.05
1 13 2 1 o 14292.722 13790.878 180.00 0.99738 0.37
9 4 2 2 o 504.424 486.088 180.00 0.99979 0.01
1 9 7 2 o 7411.970 7159.733 180.00 0.99969 0.09
4 10 5 1 o 237.160 231.545 0.00 0.99680 0.01
3 2 9 2 o 4.843 4.087 0.00 0.99912 0.00
7 4 6 1 o 69493.98 67992.19 180.00 0.99662 1.49
8 3 5 1 o 12781.433 12815.951 0.00 0.99601 0.27
8 7 2 2 o 1208.410 1233.552 0.00 0.99791 0.02
5 6 7 2 o 36855.96 37432.63 180.00 0.99790 0.42
6 4 7 1 o 103.881 106.837 180.00 0.99534 0.00
4 5 8 1 o 530.279 539.110 0.00 0.99527 0.01
5 10 4 2 o 20905.918 21362.148 0.00 0.99769 0.26
2 13 1 2 o 19911.771 20347.758 0.00 0.99767 0.26
3 12 3 2 o 22784.410 23319.600 0.00 0.99766 0.30
1 13 2 2 o 13403.883 13790.878 180.00 0.99738 0.17
4 10 5 2 o 226.581 231.545 0.00 0.99680 0.00
7 4 6 2 o 66561.17 67992.19 180.00 0.99662 0.71
8 3 5 2 o 12568.479 12815.951 0.00 0.99601 0.13
6 4 7 2 o 103.594 106.837 180.00 0.99534 0.00
4 5 8 2 o 530.614 539.110 0.00 0.99527 0.00
6 9 4 1 o 31988.432 32614.627 180.00 0.99237 0.71
9 3 3 1 o 9148.182 9326.697 180.00 0.99233 0.17
2 4 9 1 o 14504.819 14881.599 0.00 0.99220 0.32
5 3 8 1 o 3349.729 3428.340 0.00 0.99219 0.06
2 7 8 1 o 234.795 244.306 180.00 0.99202 0.01
6 8 5 1 o 38130.39 39175.59 180.00 0.99118 0.87
9 5 1 1 o 4964.805 5123.063 180.00 0.99095 0.13
4 9 6 1 o 25.312 25.426 0.00 0.99043 0.00
5 8 6 1 o 22044.051 22977.529 0.00 0.99011 0.49
6 9 4 2 o 31218.709 32614.627 180.00 0.99237 0.34
9 3 3 2 o 8944.280 9326.697 180.00 0.99233 0.08
2 4 9 2 o 14181.983 14881.599 0.00 0.99220 0.15
5 3 8 2 o 3284.491 3428.340 0.00 0.99219 0.03
2 7 8 2 o 230.486 244.306 180.00 0.99202 0.00
6 8 5 2 o 37195.05 39175.59 180.00 0.99118 0.42
9 5 1 2 o 4714.156 5123.063 180.00 0.99095 0.06
0 5 9 1 o 2984.935 3228.721 180.00 0.98840 0.03
7 9 2 1 o 6966.876 7548.709 0.00 0.98834 0.16
4 9 6 2 o 25.072 25.426 0.00 0.99043 0.00
4 12 2 1 o 20685.729 23626.969 0.00 0.98768 0.54
5 8 6 2 o 20355.100 22977.529 0.00 0.99011 0.22
4 11 4 1 o 18.342 33.735 0.00 0.98701 0.00
2 12 4 1 o 14540.516 15763.348 180.00 0.98653 0.40
0 5 9 2 o 3105.556 3228.721 180.00 0.98840 0.02
7 9 2 2 o 7284.819 7548.709 0.00 0.98834 0.08
3 3 9 1 o 23350.475 23943.752 0.00 0.98538 0.46
4 12 2 2 o 22955.736 23626.969 0.00 0.98768 0.31
4 11 4 2 o 29.555 33.735 0.00 0.98701 0.00
2 12 4 2 o 15062.590 15763.348 180.00 0.98653 0.21
2 9 7 1 o 2683.859 2806.913 0.00 0.98403 0.06
1 5 9 1 o 12232.831 12852.886 180.00 0.98327 0.26
3 3 9 2 o 22504.039 23943.752 0.00 0.98538 0.22
2 13 2 1 o 3678.337 3892.911 0.00 0.98182 0.10
2 9 7 2 o 2656.852 2806.913 0.00 0.98403 0.03
1 5 9 2 o 12539.616 12852.886 180.00 0.98327 0.13
9 0 4 1 o 17929.918 16271.600 0.00 0.98002 0.20
2 13 2 2 o 4197.390 3892.911 0.00 0.98182 0.06
8 8 0 1 o 64735.11 61740.71 0.00 0.97824 0.74
6 10 3 1 o 778.845 746.570 180.00 0.97774 0.02
9 0 4 2 o 17085.893 16271.600 0.00 0.98002 0.09
5 11 3 1 o 2028.240 1925.620 0.00 0.97753 0.05
9 1 4 1 o 5583.051 5334.512 0.00 0.97738 0.11
8 4 5 1 o 3119.784 2964.615 0.00 0.97711 0.07
0 13 3 1 o 37872.40 35768.48 180.00 0.97633 0.51
3 11 5 1 o 16569.934 15776.157 0.00 0.97604 0.41
8 8 0 2 o 64102.27 61740.71 0.00 0.97824 0.37
9 5 2 1 o 48630.43 48367.76 180.00 0.97541 1.04
6 10 3 2 o 746.418 746.570 180.00 0.97774 0.01
3 10 6 1 o 1236.721 1246.899 0.00 0.97524 0.03
5 11 3 2 o 1892.044 1925.620 0.00 0.97753 0.03
9 1 4 2 o 5214.823 5334.512 0.00 0.97738 0.05
8 4 5 2 o 2880.567 2964.615 0.00 0.97711 0.03
6 7 6 1 o 1254.190 1277.810 0.00 0.97433 0.04
0 13 3 2 o 36130.69 35768.48 180.00 0.97633 0.24
3 11 5 2 o 16118.087 15776.157 0.00 0.97604 0.20
9 4 3 1 o 8481.533 8299.061 180.00 0.97362 0.18
5 4 8 1 o 1503.826 1463.534 0.00 0.97350 0.03
8 8 1 1 o 6504.587 6278.376 0.00 0.97317 0.15
9 5 2 2 o 50091.16 48367.76 180.00 0.97541 0.54
3 10 6 2 o 1291.423 1246.899 0.00 0.97524 0.02
7 5 6 1 o 4817.687 4657.837 0.00 0.97246 0.10
0 8 8 1 o 16430.404 15850.642 0.00 0.97231 0.20
3 13 1 1 o 5132.191 5003.115 0.00 0.97212 0.11
6 7 6 2 o 1328.080 1277.810 0.00 0.97433 0.02
8 7 3 1 o 38293.18 37402.55 180.00 0.97189 0.85
7 8 4 1 o 18440.752 18082.082 180.00 0.97180 0.42
1 13 3 1 o 2991.194 3000.891 0.00 0.97139 0.08
4 1 9 1 o 21276.313 21348.477 180.00 0.97138 0.45
6 5 7 1 o 984.340 992.751 0.00 0.97127 0.02
9 4 3 2 o 8204.580 8299.061 180.00 0.97362 0.09
5 4 8 2 o 1438.683 1463.534 0.00 0.97350 0.02
8 8 1 2 o 6158.679 6278.376 0.00 0.97317 0.07
8 6 4 1 o 333.251 334.461 180.00 0.97044 0.01
7 5 6 2 o 4724.793 4657.837 0.00 0.97246 0.05
0 8 8 2 o 16159.208 15850.642 0.00 0.97231 0.10
3 13 1 2 o 5068.445 5003.115 0.00 0.97212 0.05
9 2 4 1 o 6078.197 6026.331 0.00 0.96960 0.13
8 7 3 2 o 37376.50 37402.55 180.00 0.97189 0.41
7 1 7 1 o 47673.69 48117.77 0.00 0.96941 0.94
7 8 4 2 o 17891.531 18082.082 180.00 0.97180 0.20
9 2 4 2 o 6176.292 6026.331 0.00 0.96960 0.07
1 13 3 2 o 2797.151 3000.891 0.00 0.97139 0.04
4 1 9 2 o 19988.793 21348.477 180.00 0.97138 0.21
3 4 9 1 o 784.075 765.297 180.00 0.96706 0.02
7 1 7 2 o 49055.13 48117.77 0.00 0.96941 0.49
6 5 7 2 o 926.683 992.751 0.00 0.97127 0.01
3 7 8 1 o 32.322 31.854 0.00 0.96689 0.00
4 8 7 1 o 17.478 19.297 0.00 0.96879 0.00
10 0 0 1 o 4.946 4.830 180.00 0.96669 0.00
6 11 0 1 o 8922.409 9757.683 180.00 0.96850 0.10
2 5 9 1 o 1.227 1.400 180.00 0.96836 0.00
4 8 7 2 o 19.237 19.297 0.00 0.96879 0.00
8 6 4 2 o 315.753 334.461 180.00 0.97044 0.00
6 11 0 2 o 9759.683 9757.683 180.00 0.96850 0.05
4 6 8 1 o 3040.017 3037.880 180.00 0.96610 0.06
2 5 9 2 o 1.406 1.400 180.00 0.96836 0.00
7 7 5 1 o 25716.307 25416.707 0.00 0.96557 0.61
1 8 8 1 o 1884.520 1862.196 0.00 0.96743 0.04
1 8 8 2 o 1880.200 1862.196 0.00 0.96743 0.02
3 4 9 2 o 780.713 765.297 180.00 0.96706 0.01
3 7 8 2 o 32.698 31.854 0.00 0.96689 0.00
10 0 0 2 o 5.705 4.830 180.00 0.96669 0.00
10 1 0 1 o 20722.453 20078.543 180.00 0.96416 0.21
4 2 9 1 o 2302.916 2245.854 180.00 0.96374 0.05
4 6 8 2 o 3110.434 3037.880 180.00 0.96610 0.03
6 11 1 1 o 30694.588 30135.977 0.00 0.96359 0.75
8 0 6 1 o 5862.799 5796.122 180.00 0.96346 0.06
5 7 7 1 o 98.324 96.736 180.00 0.96342 0.00
7 7 5 2 o 25321.883 25416.707 0.00 0.96557 0.30
7 9 3 1 o 6155.614 6211.372 0.00 0.96303 0.12
4 12 3 1 o 368.412 372.238 180.00 0.96242 0.01
9 6 1 1 o 15087.890 15214.675 180.00 0.96214 0.35
7 2 7 1 o 6545.224 6646.232 180.00 0.96181 0.13
3 12 4 1 o 6265.496 6365.937 180.00 0.96180 0.15
10 1 0 2 o 19757.045 20078.543 180.00 0.96416 0.10
4 2 9 2 o 2142.063 2245.854 180.00 0.96374 0.02
6 11 1 2 o 28338.178 30135.977 0.00 0.96359 0.34
8 0 6 2 o 5402.685 5796.122 180.00 0.96346 0.03
5 7 7 2 o 84.575 96.736 180.00 0.96342 0.00
6 0 8 1 o 2523.141 2703.493 180.00 0.96098 0.02
8 1 6 1 o 10455.717 11517.553 180.00 0.96096 0.26
7 9 3 2 o 5781.417 6211.372 0.00 0.96303 0.05
1 11 6 1 o 5325.707 5810.176 0.00 0.96048 0.13
4 12 3 2 o 353.793 372.238 180.00 0.96242 0.00
9 6 1 2 o 14756.006 15214.675 180.00 0.96214 0.17
3 9 7 1 o 21622.193 21891.057 0.00 0.95949 0.47
7 2 7 2 o 6573.413 6646.232 180.00 0.96181 0.07
3 12 4 2 o 6298.009 6365.937 180.00 0.96180 0.08
10 1 1 1 o 38870.88 39180.96 0.00 0.95931 0.84
6 0 8 2 o 2688.033 2703.493 180.00 0.96098 0.01
8 1 6 2 o 11422.230 11517.553 180.00 0.96096 0.14
6 1 8 1 o 20509.643 20730.357 0.00 0.95849 0.48
8 8 2 1 o 20739.449 20967.209 0.00 0.95844 0.47
5 12 1 1 o 10657.568 10779.161 0.00 0.95839 0.24
1 11 6 2 o 5705.496 5810.176 0.00 0.96048 0.07
0 0 10 1 o 24252.330 24555.783 0.00 0.95780 0.11
3 13 2 1 o 10873.423 10962.854 0.00 0.95744 0.29
3 9 7 2 o 21581.105 21891.057 0.00 0.95949 0.23
9 3 4 1 o 2046.260 2088.987 0.00 0.95702 0.04
2 13 3 1 o 9344.253 9546.492 0.00 0.95700 0.24
10 1 1 2 o 38208.30 39180.96 0.00 0.95931 0.41
10 2 0 1 o 30382.383 31734.523 180.00 0.95668 0.33
1 12 5 1 o 60.784 61.436 0.00 0.95629 0.00
6 1 8 2 o 18976.193 20730.357 0.00 0.95849 0.22
8 8 2 2 o 19297.656 20967.209 0.00 0.95844 0.21
5 12 1 2 o 9959.352 10779.161 0.00 0.95839 0.11
0 0 10 2 o 22389.594 24555.783 0.00 0.95780 0.05
1 6 9 1 o 3841.135 4200.510 0.00 0.95511 0.10
3 13 2 2 o 10195.139 10962.854 0.00 0.95744 0.13
9 3 4 2 o 2088.503 2088.987 0.00 0.95702 0.02
2 13 3 2 o 9573.063 9546.492 0.00 0.95700 0.12
7 10 1 1 o 342.257 326.796 0.00 0.95435 0.01
10 2 0 2 o 33563.449 31734.523 180.00 0.95668 0.19
8 5 5 1 o 1713.902 1618.926 180.00 0.95431 0.04
1 12 5 2 o 62.538 61.436 0.00 0.95629 0.00
8 2 6 1 o 8505.923 7485.213 0.00 0.95355 0.18
2 8 8 1 o 273.677 213.430 0.00 0.95322 0.01
1 0 10 1 o 43625.83 38582.71 0.00 0.95314 0.49
1 6 9 2 o 4640.974 4200.510 0.00 0.95511 0.06
5 10 5 1 o 25.738 21.390 180.00 0.95228 0.00
0 14 0 1 o 124966.52 118354.05 0.00 0.95221 0.83
7 10 1 2 o 342.997 326.796 0.00 0.95435 0.00
8 5 5 2 o 1705.816 1618.926 180.00 0.95431 0.02
10 2 1 1 o 20346.344 19354.330 180.00 0.95195 0.42
4 3 9 1 o 44514.67 42555.78 0.00 0.95139 0.97
8 2 6 2 o 7781.794 7485.213 0.00 0.95355 0.08
6 2 8 1 o 1.776 1.142 0.00 0.95114 0.00
9 5 3 1 o 1240.530 1212.184 180.00 0.95106 0.02
5 5 8 1 o 25105.146 24326.537 180.00 0.95094 0.54
2 8 8 2 o 227.230 213.430 0.00 0.95322 0.01
1 0 10 2 o 39708.56 38582.71 0.00 0.95314 0.22
1 1 10 1 o 2517.332 2452.397 0.00 0.95071 0.05
1 10 7 1 o 87.292 87.217 180.00 0.95022 0.00
5 10 5 2 o 24.310 21.390 180.00 0.95228 0.00
0 14 0 2 o 123114.27 118354.05 0.00 0.95221 0.41
10 2 1 2 o 20178.885 19354.330 180.00 0.95195 0.21
7 3 7 1 o 3852.584 3717.344 180.00 0.94954 0.07
6 11 2 1 o 4092.022 3877.387 180.00 0.94928 0.12
4 3 9 2 o 44611.13 42555.78 0.00 0.95139 0.49
6 2 8 2 o 1.988 1.142 0.00 0.95114 0.00
9 5 3 2 o 1253.106 1212.184 180.00 0.95106 0.01
5 5 8 2 o 25580.426 24326.537 180.00 0.95094 0.28
1 1 10 2 o 2576.541 2452.397 0.00 0.95071 0.03
0 2 10 1 o 5625.558 5351.874 180.00 0.94807 0.06
9 6 2 1 o 4117.025 3937.287 0.00 0.94790 0.08
1 10 7 2 o 87.341 87.217 180.00 0.95022 0.00
6 9 5 1 o 4340.401 4134.460 0.00 0.94765 0.11
10 0 2 1 o 4389.193 4212.778 180.00 0.94758 0.04
7 3 7 2 o 3831.690 3717.344 180.00 0.94954 0.03
6 11 2 2 o 4016.495 3877.387 180.00 0.94928 0.06
5 9 6 1 o 24800.650 24281.830 0.00 0.94672 0.59
2 11 6 1 o 11179.358 10971.641 180.00 0.94656 0.30
0 2 10 2 o 5521.296 5351.874 180.00 0.94807 0.03
9 6 2 2 o 4080.545 3937.287 0.00 0.94790 0.04
6 9 5 2 o 4356.516 4134.460 0.00 0.94765 0.05
10 0 2 2 o 4417.142 4212.778 180.00 0.94758 0.02
10 1 2 1 o 4293.761 4029.535 180.00 0.94519 0.11
7 6 6 1 o 10.457 10.044 0.00 0.94519 0.00
3 5 9 1 o 10866.156 10303.460 0.00 0.94494 0.22
10 3 0 1 o 3229.486 3064.746 180.00 0.94460 0.03
5 9 6 2 o 26111.170 24281.830 0.00 0.94672 0.31
5 12 2 1 o 3876.677 3590.489 0.00 0.94431 0.10
2 11 6 2 o 11949.098 10971.641 180.00 0.94656 0.16
6 6 7 1 o 0.888 0.825 0.00 0.94410 0.00
4 13 0 1 o 133.844 128.945 0.00 0.94399 0.00
6 10 4 1 o 25723.098 23492.189 180.00 0.94392 0.62
5 11 4 1 o 3178.239 2875.923 0.00 0.94373 0.08
1 2 10 1 o 12780.367 11563.062 0.00 0.94354 0.28
1 14 1 1 o 4594.626 4100.266 0.00 0.94302 0.16
4 11 5 1 o 91767.20 84225.88 180.00 0.94298 2.33
10 1 2 2 o 4413.615 4029.535 180.00 0.94519 0.06
7 6 6 2 o 10.641 10.044 0.00 0.94519 0.00
3 5 9 2 o 10892.813 10303.460 0.00 0.94494 0.11
2 12 5 1 o 56506.27 53357.84 180.00 0.94256 1.44
10 3 0 2 o 3158.686 3064.746 180.00 0.94460 0.01
4 10 6 1 o 9943.761 9569.951 180.00 0.94225 0.25
5 12 2 2 o 3676.185 3590.489 0.00 0.94431 0.05
6 6 7 2 o 0.838 0.825 0.00 0.94410 0.00
4 13 0 2 o 129.917 128.945 0.00 0.94399 0.00
6 10 4 2 o 23925.889 23492.189 180.00 0.94392 0.28
8 3 6 1 o 5627.282 5498.747 180.00 0.94159 0.15
2 6 9 1 o 31973.996 31327.277 0.00 0.94142 0.72
5 11 4 2 o 2936.831 2875.923 0.00 0.94373 0.04
1 2 10 2 o 11845.786 11563.062 0.00 0.94354 0.13
1 14 1 2 o 4311.611 4100.266 0.00 0.94302 0.08
4 11 5 2 o 87603.02 84225.88 180.00 0.94298 1.10
7 10 2 1 o 21456.115 20646.939 0.00 0.94045 0.50
2 12 5 2 o 55285.77 53357.84 180.00 0.94256 0.70
9 4 4 1 o 1296.444 1256.699 0.00 0.94021 0.03
10 3 1 1 o 170.877 167.389 0.00 0.94004 0.00
4 10 6 2 o 9814.446 9569.951 180.00 0.94225 0.13
2 0 10 1 o 109.812 109.638 0.00 0.93953 0.00
4 13 1 1 o 54177.11 54023.23 180.00 0.93944 1.39
8 3 6 2 o 5466.068 5498.747 180.00 0.94159 0.07
6 3 8 1 o 8640.138 8691.442 0.00 0.93926 0.22
2 6 9 2 o 30947.064 31327.277 0.00 0.94142 0.35
8 7 4 1 o 1308.015 1347.240 180.00 0.93865 0.04
1 13 4 1 o 3240.308 3231.634 180.00 0.93820 0.08
10 2 2 1 o 12185.790 12103.654 180.00 0.93815 0.26
7 10 2 2 o 20802.682 20646.939 0.00 0.94045 0.24
9 4 4 2 o 1283.655 1256.699 0.00 0.94021 0.01
10 3 1 2 o 171.299 167.389 0.00 0.94004 0.00
6 8 6 1 o 1347.935 1300.208 180.00 0.93750 0.03
2 0 10 2 o 110.246 109.638 0.00 0.93953 0.00
2 1 10 1 o 35992.39 35150.82 180.00 0.93721 0.80
4 13 1 2 o 55011.82 54023.23 180.00 0.93944 0.71
6 3 8 2 o 8772.660 8691.442 0.00 0.93926 0.11
2 10 7 1 o 5.858 5.888 180.00 0.93674 0.00
8 7 4 2 o 1338.411 1347.240 180.00 0.93865 0.02
8 9 0 1 o 14526.058 14588.686 0.00 0.93632 0.18
1 13 4 2 o 3309.482 3231.634 180.00 0.93820 0.04
10 2 2 2 o 12448.450 12103.654 180.00 0.93815 0.13
8 8 3 1 o 1054.553 993.143 180.00 0.93532 0.02
6 8 6 2 o 1389.200 1300.208 180.00 0.93750 0.02
2 1 10 2 o 36907.22 35150.82 180.00 0.93721 0.41
4 4 9 1 o 439.306 420.866 0.00 0.93487 0.01
4 7 8 1 o 1177.955 1128.931 180.00 0.93471 0.04
9 1 5 1 o 2000.440 1979.764 180.00 0.93457 0.03
2 10 7 2 o 5.926 5.888 180.00 0.93674 0.00
3 13 3 1 o 39612.65 39694.40 0.00 0.93438 1.07
2 14 0 1 o 13465.955 13679.676 180.00 0.93425 0.20
8 9 0 2 o 14042.106 14588.686 0.00 0.93632 0.09
0 14 2 1 o 37187.18 38875.02 0.00 0.93393 0.52
7 4 7 1 o 1407.548 1478.365 0.00 0.93311 0.03
8 8 3 2 o 951.501 993.143 180.00 0.93532 0.01
4 4 9 2 o 419.242 420.866 0.00 0.93487 0.00
4 7 8 2 o 1142.755 1128.931 180.00 0.93471 0.02
9 1 5 2 o 2001.089 1979.764 180.00 0.93457 0.01
3 13 3 2 o 40654.02 39694.40 0.00 0.93438 0.56
2 14 0 2 o 14038.461 13679.676 180.00 0.93425 0.10
1 3 10 1 o 1652.549 1609.133 0.00 0.93194 0.04
8 9 1 1 o 23387.678 22857.555 180.00 0.93188 0.54
0 14 2 2 o 39689.83 38875.02 0.00 0.93393 0.28
9 7 1 1 o 1876.558 1851.835 0.00 0.93113 0.05
3 8 8 1 o 39194.57 38874.44 180.00 0.93086 0.89
7 4 7 2 o 1489.804 1478.365 0.00 0.93311 0.02
7 9 4 1 o 1963.189 1950.215 0.00 0.93067 0.05
2 2 10 1 o 0.371 0.361 0.00 0.93034 0.00
4 12 4 1 o 1213.459 1206.078 0.00 0.93012 0.02
5 1 9 1 o 3294.871 3269.737 180.00 0.93004 0.05
2 14 1 1 o 516.084 507.876 180.00 0.92984 0.01
7 8 5 1 o 53.990 53.218 180.00 0.92968 0.00
1 3 10 2 o 1645.941 1609.133 0.00 0.93194 0.02
1 14 2 1 o 38670.57 37849.93 0.00 0.92960 1.05
8 9 1 2 o 23346.289 22857.555 180.00 0.93188 0.27
0 7 9 1 o 46612.35 45400.08 0.00 0.92901 0.53
9 7 1 2 o 1916.146 1851.835 0.00 0.93113 0.03
3 8 8 2 o 40007.96 38874.44 180.00 0.93086 0.46
8 6 5 1 o 6542.992 6353.138 0.00 0.92850 0.15
10 4 0 1 o 46562.01 45299.42 180.00 0.92842 0.50
7 9 4 2 o 2006.954 1950.215 0.00 0.93067 0.02
2 2 10 2 o 0.399 0.361 0.00 0.93034 0.00
4 9 7 1 o 3217.442 3146.629 180.00 0.92803 0.08
4 12 4 2 o 1219.880 1206.078 0.00 0.93012 0.01
5 8 7 1 o 21591.980 21299.236 0.00 0.92777 0.48
9 2 5 1 o 417.676 413.706 180.00 0.92776 0.01
5 1 9 2 o 3304.833 3269.737 180.00 0.93004 0.03
2 14 1 2 o 512.275 507.876 180.00 0.92984 0.01
7 8 5 2 o 53.392 53.218 180.00 0.92968 0.00
1 14 2 2 o 37974.72 37849.93 0.00 0.92960 0.52
1 9 8 1 o 15947.465 15754.391 180.00 0.92683 0.37
6 11 3 1 o 6486.358 6392.473 0.00 0.92680 0.16
10 3 2 1 o 3498.145 3422.018 180.00 0.92674 0.10
0 7 9 2 o 46236.68 45400.08 0.00 0.92901 0.26
8 6 5 2 o 6778.436 6353.138 0.00 0.92850 0.08
4 13 2 1 o 690.199 635.081 0.00 0.92617 0.02
10 4 0 2 o 48482.16 45299.42 180.00 0.92842 0.26
4 9 7 2 o 3437.967 3146.629 180.00 0.92803 0.04
8 4 6 1 o 34554.449 32043.758 0.00 0.92556 0.77
9 6 3 1 o 21783.168 20322.018 180.00 0.92551 0.49
5 8 7 2 o 22760.100 21299.236 0.00 0.92777 0.26
9 2 5 2 o 433.636 413.706 180.00 0.92776 0.00
5 6 8 1 o 36404.00 34218.938 0.00 0.92540 0.85
2 13 4 1 o 28757.164 27615.572 180.00 0.92522 0.79
1 7 9 1 o 17987.393 18397.277 180.00 0.92475 0.38
3 11 6 1 o 2789.063 2885.834 180.00 0.92466 0.07
1 9 8 2 o 15105.734 15754.391 180.00 0.92683 0.17
6 11 3 2 o 6101.732 6392.473 0.00 0.92680 0.08
10 3 2 2 o 3215.945 3422.018 180.00 0.92674 0.04
10 4 1 1 o 6489.524 6771.933 0.00 0.92409 0.15
4 13 2 2 o 624.067 635.081 0.00 0.92617 0.01
6 4 8 1 o 36.005 29.810 180.00 0.92336 0.00
5 2 9 1 o 636.191 610.439 0.00 0.92333 0.01
8 4 6 2 o 34467.793 32043.758 0.00 0.92556 0.39
9 6 3 2 o 21873.451 20322.018 180.00 0.92551 0.24
5 6 8 2 o 36986.67 34218.938 0.00 0.92540 0.43
10 1 3 1 o 4445.607 4146.350 0.00 0.92299 0.10
2 13 4 2 o 29645.100 27615.572 180.00 0.92522 0.41
1 7 9 2 o 18578.604 18397.277 180.00 0.92475 0.20
3 11 6 2 o 2871.517 2885.834 180.00 0.92466 0.04
5 12 3 1 o 32988.270 34494.164 0.00 0.92217 0.84
10 4 1 2 o 6042.577 6771.933 0.00 0.92409 0.07
6 4 8 2 o 16.934 29.810 180.00 0.92336 0.00
5 2 9 2 o 559.184 610.439 0.00 0.92333 0.00
3 12 5 1 o 507.780 595.176 180.00 0.92092 0.01
10 1 3 2 o 3671.680 4146.350 0.00 0.92299 0.04
0 4 10 1 o 22040.426 24148.016 180.00 0.92054 0.20
5 12 3 2 o 31689.277 34494.164 0.00 0.92217 0.40
3 6 9 1 o 51.056 72.058 0.00 0.91986 0.01
9 5 4 1 o 9987.994 10915.655 180.00 0.91985 0.22
2 3 10 1 o 8027.802 9550.477 180.00 0.91921 0.18
8 9 2 1 o 32.580 33.750 0.00 0.91892 0.00
3 12 5 2 o 458.098 595.176 180.00 0.92092 0.01
7 10 3 1 o 1546.882 2053.281 0.00 0.91857 0.04
9 3 5 1 o 10711.729 11811.887 180.00 0.91672 0.26
8 9 2 2 o 33.237 33.750 0.00 0.91892 0.00
0 4 10 2 o 19411.012 24148.016 180.00 0.92054 0.08
9 7 2 1 o 24.150 28.962 0.00 0.91820 0.00
10 2 3 1 o 4991.051 5449.898 0.00 0.91642 0.10
3 0 10 1 o 1685.629 2155.163 180.00 0.91810 0.02
1 4 10 1 o 2243.495 2435.224 0.00 0.91640 0.04
7 10 3 2 o 1850.149 2053.281 0.00 0.91857 0.02
9 7 2 2 o 26.805 28.962 0.00 0.91820 0.00
3 1 10 1 o 1590.806 1771.081 180.00 0.91593 0.03
3 6 9 2 o 29.964 72.058 0.00 0.91986 0.00
9 5 4 2 o 9103.240 10915.655 180.00 0.91985 0.10
3 0 10 2 o 1931.545 2155.163 180.00 0.91810 0.01
7 7 6 1 o 237.104 274.581 180.00 0.91574 0.01
3 10 7 1 o 7811.568 9069.132 0.00 0.91549 0.22
2 14 2 1 o 5159.889 5614.417 180.00 0.91697 0.12
2 3 10 2 o 8632.249 9550.477 180.00 0.91921 0.10
4 5 9 1 o 1037.971 1194.545 0.00 0.91484 0.02
6 7 7 1 o 2595.983 3016.367 0.00 0.91475 0.06
2 14 2 2 o 4967.209 5614.417 180.00 0.91697 0.05
6 12 0 1 o 7734.229 8904.401 180.00 0.91458 0.09
9 3 5 2 o 10047.102 11811.887 180.00 0.91672 0.12
2 9 8 1 o 7833.656 8870.276 180.00 0.91431 0.16
10 2 3 2 o 4783.460 5449.898 0.00 0.91642 0.05
1 4 10 2 o 2162.695 2435.224 0.00 0.91640 0.02
3 1 10 2 o 1656.734 1771.081 180.00 0.91593 0.02
7 7 6 2 o 264.672 274.581 180.00 0.91574 0.00
3 10 7 2 o 9210.702 9069.132 0.00 0.91549 0.13
7 5 7 1 o 12053.008 11783.671 0.00 0.91319 0.32
4 5 9 2 o 1263.353 1194.545 0.00 0.91484 0.01
6 7 7 2 o 3196.388 3016.367 0.00 0.91475 0.04
5 3 9 1 o 31112.658 29362.137 180.00 0.91245 0.75
6 12 0 2 o 9376.398 8904.401 180.00 0.91458 0.06
2 7 9 1 o 893.417 847.987 0.00 0.91231 0.02
2 9 8 2 o 9279.984 8870.276 180.00 0.91431 0.10
0 12 6 1 o 17206.150 16232.115 0.00 0.91184 0.26
10 4 2 1 o 25794.160 24570.400 180.00 0.91145 0.62
7 5 7 2 o 12319.607 11783.671 0.00 0.91319 0.16
6 12 1 1 o 29617.813 28229.840 180.00 0.91044 0.77
5 3 9 2 o 30909.828 29362.137 180.00 0.91245 0.37
2 7 9 2 o 888.980 847.987 0.00 0.91231 0.01
0 12 6 2 o 17074.686 16232.115 0.00 0.91184 0.13
3 2 10 1 o 18689.822 17888.221 180.00 0.90952 0.43
10 4 2 2 o 25535.740 24570.400 180.00 0.91145 0.31
3 14 1 1 o 1634.053 1563.761 0.00 0.90905 0.07
10 5 0 1 o 24415.842 24078.975 0.00 0.90880 0.26
1 14 3 1 o 590.317 596.458 180.00 0.90845 0.03
6 12 1 2 o 27561.641 28229.840 180.00 0.91044 0.35
1 12 6 1 o 10465.552 11058.400 0.00 0.90781 0.26
3 2 10 2 o 16484.424 17888.221 180.00 0.90952 0.18
0 11 7 1 o 176.226 186.385 180.00 0.90722 0.00
3 14 1 2 o 1375.600 1563.761 0.00 0.90905 0.03
7 11 1 1 o 11891.297 12861.431 0.00 0.90680 0.27
10 5 0 2 o 22311.717 24078.975 0.00 0.90880 0.11
1 14 3 2 o 516.031 596.458 180.00 0.90845 0.01
8 5 6 1 o 8358.629 9132.789 0.00 0.90612 0.21
10 3 3 1 o 22597.314 24151.775 0.00 0.90579 0.51
8 8 4 1 o 163.885 172.321 180.00 0.90558 0.00
1 12 6 2 o 10495.265 11058.400 0.00 0.90781 0.13
4 13 3 1 o 2612.150 2709.579 180.00 0.90525 0.08
6 10 5 1 o 7775.124 8019.003 180.00 0.90519 0.20
5 11 5 1 o 13356.374 13652.902 180.00 0.90502 0.35
0 11 7 2 o 183.889 186.385 180.00 0.90722 0.00
10 5 1 1 o 7453.202 7532.620 0.00 0.90474 0.17
3 13 4 1 o 660.673 666.503 0.00 0.90473 0.01
7 0 8 1 o 4879.854 4921.703 0.00 0.90462 0.06
7 11 1 2 o 12776.499 12861.431 0.00 0.90680 0.15
5 10 6 1 o 278.409 279.552 0.00 0.90438 0.01
2 4 10 1 o 1012.661 1019.234 0.00 0.90429 0.04
0 13 5 1 o 47484.88 47858.28 180.00 0.90407 0.62
6 5 8 1 o 17673.824 17836.891 180.00 0.90405 0.42
8 5 6 2 o 8971.606 9132.789 0.00 0.90612 0.12
8 1 7 1 o 3713.749 3832.974 180.00 0.90365 0.09
10 3 3 2 o 23298.701 24151.775 0.00 0.90579 0.27
8 8 4 2 o 165.151 172.321 180.00 0.90558 0.00
1 11 7 1 o 540.434 566.953 0.00 0.90325 0.01
4 13 3 2 o 2572.902 2709.579 180.00 0.90525 0.04
6 10 5 2 o 7653.853 8019.003 180.00 0.90519 0.10
5 11 5 2 o 13158.892 13652.902 180.00 0.90502 0.17
7 1 8 1 o 2598.226 2636.816 180.00 0.90255 0.06
10 5 1 2 o 7446.031 7532.620 0.00 0.90474 0.08
3 13 4 2 o 660.214 666.503 0.00 0.90473 0.01
7 0 8 2 o 4910.816 4921.703 0.00 0.90462 0.03
5 10 6 2 o 283.958 279.552 0.00 0.90438 0.00
2 4 10 2 o 1054.729 1019.234 0.00 0.90429 0.02
4 8 8 1 o 278.755 276.331 180.00 0.90204 0.00
9 4 5 1 o 755.074 730.380 0.00 0.90192 0.02
5 13 1 1 o 9950.729 9604.352 180.00 0.90189 0.31
0 13 5 2 o 49450.89 47858.28 180.00 0.90407 0.33
6 5 8 2 o 18487.473 17836.891 180.00 0.90405 0.22
8 1 7 2 o 4047.679 3832.974 180.00 0.90365 0.05
1 11 7 2 o 612.249 566.953 0.00 0.90325 0.01
8 7 5 1 o 83267.45 78045.33 180.00 0.90054 2.02
6 9 6 1 o 26441.711 25181.916 180.00 0.90041 0.69
7 1 8 2 o 2718.880 2636.816 180.00 0.90255 0.03
1 13 5 1 o 12855.328 12910.140 180.00 0.90014 0.36
4 8 8 2 o 270.696 276.331 180.00 0.90204 0.00
9 4 5 2 o 677.570 730.380 0.00 0.90192 0.01
5 13 1 2 o 8878.338 9604.352 180.00 0.90189 0.13
3 3 10 1 o 67.716 68.516 180.00 0.89911 0.00
9 8 1 1 o 7782.908 7607.367 0.00 0.89882 0.17
8 9 3 1 o 8184.559 7741.875 180.00 0.89848 0.21
6 12 2 1 o 8123.042 7706.707 180.00 0.89834 0.20
8 7 5 2 o 82621.24 78045.33 180.00 0.90054 1.00
6 9 6 2 o 26734.693 25181.916 180.00 0.90041 0.35
1 13 5 2 o 13634.253 12910.140 180.00 0.90014 0.19
5 4 9 1 o 125.107 120.477 180.00 0.89785 0.00
6 11 4 1 o 23214.289 21887.869 0.00 0.89784 0.68
9 7 3 1 o 48.884 44.287 180.00 0.89781 0.00
5 7 8 1 o 12.685 12.194 0.00 0.89771 0.00
1 5 10 1 o 6469.341 6096.945 180.00 0.89751 0.16
8 2 7 1 o 36.586 34.565 180.00 0.89748 0.00
3 14 2 1 o 19325.693 17639.254 0.00 0.89701 0.54
3 3 10 2 o 72.984 68.516 180.00 0.89911 0.00
9 6 4 1 o 12005.506 10767.827 0.00 0.89667 0.30
2 14 3 1 o 180.658 161.377 0.00 0.89665 0.01
9 8 1 2 o 8364.794 7607.367 0.00 0.89882 0.10
7 2 8 1 o 24140.416 22149.910 180.00 0.89641 0.56
4 11 6 1 o 2326.447 2087.962 180.00 0.89640 0.08
10 0 4 1 o 50075.32 45821.73 180.00 0.89640 0.60
8 9 3 2 o 8323.660 7741.875 180.00 0.89848 0.11
6 12 2 2 o 8080.545 7706.707 180.00 0.89834 0.10
2 12 6 1 o 301.563 298.019 180.00 0.89604 0.00
5 4 9 2 o 120.785 120.477 180.00 0.89785 0.00
6 11 4 2 o 21971.645 21887.869 0.00 0.89784 0.32
9 7 3 2 o 44.488 44.287 180.00 0.89781 0.00
5 7 8 2 o 12.205 12.194 0.00 0.89771 0.00
1 5 10 2 o 6139.637 6096.945 180.00 0.89751 0.08
8 10 0 1 o 6958.387 6911.476 180.00 0.89530 0.09
8 2 7 2 o 34.842 34.565 180.00 0.89748 0.00
7 11 2 1 o 4782.731 4549.323 180.00 0.89485 0.14
3 14 2 2 o 18491.389 17639.254 0.00 0.89701 0.26
3 9 8 1 o 10796.604 10226.289 0.00 0.89452 0.27
9 6 4 2 o 11369.572 10767.827 0.00 0.89667 0.14
2 14 3 2 o 170.655 161.377 0.00 0.89665 0.00
10 1 4 1 o 26861.154 25535.184 0.00 0.89438 0.66
7 2 8 2 o 22852.502 22149.910 180.00 0.89641 0.26
4 11 6 2 o 2171.350 2087.962 180.00 0.89640 0.04
10 0 4 2 o 47302.25 45821.73 180.00 0.89640 0.28
2 12 6 2 o 297.216 298.019 180.00 0.89604 0.00
5 12 4 1 o 6794.955 6970.898 0.00 0.89363 0.18
7 9 5 1 o 13410.880 13920.882 0.00 0.89348 0.38
8 10 0 2 o 6728.862 6911.476 180.00 0.89530 0.04
1 8 9 1 o 795.364 812.354 180.00 0.89308 0.02
4 12 5 1 o 3838.160 3913.140 180.00 0.89299 0.11
10 5 2 1 o 3795.352 3817.938 0.00 0.89287 0.10
3 7 9 1 o 6173.547 6041.472 0.00 0.89265 0.16
7 11 2 2 o 4654.810 4549.323 180.00 0.89485 0.07
3 9 8 2 o 10784.174 10226.289 0.00 0.89452 0.14
10 1 4 2 o 27231.354 25535.184 0.00 0.89438 0.34
4 6 9 1 o 1879.234 1764.056 0.00 0.89203 0.05
5 9 7 1 o 26462.717 25266.580 180.00 0.89178 0.71
2 11 7 1 o 1682.210 1634.394 0.00 0.89165 0.04
10 4 3 1 o 2085.640 2060.589 180.00 0.89149 0.05
5 12 4 2 o 7005.268 6970.898 0.00 0.89363 0.10
8 10 1 1 o 1254.137 1250.505 0.00 0.89141 0.03
7 9 5 2 o 13777.597 13920.882 0.00 0.89348 0.20
9 0 6 1 o 2005.488 2038.891 0.00 0.89115 0.02
1 8 9 2 o 795.292 812.354 180.00 0.89308 0.01
4 12 5 2 o 3801.971 3913.140 180.00 0.89299 0.05
0 10 8 1 o 6738.487 6916.143 180.00 0.89075 0.08
10 5 2 2 o 3688.101 3817.938 0.00 0.89287 0.05
7 6 7 1 o 3193.009 3316.388 0.00 0.89050 0.07
3 7 9 2 o 5763.752 6041.472 0.00 0.89265 0.08
4 0 10 1 o 55904.41 58637.69 180.00 0.89042 0.66
7 10 4 1 o 139.117 145.431 0.00 0.89036 0.00
5 13 2 1 o 15826.612 17003.578 0.00 0.89013 0.42
4 6 9 2 o 1590.418 1764.056 0.00 0.89203 0.02
