#------------------------------------------------------------------------------
#$Date: 2016-03-21 01:21:50 +0200 (Mon, 21 Mar 2016) $
#$Revision: 178377 $
#$URL: svn://www.crystallography.net/cod/cif/4/00/12/4001281.cif $
#------------------------------------------------------------------------------
#
# This file is available in the Crystallography Open Database (COD),
# http://www.crystallography.net/
#
# All data on this site have been placed in the public domain by the
# contributors.
#
data_4001281
loop_
_publ_author_name
'Ngala, J. Katana'
'Alia, Shaun'
'Dobley, Arthur'
'Crisostomo, Vincent Mark B.'
'Suib, Steven L.'
_publ_section_title
;
 Characterization and Electrocatalytic Behavior of Layered Li2MnO3and Its
 Acid-Treated Form
;
_journal_issue                   2
_journal_name_full               'Chemistry of Materials'
_journal_page_first              229
_journal_paper_doi               10.1021/cm0616937
_journal_volume                  19
_journal_year                    2007
_chemical_formula_sum            'Li1.33 Mn0.67 O2'
_chemical_formula_weight         77.88
_chemical_name_systematic        ' ?'
_space_group_IT_number           12
_symmetry_cell_setting           monoclinic
_symmetry_space_group_name_Hall  '-C 2y'
_symmetry_space_group_name_H-M   'C 1 2/m 1'
_audit_creation_date             2006-06-04T23:27
_audit_creation_method           'from EXP file using GSAS2CIF'
_audit_update_record
' 2006-06-04T23:27  Initial CIF as created by GSAS2CIF'
_cell_angle_alpha                90.0
_cell_angle_beta                 109.141(15)
_cell_angle_gamma                90.0
_cell_formula_units_Z            6
_cell_length_a                   4.9407(7)
_cell_length_b                   8.5277(6)
_cell_length_c                   5.0184(6)
_cell_volume                     199.75(4)
_computing_structure_refinement  GSAS
_diffrn_detector                 ?'Ge'
_diffrn_measurement_device_type  ?"XDS_Scintag2000"
_diffrn_radiation_polarisn_ratio 0.5
_diffrn_radiation_probe          x-ray
_exptl_absorpt_correction_T_max  0.85614
_exptl_absorpt_correction_T_min  0.38222
_exptl_absorpt_process_details
;   GSAS Absorption/surface roughness correction: function number 3
 Surface roughness abs. correction (Suortti)
Terms =     0.22207        0.70000    
Correction is not refined.
;
_pd_block_id
2006-06-04T23:27|LI2MN_S5|Katana_Ngala|xds_scintag2000
_pd_calc_method                  'Rietveld Refinement'
_pd_instr_location               ' ?'
_pd_meas_2theta_range_inc        0.02
_pd_meas_2theta_range_max        90.0
_pd_meas_2theta_range_min        10.0
_pd_meas_number_of_points        4001
_pd_phase_name
'from C:/Documents and Settings/John Ngala/My Documents/Refinement/'
_pd_proc_2theta_range_inc        0.02
_pd_proc_2theta_range_max        90.0
_pd_proc_2theta_range_min        10.0
_pd_proc_info_datetime           2006-06-04T23:27:08
_pd_proc_info_excluded_regions   ' ?'
_pd_proc_ls_background_function
;   GSAS Background function number 1 with  6 terms.
 Shifted Chebyshev function of 1st kind
      1:    260.366     2:   -272.660     3:    119.266     4:   -26.1880    
      5:   -16.9489     6:    28.4539    
;
_pd_proc_ls_peak_cutoff          0.00500
_pd_proc_ls_profile_function
;
 CW Profile function number 2 with  18 terms
 Profile coefficients for Simpson's rule integration of pseudovoigt function
 C.J. Howard (1982). J. Appl. Cryst.,15,615-620.
 P. Thompson, D.E. Cox & J.B. Hastings (1987). J. Appl. Cryst.,20,79-83.
 Peak tails are ignored  where the intensity is below 0.0050 times the peak
   Aniso. broadening axis   0.0   0.0   1.0
;
_pd_proc_ls_prof_R_factor        0.1082
_pd_proc_ls_prof_wR_expected     0.0464
_pd_proc_ls_prof_wR_factor       0.1485
_pd_proc_number_of_points        4001
_pd_spec_mounting                ' ?'
_refine_ls_goodness_of_fit_all   3.20
_refine_ls_matrix_type           full
_refine_ls_number_parameters     7
_refine_ls_number_restraints     0
_refine_ls_R_Fsqd_factor         0.11392
_refine_ls_shift/su_max          0.01
_refine_ls_shift/su_mean         0.01
_reflns_d_resolution_high        1.092
_reflns_d_resolution_low         4.741
_reflns_limit_h_max              4
_reflns_limit_h_min              0
_reflns_limit_k_max              8
_reflns_limit_k_min              0
_reflns_limit_l_max              4
_reflns_limit_l_min              -4
_reflns_number_total             181
_cod_data_source_file            cm0616937si20060720_115543.cif
_cod_data_source_block           LI2MN_S5_publ
_cod_depositor_comments
;
The following automatic conversions were performed:

'_geom_bond_publ_flag' value 'N' changed to 'n' according to
/home/saulius/struct/CIF-dictionaries/cif_core.dic dictionary named
'cif_core.dic' version 2.4.1 from 2010-06-29 (162
times).

'_geom_angle_publ_flag' value 'N' changed to 'n' according
to /home/saulius/struct/CIF-dictionaries/cif_core.dic dictionary
named 'cif_core.dic' version 2.4.1 from 2010-06-29 (937 times).

Automatic conversion script
Id: cif_fix_values 1715 2011-07-08 13:25:40Z adriana 
;
_cod_original_sg_symbol_H-M      'C 2/m'
_cod_database_code               4001281
#BEGIN Tags that were not found in dictionaries:
_gsas_exptl_extinct_corr_t_min   1.00000
_gsas_exptl_extinct_corr_t_max   1.00000
#END Tags that were not found in dictionaries
loop_
_symmetry_equiv_pos_site_id
_symmetry_equiv_pos_as_xyz
1 +x,+y,+z
2 -x,+y,-z
-1 -x,-y,-z
-2 +x,-y,+z
101 +x+1/2,+y+1/2,+z
102 -x+1/2,+y+1/2,-z
-101 -x+1/2,-y+1/2,-z
-102 +x+1/2,-y+1/2,+z
loop_
_atom_site_type_symbol
_atom_site_label
_atom_site_fract_x
_atom_site_fract_y
_atom_site_fract_z
_atom_site_occupancy
_atom_site_thermal_displace_type
_atom_site_U_iso_or_equiv
_atom_site_symmetry_multiplicity
Mn Mn1 0.0 0.16369 0.0 0.8 Uiso 0.025 4
Li Li1 0.0 0.5 0.0 0.6 Uiso 0.025 2
Li Li2 0.0 0.0 0.5 1.0 Uiso 0.025 2
Li Li3 0.0 0.69324 0.5 1.0 Uiso 0.025 4
O O1 0.19544 0.0 0.22331 1.0 Uiso 0.025 4
O O2 0.27277 0.31284 0.23333 1.0 Uiso 0.025 8
Mn Mn2 0.0 0.5 0.0 0.4 Uiso 0.025 2
Li Li4 0.0 0.16369 0.0 0.2 Uiso 0.025 4
loop_
_atom_type_symbol
_atom_type_number_in_cell
_atom_type_scat_dispersion_real
_atom_type_scat_dispersion_imag
_atom_type_scat_Cromer_Mann_a1
_atom_type_scat_Cromer_Mann_a2
_atom_type_scat_Cromer_Mann_a3
_atom_type_scat_Cromer_Mann_a4
_atom_type_scat_Cromer_Mann_b1
_atom_type_scat_Cromer_Mann_b2
_atom_type_scat_Cromer_Mann_b3
_atom_type_scat_Cromer_Mann_b4
_atom_type_scat_Cromer_Mann_c
_atom_type_scat_source
Mn 4.0 0.000 0.000 11.2819 5.34090 7.35730 0.34320 3.01930 17.8674 2.24410
83.7543 1.08960 International_Tables_Vol_C
Li 8.0 0.000 0.000 1.12820 3.95460 0.75080 1.05240 0.61750 85.3905 0.46530
168.261 0.03770 International_Tables_Vol_C
O 12.0 0.000 0.000 3.04850 13.2771 2.28680 5.70110 1.54630 0.32390 0.86700
32.9089 0.25080 International_Tables_Vol_C
loop_
_diffrn_radiation_wavelength
_diffrn_radiation_wavelength_wt
_diffrn_radiation_type
_diffrn_radiation_wavelength_id
1.540600 1.000 CuK\a~1~ 1
1.544400 0.500 CuK\a~2~ 2
loop_
_geom_angle_atom_site_label_1
_geom_angle_atom_site_label_2
_geom_angle_atom_site_label_3
_geom_angle
_geom_angle_site_symmetry_1
_geom_angle_site_symmetry_3
_geom_angle_publ_flag
Li1 Mn1 Li1 121.063(7) 101_445 101_545 n
Li1 Mn1 Li3 118.154(13) 101_445 -1_565 n
Li1 Mn1 Li3 87.616(11) 101_445 -1_566 n
Li1 Mn1 O1 84.858(10) 101_445 1_555 n
Li1 Mn1 O1 49.289(7) 101_445 2_555 n
Li1 Mn1 O2 138.970(6) 101_445 1_555 n
Li1 Mn1 O2 83.693(10) 101_445 2_555 n
Li1 Mn1 O2 138.604(7) 101_445 -101_555 n
Li1 Mn1 O2 49.803(7) 101_445 -102_455 n
Li1 Mn1 Li4 60.532(4) 101_445 -1_555 n
Li1 Mn1 Li3 87.616(11) 101_545 -1_565 n
Li1 Mn1 Li3 118.154(13) 101_545 -1_566 n
Li1 Mn1 O1 49.289(7) 101_545 1_555 n
Li1 Mn1 O1 84.858(10) 101_545 2_555 n
Li1 Mn1 O2 83.693(10) 101_545 1_555 n
Li1 Mn1 O2 138.971(6) 101_545 2_555 n
Li1 Mn1 O2 49.803(7) 101_545 -101_555 n
Li1 Mn1 O2 138.604(7) 101_545 -102_455 n
Li1 Mn1 Li4 60.532(4) 101_545 -1_555 n
Li3 Mn1 Li3 128.138(6) -1_565 -1_566 n
Li3 Mn1 O1 136.081(6) -1_565 1_555 n
Li3 Mn1 O1 86.510(9) -1_565 2_555 n
Li3 Mn1 O2 92.935(11) -1_565 1_555 n
Li3 Mn1 O2 51.383(8) -1_565 2_555 n
Li3 Mn1 O2 38.477(7) -1_565 -101_555 n
Li3 Mn1 O2 133.610(7) -1_565 -102_455 n
Li3 Mn1 Li4 115.9309(31) -1_565 -1_555 n
Li3 Mn1 O1 86.510(9) -1_566 1_555 n
Li3 Mn1 O1 136.081(6) -1_566 2_555 n
Li3 Mn1 O2 51.383(8) -1_566 1_555 n
Li3 Mn1 O2 92.935(11) -1_566 2_555 n
Li3 Mn1 O2 133.610(7) -1_566 -101_555 n
Li3 Mn1 O2 38.477(7) -1_566 -102_455 n
Li3 Mn1 Li4 115.9309(31) -1_566 -1_555 n
O1 Mn1 O1 82.120(12) 1_555 2_555 n
O1 Mn1 O2 90.445(12) 1_555 1_555 n
O1 Mn1 O2 168.5503(14) 1_555 2_555 n
O1 Mn1 O2 99.081(7) 1_555 -101_555 n
O1 Mn1 O2 90.155(7) 1_555 -102_455 n
O1 Mn1 Li4 41.060(6) 1_555 -1_555 n
O1 Mn1 O2 168.5503(14) 2_555 1_555 n
O1 Mn1 O2 90.445(12) 2_555 2_555 n
O1 Mn1 O2 90.155(7) 2_555 -101_555 n
O1 Mn1 O2 99.081(7) 2_555 -102_455 n
O1 Mn1 Li4 41.060(6) 2_555 -1_555 n
O2 Mn1 O2 98.151(12) 1_555 2_555 n
O2 Mn1 O2 82.398(8) 1_555 -101_555 n
O2 Mn1 O2 89.588(8) 1_555 -102_455 n
O2 Mn1 Li4 130.924(6) 1_555 -1_555 n
O2 Mn1 O2 89.588(8) 2_555 -101_555 n
O2 Mn1 O2 82.398(8) 2_555 -102_455 n
O2 Mn1 Li4 130.924(6) 2_555 -1_555 n
O2 Mn1 O2 167.7777(18) -101_555 -102_455 n
O2 Mn1 Li4 96.1111(9) -101_555 -1_555 n
O2 Mn1 Li4 96.1111(9) -102_455 -1_555 n
Mn1 Li1 Mn1 121.063(7) 101_455 101_555 n
Mn1 Li1 Mn1 58.937(7) 101_455 -101_345 n
Mn1 Li1 Mn1 180.0 101_455 -101_445 n
Mn1 Li1 Li2 60.205(9) 101_455 101_454 n
Mn1 Li1 Li2 119.795(9) 101_455 101_555 n
Mn1 Li1 Li3 88.199(11) 101_455 1_554 n
Mn1 Li1 Li3 59.425(12) 101_455 1_555 n
Mn1 Li1 Li3 120.575(12) 101_455 -1_565 n
Mn1 Li1 Li3 91.801(11) 101_455 -1_566 n
Mn1 Li1 O1 40.725(6) 101_455 101_455 n
Mn1 Li1 O1 139.275(6) 101_455 102_555 n
Mn1 Li1 O2 138.522(6) 101_455 1_555 n
Mn1 Li1 O2 88.575(10) 101_455 2_555 n
Mn1 Li1 O2 41.478(6) 101_455 -1_565 n
Mn1 Li1 O2 91.425(10) 101_455 -2_565 n
Mn1 Li1 Li4 119.468(4) 101_455 1_555 n
Mn1 Li1 Li4 60.532(4) 101_455 -1_565 n
Mn1 Li1 Li4 0.0 101_455 101_455 n
Mn1 Li1 Li4 121.063(7) 101_455 101_555 n
Mn1 Li1 Li4 58.937(7) 101_455 -101_455 n
Mn1 Li1 Li4 180.0 101_455 -101_555 n
Mn1 Li1 Mn1 179.972 101_555 -101_345 n
Mn1 Li1 Mn1 58.937(7) 101_555 -101_445 n
Mn1 Li1 Li2 119.795(9) 101_555 101_454 n
Mn1 Li1 Li2 60.205(9) 101_555 101_555 n
Mn1 Li1 Li3 59.425(12) 101_555 1_554 n
Mn1 Li1 Li3 88.199(11) 101_555 1_555 n
Mn1 Li1 Li3 91.801(11) 101_555 -1_565 n
Mn1 Li1 Li3 120.575(12) 101_555 -1_566 n
Mn1 Li1 O1 139.275(6) 101_555 101_455 n
Mn1 Li1 O1 40.725(6) 101_555 102_555 n
Mn1 Li1 O2 88.575(10) 101_555 1_555 n
Mn1 Li1 O2 138.522(6) 101_555 2_555 n
Mn1 Li1 O2 91.425(10) 101_555 -1_565 n
Mn1 Li1 O2 41.478(6) 101_555 -2_565 n
Mn1 Li1 Li4 119.468(4) 101_555 1_555 n
Mn1 Li1 Li4 60.532(4) 101_555 -1_565 n
Mn1 Li1 Li4 121.063(7) 101_555 101_455 n
Mn1 Li1 Li4 0.0 101_555 101_555 n
Mn1 Li1 Li4 179.972 101_555 -101_455 n
Mn1 Li1 Li4 58.937(7) 101_555 -101_555 n
Mn1 Li1 Mn1 121.063(7) -101_345 -101_445 n
Mn1 Li1 Li2 60.205(9) -101_455 101_454 n
Mn1 Li1 Li2 119.795(9) -101_455 101_555 n
Mn1 Li1 Li3 120.575(12) -101_455 1_554 n
Mn1 Li1 Li3 91.801(11) -101_455 1_555 n
Mn1 Li1 Li3 88.199(11) -101_455 -1_565 n
Mn1 Li1 Li3 59.425(12) -101_455 -1_566 n
Mn1 Li1 O1 40.725(6) -101_455 101_455 n
Mn1 Li1 O1 139.275(6) -101_455 102_555 n
Mn1 Li1 O2 91.425(10) -101_455 1_555 n
Mn1 Li1 O2 41.478(6) -101_455 2_555 n
Mn1 Li1 O2 88.575(10) -101_455 -1_565 n
Mn1 Li1 O2 138.522(6) -101_455 -2_565 n
Mn1 Li1 Li4 60.532(4) -101_455 1_555 n
Mn1 Li1 Li4 119.468(4) -101_455 -1_565 n
Mn1 Li1 Li4 58.937(7) -101_455 101_455 n
Mn1 Li1 Li4 179.972 -101_455 101_555 n
Mn1 Li1 Li4 0.0 -101_455 -101_455 n
Mn1 Li1 Li4 121.063(7) -101_455 -101_555 n
Mn1 Li1 Li2 119.795(9) -101_555 101_454 n
Mn1 Li1 Li2 60.205(9) -101_555 101_555 n
Mn1 Li1 Li3 91.801(11) -101_555 1_554 n
Mn1 Li1 Li3 120.575(12) -101_555 1_555 n
Mn1 Li1 Li3 59.425(12) -101_555 -1_565 n
Mn1 Li1 Li3 88.199(11) -101_555 -1_566 n
Mn1 Li1 O1 139.275(6) -101_555 101_455 n
Mn1 Li1 O1 40.725(6) -101_555 102_555 n
Mn1 Li1 O2 41.478(6) -101_555 1_555 n
Mn1 Li1 O2 91.425(10) -101_555 2_555 n
Mn1 Li1 O2 138.522(6) -101_555 -1_565 n
Mn1 Li1 O2 88.575(10) -101_555 -2_565 n
Mn1 Li1 Li4 60.532(4) -101_555 1_555 n
Mn1 Li1 Li4 119.468(4) -101_555 -1_565 n
Mn1 Li1 Li4 180.0 -101_555 101_455 n
Mn1 Li1 Li4 58.937(7) -101_555 101_555 n
Mn1 Li1 Li4 121.063(7) -101_555 -101_455 n
Mn1 Li1 Li4 0.0 -101_555 -101_555 n
Li2 Li1 Li2 179.9802 101_454 101_555 n
Li2 Li1 Li3 60.529(9) 101_454 1_554 n
Li2 Li1 Li3 119.471(9) 101_454 1_555 n
Li2 Li1 Li3 60.528(9) 101_454 -1_565 n
Li2 Li1 Li3 119.471(9) 101_454 -1_566 n
Li2 Li1 O1 84.686(11) 101_454 101_455 n
Li2 Li1 O1 95.314(11) 101_454 102_555 n
Li2 Li1 O2 132.278(6) 101_454 1_555 n
Li2 Li1 O2 47.722(6) 101_454 2_555 n
Li2 Li1 O2 47.722(6) 101_454 -1_565 n
Li2 Li1 O2 132.278(6) 101_454 -2_565 n
Li2 Li1 Li4 90.0 101_454 1_555 n
Li2 Li1 Li4 90.0 101_454 -1_565 n
Li2 Li1 Li4 60.205(9) 101_454 101_455 n
Li2 Li1 Li4 119.795(9) 101_454 101_555 n
Li2 Li1 Li4 60.205(9) 101_454 -101_455 n
Li2 Li1 Li4 119.795(9) 101_454 -101_555 n
Li2 Li1 Li3 119.471(9) 101_555 1_554 n
Li2 Li1 Li3 60.528(9) 101_555 1_555 n
Li2 Li1 Li3 119.471(9) 101_555 -1_565 n
Li2 Li1 Li3 60.529(9) 101_555 -1_566 n
Li2 Li1 O1 95.314(11) 101_555 101_455 n
Li2 Li1 O1 84.686(11) 101_555 102_555 n
Li2 Li1 O2 47.722(6) 101_555 1_555 n
Li2 Li1 O2 132.278(6) 101_555 2_555 n
Li2 Li1 O2 132.278(6) 101_555 -1_565 n
Li2 Li1 O2 47.722(6) 101_555 -2_565 n
Li2 Li1 Li4 90.0 101_555 1_555 n
Li2 Li1 Li4 90.0 101_555 -1_565 n
Li2 Li1 Li4 119.795(9) 101_555 101_455 n
Li2 Li1 Li4 60.205(9) 101_555 101_555 n
Li2 Li1 Li4 119.795(9) 101_555 -101_455 n
Li2 Li1 Li4 60.205(9) 101_555 -101_555 n
Li3 Li1 Li3 113.412(7) 1_554 1_555 n
Li3 Li1 Li3 66.588(7) 1_554 -1_565 n
Li3 Li1 Li3 180.0 1_554 -1_566 n
Li3 Li1 O1 128.848(7) 1_554 101_455 n
Li3 Li1 O1 51.152(7) 1_554 102_555 n
Li3 Li1 O2 133.253(7) 1_554 1_555 n
Li3 Li1 O2 97.067(10) 1_554 2_555 n
Li3 Li1 O2 46.746(7) 1_554 -1_565 n
Li3 Li1 O2 82.933(10) 1_554 -2_565 n
Li3 Li1 Li4 123.294(4) 1_554 1_555 n
Li3 Li1 Li4 56.706(4) 1_554 -1_565 n
Li3 Li1 Li4 88.199(11) 1_554 101_455 n
Li3 Li1 Li4 59.425(12) 1_554 101_555 n
Li3 Li1 Li4 120.575(12) 1_554 -101_455 n
Li3 Li1 Li4 91.801(11) 1_554 -101_555 n
Li3 Li1 Li3 179.972 1_555 -1_565 n
Li3 Li1 Li3 66.588(7) 1_555 -1_566 n
Li3 Li1 O1 51.152(7) 1_555 101_455 n
Li3 Li1 O1 128.848(7) 1_555 102_555 n
Li3 Li1 O2 97.067(10) 1_555 1_555 n
Li3 Li1 O2 133.253(7) 1_555 2_555 n
Li3 Li1 O2 82.933(10) 1_555 -1_565 n
Li3 Li1 O2 46.746(7) 1_555 -2_565 n
Li3 Li1 Li4 123.294(4) 1_555 1_555 n
Li3 Li1 Li4 56.706(4) 1_555 -1_565 n
Li3 Li1 Li4 59.425(12) 1_555 101_455 n
Li3 Li1 Li4 88.199(11) 1_555 101_555 n
Li3 Li1 Li4 91.801(11) 1_555 -101_455 n
Li3 Li1 Li4 120.575(12) 1_555 -101_555 n
Li3 Li1 Li3 113.412(7) -1_565 -1_566 n
Li3 Li1 O1 128.848(7) -1_565 101_455 n
Li3 Li1 O1 51.152(7) -1_565 102_555 n
Li3 Li1 O2 82.933(10) -1_565 1_555 n
Li3 Li1 O2 46.746(7) -1_565 2_555 n
Li3 Li1 O2 97.067(10) -1_565 -1_565 n
Li3 Li1 O2 133.253(7) -1_565 -2_565 n
Li3 Li1 Li4 56.706(4) -1_565 1_555 n
Li3 Li1 Li4 123.294(4) -1_565 -1_565 n
Li3 Li1 Li4 120.575(12) -1_565 101_455 n
Li3 Li1 Li4 91.801(11) -1_565 101_555 n
Li3 Li1 Li4 88.199(11) -1_565 -101_455 n
Li3 Li1 Li4 59.425(12) -1_565 -101_555 n
Li3 Li1 O1 51.152(7) -1_566 101_455 n
Li3 Li1 O1 128.848(7) -1_566 102_555 n
Li3 Li1 O2 46.746(7) -1_566 1_555 n
Li3 Li1 O2 82.933(10) -1_566 2_555 n
Li3 Li1 O2 133.253(7) -1_566 -1_565 n
Li3 Li1 O2 97.067(10) -1_566 -2_565 n
Li3 Li1 Li4 56.706(4) -1_566 1_555 n
Li3 Li1 Li4 123.294(4) -1_566 -1_565 n
Li3 Li1 Li4 91.801(11) -1_566 101_455 n
Li3 Li1 Li4 120.575(12) -1_566 101_555 n
Li3 Li1 Li4 59.425(12) -1_566 -101_455 n
Li3 Li1 Li4 88.199(11) -1_566 -101_555 n
O1 Li1 O1 179.9802 101_455 102_555 n
O1 Li1 O2 97.805(7) 101_455 1_555 n
O1 Li1 O2 82.195(7) 101_455 2_555 n
O1 Li1 O2 82.195(7) 101_455 -1_565 n
O1 Li1 O2 97.805(7) 101_455 -2_565 n
O1 Li1 Li4 90.0 101_455 1_555 n
O1 Li1 Li4 90.0 101_455 -1_565 n
O1 Li1 Li4 40.725(6) 101_455 101_455 n
O1 Li1 Li4 139.275(6) 101_455 101_555 n
O1 Li1 Li4 40.725(6) 101_455 -101_455 n
O1 Li1 Li4 139.275(6) 101_455 -101_555 n
O1 Li1 O2 82.195(7) 102_555 1_555 n
O1 Li1 O2 97.805(7) 102_555 2_555 n
O1 Li1 O2 97.805(7) 102_555 -1_565 n
O1 Li1 O2 82.195(7) 102_555 -2_565 n
O1 Li1 Li4 90.0 102_555 1_555 n
O1 Li1 Li4 90.0 102_555 -1_565 n
O1 Li1 Li4 139.275(6) 102_555 101_455 n
O1 Li1 Li4 40.725(6) 102_555 101_555 n
O1 Li1 Li4 139.275(6) 102_555 -101_455 n
O1 Li1 Li4 40.725(6) 102_555 -101_555 n
O2 Li1 O2 85.182(12) 1_555 2_555 n
O2 Li1 O2 180.0 1_555 -1_565 n
O2 Li1 O2 94.818(12) 1_555 -2_565 n
O2 Li1 Li4 42.591(6) 1_555 1_555 n
O2 Li1 Li4 137.409(6) 1_555 -1_565 n
O2 Li1 Li4 138.522(6) 1_555 101_455 n
O2 Li1 Li4 88.575(10) 1_555 101_555 n
O2 Li1 Li4 91.425(10) 1_555 -101_455 n
O2 Li1 Li4 41.478(6) 1_555 -101_555 n
O2 Li1 O2 94.818(12) 2_555 -1_565 n
O2 Li1 O2 180.0 2_555 -2_565 n
O2 Li1 Li4 42.591(6) 2_555 1_555 n
O2 Li1 Li4 137.409(6) 2_555 -1_565 n
O2 Li1 Li4 88.575(10) 2_555 101_455 n
O2 Li1 Li4 138.522(6) 2_555 101_555 n
O2 Li1 Li4 41.478(6) 2_555 -101_455 n
O2 Li1 Li4 91.425(10) 2_555 -101_555 n
O2 Li1 O2 85.182(12) -1_565 -2_565 n
O2 Li1 Li4 137.409(6) -1_565 1_555 n
O2 Li1 Li4 42.591(6) -1_565 -1_565 n
O2 Li1 Li4 41.478(6) -1_565 101_455 n
O2 Li1 Li4 91.425(10) -1_565 101_555 n
O2 Li1 Li4 88.575(10) -1_565 -101_455 n
O2 Li1 Li4 138.522(6) -1_565 -101_555 n
O2 Li1 Li4 137.409(6) -2_565 1_555 n
O2 Li1 Li4 42.591(6) -2_565 -1_565 n
O2 Li1 Li4 91.425(10) -2_565 101_455 n
O2 Li1 Li4 41.478(6) -2_565 101_555 n
O2 Li1 Li4 138.522(6) -2_565 -101_455 n
O2 Li1 Li4 88.575(10) -2_565 -101_555 n
Li4 Li1 Li4 180.0 1_555 -1_565 n
Li4 Li1 Li4 119.468(4) 1_555 101_455 n
Li4 Li1 Li4 119.468(4) 1_555 101_555 n
Li4 Li1 Li4 60.532(4) 1_555 -101_455 n
Li4 Li1 Li4 60.532(4) 1_555 -101_555 n
Li4 Li1 Li4 60.532(4) -1_565 101_455 n
Li4 Li1 Li4 60.532(4) -1_565 101_555 n
Li4 Li1 Li4 119.468(4) -1_565 -101_455 n
Li4 Li1 Li4 119.468(4) -1_565 -101_555 n
Li4 Li1 Li4 121.063(7) 101_455 101_555 n
Li4 Li1 Li4 58.937(7) 101_455 -101_455 n
Li4 Li1 Li4 180.0 101_455 -101_555 n
Li4 Li1 Li4 179.972 101_555 -101_455 n
Li4 Li1 Li4 58.937(7) 101_555 -101_555 n
Li4 Li1 Li4 121.063(7) -101_455 -101_555 n
Li1 Li2 Li1 179.9802 101_445 101_546 n
Li1 Li2 Li3 90.0 101_445 1_545 n
Li1 Li2 Li3 90.0 101_445 -1_566 n
Li1 Li2 Li3 61.654(9) 101_445 101_445 n
Li1 Li2 Li3 118.346(9) 101_445 101_545 n
Li1 Li2 Li3 61.654(9) 101_445 -101_456 n
Li1 Li2 Li3 118.346(9) 101_445 -101_556 n
Li1 Li2 O1 82.088(11) 101_445 1_555 n
Li1 Li2 O1 97.912(11) 101_445 2_556 n
Li1 Li2 O2 48.313(6) 101_445 101_445 n
Li1 Li2 O2 131.687(6) 101_445 102_546 n
Li1 Li2 O2 131.687(6) 101_445 -101_556 n
Li1 Li2 O2 48.313(6) 101_445 -102_455 n
Li1 Li2 Li4 59.045(9) 101_445 1_555 n
Li1 Li2 Li4 120.955(9) 101_445 1_556 n
Li1 Li2 Li4 59.045(9) 101_445 -1_555 n
Li1 Li2 Li4 120.955(9) 101_445 -1_556 n
Li1 Li2 Li3 90.0 101_546 1_545 n
Li1 Li2 Li3 90.0 101_546 -1_566 n
Li1 Li2 Li3 118.346(9) 101_546 101_445 n
Li1 Li2 Li3 61.654(9) 101_546 101_545 n
Li1 Li2 Li3 118.346(9) 101_546 -101_456 n
Li1 Li2 Li3 61.654(9) 101_546 -101_556 n
Li1 Li2 O1 97.912(11) 101_546 1_555 n
Li1 Li2 O1 82.088(11) 101_546 2_556 n
Li1 Li2 O2 131.687(6) 101_546 101_445 n
Li1 Li2 O2 48.313(6) 101_546 102_546 n
Li1 Li2 O2 48.313(6) 101_546 -101_556 n
Li1 Li2 O2 131.687(6) 101_546 -102_455 n
Li1 Li2 Li4 120.955(9) 101_546 1_555 n
Li1 Li2 Li4 59.045(9) 101_546 1_556 n
Li1 Li2 Li4 120.955(9) 101_546 -1_555 n
Li1 Li2 Li4 59.045(9) 101_546 -1_556 n
Li3 Li2 Li3 180.0 1_545 -1_566 n
Li3 Li2 Li3 123.705(4) 1_545 101_445 n
Li3 Li2 Li3 123.705(4) 1_545 101_545 n
Li3 Li2 Li3 56.294(4) 1_545 -101_456 n
Li3 Li2 Li3 56.294(4) 1_545 -101_556 n
Li3 Li2 O1 90.0 1_545 1_555 n
Li3 Li2 O1 90.0 1_545 2_556 n
Li3 Li2 O2 42.007(6) 1_545 101_445 n
Li3 Li2 O2 42.007(6) 1_545 102_546 n
Li3 Li2 O2 137.993(6) 1_545 -101_556 n
Li3 Li2 O2 137.993(6) 1_545 -102_455 n
Li3 Li2 Li4 119.0872(33) 1_545 1_555 n
Li3 Li2 Li4 119.0872(33) 1_545 1_556 n
Li3 Li2 Li4 60.9127(33) 1_545 -1_555 n
Li3 Li2 Li4 60.9127(33) 1_545 -1_556 n
Li3 Li2 Li3 56.294(4) -1_566 101_445 n
Li3 Li2 Li3 56.294(4) -1_566 101_545 n
Li3 Li2 Li3 123.705(4) -1_566 -101_456 n
Li3 Li2 Li3 123.705(4) -1_566 -101_556 n
Li3 Li2 O1 90.0 -1_566 1_555 n
Li3 Li2 O1 90.0 -1_566 2_556 n
Li3 Li2 O2 137.993(6) -1_566 101_445 n
Li3 Li2 O2 137.993(6) -1_566 102_546 n
Li3 Li2 O2 42.007(6) -1_566 -101_556 n
Li3 Li2 O2 42.007(6) -1_566 -102_455 n
Li3 Li2 Li4 60.9127(33) -1_566 1_555 n
Li3 Li2 Li4 60.9127(33) -1_566 1_556 n
Li3 Li2 Li4 119.0872(33) -1_566 -1_555 n
Li3 Li2 Li4 119.0872(33) -1_566 -1_556 n
Li3 Li2 Li3 112.589(8) 101_445 101_545 n
Li3 Li2 Li3 67.411(8) 101_445 -101_456 n
Li3 Li2 Li3 179.972 101_445 -101_556 n
Li3 Li2 O1 127.679(8) 101_445 1_555 n
Li3 Li2 O1 52.321(8) 101_445 2_556 n
Li3 Li2 O2 98.480(11) 101_445 101_445 n
Li3 Li2 O2 132.627(7) 101_445 102_546 n
Li3 Li2 O2 81.520(11) 101_445 -101_556 n
Li3 Li2 O2 47.373(7) 101_445 -102_455 n
Li3 Li2 Li4 88.200(11) 101_445 1_555 n
Li3 Li2 Li4 59.460(12) 101_445 1_556 n
Li3 Li2 Li4 120.540(12) 101_445 -1_555 n
Li3 Li2 Li4 91.800(11) 101_445 -1_556 n
Li3 Li2 Li3 179.9802 101_545 -101_456 n
Li3 Li2 Li3 67.411(8) 101_545 -101_556 n
Li3 Li2 O1 52.321(8) 101_545 1_555 n
Li3 Li2 O1 127.679(8) 101_545 2_556 n
Li3 Li2 O2 132.627(7) 101_545 101_445 n
Li3 Li2 O2 98.480(11) 101_545 102_546 n
Li3 Li2 O2 47.373(7) 101_545 -101_556 n
Li3 Li2 O2 81.520(11) 101_545 -102_455 n
Li3 Li2 Li4 59.460(12) 101_545 1_555 n
Li3 Li2 Li4 88.200(11) 101_545 1_556 n
Li3 Li2 Li4 91.800(11) 101_545 -1_555 n
Li3 Li2 Li4 120.540(12) 101_545 -1_556 n
Li3 Li2 Li3 112.589(8) -101_456 -101_556 n
Li3 Li2 O1 127.679(8) -101_456 1_555 n
Li3 Li2 O1 52.321(8) -101_456 2_556 n
Li3 Li2 O2 47.373(7) -101_456 101_445 n
Li3 Li2 O2 81.520(11) -101_456 102_546 n
Li3 Li2 O2 132.627(7) -101_456 -101_556 n
Li3 Li2 O2 98.480(11) -101_456 -102_455 n
Li3 Li2 Li4 120.540(12) -101_456 1_555 n
Li3 Li2 Li4 91.800(11) -101_456 1_556 n
Li3 Li2 Li4 88.200(11) -101_456 -1_555 n
Li3 Li2 Li4 59.460(12) -101_456 -1_556 n
Li3 Li2 O1 52.321(8) -101_556 1_555 n
Li3 Li2 O1 127.679(8) -101_556 2_556 n
Li3 Li2 O2 81.520(11) -101_556 101_445 n
Li3 Li2 O2 47.373(7) -101_556 102_546 n
Li3 Li2 O2 98.480(11) -101_556 -101_556 n
Li3 Li2 O2 132.627(7) -101_556 -102_455 n
Li3 Li2 Li4 91.800(11) -101_556 1_555 n
Li3 Li2 Li4 120.540(12) -101_556 1_556 n
Li3 Li2 Li4 59.460(12) -101_556 -1_555 n
Li3 Li2 Li4 88.200(11) -101_556 -1_556 n
O1 Li2 O1 179.9802 1_555 2_556 n
O1 Li2 O2 80.483(7) 1_555 101_445 n
O1 Li2 O2 99.517(7) 1_555 102_546 n
O1 Li2 O2 99.517(7) 1_555 -101_556 n
O1 Li2 O2 80.483(7) 1_555 -102_455 n
O1 Li2 Li4 39.597(5) 1_555 1_555 n
O1 Li2 Li4 140.403(5) 1_555 1_556 n
O1 Li2 Li4 39.597(5) 1_555 -1_555 n
O1 Li2 Li4 140.403(5) 1_555 -1_556 n
O1 Li2 O2 99.517(7) 2_556 101_445 n
O1 Li2 O2 80.483(7) 2_556 102_546 n
O1 Li2 O2 80.483(7) 2_556 -101_556 n
O1 Li2 O2 99.517(7) 2_556 -102_455 n
O1 Li2 Li4 140.403(5) 2_556 1_555 n
O1 Li2 Li4 39.597(5) 2_556 1_556 n
O1 Li2 Li4 140.403(5) 2_556 -1_555 n
O1 Li2 Li4 39.597(5) 2_556 -1_556 n
O2 Li2 O2 84.014(12) 101_445 102_546 n
O2 Li2 O2 180.0 101_445 -101_556 n
O2 Li2 O2 95.986(12) 101_445 -102_455 n
O2 Li2 Li4 88.081(9) 101_445 1_555 n
O2 Li2 Li4 139.108(6) 101_445 1_556 n
O2 Li2 Li4 40.892(6) 101_445 -1_555 n
O2 Li2 Li4 91.919(9) 101_445 -1_556 n
O2 Li2 O2 95.986(12) 102_546 -101_556 n
O2 Li2 O2 180.0 102_546 -102_455 n
O2 Li2 Li4 139.108(6) 102_546 1_555 n
O2 Li2 Li4 88.081(9) 102_546 1_556 n
O2 Li2 Li4 91.919(9) 102_546 -1_555 n
O2 Li2 Li4 40.892(6) 102_546 -1_556 n
O2 Li2 O2 84.014(12) -101_556 -102_455 n
O2 Li2 Li4 91.919(9) -101_556 1_555 n
O2 Li2 Li4 40.892(6) -101_556 1_556 n
O2 Li2 Li4 139.108(6) -101_556 -1_555 n
O2 Li2 Li4 88.081(9) -101_556 -1_556 n
O2 Li2 Li4 40.892(6) -102_455 1_555 n
O2 Li2 Li4 91.919(9) -102_455 1_556 n
O2 Li2 Li4 88.081(9) -102_455 -1_555 n
O2 Li2 Li4 139.108(6) -102_455 -1_556 n
Li4 Li2 Li4 121.826(7) 1_555 1_556 n
Li4 Li2 Li4 58.174(7) 1_555 -1_555 n
Li4 Li2 Li4 179.972 1_555 -1_556 n
Li4 Li2 Li4 179.9802 1_556 -1_555 n
Li4 Li2 Li4 58.174(7) 1_556 -1_556 n
Li4 Li2 Li4 121.826(7) -1_555 -1_556 n
Mn1 Li3 Mn1 128.138(6) -1_565 -1_566 n
Mn1 Li3 Li1 59.225(7) -1_565 1_555 n
Mn1 Li3 Li1 172.6367(5) -1_565 1_556 n
Mn1 Li3 Li2 64.0691(31) -1_565 1_565 n
Mn1 Li3 Li2 119.207(12) -1_565 101_455 n
Mn1 Li3 Li2 89.848(11) -1_565 101_555 n
Mn1 Li3 Li3 96.604(12) -1_565 -101_466 n
Mn1 Li3 Li3 64.272(13) -1_565 -101_566 n
Mn1 Li3 O1 87.943(10) -1_565 101_455 n
Mn1 Li3 O1 130.415(7) -1_565 102_556 n
Mn1 Li3 O2 137.872(7) -1_565 -1_566 n
Mn1 Li3 O2 43.869(7) -1_565 -2_565 n
Mn1 Li3 O2 41.576(7) -1_565 101_455 n
Mn1 Li3 O2 104.003(9) -1_565 102_556 n
Mn1 Li3 Li4 0.0 -1_565 -1_565 n
Mn1 Li3 Li4 128.138(6) -1_565 -1_566 n
Mn1 Li3 Li4 60.705(9) -1_565 101_455 n
Mn1 Li3 Li4 124.427(9) -1_565 101_556 n
Mn1 Li3 Li1 172.6367(5) -1_566 1_555 n
Mn1 Li3 Li1 59.225(7) -1_566 1_556 n
Mn1 Li3 Li2 64.0691(31) -1_566 1_565 n
Mn1 Li3 Li2 89.848(11) -1_566 101_455 n
Mn1 Li3 Li2 119.207(12) -1_566 101_555 n
Mn1 Li3 Li3 64.272(13) -1_566 -101_466 n
Mn1 Li3 Li3 96.604(12) -1_566 -101_566 n
Mn1 Li3 O1 130.415(7) -1_566 101_455 n
Mn1 Li3 O1 87.943(10) -1_566 102_556 n
Mn1 Li3 O2 43.869(7) -1_566 -1_566 n
Mn1 Li3 O2 137.872(7) -1_566 -2_565 n
Mn1 Li3 O2 104.003(9) -1_566 101_455 n
Mn1 Li3 O2 41.576(7) -1_566 102_556 n
Mn1 Li3 Li4 128.138(6) -1_566 -1_565 n
Mn1 Li3 Li4 0.0 -1_566 -1_566 n
Mn1 Li3 Li4 124.427(9) -1_566 101_455 n
Mn1 Li3 Li4 60.705(9) -1_566 101_556 n
Li1 Li3 Li1 113.412(7) 1_555 1_556 n
Li1 Li3 Li2 123.294(4) 1_555 1_565 n
Li1 Li3 Li2 85.606(10) 1_555 101_455 n
Li1 Li3 Li2 57.818(12) 1_555 101_555 n
Li1 Li3 Li3 117.095(12) 1_555 -101_466 n
Li1 Li3 Li3 86.854(11) 1_555 -101_566 n
Li1 Li3 O1 45.383(7) 1_555 101_455 n
Li1 Li3 O1 86.191(10) 1_555 102_556 n
Li1 Li3 O2 131.811(7) 1_555 -1_566 n
Li1 Li3 O2 46.156(6) 1_555 -2_565 n
Li1 Li3 O2 81.812(10) 1_555 101_455 n
Li1 Li3 O2 141.056(6) 1_555 102_556 n
Li1 Li3 Li4 59.225(7) 1_555 -1_565 n
Li1 Li3 Li4 172.6367(5) 1_555 -1_566 n
Li1 Li3 Li4 57.462(8) 1_555 101_455 n
Li1 Li3 Li4 116.256(9) 1_555 101_556 n
Li1 Li3 Li2 123.294(4) 1_556 1_565 n
Li1 Li3 Li2 57.818(12) 1_556 101_455 n
Li1 Li3 Li2 85.606(10) 1_556 101_555 n
Li1 Li3 Li3 86.854(11) 1_556 -101_466 n
Li1 Li3 Li3 117.095(12) 1_556 -101_566 n
Li1 Li3 O1 86.191(10) 1_556 101_455 n
Li1 Li3 O1 45.383(7) 1_556 102_556 n
Li1 Li3 O2 46.156(6) 1_556 -1_566 n
Li1 Li3 O2 131.811(7) 1_556 -2_565 n
Li1 Li3 O2 141.056(6) 1_556 101_455 n
Li1 Li3 O2 81.812(10) 1_556 102_556 n
Li1 Li3 Li4 172.6367(5) 1_556 -1_565 n
Li1 Li3 Li4 59.225(7) 1_556 -1_566 n
Li1 Li3 Li4 116.256(9) 1_556 101_455 n
Li1 Li3 Li4 57.462(8) 1_556 101_556 n
Li2 Li3 Li2 123.705(4) 1_565 101_455 n
Li2 Li3 Li2 123.705(4) 1_565 101_555 n
Li2 Li3 Li3 68.6010(30) 1_565 -101_466 n
Li2 Li3 Li3 68.6010(30) 1_565 -101_566 n
Li2 Li3 O1 134.448(6) 1_565 101_455 n
Li2 Li3 O1 134.448(6) 1_565 102_556 n
Li2 Li3 O2 91.35800(20) 1_565 -1_566 n
Li2 Li3 O2 91.35800(20) 1_565 -2_565 n
Li2 Li3 O2 54.641(6) 1_565 101_455 n
Li2 Li3 O2 54.641(6) 1_565 102_556 n
Li2 Li3 Li4 64.0691(31) 1_565 -1_565 n
Li2 Li3 Li4 64.0691(31) 1_565 -1_566 n
Li2 Li3 Li4 94.9888(11) 1_565 101_455 n
Li2 Li3 Li4 94.9888(11) 1_565 101_556 n
Li2 Li3 Li2 112.589(8) 101_455 101_555 n
Li2 Li3 Li3 55.105(7) 101_455 -101_466 n
Li2 Li3 Li3 167.6934(11) 101_455 -101_566 n
Li2 Li3 O1 40.572(6) 101_455 101_455 n
Li2 Li3 O1 88.992(10) 101_455 102_556 n
Li2 Li3 O2 46.210(7) 101_455 -1_566 n
Li2 Li3 O2 131.737(7) 101_455 -2_565 n
Li2 Li3 O2 89.905(11) 101_455 101_455 n
Li2 Li3 O2 130.085(8) 101_455 102_556 n
Li2 Li3 Li4 119.207(12) 101_455 -1_565 n
Li2 Li3 Li4 89.848(11) 101_455 -1_566 n
Li2 Li3 Li4 58.583(9) 101_455 101_455 n
Li2 Li3 Li4 115.134(9) 101_455 101_556 n
Li2 Li3 Li3 167.6934(11) 101_555 -101_466 n
Li2 Li3 Li3 55.105(7) 101_555 -101_566 n
Li2 Li3 O1 88.992(10) 101_555 101_455 n
Li2 Li3 O1 40.572(6) 101_555 102_556 n
Li2 Li3 O2 131.737(7) 101_555 -1_566 n
Li2 Li3 O2 46.210(7) 101_555 -2_565 n
Li2 Li3 O2 130.085(8) 101_555 101_455 n
Li2 Li3 O2 89.905(11) 101_555 102_556 n
Li2 Li3 Li4 89.848(11) 101_555 -1_565 n
Li2 Li3 Li4 119.207(12) 101_555 -1_566 n
Li2 Li3 Li4 115.134(9) 101_555 101_455 n
Li2 Li3 Li4 58.583(9) 101_555 101_556 n
Li3 Li3 Li3 137.202(6) -101_466 -101_566 n
Li3 Li3 O1 80.809(10) -101_466 101_455 n
Li3 Li3 O1 132.123(7) -101_466 102_556 n
Li3 Li3 O2 41.311(7) -101_466 -1_566 n
Li3 Li3 O2 140.213(7) -101_466 -2_565 n
Li3 Li3 O2 55.081(9) -101_466 101_455 n
Li3 Li3 O2 98.634(11) -101_466 102_556 n
Li3 Li3 Li4 96.604(12) -101_466 -1_565 n
Li3 Li3 Li4 64.272(13) -101_466 -1_566 n
Li3 Li3 Li4 60.155(10) -101_466 101_455 n
Li3 Li3 Li4 124.132(10) -101_466 101_556 n
Li3 Li3 O1 132.123(7) -101_566 101_455 n
Li3 Li3 O1 80.809(10) -101_566 102_556 n
Li3 Li3 O2 140.213(7) -101_566 -1_566 n
Li3 Li3 O2 41.311(7) -101_566 -2_565 n
Li3 Li3 O2 98.634(11) -101_566 101_455 n
Li3 Li3 O2 55.081(9) -101_566 102_556 n
Li3 Li3 Li4 64.272(13) -101_566 -1_565 n
Li3 Li3 Li4 96.604(12) -101_566 -1_566 n
Li3 Li3 Li4 124.132(10) -101_566 101_455 n
Li3 Li3 Li4 60.155(10) -101_566 101_556 n
O1 Li3 O1 91.104(12) 101_455 102_556 n
O1 Li3 O2 86.641(8) 101_455 -1_566 n
O1 Li3 O2 91.456(8) 101_455 -2_565 n
O1 Li3 O2 80.347(12) 101_455 101_455 n
O1 Li3 O2 168.0012(15) 101_455 102_556 n
O1 Li3 Li4 87.943(10) 101_455 -1_565 n
O1 Li3 Li4 130.415(7) 101_455 -1_566 n
O1 Li3 Li4 39.604(5) 101_455 101_455 n
O1 Li3 Li4 130.442(7) 101_455 101_556 n
O1 Li3 O2 91.456(8) 102_556 -1_566 n
O1 Li3 O2 86.641(8) 102_556 -2_565 n
O1 Li3 O2 168.0012(15) 102_556 101_455 n
O1 Li3 O2 80.347(12) 102_556 102_556 n
O1 Li3 Li4 130.415(7) 102_556 -1_565 n
O1 Li3 Li4 87.943(10) 102_556 -1_566 n
O1 Li3 Li4 130.442(7) 102_556 101_455 n
O1 Li3 Li4 39.604(5) 102_556 101_556 n
O2 Li3 O2 177.2839(4) -1_566 -2_565 n
O2 Li3 O2 96.392(9) -1_566 101_455 n
O2 Li3 O2 85.187(9) -1_566 102_556 n
O2 Li3 Li4 137.872(7) -1_566 -1_565 n
O2 Li3 Li4 43.869(7) -1_566 -1_566 n
O2 Li3 Li4 90.365(11) -1_566 101_455 n
O2 Li3 Li4 89.399(11) -1_566 101_556 n
O2 Li3 O2 85.187(9) -2_565 101_455 n
O2 Li3 O2 96.392(9) -2_565 102_556 n
O2 Li3 Li4 43.869(7) -2_565 -1_565 n
O2 Li3 Li4 137.872(7) -2_565 -1_566 n
O2 Li3 Li4 89.399(11) -2_565 101_455 n
O2 Li3 Li4 90.365(11) -2_565 101_556 n
O2 Li3 O2 109.282(11) 101_455 102_556 n
O2 Li3 Li4 41.576(7) 101_455 -1_565 n
O2 Li3 Li4 104.003(9) 101_455 -1_566 n
O2 Li3 Li4 40.793(7) 101_455 101_455 n
O2 Li3 Li4 149.062(5) 101_455 101_556 n
O2 Li3 Li4 104.003(9) 102_556 -1_565 n
O2 Li3 Li4 41.576(7) 102_556 -1_566 n
O2 Li3 Li4 149.062(5) 102_556 101_455 n
O2 Li3 Li4 40.793(7) 102_556 101_556 n
Li4 Li3 Li4 128.138(6) -1_565 -1_566 n
Li4 Li3 Li4 60.705(9) -1_565 101_455 n
Li4 Li3 Li4 124.427(9) -1_565 101_556 n
Li4 Li3 Li4 124.427(9) -1_566 101_455 n
Li4 Li3 Li4 60.705(9) -1_566 101_556 n
Li4 Li3 Li4 170.0223(21) 101_455 101_556 n
Mn1 O1 Mn1 97.880(12) 1_555 -1_555 n
Mn1 O1 Li1 89.987(7) 1_555 101_545 n
Mn1 O1 Li2 98.657(7) 1_555 1_555 n
Mn1 O1 Li3 86.266(12) 1_555 101_545 n
Mn1 O1 Li3 172.2663(11) 1_555 -101_556 n
Mn1 O1 Mn2 89.987(7) 1_555 101_545 n
Mn1 O1 Li4 0.0 1_555 1_555 n
Mn1 O1 Li4 97.880(12) 1_555 -1_555 n
Mn1 O1 Li1 89.987(7) -1_555 101_545 n
Mn1 O1 Li2 98.657(7) -1_555 1_555 n
Mn1 O1 Li3 172.2663(11) -1_555 101_545 n
Mn1 O1 Li3 86.266(12) -1_555 -101_556 n
Mn1 O1 Mn2 89.987(7) -1_555 101_545 n
Mn1 O1 Li4 97.880(12) -1_555 1_555 n
Mn1 O1 Li4 0.0 -1_555 -1_555 n
Li1 O1 Li2 166.773(4) 101_545 1_555 n
Li1 O1 Li3 83.465(8) 101_545 101_545 n
Li1 O1 Li3 83.465(8) 101_545 -101_556 n
Li1 O1 Mn2 0.0 101_545 101_545 n
Li1 O1 Li4 89.987(7) 101_545 1_555 n
Li1 O1 Li4 89.987(7) 101_545 -1_555 n
Li2 O1 Li3 87.108(8) 1_555 101_545 n
Li2 O1 Li3 87.108(8) 1_555 -101_556 n
Li2 O1 Mn2 166.773(4) 1_555 101_545 n
Li2 O1 Li4 98.657(7) 1_555 1_555 n
Li2 O1 Li4 98.657(7) 1_555 -1_555 n
Li3 O1 Li3 88.896(12) 101_545 -101_556 n
Li3 O1 Mn2 83.465(8) 101_545 101_545 n
Li3 O1 Li4 86.266(12) 101_545 1_555 n
Li3 O1 Li4 172.2663(11) 101_545 -1_555 n
Li3 O1 Mn2 83.465(8) -101_556 101_545 n
Li3 O1 Li4 172.2663(11) -101_556 1_555 n
Li3 O1 Li4 86.266(12) -101_556 -1_555 n
Mn2 O1 Li4 89.987(7) 101_545 1_555 n
Mn2 O1 Li4 89.987(7) 101_545 -1_555 n
Li4 O1 Li4 97.880(12) 1_555 -1_555 n
Mn1 O2 Mn1 97.602(8) 1_555 -101_445 n
Mn1 O2 Li1 88.333(12) 1_555 1_555 n
Mn1 O2 Li2 168.5562(16) 1_555 101_555 n
Mn1 O2 Li3 84.747(8) 1_555 -1_566 n
Mn1 O2 Li3 102.836(12) 1_555 101_545 n
Mn1 O2 Mn2 88.333(12) 1_555 1_555 n
Mn1 O2 Li4 0.0 1_555 1_555 n
Mn1 O2 Li4 97.602(8) 1_555 -101_555 n
Mn1 O2 Li1 88.719(7) -101_445 1_555 n
Mn1 O2 Li2 90.693(7) -101_555 101_555 n
Mn1 O2 Li3 175.1432(7) -101_555 -1_566 n
Mn1 O2 Li3 99.947(9) -101_555 101_545 n
Mn1 O2 Mn2 88.719(7) -101_555 1_555 n
Mn1 O2 Li4 97.602(8) -101_555 1_555 n
Mn1 O2 Li4 0.0 -101_555 -101_555 n
Li1 O2 Li2 83.965(12) 1_555 101_555 n
Li1 O2 Li3 87.097(7) 1_555 -1_566 n
Li1 O2 Li3 164.7012(16) 1_555 101_545 n
Li1 O2 Mn2 0.0 1_555 1_555 n
Li1 O2 Li4 88.333(12) 1_555 1_555 n
Li1 O2 Li4 88.719(7) 1_555 -101_555 n
Li2 O2 Li3 86.417(7) 101_555 -1_566 n
Li2 O2 Li3 83.352(12) 101_555 101_545 n
Li2 O2 Mn2 83.965(12) 101_555 1_555 n
Li2 O2 Li4 168.5562(16) 101_555 1_555 n
Li2 O2 Li4 90.693(7) 101_555 -101_555 n
Li3 O2 Li3 83.608(9) -1_566 101_545 n
Li3 O2 Mn2 87.097(7) -1_566 1_555 n
Li3 O2 Li4 84.747(8) -1_566 1_555 n
Li3 O2 Li4 175.1432(7) -1_566 -101_555 n
Li3 O2 Mn2 164.7012(16) 101_545 1_555 n
Li3 O2 Li4 102.836(12) 101_545 1_555 n
Li3 O2 Li4 99.947(9) 101_545 -101_555 n
Mn2 O2 Li4 88.333(12) 1_555 1_555 n
Mn2 O2 Li4 88.719(7) 1_555 -101_555 n
Li4 O2 Li4 97.602(8) 1_555 -101_555 n
O1 Mn2 O1 179.9802 101_455 102_555 n
O1 Mn2 O2 97.805(7) 101_455 1_555 n
O1 Mn2 O2 82.195(7) 101_455 2_555 n
O1 Mn2 O2 82.195(7) 101_455 -1_565 n
O1 Mn2 O2 97.805(7) 101_455 -2_565 n
O1 Mn2 Li4 40.725(6) 101_455 101_455 n
O1 Mn2 Li4 139.275(6) 101_455 101_555 n
O1 Mn2 Li4 40.725(6) 101_455 -101_455 n
O1 Mn2 Li4 139.275(6) 101_455 -101_555 n
O1 Mn2 O2 82.195(7) 102_555 1_555 n
O1 Mn2 O2 97.805(7) 102_555 2_555 n
O1 Mn2 O2 97.805(7) 102_555 -1_565 n
O1 Mn2 O2 82.195(7) 102_555 -2_565 n
O1 Mn2 Li4 139.275(6) 102_555 101_455 n
O1 Mn2 Li4 40.725(6) 102_555 101_555 n
O1 Mn2 Li4 139.275(6) 102_555 -101_455 n
O1 Mn2 Li4 40.725(6) 102_555 -101_555 n
O2 Mn2 O2 85.182(12) 1_555 2_555 n
O2 Mn2 O2 180.0 1_555 -1_565 n
O2 Mn2 O2 94.818(12) 1_555 -2_565 n
O2 Mn2 Li4 138.522(6) 1_555 101_455 n
O2 Mn2 Li4 88.575(10) 1_555 101_555 n
O2 Mn2 Li4 91.425(10) 1_555 -101_455 n
O2 Mn2 Li4 41.478(6) 1_555 -101_555 n
O2 Mn2 O2 94.818(12) 2_555 -1_565 n
O2 Mn2 O2 180.0 2_555 -2_565 n
O2 Mn2 Li4 88.575(10) 2_555 101_455 n
O2 Mn2 Li4 138.522(6) 2_555 101_555 n
O2 Mn2 Li4 41.478(6) 2_555 -101_455 n
O2 Mn2 Li4 91.425(10) 2_555 -101_555 n
O2 Mn2 O2 85.182(12) -1_565 -2_565 n
O2 Mn2 Li4 41.478(6) -1_565 101_455 n
O2 Mn2 Li4 91.425(10) -1_565 101_555 n
O2 Mn2 Li4 88.575(10) -1_565 -101_455 n
O2 Mn2 Li4 138.522(6) -1_565 -101_555 n
O2 Mn2 Li4 91.425(10) -2_565 101_455 n
O2 Mn2 Li4 41.478(6) -2_565 101_555 n
O2 Mn2 Li4 138.522(6) -2_565 -101_455 n
O2 Mn2 Li4 88.575(10) -2_565 -101_555 n
Li4 Mn2 Li4 121.063(7) 101_455 101_555 n
Li4 Mn2 Li4 58.937(7) 101_455 -101_455 n
Li4 Mn2 Li4 180.0 101_455 -101_555 n
Li4 Mn2 Li4 179.972 101_555 -101_455 n
Li4 Mn2 Li4 58.937(7) 101_555 -101_555 n
Li4 Mn2 Li4 121.063(7) -101_455 -101_555 n
Mn1 Li4 Li1 180.0 -1_555 1_555 n
Mn1 Li4 Li1 60.532(4) -1_555 101_445 n
Mn1 Li4 Li1 60.532(4) -1_555 101_545 n
Mn1 Li4 Li2 60.9127(33) -1_555 1_554 n
Mn1 Li4 Li2 60.9127(33) -1_555 1_555 n
Mn1 Li4 Li3 115.9309(31) -1_555 -1_565 n
Mn1 Li4 Li3 115.9309(31) -1_555 -1_566 n
Mn1 Li4 Li3 94.9888(11) -1_555 101_444 n
Mn1 Li4 Li3 94.9888(11) -1_555 101_545 n
Mn1 Li4 O1 41.060(6) -1_555 1_555 n
Mn1 Li4 O1 41.060(6) -1_555 2_555 n
Mn1 Li4 O2 130.924(6) -1_555 1_555 n
Mn1 Li4 O2 130.924(6) -1_555 2_555 n
Mn1 Li4 O2 96.1111(9) -1_555 -101_555 n
Mn1 Li4 O2 96.1111(9) -1_555 -102_455 n
Mn1 Li4 Mn2 60.532(4) -1_555 101_445 n
Mn1 Li4 Mn2 60.532(4) -1_555 101_545 n
Mn1 Li4 Li4 0.0 -1_555 -1_555 n
Mn1 Li4 Li4 120.790(4) -1_555 -101_455 n
Mn1 Li4 Li4 120.790(4) -1_555 -101_555 n
Li1 Li4 Li1 119.468(4) 1_555 101_445 n
Li1 Li4 Li1 119.468(4) 1_555 101_545 n
Li1 Li4 Li2 119.0873(33) 1_555 1_554 n
Li1 Li4 Li2 119.0873(33) 1_555 1_555 n
Li1 Li4 Li3 64.0691(31) 1_555 -1_565 n
Li1 Li4 Li3 64.0691(31) 1_555 -1_566 n
Li1 Li4 Li3 85.0112(11) 1_555 101_444 n
Li1 Li4 Li3 85.0111(11) 1_555 101_545 n
Li1 Li4 O1 138.940(6) 1_555 1_555 n
Li1 Li4 O1 138.940(6) 1_555 2_555 n
Li1 Li4 O2 49.076(6) 1_555 1_555 n
Li1 Li4 O2 49.076(6) 1_555 2_555 n
Li1 Li4 O2 83.8889(9) 1_555 -101_555 n
Li1 Li4 O2 83.8889(9) 1_555 -102_455 n
Li1 Li4 Mn2 119.468(4) 1_555 101_445 n
Li1 Li4 Mn2 119.468(4) 1_555 101_545 n
Li1 Li4 Li4 180.0 1_555 -1_555 n
Li1 Li4 Li4 59.209(4) 1_555 -101_455 n
Li1 Li4 Li4 59.209(4) 1_555 -101_555 n
Li1 Li4 Li1 121.063(7) 101_445 101_545 n
Li1 Li4 Li2 90.591(11) 101_445 1_554 n
Li1 Li4 Li2 60.750(12) 101_445 1_555 n
Li1 Li4 Li3 118.154(13) 101_445 -1_565 n
Li1 Li4 Li3 87.616(11) 101_445 -1_566 n
Li1 Li4 Li3 63.113(10) 101_445 101_444 n
Li1 Li4 Li3 122.534(9) 101_445 101_545 n
Li1 Li4 O1 84.858(10) 101_445 1_555 n
Li1 Li4 O1 49.289(7) 101_445 2_555 n
Li1 Li4 O2 138.970(6) 101_445 1_555 n
Li1 Li4 O2 83.693(10) 101_445 2_555 n
Li1 Li4 O2 138.604(7) 101_445 -101_555 n
Li1 Li4 O2 49.803(7) 101_445 -102_455 n
Li1 Li4 Mn2 0.0 101_445 101_445 n
Li1 Li4 Mn2 121.063(7) 101_445 101_545 n
Li1 Li4 Li4 60.532(4) 101_445 -1_555 n
Li1 Li4 Li4 60.259(8) 101_445 -101_455 n
Li1 Li4 Li4 178.67780(10) 101_445 -101_555 n
Li1 Li4 Li2 60.750(12) 101_545 1_554 n
Li1 Li4 Li2 90.591(11) 101_545 1_555 n
Li1 Li4 Li3 87.616(11) 101_545 -1_565 n
Li1 Li4 Li3 118.154(13) 101_545 -1_566 n
Li1 Li4 Li3 122.534(9) 101_545 101_444 n
Li1 Li4 Li3 63.113(10) 101_545 101_545 n
Li1 Li4 O1 49.289(7) 101_545 1_555 n
Li1 Li4 O1 84.858(10) 101_545 2_555 n
Li1 Li4 O2 83.693(10) 101_545 1_555 n
Li1 Li4 O2 138.971(6) 101_545 2_555 n
Li1 Li4 O2 49.803(7) 101_545 -101_555 n
Li1 Li4 O2 138.604(7) 101_545 -102_455 n
Li1 Li4 Mn2 121.063(7) 101_545 101_445 n
Li1 Li4 Mn2 0.0 101_545 101_545 n
Li1 Li4 Li4 60.532(4) 101_545 -1_555 n
Li1 Li4 Li4 178.67810(10) 101_545 -101_455 n
Li1 Li4 Li4 60.259(8) 101_545 -101_555 n
Li2 Li4 Li2 121.826(7) 1_554 1_555 n
Li2 Li4 Li3 55.018(6) 1_554 -1_565 n
Li2 Li4 Li3 176.84360(20) 1_554 -1_566 n
Li2 Li4 Li3 61.957(9) 1_554 101_444 n
Li2 Li4 Li3 123.690(9) 1_554 101_545 n
Li2 Li4 O1 90.744(9) 1_554 1_555 n
Li2 Li4 O1 41.746(6) 1_554 2_555 n
Li2 Li4 O2 130.283(8) 1_554 1_555 n
Li2 Li4 O2 89.447(11) 1_554 2_555 n
Li2 Li4 O2 48.416(7) 1_554 -101_555 n
Li2 Li4 O2 140.105(6) 1_554 -102_455 n
Li2 Li4 Mn2 90.591(11) 1_554 101_445 n
Li2 Li4 Mn2 60.750(12) 1_554 101_545 n
Li2 Li4 Li4 60.9127(33) 1_554 -1_555 n
Li2 Li4 Li4 119.670(12) 1_554 -101_455 n
Li2 Li4 Li4 90.155(11) 1_554 -101_555 n
Li2 Li4 Li3 176.84360(20) 1_555 -1_565 n
Li2 Li4 Li3 55.018(6) 1_555 -1_566 n
Li2 Li4 Li3 123.690(9) 1_555 101_444 n
Li2 Li4 Li3 61.957(9) 1_555 101_545 n
Li2 Li4 O1 41.746(6) 1_555 1_555 n
Li2 Li4 O1 90.744(9) 1_555 2_555 n
Li2 Li4 O2 89.447(11) 1_555 1_555 n
Li2 Li4 O2 130.283(8) 1_555 2_555 n
Li2 Li4 O2 140.105(6) 1_555 -101_555 n
Li2 Li4 O2 48.416(7) 1_555 -102_455 n
Li2 Li4 Mn2 60.750(12) 1_555 101_445 n
Li2 Li4 Mn2 90.591(11) 1_555 101_545 n
Li2 Li4 Li4 60.9127(33) 1_555 -1_555 n
Li2 Li4 Li4 90.155(11) 1_555 -101_455 n
Li2 Li4 Li4 119.670(12) 1_555 -101_555 n
Li3 Li4 Li3 128.138(6) -1_565 -1_566 n
Li3 Li4 Li3 55.572(9) -1_565 101_444 n
Li3 Li4 Li3 119.295(9) -1_565 101_545 n
Li3 Li4 O1 136.081(6) -1_565 1_555 n
Li3 Li4 O1 86.510(9) -1_565 2_555 n
Li3 Li4 O2 92.935(11) -1_565 1_555 n
Li3 Li4 O2 51.383(8) -1_565 2_555 n
Li3 Li4 O2 38.477(7) -1_565 -101_555 n
Li3 Li4 O2 133.610(7) -1_565 -102_455 n
Li3 Li4 Mn2 118.154(13) -1_565 101_445 n
Li3 Li4 Mn2 87.616(11) -1_565 101_545 n
Li3 Li4 Li4 115.9309(31) -1_565 -1_555 n
Li3 Li4 Li4 91.688(11) -1_565 -101_455 n
Li3 Li4 Li4 61.500(13) -1_565 -101_555 n
Li3 Li4 Li3 119.295(9) -1_566 101_444 n
Li3 Li4 Li3 55.572(9) -1_566 101_545 n
Li3 Li4 O1 86.510(9) -1_566 1_555 n
Li3 Li4 O1 136.081(6) -1_566 2_555 n
Li3 Li4 O2 51.383(8) -1_566 1_555 n
Li3 Li4 O2 92.935(11) -1_566 2_555 n
Li3 Li4 O2 133.610(7) -1_566 -101_555 n
Li3 Li4 O2 38.477(7) -1_566 -102_455 n
Li3 Li4 Mn2 87.616(11) -1_566 101_445 n
Li3 Li4 Mn2 118.154(13) -1_566 101_545 n
Li3 Li4 Li4 115.9309(31) -1_566 -1_555 n
Li3 Li4 Li4 61.500(13) -1_566 -101_455 n
Li3 Li4 Li4 91.688(11) -1_566 -101_555 n
Li3 Li4 Li3 170.0223(21) 101_444 101_545 n
Li3 Li4 O1 135.815(5) 101_444 1_555 n
Li3 Li4 O1 54.130(7) 101_444 2_555 n
Li3 Li4 O2 133.730(7) 101_444 1_555 n
Li3 Li4 O2 36.371(5) 101_444 2_555 n
Li3 Li4 O2 87.998(11) 101_444 -101_555 n
Li3 Li4 O2 90.941(11) 101_444 -102_455 n
Li3 Li4 Mn2 63.113(10) 101_444 101_445 n
Li3 Li4 Mn2 122.534(9) 101_444 101_545 n
Li3 Li4 Li4 94.9888(11) 101_444 -1_555 n
Li3 Li4 Li4 57.795(9) 101_444 -101_455 n
Li3 Li4 Li4 116.354(9) 101_444 -101_555 n
Li3 Li4 O1 54.130(7) 101_545 1_555 n
Li3 Li4 O1 135.815(5) 101_545 2_555 n
Li3 Li4 O2 36.371(5) 101_545 1_555 n
Li3 Li4 O2 133.730(7) 101_545 2_555 n
Li3 Li4 O2 90.941(11) 101_545 -101_555 n
Li3 Li4 O2 87.998(11) 101_545 -102_455 n
Li3 Li4 Mn2 122.534(9) 101_545 101_445 n
Li3 Li4 Mn2 63.113(10) 101_545 101_545 n
Li3 Li4 Li4 94.9888(11) 101_545 -1_555 n
Li3 Li4 Li4 116.354(9) 101_545 -101_455 n
Li3 Li4 Li4 57.795(9) 101_545 -101_555 n
O1 Li4 O1 82.120(12) 1_555 2_555 n
O1 Li4 O2 90.445(12) 1_555 1_555 n
O1 Li4 O2 168.5503(14) 1_555 2_555 n
O1 Li4 O2 99.081(7) 1_555 -101_555 n
O1 Li4 O2 90.155(7) 1_555 -102_455 n
O1 Li4 Mn2 84.858(10) 1_555 101_445 n
O1 Li4 Mn2 49.289(7) 1_555 101_545 n
O1 Li4 Li4 41.060(6) 1_555 -1_555 n
O1 Li4 Li4 131.572(7) 1_555 -101_455 n
O1 Li4 Li4 96.224(10) 1_555 -101_555 n
O1 Li4 O2 168.5503(14) 2_555 1_555 n
O1 Li4 O2 90.445(12) 2_555 2_555 n
O1 Li4 O2 90.155(7) 2_555 -101_555 n
O1 Li4 O2 99.081(7) 2_555 -102_455 n
O1 Li4 Mn2 49.289(7) 2_555 101_445 n
O1 Li4 Mn2 84.858(10) 2_555 101_545 n
O1 Li4 Li4 41.060(6) 2_555 -1_555 n
O1 Li4 Li4 96.224(10) 2_555 -101_455 n
O1 Li4 Li4 131.572(7) 2_555 -101_555 n
O2 Li4 O2 98.151(12) 1_555 2_555 n
O2 Li4 O2 82.398(8) 1_555 -101_555 n
O2 Li4 O2 89.588(8) 1_555 -102_455 n
O2 Li4 Mn2 138.970(6) 1_555 101_445 n
O2 Li4 Mn2 83.693(10) 1_555 101_545 n
O2 Li4 Li4 130.924(6) 1_555 -1_555 n
O2 Li4 Li4 95.224(10) 1_555 -101_455 n
O2 Li4 Li4 40.386(6) 1_555 -101_555 n
O2 Li4 O2 89.588(8) 2_555 -101_555 n
O2 Li4 O2 82.398(8) 2_555 -102_455 n
O2 Li4 Mn2 83.693(10) 2_555 101_445 n
O2 Li4 Mn2 138.971(6) 2_555 101_545 n
O2 Li4 Li4 130.924(6) 2_555 -1_555 n
O2 Li4 Li4 40.386(6) 2_555 -101_455 n
O2 Li4 Li4 95.224(10) 2_555 -101_555 n
O2 Li4 O2 167.7777(18) -101_555 -102_455 n
O2 Li4 Mn2 138.604(7) -101_555 101_445 n
O2 Li4 Mn2 49.803(7) -101_555 101_545 n
O2 Li4 Li4 96.1111(9) -101_555 -1_555 n
O2 Li4 Li4 129.347(7) -101_555 -101_455 n
O2 Li4 Li4 42.012(7) -101_555 -101_555 n
O2 Li4 Mn2 49.803(7) -102_455 101_445 n
O2 Li4 Mn2 138.604(7) -102_455 101_545 n
O2 Li4 Li4 96.1111(9) -102_455 -1_555 n
O2 Li4 Li4 42.012(7) -102_455 -101_455 n
O2 Li4 Li4 129.347(7) -102_455 -101_555 n
Mn2 Li4 Mn2 121.063(7) 101_445 101_545 n
Mn2 Li4 Li4 60.532(4) 101_445 -1_555 n
Mn2 Li4 Li4 60.259(8) 101_445 -101_455 n
Mn2 Li4 Li4 178.67780(10) 101_445 -101_555 n
Mn2 Li4 Li4 60.532(4) 101_545 -1_555 n
Mn2 Li4 Li4 178.67810(10) 101_545 -101_455 n
Mn2 Li4 Li4 60.259(8) 101_545 -101_555 n
Li4 Li4 Li4 120.790(4) -1_555 -101_455 n
Li4 Li4 Li4 120.790(4) -1_555 -101_555 n
Li4 Li4 Li4 118.419(8) -101_455 -101_555 n
loop_
_geom_bond_atom_site_label_1
_geom_bond_atom_site_label_2
_geom_bond_distance
_geom_bond_site_symmetry_2
_geom_bond_publ_flag
Mn1 Mn1 2.79175(20) -1_555 n
Mn1 Mn1 2.87572(29) -101_345 n
Mn1 Mn1 2.87572(29) -101_445 n
Mn1 Li1 2.86796(20) 1_555 n
Mn1 Li1 2.83746(29) 101_445 n
Mn1 Li1 2.83746(29) 101_545 n
Mn1 Li2 2.87134(26) 1_554 n
Mn1 Li2 2.87134(26) 1_555 n
Mn1 Li3 2.79011(27) -1_565 n
Mn1 Li3 2.79011(27) -1_566 n
Mn1 Li3 2.8978(6) 101_444 n
Mn1 Li3 2.8978(6) 101_545 n
Mn1 O1 1.85124(18) 1_555 n
Mn1 O1 1.85124(18) 2_555 n
Mn1 O2 1.94175(23) 1_555 n
Mn1 O2 1.94175(23) 2_555 n
Mn1 O2 1.87980(24) -101_445 n
Mn1 O2 1.87980(24) -102_345 n
Mn1 Mn2 2.86796(20) 1_555 n
Mn1 Mn2 2.83746(29) 101_445 n
Mn1 Mn2 2.83746(29) 101_545 n
Mn1 Li4 2.79175(20) -1_555 n
Mn1 Li4 2.87572(29) -101_345 n
Mn1 Li4 2.87572(29) -101_445 n
Li1 Mn1 2.86796(20) 1_555 n
Li1 Mn1 2.86796(20) -1_565 n
Li1 Mn1 2.83746(29) 101_455 n
Li1 Mn1 2.83746(29) 101_555 n
Li1 Mn1 2.83746(29) -101_345 n
Li1 Mn1 2.83746(29) -101_445 n
Li1 Li2 2.8869(6) 101_454 n
Li1 Li2 2.8869(6) 101_555 n
Li1 Li3 3.00194(25) 1_554 n
Li1 Li3 3.00194(25) 1_555 n
Li1 Li3 3.00194(25) -1_565 n
Li1 Li3 3.00194(25) -1_566 n
Li1 O1 2.15081(28) 101_455 n
Li1 O1 2.15081(28) 102_555 n
Li1 O2 2.16788(22) 1_555 n
Li1 O2 2.16788(22) 2_555 n
Li1 O2 2.16788(22) -1_565 n
Li1 O2 2.16788(22) -2_565 n
Li1 Li4 2.86796(20) 1_555 n
Li1 Li4 2.86796(20) -1_565 n
Li1 Li4 2.83746(29) 101_455 n
Li1 Li4 2.83746(29) 101_555 n
Li1 Li4 2.83746(29) -101_345 n
Li1 Li4 2.83746(29) -101_445 n
Li2 Mn1 2.87134(26) 1_555 n
Li2 Mn1 2.87134(26) 1_556 n
Li2 Mn1 2.87134(26) -1_555 n
Li2 Mn1 2.87134(26) -1_556 n
Li2 Li1 2.8869(6) 101_445 n
Li2 Li1 2.8869(6) 101_546 n
Li2 Li3 2.61596(18) 1_545 n
Li2 Li3 2.61596(18) -1_566 n
Li2 Li3 2.96955(28) 101_445 n
Li2 Li3 2.96955(28) 101_545 n
Li2 Li3 2.96955(28) -101_346 n
Li2 Li3 2.96955(28) -101_446 n
Li2 O1 1.93385(24) 1_555 n
Li2 O1 1.93385(24) 2_556 n
Li2 O2 2.14786(21) 101_445 n
Li2 O2 2.14786(21) 102_546 n
Li2 O2 2.14786(21) -101_446 n
Li2 O2 2.14786(21) -102_345 n
Li2 Mn2 2.8869(6) 101_445 n
Li2 Mn2 2.8869(6) 101_546 n
Li2 Li4 2.87134(26) 1_555 n
Li2 Li4 2.87134(26) 1_556 n
Li2 Li4 2.87134(26) -1_555 n
Li2 Li4 2.87134(26) -1_556 n
Li3 Mn1 2.79011(27) -1_565 n
Li3 Mn1 2.79011(27) -1_566 n
Li3 Mn1 2.8978(6) 101_455 n
Li3 Mn1 2.8978(6) 101_556 n
Li3 Li1 3.00194(25) 1_555 n
Li3 Li1 3.00194(25) 1_556 n
Li3 Li2 2.61596(18) 1_565 n
Li3 Li2 2.96955(28) 101_455 n
Li3 Li2 2.96955(28) 101_555 n
Li3 Li3 3.29575(23) -1_566 n
Li3 Li3 2.65328(31) -101_356 n
Li3 Li3 2.65328(31) -101_456 n
Li3 O1 2.35323(26) 101_455 n
Li3 O1 2.35323(26) 102_556 n
Li3 O2 2.18921(28) -1_566 n
Li3 O2 2.18921(28) -2_565 n
Li3 O2 1.76251(24) 101_455 n
Li3 O2 1.76251(24) 102_556 n
Li3 Mn2 3.00194(25) 1_555 n
Li3 Mn2 3.00194(25) 1_556 n
Li3 Li4 2.79011(27) -1_565 n
Li3 Li4 2.79011(27) -1_566 n
Li3 Li4 2.8978(6) 101_455 n
Li3 Li4 2.8978(6) 101_556 n
O1 Mn1 1.85124(18) 1_555 n
O1 Mn1 1.85124(18) -1_555 n
O1 Li1 2.15081(28) 101_545 n
O1 Li2 1.93385(24) 1_555 n
O1 Li3 2.35323(26) 101_545 n
O1 Li3 2.35323(26) -101_446 n
O1 Mn2 2.15081(28) 101_545 n
O1 Li4 1.85124(18) 1_555 n
O1 Li4 1.85124(18) -1_555 n
O2 Mn1 1.94175(23) 1_555 n
O2 Mn1 1.87980(24) -101_445 n
O2 Li1 2.16788(22) 1_555 n
O2 Li2 2.14786(21) 101_555 n
O2 Li3 2.18921(28) -1_566 n
O2 Li3 1.76251(24) 101_545 n
O2 Mn2 2.16788(22) 1_555 n
O2 Li4 1.94175(23) 1_555 n
O2 Li4 1.87980(24) -101_445 n
Mn2 Mn1 2.86796(20) 1_555 n
Mn2 Mn1 2.86796(20) -1_565 n
Mn2 Mn1 2.83746(29) 101_455 n
Mn2 Mn1 2.83746(29) 101_555 n
Mn2 Mn1 2.83746(29) -101_345 n
Mn2 Mn1 2.83746(29) -101_445 n
Mn2 Li2 2.8869(6) 101_454 n
Mn2 Li2 2.8869(6) 101_555 n
Mn2 Li3 3.00194(25) 1_554 n
Mn2 Li3 3.00194(25) 1_555 n
Mn2 Li3 3.00194(25) -1_565 n
Mn2 Li3 3.00194(25) -1_566 n
Mn2 O1 2.15081(28) 101_455 n
Mn2 O1 2.15081(28) 102_555 n
Mn2 O2 2.16788(22) 1_555 n
Mn2 O2 2.16788(22) 2_555 n
Mn2 O2 2.16788(22) -1_565 n
Mn2 O2 2.16788(22) -2_565 n
Mn2 Li4 2.86796(20) 1_555 n
Mn2 Li4 2.86796(20) -1_565 n
Mn2 Li4 2.83746(29) 101_455 n
Mn2 Li4 2.83746(29) 101_555 n
Mn2 Li4 2.83746(29) -101_345 n
Mn2 Li4 2.83746(29) -101_445 n
Li4 Mn1 2.79175(20) -1_555 n
Li4 Mn1 2.87572(29) -101_345 n
Li4 Mn1 2.87572(29) -101_445 n
Li4 Li1 2.86796(20) 1_555 n
Li4 Li1 2.83746(29) 101_445 n
Li4 Li1 2.83746(29) 101_545 n
Li4 Li2 2.87134(26) 1_554 n
Li4 Li2 2.87134(26) 1_555 n
Li4 Li3 2.79011(27) -1_565 n
Li4 Li3 2.79011(27) -1_566 n
Li4 Li3 2.8978(6) 101_444 n
Li4 Li3 2.8978(6) 101_545 n
Li4 O1 1.85124(18) 1_555 n
Li4 O1 1.85124(18) 2_555 n
Li4 O2 1.94175(23) 1_555 n
Li4 O2 1.94175(23) 2_555 n
Li4 O2 1.87980(24) -101_445 n
Li4 O2 1.87980(24) -102_345 n
Li4 Mn2 2.86796(20) 1_555 n
Li4 Mn2 2.83746(29) 101_445 n
Li4 Mn2 2.83746(29) 101_545 n
Li4 Li4 2.79175(20) -1_555 n
Li4 Li4 2.87572(29) -101_345 n
Li4 Li4 2.87572(29) -101_445 n
loop_
_pd_meas_counts_total
_pd_proc_ls_weight
_pd_proc_intensity_bkg_calc
_pd_calc_intensity_total
857.0 0.001167 633.07715 632.99835
834.0 0.001199 633.07507 632.99640
858.0 0.001166 633.07135 632.99310
829.0 0.001206 633.06622 632.98822
813.0 0.001230 633.05951 632.98187
826.0 0.001211 633.05145 632.97406
768.0 0.001302 633.04193 632.96484
757.0 0.001321 633.03088 632.95410
824.0 0.001214 633.01837 632.94189
861.0 0.001161 633.00446 632.92828
788.0 0.001269 632.98901 632.91315
812.0 0.001232 632.97211 632.89655
813.0 0.001230 632.95386 632.87848
809.0 0.001236 632.93408 632.85907
803.0 0.001245 632.91284 632.83820
834.0 0.001199 632.89020 632.81586
824.0 0.001214 632.86615 632.79199
838.0 0.001193 632.84064 632.76685
850.0 0.001176 632.81366 632.74023
809.0 0.001236 632.78528 632.71216
805.0 0.001242 632.75543 632.68262
801.0 0.001248 632.72424 632.65167
795.0 0.001258 632.69165 632.61932
837.0 0.001195 632.65765 632.58557
845.0 0.001183 632.62213 632.55035
816.0 0.001225 632.58533 632.51385
788.0 0.001269 632.54706 632.47583
782.0 0.001279 632.50732 632.43646
804.0 0.001244 632.46631 632.39563
787.0 0.001271 632.42389 632.35345
730.0 0.001370 632.37994 632.30988
767.0 0.001304 632.33478 632.26495
796.0 0.001256 632.28809 632.21857
760.0 0.001316 632.24017 632.17090
870.0 0.001149 632.19073 632.12177
806.0 0.001241 632.13995 632.07135
769.0 0.001300 632.08783 632.01947
780.0 0.001282 632.03430 631.96625
772.0 0.001295 631.97949 631.91168
801.0 0.001248 631.92328 631.85577
762.0 0.001312 631.86566 631.79834
760.0 0.001316 631.80664 631.73969
785.0 0.001274 631.74646 631.67969
801.0 0.001248 631.68481 631.61829
767.0 0.001304 631.62177 631.55560
763.0 0.001311 631.55743 631.49158
742.0 0.001348 631.49176 631.42615
750.0 0.001333 631.42474 631.35938
768.0 0.001302 631.35638 631.29126
752.0 0.001330 631.28668 631.22192
733.0 0.001364 631.21576 631.15118
785.0 0.001274 631.14331 631.07910
742.0 0.001348 631.06970 631.00574
716.0 0.001397 630.99469 630.93103
737.0 0.001357 630.91846 630.85498
733.0 0.001364 630.84082 630.77765
738.0 0.001355 630.76196 630.69904
710.0 0.001408 630.68170 630.61908
692.0 0.001445 630.60022 630.53784
709.0 0.001410 630.51740 630.45520
783.0 0.001277 630.43335 630.37146
785.0 0.001274 630.34784 630.28619
684.0 0.001462 630.26111 630.19983
653.0 0.001531 630.17316 630.11206
688.0 0.001453 630.08398 630.02307
738.0 0.001355 629.99341 629.93280
698.0 0.001433 629.90155 629.84125
709.0 0.001410 629.80847 629.74835
728.0 0.001374 629.71399 629.65424
643.0 0.001555 629.61835 629.55890
692.0 0.001445 629.52148 629.46222
694.0 0.001441 629.42340 629.36432
692.0 0.001445 629.32391 629.26508
723.0 0.001383 629.22321 629.16467
676.0 0.001479 629.12128 629.06305
650.0 0.001538 629.01807 628.96008
673.0 0.001486 628.91370 628.85590
712.0 0.001404 628.80804 628.75049
686.0 0.001458 628.70105 628.64386
684.0 0.001462 628.59283 628.53583
721.0 0.001387 628.48352 628.42664
622.0 0.001608 628.37292 628.31628
669.0 0.001495 628.26099 628.20471
683.0 0.001464 628.14789 628.09198
638.0 0.001567 628.03357 627.97784
714.0 0.001401 627.91803 627.86261
682.0 0.001466 627.80133 627.74609
696.0 0.001437 627.68341 627.62842
671.0 0.001490 627.56421 627.50946
657.0 0.001522 627.44385 627.38922
632.0 0.001582 627.32227 627.26807
655.0 0.001527 627.19946 627.14545
685.0 0.001460 627.07550 627.02173
697.0 0.001435 626.95038 626.89679
652.0 0.001534 626.82391 626.77069
660.0 0.001515 626.69641 626.64331
659.0 0.001517 626.56769 626.51483
691.0 0.001447 626.43768 626.38513
648.0 0.001543 626.30664 626.25433
618.0 0.001618 626.17426 626.12219
648.0 0.001543 626.04089 625.98883
663.0 0.001508 625.90625 625.85455
654.0 0.001529 625.77039 625.71893
652.0 0.001534 625.63342 625.58221
606.0 0.001650 625.49530 625.44427
655.0 0.001527 625.35602 625.30530
666.0 0.001502 625.21552 625.16504
639.0 0.001565 625.07397 625.02368
662.0 0.001511 624.93127 624.88116
686.0 0.001458 624.78729 624.73749
652.0 0.001534 624.64221 624.59271
632.0 0.001582 624.49609 624.44666
692.0 0.001445 624.34875 624.29962
683.0 0.001464 624.20026 624.15143
683.0 0.001464 624.05066 624.00195
693.0 0.001443 623.89990 623.85150
646.0 0.001548 623.74811 623.69983
623.0 0.001605 623.59509 623.54712
625.0 0.001600 623.44092 623.39325
642.0 0.001558 623.28571 623.23822
660.0 0.001515 623.12939 623.08215
641.0 0.001560 622.97198 622.92487
642.0 0.001558 622.81335 622.76654
613.0 0.001631 622.65369 622.60699
666.0 0.001502 622.49292 622.44647
612.0 0.001634 622.33099 622.28479
635.0 0.001575 622.16803 622.12207
631.0 0.001585 622.00391 621.95819
614.0 0.001629 621.83881 621.79321
673.0 0.001486 621.67255 621.62720
656.0 0.001524 621.50519 621.46008
638.0 0.001567 621.33679 621.29187
623.0 0.001605 621.16724 621.12262
612.0 0.001634 620.99664 620.95221
600.0 0.001667 620.82501 620.78070
609.0 0.001642 620.65228 620.60828
611.0 0.001637 620.47845 620.43457
627.0 0.001595 620.30347 620.26001
641.0 0.001560 620.12762 620.08423
582.0 0.001718 619.95062 619.90741
640.0 0.001563 619.77246 619.72949
595.0 0.001681 619.59332 619.55072
628.0 0.001592 619.41327 619.37067
603.0 0.001658 619.23199 619.18958
601.0 0.001664 619.04974 619.00751
594.0 0.001684 618.86639 618.82446
613.0 0.001631 618.68195 618.64032
603.0 0.001658 618.49658 618.45514
577.0 0.001733 618.31018 618.26886
619.0 0.001616 618.12274 618.08167
600.0 0.001667 617.93420 617.89337
606.0 0.001650 617.74463 617.70398
559.0 0.001789 617.55408 617.51367
586.0 0.001706 617.36261 617.32227
571.0 0.001751 617.16998 617.12994
576.0 0.001736 616.97644 616.93652
605.0 0.001653 616.78174 616.74207
618.0 0.001618 616.58606 616.54663
599.0 0.001669 616.38940 616.35022
563.0 0.001776 616.19183 616.15271
582.0 0.001718 615.99310 615.95422
560.0 0.001786 615.79346 615.75482
597.0 0.001675 615.59277 615.55438
573.0 0.001745 615.39117 615.35291
571.0 0.001751 615.18848 615.15039
578.0 0.001730 614.98486 614.94702
592.0 0.001689 614.78027 614.74268
591.0 0.001692 614.57465 614.53717
569.0 0.001757 614.36810 614.33081
576.0 0.001736 614.16052 614.12341
590.0 0.001695 613.95197 613.91510
547.0 0.001828 613.74249 613.70581
553.0 0.001808 613.53198 613.49554
606.0 0.001650 613.32056 613.28424
563.0 0.001776 613.10803 613.07196
553.0 0.001808 612.89478 612.85883
571.0 0.001751 612.68042 612.64478
583.0 0.001715 612.46509 612.42963
561.0 0.001783 612.24890 612.21350
590.0 0.001695 612.03168 611.99658
556.0 0.001799 611.81354 611.77856
538.0 0.001859 611.59448 611.55969
547.0 0.001828 611.37445 611.33990
536.0 0.001866 611.15344 611.11908
569.0 0.001757 610.93158 610.89740
530.0 0.001887 610.70874 610.67474
530.0 0.001887 610.48492 610.45117
521.0 0.001919 610.26019 610.22662
563.0 0.001776 610.03461 610.00116
519.0 0.001927 609.80798 609.77472
557.0 0.001795 609.58057 609.54749
548.0 0.001825 609.35217 609.31927
560.0 0.001786 609.12286 609.09009
552.0 0.001812 608.89270 608.86011
561.0 0.001783 608.66150 608.62915
574.0 0.001742 608.42944 608.39728
533.0 0.001876 608.19653 608.16455
559.0 0.001789 607.96265 607.93079
555.0 0.001802 607.72784 607.69629
561.0 0.001783 607.49225 607.46075
526.0 0.001901 607.25568 607.22437
545.0 0.001835 607.01831 606.98712
541.0 0.001848 606.77997 606.74902
586.0 0.001706 606.54065 606.50995
575.0 0.001739 606.30060 606.27008
505.0 0.001980 606.05957 606.02911
526.0 0.001901 605.81769 605.78754
515.0 0.001942 605.57495 605.54498
575.0 0.001739 605.33142 605.30145
540.0 0.001852 605.08679 605.05719
553.0 0.001808 604.84161 604.81201
571.0 0.001751 604.59534 604.56604
533.0 0.001876 604.34827 604.31903
550.0 0.001818 604.10028 604.07129
483.0 0.002070 603.85150 603.82269
544.0 0.001838 603.60181 603.57306
517.0 0.001934 603.35126 603.32281
488.0 0.002049 603.09991 603.07159
524.0 0.001908 602.84772 602.81952
511.0 0.001957 602.59467 602.56665
539.0 0.001855 602.34076 602.31293
515.0 0.001942 602.08600 602.05835
522.0 0.001916 601.83044 601.80292
548.0 0.001825 601.57404 601.54663
500.0 0.002000 601.31671 601.28961
555.0 0.001802 601.05865 601.03162
529.0 0.001890 600.79974 600.77289
523.0 0.001912 600.53998 600.51331
507.0 0.001972 600.27954 600.25293
555.0 0.001802 600.01813 599.99176
509.0 0.001965 599.75592 599.72968
508.0 0.001969 599.49292 599.46686
523.0 0.001912 599.22906 599.20325
475.0 0.002105 598.96454 598.93872
510.0 0.001961 598.69897 598.67346
507.0 0.001972 598.43274 598.40735
474.0 0.002110 598.16565 598.14050
463.0 0.002160 597.89789 597.87280
529.0 0.001890 597.62921 597.60431
525.0 0.001905 597.35986 597.33502
495.0 0.002020 597.08954 597.06494
480.0 0.002083 596.81848 596.79413
488.0 0.002049 596.54675 596.52246
555.0 0.001802 596.27417 596.25000
500.0 0.002000 596.00079 595.97675
484.0 0.002066 595.72656 595.70270
513.0 0.001949 595.45166 595.42798
532.0 0.001880 595.17596 595.15240
484.0 0.002066 594.89948 594.87610
471.0 0.002123 594.62219 594.59906
477.0 0.002096 594.34424 594.32117
532.0 0.001880 594.06543 594.04248
510.0 0.001961 593.78589 593.76318
502.0 0.001992 593.50555 593.48291
487.0 0.002053 593.22449 593.20209
499.0 0.002004 592.94269 592.92035
510.0 0.001961 592.66003 592.63794
485.0 0.002062 592.37677 592.35474
476.0 0.002101 592.09271 592.07086
524.0 0.001908 591.80792 591.78619
467.0 0.002141 591.52234 591.50079
488.0 0.002049 591.23602 591.21460
452.0 0.002212 590.94897 590.92773
512.0 0.001953 590.66119 590.64008
489.0 0.002045 590.37274 590.35175
488.0 0.002049 590.08350 590.06262
527.0 0.001898 589.79346 589.77283
446.0 0.002242 589.50281 589.48224
472.0 0.002119 589.21136 589.19098
480.0 0.002083 588.91925 588.89893
509.0 0.001965 588.62634 588.60632
478.0 0.002092 588.33282 588.31281
518.0 0.001931 588.03851 588.01868
453.0 0.002208 587.74347 587.72382
462.0 0.002165 587.44781 587.42834
482.0 0.002075 587.15137 587.13202
512.0 0.001953 586.85431 586.83502
486.0 0.002058 586.55640 586.53729
505.0 0.001980 586.25793 586.23895
486.0 0.002058 585.95868 585.93994
494.0 0.002024 585.65875 585.64008
490.0 0.002041 585.35822 585.33960
477.0 0.002096 585.05682 585.03845
474.0 0.002110 584.75488 584.73663
488.0 0.002049 584.45227 584.43402
477.0 0.002096 584.14886 584.13086
496.0 0.002016 583.84479 583.82690
501.0 0.001996 583.54016 583.52240
468.0 0.002137 583.23474 583.21710
494.0 0.002024 582.92865 582.91119
498.0 0.002008 582.62189 582.60461
463.0 0.002160 582.31451 582.29730
478.0 0.002092 582.00647 581.98938
480.0 0.002083 581.69775 581.68079
474.0 0.002110 581.38831 581.37152
477.0 0.002096 581.07825 581.06158
486.0 0.002058 580.76758 580.75098
469.0 0.002132 580.45624 580.43976
445.0 0.002247 580.14417 580.12787
452.0 0.002212 579.83148 579.81537
486.0 0.002058 579.51813 579.50208
454.0 0.002203 579.20422 579.18823
484.0 0.002066 578.88965 578.87384
486.0 0.002058 578.57434 578.55872
465.0 0.002151 578.25848 578.24298
469.0 0.002132 577.94196 577.92651
460.0 0.002174 577.62476 577.60950
476.0 0.002101 577.30695 577.29187
436.0 0.002294 576.98859 576.97351
411.0 0.002433 576.66949 576.65460
488.0 0.002049 576.34979 576.33514
459.0 0.002179 576.02960 576.01489
471.0 0.002123 575.70862 575.69409
481.0 0.002079 575.38702 575.37274
478.0 0.002092 575.06494 575.05054
482.0 0.002075 574.74219 574.72809
474.0 0.002110 574.41876 574.40472
463.0 0.002160 574.09479 574.08087
487.0 0.002053 573.77020 573.75635
458.0 0.002183 573.44495 573.43134
477.0 0.002096 573.11920 573.10565
502.0 0.001992 572.79291 572.77936
468.0 0.002137 572.46582 572.45245
503.0 0.001988 572.13818 572.12500
439.0 0.002278 571.81000 571.79694
496.0 0.002016 571.48126 571.46832
466.0 0.002146 571.15179 571.13904
482.0 0.002075 570.82184 570.80920
493.0 0.002028 570.49139 570.47882
486.0 0.002058 570.16028 570.14777
450.0 0.002222 569.82849 569.81622
449.0 0.002227 569.49622 569.48401
505.0 0.001980 569.16345 569.15131
488.0 0.002049 568.82996 568.81793
492.0 0.002033 568.49597 568.48407
458.0 0.002183 568.16144 568.14954
470.0 0.002128 567.82635 567.81458
490.0 0.002041 567.49060 567.47900
472.0 0.002119 567.15436 592.97571
491.0 0.002037 566.81744 593.17267
480.0 0.002083 566.48010 606.17468
474.0 0.002110 566.14221 606.66785
503.0 0.001988 565.80371 607.18695
495.0 0.002020 565.46466 607.73291
490.0 0.002041 565.12506 608.30688
491.0 0.002037 564.78491 608.91028
511.0 0.001957 564.44415 609.54425
492.0 0.002033 564.10303 612.18591
476.0 0.002101 563.76123 612.90204
505.0 0.001980 563.41895 613.65356
523.0 0.001912 563.07605 615.42780
475.0 0.002105 562.73260 616.26324
515.0 0.001942 562.38873 617.13904
465.0 0.002151 562.04431 618.05750
513.0 0.001949 561.69934 619.02057
501.0 0.001996 561.35388 620.03040
520.0 0.001923 561.00787 621.08954
502.0 0.001992 560.66132 622.20032
503.0 0.001988 560.31427 623.36530
532.0 0.001880 559.96667 624.58722
497.0 0.002012 559.61859 625.86926
499.0 0.002004 559.27002 627.21454
494.0 0.002024 558.92090 628.62634
492.0 0.002033 558.57123 630.10840
482.0 0.002075 558.22113 631.66467
493.0 0.002028 557.87048 633.29895
491.0 0.002037 557.51935 635.01599
545.0 0.001835 557.16766 636.82025
526.0 0.001901 556.81561 638.71698
501.0 0.001996 556.46295 640.71155
529.0 0.001890 556.10986 642.80981
523.0 0.001912 555.75616 645.01807
501.0 0.001996 555.40210 647.34314
478.0 0.002092 555.04755 649.79224
479.0 0.002088 554.69244 652.37323
569.0 0.001757 554.33691 655.09460
517.0 0.001934 553.98083 657.96564
503.0 0.001988 553.62433 660.99603
520.0 0.001923 553.26733 664.19696
513.0 0.001949 552.90991 667.57953
569.0 0.001757 552.55194 671.15704
581.0 0.001721 552.19348 674.94312
544.0 0.001838 551.83466 678.95270
514.0 0.001946 551.47522 683.20233
551.0 0.001815 551.11548 687.70996
558.0 0.001792 550.75519 692.49536
558.0 0.001792 550.39441 697.58032
539.0 0.001855 550.03326 702.98810
620.0 0.001613 549.67157 708.74506
571.0 0.001751 549.30939 714.88000
601.0 0.001664 548.94696 721.42462
576.0 0.001736 548.58386 728.41406
610.0 0.001639 548.22040 735.88739
683.0 0.001464 547.85651 743.88794
669.0 0.001495 547.49225 752.46381
679.0 0.001473 547.12744 761.66901
644.0 0.001553 546.76208 771.56342
645.0 0.001550 546.39648 782.21472
695.0 0.001439 546.03046 793.69897
666.0 0.001502 545.66382 806.10150
708.0 0.001412 545.29688 819.51904
739.0 0.001353 544.92944 834.06116
711.0 0.001406 544.56158 849.85266
729.0 0.001372 544.19336 867.03595
736.0 0.001359 543.82471 885.77423
774.0 0.001292 543.45557 906.25555
857.0 0.001167 543.08600 928.69830
837.0 0.001195 542.71613 953.35742
865.0 0.001156 542.34576 980.53387
943.0 0.001060 541.97498 1010.58655
915.0 0.001093 541.60376 1043.95007
949.0 0.001054 541.23224 1081.15796
1043.0 0.000959 540.86017 1122.87573
1073.0 0.000932 540.48785 1169.94556
1072.0 0.000933 540.11493 1223.44617
1197.0 0.000835 539.74176 1284.77026
1280.0 0.000781 539.36810 1355.71948
1388.0 0.000720 538.99414 1438.62000
1478.0 0.000677 538.61969 1536.44885
1618.0 0.000618 538.24493 1652.96350
1752.0 0.000571 537.86969 1792.82056
1919.0 0.000521 537.49408 1961.65454
2111.0 0.000474 537.11810 2166.09277
2323.0 0.000430 536.74176 2413.66821
2700.0 0.000370 536.36505 2712.58643
3045.0 0.0003284 535.98785 3071.30078
3520.0 0.0002841 535.61035 3497.81714
4010.0 0.0002494 535.23242 3998.64380
4540.0 0.0002203 534.85419 4577.26563
5239.0 0.0001909 534.47552 5232.06836
6001.0 0.0001666 534.09650 5953.81055
6552.0 0.0001526 533.71716 6723.10059
7248.0 0.0001380 533.33740 7508.55029
7952.0 0.0001258 532.95728 8266.13477
8481.0 0.0001179 532.57678 8940.01953
9051.0 0.0001105 532.19592 9466.31348
9439.0 0.0001059 531.81470 9782.68164
9494.0 0.0001053 531.43317 9843.98926
9240.0 0.0001082 531.05115 9637.28320
8916.0 0.0001122 530.66888 9187.08789
8245.0 0.0001213 530.28625 8548.19629
7625.0 0.0001311 529.90320 7790.45020
6758.0 0.0001480 529.51990 6982.68652
5937.0 0.0001684 529.13617 6181.29053
5379.0 0.0001859 528.75220 5425.58838
4811.0 0.0002079 528.36780 4738.74219
4025.0 0.0002484 527.98303 4131.33203
3579.0 0.0002794 527.59790 3605.29053
3261.0 0.0003067 527.21252 3157.11353
2748.0 0.000364 526.82678 2780.14990
2547.0 0.000393 526.44073 2466.16187
2162.0 0.000463 526.05432 2206.37988
1941.0 0.000515 525.66754 1992.21338
1820.0 0.000549 525.28052 1815.71252
1683.0 0.000594 524.89313 1669.83862
1555.0 0.000643 524.50537 1548.58215
1365.0 0.000733 524.11731 1446.96912
1313.0 0.000762 523.72894 1360.98743
1207.0 0.000829 523.34021 1287.46741
1218.0 0.000821 522.95117 1223.94373
1138.0 0.000879 522.56183 1168.51672
1035.0 0.000966 522.17224 1119.72766
1020.0 0.000980 521.78223 1076.45313
923.0 0.001083 521.39197 1037.81970
948.0 0.001055 521.00140 1003.14093
910.0 0.001099 520.61053 971.86725
840.0 0.001190 520.21924 943.55145
797.0 0.001255 519.82782 917.82501
802.0 0.001247 519.43604 894.37811
793.0 0.001261 519.04395 872.94897
817.0 0.001224 518.65149 853.31299
764.0 0.001309 518.25879 835.27643
783.0 0.001277 517.86578 818.67188
756.0 0.001323 517.47253 805.94989
722.0 0.001385 517.07898 791.86475
749.0 0.001335 516.68506 780.09863
713.0 0.001403 516.29089 768.04791
735.0 0.001361 515.89648 756.86078
691.0 0.001447 515.50171 746.45953
690.0 0.001449 515.10675 736.77563
677.0 0.001477 514.71143 727.74786
667.0 0.001499 514.31586 719.32178
679.0 0.001473 513.92004 711.44861
653.0 0.001531 513.52386 704.08466
644.0 0.001553 513.12750 697.19110
652.0 0.001534 512.73090 690.73279
652.0 0.001534 512.33392 684.67804
633.0 0.001580 511.93674 678.99829
622.0 0.001608 511.53922 673.66827
622.0 0.001608 511.14151 668.66498
656.0 0.001524 510.74353 663.96759
605.0 0.001653 510.34525 659.55713
659.0 0.001517 509.94672 655.41711
620.0 0.001613 509.54791 651.53229
632.0 0.001582 509.14893 647.88916
622.0 0.001608 508.74963 644.47552
628.0 0.001592 508.35010 641.28052
661.0 0.001513 507.95029 638.29486
623.0 0.001605 507.55026 635.50989
617.0 0.001621 507.14996 632.91846
598.0 0.001672 506.74945 630.51447
613.0 0.001631 506.34863 628.29254
619.0 0.001616 505.94763 626.24866
638.0 0.001567 505.54639 624.37964
671.0 0.001490 505.14493 622.68341
665.0 0.001504 504.74313 621.15894
618.0 0.001618 504.34116 619.80615
635.0 0.001575 503.93896 618.62640
633.0 0.001580 503.53656 617.62201
619.0 0.001616 503.13385 616.79675
600.0 0.001667 502.73096 616.15601
663.0 0.001508 502.32788 615.70679
628.0 0.001592 501.92450 615.45770
657.0 0.001522 501.52090 615.42004
624.0 0.001603 501.11710 615.60736
641.0 0.001560 500.71313 616.03656
661.0 0.001513 500.30890 616.72791
666.0 0.001502 499.90439 617.70691
713.0 0.001403 499.49976 619.00464
687.0 0.001456 499.09491 620.66089
683.0 0.001464 498.68982 622.72705
725.0 0.001379 498.28448 625.27148
792.0 0.001263 497.87903 628.38770
775.0 0.001290 497.47330 633.24255
714.0 0.001401 497.06741 637.96021
799.0 0.001252 496.66122 643.82941
794.0 0.001259 496.25494 651.73700
879.0 0.001138 495.84839 661.16858
868.0 0.001152 495.44168 673.32178
918.0 0.001089 495.03479 689.08374
954.0 0.001048 494.62762 709.54913
956.0 0.001046 494.22034 735.99445
924.0 0.001082 493.81287 769.80353
1033.0 0.000968 493.40515 812.33380
1069.0 0.000935 492.99728 839.02393
1105.0 0.000905 492.58920 902.32599
1172.0 0.000853 492.18097 962.80127
1216.0 0.000822 491.77255 1044.77173
1304.0 0.000767 491.36389 1131.66223
1310.0 0.000763 490.95514 1218.19434
1340.0 0.000746 490.54614 1297.32947
1427.0 0.000701 490.13702 1360.65771
1407.0 0.000711 489.72769 1399.71667
1514.0 0.000661 489.31818 1408.56409
1457.0 0.000686 488.90851 1386.10339
1540.0 0.000649 488.49866 1336.30566
1512.0 0.000661 488.08859 1266.62976
1624.0 0.000616 487.67844 1185.96802
1515.0 0.000660 487.26813 1102.73608
1495.0 0.000669 486.85757 1023.50977
1516.0 0.000660 486.44690 952.53857
1579.0 0.000633 486.03601 891.98645
1483.0 0.000674 485.62506 842.46515
1557.0 0.000642 485.21393 803.55701
1489.0 0.000672 484.80255 774.23224
1455.0 0.000687 484.39111 753.16431
1483.0 0.000674 483.97952 738.95831
1456.0 0.000687 483.56775 730.30627
1419.0 0.000705 483.15579 726.07928
1427.0 0.000701 482.74377 725.36584
1415.0 0.000707 482.33151 727.47150
1343.0 0.000745 481.91916 731.89526
1412.0 0.000708 481.50668 738.29211
1434.0 0.000697 481.09399 746.43781
1417.0 0.000706 480.68118 756.19299
1432.0 0.000698 480.26831 767.47632
1420.0 0.000704 479.85522 780.24402
1413.0 0.000708 479.44196 794.47302
1403.0 0.000713 479.02863 810.14948
1422.0 0.000703 478.61520 827.25897
1484.0 0.000674 478.20163 845.77765
1401.0 0.000714 477.78787 865.66370
1379.0 0.000725 477.37396 886.84894
1354.0 0.000739 476.96002 909.22870
1291.0 0.000775 476.54590 932.65216
1253.0 0.000798 476.13162 956.91260
1240.0 0.000806 475.71729 981.73633
1251.0 0.000799 475.30283 1006.77759
1258.0 0.000795 474.88828 1031.61353
1213.0 0.000824 474.47348 1055.74487
1170.0 0.000855 474.05869 1078.60803
1169.0 0.000855 473.64371 1099.58984
1213.0 0.000824 473.22864 1118.05713
1132.0 0.000883 472.81345 1133.39258
1051.0 0.000951 472.39819 1145.03430
1093.0 0.000915 471.98276 1152.52136
1097.0 0.000912 471.56726 1155.53101
1118.0 0.000894 471.15164 1153.90845
1077.0 0.000929 470.73593 1147.68152
998.0 0.001002 470.32013 1137.05676
1052.0 0.000951 469.90424 1122.40222
1029.0 0.000972 469.48822 1104.21326
1059.0 0.000944 469.07208 1083.07178
1006.0 0.000994 468.65585 1059.60315
995.0 0.001005 468.23953 1034.43384
1060.0 0.000943 467.82318 1008.15887
1035.0 0.000966 467.40671 981.31635
949.0 0.001054 466.99008 954.37170
996.0 0.001004 466.57343 927.71191
989.0 0.001011 466.15668 901.64526
986.0 0.001014 465.73978 876.40698
985.0 0.001015 465.32288 852.16644
996.0 0.001004 464.90579 829.03796
982.0 0.001018 464.48874 807.09009
975.0 0.001026 464.07153 786.35449
929.0 0.001076 463.65427 766.83514
906.0 0.001104 463.23688 748.51373
894.0 0.001119 462.81952 731.35706
940.0 0.001064 462.40204 715.32098
898.0 0.001114 461.98444 700.35388
923.0 0.001083 461.56677 686.39984
912.0 0.001096 461.14914 673.40106
878.0 0.001139 460.73129 661.29828
880.0 0.001136 460.31348 650.03375
847.0 0.001181 459.89557 639.55048
870.0 0.001149 459.47760 629.79388
892.0 0.001121 459.05954 620.71143
878.0 0.001139 458.64145 612.25342
851.0 0.001175 458.22324 604.37280
870.0 0.001149 457.80505 597.02582
828.0 0.001208 457.38678 590.17102
837.0 0.001195 456.96838 583.77020
836.0 0.001196 456.54996 577.78784
842.0 0.001188 456.13159 572.19092
839.0 0.001192 455.71304 566.94946
769.0 0.001300 455.29446 562.03503
835.0 0.001198 454.87589 557.42236
827.0 0.001209 454.45718 553.08789
787.0 0.001271 454.03851 549.01050
849.0 0.001178 453.61978 545.17017
812.0 0.001232 453.20096 541.54938
818.0 0.001222 452.78217 538.13184
818.0 0.001222 452.36331 534.90265
779.0 0.001284 451.94440 531.84863
787.0 0.001271 451.52542 528.95740
779.0 0.001284 451.10645 526.21796
723.0 0.001383 450.68744 523.62042
817.0 0.001224 450.26837 521.15558
778.0 0.001285 449.84927 518.81506
754.0 0.001326 449.43008 516.59143
765.0 0.001307 449.01096 514.47797
781.0 0.001280 448.59180 512.46844
784.0 0.001276 448.17255 510.55719
709.0 0.001410 447.75327 508.73923
769.0 0.001300 447.33405 507.00989
696.0 0.001437 446.91473 505.36505
778.0 0.001285 446.49542 503.80078
709.0 0.001410 446.07608 502.31403
746.0 0.001340 445.65677 500.90146
791.0 0.001264 445.23737 499.56042
751.0 0.001332 444.81799 498.28848
749.0 0.001335 444.39856 497.08356
735.0 0.001361 443.97913 495.94370
731.0 0.001368 443.55972 494.86740
715.0 0.001399 443.14029 493.85318
715.0 0.001399 442.72083 492.89996
719.0 0.001391 442.30133 492.00684
727.0 0.001376 441.88190 491.17316
744.0 0.001344 441.46240 490.39850
702.0 0.001425 441.04297 489.68265
693.0 0.001443 440.62341 489.02570
661.0 0.001513 440.20395 488.42792
704.0 0.001420 439.78439 487.88986
677.0 0.001477 439.36493 487.41208
715.0 0.001399 438.94540 486.99600
718.0 0.001393 438.52594 486.64294
729.0 0.001372 438.10645 486.35437
674.0 0.001484 437.68695 486.13248
687.0 0.001456 437.26752 485.97974
707.0 0.001414 436.84808 485.89890
743.0 0.001346 436.42862 485.89322
771.0 0.001297 436.00916 485.96640
742.0 0.001348 435.58966 486.12299
682.0 0.001466 435.17032 486.36792
798.0 0.001253 434.75085 486.70697
673.0 0.001486 434.33145 487.14655
672.0 0.001488 433.91208 487.69418
730.0 0.001370 433.49268 488.35831
681.0 0.001468 433.07339 489.14844
707.0 0.001414 432.65405 490.07550
640.0 0.001563 432.23468 491.15155
677.0 0.001477 431.81546 492.39047
704.0 0.001420 431.39624 493.80765
640.0 0.001563 430.97696 495.42026
610.0 0.001639 430.55774 497.24747
614.0 0.001629 430.13861 499.31055
639.0 0.001565 429.71948 501.63281
631.0 0.001585 429.30035 504.24020
642.0 0.001558 428.88129 507.16068
650.0 0.001538 428.46222 510.42468
662.0 0.001511 428.04321 514.06525
672.0 0.001488 427.62424 518.11743
631.0 0.001585 427.20526 522.61884
607.0 0.001647 426.78635 527.60864
601.0 0.001664 426.36752 533.12793
604.0 0.001656 425.94867 539.21857
650.0 0.001538 425.52988 545.92279
606.0 0.001650 425.11111 553.28223
637.0 0.001570 424.69244 561.33588
647.0 0.001546 424.27380 570.11847
627.0 0.001595 423.85513 579.65765
579.0 0.001727 423.43655 589.97021
654.0 0.001529 423.01804 601.05737
591.0 0.001692 422.59961 612.89886
596.0 0.001678 422.18118 625.44550
633.0 0.001580 421.76282 638.61121
593.0 0.001686 421.34454 652.26367
643.0 0.001555 420.92630 666.21649
615.0 0.001626 420.50806 680.22156
578.0 0.001730 420.08990 693.96704
598.0 0.001672 419.67181 707.08051
622.0 0.001608 419.25381 719.14063
620.0 0.001613 418.83585 729.69934
604.0 0.001656 418.41797 738.31238
592.0 0.001689 418.00009 744.57739
573.0 0.001745 417.58237 748.17358
598.0 0.001672 417.16461 748.89661
567.0 0.001764 416.74695 746.68213
542.0 0.001845 416.32938 741.61298
588.0 0.001701 415.91190 733.90961
595.0 0.001681 415.49442 723.90344
542.0 0.001845 415.07706 712.00293
522.0 0.001916 414.65979 698.65289
466.0 0.002146 414.24255 684.29828
552.0 0.001812 413.82541 669.35461
548.0 0.001825 413.40833 654.18726
598.0 0.001672 412.99133 639.10046
550.0 0.001818 412.57440 624.33490
561.0 0.001783 412.15759 610.07062
573.0 0.001745 411.74078 596.43402
519.0 0.001927 411.32413 583.50635
541.0 0.001848 410.90750 571.33331
523.0 0.001912 410.49103 559.93213
544.0 0.001838 410.07455 549.29926
513.0 0.001949 409.65823 539.41620
544.0 0.001838 409.24194 530.25433
530.0 0.001887 408.82584 521.77802
549.0 0.001821 408.40976 513.94727
524.0 0.001908 407.99368 506.72049
554.0 0.001805 407.57779 500.05496
548.0 0.001825 407.16202 493.90860
548.0 0.001825 406.74628 488.24020
533.0 0.001876 406.33072 483.01031
501.0 0.001996 405.91516 478.18149
537.0 0.001862 405.49979 473.71841
529.0 0.001890 405.08444 469.58807
550.0 0.001818 404.66922 465.75986
530.0 0.001887 404.25406 462.20551
481.0 0.002079 403.83902 458.89929
507.0 0.001972 403.42413 455.81738
515.0 0.001942 403.00928 452.93851
513.0 0.001949 402.59457 450.24319
485.0 0.002062 402.17996 447.71399
501.0 0.001996 401.76544 445.33517
513.0 0.001949 401.35104 443.09253
481.0 0.002079 400.93674 440.97348
515.0 0.001942 400.52255 438.96686
546.0 0.001832 400.10852 437.06247
501.0 0.001996 399.69452 435.25140
464.0 0.002155 399.28070 433.52567
494.0 0.002024 398.86694 431.87805
507.0 0.001972 398.45334 430.30222
464.0 0.002155 398.03986 428.79245
521.0 0.001919 397.62650 427.34341
511.0 0.001957 397.21320 425.95068
510.0 0.001961 396.80008 424.61008
507.0 0.001972 396.38705 423.31778
530.0 0.001887 395.97415 422.07022
484.0 0.002066 395.56128 420.86462
490.0 0.002041 395.14871 419.69797
494.0 0.002024 394.73621 418.56769
480.0 0.002083 394.32373 417.47141
490.0 0.002041 393.91147 416.40710
493.0 0.002028 393.49930 415.37259
535.0 0.001869 393.08731 414.36618
513.0 0.001949 392.67542 413.38611
469.0 0.002132 392.26364 412.43085
480.0 0.002083 391.85202 411.49890
481.0 0.002079 391.44052 410.58902
456.0 0.002193 391.02917 409.69992
484.0 0.002066 390.61792 408.83041
479.0 0.002088 390.20682 407.97949
528.0 0.001894 389.79590 407.14606
499.0 0.002004 389.38504 406.32922
457.0 0.002188 388.97433 405.52811
492.0 0.002033 388.56381 404.74194
483.0 0.002070 388.15344 403.96994
490.0 0.002041 387.74313 403.21133
466.0 0.002146 387.33304 402.46558
482.0 0.002075 386.92303 401.73190
464.0 0.002155 386.51328 401.00986
417.0 0.002398 386.10358 400.29877
412.0 0.002427 385.69403 399.59821
466.0 0.002146 385.28467 399.14795
443.0 0.002257 384.87546 398.47125
415.0 0.002410 384.46634 397.80359
449.0 0.002227 384.05740 397.14484
475.0 0.002105 383.64859 396.61545
481.0 0.002079 383.24002 395.97534
453.0 0.002208 382.83151 395.34305
467.0 0.002141 382.42316 394.71826
444.0 0.002252 382.01501 394.10074
474.0 0.002110 381.60696 393.49011
417.0 0.002398 381.19913 392.88602
397.0 0.002519 380.79147 392.28836
412.0 0.002427 380.38391 391.69690
423.0 0.002364 379.97650 391.11133
420.0 0.002381 379.56934 390.53165
414.0 0.002415 379.16226 389.95731
437.0 0.002288 378.75537 389.38837
449.0 0.002227 378.34866 388.82458
424.0 0.002358 377.94211 388.26581
406.0 0.002463 377.53574 387.71188
437.0 0.002288 377.12946 387.16260
443.0 0.002257 376.72342 386.61786
407.0 0.002457 376.31754 386.07755
441.0 0.002268 375.91183 385.54150
448.0 0.002232 375.50629 385.00967
464.0 0.002155 375.10086 384.48175
389.0 0.002571 374.69571 383.95792
412.0 0.002427 374.29065 383.43781
441.0 0.002268 373.88577 382.92157
395.0 0.002532 373.48111 382.40897
381.0 0.002625 373.07663 381.89996
437.0 0.002288 372.67227 379.42181
455.0 0.002198 372.26816 378.93613
443.0 0.002257 371.86414 377.23505
395.0 0.002532 371.46039 376.76544
409.0 0.002445 371.05682 376.29892
437.0 0.002288 370.65332 375.83527
375.0 0.002667 370.25012 375.37442
430.0 0.002326 369.84708 374.91647
446.0 0.002242 369.44418 374.46133
396.0 0.002525 369.04153 374.00900
422.0 0.002370 368.63904 373.55939
410.0 0.002439 368.23666 373.11261
404.0 0.002475 367.83456 372.66858
396.0 0.002525 367.43262 372.22729
432.0 0.002315 367.03088 371.78876
374.0 0.002674 366.62927 371.35306
395.0 0.002532 366.22794 370.92014
336.0 0.002976 365.82678 370.48993
408.0 0.002451 365.42578 370.06271
401.0 0.002494 365.02499 369.63824
391.0 0.002558 364.62445 369.21683
419.0 0.002387 364.22400 368.79834
396.0 0.002525 363.82385 368.38281
429.0 0.002331 363.42383 367.97046
408.0 0.002451 363.02405 367.56134
401.0 0.002494 362.62445 367.15543
379.0 0.002639 362.22501 366.75290
378.0 0.002646 361.82587 366.35391
387.0 0.002584 361.42685 365.95847
380.0 0.002632 361.02808 365.56686
389.0 0.002571 360.62946 365.17917
427.0 0.002342 360.23105 364.79547
397.0 0.002519 359.83289 364.41614
384.0 0.002604 359.43497 364.04138
356.0 0.002809 359.03717 363.67120
355.0 0.002817 358.63959 363.30618
351.0 0.002849 358.24222 362.94638
358.0 0.002793 357.84512 362.59222
391.0 0.002558 357.44818 362.24405
380.0 0.002632 357.05148 361.90222
384.0 0.002604 356.65497 361.56726
382.0 0.002618 356.25870 361.23969
333.0 0.003003 355.86258 360.92001
390.0 0.002564 355.46674 360.60880
367.0 0.002725 355.07111 360.30692
352.0 0.002841 354.67563 360.01492
398.0 0.002513 354.28043 359.73392
385.0 0.002597 353.88550 359.46469
387.0 0.002584 353.49063 359.20859
366.0 0.002732 353.09616 358.96680
368.0 0.002717 352.70181 358.74072
376.0 0.002660 352.30765 358.53220
423.0 0.002364 351.91373 358.34317
375.0 0.002667 351.52008 358.17609
372.0 0.002688 351.12665 358.03372
363.0 0.002755 350.73343 357.91968
366.0 0.002732 350.34042 357.83810
385.0 0.002597 349.94760 357.79446
345.0 0.002899 349.55511 357.79541
410.0 0.002439 349.16278 357.84955
369.0 0.002710 348.77066 357.96762
378.0 0.002646 348.37881 358.16348
428.0 0.002336 347.98721 358.45435
405.0 0.002469 347.59583 358.86163
402.0 0.002488 347.20465 359.41153
371.0 0.002695 346.81372 360.13577
411.0 0.002433 346.42303 361.07150
367.0 0.002725 346.03256 362.26147
385.0 0.002597 345.64233 363.75372
333.0 0.003003 345.25229 365.60001
404.0 0.002475 344.86255 367.85446
374.0 0.002674 344.47302 370.57056
375.0 0.002667 344.08374 373.79813
392.0 0.002551 343.69467 377.57828
386.0 0.002591 343.30588 381.93799
377.0 0.002653 342.91730 386.88202
368.0 0.002717 342.52896 392.38336
382.0 0.002618 342.14093 398.36984
382.0 0.002618 341.75299 404.70926
390.0 0.002564 341.36545 411.19415
369.0 0.002710 340.97809 417.53229
347.0 0.002882 340.59100 423.35193
393.0 0.002545 340.20410 428.23053
371.0 0.002695 339.81750 430.71619
350.0 0.002857 339.43112 432.55063
349.0 0.002865 339.04498 432.49747
353.0 0.002833 338.65912 430.03214
345.0 0.002899 338.27356 426.35428
382.0 0.002618 337.88806 421.23657
311.0 0.003215 337.50296 415.04913
397.0 0.002519 337.11807 408.18591
347.0 0.002882 336.73349 401.01843
384.0 0.002604 336.34906 393.86163
370.0 0.002703 335.96494 386.95679
332.0 0.003012 335.58105 380.47018
351.0 0.002849 335.19748 374.50238
331.0 0.003021 334.81412 369.10217
359.0 0.002786 334.43100 364.28009
342.0 0.002924 334.04819 360.01962
349.0 0.002865 333.66562 356.28644
343.0 0.002915 333.28320 353.03482
376.0 0.002660 332.90118 350.21326
355.0 0.002817 332.51938 347.76828
314.0 0.003185 332.13779 345.64740
374.0 0.002674 331.75656 343.80145
364.0 0.002747 331.37552 342.18542
354.0 0.002825 330.99475 340.76001
349.0 0.002865 330.61423 339.49124
337.0 0.002967 330.23401 338.35062
294.0 0.003401 329.85400 337.31451
327.0 0.003058 329.47427 336.36389
348.0 0.002874 329.09485 335.48340
355.0 0.002817 328.71573 334.66092
348.0 0.002874 328.33679 333.88666
347.0 0.002882 327.95813 333.15311
329.0 0.003040 327.57974 332.45428
301.0 0.003322 327.20166 331.78531
300.0 0.003333 326.82385 331.14224
354.0 0.002825 326.44626 330.52206
337.0 0.002967 326.06897 329.92203
371.0 0.002695 325.69196 329.33997
336.0 0.002976 325.31522 328.77399
342.0 0.002924 324.93875 328.22253
336.0 0.002976 324.56253 327.68420
355.0 0.002817 324.18661 327.15775
346.0 0.002890 323.81097 326.64200
307.0 0.003257 323.43558 326.13620
348.0 0.002874 323.06046 325.63940
323.0 0.003096 322.68564 325.15085
317.0 0.003155 322.31113 324.66989
342.0 0.002924 321.93683 324.19586
313.0 0.003195 321.56284 323.72827
349.0 0.002865 321.18912 323.26663
334.0 0.002994 320.81573 322.81055
304.0 0.003289 320.44260 322.35950
344.0 0.002907 320.06967 321.91321
336.0 0.002976 319.69711 321.47128
352.0 0.002841 319.32483 321.03351
327.0 0.003058 318.95282 320.59955
327.0 0.003058 318.58109 320.16916
311.0 0.003215 318.20963 319.74213
330.0 0.003030 317.83853 319.31827
355.0 0.002817 317.46762 318.89734
327.0 0.003058 317.09702 318.65808
356.0 0.002809 316.72672 318.24466
362.0 0.002762 316.35672 317.83377
393.0 0.002545 315.98700 317.42523
351.0 0.002849 315.61749 317.01889
460.0 0.002174 315.24835 316.70483
424.0 0.002358 314.87955 316.30374
458.0 0.002183 314.51099 315.90457
422.0 0.002370 314.14270 315.50729
458.0 0.002183 313.77472 315.11172
464.0 0.002155 313.40701 314.71793
422.0 0.002370 313.03967 314.32578
465.0 0.002151 312.67255 313.93506
384.0 0.002604 312.30573 313.54587
352.0 0.002841 311.93924 313.15814
424.0 0.002358 311.57306 312.77170
376.0 0.002660 311.20712 312.38672
365.0 0.002740 310.84149 312.00296
333.0 0.003003 310.47610 311.62045
376.0 0.002660 310.11115 311.23907
393.0 0.002545 309.74643 310.85886
366.0 0.002732 309.38196 310.47980
334.0 0.002994 309.01782 310.10181
336.0 0.002976 308.65402 309.72491
347.0 0.002882 308.29044 309.34897
354.0 0.002825 307.92722 308.97406
343.0 0.002915 307.56430 308.60013
325.0 0.003077 307.20169 308.22720
308.0 0.003247 306.83939 307.85513
340.0 0.002941 306.47733 307.48401
328.0 0.003049 306.11566 307.11380
319.0 0.003135 305.75424 306.74438
341.0 0.002933 305.39313 306.37595
319.0 0.003135 305.03235 306.00830
315.0 0.003175 304.67188 305.64145
330.0 0.003030 304.31165 305.27542
332.0 0.003012 303.95181 304.91028
347.0 0.002882 303.59225 304.54584
315.0 0.003175 303.23297 304.18222
284.0 0.00352 302.87399 303.81931
340.0 0.002941 302.51538 303.45734
308.0 0.003247 302.15707 303.09595
315.0 0.003175 301.79901 302.73538
309.0 0.003236 301.44135 302.37555
285.0 0.00351 301.08392 302.01651
312.0 0.003205 300.72684 301.65811
332.0 0.003012 300.37012 301.30057
329.0 0.003040 300.01361 300.94366
301.0 0.003322 299.65750 300.58749
336.0 0.002976 299.30170 300.23209
331.0 0.003021 298.94617 299.87741
309.0 0.003236 298.59097 299.52344
324.0 0.003086 298.23611 299.17020
308.0 0.003247 297.88153 298.81766
307.0 0.003257 297.52728 298.46588
350.0 0.002857 297.17334 297.87399
348.0 0.002874 296.81976 297.52780
346.0 0.002890 296.46646 297.18219
339.0 0.002950 296.11349 296.71600
334.0 0.002994 295.76080 296.37378
347.0 0.002882 295.40848 296.03214
350.0 0.002857 295.05649 295.69116
330.0 0.003030 294.70480 295.35077
354.0 0.002825 294.35339 295.01099
349.0 0.002865 294.00238 294.67191
348.0 0.002874 293.65170 294.33347
397.0 0.002519 293.30124 293.99561
344.0 0.002907 292.95117 293.65848
331.0 0.003021 292.60138 293.32202
329.0 0.003040 292.25198 292.98633
329.0 0.003040 291.90286 292.65131
319.0 0.003135 291.55411 292.31702
307.0 0.003257 291.20566 291.98355
324.0 0.003086 290.85757 291.65079
317.0 0.003155 290.50974 291.31879
340.0 0.002941 290.16226 290.98767
353.0 0.002833 289.81512 290.65741
313.0 0.003195 289.46832 290.32791
321.0 0.003115 289.12183 289.99933
308.0 0.003247 288.77567 289.67160
286.0 0.003497 288.42984 289.34482
300.0 0.003333 288.08438 289.01901
300.0 0.003333 287.73920 288.69421
296.0 0.003378 287.39435 288.37036
306.0 0.003268 287.04980 288.04749
294.0 0.003401 286.70563 287.72574
274.0 0.00365 286.36188 287.40509
291.0 0.003436 286.01834 287.08557
293.0 0.003413 285.67514 286.76715
315.0 0.003175 285.33234 286.45007
285.0 0.00351 284.98984 286.13409
324.0 0.003086 284.64767 285.81952
278.0 0.00360 284.30582 285.50623
291.0 0.003436 283.96432 285.19443
302.0 0.003311 283.62320 284.88403
304.0 0.003289 283.28235 284.57510
297.0 0.003367 282.94186 284.26773
278.0 0.00360 282.60172 283.96194
293.0 0.003413 282.26190 283.65796
287.0 0.003484 281.92245 283.35571
303.0 0.003300 281.58331 283.05524
285.0 0.00351 281.24448 282.75665
312.0 0.003205 280.90610 282.46017
282.0 0.00355 280.56796 282.16571
305.0 0.003279 280.23019 281.87347
296.0 0.003378 279.89270 281.58356
313.0 0.003195 279.55566 281.29602
264.0 0.00379 279.21893 281.01105
277.0 0.00361 278.88248 280.72882
313.0 0.003195 278.54645 280.44928
329.0 0.003040 278.21066 280.17270
322.0 0.003106 277.87534 279.89932
313.0 0.003195 277.54028 279.62918
332.0 0.003012 277.20557 279.36255
329.0 0.003040 276.87128 279.09958
319.0 0.003135 276.53726 278.84055
328.0 0.003049 276.20358 278.58566
323.0 0.003096 275.87027 278.33517
320.0 0.003125 275.53732 278.08932
308.0 0.003247 275.20471 277.84851
305.0 0.003279 274.87247 277.61298
314.0 0.003185 274.54050 277.38309
298.0 0.003356 274.20895 277.15930
305.0 0.003279 273.87775 276.94211
314.0 0.003185 273.54688 276.73187
293.0 0.003413 273.21631 276.52914
305.0 0.003279 272.88614 276.33459
309.0 0.003236 272.55634 276.14880
297.0 0.003367 272.22687 275.97260
314.0 0.003185 271.89767 275.80667
304.0 0.003289 271.56888 275.65207
312.0 0.003205 271.24054 275.50995
308.0 0.003247 270.91245 275.38144
311.0 0.003215 270.58469 275.26797
304.0 0.003289 270.25729 275.17120
317.0 0.003155 269.93030 275.09302
316.0 0.003165 269.60361 275.03558
280.0 0.00357 269.27728 275.00128
311.0 0.003215 268.95139 274.99316
274.0 0.00365 268.62579 275.01437
306.0 0.003268 268.30054 275.06879
281.0 0.00356 267.97565 275.16068
254.0 0.00394 267.65109 276.83887
294.0 0.003401 267.32690 277.03415
262.0 0.00382 267.00305 277.28372
230.0 0.00435 266.67957 277.59448
266.0 0.00376 266.35654 278.73853
270.0 0.00370 266.03375 279.20157
243.0 0.00412 265.71133 279.75073
245.0 0.00408 265.38931 280.39554
269.0 0.00372 265.06763 281.14603
235.0 0.00426 264.74631 282.01273
247.0 0.00405 264.42529 283.00620
237.0 0.00422 264.10471 284.13715
234.0 0.00427 263.78452 285.41586
228.0 0.00439 263.46463 286.85196
233.0 0.00429 263.14505 288.45377
252.0 0.00397 262.82593 290.22806
270.0 0.00370 262.50708 292.17856
263.0 0.00380 262.18860 294.30527
260.0 0.00385 261.87054 296.60291
257.0 0.00389 261.55280 299.05899
243.0 0.00412 261.23544 301.65207
265.0 0.00377 260.91849 304.34882
283.0 0.00353 260.60184 307.10223
241.0 0.00415 260.28558 309.84985
231.0 0.00433 259.96964 312.51349
235.0 0.00426 259.65408 315.00049
236.0 0.00424 259.33890 317.20874
255.0 0.00392 259.02408 319.03369
230.0 0.00435 258.70959 320.37781
238.0 0.00420 258.39560 321.16125
231.0 0.00433 258.08185 321.33047
269.0 0.00372 257.76849 320.86487
236.0 0.00424 257.45551 319.77795
255.0 0.00392 257.14285 318.11481
235.0 0.00426 256.83060 315.94635
249.0 0.00402 256.51871 313.36105
243.0 0.00412 256.20721 310.45663
218.0 0.00459 255.89606 307.33173
251.0 0.00398 255.58522 304.07870
238.0 0.00420 255.27484 300.77954
239.0 0.00418 254.96477 297.50256
275.0 0.00364 254.65509 294.30148
234.0 0.00427 254.34573 291.21658
229.0 0.00437 254.03677 288.27585
241.0 0.00415 253.72818 285.49701
246.0 0.00407 253.41997 282.88959
282.0 0.00355 253.11218 280.45700
230.0 0.00435 252.80475 278.19781
265.0 0.00377 252.49762 276.10721
254.0 0.00394 252.19086 274.17807
262.0 0.00382 251.88451 272.40146
255.0 0.00392 251.57849 270.76779
268.0 0.00373 251.27289 269.26648
261.0 0.00383 250.96765 267.88715
239.0 0.00418 250.66283 266.61935
219.0 0.00457 250.35831 265.45276
262.0 0.00382 250.05420 264.37769
225.0 0.00444 249.75043 263.38492
241.0 0.00415 249.44704 262.46591
278.0 0.00360 249.14401 261.61261
225.0 0.00444 248.84137 260.81802
272.0 0.00368 248.53912 260.07547
233.0 0.00429 248.23726 259.37912
231.0 0.00433 247.93575 258.72372
243.0 0.00412 247.63460 258.10474
239.0 0.00418 247.33382 257.51810
230.0 0.00435 247.03342 256.96024
212.0 0.00472 246.73343 256.42813
221.0 0.00452 246.43375 255.91891
216.0 0.00463 246.13451 255.43053
235.0 0.00426 245.83559 254.96077
223.0 0.00448 245.53717 254.50803
230.0 0.00435 245.23897 254.07062
259.0 0.00386 244.94127 253.64732
244.0 0.00410 244.64384 253.23698
266.0 0.00376 244.34686 252.83864
262.0 0.00382 244.05020 252.45135
211.0 0.00474 243.75395 252.07440
236.0 0.00424 243.45807 251.70703
222.0 0.00450 243.16266 251.34879
236.0 0.00424 242.86751 250.99895
251.0 0.00398 242.57278 250.65710
235.0 0.00426 242.27841 250.64050
236.0 0.00424 241.98442 250.31610
254.0 0.00394 241.69084 249.99852
250.0 0.00400 241.39758 249.68748
261.0 0.00383 241.10475 249.38268
247.0 0.00405 240.81236 249.24228
274.0 0.00365 240.52026 248.95059
241.0 0.00415 240.22858 248.66451
249.0 0.00402 239.93724 248.38367
279.0 0.00358 239.64630 248.10812
279.0 0.00358 239.35568 247.83769
304.0 0.003289 239.06554 247.57207
296.0 0.003378 238.77577 247.31133
337.0 0.002967 238.48633 247.05519
345.0 0.002899 238.19733 246.80374
344.0 0.002907 237.90866 246.55669
356.0 0.002809 237.62039 246.31409
363.0 0.002755 237.33252 246.07582
355.0 0.002817 237.04497 245.84187
347.0 0.002882 236.75789 245.61217
330.0 0.003030 236.47113 245.38669
294.0 0.003401 236.18478 245.16537
308.0 0.003247 235.89885 244.94830
275.0 0.00364 235.61320 244.73537
284.0 0.00352 235.32803 244.52652
248.0 0.00403 235.04320 244.32182
227.0 0.00441 234.75876 244.12126
263.0 0.00380 234.47470 243.92494
242.0 0.00413 234.19104 243.73277
212.0 0.00472 233.90771 243.54482
240.0 0.00417 233.62489 243.36110
219.0 0.00457 233.34238 243.18166
234.0 0.00427 233.06026 243.00659
248.0 0.00403 232.77847 242.83586
233.0 0.00429 232.49710 242.66956
235.0 0.00426 232.21616 242.50775
220.0 0.00455 231.93552 242.35049
253.0 0.00395 231.65533 242.19794
242.0 0.00413 231.37552 242.13794
260.0 0.00385 231.09613 241.99597
240.0 0.00417 230.81706 241.85889
224.0 0.00446 230.53839 241.72676
226.0 0.00442 230.26012 241.59984
254.0 0.00394 229.98222 241.52205
240.0 0.00417 229.70470 241.40613
250.0 0.00400 229.42761 241.29587
212.0 0.00472 229.15088 247.59386
257.0 0.00389 228.87459 247.60756
225.0 0.00444 228.59862 247.63014
237.0 0.00422 228.32307 247.66183
247.0 0.00405 228.04790 247.70305
235.0 0.00426 227.77309 250.95969
233.0 0.00429 227.49866 251.07727
258.0 0.00388 227.22467 251.20668
238.0 0.00420 226.95102 251.34842
251.0 0.00398 226.67784 251.50294
214.0 0.00467 226.40498 252.02654
235.0 0.00426 226.13252 252.21252
237.0 0.00422 225.86046 252.41255
216.0 0.00463 225.58878 252.62737
231.0 0.00433 225.31752 252.85741
225.0 0.00444 225.04659 253.28110
227.0 0.00441 224.77605 253.54565
246.0 0.00407 224.50592 253.82713
250.0 0.00400 224.23621 254.12637
251.0 0.00398 223.96689 254.44389
230.0 0.00435 223.69792 254.78055
248.0 0.00403 223.42938 255.13704
230.0 0.00435 223.16121 255.51411
255.0 0.00392 222.89342 255.91266
216.0 0.00463 222.62602 256.33362
241.0 0.00415 222.35898 256.77786
241.0 0.00415 222.09244 257.24634
242.0 0.00413 221.82619 257.74023
211.0 0.00474 221.56035 258.26047
232.0 0.00431 221.29492 258.80823
212.0 0.00472 221.02988 259.38489
236.0 0.00424 220.76521 259.99161
218.0 0.00459 220.50096 260.62985
254.0 0.00394 220.23706 261.30103
251.0 0.00398 219.97362 262.00677
236.0 0.00424 219.71054 262.74847
245.0 0.00408 219.44780 263.52814
267.0 0.00375 219.18549 264.34747
244.0 0.00410 218.92355 265.20850
241.0 0.00415 218.66206 266.11322
258.0 0.00388 218.40091 267.06396
238.0 0.00420 218.14015 268.06305
254.0 0.00394 217.87982 269.11301
254.0 0.00394 217.61989 270.21658
261.0 0.00383 217.36034 271.37653
241.0 0.00415 217.10114 272.59607
236.0 0.00424 216.84235 273.87845
222.0 0.00450 216.58397 275.22726
247.0 0.00405 216.32599 276.64627
245.0 0.00408 216.06834 278.13962
226.0 0.00442 215.81116 279.71167
258.0 0.00388 215.55437 281.36740
267.0 0.00375 215.29797 283.11176
222.0 0.00450 215.04192 284.95035
225.0 0.00444 214.78625 286.88931
252.0 0.00397 214.53101 288.93515
249.0 0.00402 214.27617 291.09506
215.0 0.00465 214.02168 293.37686
270.0 0.00370 213.76762 295.78900
234.0 0.00427 213.51398 298.34076
259.0 0.00386 213.26071 301.04218
263.0 0.00380 213.00781 303.90445
242.0 0.00413 212.75531 306.93948
279.0 0.00358 212.50320 310.16061
284.0 0.00352 212.25150 313.58255
291.0 0.003436 212.00020 318.01059
319.0 0.003135 211.74927 321.89505
328.0 0.003049 211.49873 326.03287
316.0 0.003165 211.24863 330.44516
369.0 0.002710 210.99890 335.15448
377.0 0.002653 210.74959 340.58014
360.0 0.002778 210.50061 345.96762
368.0 0.002717 210.25206 351.55658
325.0 0.003077 210.00388 357.73892
352.0 0.002841 209.75613 364.37000
349.0 0.002865 209.50874 371.48895
337.0 0.002967 209.26180 379.04993
352.0 0.002841 209.01520 387.27954
312.0 0.003205 208.76901 396.13953
337.0 0.002967 208.52319 405.68771
389.0 0.002571 208.27782 415.98831
341.0 0.002933 208.03278 427.11334
364.0 0.002747 207.78818 439.14471
336.0 0.002976 207.54395 452.17621
379.0 0.002639 207.30019 466.31671
388.0 0.002577 207.05675 481.69354
407.0 0.002457 206.81371 498.45844
427.0 0.002342 206.57104 516.79236
436.0 0.002294 206.32883 536.91272
457.0 0.002188 206.08696 559.08130
501.0 0.001996 205.84550 583.61310
519.0 0.001927 205.60440 610.88361
522.0 0.001916 205.36377 641.33777
582.0 0.001718 205.12350 675.49573
565.0 0.001770 204.88361 713.95496
669.0 0.001495 204.64412 757.39014
698.0 0.001433 204.40504 806.54370
736.0 0.001359 204.16634 862.21204
828.0 0.001208 203.92807 925.22064
845.0 0.001183 203.69014 996.39050
926.0 0.001080 203.45262 1076.49561
1064.0 0.000940 203.21555 1166.20935
1140.0 0.000877 202.97885 1266.04321
1242.0 0.000805 202.74249 1376.27539
1436.0 0.000696 202.50656 1496.86743
1549.0 0.000646 202.27101 1627.36987
1668.0 0.000600 202.03587 1766.80322
1872.0 0.000534 201.80110 1913.51685
2017.0 0.000496 201.56676 2065.02100
2189.0 0.000457 201.33284 2217.81470
2462.0 0.000406 201.09930 2367.25586
2493.0 0.000401 200.86609 2507.56958
2698.0 0.000371 200.63335 2632.11279
2838.0 0.000352 200.40094 2733.97388
2853.0 0.0003505 200.16898 2806.87183
2870.0 0.0003484 199.93735 2846.12622
2928.0 0.0003415 199.70616 2849.36987
2780.0 0.000360 199.47534 2816.74292
2760.0 0.000362 199.24500 2750.59692
2637.0 0.000379 199.01497 2654.94531
2420.0 0.000413 198.78535 2534.92505
2340.0 0.000427 198.55611 2396.35083
2213.0 0.000452 198.32732 2245.29736
1954.0 0.000512 198.09886 2087.66528
1841.0 0.000543 197.87082 1928.76746
1627.0 0.000615 197.64317 1773.03284
1543.0 0.000648 197.41597 1623.87537
1396.0 0.000716 197.18909 1483.71570
1240.0 0.000806 196.96265 1354.09875
1169.0 0.000855 196.73654 1235.84753
1102.0 0.000907 196.51088 1129.21997
955.0 0.001047 196.28560 1034.04822
923.0 0.001083 196.06071 949.85291
742.0 0.001348 195.83620 875.94232
730.0 0.001370 195.61217 811.48962
755.0 0.001325 195.38844 755.59753
671.0 0.001490 195.16516 707.35071
578.0 0.001730 194.94220 665.85486
577.0 0.001733 194.71970 630.26691
566.0 0.001767 194.49756 599.81451
533.0 0.001876 194.27583 573.80786
538.0 0.001859 194.05447 551.64496
471.0 0.002123 193.83356 532.80988
451.0 0.002217 193.61301 516.86884
471.0 0.002123 193.39287 503.46155
425.0 0.002353 193.17307 492.29221
437.0 0.002288 192.95370 483.11960
408.0 0.002451 192.73473 475.74600
457.0 0.002188 192.51614 470.00748
399.0 0.002506 192.29794 465.76407
414.0 0.002415 192.08015 462.89011
401.0 0.002494 191.86278 461.26526
400.0 0.002500 191.64578 460.76523
385.0 0.002597 191.42914 461.25281
402.0 0.002488 191.21292 462.56967
396.0 0.002525 190.99707 464.52875
397.0 0.002519 190.78165 466.91034
408.0 0.002451 190.56659 469.46304
353.0 0.002833 190.35193 471.91113
399.0 0.002506 190.13773 473.97089
389.0 0.002571 189.92386 475.37247
387.0 0.002584 189.71034 475.88583
388.0 0.002577 189.49730 475.34384
335.0 0.002985 189.28458 473.65771
423.0 0.002364 189.07230 470.82190
376.0 0.002660 188.86038 466.90988
362.0 0.002762 188.64886 462.06244
396.0 0.002525 188.43774 456.47284
340.0 0.002941 188.22707 450.37051
348.0 0.002874 188.01668 444.00421
364.0 0.002747 187.80678 437.62744
339.0 0.002950 187.59720 431.48505
331.0 0.003021 187.38803 425.80405
314.0 0.003185 187.17924 420.78854
332.0 0.003012 186.97089 416.61780
332.0 0.003012 186.76289 413.44794
314.0 0.003185 186.55533 411.41458
329.0 0.003040 186.34813 410.63577
329.0 0.003040 186.14134 411.21524
316.0 0.003165 185.93488 413.24304
361.0 0.002770 185.72884 416.79636
370.0 0.002703 185.52321 421.93784
331.0 0.003021 185.31795 428.71252
350.0 0.002857 185.11310 437.14417
377.0 0.002653 184.90869 447.22983
384.0 0.002604 184.70459 458.93338
443.0 0.002257 184.50090 472.17859
458.0 0.002183 184.29759 486.83984
391.0 0.002558 184.09470 502.73123
386.0 0.002591 183.89215 519.59351
445.0 0.002247 183.69003 537.07800
469.0 0.002132 183.48830 554.73096
463.0 0.002160 183.28696 571.98138
493.0 0.002028 183.08603 588.14227
460.0 0.002174 182.88547 602.43518
496.0 0.002016 182.68526 614.04736
521.0 0.001919 182.48549 622.21930
502.0 0.001992 182.28607 626.34583
486.0 0.002058 182.08707 626.06024
502.0 0.001992 181.88844 621.27490
480.0 0.002083 181.69022 612.16809
458.0 0.002183 181.49239 599.13422
455.0 0.002198 181.29495 582.72375
441.0 0.002268 181.09785 563.59009
389.0 0.002571 180.90121 542.44208
383.0 0.002611 180.70490 519.99866
376.0 0.002660 180.50900 496.94281
310.0 0.003226 180.31348 473.88083
291.0 0.003436 180.11836 451.31522
315.0 0.003175 179.92365 429.63467
314.0 0.003185 179.72929 409.11758
282.0 0.00355 179.53531 389.94550
290.0 0.003448 179.34175 372.21915
252.0 0.00397 179.14853 355.97556
245.0 0.00408 178.95575 341.20242
246.0 0.00407 178.76332 327.85101
236.0 0.00424 178.57132 315.84631
242.0 0.00413 178.37965 305.09598
224.0 0.00446 178.18845 295.49689
235.0 0.00426 177.99756 286.94104
251.0 0.00398 177.80708 279.32004
217.0 0.00461 177.61696 272.52881
242.0 0.00413 177.42726 266.46799
239.0 0.00418 177.23793 261.04565
212.0 0.00472 177.04900 256.17862
235.0 0.00426 176.86041 251.79263
189.0 0.00529 176.67230 247.82259
202.0 0.00495 176.48453 244.21190
184.0 0.00543 176.29713 240.91209
214.0 0.00467 176.11011 237.88177
207.0 0.00483 175.92346 235.08604
212.0 0.00472 175.73721 232.61861
189.0 0.00529 175.55138 230.20982
212.0 0.00472 175.36588 227.96051
184.0 0.00543 175.18083 225.85310
190.0 0.00526 174.99611 223.87268
210.0 0.00476 174.81178 222.00650
189.0 0.00529 174.62785 220.30536
238.0 0.00420 174.44431 218.63712
217.0 0.00461 174.26109 217.05452
243.0 0.00412 174.07832 215.55046
254.0 0.00394 173.89590 214.11844
267.0 0.00375 173.71390 212.75279
254.0 0.00394 173.53227 211.44846
235.0 0.00426 173.35103 210.20088
282.0 0.00355 173.17012 209.00600
248.0 0.00403 172.98965 207.86002
249.0 0.00402 172.80952 206.75960
246.0 0.00407 172.62981 205.70172
214.0 0.00467 172.45044 204.68350
239.0 0.00418 172.27147 203.70248
237.0 0.00422 172.09291 202.75639
209.0 0.00478 171.91473 201.84296
216.0 0.00463 171.73688 200.96028
252.0 0.00397 171.55945 200.10654
202.0 0.00495 171.38237 199.28009
206.0 0.00485 171.20570 198.47942
212.0 0.00472 171.02942 197.70308
199.0 0.00503 170.85345 196.94975
229.0 0.00437 170.67795 196.21832
223.0 0.00448 170.50279 195.50751
238.0 0.00420 170.32800 194.81639
222.0 0.00450 170.15361 194.14384
222.0 0.00450 169.97955 193.48911
221.0 0.00452 169.80591 192.85133
222.0 0.00450 169.63264 192.22961
228.0 0.00439 169.45976 191.62323
213.0 0.00469 169.28725 191.03151
238.0 0.00420 169.11516 190.45387
200.0 0.00500 168.94336 189.88956
192.0 0.00521 168.77202 189.33806
181.0 0.00552 168.60100 188.79881
167.0 0.00599 168.43039 188.27132
184.0 0.00543 168.26013 187.75510
161.0 0.00621 168.09027 187.24976
181.0 0.00552 167.92076 186.75475
185.0 0.00541 167.75169 186.26974
183.0 0.00546 167.58295 185.80588
210.0 0.00476 167.41460 185.33984
165.0 0.00606 167.24657 184.88266
165.0 0.00606 167.07899 184.43408
170.0 0.00588 166.91174 183.99371
181.0 0.00552 166.74487 189.12791
180.0 0.00556 166.57837 188.75786
195.0 0.00513 166.41232 188.39333
158.0 0.00633 166.24658 188.03667
179.0 0.00559 166.08122 187.68776
164.0 0.00610 165.91621 187.34627
171.0 0.00585 165.75160 189.78880
174.0 0.00575 165.58736 189.48901
165.0 0.00606 165.42352 189.19513
148.0 0.00676 165.26001 188.90839
189.0 0.00529 165.09688 188.62859
185.0 0.00541 164.93416 188.35567
170.0 0.00588 164.77177 188.08932
162.0 0.00617 164.60979 187.82957
174.0 0.00575 164.44814 187.57625
160.0 0.00625 164.28691 187.32925
163.0 0.00613 164.12601 187.08852
161.0 0.00621 163.96547 186.85378
166.0 0.00602 163.80534 186.67781
167.0 0.00599 163.64560 186.45636
162.0 0.00617 163.48621 186.24084
157.0 0.00637 163.32715 186.03116
196.0 0.00510 163.16852 185.82727
178.0 0.00562 163.01021 185.65500
171.0 0.00585 162.85229 185.46307
162.0 0.00617 162.69473 185.27686
163.0 0.00613 162.53757 185.09616
177.0 0.00565 162.38077 184.92107
163.0 0.00613 162.22433 184.75153
161.0 0.00621 162.06825 184.58743
176.0 0.00568 161.91255 184.42886
157.0 0.00637 161.75723 184.27579
167.0 0.00599 161.60226 184.12811
150.0 0.00667 161.44766 183.98601
168.0 0.00595 161.29340 183.84923
194.0 0.00515 161.13957 183.71797
164.0 0.00610 160.98608 183.59221
164.0 0.00610 160.83295 183.47195
154.0 0.00649 160.68019 183.35716
178.0 0.00562 160.52780 183.24806
194.0 0.00515 160.37573 183.14442
183.0 0.00546 160.22406 183.04645
186.0 0.00538 160.07277 182.95413
169.0 0.00592 159.92186 182.86752
188.0 0.00532 159.77129 182.78671
155.0 0.00645 159.62109 182.71178
171.0 0.00585 159.47124 182.64268
198.0 0.00505 159.32175 182.57967
186.0 0.00538 159.17264 182.52272
166.0 0.00602 159.02388 182.47195
187.0 0.00535 158.87552 182.42749
158.0 0.00633 158.72751 182.38936
184.0 0.00543 158.57986 182.35783
205.0 0.00488 158.43254 182.33292
161.0 0.00621 158.28563 182.31487
174.0 0.00575 158.13904 182.30374
192.0 0.00521 157.99283 182.29977
155.0 0.00645 157.84700 182.30305
185.0 0.00541 157.70149 182.31390
194.0 0.00515 157.55638 182.33244
158.0 0.00633 157.41162 182.35898
171.0 0.00585 157.26723 182.39372
179.0 0.00559 157.12318 182.43695
182.0 0.00549 156.97952 182.48894
189.0 0.00529 156.83617 182.55013
207.0 0.00483 156.69322 182.62071
172.0 0.00581 156.55060 181.16441
211.0 0.00474 156.40839 181.26787
176.0 0.00568 156.26645 195.53281
169.0 0.00592 156.12500 195.84740
192.0 0.00521 155.98380 196.17766
210.0 0.00476 155.84297 195.76070
182.0 0.00549 155.70253 196.13138
196.0 0.00510 155.56244 203.50275
205.0 0.00488 155.42268 204.00528
210.0 0.00476 155.28333 204.53178
210.0 0.00476 155.14427 205.08463
185.0 0.00541 155.00560 205.66685
216.0 0.00463 154.86731 206.28214
186.0 0.00538 154.72934 206.93506
185.0 0.00541 154.59172 207.63148
200.0 0.00500 154.45451 208.37817
198.0 0.00505 154.31758 209.18340
190.0 0.00526 154.18106 210.05679
229.0 0.00437 154.04486 211.00911
191.0 0.00524 153.90903 212.05231
224.0 0.00446 153.77357 213.19922
209.0 0.00478 153.63847 214.46260
213.0 0.00469 153.50369 215.85503
196.0 0.00510 153.36928 217.38742
243.0 0.00412 153.23520 219.06871
234.0 0.00427 153.10149 220.90448
244.0 0.00410 152.96811 222.89560
244.0 0.00410 152.83511 225.03746
224.0 0.00446 152.70247 227.31830
236.0 0.00424 152.57014 229.71809
268.0 0.00373 152.43820 232.20718
262.0 0.00382 152.30659 234.74600
257.0 0.00389 152.17534 237.28558
269.0 0.00372 152.04443 239.77245
261.0 0.00383 151.91386 242.15475
272.0 0.00368 151.78368 244.39194
291.0 0.003436 151.65381 246.46205
273.0 0.00366 151.52432 248.36383
300.0 0.003333 151.39514 250.11420
281.0 0.00356 151.26636 251.74069
310.0 0.003226 151.13785 253.27734
307.0 0.003257 151.00975 254.76140
311.0 0.003215 150.88196 256.23288
296.0 0.003378 150.75455 257.73196
288.0 0.003472 150.62746 259.29547
295.0 0.003390 150.50076 260.95200
313.0 0.003195 150.37436 262.71786
301.0 0.003322 150.24832 264.59567
287.0 0.003484 150.12260 266.57339
332.0 0.003012 149.99727 268.62604
303.0 0.003300 149.87224 270.71799
319.0 0.003135 149.74760 272.80609
350.0 0.002857 149.62325 274.84418
289.0 0.003460 149.49931 276.78723
333.0 0.003003 149.37567 278.59595
315.0 0.003175 149.25238 280.24039
307.0 0.003257 149.12943 281.70224
343.0 0.002915 149.00684 282.97574
321.0 0.003115 148.88457 284.06754
348.0 0.002874 148.76263 284.99478
342.0 0.002924 148.64105 285.78360
326.0 0.003067 148.51985 286.46664
324.0 0.003086 148.39893 287.08102
313.0 0.003195 148.27838 287.66559
318.0 0.003145 148.15814 288.25912
321.0 0.003115 148.03830 288.89874
335.0 0.002985 147.91873 289.61810
327.0 0.003058 147.79955 290.44681
323.0 0.003096 147.68068 291.40997
309.0 0.003236 147.56215 292.52859
297.0 0.003367 147.44397 293.81937
328.0 0.003049 147.32614 295.29587
327.0 0.003058 147.20862 296.96857
328.0 0.003049 147.09145 298.84586
331.0 0.003021 146.97459 300.93439
315.0 0.003175 146.85811 303.23965
327.0 0.003058 146.74193 305.76617
328.0 0.003049 146.62611 308.51822
327.0 0.003058 146.51062 311.49957
342.0 0.002924 146.39549 314.71417
350.0 0.002857 146.28065 318.16632
342.0 0.002924 146.16618 321.86032
372.0 0.002688 146.05197 325.48422
340.0 0.002941 145.93817 329.68045
335.0 0.002985 145.82468 334.13553
395.0 0.002532 145.71153 338.85657
374.0 0.002674 145.59872 343.85162
356.0 0.002809 145.48622 347.14169
371.0 0.002695 145.37405 352.72598
409.0 0.002445 145.26224 358.61356
396.0 0.002525 145.15073 364.81604
414.0 0.002415 145.03957 371.34622
365.0 0.002740 144.92871 378.21765
407.0 0.002457 144.81822 385.44507
388.0 0.002577 144.70805 393.04428
450.0 0.002222 144.59822 401.03259
433.0 0.002309 144.48871 409.42905
474.0 0.002110 144.37953 418.25540
429.0 0.002331 144.27065 427.53650
449.0 0.002227 144.16212 437.30151
461.0 0.002169 144.05391 447.58466
476.0 0.002101 143.94603 458.42593
455.0 0.002198 143.83847 469.87189
503.0 0.001988 143.73128 481.97580
475.0 0.002105 143.62439 494.79843
520.0 0.001923 143.51782 508.40775
532.0 0.001880 143.41154 522.88049
570.0 0.001754 143.30563 538.30145
552.0 0.001812 143.20003 554.76544
573.0 0.001745 143.09477 572.37756
635.0 0.001575 142.98982 591.25470
594.0 0.001684 142.88522 611.52692
638.0 0.001567 142.78090 633.33936
670.0 0.001493 142.67694 656.85406
709.0 0.001410 142.57329 682.25348
711.0 0.001406 142.46994 709.74274
780.0 0.001282 142.36693 739.55359
747.0 0.001339 142.26425 771.94849
851.0 0.001175 142.16185 807.22461
874.0 0.001144 142.05981 845.93250
881.0 0.001135 141.95810 888.03064
990.0 0.001010 141.85672 934.16125
970.0 0.001031 141.75560 984.81116
1042.0 0.000960 141.65485 1040.52673
1152.0 0.000868 141.55438 1101.91809
1259.0 0.000794 141.45427 1169.76721
1342.0 0.000745 141.35443 1244.60535
1366.0 0.000732 141.25496 1327.34448
1401.0 0.000714 141.15579 1418.85083
1573.0 0.000636 141.05693 1520.04199
1671.0 0.000598 140.95836 1631.87244
1826.0 0.000548 140.86015 1755.31567
1919.0 0.000521 140.76222 1891.33899
2060.0 0.000485 140.66466 2040.87244
2268.0 0.000441 140.56734 2204.77148
2535.0 0.000394 140.47038 2383.77197
2692.0 0.000371 140.37373 2578.43677
2826.0 0.000354 140.27740 2789.09595
3157.0 0.0003168 140.18138 3015.77612
3436.0 0.0002910 140.08568 3258.12207
3671.0 0.0002724 139.99026 3515.31030
3979.0 0.0002513 139.89520 3786.65503
4193.0 0.0002385 139.80040 4068.67920
4555.0 0.0002195 139.70595 4359.22217
4884.0 0.0002048 139.61177 4654.51563
5082.0 0.0001968 139.51797 4949.78613
5526.0 0.0001810 139.42444 5239.19678
5762.0 0.0001736 139.33122 5515.88965
6170.0 0.0001621 139.23828 5772.49463
6342.0 0.0001577 139.14571 6000.07910
6691.0 0.0001495 139.05339 6190.81201
6495.0 0.0001540 138.96141 6337.26465
6833.0 0.0001463 138.86972 6433.50049
6849.0 0.0001460 138.77838 6475.68115
6790.0 0.0001473 138.68732 6462.39014
6664.0 0.0001501 138.59659 6394.62256
6730.0 0.0001486 138.50612 6275.48633
6440.0 0.0001553 138.41599 6109.76025
6008.0 0.0001664 138.32614 5903.44824
5870.0 0.0001704 138.23662 5663.37695
5658.0 0.0001767 138.14737 5396.84424
5413.0 0.0001847 138.05850 5111.27490
5063.0 0.0001975 137.96986 4813.88086
4702.0 0.0002127 137.88156 4511.33789
4323.0 0.0002313 137.79353 4209.53027
4081.0 0.0002450 137.70584 3913.39746
3776.0 0.0002648 137.61842 3626.87842
3463.0 0.0002888 137.53133 3352.95068
3335.0 0.0002999 137.44453 3093.72217
2948.0 0.0003392 137.35803 2850.55371
2706.0 0.000370 137.27185 2624.18701
2500.0 0.000400 137.18596 2414.86792
2294.0 0.000436 137.10034 2222.44678
2134.0 0.000469 137.01508 2046.47400
1983.0 0.000504 136.93005 1886.27454
1844.0 0.000542 136.84537 1741.00903
1626.0 0.000615 136.76096 1609.72864
1610.0 0.000621 136.67686 1491.41589
1529.0 0.000654 136.59305 1385.02417
1328.0 0.000753 136.50957 1289.50366
1325.0 0.000755 136.42635 1203.82715
1148.0 0.000871 136.34346 1127.00732
1093.0 0.000915 136.26082 1058.11133
1040.0 0.000962 136.17848 996.27002
990.0 0.001010 136.09647 940.68347
952.0 0.001050 136.01474 890.62439
886.0 0.001129 135.93330 845.43793
822.0 0.001217 135.85217 804.53967
781.0 0.001280 135.77132 767.41260
790.0 0.001266 135.69078 733.60205
743.0 0.001346 135.61049 704.05273
712.0 0.001404 135.53053 675.75128
696.0 0.001437 135.45082 649.72479
679.0 0.001473 135.37146 625.71466
595.0 0.001681 135.29236 603.49780
606.0 0.001650 135.21359 582.88159
556.0 0.001799 135.13504 564.36615
541.0 0.001848 135.05682 546.48328
538.0 0.001859 134.97888 529.76709
505.0 0.001980 134.90126 514.10901
487.0 0.002053 134.82387 499.41486
503.0 0.001988 134.74683 485.60147
481.0 0.002079 134.67000 472.59607
500.0 0.002000 134.59355 460.33401
448.0 0.002232 134.51732 448.75815
428.0 0.002336 134.44142 437.81720
429.0 0.002331 134.36575 427.46536
392.0 0.002551 134.29044 417.66913
408.0 0.002451 134.21533 408.37613
370.0 0.002703 134.14056 399.56024
384.0 0.002604 134.06606 391.19116
334.0 0.002994 133.99187 383.24115
364.0 0.002747 133.91794 375.83725
340.0 0.002941 133.84430 368.65796
324.0 0.003086 133.77092 361.82562
349.0 0.002865 133.69785 355.32529
328.0 0.003049 133.62505 349.14029
346.0 0.002890 133.55252 343.25586
333.0 0.003003 133.48029 337.73413
328.0 0.003049 133.40836 332.41425
331.0 0.003021 133.33665 327.36121
298.0 0.003356 133.26527 322.56763
271.0 0.00369 133.19415 318.02811
287.0 0.003484 133.12331 313.73932
287.0 0.003484 133.05275 309.70020
317.0 0.003155 132.98247 305.78879
292.0 0.003425 132.91245 302.25589
275.0 0.00364 132.84273 298.98300
294.0 0.003401 132.77327 295.97794
272.0 0.00368 132.70412 293.25073
291.0 0.003436 132.63519 290.75198
299.0 0.003344 132.56659 288.61890
295.0 0.003390 132.49823 286.80344
255.0 0.00392 132.43016 285.32034
244.0 0.00410 132.36234 284.18369
273.0 0.00366 132.29483 283.40622
234.0 0.00427 132.22757 282.99826
274.0 0.00365 132.16061 282.96634
272.0 0.00368 132.09389 283.31177
273.0 0.00366 132.02745 284.02945
266.0 0.00376 131.96126 285.10565
243.0 0.00412 131.89536 286.51599
271.0 0.00369 131.82973 288.22263
265.0 0.00377 131.76439 290.17200
247.0 0.00405 131.69933 292.29138
215.0 0.00465 131.63451 294.48688
241.0 0.00415 131.56995 296.64273
241.0 0.00415 131.50566 298.62418
218.0 0.00459 131.44164 300.28424
262.0 0.00382 131.37788 301.47644
259.0 0.00386 131.31441 302.06906
263.0 0.00380 131.25122 301.96164
239.0 0.00418 131.18823 301.09482
229.0 0.00437 131.12560 299.45352
254.0 0.00394 131.06316 297.06177
227.0 0.00441 131.00101 293.97409
236.0 0.00424 130.93910 290.26614
239.0 0.00418 130.87750 286.02863
254.0 0.00394 130.81613 281.36386
223.0 0.00448 130.75504 276.38165
240.0 0.00417 130.69418 271.19550
214.0 0.00467 130.63365 265.91614
230.0 0.00435 130.57330 260.64560
220.0 0.00455 130.51326 255.47249
224.0 0.00446 130.45345 250.46907
225.0 0.00444 130.39392 245.69066
219.0 0.00457 130.33464 241.17665
235.0 0.00426 130.27565 236.95250
228.0 0.00439 130.21690 233.03162
235.0 0.00426 130.15842 229.41811
219.0 0.00457 130.10016 226.09665
241.0 0.00415 130.04219 223.08121
236.0 0.00424 129.98445 220.34625
220.0 0.00455 129.92697 217.87506
234.0 0.00427 129.86975 215.64897
219.0 0.00457 129.81281 213.64828
247.0 0.00405 129.75612 211.85327
198.0 0.00505 129.69966 210.24437
219.0 0.00457 129.64346 208.80309
232.0 0.00431 129.58754 207.51221
180.0 0.00556 129.53183 206.35567
224.0 0.00446 129.47643 205.31935
238.0 0.00420 129.42120 204.39070
209.0 0.00478 129.36629 203.55879
191.0 0.00524 129.31160 202.81416
228.0 0.00439 129.25719 202.14902
217.0 0.00461 129.20299 201.55678
207.0 0.00483 129.14908 201.03203
215.0 0.00465 129.09538 200.57057
213.0 0.00469 129.04196 200.16891
194.0 0.00515 128.98878 199.82451
216.0 0.00463 128.93585 199.53540
184.0 0.00543 128.88318 199.30040
209.0 0.00478 128.83072 199.11859
229.0 0.00437 128.77855 198.98956
200.0 0.00500 128.72658 198.91338
223.0 0.00448 128.67488 198.89035
184.0 0.00543 128.62343 198.92117
221.0 0.00452 128.57222 199.00681
199.0 0.00503 128.52124 199.14853
182.0 0.00549 128.47055 199.34793
201.0 0.00498 128.42004 199.60684
215.0 0.00465 128.36981 199.92744
204.0 0.00490 128.31982 200.31230
208.0 0.00481 128.27005 200.76421
249.0 0.00402 128.22057 201.28659
204.0 0.00490 128.17130 201.88298
223.0 0.00448 128.12225 202.55774
205.0 0.00488 128.07347 203.31552
218.0 0.00459 128.02492 204.16159
197.0 0.00508 127.97662 205.10201
216.0 0.00463 127.92854 206.14349
230.0 0.00435 127.88069 207.29359
229.0 0.00437 127.83310 208.56070
232.0 0.00431 127.78575 209.95444
206.0 0.00485 127.73861 211.48546
203.0 0.00493 127.69174 213.16577
239.0 0.00418 127.64508 215.00900
249.0 0.00402 127.59866 217.03023
213.0 0.00469 127.55248 219.24663
219.0 0.00457 127.50652 221.67735
230.0 0.00435 127.46082 224.34399
209.0 0.00478 127.41536 227.27077
243.0 0.00412 127.37009 230.48483
252.0 0.00397 127.32510 234.01653
273.0 0.00366 127.28029 237.90004
208.0 0.00481 127.23576 242.17314
276.0 0.00362 127.19141 246.87796
246.0 0.00407 127.14732 252.06099
218.0 0.00459 127.10347 257.77347
233.0 0.00429 127.05987 264.07141
231.0 0.00433 127.01646 271.01578
281.0 0.00356 126.97330 278.67215
273.0 0.00366 126.93033 287.11032
299.0 0.003344 126.88763 296.40445
298.0 0.003356 126.84512 306.63147
282.0 0.00355 126.80283 317.87039
298.0 0.003356 126.76083 330.20084
307.0 0.003257 126.71901 343.70117
363.0 0.002755 126.67742 358.44632
321.0 0.003115 126.63606 374.50467
356.0 0.002809 126.59492 391.93530
377.0 0.002653 126.55402 410.78384
386.0 0.002591 126.51331 431.07822
388.0 0.002577 126.47284 452.82388
428.0 0.002336 126.43260 475.99765
435.0 0.002299 126.39259 500.54230
445.0 0.002247 126.35277 526.35968
474.0 0.002110 126.31321 553.30383
491.0 0.002037 126.27383 581.17371
532.0 0.001880 126.23470 609.70648
595.0 0.001681 126.19575 638.57104
592.0 0.001689 126.15707 667.36377
614.0 0.001629 126.11858 695.60681
624.0 0.001603 126.08032 722.75061
678.0 0.001475 126.04225 748.18481
620.0 0.001613 126.00443 771.25861
728.0 0.001374 125.96679 791.31171
760.0 0.001316 125.92940 807.71637
760.0 0.001316 125.89222 819.92609
720.0 0.001389 125.85525 827.52319
734.0 0.001362 125.81848 830.25336
723.0 0.001383 125.78197 828.04474
685.0 0.001460 125.74561 815.44269
686.0 0.001458 125.70950 803.88025
673.0 0.001486 125.67358 788.13281
660.0 0.001515 125.63790 768.68146
626.0 0.001597 125.60239 746.07166
642.0 0.001558 125.56714 720.88965
566.0 0.001767 125.53207 680.58374
566.0 0.001767 125.49723 652.19012
499.0 0.002004 125.46259 623.00488
469.0 0.002132 125.42818 593.55853
468.0 0.002137 125.39392 564.32013
442.0 0.002262 125.35992 535.68738
444.0 0.002252 125.32609 507.98410
406.0 0.002463 125.29250 481.46210
392.0 0.002551 125.25911 456.30710
364.0 0.002747 125.22594 432.64700
385.0 0.002597 125.19294 410.56070
371.0 0.002695 125.16017 390.08652
349.0 0.002865 125.12759 371.46371
347.0 0.002882 125.09524 353.99203
320.0 0.003125 125.06304 338.29303
278.0 0.00360 125.03110 324.09241
294.0 0.003401 124.99931 311.32141
289.0 0.003460 124.96777 299.90256
308.0 0.003247 124.93640 289.75247
226.0 0.00442 124.90526 280.78418
253.0 0.00395 124.87430 272.92075
272.0 0.00368 124.84356 266.05020
237.0 0.00422 124.81298 260.09210
249.0 0.00402 124.78265 254.95706
234.0 0.00427 124.75245 250.55627
242.0 0.00413 124.72251 246.80170
225.0 0.00444 124.69274 243.60583
221.0 0.00452 124.66319 240.88159
225.0 0.00444 124.63380 238.54248
200.0 0.00500 124.60464 236.50252
231.0 0.00433 124.57565 234.67767
190.0 0.00526 124.54689 232.98685
202.0 0.00495 124.51826 231.35387
214.0 0.00467 124.48988 229.70996
207.0 0.00483 124.46169 227.99586
195.0 0.00513 124.43368 226.16354
203.0 0.00493 124.40585 224.17809
212.0 0.00472 124.37825 222.01738
211.0 0.00474 124.35078 219.67189
176.0 0.00568 124.32356 217.14328
179.0 0.00559 124.29649 214.44264
168.0 0.00595 124.26965 211.58864
185.0 0.00541 124.24296 208.60587
192.0 0.00521 124.21649 205.52284
187.0 0.00535 124.19019 202.37045
182.0 0.00549 124.16409 199.18036
170.0 0.00588 124.13815 195.98349
176.0 0.00568 124.11243 192.80894
187.0 0.00535 124.08687 189.68275
169.0 0.00592 124.06153 186.62733
163.0 0.00613 124.03635 183.66119
168.0 0.00595 124.01138 180.79893
187.0 0.00535 123.98656 178.05147
157.0 0.00637 123.96194 175.42635
185.0 0.00541 123.93748 172.92813
161.0 0.00621 123.91324 170.55890
162.0 0.00617 123.88915 168.31888
163.0 0.00613 123.86528 166.20648
168.0 0.00595 123.84154 164.21880
160.0 0.00625 123.81804 162.35197
169.0 0.00592 123.79469 160.60147
180.0 0.00556 123.77152 158.96204
192.0 0.00521 123.74852 157.42819
176.0 0.00568 123.72572 155.99406
162.0 0.00617 123.70306 154.65379
153.0 0.00654 123.68063 153.40144
167.0 0.00599 123.65835 152.23116
135.0 0.00741 123.63625 151.13722
176.0 0.00568 123.61432 150.11398
156.0 0.00641 123.59258 149.15622
192.0 0.00521 123.57099 148.25880
167.0 0.00599 123.54961 147.41699
167.0 0.00599 123.52836 146.62636
179.0 0.00559 123.50732 145.88257
163.0 0.00613 123.48642 145.18196
166.0 0.00602 123.46573 144.52086
169.0 0.00592 123.44521 143.89604
170.0 0.00588 123.42484 143.30453
151.0 0.00662 123.40466 142.74365
156.0 0.00641 123.38463 142.21094
140.0 0.00714 123.36478 141.70419
162.0 0.00617 123.34510 141.22142
165.0 0.00606 123.32560 140.76083
132.0 0.00758 123.30624 140.32085
153.0 0.00654 123.28706 139.89998
146.0 0.00685 123.26805 139.49689
139.0 0.00719 123.24921 139.11052
139.0 0.00719 123.23053 138.73969
127.0 0.00787 123.21205 138.38348
144.0 0.00694 123.19370 138.04112
154.0 0.00649 123.17551 137.71175
141.0 0.00709 123.15751 137.39464
152.0 0.00658 123.13965 137.08916
146.0 0.00685 123.12196 136.79474
135.0 0.00741 123.10445 136.51080
138.0 0.00725 123.08707 136.23686
163.0 0.00613 123.06989 135.97246
144.0 0.00694 123.05287 135.71716
149.0 0.00671 123.03600 135.47049
138.0 0.00725 123.01926 135.23221
133.0 0.00752 123.00271 135.00192
157.0 0.00637 122.98632 134.77927
150.0 0.00667 122.97007 134.56392
154.0 0.00649 122.95401 134.35573
149.0 0.00671 122.93809 134.15428
161.0 0.00621 122.92232 133.95938
134.0 0.00746 122.90671 133.77081
149.0 0.00671 122.89124 133.58832
130.0 0.00769 122.87596 133.41176
145.0 0.00690 122.86082 133.24084
146.0 0.00685 122.84585 133.07542
128.0 0.00781 122.83102 132.91533
136.0 0.00735 122.81635 132.76042
139.0 0.00719 122.80181 132.61049
165.0 0.00606 122.78742 132.46542
135.0 0.00741 122.77322 132.32506
134.0 0.00746 122.75914 132.18932
124.0 0.00806 122.74522 132.05803
124.0 0.00806 122.73144 131.93109
139.0 0.00719 122.71786 131.80841
164.0 0.00610 122.70438 131.68987
139.0 0.00719 122.69107 131.57538
152.0 0.00658 122.67789 131.46480
140.0 0.00714 122.66487 131.35817
138.0 0.00725 122.65199 131.25529
143.0 0.00699 122.63927 131.15614
161.0 0.00621 122.62668 131.06064
143.0 0.00699 122.61427 130.96878
134.0 0.00746 122.60196 130.88048
155.0 0.00645 122.58984 130.79564
144.0 0.00694 122.57783 130.71425
145.0 0.00690 122.56596 130.63625
149.0 0.00671 122.55426 130.57587
136.0 0.00735 122.54269 130.50476
140.0 0.00714 122.53126 130.43697
160.0 0.00625 122.51997 130.37239
129.0 0.00775 122.50883 130.31117
148.0 0.00676 122.49783 130.25320
148.0 0.00676 122.48696 130.19844
133.0 0.00752 122.47623 130.14697
167.0 0.00599 122.46564 130.10590
155.0 0.00645 122.45520 130.06102
151.0 0.00662 122.44491 130.01939
148.0 0.00676 122.43473 129.98108
160.0 0.00625 122.42470 129.94608
136.0 0.00735 122.41480 129.91441
154.0 0.00649 122.40504 129.88612
145.0 0.00690 122.39542 129.86125
145.0 0.00690 122.38593 129.83984
130.0 0.00769 122.37657 129.82191
144.0 0.00694 122.36736 129.80762
144.0 0.00694 122.35827 129.79692
148.0 0.00676 122.34931 129.78993
153.0 0.00654 122.34049 129.78674
150.0 0.00667 122.33180 129.78745
138.0 0.00725 122.32325 129.79211
153.0 0.00654 122.31482 129.80084
144.0 0.00694 122.30651 129.81383
132.0 0.00758 122.29835 129.83109
159.0 0.00629 122.29033 129.85287
150.0 0.00667 122.28240 129.87923
136.0 0.00735 122.27464 129.91042
150.0 0.00667 122.26697 129.94658
151.0 0.00662 122.25945 129.98785
129.0 0.00775 122.25204 130.03458
147.0 0.00680 122.24477 130.08685
154.0 0.00649 122.23763 130.14505
142.0 0.00704 122.23061 130.20943
143.0 0.00699 122.22372 130.28023
126.0 0.00794 122.21694 130.35786
137.0 0.00730 122.21030 130.44267
144.0 0.00694 122.20377 130.53514
139.0 0.00719 122.19736 130.63565
141.0 0.00709 122.19107 130.74477
135.0 0.00741 122.18491 130.86302
136.0 0.00735 122.17888 130.99117
122.0 0.00820 122.17297 131.12988
159.0 0.00629 122.16717 131.27998
149.0 0.00671 122.16150 131.44243
153.0 0.00654 122.15593 131.61823
159.0 0.00629 122.15050 131.80865
129.0 0.00775 122.14517 132.01495
150.0 0.00667 122.13997 132.23871
148.0 0.00676 122.13488 132.48166
153.0 0.00654 122.12992 132.74565
146.0 0.00685 122.12506 133.03290
132.0 0.00758 122.12031 133.34587
143.0 0.00699 122.11568 133.68727
129.0 0.00775 122.11117 134.06009
147.0 0.00680 122.10677 134.46770
167.0 0.00599 122.10249 134.91380
150.0 0.00667 122.09833 135.40247
131.0 0.00763 122.09427 135.93814
135.0 0.00741 122.09034 136.52557
158.0 0.00633 122.08648 137.16997
131.0 0.00763 122.08276 137.87685
152.0 0.00658 122.07915 138.65210
145.0 0.00690 122.07565 139.50192
159.0 0.00629 122.07224 140.43274
141.0 0.00709 122.06895 141.45131
135.0 0.00741 122.06577 142.56441
132.0 0.00758 122.06271 143.11653
125.0 0.00800 122.05974 144.44650
145.0 0.00690 122.05688 145.89156
154.0 0.00649 122.05414 147.45824
140.0 0.00714 122.05148 149.15271
136.0 0.00735 122.04895 150.98047
131.0 0.00763 122.04650 151.31425
134.0 0.00746 122.04417 153.45992
118.0 0.00847 122.04195 155.72719
133.0 0.00752 122.03983 158.13951
135.0 0.00741 122.03780 160.69554
137.0 0.00730 122.03587 163.39163
145.0 0.00690 122.03406 166.22087
133.0 0.00752 122.03234 169.17267
121.0 0.00826 122.03072 172.23184
134.0 0.00746 122.02920 175.37801
121.0 0.00826 122.02778 178.58469
138.0 0.00725 122.02647 181.81874
144.0 0.00694 122.02524 185.04002
144.0 0.00694 122.02412 188.20132
126.0 0.00794 122.02309 191.24146
135.0 0.00741 122.02216 194.11719
141.0 0.00709 122.02132 196.75957
120.0 0.00833 122.02058 199.10742
151.0 0.00662 122.01994 201.10330
160.0 0.00625 122.01939 202.54495
123.0 0.00813 122.01894 203.69810
125.0 0.00800 122.01858 204.37819
139.0 0.00719 122.01831 204.57947
147.0 0.00680 122.01814 204.29872
133.0 0.00752 122.01805 203.54930
138.0 0.00725 122.01807 202.35597
140.0 0.00714 122.01817 200.67717
150.0 0.00667 122.01836 198.70590
149.0 0.00671 122.01864 196.41263
126.0 0.00794 122.01900 193.84784
136.0 0.00735 122.01949 191.06364
148.0 0.00676 122.02003 188.11246
147.0 0.00680 122.02065 185.04514
135.0 0.00741 122.02137 181.90942
132.0 0.00758 122.02219 178.74881
153.0 0.00654 122.02309 175.60178
140.0 0.00714 122.02407 172.50116
133.0 0.00752 122.02514 169.47430
137.0 0.00730 122.02628 166.54292
129.0 0.00775 122.02753 163.72404
129.0 0.00775 122.02886 161.02991
148.0 0.00676 122.03026 158.46909
147.0 0.00680 122.03175 156.04678
153.0 0.00654 122.03332 154.42395
144.0 0.00694 122.03499 152.52283
138.0 0.00725 122.03671 150.52991
144.0 0.00694 122.03853 148.67349
150.0 0.00667 122.04042 146.94931
127.0 0.00787 122.04240 145.35223
137.0 0.00730 122.04446 143.87640
156.0 0.00641 122.04659 142.51566
119.0 0.00840 122.04880 141.59196
143.0 0.00699 122.05109 140.56087
149.0 0.00671 122.05346 139.50919
118.0 0.00847 122.05590 138.54587
142.0 0.00704 122.05843 137.66426
126.0 0.00794 122.06103 137.05687
122.0 0.00820 122.06369 136.32187
142.0 0.00704 122.06644 135.65031
166.0 0.00602 122.06925 135.03667
137.0 0.00730 122.07215 134.47572
145.0 0.00690 122.07512 134.00334
161.0 0.00621 122.07816 133.53436
137.0 0.00730 122.08128 133.10477
149.0 0.00671 122.08446 132.81018
132.0 0.00758 122.08771 132.44954
115.0 0.00870 122.09104 132.11806
129.0 0.00775 122.09443 131.81302
154.0 0.00649 122.09790 131.53189
144.0 0.00694 122.10144 131.29285
142.0 0.00704 122.10504 131.05341
148.0 0.00676 122.10871 130.83191
142.0 0.00704 122.11245 130.62675
142.0 0.00704 122.11626 130.43663
128.0 0.00781 122.12014 130.26021
146.0 0.00685 122.12408 130.09645
136.0 0.00735 122.12807 129.94440
135.0 0.00741 122.13215 129.80310
152.0 0.00658 122.13628 129.67192
139.0 0.00719 122.14047 129.55013
147.0 0.00680 122.14474 129.43710
126.0 0.00794 122.14907 129.33235
142.0 0.00704 122.15346 129.23540
141.0 0.00709 122.15791 129.14577
150.0 0.00667 122.16242 129.06319
141.0 0.00709 122.16699 128.98721
128.0 0.00781 122.17163 128.91765
146.0 0.00685 122.17632 128.85416
130.0 0.00769 122.18108 128.79652
140.0 0.00714 122.18587 128.74458
123.0 0.00813 122.19076 128.69809
154.0 0.00649 122.19569 128.65698
133.0 0.00752 122.20066 130.19876
126.0 0.00794 122.20572 130.18442
127.0 0.00787 122.21082 130.17542
126.0 0.00794 122.21597 130.17157
145.0 0.00690 122.22119 130.17296
135.0 0.00741 122.22645 130.17957
149.0 0.00671 122.23177 130.19141
144.0 0.00694 122.23714 130.20850
148.0 0.00676 122.24258 131.01842
145.0 0.00690 122.24806 131.14922
141.0 0.00709 122.25359 131.19264
165.0 0.00606 122.25918 131.24202
157.0 0.00637 122.26482 131.29739
148.0 0.00676 122.27050 131.35905
152.0 0.00658 122.27625 131.42717
146.0 0.00685 122.28204 131.50201
164.0 0.00610 122.28786 131.63049
148.0 0.00676 122.29376 131.72044
152.0 0.00658 122.29971 131.81807
112.0 0.00893 122.30569 131.92357
153.0 0.00654 122.31171 132.03740
160.0 0.00625 122.31779 132.15987
145.0 0.00690 122.32392 132.29134
178.0 0.00562 122.33009 132.43210
170.0 0.00588 122.33630 132.58260
166.0 0.00602 122.34258 132.74306
161.0 0.00621 122.34887 132.91386
144.0 0.00694 122.35523 133.09521
146.0 0.00685 122.36163 133.49339
154.0 0.00649 122.36806 133.69936
146.0 0.00685 122.37455 133.91640
157.0 0.00637 122.38106 134.14462
143.0 0.00699 122.38763 134.38391
141.0 0.00709 122.39423 134.63405
141.0 0.00709 122.40088 134.89455
171.0 0.00585 122.40757 135.16493
143.0 0.00699 122.41429 135.54698
144.0 0.00694 122.42106 135.83559
156.0 0.00641 122.42786 136.13069
150.0 0.00667 122.43470 136.43053
151.0 0.00662 122.44157 136.73308
162.0 0.00617 122.44850 137.03596
146.0 0.00685 122.45547 137.33650
147.0 0.00680 122.46244 137.63188
166.0 0.00602 122.46945 137.91925
172.0 0.00581 122.47652 138.19565
155.0 0.00645 122.48362 138.45866
204.0 0.00490 122.49075 138.70602
144.0 0.00694 122.49789 138.93626
157.0 0.00637 122.50510 139.14835
175.0 0.00571 122.51233 139.34219
144.0 0.00694 122.51961 139.52325
154.0 0.00649 122.52689 139.68282
165.0 0.00606 122.53420 139.82758
171.0 0.00585 122.54156 139.95985
133.0 0.00752 122.54894 140.08231
171.0 0.00585 122.55635 140.20995
163.0 0.00613 122.56382 140.57420
152.0 0.00658 122.57127 140.68912
153.0 0.00654 122.57878 140.81027
151.0 0.00662 122.58631 140.93642
163.0 0.00613 122.59386 141.07361
184.0 0.00543 122.60145 141.22543
166.0 0.00602 122.60906 141.39528
192.0 0.00521 122.61669 141.59221
165.0 0.00606 122.62435 141.93283
171.0 0.00585 122.63205 142.17644
176.0 0.00568 122.63977 142.44978
189.0 0.00529 122.64748 142.75516
148.0 0.00676 122.65524 143.09494
163.0 0.00613 122.66302 143.47113
152.0 0.00658 122.67083 143.88553
181.0 0.00552 122.67865 144.33977
203.0 0.00493 122.68649 144.83543
175.0 0.00571 122.69437 145.37378
182.0 0.00549 122.70226 145.95583
192.0 0.00521 122.71017 146.58224
196.0 0.00510 122.71809 147.25363
186.0 0.00538 122.72604 147.97003
200.0 0.00500 122.73401 148.73093
187.0 0.00535 122.74200 149.53569
184.0 0.00543 122.75000 150.38271
200.0 0.00500 122.75803 151.26987
208.0 0.00481 122.76604 152.19412
230.0 0.00435 122.77411 153.15149
191.0 0.00524 122.78217 154.13719
223.0 0.00448 122.79026 155.14503
236.0 0.00424 122.79836 156.16826
259.0 0.00386 122.80646 157.19899
221.0 0.00452 122.81459 158.22896
255.0 0.00392 122.82275 159.25011
232.0 0.00431 122.83089 160.25481
251.0 0.00398 122.83905 161.23706
241.0 0.00415 122.84723 162.19263
253.0 0.00395 122.85542 163.12065
256.0 0.00391 122.86362 164.02289
231.0 0.00433 122.87184 164.90483
288.0 0.003472 122.88004 165.77521
230.0 0.00435 122.88828 166.64561
236.0 0.00424 122.89654 167.53040
241.0 0.00415 122.90479 168.44565
296.0 0.003378 122.91305 169.40929
281.0 0.00356 122.92130 170.44016
285.0 0.00351 122.92957 171.55754
273.0 0.00366 122.93784 172.78067
264.0 0.00379 122.94614 174.12793
298.0 0.003356 122.95444 175.61613
303.0 0.003300 122.96272 177.25984
267.0 0.00375 122.97103 179.07022
295.0 0.003390 122.97934 181.05452
300.0 0.003333 122.98763 183.21503
296.0 0.003378 122.99596 185.54852
282.0 0.00355 123.00427 188.04547
328.0 0.003049 123.01260 190.68915
319.0 0.003135 123.02092 193.45587
268.0 0.00373 123.02924 196.31406
304.0 0.003289 123.03757 199.22491
334.0 0.002994 123.04588 202.14313
314.0 0.003185 123.05420 205.01846
319.0 0.003135 123.06253 207.79848
283.0 0.00353 123.07086 210.43158
301.0 0.003322 123.07919 212.87189
318.0 0.003145 123.08749 215.08319
290.0 0.003448 123.09583 217.04265
316.0 0.003165 123.10415 218.74377
313.0 0.003195 123.11246 220.19572
281.0 0.00356 123.12077 221.42204
286.0 0.003497 123.12907 222.45706
299.0 0.003344 123.13737 223.34261
302.0 0.003311 123.14569 224.12524
351.0 0.002849 123.15398 224.85538
324.0 0.003086 123.16226 225.58652
311.0 0.003215 123.17053 226.37537
344.0 0.002907 123.17882 227.28101
330.0 0.003030 123.18708 228.36348
305.0 0.003279 123.19535 229.68170
342.0 0.002924 123.20359 231.29152
316.0 0.003165 123.21183 233.24361
302.0 0.003311 123.22007 235.58238
320.0 0.003125 123.22829 238.34554
377.0 0.002653 123.23651 241.56378
327.0 0.003058 123.24471 245.26135
338.0 0.002959 123.25291 249.22066
342.0 0.002924 123.26108 253.94089
347.0 0.002882 123.26926 259.15948
342.0 0.002924 123.27743 264.89117
370.0 0.002703 123.28556 271.12918
322.0 0.003106 123.29370 277.86035
357.0 0.002801 123.30182 285.06522
393.0 0.002545 123.30994 292.60028
358.0 0.002793 123.31802 300.66919
378.0 0.002646 123.32610 309.12357
356.0 0.002809 123.33416 317.90729
403.0 0.002481 123.34222 326.98563
365.0 0.002740 123.35023 336.31842
413.0 0.002421 123.35826 345.87057
394.0 0.002538 123.36626 355.61539
404.0 0.002475 123.37423 365.53735
408.0 0.002451 123.38219 375.63245
440.0 0.002273 123.39014 385.90891
457.0 0.002188 123.39806 396.38538
458.0 0.002183 123.40596 407.08966
489.0 0.002045 123.41386 418.05685
479.0 0.002088 123.42171 429.32828
489.0 0.002045 123.42956 440.95096
474.0 0.002110 123.43739 453.08286
531.0 0.001883 123.44518 465.57031
500.0 0.002000 123.45296 478.57867
559.0 0.001789 123.46073 492.16962
514.0 0.001946 123.46845 506.40265
594.0 0.001684 123.47617 521.33081
562.0 0.001779 123.48386 536.99615
551.0 0.001815 123.49153 553.42560
663.0 0.001508 123.49917 570.62701
605.0 0.001653 123.50679 588.63995
606.0 0.001650 123.51437 607.32153
637.0 0.001570 123.52193 626.66339
652.0 0.001534 123.52947 646.58124
673.0 0.001486 123.53698 666.96735
755.0 0.001325 123.54446 687.69086
702.0 0.001425 123.55193 708.59625
719.0 0.001391 123.55936 729.50000
818.0 0.001222 123.56675 750.18750
719.0 0.001391 123.57411 770.40845
826.0 0.001211 123.58147 789.87604
777.0 0.001287 123.58877 808.26886
849.0 0.001178 123.59606 825.23712
911.0 0.001098 123.60331 840.41565
931.0 0.001074 123.61052 853.44012
883.0 0.001133 123.61772 863.96649
957.0 0.001045 123.62488 871.69135
883.0 0.001133 123.63200 876.37048
885.0 0.001130 123.63908 877.83411
936.0 0.001068 123.64614 875.99341
926.0 0.001080 123.65317 870.84479
921.0 0.001086 123.66016 862.46350
978.0 0.001022 123.66711 850.99445
886.0 0.001129 123.67403 836.64178
854.0 0.001171 123.68092 819.65540
878.0 0.001139 123.68777 800.32123
847.0 0.001181 123.69459 778.95032
790.0 0.001266 123.70137 755.87170
821.0 0.001218 123.70811 731.42340
751.0 0.001332 123.71480 705.94495
744.0 0.001344 123.72147 679.76843
680.0 0.001471 123.72809 653.21094
727.0 0.001376 123.73469 626.56677
670.0 0.001493 123.74124 600.10052
609.0 0.001642 123.74775 574.04413
606.0 0.001650 123.75422 548.59454
576.0 0.001736 123.76064 523.91351
555.0 0.001802 123.76704 500.12906
524.0 0.001908 123.77338 478.39233
556.0 0.001799 123.77969 456.67294
450.0 0.002222 123.78595 436.06210
496.0 0.002016 123.79218 416.58478
470.0 0.002128 123.79836 398.24829
446.0 0.002242 123.80449 381.04575
423.0 0.002364 123.81059 364.96527
418.0 0.002392 123.81663 349.96664
373.0 0.002681 123.82263 336.54318
405.0 0.002469 123.82859 323.61417
399.0 0.002506 123.83450 311.65289
357.0 0.002801 123.84036 300.61224
361.0 0.002770 123.84618 290.44278
336.0 0.002976 123.85196 281.09448
328.0 0.003049 123.85769 272.51721
360.0 0.002778 123.86337 264.66473
343.0 0.002915 123.86900 257.48239
342.0 0.002924 123.87459 250.92685
317.0 0.003155 123.88013 244.95349
320.0 0.003125 123.88561 239.52014
323.0 0.003096 123.89104 234.58734
301.0 0.003322 123.89644 230.11818
312.0 0.003205 123.90178 226.07875
345.0 0.002899 123.90707 222.43794
272.0 0.00368 123.91229 219.16757
301.0 0.003322 123.91749 216.24228
261.0 0.00383 123.92261 213.63931
302.0 0.003311 123.92770 211.33867
271.0 0.00369 123.93272 209.32278
260.0 0.00385 123.93769 207.57626
295.0 0.003390 123.94262 206.24030
267.0 0.00375 123.94749 204.99638
284.0 0.00352 123.95231 203.98735
263.0 0.00380 123.95706 203.20517
253.0 0.00395 123.96178 202.64259
276.0 0.00362 123.96642 202.29358
276.0 0.00362 123.97101 202.15276
236.0 0.00424 123.97554 202.21539
258.0 0.00388 123.98003 202.47681
224.0 0.00446 123.98444 203.00977
252.0 0.00397 123.98882 203.65561
232.0 0.00431 123.99312 204.48524
221.0 0.00452 123.99738 205.49229
213.0 0.00469 124.00156 206.66885
217.0 0.00461 124.00569 208.00554
236.0 0.00424 124.00977 209.49077
229.0 0.00437 124.01378 211.11014
208.0 0.00481 124.01775 212.84631
216.0 0.00463 124.02164 214.67815
222.0 0.00450 124.02547 216.58060
219.0 0.00457 124.02924 218.50995
210.0 0.00476 124.03296 220.46111
215.0 0.00465 124.03659 225.16423
221.0 0.00452 124.04018 227.03828
229.0 0.00437 124.04370 228.79608
198.0 0.00505 124.04716 230.39195
201.0 0.00498 124.05056 231.78123
217.0 0.00461 124.05389 232.91472
225.0 0.00444 124.05716 233.76947
202.0 0.00495 124.06036 234.30789
216.0 0.00463 124.06351 234.50754
210.0 0.00476 124.06658 235.74486
226.0 0.00442 124.06958 235.24867
212.0 0.00472 124.07253 234.40027
197.0 0.00508 124.07540 233.21126
202.0 0.00495 124.07821 231.70003
187.0 0.00535 124.08095 229.89026
208.0 0.00481 124.08363 227.80994
198.0 0.00505 124.08623 225.49026
228.0 0.00439 124.08877 222.96518
212.0 0.00472 124.09123 220.26976
195.0 0.00513 124.09363 217.44008
187.0 0.00535 124.09595 214.51164
195.0 0.00513 124.09822 211.47279
216.0 0.00463 124.10040 208.44882
241.0 0.00415 124.10252 205.42281
196.0 0.00510 124.10458 202.42130
190.0 0.00526 124.10655 199.46744
186.0 0.00538 124.10846 196.58089
200.0 0.00500 124.11028 193.77759
195.0 0.00513 124.11205 191.07056
173.0 0.00578 124.11373 188.44667
198.0 0.00505 124.11536 185.95915
215.0 0.00465 124.11690 183.58975
179.0 0.00559 124.11835 181.34126
195.0 0.00513 124.11975 179.21490
200.0 0.00500 124.12107 177.21039
220.0 0.00455 124.12231 175.32616
201.0 0.00498 124.12347 173.56000
206.0 0.00485 124.12457 171.90862
197.0 0.00508 124.12559 170.36830
185.0 0.00541 124.12652 168.93481
205.0 0.00488 124.12740 167.60353
186.0 0.00538 124.12817 166.36964
206.0 0.00485 124.12889 165.22835
201.0 0.00498 124.12952 164.17435
195.0 0.00513 124.13007 163.20282
201.0 0.00498 124.13055 162.30858
234.0 0.00427 124.13094 161.48692
194.0 0.00515 124.13125 160.73297
195.0 0.00513 124.13149 160.04230
210.0 0.00476 124.13165 159.41048
177.0 0.00565 124.13173 158.83333
223.0 0.00448 124.13171 158.30704
230.0 0.00435 124.13163 157.82799
226.0 0.00442 124.13147 157.39265
206.0 0.00485 124.13123 156.99800
216.0 0.00463 124.13089 156.64101
194.0 0.00515 124.13048 156.31915
204.0 0.00490 124.12998 156.02995
205.0 0.00488 124.12941 155.77127
206.0 0.00485 124.12874 155.54109
203.0 0.00493 124.12800 155.33765
181.0 0.00552 124.12717 155.15924
197.0 0.00508 124.12625 155.00479
181.0 0.00552 124.12526 154.87268
190.0 0.00526 124.12418 154.76207
205.0 0.00488 124.12302 154.67198
187.0 0.00535 124.12176 154.60155
195.0 0.00513 124.12041 154.55005
187.0 0.00535 124.11899 154.51704
165.0 0.00606 124.11748 154.50191
176.0 0.00568 124.11588 154.50441
196.0 0.00510 124.11419 154.52411
200.0 0.00500 124.11243 154.56091
165.0 0.00606 124.11055 154.61461
201.0 0.00498 124.10860 154.68524
192.0 0.00521 124.10656 154.77272
183.0 0.00546 124.10443 154.87723
198.0 0.00505 124.10222 154.99887
191.0 0.00524 124.09991 155.13786
202.0 0.00495 124.09752 155.29457
196.0 0.00510 124.09503 155.46928
170.0 0.00588 124.09245 155.66237
177.0 0.00565 124.08978 155.87440
199.0 0.00503 124.08702 156.10594
215.0 0.00465 124.08417 156.35751
206.0 0.00485 124.08122 156.62990
204.0 0.00490 124.07819 159.47803
185.0 0.00541 124.07504 159.82417
179.0 0.00559 124.07183 160.19415
182.0 0.00549 124.06851 160.58887
200.0 0.00500 124.06510 161.00943
177.0 0.00565 124.06160 161.45702
191.0 0.00524 124.05801 161.93289
198.0 0.00505 124.05433 162.43826
196.0 0.00510 124.05054 162.97464
180.0 0.00556 124.04665 164.81470
178.0 0.00562 124.04268 165.43251
195.0 0.00513 124.03860 166.08627
195.0 0.00513 124.03445 166.77786
148.0 0.00676 124.03017 167.50899
185.0 0.00541 124.02581 168.28162
190.0 0.00526 124.02136 169.09782
187.0 0.00535 124.01682 169.95963
204.0 0.00490 124.01216 170.86905
203.0 0.00493 124.00741 171.82826
187.0 0.00535 124.00256 172.83939
187.0 0.00535 123.99761 173.90466
174.0 0.00575 123.99257 175.02621
181.0 0.00552 123.98742 176.20618
203.0 0.00493 123.98219 177.44679
187.0 0.00535 123.97684 178.75029
182.0 0.00549 123.97141 180.11897
198.0 0.00505 123.96586 181.55548
195.0 0.00513 123.96021 183.06250
194.0 0.00515 123.95447 184.64317
194.0 0.00515 123.94863 186.30113
204.0 0.00490 123.94268 188.04059
210.0 0.00476 123.93663 189.86630
181.0 0.00552 123.93047 191.78371
206.0 0.00485 123.92423 193.79875
208.0 0.00481 123.91788 195.91794
193.0 0.00518 123.91142 198.33586
188.0 0.00532 123.90485 200.68562
196.0 0.00510 123.89821 203.15988
210.0 0.00476 123.89143 205.77190
188.0 0.00532 123.88454 208.51270
181.0 0.00552 123.87757 211.39348
201.0 0.00498 123.87048 214.41667
165.0 0.00606 123.86331 217.58299
206.0 0.00485 123.85602 220.89034
200.0 0.00500 123.84863 224.42783
220.0 0.00455 123.84112 228.00171
200.0 0.00500 123.83353 231.69389
212.0 0.00472 123.82581 235.49043
204.0 0.00490 123.81798 239.37764
199.0 0.00503 123.81004 243.32832
194.0 0.00515 123.80201 247.32303
174.0 0.00575 123.79389 251.33702
201.0 0.00498 123.78564 255.34305
226.0 0.00442 123.77727 259.31226
212.0 0.00472 123.76880 263.21423
202.0 0.00495 123.76025 267.01675
199.0 0.00503 123.75156 270.68573
205.0 0.00488 123.74277 274.18604
239.0 0.00418 123.73385 277.48105
218.0 0.00459 123.72484 280.53491
228.0 0.00439 123.71573 283.31390
194.0 0.00515 123.70650 285.78900
228.0 0.00439 123.69716 287.93860
213.0 0.00469 123.68771 289.75089
226.0 0.00442 123.67816 291.22546
237.0 0.00422 123.66849 292.45081
259.0 0.00386 123.65871 294.81088
262.0 0.00382 123.64880 295.40900
243.0 0.00412 123.63881 295.77246
267.0 0.00375 123.62867 295.94370
257.0 0.00389 123.61845 295.96762
220.0 0.00455 123.60810 295.89178
260.0 0.00385 123.59766 295.76514
263.0 0.00380 123.58708 295.63855
249.0 0.00402 123.57641 295.56433
249.0 0.00402 123.56561 296.38870
278.0 0.00360 123.55468 296.59494
317.0 0.003155 123.54367 296.19977
303.0 0.003300 123.53252 296.89627
275.0 0.00364 123.52126 297.91205
285.0 0.00351 123.50990 299.29645
266.0 0.00376 123.49843 301.09610
288.0 0.003472 123.48683 303.35577
291.0 0.003436 123.47511 306.11853
286.0 0.003497 123.46328 309.42621
302.0 0.003311 123.45133 311.11481
297.0 0.003367 123.43927 315.65375
322.0 0.003106 123.42709 320.86145
338.0 0.002959 123.41478 326.78036
322.0 0.003106 123.40237 333.45456
372.0 0.002688 123.38985 340.92929
351.0 0.002849 123.37720 349.25198
372.0 0.002688 123.36444 358.47159
383.0 0.002611 123.35154 368.63934
373.0 0.002681 123.33855 379.80807
381.0 0.002625 123.32543 392.03226
417.0 0.002398 123.31219 405.36768
435.0 0.002299 123.29882 419.87125
463.0 0.002160 123.28537 435.59995
467.0 0.002141 123.27176 452.61066
454.0 0.002203 123.25803 470.95898
520.0 0.001923 123.24420 490.69891
515.0 0.001942 123.23024 511.88077
544.0 0.001838 123.21617 534.55078
599.0 0.001669 123.20199 558.74908
597.0 0.001675 123.18766 584.50830
617.0 0.001621 123.17321 611.85168
654.0 0.001529 123.15868 640.79053
653.0 0.001531 123.14398 671.32202
713.0 0.001403 123.12918 703.42621
704.0 0.001420 123.11426 737.06244
735.0 0.001361 123.09921 772.16687
799.0 0.001252 123.08403 808.64709
845.0 0.001183 123.06875 846.37921
889.0 0.001125 123.05332 885.20282
957.0 0.001045 123.03780 924.91693
982.0 0.001018 123.02215 965.28918
1029.0 0.000972 123.00635 1006.00293
1076.0 0.000929 122.99044 1046.72949
1110.0 0.000901 122.97442 1087.08032
1124.0 0.000890 122.95827 1126.62146
1205.0 0.000830 122.94198 1166.00793
1175.0 0.000851 122.92558 1202.49512
1233.0 0.000811 122.90906 1236.68323
1244.0 0.000804 122.89240 1268.05908
1308.0 0.000765 122.87563 1296.13159
1353.0 0.000739 122.85872 1320.45996
1354.0 0.000739 122.84168 1340.65039
1381.0 0.000724 122.82454 1356.40942
1417.0 0.000706 122.80727 1367.53638
1314.0 0.000761 122.78986 1374.18896
1362.0 0.000734 122.77232 1376.17712
1384.0 0.000723 122.75466 1373.25598
1370.0 0.000730 122.73689 1365.93372
1365.0 0.000733 122.71898 1354.49585
1301.0 0.000769 122.70094 1339.03040
1312.0 0.000762 122.68276 1320.47656
1287.0 0.000777 122.66448 1299.02002
1219.0 0.000820 122.64606 1275.14697
1208.0 0.000828 122.62751 1249.37097
1168.0 0.000856 122.60883 1222.22083
1206.0 0.000829 122.59003 1194.23669
1085.0 0.000922 122.57110 1165.95667
1152.0 0.000868 122.55205 1137.90320
1096.0 0.000912 122.53285 1110.47571
992.0 0.001008 122.51354 1084.40320
1040.0 0.000962 122.49408 1060.01392
1050.0 0.000952 122.47451 1037.72571
1033.0 0.000968 122.45480 1017.91895
1014.0 0.000986 122.43498 1000.93384
1043.0 0.000959 122.41502 987.07190
1034.0 0.000967 122.39491 976.59662
977.0 0.001024 122.37469 969.73346
914.0 0.001094 122.35434 966.67157
990.0 0.001010 122.33386 967.56323
953.0 0.001049 122.31325 972.52246
903.0 0.001107 122.29249 981.62439
1023.0 0.000978 122.27161 994.90332
974.0 0.001027 122.25061 1012.36066
982.0 0.001018 122.22948 1033.86780
1031.0 0.000970 122.20821 1059.31165
1035.0 0.000966 122.18681 1088.47498
1059.0 0.000944 122.16527 1121.05457
1146.0 0.000873 122.14361 1156.65002
1228.0 0.000814 122.12183 1194.76099
1257.0 0.000796 122.09988 1234.78333
1248.0 0.000801 122.07781 1276.01819
1349.0 0.000741 122.05562 1317.69067
1469.0 0.000681 122.03329 1358.98364
1382.0 0.000724 122.01083 1399.02771
1504.0 0.000665 121.98824 1437.01514
1555.0 0.000643 121.96551 1472.17981
1576.0 0.000635 121.94267 1503.83252
1585.0 0.000631 121.91968 1531.36609
1627.0 0.000615 121.89655 1554.24585
1782.0 0.000561 121.87329 1571.99023
1724.0 0.000580 121.84988 1584.15002
1674.0 0.000597 121.82636 1590.30347
1693.0 0.000591 121.80270 1590.06824
1682.0 0.000595 121.77891 1583.13818
1702.0 0.000588 121.75497 1569.33386
1681.0 0.000595 121.73091 1548.65149
1626.0 0.000615 121.70672 1521.29370
1567.0 0.000638 121.68238 1487.66956
1527.0 0.000655 121.65792 1448.35876
1379.0 0.000725 121.63331 1404.05994
1366.0 0.000732 121.60857 1355.52588
1322.0 0.000756 121.58368 1303.51453
1227.0 0.000815 121.55868 1248.75916
1192.0 0.000839 121.53354 1191.95947
1111.0 0.000900 121.50825 1133.78711
1087.0 0.000920 121.48284 1074.89526
978.0 0.001022 121.45728 1015.92444
915.0 0.001093 121.43159 957.49536
809.0 0.001236 121.40576 901.04578
818.0 0.001222 121.37980 845.42426
761.0 0.001314 121.35368 791.93658
703.0 0.001422 121.32746 740.96875
650.0 0.001538 121.30110 692.82208
630.0 0.001587 121.27457 647.71185
644.0 0.001553 121.24794 605.77380
585.0 0.001709 121.22114 567.07288
507.0 0.001972 121.19424 531.61096
507.0 0.001972 121.16717 499.33759
477.0 0.002096 121.13997 470.58450
403.0 0.002481 121.11263 444.37753
441.0 0.002268 121.08517 420.98154
387.0 0.002584 121.05756 400.22177
398.0 0.002513 121.02982 381.91043
399.0 0.002506 121.00193 365.85257
364.0 0.002747 120.97391 351.85065
370.0 0.002703 120.94576 339.70862
350.0 0.002857 120.91743 329.23560
355.0 0.002817 120.88901 320.24759
310.0 0.003226 120.86044 312.56992
292.0 0.003425 120.83171 306.03799
310.0 0.003226 120.80287 300.49814
297.0 0.003367 120.77386 295.80649
269.0 0.00372 120.74475 291.83051
278.0 0.00360 120.71545 288.44711
286.0 0.003497 120.68605 285.54269
252.0 0.00397 120.65650 283.01245
245.0 0.00408 120.62682 280.76096
271.0 0.00369 120.59699 278.70151
261.0 0.00383 120.56701 276.75677
230.0 0.00435 120.53692 274.85944
238.0 0.00420 120.50665 272.95258
217.0 0.00461 120.47628 270.99042
217.0 0.00461 120.44574 268.93747
229.0 0.00437 120.41508 266.76898
203.0 0.00493 120.38427 264.46942
188.0 0.00532 120.35332 262.03107
238.0 0.00420 120.32224 259.45346
194.0 0.00515 120.29101 256.74097
200.0 0.00500 120.25965 253.90274
198.0 0.00505 120.22813 250.95082
208.0 0.00481 120.19650 247.90027
213.0 0.00469 120.16468 244.76840
197.0 0.00508 120.13277 241.57420
200.0 0.00500 120.10070 238.33827
204.0 0.00490 120.06847 235.08177
171.0 0.00585 120.03613 231.82611
188.0 0.00532 120.00364 228.59230
209.0 0.00478 119.97100 225.40010
200.0 0.00500 119.93822 222.26782
188.0 0.00532 119.90530 219.21170
182.0 0.00549 119.87224 216.24562
211.0 0.00474 119.83904 213.38136
192.0 0.00521 119.80572 210.62827
206.0 0.00485 119.77222 207.99361
165.0 0.00606 119.73860 205.48267
196.0 0.00510 119.70483 203.09889
172.0 0.00581 119.67093 200.84422
198.0 0.00505 119.63686 198.71928
163.0 0.00613 119.60268 196.72357
181.0 0.00552 119.56834 194.85555
194.0 0.00515 119.53387 193.11302
173.0 0.00578 119.49928 191.49313
173.0 0.00578 119.46451 189.99254
173.0 0.00578 119.42962 188.60767
176.0 0.00568 119.39458 187.33446
189.0 0.00529 119.35938 186.16890
179.0 0.00559 119.32405 185.10680
190.0 0.00526 119.28859 184.14406
191.0 0.00524 119.25299 183.27661
182.0 0.00549 119.21723 182.50050
176.0 0.00568 119.18134 181.81198
183.0 0.00546 119.14530 181.20761
164.0 0.00610 119.10912 180.68398
196.0 0.00510 119.07279 180.22290
178.0 0.00562 119.03634 179.85254
186.0 0.00538 118.99971 179.55524
186.0 0.00538 118.96297 179.32895
194.0 0.00515 118.92609 179.17230
155.0 0.00645 118.88905 179.08420
164.0 0.00610 118.85189 179.06395
194.0 0.00515 118.81454 179.11130
176.0 0.00568 118.77710 179.22673
172.0 0.00581 118.73949 179.40312
177.0 0.00565 118.70174 179.65727
186.0 0.00538 118.66385 179.98328
174.0 0.00575 118.62583 180.38356
167.0 0.00599 118.58765 180.86118
168.0 0.00595 118.54933 181.41988
175.0 0.00571 118.51088 182.06419
176.0 0.00568 118.47226 182.79926
160.0 0.00625 118.43353 183.63133
165.0 0.00606 118.39464 184.56735
164.0 0.00610 118.35561 185.61543
184.0 0.00543 118.31644 186.78479
179.0 0.00559 118.27711 188.08572
176.0 0.00568 118.23766 189.42389
176.0 0.00568 118.19804 191.02513
180.0 0.00556 118.15832 192.79704
209.0 0.00478 118.11841 194.75571
202.0 0.00495 118.07840 196.91879
183.0 0.00546 118.03822 199.30582
198.0 0.00505 117.99790 201.93788
218.0 0.00459 117.95746 204.83817
190.0 0.00526 117.91685 208.03171
214.0 0.00467 117.87610 211.49258
197.0 0.00508 117.83521 215.35576
240.0 0.00417 117.79419 219.59865
214.0 0.00467 117.75299 224.25392
204.0 0.00490 117.71170 229.35591
225.0 0.00444 117.67024 234.94064
243.0 0.00412 117.62864 241.04544
248.0 0.00403 117.58691 247.70903
241.0 0.00415 117.54502 254.97075
261.0 0.00383 117.50298 262.87076
258.0 0.00388 117.46080 271.44922
274.0 0.00365 117.41850 280.74585
277.0 0.00361 117.37602 290.79944
311.0 0.003215 117.33344 301.64697
275.0 0.00364 117.29071 313.32272
326.0 0.003067 117.24781 325.85748
309.0 0.003236 117.20480 339.27704
328.0 0.003049 117.16163 353.60104
320.0 0.003125 117.11831 368.84155
336.0 0.002976 117.07484 385.00055
365.0 0.002740 117.03127 402.06903
342.0 0.002924 116.98750 420.02374
391.0 0.002558 116.94363 438.82541
353.0 0.002833 116.89962 458.41599
432.0 0.002315 116.85544 478.71637
463.0 0.002160 116.81114 499.62421
462.0 0.002165 116.76669 521.01178
456.0 0.002193 116.72209 542.72559
521.0 0.001919 116.67736 564.58636
495.0 0.002020 116.63249 586.39050
598.0 0.001672 116.58746 607.91394
598.0 0.001672 116.54230 628.91693
623.0 0.001605 116.49702 649.15173
604.0 0.001656 116.45156 668.36896
667.0 0.001499 116.40598 686.32697
668.0 0.001497 116.36026 702.79755
705.0 0.001418 116.31438 717.57117
727.0 0.001376 116.26837 730.45886
675.0 0.001481 116.22224 741.29272
768.0 0.001302 116.17594 749.92468
760.0 0.001316 116.12949 756.22534
752.0 0.001330 116.08293 760.08539
752.0 0.001330 116.03619 761.41925
756.0 0.001323 115.98935 760.17279
766.0 0.001305 115.94234 756.32983
715.0 0.001399 115.89520 749.92194
742.0 0.001348 115.84792 741.03113
700.0 0.001429 115.80051 729.79047
730.0 0.001370 115.75294 716.37640
719.0 0.001391 115.70522 700.99976
617.0 0.001621 115.65739 683.89203
630.0 0.001587 115.60939 665.29449
596.0 0.001678 115.56128 645.44806
583.0 0.001715 115.51301 624.58844
567.0 0.001764 115.46460 602.94379
539.0 0.001855 115.41605 580.73376
493.0 0.002028 115.36737 558.17114
487.0 0.002053 115.31854 535.46094
459.0 0.002179 115.26957 512.79926
463.0 0.002160 115.22046 490.37042
425.0 0.002353 115.17120 468.34384
409.0 0.002445 115.12183 446.87064
342.0 0.002924 115.07229 426.08084
389.0 0.002571 115.02262 406.08264
331.0 0.003021 114.97282 386.96158
350.0 0.002857 114.92288 368.78131
324.0 0.003086 114.87279 351.58545
291.0 0.003436 114.82257 335.39920
285.0 0.00351 114.77220 320.23157
284.0 0.00352 114.72169 306.07755
275.0 0.00364 114.67105 292.92059
288.0 0.003472 114.62027 280.79517
260.0 0.00385 114.56936 269.54520
225.0 0.00444 114.51830 259.19061
239.0 0.00418 114.46710 249.68599
212.0 0.00472 114.41577 240.98260
232.0 0.00431 114.36428 233.02954
209.0 0.00478 114.31268 225.77486
232.0 0.00431 114.26093 219.16653
241.0 0.00415 114.20905 213.15341
211.0 0.00474 114.15702 207.68546
200.0 0.00500 114.10487 202.71489
212.0 0.00472 114.05257 198.22662
200.0 0.00500 114.00011 194.11697
189.0 0.00529 113.94756 190.37642
177.0 0.00565 113.89482 186.96800
180.0 0.00556 113.84199 183.85797
177.0 0.00565 113.78899 181.01546
181.0 0.00552 113.73587 177.36307
159.0 0.00629 113.68261 174.98341
171.0 0.00585 113.62922 172.79655
170.0 0.00588 113.57570 170.78290
138.0 0.00725 113.52202 168.92511
143.0 0.00699 113.46822 167.20815
145.0 0.00690 113.41426 165.61880
165.0 0.00606 113.36020 164.14563
150.0 0.00667 113.30597 162.77852
138.0 0.00725 113.25163 155.92760
142.0 0.00704 113.19715 154.79257
133.0 0.00752 113.14252 153.74013
157.0 0.00637 113.08778 152.76447
173.0 0.00578 113.03288 151.86017
141.0 0.00709 112.97787 151.02251
145.0 0.00690 112.92269 150.24709
137.0 0.00730 112.86739 149.52968
146.0 0.00685 112.81197 148.86623
150.0 0.00667 112.75642 148.25293
142.0 0.00704 112.70072 147.68562
143.0 0.00699 112.64489 147.16035
161.0 0.00621 112.58894 146.67299
128.0 0.00781 112.53283 146.21904
155.0 0.00645 112.47661 145.79402
142.0 0.00704 112.42023 145.39307
134.0 0.00746 112.36374 145.01117
120.0 0.00833 112.30712 144.64316
136.0 0.00735 112.25034 144.28377
127.0 0.00787 112.19346 143.92778
137.0 0.00730 112.13641 143.61716
126.0 0.00794 112.07927 143.06535
133.0 0.00752 112.02197 142.69398
123.0 0.00813 111.96455 142.30614
112.0 0.00893 111.90699 141.90002
128.0 0.00781 111.84931 141.46593
117.0 0.00855 111.79151 141.01674
145.0 0.00690 111.73355 140.54393
120.0 0.00833 111.67546 140.04724
141.0 0.00709 111.61725 139.52695
128.0 0.00781 111.55892 139.00714
120.0 0.00833 111.50043 138.34955
130.0 0.00769 111.44185 137.76599
124.0 0.00806 111.38309 137.16536
111.0 0.00901 111.32425 136.54454
128.0 0.00781 111.26527 135.91418
126.0 0.00794 111.20613 135.27310
133.0 0.00752 111.14689 134.62410
137.0 0.00730 111.08750 133.96994
118.0 0.00847 111.02801 133.31339
117.0 0.00855 110.96836 132.65715
128.0 0.00781 110.90860 132.00381
119.0 0.00840 110.84872 131.35582
146.0 0.00685 110.78868 130.71536
128.0 0.00781 110.72855 130.08443
118.0 0.00847 110.66827 129.46472
110.0 0.00909 110.60786 128.85776
117.0 0.00855 110.54733 128.26476
99.0 0.01010 110.48669 127.68668
127.0 0.00787 110.42589 127.12421
110.0 0.00909 110.36498 126.57804
124.0 0.00806 110.30396 126.04842
93.0 0.01075 110.24277 125.53558
101.0 0.00990 110.18152 125.03957
102.0 0.00980 110.12008 124.56031
125.0 0.00800 110.05855 124.09770
111.0 0.00901 109.99687 123.65135
124.0 0.00806 109.93510 123.22109
106.0 0.00943 109.87318 122.80636
135.0 0.00741 109.81114 122.40682
129.0 0.00775 109.74899 122.02199
104.0 0.00962 109.68670 121.65126
93.0 0.01075 109.62430 121.31100
109.0 0.00917 109.56174 120.96713
128.0 0.00781 109.49909 120.63578
116.0 0.00862 109.43632 120.31635
110.0 0.00909 109.37342 120.00838
125.0 0.00800 109.31041 119.71119
115.0 0.00870 109.24725 119.42429
108.0 0.00926 109.18400 119.14719
112.0 0.00893 109.12059 118.87925
104.0 0.00962 109.05709 118.62005
118.0 0.00847 108.99343 118.36906
112.0 0.00893 108.92970 118.13425
108.0 0.00926 108.86581 117.89838
119.0 0.00840 108.80183 117.66942
103.0 0.00971 108.73772 117.44697
126.0 0.00794 108.67348 117.23060
115.0 0.00870 108.60914 117.01994
119.0 0.00840 108.54466 116.81471
113.0 0.00885 108.48007 116.61456
123.0 0.00813 108.41536 116.47860
101.0 0.00990 108.35052 116.28813
128.0 0.00781 108.28558 116.21156
137.0 0.00730 108.22051 116.03015
110.0 0.00909 108.15533 115.85253
99.0 0.01010 108.09003 115.67849
120.0 0.00833 108.02463 115.50790
101.0 0.00990 107.95908 115.34051
106.0 0.00943 107.89344 115.17621
122.0 0.00820 107.82766 115.01478
117.0 0.00855 107.76178 114.85616
119.0 0.00840 107.69580 114.72982
97.0 0.01031 107.62966 114.57655
120.0 0.00833 107.56345 114.48042
102.0 0.00980 107.49709 114.33229
105.0 0.00952 107.43064 114.18640
120.0 0.00833 107.36406 114.04265
97.0 0.01031 107.29738 113.90097
127.0 0.00787 107.23057 113.76124
103.0 0.00971 107.16366 113.62347
104.0 0.00962 107.09665 113.48756
110.0 0.00909 107.02951 113.35336
114.0 0.00877 106.96226 113.22097
105.0 0.00952 106.89489 113.09021
91.0 0.01099 106.82742 112.96116
132.0 0.00758 106.75982 112.83356
99.0 0.01010 106.69213 112.70761
112.0 0.00893 106.62431 112.58311
128.0 0.00781 106.55640 112.46004
114.0 0.00877 106.48839 112.33847
95.0 0.01053 106.42023 112.21820
110.0 0.00909 106.35199 112.09933
98.0 0.01020 106.28361 111.98173
116.0 0.00862 106.21516 111.86546
113.0 0.00885 106.14658 111.75044
102.0 0.00980 106.07790 111.63663
117.0 0.00855 106.00912 111.52409
86.0 0.01163 105.94021 111.41270
90.0 0.01111 105.87121 111.30250
99.0 0.01010 105.80209 111.19341
91.0 0.01099 105.73287 111.08552
122.0 0.00820 105.66353 110.97865
114.0 0.00877 105.59412 110.87292
108.0 0.00926 105.52456 110.76822
114.0 0.00877 105.45493 110.66469
105.0 0.00952 105.38520 110.56212
112.0 0.00893 105.31533 110.46056
119.0 0.00840 105.24538 110.36012
96.0 0.01042 105.17531 110.26063
99.0 0.01010 105.10516 110.16216
114.0 0.00877 105.03488 110.06465
116.0 0.00862 104.96452 109.96821
115.0 0.00870 104.89404 109.87272
98.0 0.01020 104.82347 109.77821
98.0 0.01020 104.75282 109.68471
99.0 0.01010 104.68202 109.59212
104.0 0.00962 104.61115 109.50058
106.0 0.00943 104.54016 109.40997
92.0 0.01087 104.46909 109.32031
114.0 0.00877 104.39790 109.23166
115.0 0.00870 104.32664 109.14400
95.0 0.01053 104.25527 109.05729
100.0 0.01000 104.18378 108.97157
118.0 0.00847 104.11222 108.88686
93.0 0.01075 104.04053 108.80312
123.0 0.00813 103.96878 108.72044
103.0 0.00971 103.89690 108.63873
105.0 0.00952 103.82495 108.70415
98.0 0.01020 103.75288 108.76052
108.0 0.00926 103.68073 108.68410
95.0 0.01053 103.60850 108.60882
107.0 0.00935 103.53613 108.53458
114.0 0.00877 103.46371 108.46152
96.0 0.01042 103.39116 108.38959
96.0 0.01042 103.31853 108.31887
124.0 0.00806 103.24580 108.24928
108.0 0.00926 103.17300 108.18102
94.0 0.01064 103.10007 108.11398
115.0 0.00870 103.02709 108.04823
103.0 0.00971 102.95400 108.05711
121.0 0.00826 102.88081 108.06226
106.0 0.00943 102.80755 108.00173
90.0 0.01111 102.73415 108.12891
96.0 0.01042 102.66071 108.07310
99.0 0.01010 102.58715 108.01883
82.0 0.01220 102.51353 107.96629
97.0 0.01031 102.43982 107.91544
95.0 0.01053 102.36598 107.86635
114.0 0.00877 102.29209 107.81920
111.0 0.00901 102.21808 107.77399
108.0 0.00926 102.14403 107.73087
104.0 0.00962 102.06985 107.68983
106.0 0.00943 101.99560 107.65114
112.0 0.00893 101.92126 107.70747
102.0 0.00980 101.84684 107.67456
96.0 0.01042 101.77235 107.64436
115.0 0.00870 101.69775 107.61700
102.0 0.00980 101.62308 107.59274
96.0 0.01042 101.54830 107.57170
116.0 0.00862 101.47347 107.55420
113.0 0.00885 101.39851 107.54037
106.0 0.00943 101.32352 107.53057
111.0 0.00901 101.24841 107.52508
110.0 0.00909 101.17325 107.52421
120.0 0.00833 101.09800 107.52830
107.0 0.00935 101.02265 107.53769
124.0 0.00806 100.94725 107.55286
104.0 0.00962 100.87174 107.57423
115.0 0.00870 100.79617 107.60237
93.0 0.01075 100.72050 107.63765
111.0 0.00901 100.64478 107.77220
108.0 0.00926 100.56898 107.82446
121.0 0.00826 100.49307 107.88571
103.0 0.00971 100.41712 107.95672
135.0 0.00741 100.34107 107.84215
125.0 0.00800 100.26496 107.93591
103.0 0.00971 100.18875 108.04164
117.0 0.00855 100.11249 108.16025
93.0 0.01075 100.03613 108.29251
92.0 0.01087 99.95972 108.43942
110.0 0.00909 99.88325 108.60181
130.0 0.00769 99.80665 108.82617
128.0 0.00781 99.73003 109.02299
107.0 0.00935 99.65331 109.14024
115.0 0.00870 99.57653 109.37556
108.0 0.00926 99.49967 109.63138
107.0 0.00935 99.42275 110.04842
110.0 0.00909 99.34574 110.34953
136.0 0.00735 99.26868 110.67406
113.0 0.00885 99.19157 111.02301
116.0 0.00862 99.11434 111.39720
100.0 0.01000 99.03708 111.79748
113.0 0.00885 98.95972 112.22456
104.0 0.00962 98.88233 112.67908
126.0 0.00794 98.80484 113.16151
124.0 0.00806 98.72732 113.67232
110.0 0.00909 98.64972 114.21156
101.0 0.00990 98.57203 114.84877
108.0 0.00926 98.49431 115.44529
112.0 0.00893 98.41648 116.06936
115.0 0.00870 98.33863 116.72020
92.0 0.01087 98.26069 117.39627
84.0 0.01190 98.18271 118.09607
97.0 0.01031 98.10464 118.81719
105.0 0.00952 98.02654 119.55693
106.0 0.00943 97.94839 120.31197
103.0 0.00971 97.87013 121.07827
119.0 0.00840 97.79185 121.85146
92.0 0.01087 97.71347 122.62640
94.0 0.01064 97.63506 123.39760
110.0 0.00909 97.55657 124.15913
112.0 0.00893 97.47806 124.90495
79.0 0.01266 97.39945 125.62884
99.0 0.01010 97.32082 126.32487
111.0 0.00901 97.24213 126.98743
95.0 0.01053 97.16335 127.61136
105.0 0.00952 97.08456 128.19246
110.0 0.00909 97.00565 129.11650
109.0 0.00917 96.92676 130.00739
133.0 0.00752 96.84776 130.45045
104.0 0.00962 96.76875 130.84224
93.0 0.01075 96.68967 131.18240
106.0 0.00943 96.61052 131.47127
126.0 0.00794 96.53136 131.70941
108.0 0.00926 96.45211 131.33403
121.0 0.00826 96.37283 131.47681
109.0 0.00917 96.29349 131.57114
98.0 0.01020 96.21410 131.61772
110.0 0.00909 96.13465 131.61682
115.0 0.00870 96.05519 131.96332
102.0 0.00980 95.97566 131.87175
111.0 0.00901 95.89609 131.73427
130.0 0.00769 95.81647 131.54784
118.0 0.00847 95.73679 131.31357
109.0 0.00917 95.65710 130.77808
126.0 0.00794 95.57732 130.45041
118.0 0.00847 95.49753 130.07571
93.0 0.01075 95.41768 129.65492
105.0 0.00952 95.33779 129.18964
114.0 0.00877 95.25788 128.68185
110.0 0.00909 95.17789 128.13411
103.0 0.00971 95.09789 127.54945
110.0 0.00909 95.01784 126.93106
92.0 0.01087 94.93775 126.28338
100.0 0.01000 94.85761 125.60849
108.0 0.00926 94.77746 124.91106
103.0 0.00971 94.69725 124.20842
94.0 0.01064 94.61700 123.47742
100.0 0.01000 94.53673 122.73544
96.0 0.01042 94.45640 122.15784
122.0 0.00820 94.37606 121.41461
99.0 0.01010 94.29565 120.66503
123.0 0.00813 94.21524 119.91992
123.0 0.00813 94.13478 119.18299
124.0 0.00806 94.05430 118.45786
96.0 0.01042 93.97380 117.74776
102.0 0.00980 93.89322 117.05574
97.0 0.01031 93.81266 116.38459
102.0 0.00980 93.73201 115.73669
100.0 0.01000 93.65139 115.11404
104.0 0.00962 93.57070 114.51836
89.0 0.01124 93.49001 114.03703
99.0 0.01010 93.40927 113.50351
108.0 0.00926 93.32853 112.99659
105.0 0.00952 93.24776 112.52021
112.0 0.00893 93.16694 112.07037
105.0 0.00952 93.08611 111.62696
103.0 0.00971 93.00523 111.24300
116.0 0.00862 92.92437 110.88945
107.0 0.00935 92.84344 110.56582
99.0 0.01010 92.76252 110.27170
104.0 0.00962 92.68160 110.00652
111.0 0.00901 92.60060 109.76967
109.0 0.00917 92.51962 109.56058
108.0 0.00926 92.43859 109.37849
96.0 0.01042 92.35757 109.22083
111.0 0.00901 92.27650 108.83351
114.0 0.00877 92.19544 108.73042
95.0 0.01053 92.11434 108.65195
93.0 0.01075 92.03324 108.59756
115.0 0.00870 91.95214 108.56682
110.0 0.00909 91.87099 108.55925
100.0 0.01000 91.78986 108.57452
109.0 0.00917 91.70868 108.61234
103.0 0.00971 91.62752 108.67252
99.0 0.01010 91.54630 108.75490
108.0 0.00926 91.46513 108.85950
123.0 0.00813 91.38387 108.98634
99.0 0.01010 91.30267 109.13555
93.0 0.01075 91.22144 109.30743
116.0 0.00862 91.14020 109.50224
108.0 0.00926 91.05894 109.72055
89.0 0.01124 90.97767 109.96281
98.0 0.01020 90.89642 110.22980
85.0 0.01176 90.81514 110.52226
128.0 0.00781 90.73386 110.84115
107.0 0.00935 90.65259 111.18754
114.0 0.00877 90.57128 111.56248
93.0 0.01075 90.49001 111.96747
122.0 0.00820 90.40869 112.40384
106.0 0.00943 90.32741 112.87323
93.0 0.01075 90.24609 113.37737
97.0 0.01031 90.16480 113.91820
115.0 0.00870 90.08349 114.49773
116.0 0.00862 90.00220 115.11826
105.0 0.00952 89.92092 115.78216
106.0 0.00943 89.83961 116.49194
141.0 0.00709 89.75832 117.25039
132.0 0.00758 89.67702 118.06041
107.0 0.00935 89.59575 118.92516
100.0 0.01000 89.51445 119.84785
120.0 0.00833 89.43319 120.83199
115.0 0.00870 89.35191 121.88118
123.0 0.00813 89.27065 122.99925
130.0 0.00769 89.18942 124.19028
131.0 0.00763 89.10815 125.45833
101.0 0.00990 89.02693 126.80785
123.0 0.00813 88.94570 128.24332
115.0 0.00870 88.86450 129.76956
109.0 0.00917 88.78328 131.39125
134.0 0.00746 88.70211 133.11365
140.0 0.00714 88.62095 134.94194
122.0 0.00820 88.53976 136.88162
142.0 0.00704 88.45865 138.93845
154.0 0.00649 88.37748 141.11813
142.0 0.00704 88.29639 143.42705
137.0 0.00730 88.21526 145.87170
167.0 0.00599 88.13421 148.45885
140.0 0.00714 88.05313 151.19547
150.0 0.00667 87.97211 154.08904
131.0 0.00763 87.89110 157.14720
159.0 0.00629 87.81008 160.37773
145.0 0.00690 87.72911 163.88156
154.0 0.00649 87.64815 167.48184
152.0 0.00658 87.56722 171.27852
140.0 0.00714 87.48629 175.27921
165.0 0.00606 87.40542 179.49091
189.0 0.00529 87.32455 183.92007
191.0 0.00524 87.24374 188.57190
199.0 0.00503 87.16293 193.45035
198.0 0.00505 87.08215 198.55772
205.0 0.00488 87.00142 203.89426
188.0 0.00532 86.92068 209.45792
214.0 0.00467 86.84001 215.24419
198.0 0.00505 86.75934 221.29181
221.0 0.00452 86.67872 227.49800
214.0 0.00467 86.59815 233.89493
208.0 0.00481 86.51757 240.46547
226.0 0.00442 86.43707 247.18938
241.0 0.00415 86.35656 254.38484
262.0 0.00382 86.27612 261.34546
239.0 0.00418 86.19569 268.38135
242.0 0.00413 86.11534 275.46231
267.0 0.00375 86.03497 282.55634
248.0 0.00403 85.95471 289.63013
289.0 0.003460 85.87444 296.64978
253.0 0.00395 85.79423 303.58047
287.0 0.003484 85.71405 310.38602
282.0 0.00355 85.63391 317.02908
319.0 0.003135 85.55385 323.46988
308.0 0.003247 85.47378 329.66562
331.0 0.003021 85.39380 335.74030
285.0 0.00351 85.31382 341.30505
309.0 0.003236 85.23394 346.47678
315.0 0.003175 85.15409 351.20181
312.0 0.003205 85.07426 355.42902
358.0 0.002793 84.99452 359.11206
322.0 0.003106 84.91479 362.21439
362.0 0.002762 84.83515 364.71185
328.0 0.003049 84.75553 366.59622
331.0 0.003021 84.67599 367.87570
318.0 0.003145 84.59650 368.57401
357.0 0.002801 84.51706 368.72812
313.0 0.003195 84.43768 368.38467
320.0 0.003125 84.35833 367.59521
329.0 0.003040 84.27907 366.41272
337.0 0.002967 84.19984 364.88901
354.0 0.002825 84.12070 363.07251
346.0 0.002890 84.04159 361.00836
352.0 0.002841 83.96256 358.73828
345.0 0.002899 83.88361 356.30206
319.0 0.003135 83.80468 353.73770
316.0 0.003165 83.72585 351.08246
328.0 0.003049 83.64704 348.37360
327.0 0.003058 83.56834 345.64130
327.0 0.003058 83.48968 342.91791
404.0 0.002475 83.41110 340.28882
384.0 0.002604 83.33258 337.65762
374.0 0.002674 83.25414 335.09851
377.0 0.002653 83.17577 332.75928
379.0 0.002639 83.09746 330.37854
346.0 0.002890 83.01923 328.07843
333.0 0.003003 82.94105 325.86304
324.0 0.003086 82.86298 324.02710
312.0 0.003205 82.78494 321.96155
319.0 0.003135 82.70702 319.95490
323.0 0.003096 82.62916 317.99515
284.0 0.00352 82.55137 316.06708
342.0 0.002924 82.47368 314.18713
349.0 0.002865 82.39603 312.28183
357.0 0.002801 82.31849 310.36664
312.0 0.003205 82.24100 308.42764
285.0 0.00351 82.16365 306.52164
322.0 0.003106 82.08632 304.49982
298.0 0.003356 82.00911 302.42087
275.0 0.00364 81.93198 300.42627
274.0 0.00365 81.85492 298.22815
264.0 0.00379 81.77797 295.93192
268.0 0.00373 81.70108 293.54980
264.0 0.00379 81.62431 291.07550
266.0 0.00376 81.54759 289.26215
268.0 0.00373 81.47100 286.65640
232.0 0.00431 81.39447 283.87003
243.0 0.00412 81.31805 280.95959
259.0 0.00386 81.24174 277.91385
243.0 0.00412 81.16549 274.72189
258.0 0.00388 81.08936 271.37265
227.0 0.00441 81.01331 267.85629
208.0 0.00481 80.93736 264.16541
242.0 0.00413 80.86149 260.29611
227.0 0.00441 80.78576 256.24902
221.0 0.00452 80.71013 252.02986
232.0 0.00431 80.63455 248.02763
197.0 0.00508 80.55912 243.53749
228.0 0.00439 80.48376 238.88654
222.0 0.00450 80.40853 234.12822
198.0 0.00505 80.33337 229.28398
187.0 0.00535 80.25835 224.37508
196.0 0.00510 80.18342 219.42220
190.0 0.00526 80.10862 214.44476
175.0 0.00571 80.03391 209.46170
195.0 0.00513 79.95930 204.49109
179.0 0.00559 79.88483 199.55099
150.0 0.00667 79.81043 194.65948
177.0 0.00565 79.73619 189.83505
160.0 0.00625 79.66202 185.09586
169.0 0.00592 79.58801 180.46013
178.0 0.00562 79.51406 175.94507
178.0 0.00562 79.44028 171.56679
155.0 0.00645 79.36662 167.33958
148.0 0.00676 79.29304 163.27596
152.0 0.00658 79.21960 159.38583
143.0 0.00699 79.14626 155.67712
146.0 0.00685 79.07307 152.15530
151.0 0.00662 78.99998 148.82367
120.0 0.00833 78.92703 145.68381
130.0 0.00769 78.85422 142.73532
153.0 0.00654 78.78150 139.97617
127.0 0.00787 78.70894 137.40329
160.0 0.00625 78.63647 135.01231
160.0 0.00625 78.56416 132.79807
146.0 0.00685 78.49197 130.75447
120.0 0.00833 78.41992 128.87526
127.0 0.00787 78.34798 127.15340
123.0 0.00813 78.27620 125.63087
130.0 0.00769 78.20456 124.20287
119.0 0.00840 78.13302 122.91055
121.0 0.00826 78.06165 121.74667
124.0 0.00806 77.99038 120.70418
121.0 0.00826 77.91928 119.77608
113.0 0.00885 77.84831 118.99912
115.0 0.00870 77.77750 118.28131
122.0 0.00820 77.70679 117.78475
123.0 0.00813 77.63626 117.25408
117.0 0.00855 77.56586 116.80859
119.0 0.00840 77.49561 116.44365
121.0 0.00826 77.42551 116.15502
122.0 0.00820 77.35554 115.93896
107.0 0.00935 77.28574 115.79218
124.0 0.00806 77.21606 115.71165
121.0 0.00826 77.14656 115.69508
96.0 0.01042 77.07722 115.74011
121.0 0.00826 77.00799 115.84515
119.0 0.00840 76.93896 116.03029
126.0 0.00794 76.87003 116.27853
96.0 0.01042 76.80130 116.66823
132.0 0.00758 76.73270 117.00303
140.0 0.00714 76.66428 117.39355
123.0 0.00813 76.59601 117.83949
124.0 0.00806 76.52790 118.27973
118.0 0.00847 76.45998 118.83730
124.0 0.00806 76.39219 119.45073
127.0 0.00787 76.32457 120.12032
130.0 0.00769 76.25710 120.84641
127.0 0.00787 76.18982 121.62940
128.0 0.00781 76.12270 122.46956
123.0 0.00813 76.05576 123.36729
136.0 0.00735 75.98895 124.33646
139.0 0.00719 75.92236 125.37952
125.0 0.00800 75.85593 126.47904
130.0 0.00769 75.78964 127.51356
118.0 0.00847 75.72356 128.70491
122.0 0.00820 75.65762 129.95575
135.0 0.00741 75.59189 131.26685
143.0 0.00699 75.52632 132.63902
137.0 0.00730 75.46093 134.07362
136.0 0.00735 75.39574 135.57243
129.0 0.00775 75.33069 137.13736
163.0 0.00613 75.26586 138.77138
141.0 0.00709 75.20119 140.47749
125.0 0.00800 75.13673 142.25964
146.0 0.00685 75.07243 144.12177
159.0 0.00629 75.00834 146.06876
118.0 0.00847 74.94440 148.10513
162.0 0.00617 74.88068 150.23637
167.0 0.00599 74.81715 152.46744
150.0 0.00667 74.75379 154.80367
198.0 0.00505 74.69064 157.25000
154.0 0.00649 74.62768 159.81128
176.0 0.00568 74.56493 162.49211
171.0 0.00585 74.50233 165.29620
166.0 0.00602 74.43997 168.22716
176.0 0.00568 74.37778 171.28738
192.0 0.00521 74.31581 174.47855
217.0 0.00461 74.25406 177.80107
220.0 0.00455 74.19247 181.25427
187.0 0.00535 74.13112 184.83549
210.0 0.00476 74.06995 188.54079
219.0 0.00457 74.00899 192.36377
230.0 0.00435 73.94823 196.29622
191.0 0.00524 73.88770 200.32739
260.0 0.00385 73.82737 204.44444
257.0 0.00389 73.76724 208.63124
226.0 0.00442 73.70732 212.86969
250.0 0.00400 73.64761 217.13876
267.0 0.00375 73.58813 221.41515
257.0 0.00389 73.52885 225.67319
290.0 0.003448 73.46981 229.88512
262.0 0.00382 73.41096 234.02177
257.0 0.00389 73.35236 238.05278
278.0 0.00360 73.29398 241.94699
243.0 0.00412 73.23578 245.67363
293.0 0.003413 73.17783 249.20258
304.0 0.003289 73.12010 252.50549
274.0 0.00365 73.06260 255.55637
297.0 0.003367 73.00532 258.33197
295.0 0.003390 72.94827 260.81281
298.0 0.003356 72.89143 263.01828
332.0 0.003012 72.83486 265.02551
275.0 0.00364 72.77851 266.54477
296.0 0.003378 72.72237 267.72949
309.0 0.003236 72.66649 268.57834
327.0 0.003058 72.61082 269.09274
318.0 0.003145 72.55540 269.27689
294.0 0.003401 72.50021 269.13718
282.0 0.00355 72.44528 268.68204
266.0 0.00376 72.39059 267.92264
287.0 0.003484 72.33611 266.87354
291.0 0.003436 72.28190 265.54755
272.0 0.00368 72.22790 263.96381
273.0 0.00366 72.17419 262.15927
280.0 0.00357 72.12070 260.19891
258.0 0.00388 72.06746 257.96332
256.0 0.00391 72.01448 255.55223
250.0 0.00400 71.96174 252.98619
260.0 0.00385 71.90926 250.28445
244.0 0.00410 71.85703 247.46480
257.0 0.00389 71.80505 244.54411
265.0 0.00377 71.75333 241.53810
236.0 0.00424 71.70187 238.46210
250.0 0.00400 71.65065 235.33173
246.0 0.00407 71.59972 232.16388
257.0 0.00389 71.54902 228.97476
227.0 0.00441 71.49860 225.78407
246.0 0.00407 71.44846 222.61197
245.0 0.00408 71.39854 219.47974
251.0 0.00398 71.34893 216.40929
228.0 0.00439 71.29955 213.42229
242.0 0.00413 71.25047 210.54022
192.0 0.00521 71.20164 207.78381
215.0 0.00465 71.15310 205.17274
231.0 0.00433 71.10483 202.72574
235.0 0.00426 71.05682 200.46126
219.0 0.00457 71.00910 198.39725
223.0 0.00448 70.96164 196.55170
250.0 0.00400 70.91447 194.94286
233.0 0.00429 70.86757 193.58936
206.0 0.00485 70.82098 192.51025
222.0 0.00450 70.77462 191.72501
203.0 0.00493 70.72859 191.25305
216.0 0.00463 70.68284 191.11412
212.0 0.00472 70.63734 191.32713
239.0 0.00418 70.59218 191.91106
227.0 0.00441 70.54726 192.88388
214.0 0.00467 70.50266 194.26295
235.0 0.00426 70.45834 196.06473
212.0 0.00472 70.41433 198.30473
241.0 0.00415 70.37059 200.99715
242.0 0.00413 70.32716 204.15511
231.0 0.00433 70.28403 207.79034
237.0 0.00422 70.24120 211.91277
237.0 0.00422 70.19865 216.53073
248.0 0.00403 70.15641 221.65021
262.0 0.00382 70.11449 227.27505
280.0 0.00357 70.07285 233.40613
273.0 0.00366 70.03153 240.04108
274.0 0.00365 69.99052 247.17416
295.0 0.003390 69.94981 254.79552
295.0 0.003390 69.90942 262.89069
346.0 0.002890 69.86932 271.44061
333.0 0.003003 69.82956 280.42038
313.0 0.003195 69.79010 289.79977
348.0 0.002874 69.75096 299.54239
340.0 0.002941 69.71213 309.60568
357.0 0.002801 69.67362 319.94098
362.0 0.002762 69.63544 330.49332
396.0 0.002525 69.59756 341.20255
371.0 0.002695 69.56002 352.00302
425.0 0.002353 69.52280 362.82544
404.0 0.002475 69.48590 373.59680
431.0 0.002320 69.44933 384.24185
452.0 0.002212 69.41309 394.68414
479.0 0.002088 69.37717 404.84604
521.0 0.001919 69.34161 414.65005
509.0 0.001965 69.30636 424.02368
481.0 0.002079 69.27144 432.87637
532.0 0.001880 69.23688 441.13495
557.0 0.001795 69.20262 448.71890
540.0 0.001852 69.16873 455.54819
570.0 0.001754 69.13515 461.54321
608.0 0.001645 69.10194 466.61087
611.0 0.001637 69.06907 470.71371
591.0 0.001692 69.03652 473.77356
624.0 0.001603 69.00434 475.75644
604.0 0.001656 68.97249 476.59872
645.0 0.001550 68.94100 476.30035
612.0 0.001634 68.90987 474.86508
621.0 0.001610 68.87907 472.31531
595.0 0.001681 68.84863 468.69037
581.0 0.001721 68.81856 464.04367
591.0 0.001692 68.78883 458.43912
535.0 0.001869 68.75946 451.93945
512.0 0.001953 68.73045 444.63641
554.0 0.001805 68.70179 436.59821
540.0 0.001852 68.67351 427.90146
504.0 0.001984 68.64558 418.62241
484.0 0.002066 68.61803 408.83713
540.0 0.001852 68.59082 398.62140
494.0 0.002024 68.56400 387.99194
454.0 0.002203 68.53756 377.14557
410.0 0.002439 68.51146 366.09979
408.0 0.002451 68.48576 354.82324
414.0 0.002415 68.46042 343.61160
404.0 0.002475 68.43546 332.42947
392.0 0.002551 68.41088 321.34769
398.0 0.002513 68.38667 310.43234
357.0 0.002801 68.36285 299.74469
344.0 0.002907 68.33939 289.33862
354.0 0.002825 68.31634 279.26196
354.0 0.002825 68.29366 269.55551
317.0 0.003155 68.27138 260.22382
315.0 0.003175 68.24946 251.35385
303.0 0.003300 68.22796 242.88292
300.0 0.003333 68.20683 234.93698
283.0 0.00353 68.18610 227.32614
265.0 0.00377 68.16577 220.21559
244.0 0.00410 68.14582 213.73221
230.0 0.00435 68.12629 207.73965
235.0 0.00426 68.10713 202.23466
241.0 0.00415 68.08839 197.21167
254.0 0.00394 68.07005 192.66286
266.0 0.00376 68.05212 188.57870
224.0 0.00446 68.03458 184.94830
246.0 0.00407 68.01746 181.75967
232.0 0.00431 68.00074 178.99979
209.0 0.00478 67.98444 176.58167
236.0 0.00424 67.96854 174.17244
207.0 0.00483 67.95304 172.61842
227.0 0.00441 67.93798 171.43567
184.0 0.00543 67.92332 170.60913
212.0 0.00472 67.90909 170.12372
214.0 0.00467 67.89527 169.96416
212.0 0.00472 67.88188 170.11525
217.0 0.00461 67.86890 170.56165
231.0 0.00433 67.85635 171.28809
182.0 0.00549 67.84423 172.27910
209.0 0.00478 67.83253 173.51895
218.0 0.00459 67.82126 174.99980
203.0 0.00493 67.81042 176.68950
211.0 0.00474 67.80001 178.57932
223.0 0.00448 67.79005 180.65208
208.0 0.00481 67.78051 182.89058
219.0 0.00457 67.77141 185.27663
216.0 0.00463 67.76275 187.79213
218.0 0.00459 67.75452 190.41873
225.0 0.00444 67.74674 193.13786
212.0 0.00472 67.73940 195.93156
213.0 0.00469 67.73251 198.78214
223.0 0.00448 67.72607 201.67255
245.0 0.00408 67.72008 204.60564
232.0 0.00431 67.71452 207.52795
231.0 0.00433 67.70944 210.44388
219.0 0.00457 67.70479 213.33928
269.0 0.00372 67.70061 216.20032
258.0 0.00388 67.69688 219.01315
247.0 0.00405 67.69361 221.76353
252.0 0.00397 67.69080 224.43639
276.0 0.00362 67.68845 227.01591
277.0 0.00361 67.68657 229.48531
257.0 0.00389 67.68515 231.82687
264.0 0.00379 67.68418 234.02238
246.0 0.00407 67.68369 236.05339
262.0 0.00382 67.68368 237.90128
269.0 0.00372 67.68415 239.54851
282.0 0.00355 67.68507 240.97845
288.0 0.003472 67.68648 242.17618
320.0 0.003125 67.68836 243.12871
279.0 0.00358 67.69071 243.82544
291.0 0.003436 67.69356 244.25864
277.0 0.00361 67.69688 244.42282
315.0 0.003175 67.70068 244.31595
288.0 0.003472 67.70496 243.93828
280.0 0.00357 67.70974 243.29309
271.0 0.00369 67.71500 242.38593
294.0 0.003401 67.72076 241.22488
294.0 0.003401 67.72701 239.81987
247.0 0.00405 67.73375 238.18262
250.0 0.00400 67.74099 236.32657
292.0 0.003425 67.74872 234.26614
297.0 0.003367 67.75695 232.01717
273.0 0.00366 67.76568 229.59624
274.0 0.00365 67.77493 227.02080
248.0 0.00403 67.78467 224.30894
270.0 0.00370 67.79491 221.47937
258.0 0.00388 67.80566 218.55116
261.0 0.00383 67.81693 215.54388
222.0 0.00450 67.82870 212.47701
244.0 0.00410 67.84098 209.37041
224.0 0.00446 67.85378 206.27998
214.0 0.00467 67.86710 203.15208
188.0 0.00532 67.88094 200.04149
216.0 0.00463 67.89529 196.96631
211.0 0.00474 67.91017 193.94347
223.0 0.00448 67.92557 190.98932
233.0 0.00429 67.94150 188.11864
201.0 0.00498 67.95795 185.34554
186.0 0.00538 67.97493 182.68280
206.0 0.00485 67.99245 180.14195
180.0 0.00556 68.01048 177.73352
207.0 0.00483 68.02907 175.46671
196.0 0.00510 68.04818 173.34959
176.0 0.00568 68.06783 171.38943
178.0 0.00562 68.08802 169.61032
188.0 0.00532 68.10874 167.98079
182.0 0.00549 68.13003 166.52296
203.0 0.00493 68.15185 165.23967
176.0 0.00568 68.17421 164.13297
198.0 0.00505 68.19713 163.20387
164.0 0.00610 68.22059 162.45226
168.0 0.00595 68.24460 161.87730
191.0 0.00524 68.26917 161.47690
165.0 0.00606 68.29430 161.24818
177.0 0.00565 68.31998 161.18706
163.0 0.00613 68.34623 161.28836
155.0 0.00645 68.37302 161.54594
162.0 0.00617 68.40039 161.95247
176.0 0.00568 68.42832 162.49948
177.0 0.00565 68.45682 163.17744
171.0 0.00585 68.48589 163.97556
163.0 0.00613 68.51553 164.88203
170.0 0.00588 68.54574 165.88403
160.0 0.00625 68.57652 166.96730
163.0 0.00613 68.60787 168.11708
161.0 0.00621 68.63981 169.31708
167.0 0.00599 68.67232 170.55032
177.0 0.00565 68.70541 171.79895
169.0 0.00592 68.73909 173.06055
159.0 0.00629 68.77336 174.28325
160.0 0.00625 68.80820 175.46335
178.0 0.00562 68.84365 176.58090
168.0 0.00595 68.87968 177.61588
156.0 0.00641 68.91630 178.55949
183.0 0.00546 68.95351 179.37248
167.0 0.00599 68.99133 180.04852
191.0 0.00524 69.02975 180.57291
203.0 0.00493 69.06875 180.93341
176.0 0.00568 69.10837 181.12083
166.0 0.00602 69.14859 181.12897
163.0 0.00613 69.18942 180.95500
198.0 0.00505 69.23084 180.59888
176.0 0.00568 69.27288 180.06339
153.0 0.00654 69.31554 179.36169
177.0 0.00565 69.35880 178.48431
166.0 0.00602 69.40268 177.44751
155.0 0.00645 69.44717 176.26045
181.0 0.00552 69.49229 174.95724
170.0 0.00588 69.53802 173.49883
181.0 0.00552 69.58440 171.92178
163.0 0.00613 69.63136 170.23248
167.0 0.00599 69.67896 168.44341
163.0 0.00613 69.72721 166.56512
189.0 0.00529 69.77608 164.60835
170.0 0.00588 69.82559 162.58426
159.0 0.00629 69.87572 160.50381
137.0 0.00730 69.92651 158.37801
165.0 0.00606 69.97791 156.21780
145.0 0.00690 70.02995 154.03363
129.0 0.00775 70.08266 151.83583
121.0 0.00826 70.13599 149.63374
144.0 0.00694 70.18997 147.43655
130.0 0.00769 70.24460 145.25220
136.0 0.00735 70.29990 143.08826
144.0 0.00694 70.35582 140.95226
138.0 0.00725 70.41241 138.84792
164.0 0.00610 70.46965 136.78117
135.0 0.00741 70.52754 134.83899
134.0 0.00746 70.58611 132.85919
128.0 0.00781 70.64532 130.92677
135.0 0.00741 70.70522 129.04335
127.0 0.00787 70.76576 127.21001
121.0 0.00826 70.82700 125.42731
128.0 0.00781 70.88886 123.69516
110.0 0.00909 70.95145 122.01328
130.0 0.00769 71.01467 120.38117
115.0 0.00870 71.07857 118.79811
123.0 0.00813 71.14317 117.26351
113.0 0.00885 71.20844 115.77653
109.0 0.00917 71.27440 114.33675
124.0 0.00806 71.34102 112.94357
110.0 0.00909 71.40836 111.59657
129.0 0.00775 71.47633 110.33698
104.0 0.00962 71.54503 109.08125
108.0 0.00926 71.61442 107.90209
103.0 0.00971 71.68450 106.73576
113.0 0.00885 71.75529 105.61300
106.0 0.00943 71.82676 104.53323
100.0 0.01000 71.89895 103.49562
105.0 0.00952 71.97180 102.49920
108.0 0.00926 72.04540 101.54318
114.0 0.00877 72.11968 100.62661
96.0 0.01042 72.19466 99.74854
107.0 0.00935 72.27039 98.90812
111.0 0.00901 72.34678 98.10438
109.0 0.00917 72.42393 97.33669
107.0 0.00935 72.50177 96.60400
95.0 0.01053 72.58035 95.98048
105.0 0.00952 72.65962 95.31615
109.0 0.00917 72.73964 94.68460
100.0 0.01000 72.82037 94.08482
106.0 0.00943 72.90181 93.51621
106.0 0.00943 72.98402 92.97772
97.0 0.01031 73.06692 92.46853
107.0 0.00935 73.15058 91.98772
86.0 0.01163 73.23495 91.61358
94.0 0.01064 73.32011 91.18719
104.0 0.00962 73.40594 90.78628
85.0 0.01176 73.49254 90.40988
97.0 0.01031 73.57990 90.05717
110.0 0.00909 73.66797 89.72694
98.0 0.01020 73.75683 89.41851
117.0 0.00855 73.84640 89.19550
104.0 0.00962 73.93677 88.47748
87.0 0.01149 74.02784 88.23152
86.0 0.01163 74.11971 88.00355
104.0 0.00962 74.21230 87.79263
104.0 0.00962 74.30565 87.59799
102.0 0.00980 74.39980 87.41896
110.0 0.00909 74.49467 87.25455
95.0 0.01053 74.59035 87.10413
94.0 0.01064 74.68677 87.00701
85.0 0.01176 74.78399 86.88264
101.0 0.00990 74.88194 86.77014
92.0 0.01087 74.98071 86.66902
105.0 0.00952 75.08021 86.24661
76.0 0.01316 75.18050 86.16825
102.0 0.00980 75.28162 86.13205
89.0 0.01124 75.38346 86.07259
80.0 0.01250 75.48613 86.02178
97.0 0.01031 75.58955 85.97917
107.0 0.00935 75.69380 85.94434
105.0 0.00952 75.79882 85.91693
104.0 0.00962 75.90462 85.89655
87.0 0.01149 76.01125 85.88292
109.0 0.00917 76.11865 85.87556
94.0 0.01064 76.22688 85.87444
88.0 0.01136 76.33588 85.53905
93.0 0.01075 76.44572 85.55185
86.0 0.01163 76.55634 85.56989
100.0 0.01000 76.66780 85.59309
89.0 0.01124 76.78004 85.62109
106.0 0.00943 76.89308 85.65845
93.0 0.01075 77.00697 85.69628
90.0 0.01111 77.12165 85.73779
86.0 0.01163 77.23721 85.78356
92.0 0.01087 77.35352 85.83330
105.0 0.00952 77.47073 85.88690
95.0 0.01053 77.58870 85.94424
90.0 0.01111 77.70755 85.82288
97.0 0.01031 77.82718 85.88879
81.0 0.01235 77.94765 85.95811
88.0 0.01136 78.06900 86.03088
86.0 0.01163 78.19113 86.10692
75.0 0.01333 78.31417 86.18638
89.0 0.01124 78.43800 86.26904
84.0 0.01190 78.56271 86.35505
94.0 0.01064 78.68822 86.49564
87.0 0.01149 78.81459 86.58908
77.0 0.01299 78.94186 86.68580
90.0 0.01111 79.06993 86.78603
117.0 0.00855 79.19891 86.88995
96.0 0.01042 79.32870 86.99764
79.0 0.01266 79.45940 87.10939
85.0 0.01176 79.59090 87.22520
80.0 0.01250 79.72334 87.34543
95.0 0.01053 79.85658 87.47011
88.0 0.01136 79.99069 87.59957
75.0 0.01333 80.12572 87.73412
110.0 0.00909 80.26157 87.87389
92.0 0.01087 80.39837 88.01937
78.0 0.01282 80.53598 88.19501
97.0 0.01031 80.67452 88.35284
98.0 0.01020 80.81390 88.51719
94.0 0.01064 80.95422 88.68856
80.0 0.01250 81.09538 88.86724
74.0 0.01351 81.23742 89.05369
105.0 0.00952 81.38040 89.24831
94.0 0.01064 81.52423 89.45156
77.0 0.01299 81.66901 89.66391
101.0 0.00990 81.81464 89.88571
95.0 0.01053 81.96121 90.11765
98.0 0.01020 82.10864 90.35999
80.0 0.01250 82.25697 90.61339
80.0 0.01250 82.40629 90.87830
86.0 0.01163 82.55644 91.15513
103.0 0.00971 82.70757 91.44461
92.0 0.01087 82.85957 91.74696
75.0 0.01333 83.01251 92.06281
95.0 0.01053 83.16634 92.39252
92.0 0.01087 83.32114 92.73668
88.0 0.01136 83.47681 93.09548
87.0 0.01149 83.63341 93.46940
93.0 0.01075 83.79099 93.85881
78.0 0.01282 83.94946 94.26379
81.0 0.01235 84.10892 94.68468
84.0 0.01190 84.26925 95.12144
92.0 0.01087 84.43058 95.57412
81.0 0.01235 84.59279 96.04256
113.0 0.00885 84.75601 96.52666
95.0 0.01053 84.92012 97.02594
82.0 0.01220 85.08515 97.53987
83.0 0.01205 85.25123 98.06795
74.0 0.01351 85.41818 98.60921
89.0 0.01124 85.58616 99.16281
73.0 0.01370 85.75503 99.72747
78.0 0.01282 85.92493 100.30201
73.0 0.01370 86.09571 100.90122
79.0 0.01266 86.26747 101.49103
85.0 0.01176 86.44027 102.08595
71.0 0.01408 86.61395 102.68394
94.0 0.01064 86.78870 103.28330
100.0 0.01000 86.96434 103.88179
87.0 0.01149 87.14102 104.47739
73.0 0.01370 87.31863 105.06771
83.0 0.01205 87.49728 105.65065
98.0 0.01020 87.67684 106.22359
94.0 0.01064 87.85740 106.78422
82.0 0.01220 88.03900 107.32987
81.0 0.01235 88.22154 107.85784
95.0 0.01053 88.40515 108.36543
101.0 0.00990 88.58968 108.84966
89.0 0.01124 88.77526 109.30778
70.0 0.01429 88.96179 109.74516
84.0 0.01190 89.14939 110.14282
71.0 0.01408 89.33794 110.50627
90.0 0.01111 89.52748 110.83349
79.0 0.01266 89.71811 111.12280
89.0 0.01124 89.90968 111.37283
60.0 0.01667 90.10234 111.58302
92.0 0.01087 90.29595 111.75317
82.0 0.01220 90.49066 111.88380
95.0 0.01053 90.68631 111.97567
92.0 0.01087 90.88300 112.03031
97.0 0.01031 91.08077 112.04949
74.0 0.01351 91.27952 112.03519
92.0 0.01087 91.47935 111.98964
76.0 0.01316 91.68016 111.91492
80.0 0.01250 91.88209 111.82987
65.0 0.01538 92.08497 111.70435
90.0 0.01111 92.28900 111.55690
87.0 . . .
loop_
_refln_index_h
_refln_index_k
_refln_index_l
_pd_refln_wavelength_id
_refln_observed_status
_refln_F_squared_meas
_refln_F_squared_calc
_refln_phase_calc
_refln_d_spacing
_gsas_i100_meas
0 0 1 1 o 7449.151 8054.935 0.00 4.74098 100.00
0 0 1 2 o 7492.652 8054.935 0.00 4.74098 50.07
1 1 0 1 o 1634.437 878.116 0.00 4.09440 34.23
1 1 0 2 o 1628.154 878.116 0.00 4.09440 16.97
0 2 0 1 o 1099.045 695.767 180.00 4.26383 12.38
0 2 0 2 o 1191.269 695.767 180.00 4.26383 6.69
1 1 -1 1 o 698.876 439.712 0.00 3.66354 11.92
1 1 -1 2 o 686.658 439.712 0.00 3.66354 5.83
0 2 1 1 o 170.016 95.602 180.00 3.17030 2.25
0 2 1 2 o 174.119 95.602 180.00 3.17030 1.15
1 1 1 1 o 166.646 120.969 0.00 2.73408 1.71
1 1 1 2 o 150.512 120.969 0.00 2.73408 0.77
2 0 -1 1 o 2914.194 3307.924 0.00 2.43380 12.12
2 0 -1 2 o 2940.293 3307.924 0.00 2.43380 6.09
2 0 0 1 o 553.618 742.027 0.00 2.33380 2.13
2 0 0 2 o 550.193 742.027 0.00 2.33380 1.05
1 1 -2 1 o 57.575 77.672 0.00 2.36794 0.45
1 1 -2 2 o 56.514 77.672 0.00 2.36794 0.22
1 3 0 1 o 3591.060 3855.396 180.00 2.42778 29.87
1 3 0 2 o 3584.032 3855.396 180.00 2.42778 14.85
0 0 2 1 o 393.764 533.203 0.00 2.37049 1.60
0 0 2 2 o 384.570 533.203 0.00 2.37049 0.78
1 3 -1 1 o 428.812 608.106 180.00 2.32800 3.33
1 3 -1 2 o 413.243 608.106 180.00 2.32800 1.60
2 2 -1 1 o 131.942 104.122 0.00 2.11370 0.99
2 2 -1 2 o 130.115 104.122 0.00 2.11370 0.49
0 2 2 1 o 13.830 12.936 180.00 2.07183 0.09
2 0 -2 1 o 15007.915 14441.755 0.00 2.02850 47.14
0 2 2 2 o 13.638 12.936 180.00 2.07183 0.05
2 2 0 1 o 1.322 1.196 180.00 2.04720 0.02
2 0 -2 2 o 15001.229 14441.755 0.00 2.02850 23.46
2 2 0 2 o 1.324 1.196 180.00 2.04720 0.01
0 4 0 1 o 60.119 44.683 0.00 2.13192 0.26
0 4 0 2 o 62.965 44.683 0.00 2.13192 0.13
1 3 1 1 o 14964.646 14319.390 180.00 2.02533 93.77
1 3 1 2 o 14951.538 14319.390 180.00 2.02533 46.65
0 4 1 1 o 178.844 223.218 180.00 1.94437 1.01
0 4 1 2 o 182.989 223.218 180.00 1.94437 0.52
2 0 1 1 o 2008.603 2173.444 0.00 1.86547 5.32
2 0 1 2 o 2001.933 2173.444 0.00 1.86547 2.64
1 3 -2 1 o 1692.295 1883.015 180.00 1.86225 8.91
1 3 -2 2 o 1687.381 1883.015 180.00 1.86225 4.42
1 1 2 1 o 8.918 9.601 0.00 1.83531 0.05
2 2 -2 1 o 209.728 221.112 180.00 1.83177 1.09
1 1 2 2 o 9.091 9.601 0.00 1.83531 0.03
2 2 -2 2 o 217.337 221.112 180.00 1.83177 0.56
2 2 1 1 o 318.975 452.854 180.00 1.70906 1.49
2 2 1 2 o 328.251 452.854 180.00 1.70906 0.76
1 1 -3 1 o 67.176 29.020 0.00 1.64142 0.29
1 1 -3 2 o 67.207 29.020 0.00 1.64142 0.15
3 1 -1 1 o 231.135 87.802 0.00 1.61703 0.97
3 1 -1 2 o 226.410 87.802 0.00 1.61703 0.48
2 0 -3 1 o 4030.621 3255.824 0.00 1.56901 7.96
0 0 3 1 o 1315.188 987.367 0.00 1.58033 2.62
2 0 -3 2 o 4061.943 3255.824 0.00 1.56901 3.99
0 0 3 2 o 1255.140 987.367 0.00 1.58033 1.24
0 4 2 1 o 597.016 419.097 180.00 1.58515 2.43
2 4 -1 1 o 157.727 72.305 180.00 1.60367 0.65
0 4 2 2 o 553.439 419.097 180.00 1.58515 1.12
2 4 -1 2 o 142.255 72.305 180.00 1.60367 0.29
1 3 2 1 o 3664.718 3029.275 180.00 1.56770 14.43
1 3 2 2 o 3723.363 3029.275 180.00 1.56770 7.30
1 5 0 1 o 264.368 124.828 0.00 1.60194 1.10
1 5 0 2 o 238.808 124.828 0.00 1.60194 0.50
2 4 0 1 o 387.923 329.031 180.00 1.57403 1.55
2 4 0 2 o 383.126 329.031 180.00 1.57403 0.76
1 5 -1 1 o 5.772 4.674 180.00 1.57225 0.04
3 1 0 1 o 22.098 17.417 180.00 1.53060 0.12
3 1 -2 1 o 649.321 551.570 0.00 1.53032 2.49
1 5 -1 2 o 5.776 4.674 180.00 1.57225 0.02
3 1 0 2 o 22.348 17.417 180.00 1.53060 0.06
3 1 -2 2 o 657.732 551.570 0.00 1.53032 1.26
0 2 3 1 o 49.923 43.609 180.00 1.48182 0.18
0 2 3 2 o 44.572 43.609 180.00 1.48182 0.08
2 2 -3 1 o 265.362 297.028 180.00 1.47248 0.95
2 2 -3 2 o 258.893 297.028 180.00 1.47248 0.46
2 0 2 1 o 6824.734 6800.150 0.00 1.44323 11.64
2 4 -2 1 o 4.482 7.065 0.00 1.46957 0.04
2 0 2 2 o 6806.193 6800.150 0.00 1.44323 5.78
2 4 -2 2 o 4.832 7.065 0.00 1.46957 0.02
1 5 1 1 o 275.427 339.409 0.00 1.46836 0.98
1 5 1 2 o 289.783 339.409 0.00 1.46836 0.52
1 3 -3 1 o 6924.960 6925.854 180.00 1.44162 23.59
1 3 -3 2 o 6907.247 6925.854 180.00 1.44162 11.71
3 3 -1 1 o 6070.624 6019.787 180.00 1.42502 20.22
3 3 -1 2 o 6061.365 6019.787 180.00 1.42502 10.05
2 4 1 1 o 376.570 444.886 180.00 1.40389 1.22
1 5 -2 1 o 11.923 15.423 180.00 1.40252 0.05
2 4 1 2 o 361.882 444.886 180.00 1.40389 0.58
1 5 -2 2 o 11.566 15.423 180.00 1.40252 0.03
2 2 2 1 o 247.601 276.820 180.00 1.36704 0.77
0 6 0 1 o 6144.522 6037.248 0.00 1.42128 10.19
2 2 2 2 o 248.850 276.820 180.00 1.36704 0.39
0 6 0 2 o 6022.535 6037.248 0.00 1.42128 4.97
1 1 3 1 o 37.230 43.295 0.00 1.34967 0.11
3 3 0 1 o 1435.841 1586.451 180.00 1.36480 4.36
3 3 -2 1 o 1728.597 1909.106 180.00 1.36460 5.26
1 1 3 2 o 35.978 43.295 0.00 1.34967 0.05
3 3 0 2 o 1438.880 1586.451 180.00 1.36480 2.17
3 3 -2 2 o 1731.078 1909.106 180.00 1.36460 2.62
3 1 1 1 o 9.698 14.913 0.00 1.33602 0.03
3 1 -3 1 o 70.670 107.501 0.00 1.33564 0.21
3 1 1 2 o 8.770 14.913 0.00 1.33602 0.01
3 1 -3 2 o 64.317 107.501 0.00 1.33564 0.09
0 6 1 1 o 1717.296 1873.837 0.00 1.36142 5.20
0 6 1 2 o 1694.846 1873.837 0.00 1.36142 2.55
0 4 3 1 o 131.342 248.326 180.00 1.26956 0.35
0 4 3 2 o 126.328 248.326 180.00 1.26956 0.17
2 4 -3 1 o 87.800 171.560 180.00 1.26367 0.23
1 5 2 1 o 0.783 3.910 180.00 1.26298 0.01
2 4 -3 2 o 93.227 171.560 180.00 1.26367 0.12
1 5 2 2 o 1.029 3.910 180.00 1.26298 0.00
1 1 -4 1 o 63.405 73.355 0.00 1.23754 0.16
1 1 -4 2 o 64.509 73.355 0.00 1.23754 0.08
2 0 -4 1 o 467.764 526.418 0.00 1.23244 0.60
1 3 3 1 o 460.528 516.721 180.00 1.23187 1.18
2 0 -4 2 o 474.525 526.418 0.00 1.23244 0.30
1 3 3 2 o 467.426 516.721 180.00 1.23187 0.60
3 3 1 1 o 622.737 655.691 180.00 1.22146 1.57
3 3 -3 1 o 579.664 610.034 180.00 1.22118 1.46
3 3 1 2 o 618.117 655.691 180.00 1.22146 0.78
3 3 -3 2 o 574.149 610.034 180.00 1.22118 0.72
4 0 -1 1 o 1182.635 1315.160 0.00 1.23059 1.53
4 0 -1 2 o 1204.744 1315.160 0.00 1.23059 0.78
4 0 -2 1 o 710.185 761.159 0.00 1.21690 0.89
4 0 -2 2 o 697.248 761.159 0.00 1.21690 0.44
0 6 2 1 o 472.358 498.108 0.00 1.21897 1.20
0 6 2 2 o 459.881 498.108 0.00 1.21897 0.58
0 0 4 1 o 4468.221 3947.839 0.00 1.18525 5.59
2 6 -1 1 o 1088.352 1187.362 0.00 1.22733 2.79
2 6 -1 2 o 1129.719 1187.362 0.00 1.22733 1.45
0 0 4 2 o 4477.795 3947.839 0.00 1.18525 2.79
2 4 2 1 o 4.300 3.834 180.00 1.19513 0.02
1 5 -3 1 o 131.213 121.247 0.00 1.19422 0.33
2 4 2 2 o 4.441 3.834 180.00 1.19513 0.01
1 5 -3 2 o 134.412 121.247 0.00 1.19422 0.17
2 6 0 1 o 513.879 568.987 0.00 1.21389 1.29
2 2 -4 1 o 36.816 32.483 180.00 1.18397 0.09
2 6 0 2 o 518.940 568.987 0.00 1.21389 0.65
2 2 -4 2 o 36.857 32.483 180.00 1.18397 0.05
4 2 -1 1 o 406.737 357.348 180.00 1.18233 1.04
4 2 -1 2 o 407.238 357.348 180.00 1.18233 0.52
4 0 0 1 o 3776.994 3091.289 0.00 1.16690 4.63
4 0 0 2 o 3851.332 3091.289 0.00 1.16690 2.36
4 2 -2 1 o 6.773 5.558 180.00 1.17018 0.02
3 5 -1 1 o 194.985 169.027 0.00 1.18473 0.49
2 0 3 1 o 1696.097 1406.905 0.00 1.14571 2.03
0 2 4 2 o 107.569 93.551 180.00 1.14195 0.13
1 3 -4 1 o 1945.265 1619.852 180.00 1.14485 4.67
4 2 -2 2 o 6.869 5.558 180.00 1.17018 0.01
3 5 -1 2 o 191.118 169.027 0.00 1.18473 0.24
2 0 3 2 o 1667.537 1406.905 0.00 1.14571 1.00
1 3 -4 2 o 1909.680 1619.852 180.00 1.14485 2.28
0 2 4 1 o 110.276 93.551 180.00 1.14195 0.27
2 6 -2 1 o 3936.877 3149.862 0.00 1.16400 9.64
1 7 0 1 o 253.679 224.338 0.00 1.17875 0.62
2 6 -2 2 o 4000.990 3149.862 0.00 1.16400 4.89
1 7 0 2 o 261.759 224.338 0.00 1.17875 0.32
1 7 -1 2 o 442.147 350.669 0.00 1.16677 0.55
3 1 2 1 o 242.952 230.055 0.00 1.13038 0.58
3 1 -4 1 o 0.142 0.004 0.00 1.13005 0.01
1 7 -1 1 o 431.372 350.669 0.00 1.16677 1.07
3 1 2 2 o 243.671 230.055 0.00 1.13038 0.29
3 5 0 1 o 126.611 99.682 180.00 1.14944 0.33
3 1 -4 2 o 0.158 0.004 0.00 1.13005 0.00
3 5 -2 1 o 290.860 232.958 0.00 1.14932 0.72
4 0 -3 1 o 605.930 569.703 0.00 1.13286 0.72
3 5 0 2 o 124.042 99.682 180.00 1.14944 0.16
3 5 -2 2 o 285.457 232.958 0.00 1.14932 0.35
4 0 -3 2 o 594.424 569.703 0.00 1.13286 0.35
4 2 0 1 o 177.017 166.980 180.00 1.12551 0.42
2 6 1 1 o 762.664 740.762 0.00 1.13054 1.79
2 2 3 1 o 6.687 4.574 0.00 1.10646 0.02
4 2 0 2 o 187.034 166.980 180.00 1.12551 0.22
2 6 1 2 o 761.650 740.762 0.00 1.13054 0.89
2 2 3 2 o 5.122 4.574 0.00 1.10646 0.01
1 7 1 2 o 52.217 39.721 180.00 1.12237 0.08
1 7 1 1 o 45.760 39.721 180.00 1.12237 0.14
4 2 -3 2 o -5.300 75.638 0.00 1.09487 0.01
4 2 -3 1 o 6.033 75.638 0.00 1.09487 0.04
1 7 -2 1 o 5.045 177.565 0.00 1.09213 0.00
