#------------------------------------------------------------------------------
#$Date: 2016-02-16 22:30:59 +0200 (Tue, 16 Feb 2016) $
#$Revision: 176467 $
#$URL: svn://www.crystallography.net/cod/cif/4/00/12/4001241.cif $
#------------------------------------------------------------------------------
#
# This file is available in the Crystallography Open Database (COD),
# http://www.crystallography.net/
#
# All data on this site have been placed in the public domain by the
# contributors.
#
data_4001241
loop_
_publ_author_name
'Calvert, Craig'
'Joesten, Raymond'
'Ngala, Katana'
'Villegas, Josanlet'
'Morey, Aimee'
'Shen, Xiongfei'
'Suib, Steven L.'
_publ_section_title
;
 Synthesis, Characterization, and Rietveld Refinement of
 Tungsten-Framework-Doped Porous Manganese Oxide (K-OMS-2) Material
;
_journal_issue                   20
_journal_name_full               'Chemistry of Materials'
_journal_page_first              6382
_journal_paper_doi               10.1021/cm801146m
_journal_volume                  20
_journal_year                    2008
_chemical_formula_sum            'K0.07 Mn0.5 O W0'
_chemical_formula_weight         46.58
_chemical_name_systematic        ' ?'
_space_group_IT_number           87
_symmetry_cell_setting           tetragonal
_symmetry_space_group_name_Hall  '-I 4'
_symmetry_space_group_name_H-M   'I 4/m'
_audit_creation_date             2006-12-11T09:53
_audit_creation_method           'from EXP file using GSAS2CIF'
_audit_update_record
' 2006-12-11T09:53  Initial CIF as created by GSAS2CIF'
_cell_angle_alpha                90.0
_cell_angle_beta                 90.0
_cell_angle_gamma                90.0
_cell_formula_units_Z            16
_cell_length_a                   9.81605(14)
_cell_length_b                   9.81605
_cell_length_c                   2.85489(5)
_cell_volume                     275.082(6)
_computing_structure_refinement  GSAS
_diffrn_radiation_polarisn_ratio 0.5
_diffrn_radiation_probe          x-ray
_exptl_absorpt_correction_T_max  0.81523
_exptl_absorpt_correction_T_min  0.08609
_exptl_absorpt_process_details
;   GSAS Absorption/surface roughness correction: function number 3
 Surface roughness abs. correction (Suortti)
Terms =     0.31883E-01    0.39786    
Correction is not refined.
;
_pd_block_id
2006-12-11T09:53|W-ATE1-50D|Katana_Ngala|Scintag_XDS2000
_pd_calc_method                  'Rietveld Refinement'
_pd_instr_location               ' ?'
_pd_meas_2theta_range_inc        0.02
_pd_meas_2theta_range_max        80.0
_pd_meas_2theta_range_min        5.0
_pd_meas_number_of_points        3751
_pd_phase_name
'from C:/Documents and Settings/Katana Ngala/My Documents/refinemen'
_pd_proc_2theta_range_inc        0.02
_pd_proc_2theta_range_max        80.0
_pd_proc_2theta_range_min        5.0
_pd_proc_info_datetime           2006-12-11T09:53:51
_pd_proc_info_excluded_regions   ' ?'
_pd_proc_ls_background_function
;   GSAS Background function number 1 with  6 terms.
 Shifted Chebyshev function of 1st kind
      1:    1060.03     2:   -1208.63     3:    727.052     4:   -383.116    
      5:    141.412     6:   -23.5858    
;
_pd_proc_ls_peak_cutoff          0.00500
_pd_proc_ls_profile_function
;
 CW Profile function number 2 with  18 terms
 Profile coefficients for Simpson's rule integration of pseudovoigt function
 C.J. Howard (1982). J. Appl. Cryst.,15,615-620.
 P. Thompson, D.E. Cox & J.B. Hastings (1987). J. Appl. Cryst.,20,79-83.
 Peak tails are ignored  where the intensity is below 0.0050 times the peak
   Aniso. broadening axis   0.0   0.0   1.0
;
_pd_proc_ls_prof_R_factor        0.0426
_pd_proc_ls_prof_wR_expected     0.0274
_pd_proc_ls_prof_wR_factor       0.0569
_pd_proc_number_of_points        3751
_pd_spec_mounting                ' ?'
_refine_ls_goodness_of_fit_all   2.08
_refine_ls_matrix_type           full
_refine_ls_number_parameters     9
_refine_ls_number_restraints     0
_refine_ls_R_Fsqd_factor         0.06145
_refine_ls_shift/su_max          0.02
_refine_ls_shift/su_mean         0.01
_reflns_d_resolution_high        1.215
_reflns_d_resolution_low         3.470
_reflns_limit_h_max              8
_reflns_limit_h_min              0
_reflns_limit_k_max              8
_reflns_limit_k_min              0
_reflns_limit_l_max              2
_reflns_limit_l_min              0
_reflns_number_total             106
_cod_data_source_file            cm801146m_si_001.cif
_cod_data_source_block           W-ATE1-50D_publ
_cod_depositor_comments
;
The following automatic conversions were performed:

'_geom_bond_publ_flag' value 'N' changed to 'n' according to
/home/saulius/struct/CIF-dictionaries/cif_core.dic dictionary named
'cif_core.dic' version 2.4.1 from 2010-06-29 (87
times).

'_geom_angle_publ_flag' value 'N' changed to 'n' according
to /home/saulius/struct/CIF-dictionaries/cif_core.dic dictionary
named 'cif_core.dic' version 2.4.1 from 2010-06-29 (238 times).

Automatic conversion script
Id: cif_fix_values 1715 2011-07-08 13:25:40Z adriana 
;
_cod_original_cell_volume        275.083(8)
_cod_original_sg_symbol_H-M      I4/m
_cod_original_formula_sum        'K0.07 Mn0.50 O W0.00'
_cod_database_code               4001241
#BEGIN Tags that were not found in dictionaries:
_gsas_exptl_extinct_corr_t_min   1.00000
_gsas_exptl_extinct_corr_t_max   1.00000
#END Tags that were not found in dictionaries
loop_
_symmetry_equiv_pos_site_id
_symmetry_equiv_pos_as_xyz
1 +x,+y,+z
2 -y,+x,+z
3 -x,-y,+z
4 +y,-x,+z
-1 -x,-y,-z
-2 +y,-x,-z
-3 +x,+y,-z
-4 -y,+x,-z
101 +x+1/2,+y+1/2,+z+1/2
102 -y+1/2,+x+1/2,+z+1/2
103 -x+1/2,-y+1/2,+z+1/2
104 +y+1/2,-x+1/2,+z+1/2
-101 -x+1/2,-y+1/2,-z+1/2
-102 +y+1/2,-x+1/2,-z+1/2
-103 +x+1/2,+y+1/2,-z+1/2
-104 -y+1/2,+x+1/2,-z+1/2
loop_
_atom_site_type_symbol
_atom_site_label
_atom_site_fract_x
_atom_site_fract_y
_atom_site_fract_z
_atom_site_occupancy
_atom_site_thermal_displace_type
_atom_site_U_iso_or_equiv
_atom_site_symmetry_multiplicity
K K1 0.0 0.0 0.5 0.53102 Uiso 0.025 2
Mn Mn1 0.35047 0.16824 0.0 0.99193 Uiso 0.025 8
O O1 0.54683 0.16008 0.0 1.0 Uiso 0.025 8
O O2 0.15671 0.20136 0.0 1.0 Uiso 0.025 8
W W 0.35047 0.16824 0.0 0.00807 Uiso 0.025 8
loop_
_atom_type_symbol
_atom_type_number_in_cell
_atom_type_scat_dispersion_real
_atom_type_scat_dispersion_imag
_atom_type_scat_Cromer_Mann_a1
_atom_type_scat_Cromer_Mann_a2
_atom_type_scat_Cromer_Mann_a3
_atom_type_scat_Cromer_Mann_a4
_atom_type_scat_Cromer_Mann_b1
_atom_type_scat_Cromer_Mann_b2
_atom_type_scat_Cromer_Mann_b3
_atom_type_scat_Cromer_Mann_b4
_atom_type_scat_Cromer_Mann_c
_atom_type_scat_source
K 1.062 0.000 0.000 8.21860 12.7949 7.43980 0.77480 1.05190 213.187 0.86590
41.6841 1.42280 International_Tables_Vol_C
Mn 7.935 0.000 0.000 11.2819 5.34090 7.35730 0.34320 3.01930 17.8674 2.24410
83.7543 1.08960 International_Tables_Vol_C
O 16.0 0.000 0.000 3.04850 13.2771 2.28680 5.70110 1.54630 0.32390 0.86700
32.9089 0.25080 International_Tables_Vol_C
W 0.065 0.000 0.000 29.0818 1.72029 15.4300 9.22590 14.4327 0.32170 5.11982
57.0560 9.88750 International_Tables_Vol_C
loop_
_diffrn_radiation_wavelength
_diffrn_radiation_wavelength_wt
_diffrn_radiation_type
_diffrn_radiation_wavelength_id
1.540600 1.000 CuK\a~1~ 1
1.544400 0.500 CuK\a~2~ 2
loop_
_geom_angle_atom_site_label_1
_geom_angle_atom_site_label_2
_geom_angle_atom_site_label_3
_geom_angle
_geom_angle_site_symmetry_1
_geom_angle_site_symmetry_3
_geom_angle_publ_flag
K1 K1 K1 180.0 1_554 1_556 n
K1 K1 Mn1 90.0 1_554 101_445 n
K1 K1 Mn1 90.0 1_554 102_545 n
K1 K1 Mn1 90.0 1_554 103_555 n
K1 K1 Mn1 90.0 1_554 104_455 n
K1 K1 O2 60.3197(5) 1_554 1_555 n
K1 K1 O2 119.6803(5) 1_554 1_556 n
K1 K1 O2 60.3197(5) 1_554 2_555 n
K1 K1 O2 119.6803(5) 1_554 2_556 n
K1 K1 O2 60.3197(5) 1_554 3_555 n
K1 K1 O2 119.6803(5) 1_554 3_556 n
K1 K1 O2 60.3197(5) 1_554 4_555 n
K1 K1 O2 119.6803(5) 1_554 4_556 n
K1 K1 W 90.0 1_554 101_445 n
K1 K1 W 90.0 1_554 102_545 n
K1 K1 W 90.0 1_554 103_555 n
K1 K1 W 90.0 1_554 104_455 n
K1 K1 Mn1 90.0 1_556 101_445 n
K1 K1 Mn1 90.0 1_556 102_545 n
K1 K1 Mn1 90.0 1_556 103_555 n
K1 K1 Mn1 90.0 1_556 104_455 n
K1 K1 O2 119.6803(5) 1_556 1_555 n
K1 K1 O2 60.3197(5) 1_556 1_556 n
K1 K1 O2 119.6803(5) 1_556 2_555 n
K1 K1 O2 60.3197(5) 1_556 2_556 n
K1 K1 O2 119.6803(5) 1_556 3_555 n
K1 K1 O2 60.3197(5) 1_556 3_556 n
K1 K1 O2 119.6803(5) 1_556 4_555 n
K1 K1 O2 60.3197(5) 1_556 4_556 n
K1 K1 W 90.0 1_556 101_445 n
K1 K1 W 90.0 1_556 102_545 n
K1 K1 W 90.0 1_556 103_555 n
K1 K1 W 90.0 1_556 104_455 n
Mn1 K1 Mn1 90.0 101_445 102_545 n
Mn1 K1 Mn1 180.0 101_445 103_555 n
Mn1 K1 Mn1 90.0 101_445 104_455 n
Mn1 K1 O2 147.6007(5) 101_445 1_555 n
Mn1 K1 O2 147.6007(5) 101_445 1_556 n
Mn1 K1 O2 101.81400(10) 101_445 2_555 n
Mn1 K1 O2 101.81400(10) 101_445 2_556 n
Mn1 K1 O2 32.3993(5) 101_445 3_555 n
Mn1 K1 O2 32.3993(5) 101_445 3_556 n
Mn1 K1 O2 78.18600(10) 101_445 4_555 n
Mn1 K1 O2 78.18600(10) 101_445 4_556 n
Mn1 K1 W 0.0 101_445 101_445 n
Mn1 K1 W 90.0 101_445 102_545 n
Mn1 K1 W 180.0 101_445 103_555 n
Mn1 K1 W 90.0 101_445 104_455 n
Mn1 K1 Mn1 90.0 102_545 103_555 n
Mn1 K1 Mn1 180.0 102_545 104_455 n
Mn1 K1 O2 78.18600(10) 102_545 1_555 n
Mn1 K1 O2 78.18600(10) 102_545 1_556 n
Mn1 K1 O2 147.6007(5) 102_545 2_555 n
Mn1 K1 O2 147.6007(5) 102_545 2_556 n
Mn1 K1 O2 101.81400(10) 102_545 3_555 n
Mn1 K1 O2 101.81400(10) 102_545 3_556 n
Mn1 K1 O2 32.3993(5) 102_545 4_555 n
Mn1 K1 O2 32.3993(5) 102_545 4_556 n
Mn1 K1 W 90.0 102_545 101_445 n
Mn1 K1 W 0.0 102_545 102_545 n
Mn1 K1 W 90.0 102_545 103_555 n
Mn1 K1 W 180.0 102_545 104_455 n
Mn1 K1 Mn1 90.0 103_555 104_455 n
Mn1 K1 O2 32.3993(5) 103_555 1_555 n
Mn1 K1 O2 32.3993(5) 103_555 1_556 n
Mn1 K1 O2 78.18600(10) 103_555 2_555 n
Mn1 K1 O2 78.18600(10) 103_555 2_556 n
Mn1 K1 O2 147.6007(5) 103_555 3_555 n
Mn1 K1 O2 147.6007(5) 103_555 3_556 n
Mn1 K1 O2 101.81400(10) 103_555 4_555 n
Mn1 K1 O2 101.81400(10) 103_555 4_556 n
Mn1 K1 W 180.0 103_555 101_445 n
Mn1 K1 W 90.0 103_555 102_545 n
Mn1 K1 W 0.0 103_555 103_555 n
Mn1 K1 W 90.0 103_555 104_455 n
Mn1 K1 O2 101.81400(10) 104_455 1_555 n
Mn1 K1 O2 101.81400(10) 104_455 1_556 n
Mn1 K1 O2 32.3993(5) 104_455 2_555 n
Mn1 K1 O2 32.3993(5) 104_455 2_556 n
Mn1 K1 O2 78.18600(10) 104_455 3_555 n
Mn1 K1 O2 78.18600(10) 104_455 3_556 n
Mn1 K1 O2 147.6007(5) 104_455 4_555 n
Mn1 K1 O2 147.6007(5) 104_455 4_556 n
Mn1 K1 W 90.0 104_455 101_445 n
Mn1 K1 W 180.0 104_455 102_545 n
Mn1 K1 W 90.0 104_455 103_555 n
Mn1 K1 W 0.0 104_455 104_455 n
O2 K1 O2 59.3605(11) 1_555 1_556 n
O2 K1 O2 75.8074(5) 1_555 2_555 n
O2 K1 O2 104.1926(5) 1_555 2_556 n
O2 K1 O2 120.6395(11) 1_555 3_555 n
O2 K1 O2 180.0 1_555 3_556 n
O2 K1 O2 75.8074(5) 1_555 4_555 n
O2 K1 O2 104.1926(5) 1_555 4_556 n
O2 K1 W 147.6007(5) 1_555 101_445 n
O2 K1 W 78.18600(10) 1_555 102_545 n
O2 K1 W 32.3993(5) 1_555 103_555 n
O2 K1 W 101.81400(10) 1_555 104_455 n
O2 K1 O2 104.1926(5) 1_556 2_555 n
O2 K1 O2 75.8074(5) 1_556 2_556 n
O2 K1 O2 180.0 1_556 3_555 n
O2 K1 O2 120.6395(11) 1_556 3_556 n
O2 K1 O2 104.1926(5) 1_556 4_555 n
O2 K1 O2 75.8074(5) 1_556 4_556 n
O2 K1 W 147.6007(5) 1_556 101_445 n
O2 K1 W 78.18600(10) 1_556 102_545 n
O2 K1 W 32.3993(5) 1_556 103_555 n
O2 K1 W 101.81400(10) 1_556 104_455 n
O2 K1 O2 59.3605(11) 2_555 2_556 n
O2 K1 O2 75.8074(5) 2_555 3_555 n
O2 K1 O2 104.1926(5) 2_555 3_556 n
O2 K1 O2 120.6395(11) 2_555 4_555 n
O2 K1 O2 180.0 2_555 4_556 n
O2 K1 W 101.81400(10) 2_555 101_445 n
O2 K1 W 147.6007(5) 2_555 102_545 n
O2 K1 W 78.18600(10) 2_555 103_555 n
O2 K1 W 32.3993(5) 2_555 104_455 n
O2 K1 O2 104.1926(5) 2_556 3_555 n
O2 K1 O2 75.8074(5) 2_556 3_556 n
O2 K1 O2 180.0 2_556 4_555 n
O2 K1 O2 120.6395(11) 2_556 4_556 n
O2 K1 W 101.81400(10) 2_556 101_445 n
O2 K1 W 147.6007(5) 2_556 102_545 n
O2 K1 W 78.18600(10) 2_556 103_555 n
O2 K1 W 32.3993(5) 2_556 104_455 n
O2 K1 O2 59.3605(11) 3_555 3_556 n
O2 K1 O2 75.8074(5) 3_555 4_555 n
O2 K1 O2 104.1926(5) 3_555 4_556 n
O2 K1 W 32.3993(5) 3_555 101_445 n
O2 K1 W 101.81400(10) 3_555 102_545 n
O2 K1 W 147.6007(5) 3_555 103_555 n
O2 K1 W 78.18600(10) 3_555 104_455 n
O2 K1 O2 104.1926(5) 3_556 4_555 n
O2 K1 O2 75.8074(5) 3_556 4_556 n
O2 K1 W 32.3993(5) 3_556 101_445 n
O2 K1 W 101.81400(10) 3_556 102_545 n
O2 K1 W 147.6007(5) 3_556 103_555 n
O2 K1 W 78.18600(10) 3_556 104_455 n
O2 K1 O2 59.3605(11) 4_555 4_556 n
O2 K1 W 78.18600(10) 4_555 101_445 n
O2 K1 W 32.3993(5) 4_555 102_545 n
O2 K1 W 101.81400(10) 4_555 103_555 n
O2 K1 W 147.6007(5) 4_555 104_455 n
O2 K1 W 78.18600(10) 4_556 101_445 n
O2 K1 W 32.3993(5) 4_556 102_545 n
O2 K1 W 101.81400(10) 4_556 103_555 n
O2 K1 W 147.6007(5) 4_556 104_455 n
W K1 W 90.0 101_445 102_545 n
W K1 W 180.0 101_445 103_555 n
W K1 W 90.0 101_445 104_455 n
W K1 W 90.0 102_545 103_555 n
W K1 W 180.0 102_545 104_455 n
W K1 W 90.0 103_555 104_455 n
K1 Mn1 O1 68.1176 101_554 1_555 n
K1 Mn1 O1 127.3173(5) 101_554 102_544 n
K1 Mn1 O1 127.3173(5) 101_554 102_545 n
K1 Mn1 O2 104.5629 101_554 1_555 n
K1 Mn1 O2 53.6193(5) 101_554 103_554 n
K1 Mn1 O2 53.6193(5) 101_554 103_555 n
O1 Mn1 O1 91.6614 1_555 102_544 n
O1 Mn1 O1 91.6614 1_555 102_545 n
O1 Mn1 O2 172.6805 1_555 1_555 n
O1 Mn1 O2 93.692 1_555 103_554 n
O1 Mn1 O2 93.692 1_555 103_555 n
O1 Mn1 O1 100.0717(12) 102_544 102_545 n
O1 Mn1 O2 93.0375 102_544 1_555 n
O1 Mn1 O2 81.6416(12) 102_544 103_554 n
O1 Mn1 O2 174.33350(10) 102_544 103_555 n
O1 Mn1 O2 93.0375 102_545 1_555 n
O1 Mn1 O2 174.33350(10) 102_545 103_554 n
O1 Mn1 O2 81.6416(12) 102_545 103_555 n
O2 Mn1 O2 81.45430(10) 1_555 103_554 n
O2 Mn1 O2 81.45430(10) 1_555 103_555 n
O2 Mn1 O2 96.1472(12) 103_554 103_555 n
Mn1 O1 Mn1 129.9152(6) 1_555 104_554 n
Mn1 O1 Mn1 129.9152(6) 1_555 104_555 n
Mn1 O1 W 0.0 1_555 1_555 n
Mn1 O1 W 129.9152(6) 1_555 104_554 n
Mn1 O1 W 129.9152(6) 1_555 104_555 n
Mn1 O1 Mn1 100.0717(12) 104_554 104_555 n
Mn1 O1 W 129.9152(6) 104_554 1_555 n
Mn1 O1 W 0.0 104_554 104_554 n
Mn1 O1 W 100.0717(12) 104_554 104_555 n
Mn1 O1 W 129.9152(6) 104_555 1_555 n
Mn1 O1 W 100.0717(12) 104_555 104_554 n
Mn1 O1 W 0.0 104_555 104_555 n
W O1 W 129.9152(6) 1_555 104_554 n
W O1 W 129.9152(6) 1_555 104_555 n
W O1 W 100.0717(12) 104_554 104_555 n
K1 O2 K1 59.3605(11) 1_554 1_555 n
K1 O2 Mn1 114.23370(10) 1_554 1_555 n
K1 O2 Mn1 93.9814(10) 1_554 103_554 n
K1 O2 Mn1 143.72960(20) 1_554 103_555 n
K1 O2 W 114.23370(10) 1_554 1_555 n
K1 O2 W 93.9814(10) 1_554 103_554 n
K1 O2 W 143.72960(20) 1_554 103_555 n
K1 O2 Mn1 114.23370(10) 1_555 1_555 n
K1 O2 Mn1 143.72960(20) 1_555 103_554 n
K1 O2 Mn1 93.9814(10) 1_555 103_555 n
K1 O2 W 114.23370(10) 1_555 1_555 n
K1 O2 W 143.72960(20) 1_555 103_554 n
K1 O2 W 93.9814(10) 1_555 103_555 n
Mn1 O2 Mn1 98.54570(10) 1_555 103_554 n
Mn1 O2 Mn1 98.54570(10) 1_555 103_555 n
Mn1 O2 W 0.0 1_555 1_555 n
Mn1 O2 W 98.54570(10) 1_555 103_554 n
Mn1 O2 W 98.54570(10) 1_555 103_555 n
Mn1 O2 Mn1 96.1472(12) 103_554 103_555 n
Mn1 O2 W 98.54570(10) 103_554 1_555 n
Mn1 O2 W 0.0 103_554 103_554 n
Mn1 O2 W 96.1472(12) 103_554 103_555 n
Mn1 O2 W 98.54570(10) 103_555 1_555 n
Mn1 O2 W 96.1472(12) 103_555 103_554 n
Mn1 O2 W 0.0 103_555 103_555 n
W O2 W 98.54570(10) 1_555 103_554 n
W O2 W 98.54570(10) 1_555 103_555 n
W O2 W 96.1472(12) 103_554 103_555 n
K1 W O1 68.1176 101_554 1_555 n
K1 W O1 127.3173(5) 101_554 102_544 n
K1 W O1 127.3173(5) 101_554 102_545 n
K1 W O2 104.5629 101_554 1_555 n
K1 W O2 53.6193(5) 101_554 103_554 n
K1 W O2 53.6193(5) 101_554 103_555 n
O1 W O1 91.6614 1_555 102_544 n
O1 W O1 91.6614 1_555 102_545 n
O1 W O2 172.6805 1_555 1_555 n
O1 W O2 93.692 1_555 103_554 n
O1 W O2 93.692 1_555 103_555 n
O1 W O1 100.0717(12) 102_544 102_545 n
O1 W O2 93.0375 102_544 1_555 n
O1 W O2 81.6416(12) 102_544 103_554 n
O1 W O2 174.33350(10) 102_544 103_555 n
O1 W O2 93.0375 102_545 1_555 n
O1 W O2 174.33350(10) 102_545 103_554 n
O1 W O2 81.6416(12) 102_545 103_555 n
O2 W O2 81.45430(10) 1_555 103_554 n
O2 W O2 81.45430(10) 1_555 103_555 n
O2 W O2 96.1472(12) 103_554 103_555 n
loop_
_geom_bond_atom_site_label_1
_geom_bond_atom_site_label_2
_geom_bond_distance
_geom_bond_site_symmetry_2
_geom_bond_publ_flag
K1 K1 2.85489(5) 1_554 n
K1 K1 2.85489(5) 1_556 n
K1 Mn1 4.07433(5) 1_555 n
K1 Mn1 4.07433(5) 1_556 n
K1 Mn1 4.07433(5) 2_555 n
K1 Mn1 4.07433(5) 2_556 n
K1 Mn1 4.07433(5) 3_555 n
K1 Mn1 4.07433(5) 3_556 n
K1 Mn1 4.07433(5) 4_555 n
K1 Mn1 4.07433(5) 4_556 n
K1 Mn1 3.57206(5) 101_445 n
K1 Mn1 3.57206(5) 102_545 n
K1 Mn1 3.57206(5) 103_555 n
K1 Mn1 3.57206(5) 104_455 n
K1 O1 3.36818(5) 101_445 n
K1 O1 3.36818(5) 102_545 n
K1 O1 3.36818(5) 103_555 n
K1 O1 3.36818(5) 104_455 n
K1 O2 2.882800(30) 1_555 n
K1 O2 2.882800(30) 1_556 n
K1 O2 2.882800(30) 2_555 n
K1 O2 2.882800(30) 2_556 n
K1 O2 2.882800(30) 3_555 n
K1 O2 2.882800(30) 3_556 n
K1 O2 2.882800(30) 4_555 n
K1 O2 2.882800(30) 4_556 n
K1 W 4.07433(5) 1_555 n
K1 W 4.07433(5) 1_556 n
K1 W 4.07433(5) 2_555 n
K1 W 4.07433(5) 2_556 n
K1 W 4.07433(5) 3_555 n
K1 W 4.07433(5) 3_556 n
K1 W 4.07433(5) 4_555 n
K1 W 4.07433(5) 4_556 n
K1 W 3.57206(5) 101_445 n
K1 W 3.57206(5) 102_545 n
K1 W 3.57206(5) 103_555 n
K1 W 3.57206(5) 104_455 n
Mn1 K1 4.07433(5) 1_554 n
Mn1 K1 4.07433(5) 1_555 n
Mn1 K1 3.57206(5) 101_554 n
Mn1 Mn1 2.85489(5) 1_554 n
Mn1 Mn1 2.85489(5) 1_556 n
Mn1 Mn1 2.916240(30) 103_554 n
Mn1 Mn1 2.916240(30) 103_555 n
Mn1 O1 1.929160(30) 1_555 n
Mn1 O1 1.862420(20) 102_544 n
Mn1 O1 1.862420(20) 102_545 n
Mn1 O2 1.929560(30) 1_555 n
Mn1 O2 1.918600(20) 103_554 n
Mn1 O2 1.918600(20) 103_555 n
Mn1 W 2.85489(5) 1_554 n
Mn1 W 2.85489(5) 1_556 n
Mn1 W 2.916240(30) 103_554 n
Mn1 W 2.916240(30) 103_555 n
O1 K1 3.36818(5) 101_554 n
O1 Mn1 1.929160(30) 1_555 n
O1 Mn1 1.862420(20) 104_554 n
O1 Mn1 1.862420(20) 104_555 n
O1 W 1.929160(30) 1_555 n
O1 W 1.862420(20) 104_554 n
O1 W 1.862420(20) 104_555 n
O2 K1 2.882800(30) 1_554 n
O2 K1 2.882800(30) 1_555 n
O2 Mn1 1.929560(30) 1_555 n
O2 Mn1 1.918600(20) 103_554 n
O2 Mn1 1.918600(20) 103_555 n
O2 W 1.929560(30) 1_555 n
O2 W 1.918600(20) 103_554 n
O2 W 1.918600(20) 103_555 n
W K1 4.07433(5) 1_554 n
W K1 4.07433(5) 1_555 n
W K1 3.57206(5) 101_554 n
W Mn1 2.85489(5) 1_554 n
W Mn1 2.85489(5) 1_556 n
W Mn1 2.916240(30) 103_554 n
W Mn1 2.916240(30) 103_555 n
W O1 1.929160(30) 1_555 n
W O1 1.862420(20) 102_544 n
W O1 1.862420(20) 102_545 n
W O2 1.929560(30) 1_555 n
W O2 1.918600(20) 103_554 n
W O2 1.918600(20) 103_555 n
W W 2.85489(5) 1_554 n
W W 2.85489(5) 1_556 n
W W 2.916240(30) 103_554 n
W W 2.916240(30) 103_555 n
loop_
_pd_meas_counts_total
_pd_proc_ls_weight
_pd_proc_intensity_bkg_calc
_pd_calc_intensity_total
8788.0 0.0 22645.42969 .
8997.0 0.0 22609.10547 .
8857.0 0.0 22572.83203 .
8868.0 0.0 22536.60938 .
8691.0 0.0 22500.42773 .
8805.0 0.0 22464.29688 .
8692.0 0.0 22428.20898 .
8690.0 0.0 22392.17188 .
8631.0 0.0 22356.17969 .
8515.0 0.0 22320.23438 .
8448.0 0.0 22284.34180 .
8498.0 0.0 22248.48633 .
8558.0 0.0 22212.68555 .
8317.0 0.0 22176.92969 .
8190.0 0.0 22141.21680 .
8242.0 0.0 22105.55273 .
8182.0 0.0 22069.93555 .
8194.0 0.0 22034.36914 .
8180.0 0.0 21998.84375 .
8126.0 0.0 21963.36719 .
8144.0 0.0 21927.93750 .
8070.0 0.0 21892.55469 .
8056.0 0.0 21857.21680 .
8016.0 0.0 21821.92578 .
7976.0 0.0 21786.67969 .
7922.0 0.0 21751.47852 .
7869.0 0.0 21716.32617 .
7924.0 0.0 21681.22070 .
7868.0 0.0 21646.15820 .
7859.0 0.0 21611.14648 .
7763.0 0.0 21576.17578 .
7534.0 0.0 21541.25586 .
7639.0 0.0 21506.37891 .
7739.0 0.0 21471.54688 .
7758.0 0.0 21436.76367 .
7610.0 0.0 21402.02148 .
7748.0 0.0 21367.32813 .
7675.0 0.0 21332.68164 .
7645.0 0.0 21298.08008 .
7575.0 0.0 21263.52539 .
7697.0 0.0 21229.01367 .
7359.0 0.0 21194.54688 .
7371.0 0.0 21160.12695 .
7271.0 0.0 21125.75391 .
7406.0 0.0 21091.42383 .
7127.0 0.0 21057.14063 .
7232.0 0.0 21022.90430 .
7095.0 0.0 20988.70898 .
7196.0 0.0 20954.56250 .
7365.0 0.0 20920.45703 .
7267.0 0.0 20886.40039 .
7164.0 0.0 20852.38867 .
7139.0 0.0 20818.42188 .
6902.0 0.0 20784.49805 .
7129.0 0.0 20750.62109 .
7190.0 0.0 20716.78906 .
7005.0 0.0 20683.00195 .
6934.0 0.0 20649.25781 .
6767.0 0.0 20615.56055 .
6934.0 0.0 20581.90625 .
6966.0 0.0 20548.29688 .
6900.0 0.0 20514.73242 .
6813.0 0.0 20481.21484 .
6931.0 0.0 20447.73633 .
6803.0 0.0 20414.30664 .
6690.0 0.0 20380.92383 .
6816.0 0.0 20347.58008 .
6706.0 0.0 20314.28125 .
6661.0 0.0 20281.02930 .
6599.0 0.0 20247.81836 .
6588.0 0.0 20214.65430 .
6709.0 0.0 20181.53516 .
6604.0 0.0 20148.45703 .
6525.0 0.0 20115.42578 .
6551.0 0.0 20082.43750 .
6475.0 0.0 20049.49609 .
6602.0 0.0 20016.59570 .
6593.0 0.0 19983.74023 .
6558.0 0.0 19950.92773 .
6349.0 0.0 19918.15820 .
6545.0 0.0 19885.43555 .
6492.0 0.0 19852.75391 .
6326.0 0.0 19820.11719 .
6256.0 0.0 19787.52148 .
6330.0 0.0 19754.97461 .
6342.0 0.0 19722.46875 .
6235.0 0.0 19690.00391 .
6370.0 0.0 19657.58594 .
6210.0 0.0 19625.20898 .
6163.0 0.0 19592.87695 .
6304.0 0.0 19560.58789 .
6110.0 0.0 19528.34375 .
6181.0 0.0 19496.14063 .
6275.0 0.0 19463.98242 .
6072.0 0.0 19431.86523 .
6230.0 0.0 19399.79297 .
6245.0 0.0 19367.76367 .
6061.0 0.0 19335.77344 .
6019.0 0.0 19303.83398 .
5897.0 0.0 19271.93164 .
5917.0 0.0 19240.07617 .
5918.0 0.0 19208.25977 .
5935.0 0.0 19176.48828 .
5959.0 0.0 19144.76172 .
5904.0 0.0 19113.07422 .
5824.0 0.0 19081.43164 .
6003.0 0.0 19049.83008 .
5923.0 0.0 19018.27148 .
5938.0 0.0 18986.75781 .
5886.0 0.0 18955.28320 .
5866.0 0.0 18923.85352 .
5792.0 0.0 18892.46680 .
5723.0 0.0 18861.11914 .
5815.0 0.0 18829.81445 .
5833.0 0.0 18798.55664 .
5677.0 0.0 18767.33594 .
5774.0 0.0 18736.16016 .
5680.0 0.0 18705.02734 .
5631.0 0.0 18673.93359 .
5609.0 0.0 18642.88477 .
5600.0 0.0 18611.87695 .
5603.0 0.0 18580.91211 .
5697.0 0.0 18549.98828 .
5627.0 0.0 18519.10547 .
5551.0 0.0 18488.26563 .
5474.0 0.0 18457.46680 .
5640.0 0.0 18426.71094 .
5677.0 0.0 18395.99805 .
5552.0 0.0 18365.32617 .
5469.0 0.0 18334.69531 .
5475.0 0.0 18304.10547 .
5338.0 0.0 18273.55859 .
5601.0 0.0 18243.05273 .
5492.0 0.0 18212.58789 .
5571.0 0.0 18182.16406 .
5463.0 0.0 18151.78320 .
5504.0 0.0 18121.44336 .
5558.0 0.0 18091.14453 .
5476.0 0.0 18060.88672 .
5384.0 0.0 18030.67188 .
5350.0 0.0 18000.49609 .
5448.0 0.0 17970.36328 .
5327.0 0.0 17940.26758 .
5390.0 0.0 17910.21680 .
5520.0 0.0 17880.20898 .
5340.0 0.0 17850.23828 .
5358.0 0.0 17820.31055 .
5303.0 0.0 17790.42383 .
5384.0 0.0 17760.57813 .
5398.0 0.0 17730.77148 .
5227.0 0.0 17701.00781 .
5226.0 0.0 17671.28320 .
5310.0 0.0 17641.60156 .
5347.0 0.0 17611.95703 .
5077.0 0.0 17582.35547 .
5161.0 0.0 17552.79297 .
5177.0 0.0 17523.27539 .
5191.0 0.0 17493.79297 .
5141.0 0.0 17464.35547 .
5109.0 0.0 17434.95508 .
5155.0 0.0 17405.59766 .
5152.0 0.0 17376.27930 .
5007.0 0.0 17347.00000 .
5074.0 0.0 17317.76172 .
4959.0 0.0 17288.56641 .
5047.0 0.0 17259.40820 .
5083.0 0.0 17230.29297 .
5085.0 0.0 17201.21484 .
5099.0 0.0 17172.17773 .
4909.0 0.0 17143.18359 .
4964.0 0.0 17114.22461 .
5014.0 0.0 17085.30664 .
5088.0 0.0 17056.43164 .
4882.0 0.0 17027.59375 .
4792.0 0.0 16998.79688 .
5051.0 0.0 16970.03906 .
5010.0 0.0 16941.32227 .
4878.0 0.0 16912.64648 .
4894.0 0.0 16884.00391 .
4884.0 0.0 16855.40820 .
4940.0 0.0 16826.84961 .
4981.0 0.0 16798.32813 .
4815.0 0.0 16769.84766 .
4902.0 0.0 16741.40820 .
4897.0 0.0 16713.00781 .
4849.0 0.0 16684.64648 .
4862.0 0.0 16656.32617 .
4897.0 0.0 16628.04102 .
4900.0 0.0 16599.79688 .
4874.0 0.0 16571.59375 .
4809.0 0.0 16543.42773 .
4823.0 0.0 16515.30273 .
4794.0 0.0 16487.21680 .
4823.0 0.0 16459.16797 .
4740.0 0.0 16431.15820 .
4831.0 0.0 16403.18750 .
4795.0 0.0 16375.25977 .
4634.0 0.0 16347.36621 .
4596.0 0.0 16319.51172 .
4760.0 0.0 16291.69727 .
4718.0 0.0 16263.92285 .
4781.0 0.0 16236.18652 .
4702.0 0.0 16208.48730 .
4824.0 0.0 16180.82910 .
4615.0 0.0 16153.20801 .
4712.0 0.0 16125.62500 .
4705.0 0.0 16098.08301 .
4636.0 0.0 16070.57520 .
4636.0 0.0 16043.11035 .
4559.0 0.0 16015.68164 .
4648.0 0.0 15988.29199 .
4521.0 0.0 15960.94043 .
4634.0 0.0 15933.62891 .
4628.0 0.0 15906.35352 .
4584.0 0.0 15879.11621 .
4508.0 0.0 15851.91797 .
4551.0 0.0 15824.75781 .
4574.0 0.0 15797.63574 .
4530.0 0.0 15770.55176 .
4594.0 0.0 15743.50391 .
4532.0 0.0 15716.49707 .
4577.0 0.0 15689.52734 .
4510.0 0.0 15662.59570 .
4501.0 0.0 15635.69922 .
4525.0 0.0 15608.84473 .
4550.0 0.0 15582.02441 .
4518.0 0.0 15555.24316 .
4427.0 0.0 15528.50098 .
4381.0 0.0 15501.79395 .
4511.0 0.0 15475.12793 .
4333.0 0.0 15448.49609 .
4432.0 0.0 15421.90527 .
4389.0 0.0 15395.34961 .
4443.0 0.0 15368.83105 .
4382.0 0.0 15342.34961 .
4434.0 0.0 15315.90723 .
4398.0 0.0 15289.50098 .
4435.0 0.0 15263.13379 .
4345.0 0.0 15236.80273 .
4262.0 0.0 15210.50879 .
4446.0 0.0 15184.25098 .
4390.0 0.0 15158.03320 .
4385.0 0.0 15131.85156 .
4431.0 0.0 15105.70703 .
4198.0 0.0 15079.59766 .
4352.0 0.0 15053.52637 .
4272.0 0.0 15027.49121 .
4234.0 0.0 15001.49512 .
4426.0 0.0 14975.53516 .
4333.0 0.0 14949.61133 .
4249.0 0.0 14923.72559 .
4252.0 0.0 14897.87402 .
4195.0 0.0 14872.06250 .
4186.0 0.0 14846.28516 .
4407.0 0.0 14820.54590 .
4258.0 0.0 14794.84180 .
4303.0 0.0 14769.17676 .
4222.0 0.0 14743.54590 .
4292.0 0.0 14717.95313 .
4316.0 0.0 14692.39453 .
4335.0 0.0 14666.87598 .
4257.0 0.0 14641.39063 .
4281.0 0.0 14615.94531 .
4193.0 0.0 14590.53125 .
4245.0 0.0 14565.15625 .
4229.0 0.0 14539.81738 .
4178.0 0.0 14514.51465 .
4249.0 0.0 14489.24707 .
4137.0 0.0 14464.01758 .
4199.0 0.0 14438.82324 .
4334.0 0.0 14413.66504 .
4115.0 0.0 14388.54102 .
4221.0 0.0 14363.45703 .
4111.0 0.0 14338.40332 .
4048.0 0.0 14313.39063 .
4157.0 0.0 14288.41113 .
4201.0 0.0 14263.46875 .
4136.0 0.0 14238.56250 .
4207.0 0.0 14213.69043 .
4013.0 0.0 14188.85547 .
4145.0 0.0 14164.05371 .
4138.0 0.0 14139.28809 .
4028.0 0.0 14114.56152 .
4122.0 0.0 14089.86816 .
4203.0 0.0 14065.20996 .
4075.0 0.0 14040.58789 .
3936.0 0.0 14016.00098 .
4103.0 0.0 13991.45117 .
4059.0 0.0 13966.93359 .
4086.0 0.0 13942.45313 .
4000.0 0.0 13918.00684 .
4140.0 0.0 13893.59668 .
3993.0 0.0 13869.22168 .
4046.0 0.0 13844.88184 .
4020.0 0.0 13820.57715 .
4040.0 0.0 13796.30762 .
4141.0 0.0 13772.07324 .
3943.0 0.0 13747.87598 .
4008.0 0.0 13723.70898 .
3898.0 0.0 13699.58008 .
3953.0 0.0 13675.48438 .
3882.0 0.0 13651.42383 .
3981.0 0.0 13627.39941 .
4060.0 0.0 13603.41016 .
3928.0 0.0 13579.45508 .
3904.0 0.0 13555.53320 .
3922.0 0.0 13531.64844 .
3896.0 0.0 13507.79590 .
3962.0 0.0 13483.97949 .
4021.0 0.0 13460.19629 .
3973.0 0.0 13436.45020 .
3875.0 0.0 13412.73633 .
3999.0 0.0 13389.05762 .
3993.0 0.0 13365.41406 .
4015.0 0.0 13341.80371 .
3888.0 0.0 13318.22852 .
3844.0 0.0 13294.68750 .
3885.0 0.0 13271.17969 .
3913.0 0.0 13247.70801 .
3888.0 0.0 13224.26855 .
3897.0 0.0 13200.86523 .
4008.0 0.0 13177.49512 .
3931.0 0.0 13154.16016 .
3881.0 0.0 13130.85645 .
3872.0 0.0 13107.58984 .
3873.0 0.0 13084.35449 .
4012.0 0.0 13061.15332 .
3940.0 0.0 13037.98828 .
3967.0 0.0 13014.85742 .
3847.0 0.0 12991.75781 .
3832.0 0.0 12968.69336 .
3822.0 0.0 12945.66211 .
3851.0 0.0 12922.66406 .
3802.0 0.0 12899.70215 .
3888.0 0.0 12876.77148 .
3874.0 0.0 12853.87695 .
3868.0 0.0 12831.01367 .
3739.0 0.0 12808.18457 .
3753.0 0.0 12785.38770 .
3851.0 0.0 12762.62695 .
3823.0 0.0 12739.89844 .
3901.0 0.0 12717.20410 .
3924.0 0.0 12694.54102 .
3739.0 0.0 12671.91406 .
3750.0 0.0 12649.31641 .
3889.0 0.0 12626.75488 .
3846.0 0.0 12604.22559 .
3804.0 0.0 12581.73047 .
3899.0 0.0 12559.26758 .
3948.0 0.0 12536.83984 .
3838.0 0.0 12514.44336 .
3820.0 0.0 12492.07910 .
3789.0 0.0 12469.74902 .
3971.0 0.0 12447.45117 .
3946.0 0.0 12425.18652 .
3927.0 0.0 12402.95410 .
4001.0 0.0 12380.75586 .
3930.0 0.0 12358.59082 .
3887.0 0.0 12336.45898 .
3961.0 0.0 12314.35840 .
3869.0 0.0 12292.29004 .
3801.0 0.0 12270.25391 .
3976.0 0.0 12248.25488 .
4133.0 0.0 12226.28223 .
3973.0 0.0 12204.34473 .
3943.0 0.0 12182.44141 .
3942.0 0.0 12160.56934 .
4069.0 0.0 12138.72949 .
4046.0 0.0 12116.92285 .
4184.0 0.0 12095.14746 .
4166.0 0.0 12073.40625 .
4151.0 0.0 12051.69531 .
4455.0 0.0 12030.01758 .
4283.0 0.0 12008.37109 .
4448.0 0.0 11986.75781 .
4618.0 0.0 11965.17773 .
4825.0 0.0 11943.62793 .
4889.0 0.0 11922.11035 .
5080.0 0.0 11900.62598 .
5369.0 0.0 11879.17480 .
5791.0 0.0 11857.75195 .
6281.0 0.0 11836.36426 .
6663.0 0.0 11815.00586 .
6968.0 0.0 11793.68164 .
7505.0 0.0 11772.38770 .
7982.0 0.0 11751.12695 .
8343.0 0.0 11729.89746 .
8388.0 0.0 11708.69922 .
8385.0 0.0 11687.53418 .
7976.0 0.0 11666.40039 .
7811.0 0.0 11645.29590 .
7337.0 0.0 11624.22363 .
6661.0 0.0 11603.18457 .
6147.0 0.0 11582.17578 .
5719.0 0.0 11561.20117 .
5225.0 0.0 11540.25586 .
4896.0 0.0 11519.34082 .
4679.0 0.0 11498.45996 .
4477.0 0.0 11477.60840 .
4393.0 0.0 11456.78906 .
4268.0 0.0 11436.00000 .
4056.0 0.0 11415.24316 .
4007.0 0.0 11394.51758 .
4032.0 0.0 11373.82227 .
3969.0 0.0 11353.15918 .
3847.0 0.0 11332.52637 .
4005.0 0.0 11311.92676 .
3880.0 0.0 11291.35547 .
3888.0 0.0 11270.81738 .
3923.0 0.0 11250.30762 .
3844.0 0.0 11229.83105 .
3726.0 0.0 11209.38281 .
3766.0 0.0 11188.96875 .
3788.0 0.0 11168.58496 .
3607.0 0.0 11148.23145 .
3631.0 0.0 11127.90723 .
3724.0 0.0 11107.61621 .
3709.0 0.0 11087.35254 .
3723.0 0.0 11067.12402 .
3743.0 0.0 11046.92188 .
3591.0 0.0 11026.75293 .
3661.0 0.0 11006.61426 .
3643.0 0.0 10986.50586 .
3705.0 0.0 10966.42676 .
3661.0 0.0 10946.37988 .
3599.0 0.0 10926.36328 .
3704.0 0.0 10906.37500 .
3698.0 0.0 10886.41895 .
3749.0 0.0 10866.49219 .
3609.0 0.0 10846.59668 .
3651.0 0.0 10826.73145 .
3673.0 0.0 10806.89648 .
3639.0 0.0 10787.09082 .
3578.0 0.0 10767.31641 .
3597.0 0.0 10747.57129 .
3659.0 0.0 10727.85742 .
3657.0 0.0 10708.17090 .
3617.0 0.0 10688.51758 .
3553.0 0.0 10668.89258 .
3589.0 0.0 10649.29980 .
3730.0 0.0 10629.73340 .
3592.0 0.0 10610.19922 .
3581.0 0.0 10590.69434 .
3570.0 0.0 10571.21875 .
3550.0 0.0 10551.77344 .
3634.0 0.0 10532.35742 .
3660.0 0.0 10512.97070 .
3642.0 0.0 10493.61523 .
3642.0 0.0 10474.28809 .
3606.0 0.0 10454.99121 .
3616.0 0.0 10435.72363 .
3619.0 0.0 10416.48633 .
3725.0 0.0 10397.27734 .
3633.0 0.0 10378.09766 .
3577.0 0.0 10358.95020 .
3668.0 0.0 10339.82813 .
3642.0 0.0 10320.73828 .
3522.0 0.0 10301.67676 .
3574.0 0.0 10282.64648 .
3541.0 0.0 10263.64258 .
3568.0 0.0 10244.66992 .
3499.0 0.0 10225.72559 .
3576.0 0.0 10206.81055 .
3620.0 0.0 10187.92383 .
3523.0 0.0 10169.06738 .
3581.0 0.0 10150.23926 .
3494.0 0.0 10131.44141 .
3628.0 0.0 10112.67188 .
3592.0 0.0 10093.93164 .
3632.0 0.0 10075.22070 .
3547.0 0.0 10056.53711 .
3440.0 0.0 10037.88281 .
3587.0 0.0 10019.25879 .
3599.0 0.0 10000.66113 .
3536.0 0.0 9982.09473 .
3555.0 0.0 9963.55566 .
3539.0 0.0 9945.04492 .
3704.0 0.0 9926.56543 .
3597.0 0.0 9908.11133 .
3577.0 0.0 9889.68848 .
3468.0 0.0 9871.29297 .
3607.0 0.0 9852.92676 .
3583.0 0.0 9834.58691 .
3565.0 0.0 9816.27637 .
3559.0 0.0 9797.99512 .
3588.0 0.0 9779.74316 .
3544.0 0.0 9761.51855 .
3587.0 0.0 9743.32227 .
3635.0 0.0 9725.15430 .
3656.0 0.0 9707.01563 .
3631.0 0.0 9688.90430 .
3516.0 0.0 9670.82031 .
3538.0 0.0 9652.76563 .
3673.0 0.0 9634.73926 .
3568.0 0.0 9616.74023 .
3643.0 0.0 9598.76855 .
3622.0 0.0 9580.82715 .
3556.0 0.0 9562.91211 .
3518.0 0.0 9545.02637 .
3523.0 0.0 9527.16895 .
3541.0 0.0 9509.33789 .
3621.0 0.0 9491.53418 .
3634.0 0.0 9473.75977 .
3547.0 0.0 9456.01270 .
3615.0 0.0 9438.29395 .
3593.0 0.0 9420.60254 .
3636.0 0.0 9402.93848 .
3599.0 0.0 9385.30371 .
3665.0 0.0 9367.69531 .
3600.0 0.0 9350.11426 .
3589.0 0.0 9332.56152 .
3591.0 0.0 9315.03516 .
3614.0 0.0 9297.53809 .
3621.0 0.0 9280.06738 .
3558.0 0.0 9262.62402 .
3642.0 0.0 9245.20996 .
3612.0 0.0 9227.82227 .
3613.0 0.0 9210.46191 .
3702.0 0.0 9193.12891 .
3653.0 0.0 9175.82129 .
3627.0 0.0 9158.54297 .
3548.0 0.0 9141.29199 .
3571.0 0.0 9124.06738 .
3486.0 0.0 9106.87109 .
3555.0 0.0 9089.70215 .
3561.0 0.0 9072.55957 .
3660.0 0.0 9055.44238 .
3626.0 0.0 9038.35547 .
3607.0 0.0 9021.29297 .
3707.0 0.0 9004.25879 .
3647.0 0.0 8987.25098 .
3665.0 0.0 8970.27148 .
3642.0 0.0 8953.31836 .
3662.0 0.0 8936.39160 .
3559.0 0.0 8919.49121 .
3668.0 0.0 8902.61914 .
3733.0 0.0 8885.77148 .
3562.0 0.0 8868.95313 .
3565.0 0.0 8852.15918 .
3617.0 0.0 8835.39355 .
3598.0 0.0 8818.65430 .
3690.0 0.0 8801.94141 .
3726.0 0.0 8785.25488 .
3768.0 0.0 8768.59668 .
3659.0 0.0 8751.96289 .
3486.0 0.0 8735.35645 .
3713.0 0.0 8718.77539 .
3645.0 0.0 8702.22168 .
3596.0 0.0 8685.69531 .
3694.0 0.0 8669.19434 .
3742.0 0.0 8652.71973 .
3625.0 0.0 8636.27148 .
3572.0 0.0 8619.84863 .
3779.0 0.0 8603.45410 .
3696.0 0.0 8587.08496 .
3751.0 0.0 8570.74023 .
3709.0 0.0 8554.42383 .
3707.0 0.0 8538.13281 .
3656.0 0.0 8521.86816 .
3633.0 0.0 8505.62891 .
3613.0 0.0 8489.41602 .
3770.0 0.0 8473.23047 .
3757.0 0.0 8457.06934 .
3712.0 0.0 8440.93457 .
3652.0 0.0 8424.82422 .
3646.0 0.0 8408.74316 .
3671.0 0.0 8392.68555 .
3690.0 0.0 8376.65332 .
3692.0 0.0 8360.64746 .
3724.0 0.0 8344.66895 .
3927.0 0.0 8328.71484 .
3774.0 0.0 8312.78613 .
3783.0 0.0 8296.88281 .
3679.0 0.0 8281.00684 .
3756.0 0.0 8265.15527 .
3741.0 0.0 8249.32813 .
3702.0 0.0 8233.52832 .
3787.0 0.0 8217.75391 .
3836.0 0.0 8202.00488 .
3670.0 0.0 8186.27979 .
3663.0 0.0 8170.58154 .
3737.0 0.0 8154.90771 .
3711.0 0.0 8139.26172 .
3715.0 0.0 8123.63818 .
3821.0 0.0 8108.04102 .
3726.0 0.0 8092.46875 .
3735.0 0.0 8076.92285 .
3722.0 0.0 8061.40137 .
3919.0 0.0 8045.90479 .
3806.0 0.0 8030.43408 .
3816.0 0.0 8014.98926 .
3814.0 0.0 7999.56787 .
3873.0 0.0 7984.17139 .
3892.0 0.0 7968.80078 .
3699.0 0.0 7953.45557 .
3765.0 0.0 7938.13428 .
3807.0 0.0 7922.83936 .
3678.0 0.0 7907.56738 .
3842.0 0.0 7892.32227 .
3763.0 0.0 7877.10107 .
3846.0 0.0 7861.90381 .
3808.0 0.0 7846.73193 .
3906.0 0.0 7831.58447 .
3852.0 0.0 7816.46387 .
3874.0 0.0 7801.36523 .
3955.0 0.0 7786.29248 .
3783.0 0.0 7771.24512 .
3856.0 0.0 7756.22168 .
3904.0 0.0 7741.22266 .
3903.0 0.0 7726.24805 .
3853.0 0.0 7711.29736 .
3866.0 0.0 7696.37402 .
3821.0 0.0 7681.47217 .
3978.0 0.0 7666.59473 .
3967.0 0.0 7651.74316 .
3902.0 0.0 7636.91650 .
4020.0 0.0 7622.11279 .
3949.0 0.0 7607.33350 .
4004.0 0.0 7592.57764 .
3962.0 0.0 7577.84961 .
3923.0 0.0 7563.14209 .
3959.0 0.0 7548.45947 .
4048.0 0.0 7533.80176 .
4011.0 0.0 7519.16895 .
4064.0 0.0 7504.55859 .
4151.0 0.0 7489.97314 .
4212.0 0.0 7475.41162 .
4098.0 0.0 7460.87354 .
4105.0 0.0 7446.36035 .
4068.0 0.0 7431.87109 .
4141.0 0.0 7417.40430 .
4214.0 0.0 7402.96240 .
4282.0 0.0 7388.54541 .
4258.0 0.0 7374.15137 .
4221.0 0.0 7359.78174 .
4344.0 0.0 7345.43408 .
4484.0 0.0 7331.11328 .
4555.0 0.0 7316.81396 .
4624.0 0.0 7302.53760 .
4698.0 0.0 7288.28613 .
4854.0 0.0 7274.05811 .
5043.0 0.0 7259.85449 .
5314.0 0.0 7245.67334 .
5590.0 0.0 7231.51563 .
5849.0 0.0 7217.38330 .
6218.0 0.0 7203.27246 .
6642.0 0.0 7189.18555 .
7225.0 0.0 7175.12158 .
7715.0 0.0 7161.08398 .
8595.0 0.0 7147.06592 .
9070.0 0.0 7133.07227 .
9558.0 0.0 7119.10352 .
9922.0 0.0 7105.15625 .
10161.0 0.0 7091.23340 .
10194.0 0.0 7077.33350 .
9763.0 0.0 7063.45508 .
9293.0 0.0 7049.60254 .
8859.0 0.0 7035.77344 .
8175.0 0.0 7021.96484 .
7440.0 0.0 7008.17969 .
7003.0 0.0 6994.41895 .
6503.0 0.0 6980.68164 .
6056.0 0.0 6966.96680 .
5574.0 0.0 6953.27344 .
5425.0 0.0 6939.60352 .
5112.0 0.0 6925.95947 .
4914.0 0.0 6912.33398 .
4824.0 0.0 6898.73438 .
4573.0 0.0 6885.15674 .
4511.0 0.0 6871.60205 .
4501.0 0.0 6858.06982 .
4456.0 0.0 6844.56006 .
4325.0 0.0 6831.07324 .
4335.0 0.0 6817.61035 .
4384.0 0.0 6804.16846 .
4287.0 0.0 6790.74902 .
4294.0 0.0 6777.35303 .
4239.0 0.0 6763.97900 .
4197.0 0.0 6750.62939 .
4116.0 0.0 6737.29980 .
4165.0 0.0 6723.99512 .
4222.0 0.0 6710.70996 .
4165.0 0.0 6697.45068 .
3967.0 0.0 6684.21191 .
4165.0 0.0 6670.99463 .
4065.0 0.0 6657.80078 .
4137.0 0.0 6644.63037 .
4059.0 0.0 6631.48047 .
4194.0 0.0 6618.35352 .
4059.0 0.0 6605.24902 .
4196.0 0.0 6592.16699 .
4121.0 0.0 6579.10596 .
4062.0 0.0 6566.06787 .
4060.0 0.0 6553.05176 .
4081.0 0.0 6540.05908 .
4075.0 0.0 6527.08643 .
4117.0 0.0 6514.13623 .
4135.0 0.0 6501.20850 .
3997.0 0.0 6488.30371 .
4209.0 0.0 6475.41943 .
4039.0 0.0 6462.55811 .
4169.0 0.0 6449.71680 .
4096.0 0.0 6436.89795 .
4055.0 0.0 6424.10303 .
4150.0 0.0 6411.32813 .
4177.0 0.0 6398.57568 .
3958.0 0.0 6385.84473 .
4195.0 0.0 6373.13623 .
4226.0 0.0 6360.44873 .
4099.0 0.0 6347.78369 .
4063.0 0.0 6335.13818 .
4064.0 0.0 6322.51758 .
3968.0 0.0 6309.91553 .
4059.0 0.0 6297.33643 .
4072.0 0.0 6284.77881 .
4052.0 0.0 6272.24414 .
4198.0 0.0 6259.72852 .
4121.0 0.0 6247.23584 .
4151.0 0.0 6234.76416 .
4016.0 0.0 6222.31348 .
4177.0 0.0 6209.88525 .
4175.0 0.0 6197.47705 .
4098.0 0.0 6185.09082 .
4095.0 0.0 6172.72656 .
4001.0 0.0 6160.38281 .
4092.0 0.0 6148.06006 .
4099.0 0.0 6135.75928 .
4040.0 0.0 6123.47852 .
4054.0 0.0 6111.22119 .
4057.0 0.0 6098.98340 .
4068.0 0.0 6086.76660 .
3997.0 0.0 6074.57080 .
4134.0 0.0 6062.39697 .
4124.0 0.0 6050.24414 .
4146.0 0.0 6038.11133 .
4152.0 0.0 6026.00000 .
4158.0 0.0 6013.91016 .
4226.0 0.0 6001.84082 .
4064.0 0.0 5989.79199 .
4171.0 0.0 5977.76465 .
4065.0 0.0 5965.75879 .
3996.0 0.0 5953.77148 .
4125.0 0.0 5941.80664 .
4124.0 0.0 5929.86182 .
4150.0 0.0 5917.93945 .
4026.0 0.0 5906.03662 .
4241.0 0.0 5894.15430 .
4162.0 0.0 5882.29150 .
4143.0 0.0 5870.45215 .
4194.0 0.0 5858.63086 .
4162.0 0.0 5846.83105 .
4086.0 0.0 5835.05225 .
4121.0 0.0 5823.29346 .
4261.0 0.0 5811.55615 .
4147.0 0.0 5799.83838 .
4096.0 0.0 5788.14111 .
4238.0 0.0 5776.46338 .
4119.0 0.0 5764.80811 .
4222.0 0.0 5753.17139 .
4145.0 0.0 5741.55615 .
4197.0 0.0 5729.96045 .
4237.0 0.0 5718.38574 .
4192.0 0.0 5706.83154 .
4198.0 0.0 5695.29688 .
4100.0 0.0 5683.78174 .
4144.0 0.0 5672.28906 .
4033.0 0.0 5660.81543 .
4246.0 0.0 5649.36084 .
4140.0 0.0 5637.92676 .
4136.0 0.0 5626.51367 .
4253.0 0.0 5615.12012 .
4144.0 0.0 5603.74609 .
4079.0 0.0 5592.39307 .
4124.0 0.0 5581.06006 .
4179.0 0.0 5569.74609 .
4162.0 0.0 5558.45166 .
4109.0 0.0 5547.17773 .
4252.0 0.0 5535.92432 .
4078.0 0.0 5524.69043 .
4225.0 0.0 5513.47607 .
4228.0 0.0 5502.28223 .
4218.0 0.0 5491.10693 .
4206.0 0.0 5479.95313 .
4194.0 0.0 5468.81787 .
4208.0 0.0 5457.70166 .
4141.0 0.0 5446.60547 .
4151.0 0.0 5435.53027 .
4232.0 0.0 5424.47314 .
4241.0 0.0 5413.43652 .
4180.0 0.0 5402.41895 .
4215.0 0.0 5391.42188 .
4139.0 0.0 5380.44336 .
4197.0 0.0 5369.48486 .
4235.0 0.0 5358.54443 .
4254.0 0.0 5347.62598 .
4181.0 0.0 5336.72461 .
4082.0 0.0 5325.84326 .
4124.0 0.0 5314.98193 .
4173.0 0.0 5304.14014 .
4151.0 0.0 5293.31689 .
4186.0 0.0 5282.51270 .
4207.0 0.0 5271.72754 .
4248.0 0.0 5260.96143 .
4321.0 0.0 5250.21729 .
4248.0 0.0 5239.48877 .
4285.0 0.0 5228.78125 .
4108.0 0.0 5218.09326 .
4196.0 0.0 5207.42383 .
4149.0 0.0 5196.77295 .
4231.0 0.0 5186.14209 .
4266.0 0.0 5175.52881 .
4276.0 0.0 5164.93701 .
4192.0 0.0 5154.36230 .
4165.0 0.0 5143.80566 .
4284.0 0.0 5133.26953 .
4259.0 0.0 5122.75244 .
4204.0 0.0 5112.25391 .
4161.0 0.0 5101.77344 .
4279.0 0.0 5091.31299 .
4181.0 0.0 5080.87158 .
4393.0 0.0 5070.44775 .
4140.0 0.0 5060.04199 .
4200.0 0.0 5049.65674 .
4206.0 0.0 5039.29004 .
4234.0 0.0 5028.94141 .
4183.0 0.0 5018.61084 .
4217.0 0.0 5008.30029 .
4321.0 0.0 4998.00732 .
4232.0 0.0 4987.73340 .
4184.0 0.0 4977.47803 .
4148.0 0.0 4967.23975 .
4153.0 0.0 4957.02197 .
4235.0 0.0 4946.82227 .
4155.0 0.0 4936.64111 .
4181.0 0.0 4926.47754 .
4211.0 0.0 4916.33301 .
4189.0 0.0 4906.20703 .
4201.0 0.0 4896.09912 .
4257.0 0.0 4886.00977 .
4220.0 0.0 4875.93701 .
4265.0 0.0 4865.88574 .
4128.0 0.0 4855.85107 .
4310.0 0.0 4845.83350 .
4163.0 0.0 4835.83594 .
4303.0 0.0 4825.85596 .
4262.0 0.0 4815.89355 .
4137.0 0.0 4805.94971 .
4357.0 0.0 4796.02393 .
4201.0 0.0 4786.11719 .
4239.0 0.0 4776.22705 .
4146.0 0.0 4766.35498 .
4176.0 0.0 4756.50146 .
4337.0 0.0 4746.66602 .
4094.0 0.0 4736.84961 .
4163.0 0.0 4727.04980 .
3994.0 0.0 4717.26807 .
4101.0 0.0 4707.50342 .
4166.0 0.0 4697.75879 .
4219.0 0.0 4688.02979 .
4286.0 0.0 4678.31982 .
4170.0 0.0 4668.62695 .
4136.0 0.0 4658.95313 .
4136.0 0.0 4649.29590 .
4142.0 0.0 4639.65723 .
4231.0 0.0 4630.03564 .
4137.0 0.0 4620.43262 .
4212.0 0.0 4610.84619 .
4031.0 0.0 4601.27637 .
4072.0 0.0 4591.72607 .
4180.0 0.0 4582.19336 .
4119.0 0.0 4572.67725 .
4168.0 0.0 4563.17920 .
4188.0 0.0 4553.69824 .
4142.0 0.0 4544.23584 .
4129.0 0.0 4534.78955 .
4217.0 0.0 4525.36182 .
4233.0 0.0 4515.94971 .
4079.0 0.0 4506.55615 .
4129.0 0.0 4497.18115 .
4172.0 0.0 4487.82178 .
4106.0 0.0 4478.48047 .
4188.0 0.0 4469.15625 .
4054.0 0.0 4459.84961 .
4162.0 0.0 4450.55957 .
3989.0 0.0 4441.28711 .
4116.0 0.0 4432.03174 .
4084.0 0.0 4422.79443 .
4060.0 0.0 4413.57275 .
4095.0 0.0 4404.36963 .
3977.0 0.0 4395.18311 .
4102.0 0.0 4386.01367 .
4041.0 0.0 4376.86084 .
4022.0 0.0 4367.72559 .
4106.0 0.0 4358.60645 .
4085.0 0.0 4349.50586 .
4054.0 0.0 4340.42090 .
4067.0 0.0 4331.35303 .
3969.0 0.0 4322.30225 .
4036.0 0.0 4313.26953 .
4132.0 0.0 4304.25195 .
4112.0 0.0 4295.25244 .
4069.0 0.0 4286.26953 .
4183.0 0.0 4277.30176 .
4018.0 0.0 4268.35352 .
4043.0 0.0 4259.41992 .
4133.0 0.0 4250.50342 .
4060.0 0.0 4241.60449 .
4078.0 0.0 4232.72217 .
3985.0 0.0 4223.85645 .
3996.0 0.0 4215.00684 .
4062.0 0.0 4206.17383 .
4026.0 0.0 4197.35791 .
3987.0 0.0 4188.55859 .
3924.0 0.0 4179.77441 .
3919.0 0.0 4171.00781 .
3982.0 0.0 4162.25879 .
3949.0 0.0 4153.52490 .
3985.0 0.0 4144.80762 .
3914.0 0.0 4136.10693 .
3996.0 0.0 4127.42285 .
3984.0 0.0 4118.75537 .
4030.0 0.0 4110.10352 .
4022.0 0.0 4101.46777 .
4008.0 0.0 4092.85010 .
3929.0 0.0 4084.24683 .
3992.0 0.0 4075.66040 .
3953.0 0.0 4067.09058 .
4012.0 0.0 4058.53687 .
3896.0 0.0 4049.99951 .
3928.0 0.0 4041.47803 .
3901.0 0.0 4032.97192 .
3904.0 0.0 4024.48291 .
3973.0 0.0 4016.01099 .
3803.0 0.0 4007.55347 .
3813.0 0.0 3999.11279 .
3951.0 0.0 3990.68799 .
3934.0 0.0 3982.27954 .
3881.0 0.0 3973.88696 .
3930.0 0.0 3965.51001 .
3861.0 0.0 3957.14868 .
3911.0 0.0 3948.80469 .
3852.0 0.0 3940.47510 .
3889.0 0.0 3932.16187 .
3756.0 0.0 3923.86450 .
3814.0 0.0 3915.58374 .
3899.0 0.0 3907.31787 .
3772.0 0.0 3899.06836 .
3931.0 0.0 3890.83447 .
3730.0 0.0 3882.61694 .
3844.0 0.0 3874.41455 .
3736.0 0.0 3866.22656 .
3824.0 0.0 3858.05542 .
3711.0 0.0 3849.90063 .
3806.0 0.0 3841.76099 .
3694.0 0.0 3833.63696 .
3876.0 0.0 3825.52808 .
3785.0 0.0 3817.43457 .
3738.0 0.0 3809.35815 .
3885.0 0.0 3801.29639 .
3805.0 0.0 3793.24976 .
3782.0 0.0 3785.21851 .
3624.0 0.0 3777.20337 .
3739.0 0.0 3769.20337 .
3710.0 0.0 3761.21899 .
3736.0 0.0 3753.24951 .
3566.0 0.0 3745.29663 .
3726.0 0.0 3737.35815 .
3778.0 0.0 3729.43408 .
3695.0 0.0 3721.52637 .
3706.0 0.0 3713.63501 .
3662.0 0.0 3705.75708 .
3683.0 0.0 3697.89526 .
3590.0 0.0 3690.04907 .
3656.0 0.0 3682.21777 .
3683.0 0.0 3674.40112 .
3652.0 0.0 3666.60010 .
3720.0 0.0 3658.81348 .
3679.0 0.0 3651.04297 .
3627.0 0.0 3643.28735 .
3782.0 0.0 3635.54639 .
3671.0 0.0 3627.82031 .
3653.0 0.0 3620.11035 .
3522.0 0.0 3612.41455 .
3595.0 0.0 3604.73389 .
3557.0 0.0 3597.06787 .
3607.0 0.0 3589.41699 .
3651.0 0.0 3581.78223 .
3574.0 0.0 3574.16064 .
3570.0 0.0 3566.55444 .
3554.0 0.0 3558.96313 .
3610.0 0.0 3551.38721 .
3554.0 0.0002814 3543.82593 3561.74487
3505.0 0.0002853 3536.27905 3555.06934
3631.0 0.0002754 3528.74683 3548.47241
3535.0 0.0002829 3521.23047 3541.96362
3555.0 0.0002813 3513.72778 3535.54639
3418.0 0.0002926 3506.23975 3529.23193
3586.0 0.0002789 3498.76636 3523.02930
3547.0 0.0002819 3491.30859 3516.94971
3524.0 0.0002838 3483.86475 3511.00415
3541.0 0.0002824 3476.43555 3505.20801
3485.0 0.0002869 3469.02026 3499.57764
3442.0 0.0002905 3461.62061 3494.13232
3488.0 0.0002867 3454.23560 3488.89404
3491.0 0.0002865 3446.86426 3483.88696
3419.0 0.0002925 3439.50806 3479.14355
3490.0 0.0002865 3432.16602 3474.69751
3528.0 0.0002834 3424.83936 3470.59253
3470.0 0.0002882 3417.52612 3466.87695
3514.0 0.0002846 3410.22754 3463.61108
3565.0 0.0002805 3402.94336 3460.86694
3549.0 0.0002818 3395.67456 3458.73535
3370.0 0.0002967 3388.41870 3457.32300
3445.0 0.0002903 3381.17749 3456.76880
3429.0 0.0002916 3373.95068 3457.24707
3438.0 0.0002909 3366.73901 3458.98608
3541.0 0.0002824 3359.54102 3462.28174
3417.0 0.0002927 3352.35693 3467.52759
3451.0 0.0002898 3345.18750 3475.24536
3516.0 0.0002844 3338.03223 3486.11646
3537.0 0.0002827 3330.89136 3501.02466
3553.0 0.0002815 3323.76416 3521.08569
3627.0 0.0002757 3316.65137 3547.67065
3538.0 0.0002826 3309.55273 3582.39966
3624.0 0.0002759 3302.46851 3627.08423
3650.0 0.0002740 3295.39771 3683.57568
3723.0 0.0002686 3288.34155 3753.41211
3703.0 0.0002701 3281.29883 3837.09277
3910.0 0.0002558 3274.27124 3932.80396
3887.0 0.0002573 3267.25659 4034.67310
4038.0 0.0002476 3260.25635 4131.59766
4120.0 0.0002427 3253.27026 4208.73828
4028.0 0.0002483 3246.29810 4252.62549
4163.0 0.0002402 3239.33960 4256.48340
4111.0 0.0002432 3232.39526 4221.04980
4100.0 0.0002439 3225.46436 4152.15332
4044.0 0.0002473 3218.54785 4063.77588
3890.0 0.0002571 3211.64526 3957.77930
3879.0 0.0002578 3204.75586 3849.40430
3671.0 0.0002724 3197.88062 3748.83423
3638.0 0.0002749 3191.02026 3656.08350
3568.0 0.0002803 3184.17188 3575.41650
3431.0 0.0002915 3177.33813 3506.88354
3379.0 0.0002959 3170.51758 3449.41821
3345.0 0.0002990 3163.71167 3401.46899
3441.0 0.0002906 3156.91846 3361.39941
3291.0 0.0003039 3150.13965 3327.69849
3328.0 0.0003005 3143.37378 3299.06348
3408.0 0.0002934 3136.62231 3274.42554
3274.0 0.0003054 3129.88428 3252.92603
3216.0 0.0003109 3123.15942 3233.89795
3195.0 0.0003130 3116.44800 3216.82861
3264.0 0.0003064 3109.75049 3201.32495
3160.0 0.0003165 3103.06714 3187.08936
3194.0 0.0003131 3096.39624 3173.89111
3138.0 0.0003187 3089.73926 3161.55322
3142.0 0.0003183 3083.09521 3149.93774
3098.0 0.0003228 3076.46631 3138.93433
3010.0 0.0003322 3069.84888 3128.45239
3115.0 0.0003210 3063.24561 3118.42114
3028.0 0.0003303 3056.65527 3108.78076
3131.0 0.0003194 3050.07959 3099.48071
3189.0 0.0003136 3043.51611 3090.47974
2977.0 0.0003359 3036.96631 3081.74194
3130.0 0.0003195 3030.42944 3073.23828
3084.0 0.0003243 3023.90649 3064.94287
2961.0 0.0003377 3017.39648 3056.83447
2977.0 0.0003359 3010.89941 3048.89258
3036.0 0.0003294 3004.41602 3041.10254
2965.0 0.0003373 2997.94604 3033.45020
3098.0 0.0003228 2991.48901 3025.92236
2966.0 0.0003372 2985.04443 3018.50952
3030.0 0.0003300 2978.61353 3011.20117
3012.0 0.0003320 2972.19604 3003.99048
2947.0 0.0003393 2965.79175 2996.86914
3058.0 0.0003270 2959.39966 2989.83081
2885.0 0.0003466 2953.02124 2982.87036
3024.0 0.0003307 2946.65576 2975.98242
3072.0 0.0003255 2940.30371 2969.16333
2967.0 0.0003370 2933.96436 2962.40869
3016.0 0.0003316 2927.63745 2955.71411
2992.0 0.0003342 2921.32397 2949.07764
2972.0 0.0003365 2915.02417 2942.49658
2871.0 0.0003483 2908.73657 2935.96753
3036.0 0.0003294 2902.46143 2929.48926
3023.0 0.0003308 2896.19995 2923.05957
2899.0 0.0003449 2889.95142 2916.67651
3001.0 0.0003332 2883.71509 2910.33862
2912.0 0.0003434 2877.49170 2904.04443
2828.0 0.000354 2871.28101 2897.79297
3062.0 0.0003266 2865.08423 2891.58398
2946.0 0.0003394 2858.89893 2885.41528
2996.0 0.0003338 2852.72681 2879.28662
2883.0 0.0003469 2846.56714 2873.19702
2908.0 0.0003439 2840.42114 2867.14697
2901.0 0.0003447 2834.28711 2861.13501
2948.0 0.0003392 2828.16553 2855.16064
2830.0 0.000353 2822.05664 2849.22412
2937.0 0.0003405 2815.96094 2843.32666
2809.0 0.000356 2809.87793 2837.46606
2792.0 0.000358 2803.80640 2831.64282
2790.0 0.000358 2797.74829 2825.85767
2891.0 0.0003459 2791.70239 2820.11011
2850.0 0.000351 2785.66992 2838.23145
2879.0 0.0003473 2779.64893 2833.14258
2829.0 0.000353 2773.64111 2828.11353
2794.0 0.000358 2767.64526 2823.14673
2832.0 0.000353 2761.66260 2830.25781
2761.0 0.000362 2755.69141 2825.71509
2847.0 0.000351 2749.73315 2821.25122
2877.0 0.0003476 2743.78735 2816.86768
2931.0 0.0003412 2737.85425 2812.57031
2787.0 0.000359 2731.93262 2808.35938
2700.0 0.000370 2726.02393 2804.23975
2764.0 0.000362 2720.12720 2800.21558
2770.0 0.000361 2714.24341 2793.22949
2694.0 0.000371 2708.37134 2789.47949
2776.0 0.000360 2702.51196 2785.83423
2801.0 0.000357 2696.66431 2780.76367
2823.0 0.000354 2690.82935 2777.38208
2791.0 0.000358 2685.00635 2774.12158
2821.0 0.000354 2679.19580 2770.98779
2840.0 0.000352 2673.39722 2767.98901
2817.0 0.000355 2667.61133 2765.13232
2799.0 0.000357 2661.83691 2762.42432
2893.0 0.0003457 2656.07495 2759.87573
2769.0 0.000361 2650.32446 2757.49512
2879.0 0.0003473 2644.58643 2755.29297
2913.0 0.0003433 2638.86108 2753.28027
2870.0 0.0003484 2633.14722 2751.46851
2917.0 0.0003428 2627.44531 2749.87061
2864.0 0.0003492 2621.75537 2748.50146
2839.0 0.000352 2616.07788 2747.37646
2852.0 0.0003506 2610.41187 2746.51196
2761.0 0.000362 2604.75781 2745.92578
2811.0 0.000356 2599.11597 2745.63843
2778.0 0.000360 2593.48633 2745.67310
2790.0 0.000358 2587.86792 2746.05151
2820.0 0.000355 2582.26147 2746.80200
2842.0 0.000352 2576.66675 2747.95239
2911.0 0.0003435 2571.08472 2749.53613
2805.0 0.000357 2565.51392 2751.58740
2822.0 0.000354 2559.95508 2754.14600
2747.0 0.000364 2554.40771 2757.25586
2780.0 0.000360 2548.87256 2760.96558
2976.0 0.0003360 2543.34863 2765.32764
2855.0 0.0003503 2537.83691 2770.40356
2802.0 0.000357 2532.33618 2776.26025
2843.0 0.000352 2526.84839 2782.97437
2843.0 0.000352 2521.37158 2790.62988
2856.0 0.0003501 2515.90625 2799.32300
2842.0 0.000352 2510.45264 2809.16309
3001.0 0.0003332 2505.01025 2820.27271
2874.0 0.0003479 2499.58057 2832.79443
2952.0 0.0003388 2494.16162 2846.88770
2916.0 0.0003429 2488.75415 2862.73730
2941.0 0.0003400 2483.35840 2880.55713
2911.0 0.0003435 2477.97461 2900.59229
2921.0 0.0003423 2472.60205 2923.12988
3037.0 0.0003293 2467.24072 2948.50317
3145.0 0.0003180 2461.89087 2977.10254
3166.0 0.0003159 2456.55322 3009.38867
3116.0 0.0003209 2451.22632 3045.90381
3112.0 0.0003213 2445.91113 3087.29175
3261.0 0.0003067 2440.60669 3134.32202
3339.0 0.0002995 2435.31445 3187.91650
3415.0 0.0002928 2430.03345 3249.18896
3502.0 0.0002856 2424.76318 3319.50244
3527.0 0.0002835 2419.50464 3400.54053
3639.0 0.0002748 2414.25806 3494.42163
3693.0 0.0002708 2409.02173 3603.84863
3927.0 0.0002546 2403.79688 3732.32837
4115.0 0.0002430 2398.58350 3884.45361
4210.0 0.0002375 2393.38184 4066.25244
4511.0 0.0002217 2388.19092 4285.57715
4895.0 0.0002043 2383.01074 4552.47705
5046.0 0.0001982 2377.84229 4879.45361
5686.0 0.0001759 2372.68481 5281.47510
6121.0 0.0001634 2367.53906 5775.54492
6733.0 0.0001485 2362.40356 6379.52393
7242.0 0.0001381 2357.27954 7109.55078
8160.0 0.0001225 2352.16650 7974.81055
9131.0 0.0001095 2347.06519 8967.57324
10049.0 0.0000995 2341.97412 10047.18066
11059.0 0.0000904 2336.89453 11122.83887
11769.0 0.0000850 2331.82544 12054.20703
12603.0 0.0000793 2326.76807 12692.82227
13053.0 0.0000766 2321.72095 12947.92285
13175.0 0.0000759 2316.68530 12813.02344
12753.0 0.0000784 2311.66040 12335.09668
12306.0 0.0000813 2306.64746 11584.62109
11711.0 0.0000854 2301.64380 10651.91016
10694.0 0.0000935 2296.65186 9638.44336
9591.0 0.0001043 2291.67041 8634.78906
8655.0 0.0001155 2286.70068 7704.95508
7562.0 0.0001322 2281.74121 6883.79736
6695.0 0.0001494 2276.79248 6182.24365
5845.0 0.0001711 2271.85449 5595.50781
5283.0 0.0001893 2266.92773 5110.74658
4686.0 0.0002134 2262.01147 4712.36670
4355.0 0.0002296 2257.10571 4385.00586
3987.0 0.0002508 2252.21143 4114.94580
3646.0 0.0002743 2247.32715 3890.61597
3432.0 0.0002914 2242.45386 3702.62500
3278.0 0.0003051 2237.59106 3543.54810
3322.0 0.0003010 2232.73950 3407.61084
3132.0 0.0003193 2227.89795 3290.36304
3029.0 0.0003301 2223.06738 3188.37500
2815.0 0.000355 2218.24731 3098.98364
2790.0 0.000358 2213.43774 3020.10254
2711.0 0.000369 2208.63892 2950.07031
2743.0 0.000365 2203.85083 2887.54883
2662.0 0.000376 2199.07275 2831.44385
2633.0 0.000380 2194.30591 2780.85449
2580.0 0.000388 2189.54907 2735.02856
2576.0 0.000388 2184.80322 2693.33838
2598.0 0.000385 2180.06763 2655.25293
2457.0 0.000407 2175.34204 2620.32471
2412.0 0.000415 2170.62744 2588.17188
2348.0 0.000426 2165.92334 2558.46899
2478.0 0.000404 2161.22925 2530.93628
2482.0 0.000403 2156.54590 2505.33276
2419.0 0.000413 2151.87256 2481.45117
2429.0 0.000412 2147.21021 2459.11011
2315.0 0.000432 2142.55713 2438.15283
2265.0 0.000442 2137.91528 2418.44067
2337.0 0.000428 2133.28320 2399.85327
2270.0 0.000441 2128.66162 2382.28467
2278.0 0.000439 2124.05054 2365.63989
2281.0 0.000438 2119.44995 2349.83569
2259.0 0.000443 2114.85889 2334.79761
2246.0 0.000445 2110.27832 2320.45996
2133.0 0.000469 2105.70825 2306.76343
2199.0 0.000455 2101.14795 2293.65527
2230.0 0.000448 2096.59839 2281.08789
2167.0 0.000461 2092.05835 2269.01831
2142.0 0.000467 2087.52905 2257.40796
2181.0 0.000459 2083.00928 2246.22241
2113.0 0.000473 2078.50024 2235.42969
2119.0 0.000472 2074.00049 2225.00122
2140.0 0.000467 2069.51172 2214.91138
2158.0 0.000463 2065.03247 2205.13550
2101.0 0.000476 2060.56348 2195.65308
2208.0 0.000453 2056.10425 2186.44336
2193.0 0.000456 2051.65576 2177.48950
2053.0 0.000487 2047.21643 2168.77417
2118.0 0.000472 2042.78711 2160.28198
2131.0 0.000469 2038.36804 2151.99951
2114.0 0.000473 2033.95923 2143.91406
2043.0 0.000489 2029.55957 2136.01318
2135.0 0.000468 2025.16992 2128.28638
2095.0 0.000477 2020.79089 2120.72339
2054.0 0.000487 2016.42102 2113.31519
2116.0 0.000473 2012.06152 2106.05298
2030.0 0.000493 2007.71130 2098.92822
2051.0 0.000488 2003.37146 2091.93457
2096.0 0.000477 1999.04089 2085.06470
2025.0 0.000494 1994.72095 2078.31177
2015.0 0.000496 1990.41003 2071.66992
2040.0 0.000490 1986.10889 2065.13379
2041.0 0.000490 1981.81799 2058.69849
2056.0 0.000486 1977.53650 2052.35864
1933.0 0.000517 1973.26489 2046.10962
1995.0 0.000501 1969.00269 2039.94775
1956.0 0.000511 1964.75037 2033.86841
1914.0 0.000522 1960.50769 2027.86865
1935.0 0.000517 1956.27490 2021.94458
2023.0 0.000494 1952.05164 2016.09265
1965.0 0.000509 1947.83752 2010.31018
1915.0 0.000522 1943.63379 2004.59436
2035.0 0.000491 1939.43872 1998.94202
1974.0 0.000507 1935.25378 1993.35071
1951.0 0.000513 1931.07813 1987.81824
1974.0 0.000507 1926.91260 1982.34229
1975.0 0.000506 1922.75598 1976.92065
2034.0 0.000492 1918.60901 1971.55127
1958.0 0.000511 1914.47119 1966.23169
1945.0 0.000514 1910.34326 1960.96118
1849.0 0.000541 1906.22510 1955.73804
1905.0 0.000525 1902.11584 1950.55884
1927.0 0.000519 1898.01636 1945.42419
1917.0 0.000522 1893.92590 1940.33118
1848.0 0.000541 1889.84534 1935.27979
1874.0 0.000534 1885.77344 1930.26709
1864.0 0.000536 1881.71130 1925.29285
1860.0 0.000538 1877.65833 1920.35571
1895.0 0.000528 1873.61523 1915.45471
1888.0 0.000530 1869.58081 1910.58826
1791.0 0.000558 1865.55615 1905.75549
1900.0 0.000526 1861.54028 1900.95605
1821.0 0.000549 1857.53418 1896.18872
1843.0 0.000543 1853.53711 1891.45215
1810.0 0.000552 1849.54907 1886.74548
1866.0 0.000536 1845.57056 1882.06873
1863.0 0.000537 1841.60132 1877.42065
1803.0 0.000555 1837.64087 1872.80029
1855.0 0.000539 1833.68945 1868.20691
1821.0 0.000549 1829.74756 1863.64026
1848.0 0.000541 1825.81519 1859.09985
1848.0 0.000541 1821.89148 1854.58472
1816.0 0.000551 1817.97644 1850.09387
1797.0 0.000556 1814.07104 1845.62744
1790.0 0.000559 1810.17432 1841.18433
1840.0 0.000543 1806.28723 1836.76501
1838.0 0.000544 1802.40906 1832.36792
1811.0 0.000552 1798.53955 1827.99304
1797.0 0.000556 1794.67920 1823.63977
1819.0 0.000550 1790.82800 1819.30774
1768.0 0.000566 1786.98584 1814.99658
1870.0 0.000535 1783.15210 1810.70593
1863.0 0.000537 1779.32776 1806.43518
1726.0 0.000579 1775.51257 1802.18433
1761.0 0.000568 1771.70618 1797.95264
1832.0 0.000546 1767.90833 1793.73975
1790.0 0.000559 1764.11951 1789.54578
1773.0 0.000564 1760.33984 1785.37061
1784.0 0.000561 1756.56860 1781.21252
1797.0 0.000556 1752.80627 1777.07263
1773.0 0.000564 1749.05298 1772.95007
1736.0 0.000576 1745.30859 1768.84485
1786.0 0.000560 1741.57275 1764.75659
1754.0 0.000570 1737.84570 1760.68433
1735.0 0.000576 1734.12744 1756.62891
1708.0 0.000585 1730.41821 1752.59021
1709.0 0.000585 1726.71729 1749.22778
1696.0 0.000590 1723.02515 1745.24402
1658.0 0.000603 1719.34167 1741.27673
1668.0 0.000600 1715.66711 1737.32593
1757.0 0.000569 1712.00134 1733.72095
1732.0 0.000577 1708.34412 1729.81482
1696.0 0.000590 1704.69531 1725.92590
1647.0 0.000607 1701.05493 1722.05408
1687.0 0.000593 1697.42395 1718.19983
1675.0 0.000597 1693.80078 1714.36230
1742.0 0.000574 1690.18677 1710.54199
1640.0 0.000610 1686.58081 1706.73877
1676.0 0.000597 1682.98389 1702.95361
1671.0 0.000598 1679.39514 1694.50708
1656.0 0.000604 1675.81531 1690.81824
1669.0 0.000599 1672.24341 1687.14636
1662.0 0.000602 1668.68054 1670.48462
1699.0 0.000589 1665.12598 1667.01697
1625.0 0.000615 1661.57959 1663.56384
1647.0 0.000607 1658.04187 1660.12708
1635.0 0.000612 1654.51282 1656.70605
1681.0 0.000595 1650.99194 1653.30237
1649.0 0.000606 1647.47937 1649.91663
1665.0 0.000601 1643.97522 1646.55029
1660.0 0.000602 1640.47986 1643.20459
1678.0 0.000596 1636.99243 1639.88025
1656.0 0.000604 1633.51331 1636.57959
1731.0 0.000578 1630.04260 1633.30408
1614.0 0.000620 1626.58008 1630.05615
1597.0 0.000626 1623.12598 1626.83875
1629.0 0.000614 1619.67993 1623.65430
1645.0 0.000608 1616.24316 1620.50769
1588.0 0.000630 1612.81384 1617.40149
1643.0 0.000609 1609.39270 1614.34143
1581.0 0.000633 1605.97986 1611.33423
1577.0 0.000634 1602.57507 1608.38672
1617.0 0.000618 1599.17883 1605.50842
1588.0 0.000630 1595.79028 1602.71033
1566.0 0.000639 1592.41028 1600.00671
1599.0 0.000625 1589.03882 1597.41516
1647.0 0.000607 1585.67505 1594.95630
1561.0 0.000641 1582.31946 1592.66016
1679.0 0.000596 1578.97180 1590.56470
1696.0 0.000590 1575.63220 1588.72327
1551.0 0.000645 1572.30078 1587.21375
1589.0 0.000629 1568.97754 1586.15503
1543.0 0.000648 1565.66199 1585.73169
1561.0 0.000641 1562.35547 1586.23145
1572.0 0.000636 1559.05627 1588.07874
1470.0 0.000680 1555.76489 1591.87085
1580.0 0.000633 1552.48157 1598.37329
1632.0 0.000613 1549.20630 1608.46521
1556.0 0.000643 1545.93909 1622.99695
1560.0 0.000641 1542.67944 1642.51379
1573.0 0.000636 1539.42810 1666.70056
1557.0 0.000642 1536.18445 1693.39954
1603.0 0.000624 1532.94946 1717.69360
1641.0 0.000609 1529.72168 1733.15100
1672.0 0.000598 1526.50183 1736.19202
1663.0 0.000601 1523.28992 1728.33167
1604.0 0.000623 1520.08582 1712.84937
1679.0 0.000596 1516.88940 1691.61316
1681.0 0.000595 1513.70093 1665.82727
1532.0 0.000653 1510.52014 1637.75903
1510.0 0.000662 1507.34790 1610.27271
1574.0 0.000635 1504.18274 1585.54138
1552.0 0.000644 1501.02527 1564.60217
1542.0 0.000649 1497.87585 1547.52869
1460.0 0.000685 1494.73389 1533.84387
1447.0 0.000691 1491.59973 1522.87830
1492.0 0.000670 1488.47314 1513.97266
1499.0 0.000667 1485.35449 1506.56628
1481.0 0.000675 1482.24402 1500.22449
1437.0 0.000696 1479.14038 1494.62927
1446.0 0.000692 1476.04468 1489.56287
1517.0 0.000659 1472.95654 1484.87817
1469.0 0.000681 1469.87610 1480.47803
1411.0 0.000709 1466.80298 1476.29724
1519.0 0.000658 1463.73779 1472.29065
1430.0 0.000699 1460.67993 1468.42468
1489.0 0.000672 1457.63000 1464.67590
1435.0 0.000697 1454.58752 1461.02539
1464.0 0.000683 1451.55273 1457.45715
1393.0 0.000718 1448.52490 1453.96008
1391.0 0.000719 1445.50500 1450.52417
1466.0 0.000682 1442.49243 1447.14160
1516.0 0.000660 1439.48730 1443.80579
1468.0 0.000681 1436.48975 1440.51196
1404.0 0.000712 1433.49963 1437.25488
1344.0 0.000744 1430.51746 1434.03125
1451.0 0.000689 1427.54211 1430.83728
1415.0 0.000707 1424.57422 1427.67053
1372.0 0.000729 1421.61365 1424.52844
1398.0 0.000715 1418.66077 1421.40979
1409.0 0.000710 1415.71497 1418.31177
1404.0 0.000712 1412.77661 1415.23352
1467.0 0.000682 1409.84558 1412.17371
1418.0 0.000705 1406.92249 1409.13171
1457.0 0.000686 1404.00623 1406.10535
1380.0 0.000725 1401.09705 1403.09424
1376.0 0.000727 1398.19519 1400.09790
1343.0 0.000745 1395.30066 1397.11499
1379.0 0.000725 1392.41357 1394.14587
1351.0 0.000740 1389.53333 1391.18909
1399.0 0.000715 1386.66077 1388.24487
1415.0 0.000707 1383.79504 1385.31201
1376.0 0.000727 1380.93750 1382.39124
1423.0 0.000703 1378.08618 1379.48096
1353.0 0.000739 1375.24231 1376.58179
1375.0 0.000727 1372.40552 1373.69275
1348.0 0.000742 1369.57605 1370.81372
1385.0 0.000722 1366.75330 1367.94470
1303.0 0.000767 1363.93811 1365.08557
1331.0 0.000751 1361.12976 1362.23572
1441.0 0.000694 1358.32898 1358.72510
1325.0 0.000755 1355.53528 1355.91675
1385.0 0.000722 1352.74805 1353.11621
1311.0 0.000763 1349.96838 1350.32349
1350.0 0.000741 1347.19543 1347.20215
1414.0 0.000707 1344.42957 1344.43652
1325.0 0.000755 1341.67078 1341.67749
1324.0 0.000755 1338.91895 1338.92566
1275.0 0.000784 1336.17480 1336.18140
1355.0 0.000738 1333.43677 1333.44336
1332.0 0.000751 1330.70593 1330.71265
1342.0 0.000745 1327.98218 1327.98889
1364.0 0.000733 1325.26514 1325.27173
1334.0 0.000750 1322.55493 1322.56152
1379.0 0.000725 1319.85193 1319.85852
1397.0 0.000716 1317.15576 1317.16235
1318.0 0.000759 1314.46655 1314.47290
1254.0 0.000797 1311.78467 1311.79102
1321.0 0.000757 1309.10889 1309.11536
1309.0 0.000764 1306.44019 1306.44666
1295.0 0.000772 1303.77832 1303.78455
1252.0 0.000799 1301.12329 1301.12952
1299.0 0.000770 1298.47498 1298.48120
1257.0 0.000796 1295.83350 1295.83972
1292.0 0.000774 1293.19885 1293.20483
1312.0 0.000762 1290.57141 1290.57764
1271.0 0.000787 1287.95020 1295.98950
1285.0 0.000778 1285.33582 1293.51660
1257.0 0.000796 1282.72815 1291.05396
1309.0 0.000764 1280.12720 1288.60229
1249.0 0.000801 1277.53284 1286.16125
1258.0 0.000795 1274.94519 1287.76355
1301.0 0.000769 1272.36438 1285.41541
1284.0 0.000779 1269.79065 1283.08105
1306.0 0.000766 1267.22314 1280.75964
1263.0 0.000792 1264.66223 1278.45154
1268.0 0.000789 1262.10803 1276.15735
1218.0 0.000821 1259.56018 1273.87732
1322.0 0.000756 1257.01929 1271.61133
1265.0 0.000791 1254.48474 1269.35999
1214.0 0.000824 1251.95703 1267.12354
1301.0 0.000769 1249.43555 1264.90222
1311.0 0.000763 1246.92114 1262.69714
1227.0 0.000815 1244.41296 1260.50745
1255.0 0.000797 1241.91125 1258.33386
1270.0 0.000787 1239.41626 1256.17725
1215.0 0.000823 1236.92737 1254.03723
1258.0 0.000795 1234.44531 1251.91504
1246.0 0.000803 1231.96960 1249.81055
1243.0 0.000805 1229.50037 1247.72449
1266.0 0.000790 1227.03784 1245.65796
1307.0 0.000765 1224.58154 1243.61047
1288.0 0.000776 1222.13159 1241.58276
1259.0 0.000794 1219.68811 1239.57593
1251.0 0.000799 1217.25098 1237.59009
1274.0 0.000785 1214.82031 1235.62622
1246.0 0.000803 1212.39587 1233.68530
1232.0 0.000812 1209.97791 1231.76746
1220.0 0.000820 1207.56665 1229.87427
1227.0 0.000815 1205.16138 1228.00537
1264.0 0.000791 1202.76245 1226.16272
1229.0 0.000814 1200.36963 1224.34656
1252.0 0.000799 1197.98340 1222.55872
1308.0 0.000765 1195.60315 1220.79932
1230.0 0.000813 1193.22961 1219.07031
1231.0 0.000812 1190.86194 1217.37219
1257.0 0.000796 1188.50073 1215.70703
1176.0 0.000850 1186.14624 1214.07629
1239.0 0.000807 1183.79724 1212.48022
1226.0 0.000816 1181.45483 1210.92126
1253.0 0.000798 1179.11829 1209.40088
1244.0 0.000804 1176.78809 1207.92102
1241.0 0.000806 1174.46387 1206.48352
1229.0 0.000814 1172.14624 1205.09070
1297.0 0.000771 1169.83447 1203.74438
1253.0 0.000798 1167.52930 1202.44751
1254.0 0.000797 1165.22974 1201.20190
1235.0 0.000810 1162.93652 1200.01074
1208.0 0.000828 1160.64941 1198.87671
1278.0 0.000782 1158.36841 1197.80359
1243.0 0.000805 1156.09326 1196.79443
1239.0 0.000807 1153.82410 1195.85278
1211.0 0.000826 1151.56140 1194.98315
1252.0 0.000799 1149.30493 1194.18994
1220.0 0.000820 1147.05408 1193.47742
1207.0 0.000829 1144.80933 1192.85095
1169.0 0.000855 1142.57043 1192.31616
1236.0 0.000809 1140.33777 1191.87903
1245.0 0.000803 1138.11072 1191.54663
1256.0 0.000796 1135.88965 1191.32593
1259.0 0.000794 1133.67517 1191.22485
1232.0 0.000812 1131.46606 1191.25220
1248.0 0.000801 1129.26355 1191.41821
1222.0 0.000818 1127.06628 1191.73230
1306.0 0.000766 1124.87524 1192.20654
1186.0 0.000843 1122.68994 1192.85364
1243.0 0.000805 1120.51038 1193.68774
1270.0 0.000787 1118.33704 1194.72461
1304.0 0.000767 1116.16931 1195.98145
1311.0 0.000763 1114.00769 1197.47778
1273.0 0.000786 1111.85181 1199.23511
1334.0 0.000750 1109.70190 1201.27710
1331.0 0.000751 1107.55750 1203.63074
1373.0 0.000728 1105.41907 1206.32617
1321.0 0.000757 1103.28650 1209.39722
1316.0 0.000760 1101.15955 1212.88220
1409.0 0.000710 1099.03833 1216.82434
1333.0 0.000750 1096.92285 1221.27258
1368.0 0.000731 1094.81360 1226.28296
1400.0 0.000714 1092.70959 1231.91895
1345.0 0.000743 1090.61145 1238.25354
1441.0 0.000694 1088.51892 1245.37109
1420.0 0.000704 1086.43237 1253.36938
1412.0 0.000708 1084.35107 1262.36218
1406.0 0.000711 1082.27576 1272.48328
1378.0 0.000726 1080.20618 1283.89099
1448.0 0.000691 1078.14209 1296.77405
1411.0 0.000709 1076.08398 1311.36023
1435.0 0.000697 1074.03101 1327.92444
1437.0 0.000696 1071.98389 1370.16980
1540.0 0.000649 1069.94238 1392.45691
1524.0 0.000656 1067.90625 1418.00525
1551.0 0.000645 1065.87585 1447.43579
1542.0 0.000649 1063.85120 1481.50403
1593.0 0.000628 1061.83167 1532.84827
1733.0 0.000577 1059.81836 1579.46143
1765.0 0.000567 1057.81030 1634.03247
1753.0 0.000570 1055.80750 1698.06824
1821.0 0.000549 1053.81042 1773.28918
1911.0 0.000523 1051.81860 1861.60938
2042.0 0.000490 1049.83276 1965.08936
2199.0 0.000455 1047.85193 2085.83203
2248.0 0.000445 1045.87671 2251.00269
2329.0 0.000429 1043.90723 2412.52246
2618.0 0.000382 1041.94312 2595.09937
2870.0 0.0003484 1039.98413 2797.09839
3002.0 0.0003331 1038.03076 3013.70654
3173.0 0.0003152 1036.08264 3248.40796
3344.0 0.0002990 1034.14014 3462.26733
3630.0 0.0002755 1032.20288 3649.81445
3820.0 0.0002618 1030.27112 3793.16919
3889.0 0.0002571 1028.34448 3878.96729
4053.0 0.0002467 1026.42383 3901.67822
4054.0 0.0002467 1024.50818 3863.54810
3941.0 0.0002537 1022.59760 3771.88818
3884.0 0.0002575 1020.69250 3636.32129
3719.0 0.0002689 1018.79272 3467.59009
3458.0 0.0002892 1016.89819 3277.34985
3288.0 0.0003041 1015.00891 3077.58154
3170.0 0.0003155 1013.12500 2879.29785
2759.0 0.000362 1011.24677 2691.21997
2520.0 0.000397 1009.37335 2519.13818
2419.0 0.000413 1007.50519 2366.06299
2288.0 0.000437 1005.64215 2232.84912
2132.0 0.000469 1003.78455 2118.93604
2043.0 0.000489 1001.93201 2022.96741
1850.0 0.000541 1000.08484 1943.23633
1940.0 0.000515 998.24255 1877.96265
1824.0 0.000548 996.40613 1829.90125
1736.0 0.000576 994.57416 1788.74255
1778.0 0.000562 992.74786 1757.54724
1817.0 0.000550 990.92621 1735.25354
1741.0 0.000574 989.11011 1721.03418
1741.0 0.000574 987.29871 1716.50781
1741.0 0.000574 985.49268 1716.90356
1822.0 0.000549 983.69165 1724.23035
1783.0 0.000561 981.89587 1738.53479
1793.0 0.000558 980.10553 1760.08203
1868.0 0.000535 978.31976 1789.37012
1934.0 0.000517 976.53894 1827.16492
2004.0 0.000499 974.76337 1874.55493
2039.0 0.000490 972.99274 1933.04626
2083.0 0.000480 971.22729 2004.72241
2259.0 0.000443 969.46680 2092.50708
2403.0 0.000416 967.71124 2200.58667
2487.0 0.000402 965.96094 2335.06909
2673.0 0.000374 964.21558 2504.93311
3007.0 0.0003326 962.47485 2723.27710
3212.0 0.0003113 960.73938 3008.74121
3550.0 0.0002817 959.00867 3386.75391
4053.0 0.0002467 957.28302 3890.03882
4759.0 0.0002101 955.56226 4557.61084
5529.0 0.0001809 953.84631 5431.42383
6706.0 0.0001491 952.13562 6549.57080
7872.0 0.0001270 950.42963 7933.81543
9316.0 0.0001073 948.72845 9566.69336
11099.0 0.0000901 947.03217 11353.04395
12682.0 0.0000789 945.34064 13078.25098
14070.0 0.0000711 943.65436 14426.06445
14903.0 0.0000671 941.97247 15128.59473
14935.0 0.0000670 940.29565 15146.75781
14882.0 0.0000672 938.62354 14649.97754
14168.0 0.0000706 936.95667 13824.45508
12966.0 0.0000771 935.29431 12750.11621
11439.0 0.0000874 933.63660 11449.33984
9823.0 0.0001018 931.98370 9994.21289
8290.0 0.0001206 930.33557 8518.11816
7125.0 0.0001404 928.69226 7150.13867
5814.0 0.0001720 927.05377 5968.09961
4638.0 0.0002156 925.41998 4995.74414
3869.0 0.0002585 923.79120 4221.67285
3177.0 0.0003148 922.16681 3618.20898
2707.0 0.000369 920.54736 3153.19873
2441.0 0.000410 918.93213 2796.04858
2247.0 0.000445 917.32190 2520.45190
2032.0 0.000492 915.71637 2305.29688
1879.0 0.000532 914.11548 2134.51611
1739.0 0.000575 912.51917 1996.36926
1710.0 0.000585 910.92780 1882.51807
1625.0 0.000615 909.34094 1787.11426
1550.0 0.000645 907.75848 1706.05225
1435.0 0.000697 906.18079 1636.40295
1350.0 0.000741 904.60773 1576.02539
1331.0 0.000751 903.03925 1523.31042
1348.0 0.000742 901.47528 1477.01501
1362.0 0.000734 899.91595 1436.15869
1322.0 0.000756 898.36108 1399.95264
1245.0 0.000803 896.81116 1367.75732
1218.0 0.000821 895.26556 1339.04626
1245.0 0.000803 893.72449 1313.38562
1194.0 0.000838 892.18781 1290.41541
1189.0 0.000841 890.65576 1269.83728
1205.0 0.000830 889.12793 1251.40186
1247.0 0.000802 887.60510 1234.90295
1081.0 0.000925 886.08630 1220.16992
1204.0 0.000831 884.57257 1207.06384
1157.0 0.000864 883.06305 1195.47107
1086.0 0.000921 881.55756 1185.30457
1165.0 0.000858 880.05701 1176.49927
1145.0 0.000873 878.56055 1169.01123
1107.0 0.000903 877.06885 1162.81787
1098.0 0.000911 875.58118 1157.91931
1068.0 0.000936 874.09821 1154.33875
1082.0 0.000924 872.61981 1152.12622
1096.0 0.000912 871.14545 1152.41418
1098.0 0.000911 869.67560 1153.23511
1147.0 0.000872 868.20996 1155.78906
1108.0 0.000903 866.74890 1160.29688
1148.0 0.000871 865.29199 1167.04651
1160.0 0.000862 863.83942 1176.93103
1098.0 0.000911 862.39130 1189.38013
1118.0 0.000894 860.94751 1205.48291
1219.0 0.000820 859.50812 1225.93542
1286.0 0.000778 858.07294 1251.55798
1154.0 0.000867 856.64209 1283.29565
1281.0 0.000781 855.21533 1322.20154
1443.0 0.000693 853.79297 1369.40125
1362.0 0.000734 852.37482 1426.01917
1443.0 0.000693 850.96088 1493.04346
1544.0 0.000648 849.55127 1571.08362
1692.0 0.000591 848.14606 1659.96326
1786.0 0.000560 846.74493 1758.11304
1818.0 0.000550 845.34790 1861.81787
1935.0 0.000517 843.95508 1964.62793
2001.0 0.000500 842.56659 2057.55005
2244.0 0.000446 841.18213 2122.61279
2248.0 0.000445 839.80200 2168.00586
2188.0 0.000457 838.42584 2181.92676
2178.0 0.000459 837.05402 2165.54150
2219.0 0.000451 835.68640 2122.93091
2115.0 0.000473 834.32263 2032.59900
2050.0 0.000488 832.96301 1952.21912
1958.0 0.000511 831.60767 1859.56677
1821.0 0.000549 830.25629 1725.30042
1597.0 0.000626 828.90912 1625.33911
1573.0 0.000636 827.56604 1528.91260
1468.0 0.000681 826.22705 1439.53735
1343.0 0.000745 824.89227 1362.28137
1251.0 0.000799 823.56140 1291.63977
1212.0 0.000825 822.23450 1230.43347
1090.0 0.000917 820.91168 1177.92700
1100.0 0.000909 819.59296 1133.15308
1089.0 0.000918 818.27820 1095.08411
974.0 0.001027 816.96735 1064.30396
983.0 0.001017 815.66064 1036.79016
1037.0 0.000964 814.35797 1013.28833
948.0 0.001055 813.05927 993.11273
878.0 0.001139 811.76453 975.68579
919.0 0.001088 810.47369 960.52881
898.0 0.001114 809.18689 947.24945
942.0 0.001062 807.90387 935.52905
883.0 0.001133 806.62494 925.11047
863.0 0.001159 805.34979 915.78754
856.0 0.001168 804.07886 907.39386
875.0 0.001143 802.81152 899.79395
893.0 0.001120 801.54828 892.87866
843.0 0.001186 800.28888 886.55811
865.0 0.001156 799.03339 880.75763
859.0 0.001164 797.78156 875.41516
836.0 0.001196 796.53369 870.47852
879.0 0.001138 795.28973 865.90259
881.0 0.001135 794.04962 861.64978
872.0 0.001147 792.81354 857.68750
860.0 0.001163 791.58118 853.98657
829.0 0.001206 790.35242 850.52319
828.0 0.001208 789.12744 847.27588
823.0 0.001215 787.90649 844.22583
820.0 0.001220 786.68921 841.35724
875.0 0.001143 785.47583 838.65570
835.0 0.001198 784.26611 836.10864
779.0 0.001284 783.06042 833.70587
840.0 0.001190 781.85822 831.43750
831.0 0.001203 780.65967 829.29492
843.0 0.001186 779.46503 827.27161
812.0 0.001232 778.27423 825.36127
856.0 0.001168 777.08685 823.55853
834.0 0.001199 775.90338 821.85889
813.0 0.001230 774.72357 820.25848
865.0 0.001156 773.54755 818.75488
826.0 0.001211 772.37518 817.34503
839.0 0.001192 771.20642 816.02722
835.0 0.001198 770.04120 814.80023
791.0 0.001264 768.87976 813.66345
788.0 0.001269 767.72198 812.61670
792.0 0.001263 766.56781 811.66052
827.0 0.001209 765.41736 810.79578
812.0 0.001232 764.27039 810.02399
864.0 0.001157 763.12720 809.34735
851.0 0.001175 761.98761 808.76843
855.0 0.001170 760.85138 808.29065
829.0 0.001206 759.71899 807.91791
804.0 0.001244 758.59003 807.65527
860.0 0.001163 757.46460 807.50806
807.0 0.001239 756.34271 807.48291
895.0 0.001117 755.22443 807.58716
849.0 0.001178 754.10999 807.82965
792.0 0.001263 752.99878 808.21936
871.0 0.001148 751.89111 808.76794
836.0 0.001196 750.78699 809.48779
835.0 0.001198 749.68628 810.39349
845.0 0.001183 748.58911 811.50146
803.0 0.001245 747.49554 812.83038
861.0 0.001161 746.40527 814.40155
856.0 0.001168 745.31879 816.23999
844.0 0.001185 744.23560 818.37305
849.0 0.001178 743.15588 820.83423
863.0 0.001159 742.07965 823.66083
821.0 0.001218 741.00665 826.89679
869.0 0.001151 739.93726 830.59338
859.0 0.001164 738.87122 834.81104
874.0 0.001144 737.80865 858.13147
864.0 0.001157 736.74945 864.16150
862.0 0.001160 735.69379 870.99542
852.0 0.001174 734.64148 878.75763
854.0 0.001171 733.59241 887.60065
890.0 0.001124 732.54669 906.83368
874.0 0.001144 731.50439 918.70789
958.0 0.001044 730.46552 932.37695
931.0 0.001074 729.42987 948.19519
895.0 0.001117 728.39758 966.59955
1039.0 0.000962 727.36884 988.12549
994.0 0.001006 726.34332 1013.41876
1029.0 0.000972 725.32098 1043.24866
1036.0 0.000965 724.30206 1078.50952
1090.0 0.000917 723.28638 1115.81140
1207.0 0.000829 722.27399 1165.15869
1249.0 0.000801 721.26477 1223.21021
1254.0 0.000797 720.25891 1291.07251
1316.0 0.000760 719.25659 1369.64514
1445.0 0.000692 718.25720 1457.14929
1529.0 0.000654 717.26129 1557.52148
1631.0 0.000613 716.26849 1666.45593
1813.0 0.000552 715.27869 1779.57300
1866.0 0.000536 714.29224 1889.65881
1974.0 0.000507 713.30920 1987.09070
2118.0 0.000472 712.32922 2061.84155
2128.0 0.000470 711.35236 2106.64575
2246.0 0.000445 710.37897 2119.37891
2171.0 0.000461 709.40863 2102.75562
2236.0 0.000447 708.44135 2061.73291
2127.0 0.000470 707.47723 2001.00598
2079.0 0.000481 706.51642 1924.42786
1899.0 0.000527 705.55872 1835.96960
1786.0 0.000560 704.60406 1740.53235
1690.0 0.000592 703.65265 1643.61243
1536.0 0.000651 702.70441 1550.24121
1398.0 0.000715 701.75928 1464.12805
1388.0 0.000720 700.81708 1387.41956
1310.0 0.000763 699.87817 1320.94312
1214.0 0.000824 698.94226 1264.62366
1165.0 0.000858 698.00946 1217.86719
1041.0 0.000961 697.07965 1179.84021
1008.0 0.000992 696.15289 1149.64648
1032.0 0.000969 695.22943 1126.43347
1046.0 0.000956 694.30884 1109.44800
1062.0 0.000942 693.39130 1098.06787
1036.0 0.000965 692.47687 1091.81726
1040.0 0.000962 691.56543 1090.37109
1079.0 0.000927 690.65692 1093.56140
1068.0 0.000936 689.75159 1101.38452
1132.0 0.000883 688.84912 1114.01538
1127.0 0.000887 687.94965 1131.84167
1218.0 0.000821 687.05353 1155.51819
1186.0 0.000843 686.15997 1186.06213
1217.0 0.000822 685.26947 1224.99573
1254.0 0.000797 684.38202 1274.54382
1359.0 0.000736 683.49750 1337.88562
1461.0 0.000684 682.61584 1419.42957
1545.0 0.000647 681.73724 1525.06165
1729.0 0.000578 680.86145 1662.27661
1855.0 0.000539 679.98889 1840.09851
2123.0 0.000471 679.11902 2068.67212
2370.0 0.000422 678.25208 2358.42041
2730.0 0.000366 677.38806 2718.55518
3134.0 0.0003191 676.52692 3154.47388
3510.0 0.0002849 675.66864 3663.08789
4152.0 0.0002408 674.81329 4225.00928
4635.0 0.0002157 673.96075 4794.81592
5103.0 0.0001960 673.11133 5298.02295
5440.0 0.0001838 672.26459 5650.40381
5942.0 0.0001683 671.42065 5800.44336
5954.0 0.0001680 670.57965 5758.64941
5690.0 0.0001757 669.74146 5579.00439
5405.0 0.0001850 668.90601 5312.68066
5130.0 0.0001949 668.07349 4980.78760
4757.0 0.0002102 667.24371 4584.84961
4290.0 0.0002331 666.41675 4134.47412
3889.0 0.0002571 665.59277 3659.08081
3396.0 0.0002945 664.77142 3196.24805
2781.0 0.000360 663.95276 2775.52661
2463.0 0.000406 663.13696 2412.02563
2191.0 0.000456 662.32379 2108.76807
1947.0 0.000514 661.51349 1861.63599
1614.0 0.000620 660.70605 1663.30933
1470.0 0.000680 659.90125 1505.58679
1319.0 0.000758 659.09949 1380.58484
1215.0 0.000823 658.30017 1281.30823
1185.0 0.000844 657.50354 1201.88440
1059.0 0.000944 656.70966 1137.59900
970.0 0.001031 655.91852 1084.80603
922.0 0.001085 655.13013 1040.76990
970.0 0.001031 654.34436 1003.47949
904.0 0.001106 653.56128 971.47302
930.0 0.001075 652.78113 943.68506
895.0 0.001117 652.00342 919.32928
870.0 0.001149 651.22827 897.81421
828.0 0.001208 650.45587 878.68323
781.0 0.001280 649.68622 861.57562
807.0 0.001239 648.91919 846.20062
811.0 0.001233 648.15466 832.31946
781.0 0.001280 647.39288 819.73444
818.0 0.001222 646.63367 808.27985
811.0 0.001233 645.87720 797.81580
812.0 0.001232 645.12329 788.22302
767.0 0.001304 644.37189 779.40057
733.0 0.001364 643.62317 771.26080
742.0 0.001348 642.87695 763.72931
805.0 0.001242 642.13330 756.74066
799.0 0.001252 641.39233 750.23846
769.0 0.001300 640.65387 744.17358
762.0 0.001312 639.91797 738.50281
681.0 0.001468 639.18469 733.18842
746.0 0.001340 638.45392 728.19666
726.0 0.001377 637.72565 723.49835
764.0 0.001309 636.99988 719.06696
789.0 0.001267 636.27649 714.87939
697.0 0.001435 635.55573 710.91492
750.0 0.001333 634.83759 707.15503
684.0 0.001462 634.12213 703.58295
744.0 0.001344 633.40887 700.18359
740.0 0.001351 632.69824 696.94366
743.0 0.001346 631.98987 693.85107
712.0 0.001404 631.28412 690.89441
727.0 0.001376 630.58081 688.06415
736.0 0.001359 629.87994 685.35114
729.0 0.001372 629.18158 682.74713
744.0 0.001344 628.48566 680.24457
713.0 0.001403 627.79242 677.83667
745.0 0.001342 627.10114 675.51715
703.0 0.001422 626.41254 673.27991
682.0 0.001466 625.72632 671.12030
698.0 0.001433 625.04248 669.03326
656.0 0.001524 624.36115 667.01422
723.0 0.001383 623.68213 665.05927
699.0 0.001431 623.00543 663.16412
682.0 0.001466 622.33130 661.32605
647.0 0.001546 621.65936 659.54138
697.0 0.001435 620.98993 657.80701
647.0 0.001546 620.32288 656.12054
696.0 0.001437 619.65808 654.47900
684.0 0.001462 618.99567 652.88013
666.0 0.001502 618.33563 651.32178
684.0 0.001462 617.67786 649.80182
720.0 0.001389 617.02246 648.31836
682.0 0.001466 616.36938 646.86975
695.0 0.001439 615.71869 645.45367
690.0 0.001449 615.07019 644.06927
647.0 0.001546 614.42407 642.71460
679.0 0.001473 613.78021 641.38843
651.0 0.001536 613.13849 640.08948
632.0 0.001582 612.49927 638.81653
612.0 0.001634 611.86218 637.56830
643.0 0.001555 611.22766 636.34406
641.0 0.001560 610.59521 635.14240
614.0 0.001629 609.96497 633.96252
666.0 0.001502 609.33691 632.80347
670.0 0.001493 608.71118 631.66443
659.0 0.001517 608.08777 629.49200
631.0 0.001585 607.46649 628.40662
676.0 0.001479 606.84741 627.33844
616.0 0.001623 606.23065 626.28711
611.0 0.001637 605.61597 625.25177
600.0 0.001667 605.00366 624.23187
649.0 0.001541 604.39343 604.39929
652.0 0.001534 603.78540 603.79126
624.0 0.001603 603.17957 603.18549
626.0 0.001597 602.57599 602.58173
640.0 0.001563 601.97449 601.98029
599.0 0.001669 601.37524 601.38110
622.0 0.001608 600.77808 600.78400
642.0 0.001558 600.18304 600.18890
662.0 0.001511 599.59021 599.59607
664.0 0.001506 598.99951 599.00543
625.0 0.001600 598.41089 598.41681
617.0 0.001621 597.82440 597.83032
665.0 0.001504 597.24011 597.24597
616.0 0.001623 596.65784 596.66370
586.0 0.001706 596.07788 596.08368
567.0 0.001764 595.49988 595.50580
629.0 0.001590 594.92395 596.11145
628.0 0.001592 594.35016 595.55347
664.0 0.001506 593.77838 594.99774
576.0 0.001736 593.20868 594.44434
602.0 0.001661 592.64093 593.89355
632.0 0.001582 592.07544 593.34515
578.0 0.001730 591.51215 593.38708
606.0 0.001650 590.95068 592.85138
627.0 0.001595 590.39136 592.31812
606.0 0.001650 589.83398 591.78741
621.0 0.001610 589.27856 592.74609
578.0 0.001730 588.72528 592.25677
602.0 0.001661 588.17401 591.77142
667.0 0.001499 587.62476 591.28998
613.0 0.001631 587.07751 590.81274
621.0 0.001610 586.53229 590.33966
576.0 0.001736 585.98907 590.61212
587.0 0.001704 585.44781 590.16571
572.0 0.001748 584.90857 589.72437
587.0 0.001704 584.37128 589.28845
581.0 0.001721 583.83594 588.85791
608.0 0.001645 583.30255 588.43274
571.0 0.001751 582.77118 588.01361
650.0 0.001538 582.24170 587.60040
629.0 0.001590 581.71429 587.19464
581.0 0.001721 581.18872 586.79388
583.0 0.001715 580.66510 586.39978
568.0 0.001761 580.14337 586.01263
607.0 0.001647 579.62360 585.63239
661.0 0.001513 579.10571 585.25964
600.0 0.001667 578.58984 584.89520
609.0 0.001642 578.07581 584.53827
627.0 0.001595 577.56372 584.18951
552.0 0.001812 577.05347 583.84961
580.0 0.001724 576.54504 583.51868
590.0 0.001695 576.03857 583.19739
585.0 0.001709 575.53406 584.68146
589.0 0.001698 575.03125 584.41235
578.0 0.001730 574.53027 584.15527
614.0 0.001629 574.03137 583.91058
543.0 0.001842 573.53424 583.67950
634.0 0.001577 573.03882 583.46210
628.0 0.001592 572.54541 584.15265
627.0 0.001595 572.05365 583.98145
597.0 0.001675 571.56384 583.82745
576.0 0.001736 571.07587 583.69165
566.0 0.001767 570.58966 583.57520
593.0 0.001686 570.10529 583.47919
596.0 0.001678 569.62280 583.40564
589.0 0.001698 569.14209 583.35541
603.0 0.001658 568.66309 583.33044
594.0 0.001684 568.18597 583.33295
595.0 0.001681 567.71051 583.36475
605.0 0.001653 567.23688 583.42834
612.0 0.001634 566.76495 583.52625
595.0 0.001681 566.29486 583.66144
611.0 0.001637 565.82666 583.83746
602.0 0.001661 565.36005 584.05756
624.0 0.001603 564.89520 584.32617
561.0 0.001783 564.43213 584.64813
616.0 0.001623 563.97083 585.02869
640.0 0.001563 563.51117 585.47394
560.0 0.001786 563.05322 585.99091
603.0 0.001658 562.59705 586.58752
576.0 0.001736 562.14270 587.27338
583.0 0.001715 561.68994 588.05872
630.0 0.001587 561.23883 588.95605
565.0 0.001770 560.78949 589.98010
592.0 0.001689 560.34167 591.14777
594.0 0.001684 559.89587 592.47937
616.0 0.001623 559.45148 593.99890
585.0 0.001709 559.00885 595.73596
597.0 0.001675 558.56781 597.72650
578.0 0.001730 558.12872 600.01593
616.0 0.001623 557.69116 602.66266
604.0 0.001656 557.25494 605.74304
615.0 0.001626 556.82068 609.35956
595.0 0.001681 556.38800 613.65082
637.0 0.001570 555.95697 618.80389
629.0 0.001590 555.52747 625.06952
613.0 0.001631 555.09973 632.77808
690.0 0.001449 554.67358 642.35114
630.0 0.001587 554.24902 654.30914
668.0 0.001497 553.82605 669.26538
712.0 0.001404 553.40472 687.90717
702.0 0.001425 552.98499 710.95374
733.0 0.001364 552.56677 739.08655
715.0 0.001399 552.15027 772.83185
818.0 0.001222 551.73523 812.35950
791.0 0.001264 551.32184 857.14075
866.0 0.001155 550.91003 905.42963
903.0 0.001107 550.49969 953.70459
945.0 0.001058 550.09100 996.59961
893.0 0.001120 549.68384 1028.13306
974.0 0.001027 549.27826 1044.26001
987.0 0.001013 548.87421 1044.94604
970.0 0.001031 548.47162 1033.64771
958.0 0.001044 548.07068 1014.60059
995.0 0.001005 547.67120 990.37939
881.0 0.001135 547.27332 961.50299
862.0 0.001160 546.87695 927.85797
813.0 0.001230 546.48193 890.33014
806.0 0.001241 546.08844 851.15094
793.0 0.001261 545.69659 813.00476
714.0 0.001401 545.30615 778.02045
735.0 0.001361 544.91730 747.37177
671.0 0.001490 544.53003 721.40594
697.0 0.001435 544.14404 699.94421
657.0 0.001522 543.75964 682.54309
614.0 0.001629 543.37653 668.65863
641.0 0.001560 542.99500 657.73895
641.0 0.001560 542.61499 649.27167
634.0 0.001577 542.23639 642.80664
654.0 0.001529 541.85919 637.96613
608.0 0.001645 541.48346 634.44513
639.0 0.001565 541.10925 632.00604
596.0 0.001678 540.73645 630.47046
608.0 0.001645 540.36505 629.70911
669.0 0.001495 539.99512 629.63306
579.0 0.001727 539.62653 630.18396
615.0 0.001626 539.25940 631.32892
638.0 0.001567 538.89374 633.05316
598.0 0.001672 538.52942 635.35974
611.0 0.001637 538.16644 638.26532
655.0 0.001527 537.80493 641.80035
627.0 0.001595 537.44482 646.00928
662.0 0.001511 537.08606 650.95111
620.0 0.001613 536.72876 656.70154
692.0 0.001445 536.37274 663.35449
664.0 0.001506 536.01807 671.02515
723.0 0.001383 535.66492 679.85425
685.0 0.001460 535.31299 690.00977
752.0 0.001330 534.96259 701.69202
723.0 0.001383 534.61334 715.13684
711.0 0.001406 534.26544 730.61823
791.0 0.001264 533.91901 748.44977
709.0 0.001410 533.57379 768.98505
803.0 0.001245 533.22992 792.61310
855.0 0.001170 532.88745 819.75043
811.0 0.001233 532.54645 850.82678
861.0 0.001161 532.20654 886.25983
900.0 0.001111 531.86786 926.41669
962.0 0.001040 531.53064 971.55157
988.0 0.001012 531.19470 1021.71393
1060.0 0.000943 530.86011 1076.61206
1076.0 0.000929 530.52679 1135.43091
1167.0 0.000857 530.19470 1196.62048
1231.0 0.000812 529.86395 1257.71887
1315.0 0.000760 529.53448 1315.33521
1384.0 0.000723 529.20630 1365.46594
1474.0 0.000678 528.87933 1404.22070
1475.0 0.000678 528.55371 1428.77515
1558.0 0.000642 528.22931 1438.07458
1516.0 0.000660 527.90613 1432.83936
1550.0 0.000645 527.58417 1414.88110
1497.0 0.000668 527.26355 1386.22522
1423.0 0.000703 526.94415 1348.60120
1413.0 0.000708 526.62592 1303.49146
1324.0 0.000755 526.30896 1252.48059
1273.0 0.000786 525.99329 1197.49841
1244.0 0.000804 525.67871 1140.73535
1154.0 0.000867 525.36554 1084.33435
1048.0 0.000954 525.05341 1030.07605
998.0 0.001002 524.74255 979.21887
933.0 0.001072 524.43298 932.49438
913.0 0.001095 524.12445 890.20496
821.0 0.001218 523.81720 852.34393
825.0 0.001212 523.51117 818.70734
786.0 0.001272 523.20630 788.97986
783.0 0.001277 522.90259 762.79218
736.0 0.001359 522.59998 739.76184
740.0 0.001351 522.29852 719.51575
720.0 0.001389 521.99835 701.70386
723.0 0.001383 521.69946 686.00769
689.0 0.001451 521.40167 672.14209
673.0 0.001486 521.10480 659.85651
672.0 0.001488 520.80927 648.93298
668.0 0.001497 520.51489 639.18353
618.0 0.001618 520.22156 630.44806
630.0 0.001587 519.92944 622.58948
659.0 0.001517 519.63849 615.49213
629.0 0.001590 519.34863 609.05713
624.0 0.001603 519.05988 603.20123
620.0 0.001613 518.77222 597.85352
591.0 0.001692 518.48572 592.95355
628.0 0.001592 518.20032 588.44965
619.0 0.001616 517.91602 597.13403
579.0 0.001727 517.63275 593.56097
635.0 0.001575 517.35071 590.27667
597.0 0.001675 517.06970 587.25238
583.0 0.001715 516.78979 584.46362
562.0 0.001779 516.51099 581.88867
568.0 0.001761 516.23328 585.83575
629.0 0.001590 515.95654 583.76447
571.0 0.001751 515.68097 581.86102
599.0 0.001669 515.40643 580.11255
619.0 0.001616 515.13293 578.50751
595.0 0.001681 514.86053 577.03644
596.0 0.001678 514.58917 575.69043
573.0 0.001745 514.31885 574.46161
597.0 0.001675 514.04962 582.90503
581.0 0.001721 513.78137 582.12268
596.0 0.001678 513.51404 581.44757
589.0 0.001698 513.24786 580.87549
618.0 0.001618 512.98279 580.40295
562.0 0.001779 512.71869 580.02673
571.0 0.001751 512.45575 579.74402
623.0 0.001605 512.19354 584.37158
592.0 0.001689 511.93250 584.38788
573.0 0.001745 511.67245 584.49738
594.0 0.001684 511.41342 584.69904
591.0 0.001692 511.15530 584.99304
624.0 0.001603 510.89828 585.37946
602.0 0.001661 510.64224 585.85901
582.0 0.001718 510.38718 586.43262
588.0 0.001701 510.13309 587.10175
607.0 0.001647 509.87997 587.86792
561.0 0.001783 509.62784 588.73340
635.0 0.001575 509.37668 589.70111
577.0 0.001733 509.12656 590.77368
595.0 0.001681 508.87729 591.95490
603.0 0.001658 508.62906 593.24835
596.0 0.001678 508.38174 594.65881
607.0 0.001647 508.13538 596.19116
597.0 0.001675 507.88986 597.85083
614.0 0.001629 507.64542 599.64410
617.0 0.001621 507.40189 601.57764
545.0 0.001835 507.15927 603.65912
617.0 0.001621 506.91760 605.89655
606.0 0.001650 506.67688 608.29926
645.0 0.001550 506.43692 610.87720
619.0 0.001616 506.19812 613.64166
626.0 0.001597 505.96011 616.60468
637.0 0.001570 505.72302 619.77966
687.0 0.001456 505.48691 623.18152
632.0 0.001582 505.25162 626.82654
655.0 0.001527 505.01709 630.73273
621.0 0.001610 504.78363 634.91992
594.0 0.001684 504.55106 639.41064
586.0 0.001706 504.31949 644.22900
641.0 0.001560 504.08868 649.40228
683.0 0.001464 503.85861 654.96069
646.0 0.001548 503.62955 660.93823
687.0 0.001456 503.40140 667.37225
693.0 0.001443 503.17407 674.30463
708.0 0.001412 502.94757 681.78333
677.0 0.001477 502.72198 689.86102
684.0 0.001462 502.49725 698.59760
699.0 0.001431 502.27335 708.06085
736.0 0.001359 502.05032 718.32709
752.0 0.001330 501.82813 729.48376
776.0 0.001289 501.60678 741.62976
769.0 0.001300 501.38629 754.87921
792.0 0.001263 501.16663 769.36255
792.0 0.001263 500.94775 785.23065
841.0 0.001189 500.72974 802.65863
819.0 0.001221 500.51254 821.85114
906.0 0.001104 500.29614 843.04938
876.0 0.001142 500.08057 866.53961
920.0 0.001087 499.86584 892.66681
955.0 0.001047 499.65192 921.84888
1025.0 0.000976 499.43875 954.60120
1066.0 0.000938 499.22638 991.56573
1084.0 0.000923 499.01486 1033.55249
1143.0 0.000875 498.80411 1081.59387
1158.0 0.000864 498.59418 1137.01550
1350.0 0.000741 498.38495 1201.52783
1351.0 0.000740 498.17661 1277.33496
1519.0 0.000658 497.96893 1367.26196
1493.0 0.000670 497.76212 1474.88696
1720.0 0.000581 497.55591 1604.66028
1857.0 0.000539 497.35065 1761.98413
2034.0 0.000492 497.14609 1953.20386
2208.0 0.000453 496.94241 2185.47314
2526.0 0.000396 496.73926 2466.42920
2710.0 0.000369 496.53702 2803.60815
3131.0 0.0003194 496.33551 3203.49243
3484.0 0.0002870 496.13477 3669.99268
3990.0 0.0002506 495.93472 4202.03467
4588.0 0.0002180 495.73541 4789.85742
5070.0 0.0001972 495.53687 5410.01074
5478.0 0.0001825 495.33905 6020.63330
6055.0 0.0001652 495.14194 6561.80322
6362.0 0.0001572 494.94559 6967.83496
6784.0 0.0001474 494.74994 7192.06104
7094.0 0.0001410 494.55502 7228.83008
6929.0 0.0001443 494.36081 7112.27881
6877.0 0.0001454 494.16733 6891.61621
6575.0 0.0001521 493.97455 6603.86719
6172.0 0.0001620 493.78244 6262.53613
5908.0 0.0001693 493.59103 5865.38916
5381.0 0.0001858 493.40036 5412.05762
4907.0 0.0002038 493.21036 4916.51709
4347.0 0.0002300 493.02106 4405.57471
3844.0 0.0002601 492.83246 3908.32202
3456.0 0.0002894 492.64450 3447.88232
3070.0 0.0003257 492.45724 3035.32715
2680.0 0.000373 492.27057 2675.83252
2338.0 0.000428 492.08478 2368.32837
2029.0 0.000493 491.89957 2108.69214
1775.0 0.000563 491.71500 1891.39014
1640.0 0.000610 491.53110 1709.29529
1447.0 0.000691 491.34787 1559.41675
1328.0 0.000753 491.16516 1434.49329
1190.0 0.000840 490.98325 1330.28455
1094.0 0.000914 490.80194 1242.86426
1060.0 0.000943 490.62143 1168.98999
1021.0 0.000979 490.44135 1103.60718
922.0 0.001085 490.26196 1049.51892
900.0 0.001111 490.08328 1002.61682
913.0 0.001095 489.90524 961.60999
830.0 0.001205 489.72778 925.48566
839.0 0.001192 489.55096 893.44708
784.0 0.001276 489.37479 864.86182
804.0 0.001244 489.19916 839.22375
770.0 0.001299 489.02426 816.12292
719.0 0.001391 488.84991 795.22339
724.0 0.001381 488.67621 776.24652
693.0 0.001443 488.50305 758.95892
655.0 0.001527 488.33057 743.16357
690.0 0.001449 488.15869 728.69189
620.0 0.001613 487.98734 715.39911
584.0 0.001712 487.81665 703.15991
671.0 0.001490 487.64651 691.86548
604.0 0.001656 487.47699 681.42078
583.0 0.001715 487.30801 671.74213
632.0 0.001582 487.13971 662.75653
602.0 0.001661 486.97189 654.39893
597.0 0.001675 486.80469 646.61194
607.0 0.001647 486.63803 639.34454
580.0 0.001724 486.47189 632.55109
577.0 0.001733 486.30652 626.19141
614.0 0.001629 486.14157 620.22882
561.0 0.001783 485.97720 614.63092
618.0 0.001618 485.81342 609.36847
558.0 0.001792 485.65012 604.41498
571.0 0.001751 485.48737 599.74664
549.0 0.001821 485.32520 595.34198
568.0 0.001761 485.16360 591.18152
556.0 0.001799 485.00262 587.24744
565.0 0.001770 484.84198 583.52356
570.0 0.001754 484.68204 579.99536
522.0 0.001916 484.52261 576.64929
581.0 0.001721 484.36368 573.47321
520.0 0.001923 484.20529 570.45587
540.0 0.001852 484.04739 567.58716
554.0 0.001805 483.89005 564.85748
500.0 0.002000 483.73331 562.25836
503.0 0.001988 483.57693 559.78162
520.0 0.001923 483.42114 557.42029
565.0 0.001770 483.26587 555.16748
506.0 0.001976 483.11108 553.01672
513.0 0.001949 482.95679 550.96277
512.0 0.001953 482.80307 549.00000
528.0 0.001894 482.64981 547.12384
558.0 0.001792 482.49704 545.32941
479.0 0.002088 482.34473 543.61267
499.0 0.002004 482.19293 541.96991
476.0 0.002101 482.04160 540.39740
506.0 0.001976 481.89081 538.89197
510.0 0.001961 481.74048 537.45062
499.0 0.002004 481.59064 536.07031
517.0 0.001934 481.44128 534.74884
503.0 0.001988 481.29233 533.48334
504.0 0.001984 481.14392 532.29865
488.0 0.002049 480.99594 531.13965
497.0 0.002012 480.84842 530.03088
519.0 0.001927 480.70135 528.97083
483.0 0.002070 480.55484 527.95789
510.0 0.001961 480.40857 526.99066
537.0 0.001862 480.26291 526.06793
488.0 0.002049 480.11771 525.18878
461.0 0.002169 479.97287 524.36542
498.0 0.002008 479.82864 523.57092
513.0 0.001949 479.68469 522.81775
457.0 0.002188 479.54123 522.10522
492.0 0.002033 479.39822 521.43317
513.0 0.001949 479.25565 520.80127
476.0 0.002101 479.11353 520.20972
537.0 0.001862 478.97183 519.65851
481.0 0.002079 478.83051 519.14801
444.0 0.002252 478.68964 518.67883
521.0 0.001919 478.54919 505.64478
506.0 0.001976 478.40921 505.51111
534.0 0.001873 478.26959 505.41385
464.0 0.002155 478.13043 505.35452
443.0 0.002257 477.99161 505.33545
483.0 0.002070 477.85324 505.35858
479.0 0.002088 477.71527 489.45828
467.0 0.002141 477.57770 489.88614
502.0 0.001992 477.44049 490.35583
461.0 0.002169 477.30374 490.87140
460.0 0.002174 477.16742 491.43741
512.0 0.001953 477.03143 492.05930
501.0 0.001996 476.89578 492.74301
499.0 0.002004 476.76059 493.49518
464.0 0.002155 476.62576 494.32391
506.0 0.001976 476.49121 495.23792
527.0 0.001898 476.35724 496.24847
511.0 0.001957 476.22354 497.36740
524.0 0.001908 476.09027 498.61014
470.0 0.002128 475.95734 500.66852
522.0 0.001916 475.82465 502.22711
466.0 0.002146 475.69244 503.97421
445.0 0.002247 475.56058 505.94049
497.0 0.002012 475.42911 508.16351
547.0 0.001828 475.29810 510.68759
505.0 0.001980 475.16727 513.56586
534.0 0.001873 475.03680 517.19574
548.0 0.001825 474.90677 520.98694
514.0 0.001946 474.77710 525.35327
482.0 0.002075 474.64774 530.39099
466.0 0.002146 474.51871 536.20850
551.0 0.001815 474.39001 542.92426
549.0 0.001821 474.26169 550.66559
561.0 0.001783 474.13370 559.56573
583.0 0.001715 474.00604 569.75690
572.0 0.001748 473.87869 581.36194
546.0 0.001832 473.75168 594.47925
584.0 0.001712 473.62503 609.15912
560.0 0.001786 473.49866 625.36914
640.0 0.001563 473.37265 642.94550
604.0 0.001656 473.24692 661.53302
606.0 0.001650 473.12152 680.52814
647.0 0.001546 472.99652 699.04980
664.0 0.001506 472.87177 715.98474
703.0 0.001422 472.74728 730.13995
670.0 0.001493 472.62311 740.48975
695.0 0.001439 472.49930 746.43109
762.0 0.001312 472.37579 747.91345
651.0 0.001536 472.25247 745.36047
700.0 0.001429 472.12961 739.43042
738.0 0.001355 472.00702 730.75366
696.0 0.001437 471.88470 719.79285
735.0 0.001361 471.76263 706.86267
664.0 0.001506 471.64078 692.25458
654.0 0.001529 471.51926 676.35687
645.0 0.001550 471.39813 659.68719
605.0 0.001653 471.27722 642.83496
600.0 0.001667 471.15671 626.36023
575.0 0.001739 471.03625 610.71240
624.0 0.001603 470.91626 596.19531
554.0 0.001805 470.79645 582.97260
558.0 0.001792 470.67691 571.09534
509.0 0.001965 470.55765 560.53625
521.0 0.001919 470.43869 551.21954
505.0 0.001980 470.32001 543.04224
514.0 0.001946 470.20157 535.89050
520.0 0.001923 470.08334 529.64880
520.0 0.001923 469.96542 524.20630
485.0 0.002062 469.84778 519.45972
495.0 0.002020 469.73035 515.31549
521.0 0.001919 469.61319 511.69025
519.0 0.001927 469.49628 508.51044
497.0 0.002012 469.37961 505.71240
490.0 0.002041 469.26315 503.24133
489.0 0.002045 469.14700 501.05115
513.0 0.001949 469.03107 499.10220
486.0 0.002058 468.91544 497.36179
486.0 0.002058 468.79993 495.80246
473.0 0.002114 468.68472 494.40121
458.0 0.002183 468.56973 493.13910
515.0 0.001942 468.45499 492.00015
500.0 0.002000 468.34042 490.97147
462.0 0.002165 468.22620 490.04163
516.0 0.001938 468.11203 489.20178
516.0 0.001938 467.99820 488.44391
520.0 0.001923 467.88461 487.76160
495.0 0.002020 467.77121 487.14929
489.0 0.002045 467.65802 495.78326
504.0 0.001984 467.54498 495.43848
485.0 0.002062 467.43228 495.15552
488.0 0.002049 467.31967 494.93204
490.0 0.002041 467.20740 494.76633
512.0 0.001953 467.09521 494.65683
545.0 0.001835 466.98334 494.60306
483.0 0.002070 466.87155 499.14618
497.0 0.002012 466.76004 499.27231
532.0 0.001880 466.64868 499.45627
549.0 0.001821 466.53757 499.69934
524.0 0.001908 466.42661 500.00333
495.0 0.002020 466.31592 500.37073
470.0 0.002128 466.20532 500.80457
509.0 0.001965 466.09497 501.30884
481.0 0.002079 465.98480 501.88797
531.0 0.001883 465.87482 502.54767
544.0 0.001838 465.76501 503.29526
507.0 0.001972 465.65543 504.13885
517.0 0.001934 465.54593 505.08871
500.0 0.002000 465.43671 506.15717
503.0 0.001988 465.32764 507.35950
491.0 0.002037 465.21869 508.71405
489.0 0.002045 465.10995 510.24344
531.0 0.001883 465.00131 511.97476
561.0 0.001783 464.89297 513.94128
520.0 0.001923 464.78473 516.18250
522.0 0.001916 464.67661 518.74530
536.0 0.001866 464.56876 521.68481
521.0 0.001919 464.46100 525.06519
534.0 0.001873 464.35339 528.95862
499.0 0.002004 464.24597 533.44629
577.0 0.001733 464.13867 538.61700
572.0 0.001748 464.03162 544.56561
569.0 0.001757 463.92459 551.38959
565.0 0.001770 463.81781 559.18481
584.0 0.001712 463.71109 568.03778
594.0 0.001684 463.60458 578.01306
574.0 0.001742 463.49826 589.13538
641.0 0.001560 463.39200 601.36084
615.0 0.001626 463.28586 614.53943
604.0 0.001656 463.17990 628.36932
661.0 0.001513 463.07407 642.35693
656.0 0.001524 462.96841 655.80548
711.0 0.001406 462.86288 667.86908
682.0 0.001466 462.75754 677.69135
699.0 0.001431 462.65219 684.60620
719.0 0.001391 462.54706 688.31561
717.0 0.001395 462.44205 688.94287
719.0 0.001391 462.33713 686.92120
699.0 0.001431 462.23236 682.78326
751.0 0.001332 462.12772 676.97174
685.0 0.001460 462.02313 669.76282
679.0 0.001473 461.91873 661.31372
659.0 0.001517 461.81448 651.77856
669.0 0.001495 461.71033 641.40314
653.0 0.001531 461.60623 630.54651
665.0 0.001504 461.50223 619.62720
566.0 0.001767 461.39844 609.04388
640.0 0.001563 461.29471 599.11346
646.0 0.001548 461.19107 590.04614
594.0 0.001684 461.08755 581.95172
591.0 0.001692 460.98419 574.86151
557.0 0.001795 460.88086 568.75275
554.0 0.001805 460.77765 563.56989
523.0 0.001912 460.67456 559.24066
540.0 0.001852 460.57153 555.68567
536.0 0.001866 460.46866 552.82568
497.0 0.002012 460.36581 552.42645
561.0 0.001783 460.26306 550.77411
532.0 0.001880 460.16046 549.61157
549.0 0.001821 460.05792 548.88422
588.0 0.001701 459.95547 548.54559
565.0 0.001770 459.85306 548.55682
562.0 0.001779 459.75079 548.88544
570.0 0.001754 459.64856 549.50549
586.0 0.001706 459.54648 551.32135
550.0 0.001818 459.44443 552.48749
562.0 0.001779 459.34250 553.89948
558.0 0.001792 459.24060 555.55042
558.0 0.001792 459.13885 557.43677
542.0 0.001845 459.03708 559.55786
602.0 0.001661 458.93549 561.91650
605.0 0.001653 458.83386 565.78821
580.0 0.001724 458.73239 568.66919
581.0 0.001721 458.63089 571.81006
621.0 0.001610 458.52954 575.22296
577.0 0.001733 458.42825 578.92157
625.0 0.001600 458.32706 582.92303
613.0 0.001631 458.22583 587.24622
634.0 0.001577 458.12469 591.11676
625.0 0.001600 458.02362 596.80334
652.0 0.001534 457.92270 602.26337
634.0 0.001577 457.82175 608.15271
633.0 0.001580 457.72086 614.50818
658.0 0.001520 457.62009 621.37128
699.0 0.001431 457.51926 628.78894
699.0 0.001431 457.41855 636.41791
739.0 0.001353 457.31790 645.12042
699.0 0.001431 457.21725 654.56403
738.0 0.001355 457.11670 664.83130
730.0 0.001370 457.01614 676.01794
745.0 0.001342 456.91562 688.23608
776.0 0.001289 456.81522 701.61761
802.0 0.001247 456.71484 716.31769
784.0 0.001276 456.61450 732.51984
842.0 0.001188 456.51419 750.44092
901.0 0.001110 456.41388 770.33722
904.0 0.001106 456.31363 792.51038
899.0 0.001112 456.21341 817.31451
958.0 0.001044 456.11328 845.16199
1005.0 0.000995 456.01318 876.52979
1008.0 0.000992 455.91302 911.96442
1071.0 0.000934 455.81299 952.08643
1113.0 0.000898 455.71292 997.59064
1207.0 0.000829 455.61288 1049.24597
1179.0 0.000848 455.51297 1107.88989
1303.0 0.000767 455.41299 1174.41663
1415.0 0.000707 455.31299 1249.76001
1440.0 0.000694 455.21310 1334.86206
1494.0 0.000669 455.11322 1430.62439
1569.0 0.000637 455.01337 1537.83350
1710.0 0.000585 454.91351 1657.04456
1786.0 0.000560 454.81369 1788.41211
1911.0 0.000523 454.71378 1931.45032
2112.0 0.000473 454.61398 2084.71973
2236.0 0.000447 454.51422 2245.46777
2301.0 0.000435 454.41449 2409.29688
2427.0 0.000412 454.31473 2571.00708
2735.0 0.000366 454.21490 2720.88110
2780.0 0.000360 454.11514 2851.42603
2966.0 0.0003372 454.01547 2954.80811
3035.0 0.0003295 453.91574 3025.41577
3115.0 0.0003210 453.81598 3060.99463
3213.0 0.0003112 453.71631 3062.77808
3128.0 0.0003197 453.61652 3034.51807
3230.0 0.0003096 453.51682 2981.40967
3187.0 0.0003138 453.41718 2906.73511
2956.0 0.0003383 453.31741 2814.19849
2919.0 0.0003426 453.21774 2706.19360
2761.0 0.000362 453.11798 2585.03369
2750.0 0.000364 453.01828 2453.62305
2559.0 0.000391 452.91852 2315.68726
2337.0 0.000428 452.81879 2175.48462
2188.0 0.000457 452.71906 2037.24133
2150.0 0.000465 452.61935 1904.62354
1891.0 0.000529 452.51953 1780.42810
1743.0 0.000574 452.41980 1666.52942
1745.0 0.000573 452.32004 1563.99805
1485.0 0.000673 452.22025 1473.30396
1411.0 0.000709 452.12045 1394.52673
1400.0 0.000714 452.02066 1327.53589
1302.0 0.000768 451.92075 1272.12769
1302.0 0.000768 451.82092 1228.11731
1212.0 0.000825 451.72113 1195.39246
1157.0 0.000864 451.62122 1173.93140
1195.0 0.000837 451.52136 1163.79260
1110.0 0.000901 451.42136 1165.07397
1106.0 0.000904 451.32138 1177.84033
1154.0 0.000867 451.22147 1202.00745
1188.0 0.000842 451.12149 1237.15808
1143.0 0.000875 451.02145 1282.25330
1200.0 0.000833 450.92148 1335.21545
1160.0 0.000862 450.82135 1392.43884
1264.0 0.000791 450.72122 1448.45825
1251.0 0.000799 450.62112 1496.28418
1317.0 0.000759 450.52097 1528.87830
1296.0 0.000772 450.42081 1541.54053
1330.0 0.000752 450.32062 1533.81543
1353.0 0.000739 450.22028 1509.37744
1298.0 0.000770 450.12006 1473.84009
1293.0 0.000773 450.01971 1432.06873
1303.0 0.000767 449.91940 1386.54333
1192.0 0.000839 449.81900 1337.30444
1209.0 0.000827 449.71848 1283.17883
1207.0 0.000829 449.61807 1223.48474
1073.0 0.000932 449.51752 1159.15271
994.0 0.001006 449.41702 1092.65063
1044.0 0.000958 449.31644 1027.01868
999.0 0.001001 449.21579 964.87988
953.0 0.001049 449.11508 907.95514
837.0 0.001195 449.01437 857.06525
823.0 0.001215 448.91367 812.35968
806.0 0.001241 448.81284 773.56854
766.0 0.001305 448.71191 740.19550
767.0 0.001304 448.61099 711.64343
760.0 0.001316 448.51007 687.28949
735.0 0.001361 448.40909 666.52838
689.0 0.001451 448.30807 648.79901
704.0 0.001420 448.20697 633.59875
690.0 0.001449 448.10583 620.49005
701.0 0.001427 448.00455 609.10126
692.0 0.001445 447.90332 599.12384
644.0 0.001553 447.80200 590.30707
677.0 0.001477 447.70065 582.44916
654.0 0.001529 447.59915 575.39020
695.0 0.001439 447.49771 569.00360
639.0 0.001565 447.39618 563.16321
638.0 0.001567 447.29459 557.84253
638.0 0.001567 447.19293 552.95087
658.0 0.001520 447.09122 548.43652
651.0 0.001536 446.98935 544.25653
612.0 0.001634 446.88754 540.37512
603.0 0.001658 446.78561 536.76178
628.0 0.001592 446.68375 532.83289
570.0 0.001754 446.58167 529.68787
598.0 0.001672 446.47955 526.74213
612.0 0.001634 446.37738 523.97870
615.0 0.001626 446.27512 521.38208
553.0 0.001808 446.17282 518.93872
559.0 0.001789 446.07043 516.63647
579.0 0.001727 445.96802 514.46448
577.0 0.001733 445.86551 512.41339
602.0 0.001661 445.76294 510.47412
599.0 0.001669 445.66028 508.63928
567.0 0.001764 445.55759 506.90155
561.0 0.001783 445.45480 505.25482
582.0 0.001718 445.35193 503.69339
580.0 0.001724 445.24896 507.65564
607.0 0.001647 445.14594 506.34583
568.0 0.001761 445.04288 505.10931
562.0 0.001779 444.93976 503.94293
589.0 0.001698 444.83649 502.84283
562.0 0.001779 444.73306 501.80606
554.0 0.001805 444.62970 500.82980
548.0 0.001825 444.52625 499.91147
554.0 0.001805 444.42267 501.75427
565.0 0.001770 444.31906 500.99313
527.0 0.001898 444.21536 500.28522
586.0 0.001706 444.11151 499.62885
532.0 0.001880 444.00766 499.02261
536.0 0.001866 443.90372 498.46539
580.0 0.001724 443.79962 497.95609
565.0 0.001770 443.69550 497.49390
549.0 0.001821 443.59128 511.89499
534.0 0.001873 443.48691 511.83041
577.0 0.001733 443.38254 511.82092
554.0 0.001805 443.27814 511.86649
513.0 0.001949 443.17355 511.96774
590.0 0.001695 443.06888 512.12476
560.0 0.001786 442.96408 512.33850
546.0 0.001832 442.85928 512.60992
565.0 0.001770 442.75439 520.30145
521.0 0.001919 442.64932 520.84265
552.0 0.001812 442.54431 521.44958
557.0 0.001795 442.43906 522.12463
561.0 0.001783 442.33377 522.86920
548.0 0.001825 442.22839 523.68622
599.0 0.001669 442.12289 524.57800
545.0 0.001835 442.01736 525.54749
589.0 0.001698 441.91168 526.59772
596.0 0.001678 441.80597 527.73248
558.0 0.001792 441.70007 528.95526
581.0 0.001721 441.59412 530.27057
562.0 0.001779 441.48810 531.68311
593.0 0.001686 441.38193 533.19800
564.0 0.001773 441.27573 534.82086
583.0 0.001715 441.16937 536.55817
602.0 0.001661 441.06290 538.41681
569.0 0.001757 440.95639 540.40442
586.0 0.001706 440.84976 542.52960
618.0 0.001618 440.74307 544.80200
538.0 0.001859 440.63617 547.23224
578.0 0.001730 440.52924 549.83221
570.0 0.001754 440.42224 543.50177
560.0 0.001786 440.31506 546.61871
597.0 0.001675 440.20786 549.94812
559.0 0.001789 440.10040 553.50952
588.0 0.001701 439.99298 557.32471
625.0 0.001600 439.88547 561.41870
577.0 0.001733 439.77780 565.81970
552.0 0.001812 439.67007 564.33850
633.0 0.001580 439.56223 567.35992
664.0 0.001506 439.45419 573.03125
649.0 0.001541 439.34610 579.16138
619.0 0.001616 439.23792 585.80139
652.0 0.001534 439.12961 593.00861
660.0 0.001515 439.02121 600.84668
700.0 0.001429 438.91266 609.38477
707.0 0.001414 438.80408 618.69940
647.0 0.001546 438.69534 628.87225
676.0 0.001479 438.58649 639.99127
695.0 0.001439 438.47754 652.14935
698.0 0.001433 438.36850 665.44269
719.0 0.001391 438.25925 679.96875
731.0 0.001368 438.14996 695.82275
789.0 0.001267 438.04059 713.09277
805.0 0.001242 437.93112 731.85138
818.0 0.001222 437.82153 752.14648
833.0 0.001200 437.71173 773.98486
824.0 0.001214 437.60190 797.31592
838.0 0.001193 437.49194 822.00769
875.0 0.001143 437.38187 847.82642
875.0 0.001143 437.27170 874.41772
937.0 0.001067 437.16141 901.30182
1051.0 0.000951 437.05093 927.89209
1009.0 0.000991 436.94043 953.54443
1084.0 0.000923 436.82977 977.63812
1066.0 0.000938 436.71902 999.67542
1093.0 0.000915 436.60815 1019.37079
1099.0 0.000910 436.49713 1036.70251
1106.0 0.000904 436.38599 1051.90332
1195.0 0.000837 436.27475 1065.39844
1173.0 0.000853 436.16345 1077.72046
1180.0 0.000847 436.05197 1089.43323
1200.0 0.000833 435.94037 1101.09802
1260.0 0.000794 435.82874 1113.28601
1211.0 0.000826 435.71689 1126.62244
1266.0 0.000790 435.60492 1141.84424
1273.0 0.000786 435.49283 1159.84448
1285.0 0.000778 435.38065 1181.70154
1383.0 0.000723 435.26834 1208.69812
1466.0 0.000682 435.15591 1242.34277
1429.0 0.000700 435.04340 1284.40759
1600.0 0.000625 434.93073 1336.98584
1571.0 0.000637 434.81796 1402.56067
1752.0 0.000571 434.70505 1484.07666
1737.0 0.000576 434.59201 1584.99097
1822.0 0.000549 434.47882 1709.28833
2036.0 0.000491 434.36557 1861.43835
2252.0 0.000444 434.25220 2046.27942
2420.0 0.000413 434.13867 2268.81055
2614.0 0.000383 434.02505 2533.87378
2915.0 0.0003431 433.91122 2845.69385
3106.0 0.0003220 433.79736 3207.20581
3474.0 0.0002879 433.68335 3619.04785
3959.0 0.0002526 433.56921 4078.04419
4273.0 0.0002340 433.45496 4575.02100
4644.0 0.0002153 433.34058 5092.09326
5136.0 0.0001947 433.22604 5600.37305
5525.0 0.0001810 433.11139 6060.35107
5906.0 0.0001693 432.99667 6427.92871
6262.0 0.0001597 432.88181 6666.83252
6465.0 0.0001547 432.76678 6762.32080
6505.0 0.0001537 432.65167 6726.82715
6421.0 0.0001557 432.53638 6592.61035
6405.0 0.0001561 432.42096 6396.34229
6065.0 0.0001649 432.30551 6165.23389
5740.0 0.0001742 432.18982 5910.67676
5412.0 0.0001848 432.07404 5630.12305
5154.0 0.0001940 431.95816 5314.99463
4731.0 0.0002114 431.84216 4960.47949
4356.0 0.0002296 431.72601 4571.86621
4016.0 0.0002490 431.60974 4164.08740
3846.0 0.0002600 431.49329 3756.18604
3279.0 0.0003050 431.37683 3365.34204
2968.0 0.0003369 431.26016 3003.61646
2650.0 0.000377 431.14340 2677.57080
2314.0 0.000432 431.02646 2389.40723
2029.0 0.000493 430.90942 2138.42505
1787.0 0.000560 430.79227 1922.21826
1555.0 0.000643 430.67490 1737.49878
1419.0 0.000705 430.55753 1580.61816
1350.0 0.000741 430.43997 1447.88831
1174.0 0.000852 430.32230 1335.77917
1101.0 0.000908 430.20453 1241.04114
1046.0 0.000956 430.08658 1160.77380
1010.0 0.000990 429.96848 1092.45801
921.0 0.001086 429.85028 1033.95703
872.0 0.001147 429.73193 983.49487
867.0 0.001153 429.61349 939.62183
782.0 0.001279 429.49490 901.16980
743.0 0.001346 429.37616 867.20642
765.0 0.001307 429.25735 836.99127
712.0 0.001404 429.13837 809.93658
712.0 0.001404 429.01923 785.57306
663.0 0.001508 428.89999 763.52386
638.0 0.001567 428.78070 743.48297
629.0 0.001590 428.66116 725.19879
647.0 0.001546 428.54150 708.46198
602.0 0.001661 428.42181 693.09613
626.0 0.001597 428.30191 678.95123
583.0 0.001715 428.18182 665.89844
608.0 0.001645 428.06174 653.82605
580.0 0.001724 427.94147 642.63684
556.0 0.001799 427.82104 632.24548
550.0 0.001818 427.70050 622.57703
539.0 0.001855 427.57986 613.56500
541.0 0.001848 427.45901 605.15039
503.0 0.001988 427.33813 597.28082
553.0 0.001808 427.21704 589.90955
502.0 0.001992 427.09589 582.99457
525.0 0.001905 426.97455 576.49841
561.0 0.001783 426.85312 570.38715
491.0 0.002037 426.73157 564.63049
573.0 0.001745 426.60977 559.20074
467.0 0.002141 426.48792 554.07318
513.0 0.001949 426.36600 549.22534
493.0 0.002028 426.24396 544.63629
473.0 0.002114 426.12170 540.28778
438.0 0.002283 425.99933 536.16266
444.0 0.002252 425.87680 532.24536
498.0 0.002008 425.75415 528.52185
474.0 0.002110 425.63141 524.97882
429.0 0.002331 425.50854 521.60461
436.0 0.002294 425.38550 518.38812
460.0 0.002174 425.26242 515.31927
486.0 0.002058 425.13910 512.38879
470.0 0.002128 425.01572 509.58817
449.0 0.002227 424.89218 506.90930
535.0 0.001869 424.76846 504.34515
456.0 0.002193 424.64465 501.88873
479.0 0.002088 424.52075 499.53366
466.0 0.002146 424.39670 497.27441
418.0 0.002392 424.27255 495.10529
482.0 0.002075 424.14825 493.02139
426.0 0.002347 424.02377 491.01794
471.0 0.002123 423.89917 489.09058
426.0 0.002347 423.77451 487.23532
403.0 0.002481 423.64963 485.44824
452.0 0.002212 423.52469 483.72580
464.0 0.002155 423.39960 482.06476
427.0 0.002342 423.27435 480.46176
429.0 0.002331 423.14902 478.91415
438.0 0.002283 423.02353 477.41910
434.0 0.002304 422.89795 475.97391
428.0 0.002336 422.77219 474.57635
431.0 0.002320 422.64633 473.22397
448.0 0.002232 422.52032 471.91470
428.0 0.002336 422.39417 470.64651
438.0 0.002283 422.26797 469.41760
430.0 0.002326 422.14154 468.22610
444.0 0.002252 422.01501 467.07028
414.0 0.002415 421.88840 465.94858
419.0 0.002387 421.76163 464.85950
433.0 0.002309 421.63474 463.80164
421.0 0.002375 421.50769 462.77356
422.0 0.002370 421.38052 461.77420
413.0 0.002421 421.25323 460.80203
426.0 0.002347 421.12589 459.85617
411.0 0.002433 420.99832 458.93533
464.0 0.002155 420.87073 458.03876
454.0 0.002203 420.74292 457.16516
407.0 0.002457 420.61502 456.31384
418.0 0.002392 420.48688 455.48380
463.0 0.002160 420.35873 454.67410
443.0 0.002257 420.23047 453.88419
427.0 0.002342 420.10208 453.11319
449.0 0.002227 419.97354 452.36026
399.0 0.002506 419.84488 451.62494
448.0 0.002232 419.71600 450.90634
426.0 0.002347 419.58713 450.20407
428.0 0.002336 419.45810 449.51733
395.0 0.002532 419.32892 448.84555
411.0 0.002433 419.19962 448.18829
425.0 0.002353 419.07016 447.54510
403.0 0.002481 418.94064 446.91519
434.0 0.002304 418.81097 446.29846
419.0 0.002387 418.68115 445.69418
438.0 0.002283 418.55121 445.10196
431.0 0.002320 418.42117 444.52155
365.0 0.002740 418.29102 443.95224
417.0 0.002398 418.16077 443.39401
366.0 0.002732 418.03033 442.84625
422.0 0.002370 417.89987 442.30869
417.0 0.002398 417.76913 441.78088
411.0 0.002433 417.63837 441.26263
415.0 0.002410 417.50745 440.75366
428.0 0.002336 417.37646 440.25357
387.0 0.002584 417.24530 439.76202
407.0 0.002457 417.11404 439.27890
423.0 0.002364 416.98260 438.80392
419.0 0.002387 416.85114 438.33676
396.0 0.002525 416.71948 437.87711
405.0 0.002469 416.58777 437.42487
438.0 0.002283 416.45590 436.97971
393.0 0.002545 416.32394 436.54153
445.0 0.002247 416.19180 436.10999
414.0 0.002415 416.05951 435.68497
397.0 0.002519 415.92719 434.27362
468.0 0.002137 415.79480 433.87265
391.0 0.002558 415.66217 433.47729
423.0 0.002364 415.52948 433.08740
371.0 0.002695 415.39667 432.70316
441.0 0.002268 415.26367 432.32401
406.0 0.002463 415.13062 431.95004
459.0 0.002179 414.99744 431.58099
423.0 0.002364 414.86414 414.86768
392.0 0.002551 414.73077 414.73428
425.0 0.002353 414.59723 414.60077
404.0 0.002475 414.46356 414.46707
389.0 0.002571 414.32986 414.33337
393.0 0.002545 414.19595 414.19949
421.0 0.002375 414.06192 414.06546
372.0 0.002688 413.92783 413.93134
419.0 0.002387 413.79361 413.79709
394.0 0.002538 413.65927 413.66278
380.0 0.002632 413.52487 413.52838
405.0 0.002469 413.39032 413.39380
387.0 0.002584 413.25558 413.25916
430.0 0.002326 413.12082 413.12430
404.0 0.002475 412.98593 412.98944
443.0 0.002257 412.85092 412.85443
434.0 0.002304 412.71579 412.71930
385.0 0.002597 412.58057 412.58405
389.0 0.002571 412.44516 412.44873
433.0 0.002309 412.30975 412.31326
451.0 0.002217 412.17419 412.17770
400.0 0.002500 412.03848 412.04199
410.0 0.002439 411.90271 411.90622
426.0 0.002347 411.76682 411.77029
409.0 0.002445 411.63080 411.64108
411.0 0.002433 411.49460 411.50507
411.0 0.002433 411.35843 411.36890
392.0 0.002551 411.22205 411.23264
373.0 0.002681 411.08563 411.09625
408.0 0.002451 410.94907 410.95975
402.0 0.002488 410.81244 410.82318
399.0 0.002506 410.67569 410.68652
368.0 0.002717 410.53879 410.54968
426.0 0.002347 410.40179 410.41275
388.0 0.002577 410.26468 410.27917
451.0 0.002217 410.12750 410.14218
416.0 0.002404 409.99020 410.00500
397.0 0.002519 409.85281 409.86765
439.0 0.002278 409.71533 409.73032
395.0 0.002532 409.57773 410.90326
396.0 0.002525 409.43994 410.78561
395.0 0.002532 409.30212 410.66843
448.0 0.002232 409.16418 417.63214
395.0 0.002532 409.02625 417.72168
408.0 0.002451 408.88809 417.82071
416.0 0.002404 408.74991 417.92978
394.0 0.002538 408.61151 418.04956
400.0 0.002500 408.47305 418.18054
407.0 0.002457 408.33456 418.97449
449.0 0.002227 408.19592 419.14014
405.0 0.002469 408.05722 419.31961
408.0 0.002451 407.91837 423.03775
421.0 0.002375 407.77945 423.34998
395.0 0.002532 407.64038 423.68332
370.0 0.002703 407.50128 424.03922
411.0 0.002433 407.36203 424.41913
431.0 0.002320 407.22269 424.82477
381.0 0.002625 407.08331 425.30341
408.0 0.002451 406.94379 425.76660
447.0 0.002237 406.80420 426.26147
426.0 0.002347 406.66446 426.79007
422.0 0.002370 406.52466 427.35492
466.0 0.002146 406.38470 427.95886
413.0 0.002421 406.24475 428.60489
443.0 0.002257 406.10477 429.29633
421.0 0.002375 405.96451 430.03671
409.0 0.002445 405.82431 431.98297
448.0 0.002232 405.68393 432.84940
431.0 0.002320 405.54343 433.77856
423.0 0.002364 405.40286 434.77594
423.0 0.002364 405.26227 435.84756
445.0 0.002247 405.12152 437.00015
424.0 0.002358 404.98074 438.24158
411.0 0.002433 404.83984 439.58002
423.0 0.002364 404.69876 441.02499
441.0 0.002268 404.55771 443.14835
419.0 0.002387 404.41650 444.84775
438.0 0.002283 404.27530 446.69073
435.0 0.002299 404.13391 448.69254
453.0 0.002208 403.99252 450.87149
427.0 0.002342 403.85092 453.24750
437.0 0.002288 403.70932 455.84430
431.0 0.002320 403.56763 458.68878
437.0 0.002288 403.42584 461.81213
460.0 0.002174 403.28397 465.25101
462.0 0.002165 403.14203 469.04791
459.0 0.002179 403.00000 473.25351
483.0 0.002070 402.85785 477.92807
492.0 0.002033 402.71567 483.14532
525.0 0.001905 402.57336 488.99707
499.0 0.002004 402.43100 495.60156
483.0 0.002070 402.28857 503.11615
476.0 0.002101 402.14606 511.75699
509.0 0.001965 402.00342 521.83057
525.0 0.001905 401.86072 533.77649
567.0 0.001764 401.71796 548.22772
545.0 0.001835 401.57510 566.08307
586.0 0.001706 401.43219 588.58777
586.0 0.001706 401.28918 617.40656
608.0 0.001645 401.14612 654.66620
655.0 0.001527 401.00296 702.93689
678.0 0.001475 400.85968 765.12164
793.0 0.001261 400.71643 844.23267
783.0 0.001277 400.57294 943.04395
916.0 0.001092 400.42957 1063.63550
999.0 0.001001 400.28598 1206.83533
1207.0 0.000829 400.14240 1371.53894
1466.0 0.000682 399.99872 1553.81689
1711.0 0.000584 399.85495 1745.70129
1976.0 0.000506 399.71112 1933.86108
2282.0 0.000438 399.56720 2099.33691
2527.0 0.000396 399.42331 2220.67358
2744.0 0.000364 399.27924 2281.69287
2667.0 0.000375 399.13510 2279.96240
2572.0 0.000389 398.99097 2228.38184
2412.0 0.000415 398.84665 2148.01807
2171.0 0.000461 398.70236 2058.60474
1944.0 0.000514 398.55792 1972.78967
1810.0 0.000552 398.41348 1894.62036
1842.0 0.000543 398.26892 1820.46680
1726.0 0.000579 398.12442 1742.66943
1676.0 0.000597 397.97971 1650.98901
1615.0 0.000619 397.83499 1542.88098
1600.0 0.000625 397.69025 1421.68018
1403.0 0.000713 397.54535 1295.29663
1130.0 0.000885 397.40045 1171.81860
961.0 0.001041 397.25543 1057.18506
830.0 0.001205 397.11044 954.81390
829.0 0.001206 396.96530 866.15674
716.0 0.001397 396.82016 791.75891
630.0 0.001587 396.67490 730.04858
606.0 0.001650 396.52966 680.18610
578.0 0.001730 396.38434 640.49628
565.0 0.001770 396.23889 609.31836
558.0 0.001792 396.09344 585.00641
543.0 0.001842 395.94788 566.08453
507.0 0.001972 395.80228 551.30853
509.0 0.001965 395.65665 539.68494
529.0 0.001890 395.51102 530.45636
487.0 0.002053 395.36526 523.06757
501.0 0.001996 395.21942 517.12329
497.0 0.002012 395.07361 512.35022
531.0 0.001883 394.92767 509.55893
525.0 0.001905 394.78171 506.64349
474.0 0.002110 394.63565 504.50754
516.0 0.001938 394.48962 503.10275
551.0 0.001815 394.34344 502.40475
496.0 0.002016 394.19727 502.40994
500.0 0.002000 394.05112 503.13245
539.0 0.001855 393.90475 504.60315
581.0 0.001721 393.75848 506.86932
550.0 0.001818 393.61209 510.48715
541.0 0.001848 393.46564 514.55511
605.0 0.001653 393.31912 519.65320
557.0 0.001795 393.17267 525.88800
547.0 0.001828 393.02606 533.37823
643.0 0.001555 392.87946 542.25116
572.0 0.001748 392.73285 552.63965
612.0 0.001634 392.58609 564.67645
569.0 0.001757 392.43939 578.48682
604.0 0.001656 392.29254 594.17676
643.0 0.001555 392.14575 611.81787
631.0 0.001585 391.99881 631.42395
607.0 0.001647 391.85196 652.91827
625.0 0.001600 391.70496 676.09070
671.0 0.001490 391.55792 700.54706
753.0 0.001328 391.41098 725.65955
730.0 0.001370 391.26376 750.53674
765.0 0.001307 391.11673 774.05042
787.0 0.001271 390.96951 794.94220
797.0 0.001255 390.82233 812.03046
736.0 0.001359 390.67505 824.46857
796.0 0.001256 390.52783 831.96375
809.0 0.001236 390.38052 834.85388
788.0 0.001269 390.23318 833.99176
798.0 0.001253 390.08582 830.49597
825.0 0.001212 389.93839 825.47125
777.0 0.001287 389.79092 819.80621
759.0 0.001318 389.64343 814.09766
828.0 0.001208 389.49594 808.69495
788.0 0.001269 389.34836 803.82184
804.0 0.001244 389.20084 799.70447
775.0 0.001290 389.05328 797.86591
752.0 0.001330 388.90558 796.18097
759.0 0.001318 388.75793 796.02734
789.0 0.001267 388.61023 797.22028
840.0 0.001190 388.46249 798.99426
834.0 0.001199 388.31476 799.90662
904.0 0.001106 388.16702 798.08075
913.0 0.001095 388.01920 791.91205
946.0 0.001057 387.87137 780.94043
906.0 0.001104 387.72354 766.18781
832.0 0.001202 387.57556 750.25787
797.0 0.001255 387.42773 733.96637
791.0 0.001264 387.27982 719.36786
810.0 0.001235 387.13184 707.08716
756.0 0.001323 386.98386 696.95929
707.0 0.001414 386.83594 688.23224
728.0 0.001374 386.68790 679.95599
736.0 0.001359 386.53986 671.49982
704.0 0.001420 386.39178 662.90131
724.0 0.001381 386.24374 654.79840
726.0 0.001377 386.09564 648.05646
702.0 0.001425 385.94754 643.42902
728.0 0.001374 385.79941 641.42029
676.0 0.001479 385.65128 642.29175
663.0 0.001508 385.50314 646.11169
649.0 0.001541 385.35501 652.79425
635.0 0.001575 385.20685 662.11334
641.0 0.001560 385.05862 687.41858
731.0 0.001368 384.91040 701.01465
688.0 0.001453 384.76221 715.72052
767.0 0.001304 384.61398 730.73712
731.0 0.001368 384.46570 745.16003
768.0 0.001302 384.31754 758.05450
774.0 0.001292 384.16922 768.56403
813.0 0.001230 384.02097 776.03571
822.0 0.001217 383.87265 780.12140
822.0 0.001217 383.72443 780.81519
844.0 0.001185 383.57608 785.27032
848.0 0.001179 383.42783 780.34406
780.0 0.001282 383.27951 773.28528
818.0 0.001222 383.13123 764.51648
846.0 0.001182 382.98294 754.31885
766.0 0.001305 382.83456 742.84113
804.0 0.001244 382.68628 730.15637
761.0 0.001314 382.53793 716.34277
721.0 0.001387 382.38965 701.54803
725.0 0.001379 382.24127 686.01978
699.0 0.001431 382.09302 670.09076
717.0 0.001395 381.94461 654.13495
696.0 0.001437 381.79636 638.51770
656.0 0.001524 381.64804 623.55292
606.0 0.001650 381.49966 609.48224
615.0 0.001626 381.35141 596.47015
658.0 0.001520 381.20306 584.61096
615.0 0.001626 381.05481 573.94391
582.0 0.001718 380.90646 564.46704
549.0 0.001821 380.75815 556.15076
610.0 0.001639 380.60992 548.94952
576.0 0.001736 380.46161 542.80908
550.0 0.001818 380.31332 537.67511
609.0 0.001642 380.16504 533.49622
561.0 0.001783 380.01678 530.22955
570.0 0.001754 379.86853 527.84607
545.0 0.001835 379.72031 526.33539
541.0 0.001848 379.57205 525.71222
588.0 0.001701 379.42389 526.02655
585.0 0.001709 379.27567 527.37256
582.0 0.001718 379.12744 529.90173
577.0 0.001733 378.97931 533.83368
646.0 0.001548 378.83109 539.46533
597.0 0.001675 378.68298 547.17291
608.0 0.001645 378.53485 557.40326
643.0 0.001555 378.38675 570.65234
676.0 0.001479 378.23859 587.42535
641.0 0.001560 378.09055 608.18164
670.0 0.001493 377.94244 633.26349
703.0 0.001422 377.79440 662.81104
771.0 0.001297 377.64639 696.65759
828.0 0.001208 377.49835 734.19214
825.0 0.001212 377.35037 774.17285
908.0 0.001101 377.20242 814.50891
956.0 0.001046 377.05447 852.14557
1019.0 0.000981 376.90656 883.35577
1065.0 0.000939 376.75864 904.72919
1109.0 0.000902 376.61081 914.61127
1034.0 0.000967 376.46292 913.99121
1037.0 0.000964 376.31512 906.01953
1004.0 0.000996 376.16730 894.55103
1013.0 0.000987 376.01953 882.79938
932.0 0.001073 375.87180 872.66931
972.0 0.001029 375.72409 864.64783
965.0 0.001036 375.57645 858.00873
983.0 0.001017 375.42877 851.30029
921.0 0.001086 375.28116 843.12848
939.0 0.001065 375.13354 832.96289
982.0 0.001018 374.98599 821.44458
943.0 0.001060 374.83841 810.01007
916.0 0.001092 374.69098 800.23248
881.0 0.001135 374.54349 793.36536
942.0 0.001062 374.39606 790.21210
881.0 0.001135 374.24872 791.17932
886.0 0.001129 374.10135 796.36926
891.0 0.001122 373.95401 805.64624
921.0 0.001086 373.80670 818.67029
939.0 0.001065 373.65952 834.91522
902.0 0.001109 373.51224 853.68030
955.0 0.001047 373.36511 874.11475
969.0 0.001032 373.21802 895.26636
1126.0 0.000888 373.07092 916.16565
1105.0 0.000905 372.92386 935.94421
1109.0 0.000902 372.77682 953.96625
1171.0 0.000854 372.62988 969.93738
1122.0 0.000891 372.48294 983.94702
1213.0 0.000824 372.33612 996.42725
1245.0 0.000803 372.18924 1008.04175
1285.0 0.000778 372.04245 1019.55103
1219.0 0.000820 371.89572 1031.70117
1291.0 0.000775 371.74902 1045.16956
1296.0 0.000772 371.60239 1060.58252
1289.0 0.000776 371.45578 1078.58594
1275.0 0.000784 371.30927 1099.94360
1354.0 0.000739 371.16272 1125.62842
1441.0 0.000694 371.01627 1156.87524
1387.0 0.000721 370.86987 1195.18506
1493.0 0.000670 370.72354 1242.28552
1506.0 0.000664 370.57727 1300.06580
1601.0 0.000625 370.43097 1370.50525
1661.0 0.000602 370.28479 1455.60559
1762.0 0.000568 370.13867 1557.31995
1752.0 0.000571 369.99261 1677.47815
1935.0 0.000517 369.84653 1817.68677
2037.0 0.000491 369.70062 1979.19275
2270.0 0.000441 369.55469 2162.67871
2356.0 0.000424 369.40884 2367.96265
2533.0 0.000395 369.26306 2593.55933
2730.0 0.000366 369.11728 2836.08691
2816.0 0.000355 368.97162 3089.55713
3189.0 0.0003136 368.82599 3344.72876
3276.0 0.0003053 368.68045 3588.91016
3664.0 0.0002729 368.53491 3806.77417
3730.0 0.0002681 368.38947 3982.62354
3815.0 0.0002621 368.24414 4103.89355
4095.0 0.0002442 368.09879 4164.65820
4116.0 0.0002430 367.95358 4167.33594
4141.0 0.0002415 367.80835 4121.50879
4084.0 0.0002449 367.66324 4040.40869
3991.0 0.0002506 367.51816 3936.79248
3879.0 0.0002578 367.37323 3819.82349
3663.0 0.0002730 367.22830 3693.73291
3555.0 0.0002813 367.08347 3558.24341
3286.0 0.0003043 366.93875 3410.76147
3115.0 0.0003210 366.79398 3247.33911
2938.0 0.0003404 366.64938 3067.32275
2789.0 0.000359 366.50476 2872.98218
2580.0 0.000388 366.36029 2669.54272
2488.0 0.000402 366.21579 2463.73828
2242.0 0.000446 366.07150 2262.17700
2097.0 0.000477 365.92728 2070.20044
1924.0 0.000520 365.78302 1891.44897
1710.0 0.000585 365.63892 1728.07764
1551.0 0.000645 365.49487 1580.57214
1432.0 0.000698 365.35089 1449.10754
1263.0 0.000792 365.20694 1332.55969
1082.0 0.000924 365.06314 1231.33545
1029.0 0.000972 364.91934 1141.66003
938.0 0.001066 364.77573 1063.49133
884.0 0.001131 364.63220 995.52948
837.0 0.001195 364.48859 936.52368
785.0 0.001274 364.34521 885.30035
776.0 0.001289 364.20187 840.84851
764.0 0.001309 364.05862 802.07196
719.0 0.001391 363.91537 768.17755
693.0 0.001443 363.77234 738.42059
662.0 0.001511 363.62930 712.16205
634.0 0.001577 363.48639 689.50153
626.0 0.001597 363.34360 668.71265
603.0 0.001658 363.20081 650.28394
584.0 0.001712 363.05817 633.44653
565.0 0.001770 362.91553 618.17273
556.0 0.001799 362.77307 604.25330
526.0 0.001901 362.63062 591.51538
533.0 0.001876 362.48831 579.81592
573.0 0.001745 362.34610 569.03589
554.0 0.001805 362.20398 559.66443
511.0 0.001957 362.06195 550.44556
507.0 0.001972 361.91998 541.88788
525.0 0.001905 361.77811 534.04321
512.0 0.001953 361.63632 526.62921
517.0 0.001934 361.49466 519.71057
500.0 0.002000 361.35309 513.24438
516.0 0.001938 361.21161 507.19318
480.0 0.002083 361.07025 501.52344
481.0 0.002079 360.92892 496.20480
513.0 0.001949 360.78778 491.21066
472.0 0.002119 360.64667 486.81268
471.0 0.002123 360.50568 482.40131
471.0 0.002123 360.36475 478.24884
415.0 0.002410 360.22397 474.33810
452.0 0.002212 360.08322 470.65311
450.0 0.002222 359.94269 467.18011
502.0 0.001992 359.80222 463.90601
434.0 0.002304 359.66177 460.81961
433.0 0.002309 359.52151 457.91135
450.0 0.002222 359.38132 455.17151
412.0 0.002427 359.24124 452.59357
450.0 0.002222 359.10126 450.17020
431.0 0.002320 358.96143 447.89664
433.0 0.002309 358.82166 445.76813
439.0 0.002278 358.68198 443.78250
442.0 0.002262 358.54245 441.93832
402.0 0.002488 358.40298 440.23642
445.0 0.002247 358.26370 438.68063
490.0 0.002041 358.12442 437.27768
428.0 0.002336 357.98532 436.03964
447.0 0.002237 357.84628 434.98495
435.0 0.002299 357.70746 434.14139
435.0 0.002299 357.56870 433.54675
456.0 0.002193 357.42999 433.25360
404.0 0.002475 357.29147 433.33011
446.0 0.002242 357.15295 433.86145
476.0 0.002101 357.01471 434.94986
410.0 0.002439 356.87646 436.70972
418.0 0.002392 356.73840 439.26376
460.0 0.002174 356.60037 442.73111
460.0 0.002174 356.46252 447.21573
479.0 0.002088 356.32483 457.95139
431.0 0.002320 356.18716 464.75549
448.0 0.002232 356.04968 472.62952
441.0 0.002268 355.91226 481.40881
456.0 0.002193 355.77502 490.78934
488.0 0.002049 355.63782 500.27225
459.0 0.002179 355.50089 509.13544
466.0 0.002146 355.36395 516.48212
445.0 0.002247 355.22717 521.43317
485.0 0.002062 355.09052 523.43805
501.0 0.001996 354.95395 522.84735
549.0 0.001821 354.81760 519.70337
491.0 0.002037 354.68124 515.14941
470.0 0.002128 354.54514 510.05554
486.0 0.002058 354.40906 505.04251
463.0 0.002160 354.27316 500.40533
492.0 0.002033 354.13736 496.12341
472.0 0.002119 354.00171 491.92673
483.0 0.002070 353.86618 487.42178
487.0 0.002053 353.73080 482.27454
464.0 0.002155 353.59555 476.37476
442.0 0.002262 353.46039 469.88074
455.0 0.002198 353.32538 463.12375
436.0 0.002294 353.19049 456.46411
418.0 0.002392 353.05576 450.19144
470.0 0.002128 352.92117 444.49570
438.0 0.002283 352.78665 439.47928
427.0 0.002342 352.65237 435.18100
443.0 0.002257 352.51816 431.59656
430.0 0.002326 352.38409 428.69299
409.0 0.002445 352.25009 426.41840
436.0 0.002294 352.11630 424.71094
457.0 0.002188 351.98270 423.50415
398.0 0.002513 351.84912 422.73340
433.0 0.002309 351.71579 422.33929
442.0 0.002262 351.58252 422.27094
472.0 0.002119 351.44940 422.48761
419.0 0.002387 351.31641 422.95859
426.0 0.002347 351.18362 423.66364
412.0 0.002427 351.05090 424.59140
460.0 0.002174 350.91837 425.73874
454.0 0.002203 350.78601 427.11017
422.0 0.002370 350.65369 428.71634
479.0 0.002088 350.52161 430.57452
408.0 0.002451 350.38962 432.70798
431.0 0.002320 350.25778 435.14560
476.0 0.002101 350.12607 437.92245
459.0 0.002179 349.99457 441.07953
468.0 0.002137 349.86313 444.66327
452.0 0.002212 349.73190 448.72659
469.0 0.002132 349.60083 453.32629
468.0 0.002137 349.46982 458.52426
427.0 0.002342 349.33905 464.38559
514.0 0.001946 349.20837 470.97684
468.0 0.002137 349.07788 478.36505
511.0 0.001957 348.94748 486.61420
506.0 0.001976 348.81732 495.67349
529.0 0.001890 348.68729 505.81082
558.0 0.001792 348.55731 516.94690
565.0 0.001770 348.42761 529.08978
592.0 0.001689 348.29797 542.21600
568.0 0.001761 348.16855 556.26959
536.0 0.001866 348.03918 571.17230
591.0 0.001692 347.91010 586.86115
653.0 0.001531 347.78110 603.35693
644.0 0.001553 347.65228 606.71521
602.0 0.001661 347.52362 625.92786
624.0 0.001603 347.39508 647.50964
728.0 0.001374 347.26672 672.67749
726.0 0.001377 347.13849 702.92358
741.0 0.001350 347.01044 739.88464
784.0 0.001276 346.88257 785.18799
794.0 0.001259 346.75482 840.30035
815.0 0.001227 346.62726 906.38104
863.0 0.001159 346.49988 984.13879
928.0 0.001078 346.37259 1073.67981
1041.0 0.000961 346.24554 1174.31641
1158.0 0.000864 346.11862 1284.28516
1265.0 0.000791 345.99185 1400.32617
1452.0 0.000689 345.86523 1517.16907
1565.0 0.000639 345.73880 1627.38196
1595.0 0.000627 345.61252 1721.07434
1738.0 0.000575 345.48642 1788.86938
1832.0 0.000546 345.36044 1824.32947
1874.0 0.000534 345.23468 1826.94678
1938.0 0.000516 345.10901 1802.49536
1901.0 0.000526 344.98364 1760.55823
1763.0 0.000567 344.85828 1711.02954
1646.0 0.000608 344.73322 1661.53882
1540.0 0.000649 344.60822 1616.34399
1462.0 0.000684 344.48343 1576.25464
1504.0 0.000665 344.35886 1539.23840
1410.0 0.000709 344.23438 1500.75330
1443.0 0.000693 344.11014 1457.60828
1408.0 0.000710 343.98602 1407.11414
1336.0 0.000749 343.86209 1349.83118
1316.0 0.000760 343.73828 1288.73450
1223.0 0.000818 343.61472 1227.78906
1101.0 0.000908 343.49127 1170.59863
1054.0 0.000949 343.36807 1119.72827
1061.0 0.000943 343.24503 1076.62769
962.0 0.001040 343.12207 1041.81689
956.0 0.001046 342.99936 1015.11121
960.0 0.001042 342.87677 995.79364
978.0 0.001022 342.75443 982.74475
959.0 0.001043 342.63220 974.55676
951.0 0.001052 342.51019 969.65967
991.0 0.001009 342.38834 966.46295
1004.0 0.000996 342.26666 963.50977
987.0 0.001013 342.14520 959.61578
1015.0 0.000985 342.02383 953.96277
1061.0 0.000943 341.90271 946.12531
996.0 0.001004 341.78171 936.02148
1035.0 0.000966 341.66095 923.81079
1004.0 0.000996 341.54031 909.76611
928.0 0.001078 341.41992 894.16327
933.0 0.001072 341.29971 877.20660
925.0 0.001081 341.17960 859.00574
932.0 0.001073 341.05978 839.59869
911.0 0.001098 340.94003 819.00208
851.0 0.001175 340.82050 797.27069
799.0 0.001252 340.70111 774.54138
824.0 0.001214 340.58200 751.04822
772.0 0.001295 340.46301 727.10822
743.0 0.001346 340.34427 703.08466
740.0 0.001351 340.22562 679.34497
717.0 0.001395 340.10721 656.22186
630.0 0.001587 339.98901 633.99023
630.0 0.001587 339.87091 612.85443
598.0 0.001672 339.75305 592.95032
599.0 0.001669 339.63535 574.35284
553.0 0.001808 339.51788 557.08636
530.0 0.001887 339.40060 541.13745
502.0 0.001992 339.28345 526.46448
493.0 0.002028 339.16653 513.00787
496.0 0.002016 339.04977 500.69589
471.0 0.002123 338.93323 489.45065
485.0 0.002062 338.81686 479.19168
447.0 0.002237 338.70068 469.83917
436.0 0.002294 338.58466 461.31482
453.0 0.002208 338.46893 453.54453
409.0 0.002445 338.35330 446.45758
437.0 0.002288 338.23785 439.98865
417.0 0.002398 338.12268 434.07690
372.0 0.002688 338.00763 428.66672
375.0 0.002667 337.89285 423.70743
417.0 0.002398 337.77811 419.15277
407.0 0.002457 337.66370 414.96155
376.0 0.002660 337.54941 411.09644
401.0 0.002494 337.43536 407.52423
374.0 0.002674 337.32150 404.21539
371.0 0.002695 337.20779 401.14349
380.0 0.002632 337.09436 398.28564
382.0 0.002618 336.98102 395.62100
375.0 0.002667 336.86795 393.13165
393.0 0.002545 336.75504 390.80139
393.0 0.002545 336.64233 388.61630
343.0 0.002915 336.52988 386.63022
351.0 0.002849 336.41748 384.70016
384.0 0.002604 336.30542 382.88199
364.0 0.002747 336.19348 381.16705
358.0 0.002793 336.08182 379.54767
358.0 0.002793 335.97028 378.01685
395.0 0.002532 335.85898 376.56870
375.0 0.002667 335.74780 375.19760
334.0 0.002994 335.63690 373.89862
350.0 0.002857 335.52618 372.66739
361.0 0.002770 335.41565 371.50003
361.0 0.002770 335.30536 370.42578
364.0 0.002747 335.19522 369.37610
357.0 0.002801 335.08527 368.38080
363.0 0.002755 334.97556 367.43716
373.0 0.002681 334.86606 366.54312
357.0 0.002801 334.75671 365.69666
394.0 0.002538 334.64758 364.89615
347.0 0.002882 334.53873 364.14011
388.0 0.002577 334.42999 363.42755
352.0 0.002841 334.32150 362.75754
342.0 0.002924 334.21317 362.12955
386.0 0.002591 334.10510 361.54327
374.0 0.002674 333.99713 360.99893
338.0 0.002959 333.88947 360.49704
333.0 0.003003 333.78195 360.03860
349.0 0.002865 333.67471 359.62531
385.0 0.002597 333.56763 359.25922
391.0 0.002558 333.46075 358.94357
356.0 0.002809 333.35406 358.68204
347.0 0.002882 333.24756 358.47992
341.0 0.002933 333.14136 358.34302
348.0 0.002874 333.03531 358.27914
351.0 0.002849 332.92941 358.29697
337.0 0.002967 332.82382 358.40726
356.0 0.002809 332.71835 358.62204
349.0 0.002865 332.61313 358.95480
393.0 0.002545 332.50812 359.42081
338.0 0.002959 332.40332 360.03647
365.0 0.002740 332.29868 360.81888
348.0 0.002874 332.19431 361.61298
334.0 0.002994 332.09009 362.78494
353.0 0.002833 331.98615 364.17596
318.0 0.003145 331.88242 365.80115
332.0 0.003012 331.77878 367.67157
325.0 0.003077 331.67551 369.79373
373.0 0.002681 331.57230 372.16553
375.0 0.002667 331.46945 376.35980
367.0 0.002725 331.36667 379.20596
363.0 0.002755 331.26419 382.20535
364.0 0.002747 331.16193 385.56174
346.0 0.002890 331.05981 388.59351
373.0 0.002681 330.95792 391.43802
360.0 0.002778 330.85623 393.93124
350.0 0.002857 330.75479 395.91373
360.0 0.002778 330.65353 397.26056
394.0 0.002538 330.55252 397.91080
353.0 0.002833 330.45169 397.88129
425.0 0.002353 330.35110 398.04730
362.0 0.002762 330.25073 396.98212
386.0 0.002591 330.15048 395.59732
355.0 0.002817 330.05054 394.15268
388.0 0.002577 329.95078 392.44287
342.0 0.002924 329.85126 390.63733
366.0 0.002732 329.75189 388.72562
348.0 0.002874 329.65283 386.67560
372.0 0.002688 329.55386 384.45319
368.0 0.002717 329.45523 382.04391
364.0 0.002747 329.35678 380.25250
388.0 0.002577 329.25848 377.55746
358.0 0.002793 329.16043 374.80231
337.0 0.002967 329.06259 372.05881
377.0 0.002653 328.96500 369.39206
376.0 0.002660 328.86755 366.85339
360.0 0.002778 328.77036 364.47827
335.0 0.002985 328.67340 362.28735
329.0 0.003040 328.57663 360.28857
354.0 0.002825 328.48007 358.48233
329.0 0.003040 328.38376 356.86218
326.0 0.003067 328.28766 355.41867
392.0 0.002551 328.19174 354.53711
392.0 0.002551 328.09607 353.41595
315.0 0.003175 328.00064 352.43350
342.0 0.002924 327.90536 351.57678
363.0 0.002755 327.81033 350.83340
317.0 0.003155 327.71548 350.19180
350.0 0.002857 327.62091 349.64111
361.0 0.002770 327.52652 349.17184
355.0 0.002817 327.43237 348.77533
346.0 0.002890 327.33835 348.44421
352.0 0.002841 327.24463 348.17194
355.0 0.002817 327.15112 347.95291
344.0 0.002907 327.05783 347.78302
327.0 0.003058 326.96475 347.65845
328.0 0.003049 326.87186 347.57648
339.0 0.002950 326.77927 347.53482
336.0 0.002976 326.68677 347.53223
338.0 0.002959 326.59460 347.56766
346.0 0.002890 326.50259 347.64050
328.0 0.003049 326.41083 347.75104
339.0 0.002950 326.31927 347.89963
346.0 0.002890 326.22791 348.08704
301.0 0.003322 326.13678 348.31454
322.0 0.003106 326.04587 348.58371
336.0 0.002976 325.95517 348.89642
374.0 0.002674 325.86469 349.25510
354.0 0.002825 325.77441 349.66281
332.0 0.003012 325.68436 350.12244
357.0 0.002801 325.59457 350.63800
333.0 0.003003 325.50497 351.21390
326.0 0.003067 325.41556 351.85501
361.0 0.002770 325.32642 352.56741
325.0 0.003077 325.23746 353.35760
348.0 0.002874 325.14871 354.23358
366.0 0.002732 325.06018 355.20450
366.0 0.002732 324.97192 356.28119
377.0 0.002653 324.88382 357.47684
369.0 0.002710 324.79599 358.80750
332.0 0.003012 324.70831 360.29309
352.0 0.002841 324.62091 363.11047
400.0 0.002500 324.53369 365.01352
365.0 0.002740 324.44666 367.17358
376.0 0.002660 324.35992 368.33325
401.0 0.002494 324.27335 371.21097
397.0 0.002519 324.18701 374.57489
389.0 0.002571 324.10092 378.55154
395.0 0.002532 324.01498 383.30194
425.0 0.002353 323.92935 389.02631
394.0 0.002538 323.84384 395.96646
414.0 0.002415 323.75864 404.40616
454.0 0.002203 323.67361 415.23441
427.0 0.002342 323.58875 427.67340
453.0 0.002208 323.50415 442.63730
434.0 0.002304 323.41980 457.81458
462.0 0.002165 323.33563 478.84332
485.0 0.002062 323.25168 503.26199
546.0 0.001832 323.16794 531.17194
497.0 0.002012 323.08441 562.50238
579.0 0.001727 323.00116 596.94342
592.0 0.001689 322.91809 633.85742
614.0 0.001629 322.83521 672.16461
702.0 0.001425 322.75259 710.23224
741.0 0.001350 322.67014 745.83295
824.0 0.001214 322.58795 776.30701
837.0 0.001195 322.50595 799.13947
888.0 0.001126 322.42416 812.29498
928.0 0.001078 322.34259 815.48352
936.0 0.001068 322.26123 809.92999
946.0 0.001057 322.18015 798.00757
849.0 0.001178 322.09921 782.44214
829.0 0.001206 322.01859 765.60406
773.0 0.001294 321.93808 749.11182
727.0 0.001376 321.85782 733.70752
768.0 0.001302 321.77777 719.30518
774.0 0.001292 321.69794 705.15344
698.0 0.001433 321.61829 690.13104
678.0 0.001475 321.53894 673.21930
695.0 0.001439 321.45972 653.72931
703.0 0.001422 321.38074 631.83545
622.0 0.001608 321.30203 608.28699
617.0 0.001621 321.22345 584.14343
636.0 0.001572 321.14514 560.44501
565.0 0.001770 321.06705 538.01184
520.0 0.001923 320.98911 517.39063
507.0 0.001972 320.91141 498.88660
475.0 0.002105 320.83395 482.62131
482.0 0.002075 320.75668 468.58765
435.0 0.002299 320.67966 456.69064
444.0 0.002252 320.60287 446.77798
429.0 0.002331 320.52621 438.66312
435.0 0.002299 320.44980 432.14590
420.0 0.002381 320.37360 427.02866
411.0 0.002433 320.29767 423.12946
409.0 0.002445 320.22186 420.29172
454.0 0.002203 320.14630 418.38898
427.0 0.002342 320.07095 417.32635
428.0 0.002336 319.99582 417.03882
424.0 0.002358 319.92093 417.48871
396.0 0.002525 319.84616 418.66269
453.0 0.002208 319.77170 420.56909
409.0 0.002445 319.69739 423.23538
413.0 0.002421 319.62332 426.70709
468.0 0.002137 319.54944 431.04608
453.0 0.002208 319.47580 436.32895
463.0 0.002160 319.40237 442.64368
478.0 0.002092 319.32910 450.08649
507.0 0.001972 319.25604 458.75616
515.0 0.001942 319.18326 468.56122
524.0 0.001908 319.11063 479.96088
509.0 0.001965 319.03824 492.82880
494.0 0.002024 318.96600 507.19598
519.0 0.001927 318.89404 524.01941
577.0 0.001733 318.82224 541.29114
562.0 0.001779 318.75067 559.79297
572.0 0.001748 318.67929 579.23572
590.0 0.001695 318.60812 599.18994
640.0 0.001563 318.53717 619.07776
650.0 0.001538 318.46640 638.19537
613.0 0.001631 318.39587 655.69379
615.0 0.001626 318.32556 671.07764
704.0 0.001420 318.25543 683.80151
743.0 0.001346 318.18546 693.78296
701.0 0.001427 318.11575 701.36700
716.0 0.001397 318.04620 707.75995
768.0 0.001302 317.97690 712.94049
712.0 0.001404 317.90775 718.36389
755.0 0.001325 317.83887 724.86768
808.0 0.001238 317.77014 733.02979
787.0 0.001271 317.70166 743.10486
751.0 0.001332 317.63339 755.01709
800.0 0.001250 317.56528 768.38684
758.0 0.001319 317.49734 782.57532
887.0 0.001127 317.42963 796.71649
873.0 0.001145 317.36215 809.72235
879.0 0.001138 317.29483 820.28009
923.0 0.001083 317.22775 826.91516
944.0 0.001059 317.16083 828.21423
983.0 0.001017 317.09412 823.22211
970.0 0.001031 317.02765 811.84076
923.0 0.001083 316.96130 794.96973
928.0 0.001078 316.89523 774.25989
866.0 0.001155 316.82925 751.62445
808.0 0.001238 316.76358 728.77014
773.0 0.001294 316.69806 706.91223
749.0 0.001335 316.63269 686.67413
708.0 0.001412 316.56760 668.10437
677.0 0.001477 316.50266 650.76306
684.0 0.001462 316.43793 633.88269
680.0 0.001471 316.37344 616.61340
642.0 0.001558 316.30908 598.31488
630.0 0.001587 316.24487 578.77667
641.0 0.001560 316.18097 558.25739
554.0 0.001805 316.11713 537.33282
577.0 0.001733 316.05356 516.67267
506.0 0.001976 315.99023 496.86359
534.0 0.001873 315.92700 478.32947
453.0 0.002208 315.86401 461.32797
447.0 0.002237 315.80118 445.98257
401.0 0.002494 315.73853 432.31845
418.0 0.002392 315.67609 420.29379
411.0 0.002433 315.61383 409.82095
396.0 0.002525 315.55179 400.78162
378.0 0.002646 315.48993 393.03860
383.0 0.002611 315.42822 386.44604
363.0 0.002755 315.36676 380.85580
372.0 0.002688 315.30542 376.12613
389.0 0.002571 315.24423 372.12509
366.0 0.002732 315.18332 368.73517
359.0 0.002786 315.12253 365.85413
333.0 0.003003 315.06195 363.39639
343.0 0.002915 315.00159 361.29138
377.0 0.002653 314.94138 359.48270
352.0 0.002841 314.88135 357.92596
297.0 0.003367 314.82147 356.58731
339.0 0.002950 314.76181 355.44077
339.0 0.002950 314.70233 354.46741
359.0 0.002786 314.64304 353.65344
371.0 0.002695 314.58389 352.98947
388.0 0.002577 314.52490 352.46988
293.0 0.003413 314.46619 352.09207
364.0 0.002747 314.40762 351.85666
362.0 0.002762 314.34921 351.76758
314.0 0.003185 314.29089 351.83258
313.0 0.003195 314.23291 352.06390
358.0 0.002793 314.17499 352.47940
346.0 0.002890 314.11728 353.10452
312.0 0.003205 314.05972 353.97357
332.0 0.003012 314.00238 355.13202
346.0 0.002890 313.94519 356.63928
359.0 0.002786 313.88815 358.57068
359.0 0.002786 313.83130 361.01950
356.0 0.002809 313.77463 364.09818
378.0 0.002646 313.71811 367.93820
395.0 0.002532 313.66177 372.68805
381.0 0.002625 313.60559 378.50937
386.0 0.002591 313.54962 385.56995
376.0 0.002660 313.49377 394.03421
344.0 0.002907 313.43811 404.05176
365.0 0.002740 313.38257 415.74216
396.0 0.002525 313.32727 429.17856
397.0 0.002519 313.27209 444.36713
446.0 0.002242 313.21707 461.22128
441.0 0.002268 313.16223 479.52896
476.0 . . .
loop_
_refln_index_h
_refln_index_k
_refln_index_l
_pd_refln_wavelength_id
_refln_observed_status
_refln_F_squared_meas
_refln_F_squared_calc
_refln_phase_calc
_refln_d_spacing
_gsas_i100_meas
2 2 0 1 o 1489.595 1564.220 0.00 3.47050 11.05
2 2 0 2 o 1496.273 1564.220 0.00 3.47050 5.54
3 1 0 1 o 5035.203 4889.038 0.00 3.10411 33.91
3 1 0 2 o 4959.414 4889.038 0.00 3.10411 16.66
1 3 0 1 o 14939.402 14518.329 0.00 3.10411 100.00
1 3 0 2 o 14998.044 14518.329 0.00 3.10411 50.10
0 1 1 1 o 58.259 143.436 180.00 2.74131 0.80
0 1 1 2 o 61.356 143.436 180.00 2.74131 0.42
0 4 0 1 o 8933.987 8102.244 180.00 2.45401 46.78
0 4 0 2 o 8882.981 8102.244 180.00 2.45401 23.19
2 1 1 1 o 7512.842 7599.400 0.00 2.39330 75.25
2 1 1 2 o 7365.717 7599.400 0.00 2.39330 36.74
1 2 1 1 o 6349.308 6425.832 180.00 2.39330 65.22
1 2 1 2 o 6245.200 6425.832 180.00 2.39330 31.97
3 3 0 1 o 3802.166 3878.889 180.00 2.31367 18.12
3 3 0 2 o 3806.451 3878.889 180.00 2.31367 9.04
4 2 0 1 o 1346.411 1317.064 0.00 2.19494 6.28
4 2 0 2 o 1337.550 1317.064 0.00 2.19494 3.11
2 4 0 1 o 2983.686 2913.328 0.00 2.19494 14.37
2 4 0 2 o 2972.055 2913.328 0.00 2.19494 7.14
0 3 1 1 o 6094.118 6050.445 180.00 2.15117 57.86
0 3 1 2 o 6176.569 6050.445 180.00 2.15117 29.22
5 1 0 1 o 1934.894 1776.620 0.00 1.92509 8.02
5 1 0 2 o 1928.590 1776.620 0.00 1.92509 3.98
3 2 1 1 o 686.537 730.979 180.00 1.97023 5.59
3 2 1 2 o 663.335 730.979 180.00 1.97023 2.69
2 3 1 1 o 0.003 0.045 180.00 1.97023 0.00
2 3 1 2 o -0.010 0.045 180.00 1.97023 0.00
1 5 0 1 o 2537.500 2430.253 180.00 1.92509 9.73
1 5 0 2 o 2593.058 2430.253 180.00 1.92509 4.96
4 1 1 1 o 7320.479 7611.572 180.00 1.82841 52.23
4 1 1 2 o 7270.482 7611.572 180.00 1.82841 25.83
1 4 1 1 o 5473.989 5701.826 0.00 1.82841 38.40
1 4 1 2 o 5489.409 5701.826 0.00 1.82841 19.18
4 4 0 1 o 1253.451 1502.141 0.00 1.73525 4.12
4 4 0 2 o 1282.135 1502.141 0.00 1.73525 2.10
5 3 0 1 o 59.962 54.438 0.00 1.68344 0.21
5 3 0 2 o 59.833 54.438 0.00 1.68344 0.10
3 5 0 1 o 1134.616 1035.733 0.00 1.68344 3.58
3 5 0 2 o 1133.459 1035.733 0.00 1.68344 1.78
0 6 0 1 o 18625.871 17214.248 0.00 1.63601 55.83
0 6 0 2 o 18724.318 17214.248 0.00 1.63601 27.95
0 5 1 1 o 1425.901 1478.782 0.00 1.61764 8.15
4 3 1 1 o 4.446 4.725 180.00 1.61764 0.04
4 3 1 2 o 4.951 4.725 180.00 1.61764 0.02
0 5 1 2 o 1523.026 1478.782 0.00 1.61764 4.35
3 4 1 1 o 797.113 835.791 0.00 1.61764 4.44
3 4 1 2 o 851.417 835.791 0.00 1.61764 2.37
6 2 0 1 o 3395.313 2972.702 180.00 1.55205 9.02
6 2 0 2 o 3336.859 2972.702 180.00 1.55205 4.41
2 6 0 1 o 1.916 1.417 0.00 1.55205 0.01
2 6 0 2 o 1.875 1.417 0.00 1.55205 0.01
5 2 1 1 o 5270.541 5443.714 0.00 1.53635 27.52
5 2 1 2 o 5125.662 5443.714 0.00 1.53635 13.31
2 5 1 1 o 12760.819 13265.754 180.00 1.53635 68.34
2 5 1 2 o 12505.119 13265.754 180.00 1.53635 33.33
7 1 0 1 o 5.855 31.825 180.00 1.38820 0.00
7 1 0 2 o 45.720 31.825 180.00 1.38820 0.05
6 1 1 1 o 1669.455 1659.297 180.00 1.40485 7.76
0 0 2 1 o 21052.119 20736.225 0.00 1.42745 25.01
6 1 1 2 o 1722.505 1659.297 180.00 1.40485 3.99
0 0 2 2 o 20668.068 20736.225 0.00 1.42745 12.22
1 6 1 1 o 38.463 38.425 180.00 1.40485 0.25
1 7 0 1 o 3605.349 3269.208 180.00 1.38820 7.95
5 5 0 1 o 172.254 154.510 0.00 1.38820 0.42
1 6 1 2 o 40.062 38.425 180.00 1.40485 0.13
1 7 0 2 o 3694.772 3269.208 180.00 1.38820 4.06
5 5 0 2 o 176.988 154.510 0.00 1.38820 0.21
1 1 2 1 o 724.690 640.151 180.00 1.39819 3.18
6 4 0 1 o 379.196 317.041 180.00 1.36124 0.78
1 1 2 2 o 741.733 640.151 180.00 1.39819 1.63
6 4 0 2 o 370.966 317.041 180.00 1.36124 0.38
4 6 0 1 o 3902.945 3230.850 180.00 1.36124 8.29
4 6 0 2 o 3818.779 3230.850 180.00 1.36124 4.03
0 2 2 1 o 1608.801 1317.740 180.00 1.37065 6.92
0 2 2 2 o 1608.885 1317.740 180.00 1.37065 3.45
4 5 1 1 o 2881.549 2857.225 0.00 1.35061 12.19
5 4 1 1 o 13707.187 13563.353 180.00 1.35061 59.20
5 4 1 2 o 13362.618 13563.353 180.00 1.35061 28.72
4 5 1 2 o 2814.873 2857.225 0.00 1.35061 5.92
2 2 2 1 o 341.722 396.453 0.00 1.32014 1.46
6 3 1 1 o 170.462 166.191 180.00 1.30220 0.80
2 2 2 2 o 363.793 396.453 0.00 1.32014 0.77
7 3 0 1 o 4668.896 4638.971 0.00 1.28891 9.26
6 3 1 2 o 160.582 166.191 180.00 1.30220 0.38
7 3 0 2 o 4680.350 4638.971 0.00 1.28891 4.62
3 6 1 1 o 274.875 268.450 180.00 1.30220 1.24
3 7 0 1 o 1944.514 1919.316 0.00 1.28891 3.88
3 6 1 2 o 258.544 268.450 180.00 1.30220 0.58
3 7 0 2 o 1957.889 1919.316 0.00 1.28891 1.95
3 1 2 1 o 1285.151 1324.626 0.00 1.29689 5.21
1 3 2 1 o 3754.589 3869.446 0.00 1.29689 15.09
1 3 2 2 o 3786.172 3869.446 0.00 1.29689 7.58
3 1 2 2 o 1296.165 1324.626 0.00 1.29689 2.62
0 7 1 1 o 187.371 288.628 180.00 1.25865 0.74
0 7 1 2 o 201.069 288.628 180.00 1.25865 0.40
0 8 0 1 o 279.358 268.221 180.00 1.22701 0.51
0 8 0 2 o 283.818 268.221 180.00 1.22701 0.26
0 4 2 1 o 2352.622 2228.477 180.00 1.23389 8.54
7 2 1 1 o 550.827 520.787 180.00 1.21920 2.05
0 4 2 2 o 2399.262 2228.477 180.00 1.23389 4.34
7 2 1 2 o 569.079 520.787 180.00 1.21920 1.06
2 7 1 1 o 1471.276 1396.583 0.00 1.21920 5.21
2 7 1 2 o 1528.029 1396.583 0.00 1.21920 2.70
3 3 2 1 o 1863.317 1638.731 180.00 1.21484 6.64
3 3 2 2 o 1819.024 1638.731 180.00 1.21484 3.23
