#------------------------------------------------------------------------------
#$Date: 2019-11-12 04:13:43 +0200 (Tue, 12 Nov 2019) $
#$Revision: 227516 $
#$URL: file:///home/coder/svn-repositories/cod/cif/4/00/28/4002888.cif $
#------------------------------------------------------------------------------
#
# This file is available in the Crystallography Open Database (COD),
# http://www.crystallography.net/
#
# All data on this site have been placed in the public domain by the
# contributors.
#
data_4002888
loop_
_publ_author_name
'Kim, Sun Woo'
'Emge, Thomas J.'
'Deng, Zheng'
'Uppuluri, Ritesh'
'Collins, Liam'
'Lapidus, Saul H.'
'Segre, Carlo U.'
'Croft, Mark'
'Jin, Changqing'
'Gopalan, Venkatraman'
'Kalinin, Sergei V.'
'Greenblatt, Martha'
_publ_section_title
;
 YCrWO6: Polar and Magnetic Oxide with CaTa2O6-Related Structure
;
_journal_issue                   3
_journal_name_full               'Chemistry of Materials'
_journal_page_first              1045
_journal_paper_doi               10.1021/acs.chemmater.7b04941
_journal_volume                  30
_journal_year                    2018
_chemical_formula_sum            'Cr O6 W Y'
_chemical_formula_weight         420.76
_space_group_crystal_system      orthorhombic
_space_group_IT_number           33
_space_group_name_Hall           'P 2c -2n'
_space_group_name_H-M_alt        'P n a 21'
_symmetry_space_group_name_Hall  'P 2c -2n'
_symmetry_space_group_name_H-M   'P n a 21'
_audit_creation_method           SHELXL-2014/7
_cell_angle_alpha                90
_cell_angle_beta                 90
_cell_angle_gamma                90
_cell_formula_units_Z            4
_cell_length_a                   10.8675(8)
_cell_length_b                   5.1633(4)
_cell_length_c                   7.3072(5)
_cell_measurement_reflns_used    4162
_cell_measurement_temperature    293(2)
_cell_measurement_theta_max      32.60
_cell_measurement_theta_min      2.79
_cell_volume                     410.02(5)
_computing_cell_refinement       'Bruker SAINT'
_computing_data_collection       'Bruker SMART'
_computing_data_reduction        'Bruker SAINT'
_computing_molecular_graphics    'Bruker SHELXTL'
_computing_publication_material  SHELXL-2014/7
_computing_structure_refinement  'SHELXL-2014/7 (Sheldrick, 2014)'
_computing_structure_solution    'SHELXL-2014/7 (Sheldrick, 2014)'
_diffrn_ambient_temperature      293(2)
_diffrn_measured_fraction_theta_full 1.000
_diffrn_measured_fraction_theta_max 1.000
_diffrn_measurement_device_type  'Bruker APEX'
_diffrn_measurement_method       '\w scans'
_diffrn_radiation_type           MoK\a
_diffrn_radiation_wavelength     0.71073
_diffrn_reflns_av_R_equivalents  0.0329
_diffrn_reflns_av_unetI/netI     0.0282
_diffrn_reflns_Laue_measured_fraction_full 1.000
_diffrn_reflns_Laue_measured_fraction_max 1.000
_diffrn_reflns_limit_h_max       15
_diffrn_reflns_limit_h_min       -16
_diffrn_reflns_limit_k_max       7
_diffrn_reflns_limit_k_min       -7
_diffrn_reflns_limit_l_max       11
_diffrn_reflns_limit_l_min       -11
_diffrn_reflns_number            5424
_diffrn_reflns_point_group_measured_fraction_full 1.000
_diffrn_reflns_point_group_measured_fraction_max 1.000
_diffrn_reflns_theta_full        25.242
_diffrn_reflns_theta_max         32.603
_diffrn_reflns_theta_min         3.750
_diffrn_source                   'sealed tube'
_exptl_absorpt_coefficient_mu    44.559
_exptl_absorpt_correction_T_max  .66013
_exptl_absorpt_correction_T_min  .01837
_exptl_absorpt_correction_type   numerical
_exptl_absorpt_process_details   'Bruker SAINT (SADABS)'
_exptl_crystal_colour            orange
_exptl_crystal_density_diffrn    6.816
_exptl_crystal_description       plate
_exptl_crystal_F_000             740
_exptl_crystal_size_max          0.140
_exptl_crystal_size_mid          0.070
_exptl_crystal_size_min          0.020
_refine_diff_density_max         1.634
_refine_diff_density_min         -2.216
_refine_diff_density_rms         0.284
_refine_ls_abs_structure_details
; 
 Refined as an inversion twin. 
;
_refine_ls_abs_structure_Flack   0.43(2)
_refine_ls_extinction_coef       0.0021(2)
_refine_ls_extinction_expression Fc^*^=kFc[1+0.001xFc^2^\l^3^/sin(2\q)]^-1/4^
_refine_ls_extinction_method     'SHELXL-2014/7 (Sheldrick 2014'
_refine_ls_goodness_of_fit_ref   1.114
_refine_ls_hydrogen_treatment    undef
_refine_ls_matrix_type           full
_refine_ls_number_parameters     84
_refine_ls_number_reflns         1483
_refine_ls_number_restraints     13
_refine_ls_restrained_S_all      1.113
_refine_ls_R_factor_all          0.0211
_refine_ls_R_factor_gt           0.0200
_refine_ls_shift/su_max          0.000
_refine_ls_shift/su_mean         0.000
_refine_ls_structure_factor_coef Fsqd
_refine_ls_weighting_details
'w=1/[\s^2^(Fo^2^)+(0.0141P)^2^+1.3257P] where P=(Fo^2^+2Fc^2^)/3'
_refine_ls_weighting_scheme      calc
_refine_ls_wR_factor_gt          0.0417
_refine_ls_wR_factor_ref         0.0420
_reflns_Friedel_coverage         0.875
_reflns_Friedel_fraction_full    1.000
_reflns_Friedel_fraction_max     1.000
_reflns_number_gt                1433
_reflns_number_total             1483
_reflns_threshold_expression     'I > 2\s(I)'
_cod_data_source_file            cm7b04941_si_002.cif
_cod_data_source_block           ycrwo6_Pna21
_cod_depositor_comments          'Adding full bibliography for 4002888.cif.'
_cod_database_code               4002888
_shelx_shelxl_version_number     2014/7
_shelx_space_group_comment
; 
The symmetry employed for this shelxl refinement is uniquely defined 
by the following loop, which should always be used as a source of 
symmetry information in preference to the above space-group names. 
They are only intended as comments. 
;
_shelx_estimated_absorpt_t_min   0.062
_shelx_estimated_absorpt_t_max   0.469
_exptl_absorpt_special_details
; 
 Crystal faces: 
  
     H       K       L      d(mm) 
  
   1.000   0.000   0.000   0.07200 
  -1.000   0.000   0.000   0.07200 
   0.000   1.000   0.000   0.07500 
   0.000  -1.000   0.000   0.07500 
   0.000   0.000   1.000   0.00400 
   0.000   0.000  -1.000   0.00400 
  
   6 Faces  +   8 Corners  =  12 Edges  +  2 
  
 Cycle  1     Mu   0.000 mm-1     Rint  0.25478 
 Cycle  2     Mu   5.000 mm-1     Rint  0.22744 
 Cycle  3     Mu  13.090 mm-1     Rint  0.18470 
 Cycle  4     Mu  26.180 mm-1     Rint  0.12410 
 Cycle  5     Mu  47.361 mm-1     Rint  0.06709 
 Cycle  6     Mu  81.631 mm-1     Rint  0.12040 
 Cycle  7     Mu  54.341 mm-1     Rint  0.06643 
 Cycle  8     Mu  51.637 mm-1     Rint  0.06526 
 Cycle  9     Mu  51.236 mm-1     Rint  0.06523 
 Cycle 10     Mu  51.169 mm-1     Rint  0.06523 
 Cycle 11     Mu  51.280 mm-1     Rint  0.06523 
 Cycle 12     Mu  51.281 mm-1     Rint  0.06523 
 Cycle 13     Mu  51.384 mm-1     Rint  0.06523 
 All Rint values calculated using    4994 selected reflections only 
 Rint 0.2548 for mu = 0 and 0.0652 for mu =  51.319 mm-1 
 All Rint values calculated using    4994 selected reflections only 
 Minimum and maximum transmission coefficients = 0.01837 and 0.66013 
 Minimum and maximum t-bar = 0.0081 and 0.0386 mm 
;
_shelx_res_file
; 
  
    ycrwo6_Pna21.res created by SHELXL-2014/7 
  
  
TITL ycrwo6_Pnma_c.res in Pna2(1) 
CELL  0.71073  10.8675   5.1633   7.3072   90.000   90.000   90.000 
ZERR    4.000   0.0008   0.0004   0.0005    0.000    0.000    0.000 
LATT -1 
SYMM -X, -Y, 1/2+Z 
SYMM 1/2+X, 1/2-Y, Z 
SYMM 1/2-X, 1/2+Y, 1/2+Z 
SFAC O  Cr Y  W 
UNIT 24 4 4 4 
L.S. 22 11 
isor .001 O4 CR1 
BOND 
TWIN 
CONN 10 
FMAP -2 
PLAN 40 
ACTA 
LIST 4 
SIZE 0.02 0.07 0.14 
EQIV $1   -x+1, -y+1, z+1/2 
EQIV $2   -x+1, -y+2, z+1/2 
EQIV $4   -x+1, -y+1, z-1/2 
EQIV $5   -x+1, -y+2, z-1/2 
FREE W1 Y1_$4 
FREE W1 Y1_$5 
FREE W1 Cr1_$4 
FREE Y1 W1_$1 
FREE Y1 W1_$2 
FREE Y1 Cr1_$4 
FREE Y1 Cr1_$5 
FREE Y1 Y1_$2 
FREE Y1 Y1_$5 
FREE Cr1 W1_$1 
FREE Cr1 Y1_$2 
FREE Cr1 Y1_$1 
FREE Y1   Cr1 
FREE W1   Y1 
TEMP 20.0 
WGHT    0.014100    1.325700 
EXTI    0.002076 
BASF   0.42875 
FVAR       0.25332 
W1    4    0.353138    0.556518    0.277124    11.00000    0.00469    0.00444 = 
         0.00399    0.00046    0.00051   -0.00006 
Y1    3    0.543235    0.954560    0.521337    11.00000    0.00676    0.00495 = 
         0.00424   -0.00056   -0.00042    0.00020 
CR1   2    0.367421    0.546616    0.772747    11.00000    0.00413    0.00362 = 
         0.00495    0.00214   -0.00167    0.00001 
O1    1    0.380469    0.670471    0.518695    11.00000    0.00706    0.00665 = 
         0.00286   -0.00050   -0.00097   -0.00124 
O2    1    0.213817    0.383980    0.335354    11.00000    0.00573    0.00554 = 
         0.00423   -0.00134    0.00265   -0.00016 
O3    1    0.291007    0.874330    0.206304    11.00000    0.00541    0.00452 = 
         0.00690    0.00094    0.00127    0.00090 
O4    1    0.525578    0.730081    0.814098    11.00000    0.00594    0.00492 = 
         0.00400   -0.00084   -0.00034    0.00052 
O5    1    0.357409    0.440015    0.028856    11.00000    0.00708    0.00823 = 
         0.00413    0.00264    0.00150    0.00068 
O6    1    0.477901    0.254127    0.731301    11.00000    0.00498    0.00300 = 
         0.00673   -0.00206   -0.00015    0.00108 
HKLF 4 
  
REM  ycrwo6_Pnma_c.res in Pna2(1) 
REM R1 =  0.0200 for    1433 Fo > 4sig(Fo)  and  0.0211 for all    1483 data 
REM     84 parameters refined using     13 restraints 
  
END 
  
WGHT      0.0139      1.3389 
  
REM Highest difference peak  1.634,  deepest hole -2.216,  1-sigma level  0.284 
Q1    1   0.3599  0.3253  0.2770  11.00000  0.05   -2.22 
Q2    1   0.5645  0.0585  0.7802  11.00000  0.05   -1.79 
Q3    1   0.4232  0.5394  0.2771  11.00000  0.05    1.63 
Q4    1   0.2764  0.5724  0.2767  11.00000  0.05    1.50 
Q5    1   0.3487  0.7772  0.2784  11.00000  0.05    1.28 
Q6    1   0.2771  0.7681  0.2789  11.00000  0.05    1.23 
Q7    1   0.0828  0.4612  0.2715  11.00000  0.05   -1.18 
Q8    1   0.3432  1.1263  0.2766  11.00000  0.05   -1.13 
Q9    1   0.6367  0.7833  0.7805  11.00000  0.05    1.10 
Q10   1   0.4743  0.0523  0.7814  11.00000  0.05   -1.09 
Q11   1   0.4339  0.9995  0.4057  11.00000  0.05   -1.02 
Q12   1   0.2996  0.4596  0.7802  11.00000  0.05   -1.02 
Q13   1   0.4578  1.0462  0.5339  11.00000  0.05   -1.00 
Q14   1   0.2470  0.5317  0.5138  11.00000  0.05   -0.99 
Q15   1   0.6309  1.0279  0.5224  11.00000  0.05    0.94 
Q16   1   0.4002  0.2064  0.7884  11.00000  0.05    0.93 
Q17   1   0.2559  0.6878  0.3252  11.00000  0.05   -0.93 
Q18   1   0.3955  0.4280  0.3563  11.00000  0.05   -0.92 
Q19   1   0.3807  0.4168  0.5547  11.00000  0.05   -0.90 
Q20   1   0.4431  0.3566  0.7741  11.00000  0.05    0.87 
Q21   1   0.5371  1.1259  0.5198  11.00000  0.05   -0.87 
Q22   1   0.5176  0.9906  0.4576  11.00000  0.05   -0.87 
Q23   1   0.1945  0.2772  0.2663  11.00000  0.05    0.86 
Q24   1   0.3387  0.5249  0.6572  11.00000  0.05   -0.85 
Q25   1   0.3401  0.9988  0.2689  11.00000  0.05    0.84 
Q26   1   0.2503  0.5634  0.3557  11.00000  0.05   -0.83 
Q27   1   0.4175  0.9976  0.6349  11.00000  0.05   -0.83 
Q28   1   0.2460  0.5558  0.2017  11.00000  0.05   -0.82 
Q29   1   0.3401  0.5409  0.5178  11.00000  0.05   -0.82 
Q30   1   0.1972  0.5734  0.4260  11.00000  0.05   -0.80 
Q31   1   0.5801  0.9953  0.3576  11.00000  0.05   -0.79 
Q32   1   0.5187  0.2870  0.7728  11.00000  0.05    0.78 
Q33   1   0.2023  0.2533  0.4258  11.00000  0.05    0.78 
Q34   1   0.4801  0.1739  0.8344  11.00000  0.05    0.78 
Q35   1   0.2575  0.6749  0.2242  11.00000  0.05   -0.78 
Q36   1   0.4573  0.8588  0.5888  11.00000  0.05   -0.77 
Q37   1   0.5183  0.0561  0.7860  11.00000  0.05    0.77 
Q38   1   0.2991  0.7433  0.6301  11.00000  0.05    0.76 
Q39   1   0.3161  0.3888  0.3009  11.00000  0.05    0.76 
Q40   1   0.3800  0.3663  0.7828  11.00000  0.05   -0.76 
;
_shelx_res_checksum              93060
_shelx_hkl_file
; 
   0   1   0    8.50    1.20 
   0  -1   0   12.50    2.10 
   0  -1   0    4.20    0.70 
   0   2   0 4992.60  127.39 
   0  -2   0 4295.47  134.69 
   0  -2   0 5199.58  125.69 
   0  -3   0    4.40    9.60 
   0   3   0    3.30    2.00 
   0  -3   0    0.80    1.00 
   0   4   0  367.86   15.20 
   0  -4   0  455.45   50.69 
   0  -4   0  355.06   13.10 
   0  -5   0   13.70    8.30 
   0  -5   0    1.80    2.20 
   0   5   0    2.00    2.30 
   0   6   0  673.93   27.00 
   0  -6   0  663.53   23.60 
   0  -7   0   -5.40    3.00 
   0   0   1    5.90    0.70 
   0   0   1    5.90    0.80 
   0   1   1  479.45   14.20 
   0  -1  -1  474.15   13.90 
   0  -1   1  466.65   13.10 
   0  -1   1  461.65   13.70 
   0  -1  -1  458.35   12.70 
   0  -2   1    8.00    2.00 
   0  -2  -1    1.00    0.70 
   0   2  -1    4.00    2.10 
   0  -2   1    1.90    0.90 
   0  -2  -1    3.10    1.50 
   0   2   1   -0.10    1.10 
   0  -3   1 1661.83   45.60 
   0   3  -1 1637.14   48.10 
   0  -3  -1 1686.53   45.20 
   0  -3  -1 1671.23   50.09 
   0  -3   1 1636.54   50.69 
   0   3   1 1693.73   48.00 
   0  -4   1   -2.60    1.30 
   0  -4  -1    0.60    1.50 
   0   4   1    1.50    2.20 
   0   4  -1    8.60    3.00 
   0  -4  -1    1.70    4.70 
   0  -4   1    0.30    2.20 
   0  -5   1 1200.78   35.00 
   0  -5  -1 1015.50   33.90 
   0  -5  -1 1013.20   71.79 
   0   5   1 1172.58   38.00 
   0   5  -1 1213.88   38.00 
   0  -6   1    1.90    2.80 
   0  -6  -1   -2.20    2.50 
   0   6  -1    2.20    3.10 
   0   6   1   -0.90    3.40 
   0  -7  -1  379.76   17.30 
   0   7   1  392.86   20.50 
   0  -7   1  364.16   17.20 
   0   0   2 3977.70  104.29 
   0   0   2 3973.10  104.89 
   0   0   2 4033.10  103.09 
   0  -1  -2    4.80    0.50 
   0   1   2    3.10    1.30 
   0  -1   2    9.20    3.30 
   0  -1   2    4.10    1.10 
   0  -2   2  755.92   22.60 
   0  -2  -2  768.12   20.90 
   0   2  -2  772.52   35.20 
   0  -2   2  736.73   21.80 
   0  -2  -2  768.82   23.50 
   0   2   2  776.22   23.90 
   0  -3   2   -1.40    1.50 
   0   3   2    3.30    1.90 
   0   3  -2    4.40    2.90 
   0  -3   2    4.50    1.80 
   0  -3  -2   -1.40    0.90 
   0  -3  -2    1.60    2.10 
   0  -4  -2   29.70    3.20 
   0   4  -2   35.40    4.90 
   0  -4   2   30.90    3.60 
   0   4   2   40.20    5.00 
   0  -4   2   34.70    3.80 
   0  -4  -2   36.30    6.00 
   0  -5   2    2.90    2.60 
   0  -5  -2    5.00    2.00 
   0   5  -2    2.40    2.60 
   0   5   2    0.20    2.80 
   0  -5  -2   11.70    6.70 
   0  -6  -2  455.55   17.80 
   0   6   2  493.25   22.70 
   0   6  -2  455.35   21.00 
   0  -6   2  449.06   18.40 
   0  -7   2   -2.90    3.30 
   0   0   3    4.00    1.50 
   0   0   3    1.50    1.00 
   0   0  -3    1.60    0.70 
   0  -1   3  968.80   28.00 
   0   1   3  968.60   29.20 
   0  -1   3  954.10   26.60 
   0  -1  -3  984.60   28.50 
   0  -1   3  951.30   30.90 
   0   2   3    2.40    1.60 
   0  -2   3    2.10    1.30 
   0  -2   3   42.80   23.20 
   0  -2  -3    0.40    1.80 
   0  -3   3 1310.17   37.80 
   0   3  -3 1277.17   48.20 
   0   3   3 1300.07   40.10 
   0  -3  -3 1292.57   35.30 
   0  -3  -3 1308.87   39.90 
   0  -3   3 1317.17   37.20 
   0  -4   3    5.50    2.10 
   0  -4  -3    4.70    3.10 
   0  -4   3   -2.50    1.90 
   0   4   3    2.50    2.30 
   0   4  -3    0.50    3.30 
   0  -4  -3    1.10    1.30 
   0  -5   3 1006.30   31.70 
   0   5  -3 1002.10   35.10 
   0  -5  -3  927.51   38.30 
   0   5   3  999.50   35.50 
   0  -5  -3  997.00   29.80 
   0  -6   3    4.60    3.40 
   0   6   3   10.40    4.50 
   0   7   3  200.78   14.80 
   0  -7   3  181.78   12.10 
   0   0   4 9999.00  260.27 
   0   0  -4 9921.31  255.77 
   0  -1   4    2.40    1.40 
   0  -1   4    1.00    0.90 
   0  -1   4    1.50    1.90 
   0  -1  -4    0.20    2.00 
   0   1   4    3.10    1.70 
   0  -2   4 4036.40  142.59 
   0   2   4 4301.37  115.19 
   0  -2  -4 4234.18  114.19 
   0  -2   4 4280.27  111.29 
   0  -2   4 4246.67  112.69 
   0  -3  -4    2.90    2.90 
   0   3  -4    1.10   13.70 
   0  -3   4    1.50    1.50 
   0   3   4    2.80    2.20 
   0  -3   4    0.00    1.50 
   0  -4  -4  381.36   18.10 
   0   4  -4  409.16   21.30 
   0  -4   4  364.96   14.80 
   0   4   4  430.86   18.40 
   0  -4   4  366.26   14.90 
   0  -5   4    2.80    2.40 
   0   5   4    5.70    3.90 
   0   5  -4    5.60    4.40 
   0  -5  -4    6.00    4.40 
   0  -6   4  493.95   20.60 
   0   6   4  495.85   24.10 
   0   7   4    5.70    5.10 
   0  -7   4   -6.10    3.10 
   0   0   5    1.50    2.20 
   0   0  -5    1.90    1.10 
   0   0  -5    0.50    2.00 
   0   1   5  179.48   10.10 
   0  -1   5  173.58    6.90 
   0  -1  -5  179.48    9.50 
   0  -1   5  177.78    9.00 
   0  -1   5  191.78   11.40 
   0   2   5    2.80    2.50 
   0  -2   5    7.00    6.70 
   0  -2   5    1.50    1.50 
   0  -2   5    2.60    1.90 
   0  -2  -5    0.70    2.60 
   0  -3   5 1308.67   39.30 
   0  -3   5 1232.18   87.19 
   0  -3  -5 1223.18   41.70 
   0  -3   5 1343.87   38.40 
   0   3   5 1370.46   43.10 
   0   4   5   26.40    5.80 
   0  -4   5   -2.70    2.10 
   0  -4   5    5.10    2.10 
   0   4  -5    7.50    6.60 
   0   5   5 1021.00   38.20 
   0  -5  -5 1023.10   39.30 
   0  -5   5  999.00   33.40 
   0   6   5   -3.10    3.70 
   0  -6   5    2.10    3.40 
   0  -6  -5   14.90    6.70 
   0   0  -6  964.10   31.10 
   0   0   6  871.61   32.20 
   0  -1   6    8.70    3.70 
   0   1  -6    0.00    1.90 
   0  -1   6    3.30    2.30 
   0  -2   6  643.64   23.90 
   0  -2   6  701.83   22.00 
   0  -2  -6  736.63   25.80 
   0  -2   6  685.83   37.70 
   0   2   6  739.53   27.10 
   0  -3   6   42.00   43.90 
   0   4   6   51.19    7.50 
   0   4  -6   65.49   17.00 
   0  -4  -6   58.59    8.20 
   0  -4   6   39.70    5.20 
   0  -4   6   50.59    5.10 
   0   5   6    1.00    4.00 
   0  -5  -6    6.30    4.60 
   0  -5   6    4.20    3.10 
   0   6   6  282.27   19.00 
   0  -6  -6  280.27   20.00 
   0  -6   6  265.67   14.60 
   0   0  -7    2.50    3.10 
   0   0   7    9.20    4.10 
   0  -1  -7  252.87   13.80 
   0   1   7  229.38   14.00 
   0   1  -7  240.88   13.10 
   0  -1   7  220.98   15.70 
   0   2   7    2.00    3.10 
   0  -2  -7    0.10    3.40 
   0  -2   7    0.70    2.40 
   0  -2   7   -2.60    6.00 
   0  -3   7  657.23   89.89 
   0   3   7  646.84   27.90 
   0  -3  -7  633.44   26.90 
   0  -3   7  677.73   22.50 
   0  -3   7  654.13   24.40 
   0  -4   7   -1.60    2.80 
   0  -4  -7    5.50    4.80 
   0   4   7   -0.10    3.40 
   0  -5  -7  575.34   28.30 
   0   5   7  555.84   27.50 
   0  -5   7  555.84   22.20 
   0  -6   7    5.50    3.80 
   0  -6  -7   11.10    5.60 
   0   6   7    5.10    5.10 
   0   0  -8 3740.73  106.09 
   0   0   8 3662.43  110.39 
   0  -1   8   18.30    6.20 
   0   1   8    3.60    3.80 
   0   1  -8   26.10    6.00 
   0   2   8 2251.27   72.39 
   0   2  -8 2310.87   68.99 
   0  -2   8 2293.67   91.19 
   0  -2  -8 2277.77   70.99 
   0  -3   8  110.69   46.80 
   0  -4  -8  206.98   15.50 
   0   4   8  188.38   15.30 
   0   5   8   -0.60    4.80 
   0  -5  -8   14.20    5.40 
   0   0   9   -0.10    4.40 
   0   0  -9   -0.70    4.40 
   0   1  -9  149.19   12.30 
   0  -1  -9  156.98   12.90 
   0  -1   9  156.28   15.80 
   0   1   9  176.88   14.70 
   0  -2  -9   -0.90    4.30 
   0  -2   9   21.10   11.70 
   0   2   9   -0.40    4.10 
   0   2  -9    1.70    4.20 
   0   3  -9  811.02   32.00 
   0   3   9  856.81   37.00 
   0  -3  -9  833.42   35.50 
   0   4   9    7.30    5.60 
   0  -4  -9   14.20    5.90 
   0   0  10  388.76   25.80 
   0   0 -10  407.56   22.30 
   0   1 -10    2.10    4.90 
   0  -1 -10   -0.90    4.90 
   0   1  10    5.30    5.30 
   0  -1  10   17.70    7.50 
   0  -2  10  445.46   39.40 
   0   2  10  428.06   24.90 
   0   2 -10  374.86   21.00 
   0  -2 -10  394.16   23.10 
   0   3  10    6.20    5.30 
   0  -3 -10    2.30    4.60 
   0   0  11    6.50    6.10 
   0   0 -11    2.70    5.70 
  -1   0   0   -0.20    1.60 
   1   0   0    3.20    2.60 
  -1  -1   0  858.81   23.20 
   1   1   0  848.62   25.20 
   1  -1   0  871.21   23.20 
  -1  -1   0  868.91   23.50 
   1  -1   0  843.92   29.30 
  -1   1   0  886.41   23.50 
  -1  -2   0 1024.70   34.00 
   1   2   0 1060.09   31.40 
  -1   2   0 1081.39   29.70 
   1  -2   0 1027.40   40.90 
  -1  -2   0 1067.69   28.80 
   1  -2   0 1016.90   28.70 
   1  -3   0   27.90    2.50 
  -1  -3   0   62.29   17.50 
   1  -3   0   21.70   12.80 
  -1  -3   0   26.70    2.50 
   1   3   0   35.00    3.90 
  -1   3   0   28.90    3.10 
   1  -4   0 1585.44   86.59 
  -1  -4   0 2116.49   56.39 
  -1   4   0 2156.38   58.69 
  -1  -4   0 1884.11   83.39 
   1   4   0 2107.59   60.39 
   1  -4   0 2108.59   56.39 
   1  -5   0   14.50    3.20 
   1  -5   0   20.90   13.40 
  -1  -5   0   17.30    3.40 
   1   5   0   14.60    4.40 
  -1   5   0   14.80    3.70 
  -1   6   0 1292.97   42.90 
   1   6   0 1283.97   44.60 
   1  -6   0 1287.67   40.20 
  -1  -6   0 1325.47   40.30 
  -1  -7   0  191.58   11.60 
   1   7   0  193.68   14.10 
   1  -7   0  189.08   11.40 
   1   0  -1    3.00    0.70 
   1   0   1    2.10    0.60 
  -1   0   1    2.90    0.40 
  -1   0   1    3.30    1.00 
  -1   0  -1    4.70    0.80 
   1   0   1    2.20    0.70 
  -1  -1  -1 1479.55   38.90 
  -1  -1  -1 1485.55   38.20 
  -1   1   1 1481.95   39.30 
   1  -1   1 1406.36   40.50 
   1  -1   1 1407.46   38.50 
  -1  -1   1 1482.85   38.50 
   1  -1  -1 1420.56   38.00 
  -1  -1   1 1495.65   38.40 
  -1   1  -1 1460.75   44.10 
   1  -1  -1 1420.66   39.70 
   1   1   1 1446.76   39.80 
   1  -2   1  304.37   10.00 
   1  -2   1  317.17   15.40 
  -1  -2  -1  312.37   10.60 
   1   2  -1  301.97   14.50 
  -1   2   1  313.57   11.00 
  -1  -2  -1  305.37    9.60 
   1  -2  -1  306.97    9.60 
  -1   2  -1  307.47   11.00 
   1  -2  -1  304.77   12.20 
  -1  -2   1  318.87   10.20 
   1   2   1  316.07   11.90 
  -1  -2   1  326.47   10.20 
   1  -3   1  189.68    7.90 
   1  -3   1  206.78   15.10 
  -1  -3  -1  209.18   10.20 
  -1   3   1  196.88    9.00 
   1   3  -1  210.88   10.80 
  -1  -3  -1  209.88    7.70 
  -1  -3   1  190.08    7.80 
   1  -3  -1  196.88   11.50 
  -1   3  -1  198.38    8.60 
  -1  -3   1  202.88    8.60 
   1  -3  -1  186.68    7.30 
   1   3   1  181.48    9.40 
  -1   4   1  713.13   23.80 
   1   4  -1  680.43   25.10 
  -1  -4  -1  711.73   32.20 
   1  -4   1  686.23   31.20 
   1  -4   1  675.53   21.80 
  -1  -4  -1  671.73   21.20 
   1  -4  -1  743.03   34.70 
  -1  -4   1  692.53   23.60 
  -1   4  -1  715.73   23.90 
   1   4   1  700.23   25.20 
  -1  -4   1  700.13   22.40 
   1  -4  -1  702.23   21.80 
   1  -5   1   71.99    5.80 
   1  -5   1   82.99    9.20 
  -1   5   1   81.59    6.70 
  -1  -5  -1   51.59    4.80 
   1   5  -1   44.00    5.90 
  -1  -5   1   53.39    5.10 
   1  -5  -1   63.79    5.10 
   1  -5  -1   53.49   20.80 
   1   5   1   52.29    6.50 
  -1  -6  -1  313.07   13.70 
   1   6  -1  293.37   16.70 
   1  -6   1  306.97   14.00 
  -1   6   1  295.67   15.80 
   1  -6  -1  300.27   13.50 
  -1  -6   1  302.97   14.20 
   1   6   1  279.67   16.30 
  -1   6  -1  305.67   15.40 
  -1  -7  -1  294.87   14.20 
   1  -7   1  273.87   14.70 
   1   7  -1  279.97   17.20 
   1   7   1  276.17   17.40 
  -1  -7   1  293.77   14.80 
   1  -7  -1  291.17   14.40 
  -1   0   2    0.90    1.00 
  -1   0  -2   -0.30    0.70 
   1   0  -2    2.60    1.20 
   1   0   2    0.70    0.80 
  -1   0   2    3.20    0.50 
   1   0   2    0.80    0.80 
  -1  -1  -2 4357.66  113.79 
  -1   1   2 4293.77  113.09 
  -1  -1  -2 4357.76  112.29 
   1  -1   2 4409.36  112.79 
   1  -1   2 4334.97  114.19 
  -1   1   2 4394.46  114.49 
   1  -1   2 4322.07  117.39 
   1  -1  -2 4561.34  122.09 
  -1  -1   2 4818.42  120.59 
  -1  -1   2 4796.02  121.09 
  -1  -1   2 4588.24  130.19 
   1   1   2 4524.95  122.49 
   1   2  -2  632.84   43.30 
   1  -2   2  691.63   20.10 
  -1   2   2  691.83   21.70 
   1  -2   2  686.23   21.90 
  -1  -2  -2  703.63   21.20 
  -1  -2  -2  696.73   19.20 
  -1  -2   2  725.93   21.10 
   1   2   2  715.33   23.10 
   1  -2  -2  726.63   23.10 
  -1  -2   2  729.23   20.70 
   1  -2  -2  710.53   19.80 
  -1   2  -2  743.03   27.40 
   1  -3   2 1364.96   41.60 
  -1   3   2 1376.96   40.90 
  -1  -3  -2 1374.56   40.60 
   1  -3   2 1376.86   38.70 
   1   3  -2 1379.36   47.00 
  -1  -3  -2 1375.66   37.70 
  -1  -3   2 1345.27   37.70 
   1  -3  -2 1343.57   41.10 
  -1  -3   2 1329.77   37.30 
   1   3   2 1343.67   40.50 
  -1   3  -2 1301.87   39.80 
   1  -3  -2 1340.27   36.50 
  -1  -4  -2 1805.82   50.19 
   1   4  -2 1749.82   56.19 
   1  -4   2 1904.91   51.59 
  -1   4   2 1816.02   53.79 
  -1  -4  -2 1807.32   55.89 
   1  -4   2 1862.71   54.89 
   1   4   2 1846.72   55.59 
   1  -4  -2 1894.21   50.79 
  -1  -4   2 1853.71   51.79 
   1  -4  -2 1778.52   58.09 
  -1   4  -2 1840.12   53.69 
  -1  -4   2 1859.41   51.89 
  -1   5   2    3.00    3.00 
   1  -5   2    5.60    3.10 
   1  -5   2    2.50    2.40 
   1   5  -2    1.90    3.40 
   1  -5  -2    5.70    5.60 
   1   5   2   15.50    4.50 
  -1   5  -2    5.00    2.60 
  -1  -5   2    4.40    2.60 
   1  -5  -2    8.50    2.40 
  -1   6   2  820.32   31.50 
   1  -6   2  826.42   28.90 
  -1  -6  -2  865.81   27.80 
   1   6  -2  800.52   32.10 
   1   6   2  822.92   32.90 
  -1  -6   2  826.72   28.80 
   1  -6  -2  824.02   27.20 
   1  -6  -2  862.41   64.09 
   1  -7   2  505.15   21.30 
  -1   7   2  507.25   23.60 
  -1  -7   2  486.85   21.40 
   1   7   2  511.65   25.20 
  -1   0  -3    1.10    0.80 
   1   0   3    1.70    1.00 
   1   0   3    3.90    1.60 
   1   0  -3    1.70    1.30 
  -1   0   3    0.60    0.40 
  -1   0   3    1.90    1.40 
   1  -1   3 1030.50   28.70 
  -1   1   3 1040.60   31.10 
   1  -1   3 1068.79   32.30 
  -1  -1  -3 1029.60   30.50 
  -1  -1  -3 1036.30   27.80 
   1  -1   3 1064.09   30.50 
   1   1   3 1034.50   30.80 
  -1  -1   3 1053.29   28.20 
  -1  -1   3 1064.39   29.40 
  -1  -1   3 1064.89   33.90 
   1  -1  -3  951.00   30.20 
   1  -2   3  248.88   27.60 
  -1   2   3  356.66   13.80 
   1  -2   3  349.57   11.90 
   1  -2   3  362.46   13.30 
  -1  -2  -3  382.16   13.60 
  -1  -2  -3  362.76   10.50 
   1   2   3  345.87   14.10 
  -1  -2   3  358.46   11.80 
   1  -2  -3  360.16   13.70 
   1  -2  -3  366.96   10.10 
  -1  -2   3  356.36   12.00 
  -1  -2   3  295.77   36.40 
   1  -3   3  177.48    9.00 
  -1   3   3  175.08    9.40 
   1   3  -3  187.68   20.00 
  -1  -3  -3  180.78    6.60 
   1  -3   3  168.78    7.90 
  -1  -3  -3  178.88    9.40 
  -1  -3   3  167.38    7.60 
   1  -3  -3  174.58    6.30 
  -1   3  -3  175.68   11.40 
   1   3   3  177.48    9.80 
   1  -3  -3  169.18    9.70 
  -1  -3   3  172.38    7.30 
   1   4  -3  778.42   32.60 
  -1   4   3  789.02   28.00 
  -1  -4  -3  802.02   28.70 
   1  -4   3  773.32   26.90 
   1  -4   3  829.02   25.70 
  -1  -4  -3  820.12   23.90 
   1  -4  -3  815.82   23.50 
   1   4   3  732.43   28.80 
  -1  -4   3  840.22   25.70 
  -1  -4   3  808.42   24.60 
  -1   4  -3  773.12   27.70 
   1  -4  -3  781.62   29.40 
   1  -5   3   86.29    6.80 
  -1  -5  -3   73.39    5.00 
  -1   5   3   89.19    7.90 
   1  -5   3   91.49    6.70 
  -1  -5  -3   71.89    8.70 
   1   5  -3   54.19    7.50 
   1  -5  -3   87.39   10.20 
  -1   5  -3   97.29    7.60 
  -1  -5   3   83.59    6.70 
   1   5   3   78.69    8.20 
   1  -6   3  270.57   13.50 
   1   6  -3  253.97   15.50 
  -1   6   3  267.17   15.60 
  -1  -6   3  286.57   14.10 
   1   6   3  263.87   16.70 
   1  -6  -3  269.07   24.30 
  -1   7   3  261.07   17.00 
   1  -7   3  278.97   15.00 
  -1  -7   3  255.17   14.40 
   1   7   3  247.08   17.20 
   1   0   4    1.00    1.20 
  -1   0  -4    0.90    1.10 
   1   0   4    1.70    1.70 
   1   0  -4    5.30    2.20 
   1  -1   4  519.05   16.00 
  -1   1   4  533.85   19.20 
  -1  -1  -4  523.35   18.30 
   1  -1   4  543.55   18.20 
  -1  -1  -4  544.45   14.80 
   1  -1   4  533.65   20.00 
  -1  -1   4  528.45   17.30 
  -1  -1   4  526.25   20.90 
   1  -1  -4  525.45   18.20 
  -1  -1   4  534.15   15.70 
   1   1   4  528.15   18.70 
   1  -2   4 1214.48   35.50 
  -1  -2  -4 1252.87   38.00 
  -1   2   4 1299.07   38.90 
  -1  -2  -4 1289.57   33.50 
   1  -2   4 1290.07   37.70 
   1  -2   4 1216.28   62.19 
   1  -2  -4 1305.07   39.60 
  -1  -2   4 1310.07   61.09 
  -1  -2   4 1311.27   36.50 
  -1  -2   4 1285.17   37.30 
   1   2   4 1303.17   40.40 
  -1  -3  -4   22.30    1.80 
   1   3  -4   32.70   27.70 
  -1   3   4   21.50    4.40 
   1  -3   4   25.40    3.10 
   1  -3   4   24.60    3.40 
  -1  -3  -4   20.20    4.30 
   1   3   4   25.30    4.20 
  -1  -3   4   22.50    2.90 
   1  -3  -4   26.90    4.70 
  -1   3  -4   41.10   11.80 
  -1  -3   4   22.60    2.90 
  -1   4   4 1701.93   52.99 
   1   4  -4 1752.42   64.19 
   1  -4   4 1681.43   50.39 
   1  -4   4 1671.93   49.20 
  -1  -4  -4 1719.43   53.19 
  -1  -4   4 1688.83   48.20 
   1   4   4 1681.13   52.39 
  -1   4  -4 1724.83   53.49 
   1  -4  -4 1638.24   52.29 
  -1  -4   4 1568.14   46.80 
   1   5  -4   30.50    8.40 
   1  -5   4   28.70    4.90 
  -1  -5  -4   59.19    7.80 
  -1   5   4   31.60    5.70 
  -1  -5   4   33.10    5.30 
   1  -5  -4   28.40    7.00 
   1   5   4   33.50    6.10 
  -1   6   4  945.81   36.90 
   1  -6   4  973.00   33.30 
  -1  -6   4  893.11   31.40 
   1  -6  -4  953.70   42.70 
   1   6   4  880.21   35.90 
   1  -7   4  153.48   11.00 
  -1   7   4  150.08   12.80 
  -1  -7   4  151.78   11.30 
   1   7   4  149.29   13.50 
  -1   0   5    2.50    2.20 
   1   0  -5    3.30    1.10 
   1   0   5    1.60    1.70 
   1   0   5    4.90    2.30 
   1   0  -5    0.90    1.90 
  -1   0  -5    1.30    1.10 
   1  -1   5 1036.70   31.80 
  -1  -1  -5 1019.10   32.30 
  -1   1   5 1009.90   33.10 
  -1  -1  -5  990.60   26.80 
   1  -1   5  983.80   34.10 
  -1  -1   5 1028.20   35.90 
  -1   1  -5 1007.50   29.10 
  -1  -1   5 1044.40   28.70 
   1  -1  -5 1004.40   32.40 
   1   1   5 1023.60   33.20 
  -1   2   5  186.18   10.60 
   1  -2   5  193.28    9.80 
   1  -2   5  197.58   20.10 
   1  -2   5  199.18    8.30 
  -1  -2  -5  188.98   10.50 
   1  -2  -5  188.08   10.60 
  -1  -2   5  166.58   17.70 
  -1  -2   5  211.48    8.50 
   1   2   5  203.38   11.50 
  -1  -2   5  198.18    9.20 
   1  -3   5  121.09    7.70 
   1  -3   5  123.39    7.10 
  -1  -3  -5  137.89    9.20 
   1   3   5  143.89   10.00 
  -1  -3   5  128.89    7.30 
  -1  -3   5  171.58   34.50 
  -1  -3   5  130.79    7.10 
   1  -4   5  374.46   15.00 
   1   4  -5  400.96   33.70 
  -1  -4  -5  373.86   18.30 
  -1   4   5  386.66   18.60 
   1  -4   5  368.06   15.80 
  -1   4  -5  363.26   21.00 
   1  -4  -5  372.26   18.70 
   1   4   5  369.66   18.90 
  -1  -4   5  386.76   15.30 
  -1  -5  -5   58.19    7.90 
   1  -5   5   52.19    5.70 
   1   5  -5   43.00   10.60 
   1   5   5   40.40    7.20 
  -1  -5   5   41.30    5.50 
  -1   6   5  218.18   15.30 
   1  -6   5  207.18   12.30 
  -1  -6   5  206.58   12.50 
   1   6   5  195.88   15.30 
   1  -6  -5  237.68   18.30 
   1   0  -6    0.70    2.60 
   1   0   6   -0.50    2.00 
  -1   0  -6   -0.40    2.60 
  -1   0   6    8.60    3.20 
   1  -1   6 2432.96   69.69 
  -1  -1  -6 2399.96   70.39 
   1  -1   6 2459.65   74.39 
  -1   1   6 2395.46   71.69 
   1   1  -6 2459.25   69.39 
   1   1   6 2324.87   69.39 
  -1  -1   6 2399.36   63.09 
  -1   1  -6 2365.56   63.59 
  -1  -1   6 2342.47   72.89 
   1  -1  -6 2323.57   67.99 
  -1  -2  -6  788.62   28.00 
   1  -2   6  781.32   41.50 
   1  -2   6  752.92   26.80 
  -1   2   6  784.42   28.80 
  -1  -2   6  769.32   23.60 
  -1  -2   6  736.63   39.30 
   1   2   6  770.32   28.60 
   1  -2  -6  793.52   27.80 
  -1  -2   6  724.63   25.20 
   1  -3   6  680.23   24.80 
   1  -3   6  614.74   59.19 
   1  -3   6  713.13   23.30 
  -1   3   6  698.53   27.40 
  -1  -3  -6  726.23   27.00 
  -1  -3   6  705.23   24.60 
   1   3   6  745.13   29.00 
   1  -3  -6  706.63   27.90 
  -1  -3   6  723.83   23.80 
  -1  -3   6  968.00   80.09 
  -1  -4  -6 1120.59   39.80 
   1   4  -6  993.10   67.89 
   1  -4   6 1129.69   36.50 
   1  -4   6 1127.19   35.00 
  -1   4   6 1085.89   39.80 
   1   4   6 1134.99   41.60 
  -1  -4   6 1132.49   35.90 
   1  -4  -6 1153.58   41.40 
   1  -5   6   13.30    4.10 
  -1   5   6    9.50    4.90 
  -1  -5   6   10.70    3.90 
   1  -5  -6   10.30    5.40 
   1  -6   6  448.06   19.70 
  -1   6   6  408.16   22.70 
   1   6   6  434.76   24.90 
   1  -6  -6  495.95   28.00 
  -1  -6   6  430.76   19.90 
  -1   0   7   -0.60    3.10 
   1   0  -7    0.70    2.90 
  -1  -1  -7  525.95   22.00 
   1  -1   7  466.25   24.40 
  -1   1   7  539.35   23.60 
   1  -1   7  571.34   21.80 
   1   1  -7  535.75   21.60 
   1   1   7  523.85   23.30 
   1  -1  -7  530.85   22.00 
  -1  -1   7  570.94   26.70 
  -1   2   7  211.18   13.60 
   1  -2   7  233.88   12.40 
   1  -2   7  202.38   21.40 
   1   2  -7  221.68   12.10 
  -1  -2  -7  242.78   13.70 
   1   2   7  226.08   14.10 
  -1   2  -7  212.18    9.90 
  -1  -2   7  263.87   22.60 
  -1  -2   7  230.88    9.60 
   1  -2  -7  226.18   13.40 
  -1  -3  -7  101.39    9.50 
  -1   3   7   93.79    9.60 
   1  -3   7   95.49    7.90 
   1  -3   7  120.19   30.90 
  -1  -3   7   93.39    7.10 
  -1  -3   7  168.78   44.70 
   1   3   7   99.29    9.80 
   1  -3  -7   92.49    9.20 
  -1  -3   7   99.29    6.60 
   1  -4   7  547.85   20.50 
  -1  -4  -7  491.25   24.40 
   1  -4   7  565.14   22.20 
   1   4  -7  441.86   56.69 
  -1   4   7  526.45   25.20 
   1  -4  -7  560.14   26.70 
   1   4   7  580.44   27.10 
  -1  -4   7  540.15   20.80 
  -1  -5  -7   38.70    9.00 
  -1   5   7   47.20    7.90 
   1  -5   7   43.70    5.90 
  -1  -5   7   34.20    5.70 
   1   5   7   31.80    7.80 
   1  -5  -7   36.90    8.60 
  -1   6   7  236.58   17.70 
  -1  -6   7  235.68   13.80 
   1  -6  -7  246.28   18.80 
   1   6   7  230.18   17.70 
   1   0   8    4.40    3.90 
  -1   0  -8    2.90    4.20 
  -1   1   8  254.07   16.20 
   1   1  -8  224.38   13.80 
  -1  -1  -8  240.78   15.30 
   1  -1   8  267.57   18.70 
   1   1   8  232.38   15.70 
   1  -1  -8  260.57   15.40 
  -1   1  -8  261.57   15.00 
  -1  -1   8  230.08   18.00 
   1   2  -8  798.22   28.90 
  -1  -2  -8  744.43   30.60 
  -1   2   8  741.23   31.70 
   1  -2   8  739.83   28.50 
   1  -2   8  768.02   47.50 
  -1  -2   8  808.42   45.60 
   1  -2  -8  734.73   30.20 
   1   2   8  756.32   31.80 
   1   3  -8   20.30    5.20 
   1  -3   8   21.50    5.10 
  -1  -3  -8   31.20    7.80 
  -1   3   8   20.50    6.40 
   1  -3  -8   24.60    6.70 
  -1  -3   8   55.49   32.40 
   1   3   8   21.90    6.90 
  -1  -4  -8  903.51   37.30 
  -1   4   8  911.01   38.00 
  -1  -4   8  883.61   30.70 
   1  -4  -8  896.61   37.60 
  -1   4  -8  955.10   31.50 
   1   4   8  917.81   38.60 
  -1  -5  -8   52.79    8.50 
  -1   5   8   33.50    8.90 
   1  -5  -8   36.70    8.80 
  -1  -5   8   30.20    4.40 
   1   5   8   25.50    8.20 
  -1   5  -8   29.40    6.40 
   1   0   9    2.20    4.50 
  -1   0  -9    0.50    4.20 
   1   0  -9   -1.60    3.80 
  -1   0   9    5.00    5.30 
  -1   1   9  467.65   25.00 
   1   1  -9  477.95   22.50 
   1  -1   9  476.45   29.10 
  -1  -1  -9  454.85   23.30 
  -1  -1   9  481.35   29.10 
  -1   1  -9  467.85   22.80 
   1  -1  -9  464.65   22.80 
   1   1   9  443.06   24.10 
  -1   2   9   99.69   11.20 
  -1  -2  -9  102.89   10.90 
   1   2  -9   96.89    9.60 
   1  -2   9  125.39   21.20 
   1   2   9  122.69   12.30 
  -1  -2   9  138.69   20.20 
  -1   2  -9  112.69   10.90 
   1  -2  -9  109.29   11.50 
  -1   3   9  100.39   11.90 
  -1  -3  -9  101.99   11.40 
  -1  -3   9  183.38   46.10 
   1   3   9   87.09   10.70 
   1  -3  -9  111.89   12.00 
  -1  -4  -9  149.99   13.70 
  -1   4   9  149.49   14.30 
   1   4   9  156.48   14.60 
   1  -4  -9  144.89   13.90 
   1   0  10    8.60    6.20 
  -1   0 -10   -1.20    4.40 
   1   0 -10    0.50    4.80 
  -1   0  10   -2.30    5.20 
  -1   1  10 1019.60   43.80 
   1  -1  10  993.10   50.49 
   1   1 -10 1023.80   39.00 
  -1  -1 -10  971.10   40.20 
   1   1  10  911.81   41.50 
  -1  -1  10  964.30   48.90 
   1  -1 -10  980.00   39.50 
  -1   1 -10 1000.60   39.20 
   1   2 -10  322.87   18.80 
  -1   2  10  335.87   22.30 
  -1  -2 -10  320.97   20.70 
   1   2  10  334.47   21.90 
   1  -2 -10  326.67   21.10 
  -1  -2  10  398.26   36.10 
  -1   2 -10  333.17   20.00 
  -1   3  10  322.87   21.80 
  -1  -3 -10  304.17   20.10 
   1   3  10  375.26   23.80 
  -1   3 -10  355.66   20.30 
   1  -3 -10  352.76   22.40 
   1   0  11    8.60    6.20 
   1   0 -11    1.10    6.30 
  -1   0 -11   -2.70    5.10 
  -1   0  11   11.20    6.10 
   2   0   0   49.10    6.20 
  -2   0   0   67.69    5.60 
   2   0   0   66.39    6.20 
  -2  -1   0  813.82   22.40 
   2  -1   0  810.22   35.30 
  -2   1   0  814.72   22.00 
  -2   1   0  802.82   22.30 
   2   1   0  826.42   26.30 
   2  -2   0   42.20    2.70 
   2   2   0   46.50    4.60 
  -2  -2   0   52.99    4.00 
  -2   2   0   48.60    2.80 
  -2  -2   0   48.60    2.80 
   2  -2   0   48.10   11.40 
  -2  -3   0 2256.07   71.39 
  -2   3   0 2348.07   62.79 
   2   3   0 2247.68   66.29 
  -2  -3   0 2375.26   62.19 
   2  -3   0 2390.26   62.09 
   2  -3   0 2092.89   98.49 
   2  -4   0  185.38   23.30 
  -2  -4   0  205.58    8.80 
   2  -4   0  200.28    8.80 
  -2   4   0  192.08    9.20 
   2   4   0  201.58   11.60 
  -2  -4   0  213.78   16.20 
   2   5   0 1128.09   39.20 
   2  -5   0 1043.70   58.69 
  -2   5   0 1086.79   35.60 
  -2  -5   0 1188.28   34.80 
   2  -5   0 1148.99   34.40 
   2  -6   0    3.80    2.80 
  -2  -6   0    7.60    3.30 
   2  -6   0   17.40   11.20 
   2   6   0    9.00    4.20 
  -2  -7   0  341.07   16.30 
   2  -7   0  337.57   16.00 
   2   7   0  364.56   20.50 
   2   0  -1 2276.97   58.79 
   2   0   1 2277.17   58.59 
   2   0   1 2174.48   59.09 
  -2   0   1 2162.58   58.49 
  -2   0   1 2228.38   60.09 
  -2   0  -1 2228.88   60.89 
   2   1  -1   76.59   10.70 
  -2   1   1   86.99    3.90 
  -2   1   1   86.19    3.40 
   2   1  -1   81.19    2.80 
   2  -1   1   97.39    6.70 
  -2  -1  -1   82.49    3.70 
  -2   1  -1   79.39    3.60 
   2  -1  -1   77.29    4.70 
   2   1   1   86.79    4.60 
  -2  -1   1   85.39    3.50 
   2   1   1   83.29    3.40 
  -2   2   1 1081.69   31.80 
   2  -2   1 1162.48   46.20 
  -2  -2  -1 1152.68   30.90 
   2   2  -1 1173.98   41.80 
  -2  -2  -1 1134.09   31.30 
   2  -2   1 1104.69   31.20 
  -2  -2   1 1100.09   31.40 
   2   2   1 1099.09   33.80 
   2  -2  -1 1140.29   30.80 
  -2   2  -1 1148.09   31.10 
   2  -2  -1 1154.58   35.30 
  -2  -2   1 1152.08   30.10 
  -2  -3  -1  427.26   13.90 
  -2  -3  -1  431.26   15.70 
   2  -3   1  538.05   33.50 
  -2   3   1  427.56   15.10 
   2  -3   1  425.06   14.20 
   2   3  -1  438.06   19.60 
  -2  -3   1  450.45   13.60 
   2  -3  -1  422.96   13.80 
   2   3   1  430.26   17.30 
  -2   3  -1  443.56   14.70 
  -2  -3   1  447.36   14.70 
   2  -3  -1  452.45   20.40 
   2  -4   1   19.10    3.10 
   2   4  -1   18.20    5.20 
  -2   4   1   21.60    3.20 
   2  -4   1   10.40    7.80 
  -2  -4  -1   35.60    8.30 
  -2  -4  -1   20.60    2.80 
   2  -4  -1   26.40    9.30 
   2   4   1   21.90    4.90 
   2  -4  -1   28.20    3.10 
  -2  -4   1   17.50    3.00 
  -2   4  -1   20.90    3.20 
   2  -5   1  201.08   10.10 
  -2  -5  -1  210.68    9.80 
   2   5  -1  217.28   13.40 
  -2   5   1  203.68   11.10 
   2  -5   1  230.48   18.80 
  -2   5  -1  201.68   10.30 
  -2  -5   1  183.18    9.50 
   2   5   1  199.58   12.60 
   2  -5  -1  190.78    9.20 
   2  -5  -1  189.88   31.20 
  -2  -6  -1  274.77   12.80 
   2   6  -1  253.67   16.20 
   2  -6   1  270.27   13.00 
  -2   6   1  265.77   14.40 
   2  -6  -1  274.07   29.10 
  -2  -6   1  260.17   12.70 
   2  -6  -1  267.47   12.30 
   2   6   1  230.18   15.20 
   2  -7   1  107.39    8.70 
   2   7  -1  114.69   11.30 
  -2  -7  -1  113.49    8.90 
  -2  -7   1  118.69    9.40 
   2   7   1  112.19   11.50 
   2  -7  -1  101.39    8.50 
   2   0   2 1675.83   45.90 
   2   0   2 1704.73   45.40 
  -2   0   2 1664.23   46.90 
   2   0  -2 1650.63   45.40 
  -2   0  -2 1681.43   45.60 
  -2   0   2 1706.63   44.00 
   2   1  -2  717.93   20.40 
  -2   1   2  731.13   22.00 
   2  -1   2  703.43   22.40 
  -2   1   2  745.93   21.60 
  -2  -1  -2  705.73   20.60 
   2  -1   2  785.82   22.90 
   2   1   2  743.93   22.70 
  -2   1  -2  738.83   21.10 
  -2  -1   2  774.12   31.50 
   2   1   2  737.83   21.70 
  -2  -1   2  755.92   20.80 
   2  -1  -2  733.53   22.50 
  -2  -2  -2 1451.35   40.60 
  -2   2   2 1474.55   41.30 
  -2  -2  -2 1466.85   39.10 
   2  -2   2 1435.86   43.20 
   2  -2   2 1443.96   39.90 
  -2   2   2 1454.65   38.70 
  -2   2  -2 1474.15   42.50 
  -2  -2   2 1487.45   39.70 
   2  -2  -2 1467.45   43.30 
   2   2   2 1515.55   43.50 
  -2  -2   2 1498.95   40.70 
  -2  -3  -2 4665.63  118.49 
  -2   3   2 4597.04  120.99 
   2  -3   2 4616.34  119.49 
   2   3  -2 4600.44  135.79 
  -2  -3  -2 4409.66  120.49 
   2  -3   2 4284.17  124.89 
   2  -3  -2 4509.85  125.29 
  -2  -3   2 4686.13  120.69 
   2   3   2 4564.34  124.29 
  -2   3  -2 4544.15  121.29 
  -2  -3   2 4519.75  119.09 
   2  -3  -2 4651.03  119.39 
  -2  -4  -2    5.90    3.40 
  -2  -4  -2    3.90    1.60 
   2  -4   2    4.50    2.00 
   2   4  -2    7.10    5.20 
  -2   4   2    5.20    2.30 
   2  -4   2    4.40    3.40 
   2  -4  -2    8.30    2.10 
   2  -4  -2    6.40    3.90 
   2   4   2   11.20    3.50 
  -2   4  -2    5.40    2.30 
  -2  -4   2    5.80    1.90 
   2   5  -2 2891.21   88.39 
  -2  -5  -2 2708.03   80.79 
   2  -5   2 3194.18   82.49 
  -2   5   2 3040.60   84.49 
   2  -5   2 3028.80   88.89 
   2  -5  -2 3212.18   85.89 
   2  -5  -2 3155.58  106.49 
   2   5   2 3161.98   92.49 
  -2  -5   2 3143.39   87.29 
   2   6  -2   30.20    7.10 
  -2   6   2   27.50    6.00 
  -2  -6  -2   22.90    4.20 
   2  -6   2   22.10    4.70 
  -2  -6   2   18.40    4.50 
   2   6   2   32.70    7.20 
   2  -6  -2   52.89   18.50 
   2  -6  -2   26.10    4.40 
   2  -7   2  790.12   29.10 
   2   7  -2  791.02   33.60 
   2   7   2  791.02   34.90 
  -2  -7   2  818.32   30.00 
   2   0   3 1891.61   50.19 
  -2   0  -3 1739.83   48.90 
  -2   0   3 1782.02   51.29 
  -2   0   3 1827.22   47.30 
   2   0   3 1790.52   50.19 
   2   0  -3 1827.42   49.80 
   2   1  -3   83.89    4.30 
   2  -1   3   93.39    5.50 
  -2  -1  -3   84.49    4.10 
   2  -1   3   76.19    4.90 
  -2   1   3   78.69    5.20 
  -2  -1   3   85.69    3.80 
  -2  -1   3   92.99    7.90 
   2  -1  -3   83.79    5.20 
  -2   1  -3   82.19    4.10 
   2   1   3   79.49    4.70 
   2   1   3   82.09    5.30 
  -2   2   3 1004.30   30.50 
   2  -2   3 1001.40   28.50 
  -2  -2  -3  987.90   27.20 
  -2   2   3 1004.80   26.70 
  -2  -2  -3 1003.40   29.90 
   2  -2   3  857.01   42.30 
   2  -2   3 1032.90   30.90 
   2   2   3 1113.49   33.80 
  -2  -2   3 1018.00   29.90 
  -2  -2   3 1294.77   64.69 
   2  -2  -3 1082.99   33.20 
  -2  -2   3 1018.60   30.20 
   2  -3   3  138.99    8.50 
  -2  -3  -3  162.88    8.50 
  -2   3   3  136.99    8.20 
   2  -3   3  141.39    7.10 
   2   3  -3  150.68   29.30 
  -2  -3  -3  159.68    6.10 
  -2   3  -3  154.78    8.60 
   2   3   3  151.88    9.40 
   2  -3  -3  161.98    9.50 
  -2  -3   3  138.59    6.00 
  -2  -3   3  138.39    7.00 
   2  -4   3   78.09    6.70 
  -2  -4  -3   82.29    7.00 
   2  -4   3   75.89    5.40 
  -2   4   3   78.49    6.60 
  -2  -4  -3   79.99    4.70 
   2   4  -3   75.79   11.90 
   2   4   3   77.19    7.40 
  -2   4  -3   80.99    5.90 
  -2  -4   3   79.89    5.70 
   2  -4  -3   80.79    4.50 
   2  -4  -3   70.99    7.60 
   2  -5   3  413.26   16.20 
  -2   5   3  389.96   18.10 
  -2  -5  -3  407.16   14.70 
   2   5  -3  385.76   21.70 
   2  -5   3  378.36   18.20 
   2  -5  -3  421.46   23.50 
   2   5   3  436.46   21.00 
  -2  -5   3  409.86   16.80 
   2   6  -3  271.77   17.20 
   2  -6   3  254.87   13.30 
  -2   6   3  266.77   15.40 
  -2  -6   3  266.17   13.70 
   2  -6  -3  310.47   25.90 
   2   6   3  266.27   17.40 
   2  -7   3  113.49    9.50 
  -2  -7   3  127.09   10.00 
   2   7   3  109.79   12.10 
  -2   0  -4   63.29    4.00 
   2   0   4   68.89    5.10 
   2   0   4   63.39    4.70 
  -2   0   4   70.09    2.80 
  -2   0   4   71.09    5.70 
   2   0  -4   67.59    4.70 
   2  -1   4  402.86   14.70 
  -2  -1  -4  379.76   12.40 
  -2   1   4  381.46   15.20 
   2   1  -4  375.56   13.40 
   2  -1   4  381.76   15.40 
  -2   1  -4  395.46   12.90 
   2   1   4  385.76   15.30 
  -2  -1   4  389.06   12.20 
   2  -1  -4  396.56   15.00 
  -2  -1   4  380.16   17.50 
  -2  -2  -4    2.90    2.50 
  -2  -2  -4    4.60    1.00 
  -2   2   4    4.70    2.40 
   2  -2   4    7.70    8.90 
   2  -2   4    9.10    2.00 
  -2  -2   4    9.30    2.10 
   2  -2  -4    3.90    2.80 
   2   2   4    5.10    2.50 
  -2  -2   4    6.00    1.70 
  -2  -2   4    5.10    7.50 
  -2  -3  -4 1547.95   40.30 
  -2  -3  -4 1451.15   44.70 
  -2   3   4 1417.26   45.00 
   2  -3   4 1502.15   42.40 
   2  -3   4 1460.55   44.70 
   2  -3  -4 1470.25   46.20 
  -2  -3   4 1432.86   41.40 
  -2  -3   4 1480.45   42.20 
   2   3   4 1527.15   46.90 
   2  -4   4   30.10    4.20 
  -2  -4  -4   38.80    5.80 
  -2   4   4   40.20    5.40 
   2  -4   4   35.50    4.60 
   2   4  -4   39.20   13.90 
  -2  -4   4   37.90    4.50 
   2   4   4   37.10    6.00 
   2  -5   4 1045.10   35.30 
  -2  -5  -4 1055.19   38.80 
   2   5  -4 1047.20   44.90 
  -2   5   4  994.60   36.60 
   2  -5   4 1033.20   33.40 
  -2  -5   4 1021.40   33.10 
   2  -5  -4 1012.80   40.50 
   2   5   4 1019.90   38.30 
   2  -6   4    6.00    3.70 
   2   6  -4    9.40    6.30 
  -2  -6   4   14.60    4.60 
   2   6   4   17.70    6.00 
   2  -7   4  320.17   16.80 
  -2   7   4  330.57   19.00 
   2   7   4  333.07   20.90 
  -2  -7   4  323.67   17.20 
  -2   0   5 1261.37   33.60 
  -2   0   5 1282.17   40.60 
   2   0   5 1282.27   38.70 
   2   0  -5 1238.18   37.90 
   2   0   5 1289.77   39.50 
  -2   0  -5 1228.98   36.40 
  -2   1   5   27.60    4.10 
   2  -1   5   19.20    3.30 
  -2  -1  -5   26.00    2.40 
   2   1  -5   22.90    3.50 
  -2  -1  -5   23.50    4.40 
   2  -1   5   27.60    4.40 
  -2  -1   5   19.40    5.20 
  -2  -1   5   18.10    2.00 
   2  -1  -5   21.20    4.10 
  -2   1  -5   21.90    2.80 
   2   1   5   19.60    3.50 
   2  -2   5  647.14   22.60 
  -2   2   5  609.74   23.40 
  -2  -2  -5  637.44   23.00 
   2  -2   5  612.84   39.20 
  -2   2  -5  650.33   20.60 
   2   2   5  648.94   24.60 
   2  -2  -5  625.34   23.60 
  -2  -2   5  642.64   20.00 
  -2  -2   5  651.33   36.80 
  -2  -3  -5  359.46   15.90 
  -2   3   5  340.57   16.10 
   2  -3   5  344.27   15.20 
   2  -3   5  338.97   13.30 
   2   3   5  338.87   17.20 
   2  -3  -5  388.66   17.70 
  -2  -3   5  341.87   13.40 
  -2   3  -5  393.16   29.00 
  -2  -3   5  360.56   13.50 
  -2  -4  -5    9.10    4.40 
   2   4  -5    0.70   18.00 
   2  -4   5    9.00    2.90 
   2  -4   5    4.60    2.90 
  -2  -4   5    5.20    2.50 
   2   4   5    7.30    4.20 
  -2  -5  -5  134.79   11.40 
   2   5  -5  110.79   16.30 
   2  -5   5  112.19    8.40 
  -2   5   5  102.19    9.50 
   2  -5   5  111.29    8.20 
  -2  -5   5  104.89    8.00 
   2  -5  -5  113.09   11.60 
   2   5   5  113.19   10.70 
  -2   6   5  214.68   14.80 
   2  -6   5  201.38   12.20 
   2   6   5  230.28   16.70 
  -2  -6   5  197.88   12.30 
   2  -6  -5  274.07   20.30 
  -2   0   6  653.43   26.00 
   2   0   6  663.53   25.20 
  -2   0  -6  654.83   22.30 
   2   0  -6  625.24   23.00 
   2   0   6  655.93   23.80 
   2  -1   6  334.47   17.50 
   2   1  -6  347.07   14.60 
   2  -1   6  343.97   15.10 
  -2   1   6  331.07   16.30 
  -2  -1  -6  319.87   15.50 
  -2  -1   6  349.27   18.80 
   2  -1  -6  322.77   15.10 
  -2  -1   6  326.47   11.20 
  -2   1  -6  337.37   12.30 
   2   1   6  348.37   16.20 
   2  -2   6  463.95   32.90 
  -2   2   6  484.05   20.50 
  -2  -2  -6  467.25   19.70 
   2  -2   6  471.35   19.00 
   2   2  -6  456.65   17.50 
  -2   2  -6  459.85   16.50 
  -2  -2   6  488.45   16.10 
  -2  -2   6  453.85   29.80 
   2  -2  -6  473.55   19.90 
   2   2   6  467.05   20.60 
   2  -3   6 2261.87   64.39 
   2  -3   6 1802.42   90.69 
  -2  -3  -6 2237.68   65.49 
  -2   3   6 2194.98   66.29 
  -2  -3   6 2229.08   63.29 
   2  -3  -6 2257.17   68.69 
   2   3   6 2241.08   69.89 
  -2  -3   6 2460.35  112.69 
   2  -4   6   94.39    7.90 
  -2   4   6   86.79    8.80 
   2   4  -6   96.69   37.00 
  -2  -4  -6   96.89    9.50 
  -2  -4   6   86.59    6.90 
   2   4   6  107.79   10.20 
   2  -4  -6   85.49    9.90 
   2   5  -6 2442.36   95.79 
  -2   5   6 2276.37   73.39 
  -2  -5  -6 2320.97   75.09 
   2   5   6 2230.48   73.09 
   2  -5  -6 2287.27   74.39 
  -2  -5   6 2178.98   65.29 
  -2   6   6   25.10    7.20 
   2   6   6   31.20    8.20 
   2  -6  -6   40.50    9.40 
  -2   6  -6   18.40    6.00 
  -2  -6   6   32.30    6.20 
   2   0  -7 1114.19   37.00 
  -2   0   7 1117.39   40.90 
   2   0   7 1119.79   39.90 
   2  -1   7   77.29    7.30 
  -2   1   7   91.19    8.70 
   2  -1   7   73.29    9.10 
   2   1  -7   61.89    6.70 
  -2  -1  -7   77.89    8.20 
  -2  -1   7   87.79   10.50 
   2  -1  -7  100.79    8.60 
   2   1   7   71.39    7.90 
   2  -2   7  610.04   41.00 
   2  -2   7  628.74   24.30 
  -2   2   7  607.34   26.10 
   2   2  -7  606.74   23.00 
  -2  -2  -7  611.84   25.00 
   2  -2  -7  609.34   25.30 
   2   2   7  606.04   26.20 
  -2   2  -7  609.54   20.80 
  -2  -2   7  624.34   20.10 
  -2  -2   7  672.93   37.50 
   2  -3   7  114.09    9.20 
  -2   3   7  112.69   10.10 
  -2  -3  -7  135.69   10.90 
   2   3  -7  122.39    8.40 
  -2   3  -7  124.39    8.20 
  -2  -3   7  140.09   37.20 
   2   3   7  141.59   11.70 
   2  -3  -7  139.29   11.40 
  -2  -3   7  123.99    7.40 
   2   4  -7   42.20   34.20 
   2  -4   7   54.39    6.70 
  -2   4   7   38.10    7.00 
  -2  -4  -7   42.30    8.10 
   2  -4  -7   34.40    8.00 
  -2  -4   7   48.60    5.30 
   2   4   7   65.19    9.10 
  -2   4  -7   47.10    6.40 
  -2   5   7  257.47   17.30 
  -2  -5  -7  286.87   18.70 
  -2   5  -7  252.77   14.30 
   2   5   7  261.57   18.80 
   2  -5  -7  274.17   19.10 
  -2  -5   7  288.27   14.10 
  -2   0  -8   24.50    6.20 
   2   0  -8   17.80    5.40 
  -2   0   8   23.50    7.10 
   2   0   8   23.90    6.60 
  -2   1   8  165.78   13.20 
  -2  -1  -8  178.08   12.70 
   2  -1   8  183.18   12.10 
   2   1  -8  165.58   11.40 
   2  -1   8  180.88   15.50 
  -2  -1   8  182.18   16.00 
   2   1   8  186.38   13.50 
   2  -1  -8  164.48   12.20 
   2  -2   8   11.90   12.20 
  -2  -2  -8   19.80    6.40 
   2   2  -8   21.10    5.30 
  -2   2   8   19.80    6.30 
   2  -2   8   21.10    5.40 
  -2  -2   8   40.00   12.00 
   2   2   8   21.80    6.10 
   2  -2  -8   23.90    6.40 
  -2  -3  -8  659.13   29.00 
  -2   3   8  640.14   29.60 
   2  -3   8  682.93   27.10 
  -2   3  -8  668.33   23.90 
  -2  -3   8  725.23   69.29 
   2   3   8  641.84   30.20 
   2  -3  -8  686.03   29.50 
   2  -4   8    6.80    3.90 
  -2   4   8    6.40    4.80 
   2   4  -8   19.80   27.10 
  -2  -4  -8    3.80    5.00 
   2   4   8    3.60    5.00 
   2  -4  -8   12.70    5.90 
  -2  -4   8    5.60    2.80 
  -2   4  -8    1.20    4.00 
  -2  -5  -8  754.32   34.50 
  -2   5   8  695.03   33.40 
  -2  -5   8  694.43   25.90 
   2  -5  -8  679.73   33.40 
   2   5   8  628.54   32.60 
  -2   5  -8  701.63   27.00 
   2   0   9  665.73   31.90 
  -2   0  -9  585.54   27.50 
  -2   0   9  621.74   31.50 
   2   0  -9  635.84   27.50 
  -2  -1  -9    6.10    5.40 
   2  -1   9   16.40    8.00 
  -2   1   9   13.90    6.20 
   2   1  -9    1.60    4.30 
   2  -1  -9   10.60    5.70 
  -2  -1   9   15.70    7.60 
  -2   1  -9    9.50    5.60 
   2   1   9   11.50    5.80 
   2   2  -9  277.27   15.80 
  -2  -2  -9  276.77   17.70 
   2  -2   9  287.27   16.50 
  -2   2   9  269.67   18.50 
   2   2   9  301.17   19.20 
   2  -2  -9  282.47   18.00 
  -2  -2   9  298.97   29.70 
   2  -3   9   84.59    8.90 
  -2   3   9  107.29   11.60 
  -2  -3  -9   87.49   10.70 
  -2  -3   9  140.49   40.10 
   2   3   9   82.09   10.60 
   2  -3  -9   94.59   11.30 
  -2   4   9   10.20    5.90 
  -2  -4  -9   16.40    6.60 
   2  -4  -9    7.60    5.70 
   2   4   9    8.90    5.80 
  -2   0  10  415.86   26.60 
   2   0  10  405.46   26.40 
   2   0 -10  414.06   22.50 
  -2   0 -10  422.26   23.20 
  -2   1  10  184.98   16.20 
  -2  -1 -10  170.68   14.90 
   2   1 -10  188.78   14.10 
   2  -1 -10  188.88   15.50 
  -2  -1  10  228.18   21.50 
  -2   1 -10  170.18   14.80 
   2   1  10  197.88   16.80 
  -2  -2 -10  122.59   12.50 
  -2   2  10  144.09   14.00 
   2   2 -10  146.39   12.10 
  -2   2 -10  129.79   12.60 
  -2  -2  10  175.88   23.00 
   2  -2 -10  158.78   15.00 
   2   2  10  172.68   15.40 
  -2   3  10  968.80   42.60 
  -2  -3 -10  981.70   40.80 
   2   3  10 1045.30   46.20 
  -2  -3  10 1227.68   91.79 
   2  -3 -10 1061.99   44.00 
  -2   3 -10 1062.29   41.50 
   3   0   0    4.00    3.20 
  -3   0   0    6.30    3.20 
   3   0   0    1.70    4.20 
  -3  -1   0 6958.80  174.28 
   3   1   0 6842.81  174.68 
   3  -1   0 6195.08  200.88 
  -3   1   0 6748.42  174.48 
   3   1   0 6707.13  183.48 
  -3   1   0 6846.71  174.18 
   3  -2   0 1455.85   67.49 
  -3   2   0 1492.45   40.50 
  -3   2   0 1515.55   41.00 
  -3  -2   0 1528.95   41.30 
   3   2   0 1516.95   47.60 
   3   3   0 1929.41   59.49 
   3  -3   0 1941.31   88.39 
  -3  -3   0 1985.20   53.49 
   3  -3   0 1941.51   53.19 
  -3   3   0 1956.70   53.29 
  -3  -4   0 1118.09   32.60 
  -3   4   0 1116.69   32.70 
   3  -4   0 1118.19   32.40 
   3  -4   0  967.70   51.69 
   3   4   0 1073.89   37.90 
   3  -5   0   14.10    3.30 
   3   5   0   23.80    6.20 
  -3   5   0   25.20    3.60 
  -3  -5   0   20.90    3.80 
   3  -5   0   27.30    9.60 
   3   6   0  480.55   24.40 
   3  -6   0  509.25   19.50 
   3  -6   0  570.74   42.60 
  -3  -6   0  511.75   19.80 
  -3  -7   0  815.22   29.20 
   3   7   0  801.82   35.10 
   3   0   1    3.60    1.10 
  -3   0   1    4.60    2.00 
   3   0   1    5.70    1.60 
  -3   0  -1    5.30    4.60 
   3   0  -1    4.80    1.50 
  -3   0   1    5.90    2.00 
   3  -1   1  481.85   23.10 
  -3   1   1  452.75   14.20 
   3   1  -1  466.15   13.30 
  -3   1   1  458.35   14.10 
  -3  -1  -1  454.75   14.40 
   3   1  -1  421.86   23.80 
   3   1   1  438.46   15.20 
  -3   1  -1  448.06   13.80 
   3  -1  -1  446.46   16.10 
   3   1   1  447.46   13.40 
  -3  -1   1  455.55   13.60 
  -3  -2  -1 1150.38   32.40 
   3   2  -1 1201.48   51.99 
  -3  -2  -1 1151.08   31.90 
   3  -2   1 1214.38   58.29 
  -3   2   1 1151.18   32.80 
  -3   2   1 1172.78   32.00 
   3   2   1 1085.19   34.50 
  -3  -2   1 1087.49   31.10 
   3  -2  -1 1132.89   36.40 
  -3   2  -1 1145.59   31.30 
  -3   2  -1 1120.59   29.90 
   3  -3   1   80.49    4.80 
   3   3  -1  100.99   11.00 
  -3   3   1   86.59    4.50 
  -3  -3  -1   80.29    4.60 
   3  -3   1   90.09   14.90 
  -3  -3  -1   84.59    5.20 
  -3   3   1   85.69    5.00 
   3  -3  -1   78.59    9.30 
  -3  -3   1   86.69    4.90 
  -3   3  -1   79.19    4.10 
   3   3   1   81.99    6.80 
   3   4  -1 1188.18   43.70 
  -3  -4  -1 1259.87   36.20 
  -3   4   1 1189.38   36.90 
   3  -4   1 1474.15   72.69 
   3  -4   1 1249.97   36.40 
  -3  -4   1 1243.68   36.60 
   3  -4  -1 1217.38   54.99 
   3  -4  -1 1302.27   35.90 
  -3   4  -1 1208.28   35.80 
   3   4   1 1200.48   41.10 
   3  -5   1   16.30    3.40 
  -3   5   1   26.50    3.80 
  -3  -5  -1   25.30    3.80 
   3   5  -1   31.90    7.20 
   3  -5   1   24.60   11.80 
   3  -5  -1   24.60    3.90 
   3  -5  -1   30.00   18.80 
   3   5   1   28.80    6.30 
  -3  -5   1   26.00    4.30 
   3   6  -1  569.84   27.20 
  -3  -6  -1  580.74   21.40 
   3  -6   1  563.94   21.60 
   3  -6   1  588.94   35.20 
  -3  -6   1  576.54   21.40 
   3   6   1  537.75   25.80 
   3  -6  -1  546.65   39.20 
  -3   7   1   78.39    7.70 
  -3  -7  -1   72.49    7.00 
   3   7  -1   62.89    9.50 
   3   7   1   60.49    9.10 
  -3  -7   1   56.99    7.00 
  -3   0  -2    1.20    2.10 
  -3   0   2    0.40    1.40 
   3   0  -2    2.00    1.20 
   3   0   2    2.70    1.20 
  -3   0   2    2.20    0.90 
   3   0   2    2.90    1.10 
   3  -1   2 1486.55   40.20 
   3   1  -2 1467.05   39.20 
  -3  -1  -2 1469.35   41.10 
  -3   1   2 1480.25   41.20 
  -3   1   2 1400.96   46.00 
   3  -1   2 1441.86   42.90 
  -3  -1   2 1548.65   55.09 
   3   1   2 1460.45   41.40 
  -3  -1   2 1435.96   39.30 
   3  -1  -2 1462.15   41.60 
   3   1   2 1427.16   40.20 
  -3   1  -2 1439.66   39.80 
   3   2  -2  108.99   14.10 
  -3  -2  -2  119.39    5.70 
   3  -2   2  132.29    9.10 
  -3  -2  -2  126.99    5.30 
   3   2  -2  118.89    4.30 
  -3   2   2  120.49    4.90 
  -3   2   2  126.79    6.30 
   3  -2  -2  135.49    7.90 
   3   2   2  129.29    7.60 
  -3  -2   2  126.49    5.70 
  -3   2  -2  131.69    5.00 
  -3   2  -2  128.59    5.90 
   3  -3   2  594.14   26.00 
  -3  -3  -2  568.94   18.90 
  -3  -3  -2  565.14   17.60 
  -3   3   2  552.54   19.20 
  -3   3   2  580.94   17.20 
   3   3  -2  599.74   37.60 
   3  -3   2  552.24   18.20 
  -3  -3   2  562.74   15.60 
   3   3   2  571.54   21.60 
  -3   3  -2  559.84   17.20 
   3  -3  -2  570.74   22.80 
  -3  -3   2  555.74   18.20 
   3  -4   2  202.68   14.90 
  -3  -4  -2  191.28   10.70 
   3  -4   2  154.28    8.20 
  -3   4   2  192.48    9.80 
  -3  -4  -2  193.78    8.30 
   3   4  -2  188.48   16.50 
   3   4   2  150.18   10.70 
  -3   4  -2  181.38    7.80 
   3  -4  -2  186.38   13.90 
  -3  -4   2  166.88    8.40 
   3   5  -2   75.09    9.90 
  -3  -5  -2   61.89    5.20 
  -3   5   2   61.89    6.10 
   3  -5   2  106.09   10.90 
   3  -5   2   64.89    5.60 
   3   5   2   58.19    7.70 
  -3  -5   2   67.09    5.90 
   3  -5  -2   61.79   13.70 
   3   6  -2   28.70    7.50 
  -3   6   2   18.50    5.00 
  -3  -6  -2   22.70    4.20 
   3  -6   2   19.50    5.50 
  -3   6   2   21.60    4.30 
   3  -6   2   11.40    3.80 
   3  -6  -2   74.19   26.80 
  -3  -6   2   17.20    4.30 
   3   6   2   15.30    5.80 
   3   7  -2  388.56   23.10 
   3   7   2  382.86   22.50 
  -3  -7   2  403.26   18.50 
   3   0   3    4.30    1.60 
   3   0  -3    3.20    1.60 
  -3   0   3    3.50    0.80 
   3   0   3    2.20    1.20 
  -3   0  -3    1.00    1.80 
  -3   0   3    2.40    1.80 
   3  -1   3  461.25   17.00 
  -3  -1  -3  487.05   17.00 
  -3   1   3  474.65   16.90 
   3  -1   3  486.35   16.10 
  -3   1   3  477.25   14.20 
   3   1  -3  483.05   15.00 
   3   1   3  474.45   16.20 
  -3  -1   3  469.85   14.50 
  -3  -1   3  502.25   22.60 
   3  -1  -3  488.75   16.90 
   3   1   3  476.65   17.00 
  -3   1  -3  483.35   15.20 
  -3   2   3  693.63   19.70 
  -3  -2  -3  664.43   19.50 
   3  -2   3  640.24   23.10 
   3   2  -3  667.53   19.40 
   3  -2   3  618.14   26.40 
  -3   2   3  674.23   22.10 
  -3  -2  -3  676.93   21.40 
  -3  -2   3  679.63   20.80 
  -3   2  -3  684.93   21.10 
   3  -2  -3  696.73   23.90 
  -3  -2   3  760.62   41.30 
   3   2   3  681.93   23.90 
  -3   3   3   22.80    3.60 
  -3  -3  -3   19.90    3.40 
  -3  -3  -3   23.20    2.40 
   3  -3   3   27.70    3.10 
  -3   3   3   25.70    2.40 
   3   3  -3   14.60   11.70 
   3  -3   3   26.90    4.30 
   3   3   3   26.50    4.40 
  -3  -3   3   25.40    3.10 
  -3  -3   3   27.30    2.00 
   3  -3  -3   21.40    4.80 
  -3   3  -3   25.10    3.00 
  -3  -4  -3 1049.49   30.80 
  -3  -4  -3 1092.29   35.00 
   3  -4   3 1021.00   36.80 
  -3   4   3 1027.50   30.00 
   3  -4   3 1021.80   32.00 
   3   4  -3 1096.69   53.89 
  -3   4   3 1036.30   34.10 
   3  -4  -3 1024.60   37.40 
   3   4   3  976.30   35.30 
  -3  -4   3 1021.10   31.40 
   3  -5   3   16.00    4.50 
  -3  -5  -3    9.50    2.70 
   3   5  -3   15.20    8.00 
   3  -5   3   10.80    3.40 
  -3   5   3    9.70    3.40 
   3  -5  -3    8.70    6.40 
   3   5   3    7.90    4.40 
  -3  -5   3    5.30    3.20 
   3  -6   3  473.25   19.60 
  -3   6   3  478.25   21.50 
   3   6  -3  477.15   26.60 
   3  -6  -3  574.34   39.80 
   3   6   3  475.35   25.30 
  -3  -6   3  523.75   21.00 
   3   7  -3   40.60    9.50 
  -3  -7   3   40.30    6.90 
   3   7   3   52.79    9.30 
  -3   7  -3   44.50    7.20 
   3   0   4    1.00    1.30 
  -3   0   4    1.20    0.70 
  -3   0   4    0.20    1.80 
   3   0   4    1.60    1.60 
   3   0  -4    3.70    1.90 
  -3   0  -4    0.00    2.00 
  -3   1   4 5378.46  138.99 
  -3  -1  -4 5029.40  138.79 
   3   1  -4 5247.28  135.99 
   3  -1   4 5086.59  138.29 
  -3   1   4 5168.08  133.09 
   3  -1   4 5096.99  138.09 
  -3  -1   4 5471.25  152.88 
   3  -1  -4 5655.03  146.79 
   3   1   4 5480.95  147.19 
  -3  -1   4 5405.16  142.99 
  -3   1  -4 5535.95  144.19 
   3   1   4 5492.95  146.39 
   3   2  -4  642.44   19.30 
  -3   2   4  592.94   21.70 
  -3  -2  -4  610.54   21.20 
   3  -2   4  595.64   27.50 
   3  -2   4  609.24   22.00 
  -3  -2  -4  617.14   18.20 
  -3  -2   4  667.13   42.30 
  -3  -2   4  622.44   19.60 
   3  -2  -4  619.34   22.90 
   3   2   4  647.34   23.40 
  -3   2  -4  645.14   20.30 
   3   3  -4 1001.40   55.69 
  -3  -3  -4 1176.28   36.00 
  -3  -3  -4 1180.38   32.00 
   3   3  -4 1129.79   32.40 
  -3   3   4 1140.89   36.50 
   3  -3   4 1130.39   37.10 
   3  -3  -4 1193.58   40.00 
  -3  -3   4 1206.48   35.70 
   3   3   4 1240.18   40.60 
   3  -4   4  818.22   26.50 
  -3  -4  -4  829.72   29.30 
  -3   4   4  793.52   28.60 
   3  -4   4  809.52   29.60 
   3   4  -4  769.02   57.69 
   3   4   4  822.12   31.90 
   3  -4  -4  860.01   32.90 
  -3  -4   4  857.21   27.60 
   3  -5   4   31.70    5.30 
  -3   5   4   28.20    6.00 
   3  -5   4   29.70    4.90 
   3   5  -4   32.90   12.10 
   3  -5  -4   45.40    9.10 
   3   5   4   24.30    6.40 
  -3  -5   4   32.00    5.00 
  -3   6   4  464.75   22.50 
   3   6  -4  547.05   30.50 
   3  -6  -4  519.35   32.40 
  -3  -6   4  503.65   21.20 
   3   6   4  507.75   26.40 
   3   7   4  682.23   32.70 
  -3   7  -4  638.74   26.30 
  -3  -7   4  623.54   26.10 
   3   0  -5    1.70    2.20 
  -3   0   5    3.60    0.80 
  -3   0  -5    3.70    2.80 
   3   0   5    3.30    1.90 
   3   0   5    0.60    1.60 
  -3   0   5   -0.80    2.10 
  -3   1   5  294.37   14.20 
  -3  -1  -5  305.67   13.20 
   3   1  -5  275.77   11.80 
   3  -1   5  310.17   14.60 
   3  -1   5  288.77   13.20 
  -3  -1   5  302.27   10.40 
   3   1   5  314.87   14.10 
   3   1   5  301.17   13.30 
  -3   1  -5  311.17   11.50 
  -3  -1   5  295.57   16.80 
   3  -1  -5  297.67   13.60 
   3  -2   5  902.11   43.70 
   3  -2   5  819.22   28.60 
  -3   2   5  821.32   29.10 
   3   2  -5  838.92   26.10 
  -3  -2  -5  832.92   28.40 
  -3   2  -5  859.31   25.80 
   3   2   5  809.02   29.30 
  -3  -2   5  805.92   43.90 
  -3  -2   5  821.92   24.60 
   3  -2  -5  789.92   28.60 
  -3   3   5   90.89    7.70 
   3  -3   5   91.19    7.30 
  -3  -3  -5   91.49    7.80 
  -3   3  -5   92.19    6.50 
   3  -3  -5  107.39    9.00 
  -3  -3   5   97.09    6.00 
   3   3   5   93.49    8.50 
  -3  -4  -5  965.80   33.10 
   3   4  -5  695.23   62.59 
  -3   4   5  895.21   32.60 
   3  -4   5  930.31   32.40 
   3   4   5  939.51   35.60 
   3  -4  -5  921.81   35.40 
  -3  -4   5  924.91   29.70 
   3  -5   5   41.00    5.90 
  -3   5   5   31.20    6.50 
   3   5  -5   37.80   15.80 
   3  -5  -5   39.50    8.90 
  -3  -5   5   27.90    5.20 
  -3   5  -5   25.60    5.40 
   3   5   5   32.20    7.50 
   3   6  -5  473.65   30.90 
  -3   6   5  452.05   22.30 
  -3  -6   5  482.25   20.50 
   3  -6  -5  507.15   29.80 
  -3   6  -5  449.26   20.40 
   3   6   5  429.06   24.60 
   3   0  -6   -0.50    2.30 
   3   0   6    3.40    2.60 
   3   0   6    0.50    1.80 
  -3   0  -6   -4.30    3.80 
  -3   0   6    1.50    3.10 
   3  -1   6 1137.59   37.10 
   3  -1   6 1127.89   40.20 
   3   1  -6 1160.68   35.60 
  -3   1   6 1125.09   38.60 
  -3  -1  -6 1108.89   37.00 
  -3  -1   6 1119.59   31.40 
   3  -1  -6 1102.39   36.50 
  -3  -1   6 1129.89   42.40 
  -3   1  -6 1135.59   33.30 
   3   1   6 1095.79   37.60 
   3   2  -6   13.40    3.40 
   3  -2   6   29.10   13.00 
   3  -2   6   15.80    4.20 
  -3   2   6   11.50    4.20 
  -3  -2  -6   18.70    4.60 
   3   2   6   17.30    5.00 
  -3   2  -6   19.20    3.50 
  -3  -2   6   19.00    9.60 
  -3  -2   6   18.40    2.90 
   3  -2  -6   12.60    4.20 
  -3   3   6  217.88   13.20 
  -3  -3  -6  214.88   13.10 
   3  -3   6  216.78   12.30 
  -3  -3   6  249.58   27.80 
  -3   3  -6  208.58   10.70 
   3   3   6  225.38   14.30 
   3  -3  -6  227.08   14.20 
  -3  -3   6  222.08   10.10 
  -3  -4  -6   97.39    9.50 
   3  -4   6   97.99    8.70 
  -3   4   6   98.99    9.40 
   3   4  -6   52.99   22.60 
   3  -4  -6   95.99   10.10 
  -3   4  -6   98.89    7.90 
   3   4   6  117.89   11.20 
  -3  -4   6   98.99    7.30 
   3  -5   6   84.09    7.90 
   3   5  -6   91.19   25.00 
  -3   5   6   61.99    8.10 
  -3  -5  -6   84.99   10.00 
   3   5   6   65.99    9.60 
  -3   5  -6   74.39    7.70 
  -3  -5   6   76.79    7.10 
   3  -5  -6   71.99   10.50 
  -3   6   6   51.99    7.90 
   3  -6  -6   56.89    9.80 
  -3  -6   6   54.99    6.60 
   3   6   6   51.79   10.70 
  -3   6  -6   47.50    8.00 
  -3   0   7    3.10    3.60 
   3   0   7   -0.20    2.40 
   3   0  -7    0.70    2.90 
   3   0   7    2.60    3.10 
  -3   1   7  115.69   10.30 
  -3  -1  -7  123.09    9.70 
   3  -1   7  144.69   10.10 
   3   1  -7  122.09    8.80 
   3  -1   7  140.79   12.20 
  -3  -1   7  149.69   13.50 
  -3   1  -7  121.09    7.30 
   3  -1  -7  128.19    9.90 
   3   1   7  128.69   10.50 
  -3   2   7  357.26   18.20 
   3  -2   7  363.96   17.40 
   3   2  -7  324.47   15.30 
  -3  -2  -7  366.46   17.90 
  -3   2  -7  312.47   13.70 
   3  -2  -7  351.66   17.60 
  -3  -2   7  367.26   28.00 
   3   2   7  352.86   18.30 
  -3   3   7   23.60    6.10 
   3  -3   7   28.10    5.90 
  -3  -3  -7   20.50    5.70 
  -3  -3   7   31.00    3.90 
   3   3   7   38.10    6.50 
   3  -3  -7   15.00    5.50 
  -3   3  -7   24.60    4.70 
  -3  -3   7   26.00   17.50 
  -3  -4  -7  589.84   26.40 
   3  -4   7  602.04   25.20 
  -3   4   7  558.34   26.20 
  -3  -4   7  602.24   22.20 
   3  -4  -7  592.54   28.00 
   3   4   7  587.84   28.80 
  -3   4  -7  618.34   23.30 
  -3  -5  -7   15.30    5.70 
   3   5  -7   31.10   24.90 
  -3   5   7   10.20    5.50 
  -3  -5   7   16.50    4.30 
  -3   5  -7   17.20    5.10 
   3   5   7   18.70    6.80 
   3  -5  -7   15.10    6.50 
   3   0  -8    5.70    4.20 
   3   0   8    5.10    4.20 
  -3   0   8    4.20    4.50 
  -3   0  -8    0.70    3.90 
   3  -1   8 2559.04   76.79 
   3   1  -8 2568.94   74.89 
  -3  -1  -8 2520.95   77.79 
   3  -1   8 2548.95   87.09 
  -3   1   8 2549.44   80.39 
  -3  -1   8 2554.74   86.49 
   3  -1  -8 2579.94   76.69 
   3   1   8 2505.15   79.49 
  -3   2   8  211.28   14.60 
  -3  -2  -8  201.48   14.10 
   3   2  -8  201.08   12.10 
   3  -2   8  214.98   13.60 
  -3  -2   8  236.28   23.90 
   3   2   8  211.98   15.20 
   3  -2  -8  194.28   13.90 
  -3  -3  -8  501.15   24.50 
  -3   3   8  506.35   25.50 
   3  -3   8  542.15   23.80 
  -3  -3   8  534.95   54.79 
   3   3   8  517.55   26.20 
   3  -3  -8  508.85   25.20 
  -3   3  -8  502.95   20.10 
   3  -4   8  429.66   20.80 
  -3   4   8  431.66   23.10 
  -3  -4  -8  407.46   22.70 
   3   4  -8  319.47   37.50 
   3   4   8  400.86   23.40 
   3  -4  -8  400.46   23.20 
  -3   4  -8  415.76   18.40 
  -3   5   8   21.70    6.60 
  -3  -5  -8   39.90    8.70 
   3   5   8   29.70    8.20 
   3  -5  -8   30.20    8.20 
  -3  -5   8   25.20    4.60 
  -3   5  -8   35.10    7.00 
   3   0   9    7.10    5.50 
   3   0  -9    8.20    4.80 
  -3   0   9    2.90    5.30 
  -3   0  -9   -1.10    4.10 
  -3   1   9  242.38   17.80 
  -3  -1  -9  231.78   15.90 
   3   1  -9  220.88   14.50 
   3  -1  -9  261.77   16.70 
  -3  -1   9  277.47   22.60 
   3   1   9  239.28   17.60 
  -3  -2  -9  367.56   20.60 
   3  -2   9  343.97   18.90 
   3   2  -9  358.26   17.80 
  -3   2   9  316.37   20.40 
   3   2   9  367.86   21.90 
  -3  -2   9  360.16   32.70 
   3  -2  -9  349.77   20.60 
  -3   3   9   34.20    8.40 
   3  -3   9   47.90    7.10 
  -3  -3  -9   36.60    8.60 
  -3  -3   9   55.49   29.70 
   3  -3  -9   37.60    9.10 
   3   3   9   39.20    8.60 
  -3  -4  -9  578.54   29.40 
  -3   4   9  582.34   29.90 
   3  -4   9  588.64   26.40 
   3   4   9  587.94   31.20 
   3  -4  -9  602.74   30.50 
  -3   0  10    6.30    6.10 
   3   0  10   12.40    6.70 
   3   0 -10   -0.70    4.60 
  -3   0 -10    1.70    4.90 
  -3  -1 -10  518.45   27.00 
   3   1 -10  506.55   24.40 
  -3   1  10  554.54   30.60 
  -3   1 -10  556.74   27.20 
  -3  -1  10  541.05   34.70 
   3   1  10  524.65   29.50 
   3  -1 -10  516.85   26.40 
  -3  -2 -10   16.40    6.30 
  -3   2  10    8.60    6.30 
   3   2  10   10.40    5.90 
  -3   2 -10    9.30    6.00 
  -3  -2  10   11.30   13.00 
   3  -2 -10   30.20    8.70 
  -3  -3 -10  114.89   12.40 
   3  -3  10  105.19   10.30 
  -3   3  10  100.19   13.00 
   3   3  10  133.89   14.20 
   3  -3 -10  121.59   13.80 
  -3  -3  10  216.28   31.40 
  -4   0   0 2466.65   70.49 
   4   0   0 2523.35   73.29 
   4   0   0 2593.24   72.29 
  -4   1   0  950.30   27.10 
  -4  -1   0  954.70   28.00 
  -4   1   0  928.31   27.80 
   4  -1   0  977.70   43.20 
   4   1   0  967.90   42.20 
   4   1   0  958.90   27.20 
  -4  -2   0 2256.47   60.89 
  -4   2   0 2196.38   60.59 
   4   2   0 2335.37   72.69 
  -4   2   0 2245.88   59.59 
   4  -2   0 2269.77   90.79 
   4  -3   0 1504.25   67.79 
  -4   3   0 1522.45   42.00 
  -4   3   0 1537.95   42.60 
  -4  -3   0 1538.85   42.90 
   4   3   0 1487.35   51.59 
  -4   4   0   22.60    3.60 
   4  -4   0   22.20    9.20 
   4   4   0   27.90    6.80 
  -4  -4   0   23.30    3.10 
  -4   4   0   25.80    2.90 
  -4  -5   0 1220.48   36.60 
   4   5   0 1155.28   43.80 
   4  -5   0 1146.29   52.39 
  -4   6   0  154.08    9.60 
  -4  -6   0  151.98    9.60 
   4   6   0  156.88   13.70 
   4  -6   0  205.88   20.60 
  -4   7   0  251.27   13.70 
   4   7   0  271.57   19.30 
  -4  -7   0  271.07   14.40 
  -4   0  -1 1165.28   42.70 
   4   0   1 1106.69   32.80 
   4   0  -1 1158.48   34.70 
  -4   0   1 1163.98   38.20 
   4   0   1 1201.18   36.30 
  -4   0   1 1164.98   37.90 
   4  -1   1  222.98   20.20 
  -4   1   1  237.28    8.80 
   4   1  -1  228.68   11.50 
  -4  -1  -1  233.98    9.90 
  -4   1   1  229.08   10.60 
   4   1  -1  244.48   16.20 
  -4  -1   1  218.28    8.10 
   4   1   1  221.18   10.30 
  -4   1  -1  201.48    8.30 
   4   1   1  221.28    7.80 
   4  -1  -1  218.18   11.00 
  -4   2   1  725.93   21.20 
  -4   2   1  735.53   21.50 
  -4  -2  -1  728.63   20.60 
   4  -2   1  635.84   31.70 
  -4  -2  -1  742.13   21.70 
   4   2  -1  677.53   39.20 
  -4   2  -1  726.73   21.60 
  -4  -2   1  712.53   21.50 
   4   2   1  699.63   25.40 
   4  -2  -1  732.63   28.10 
  -4  -3  -1  773.52   23.40 
  -4  -3  -1  781.42   23.60 
  -4   3   1  768.12   23.20 
   4   3  -1  813.32   39.60 
   4  -3   1  767.42   36.60 
  -4   3   1  782.22   23.90 
   4  -3  -1  786.92   34.70 
  -4   3  -1  771.22   23.60 
   4   3   1  741.93   28.40 
  -4  -3   1  767.32   23.60 
  -4   3  -1  777.62   21.80 
  -4  -4  -1   68.39    5.00 
   4  -4   1   64.79   11.60 
  -4   4   1   66.39    4.80 
  -4   4   1   61.49    4.80 
   4   4  -1   62.99    9.60 
   4   4   1   54.39    7.00 
   4  -4  -1   70.69   17.70 
  -4  -4   1   54.29    4.70 
  -4   4  -1   66.19    5.30 
   4  -5   1  611.84   40.40 
  -4   5   1  565.74   19.30 
  -4  -5  -1  539.85   19.70 
   4   5  -1  530.75   27.60 
   4  -5  -1  541.95   46.40 
  -4  -5   1  529.35   19.50 
   4   5   1  523.45   25.30 
  -4  -6  -1   73.79    6.40 
   4  -6   1   72.59   20.00 
   4   6  -1   91.89   11.40 
  -4   6   1   80.19    6.70 
  -4  -6   1   75.29    6.90 
   4  -6  -1   80.99   17.70 
  -4   6  -1   83.99    7.50 
   4   6   1   75.09    9.70 
   4   7  -1  104.39   12.70 
  -4   7   1  109.19    8.40 
  -4  -7  -1  117.89    9.00 
   4   7   1  104.19   12.10 
  -4  -7   1  111.89    9.20 
  -4   7  -1  117.79    9.70 
  -4   0   2 3176.98   85.89 
  -4   0   2 3294.07   89.59 
   4   0  -2 3197.28   86.39 
   4   0   2 3139.49   85.59 
  -4   0  -2 3375.26   95.49 
   4   0   2 3287.27   87.69 
  -4  -1  -2  243.78   11.60 
  -4   1   2  217.88   11.10 
  -4   1   2  234.58    9.80 
   4   1  -2  241.38    8.30 
   4  -1   2  253.47   12.50 
  -4  -1   2  229.18    8.40 
   4   1   2  219.68    9.70 
  -4  -1   2  232.68   20.00 
   4   1   2  223.58    8.90 
   4  -1  -2  231.98   10.20 
  -4   1  -2  234.88    9.00 
  -4   2   2 3524.85   94.49 
  -4  -2  -2 3604.74   94.99 
   4   2  -2 3367.46  111.09 
   4  -2   2 3772.52  107.99 
   4   2  -2 3601.64   93.19 
  -4  -2  -2 3580.54   94.69 
  -4   2   2 3596.54   95.89 
   4   2   2 3382.76   95.29 
   4  -2  -2 3357.56   96.09 
  -4   2  -2 3537.55   91.99 
  -4  -2   2 3556.74   91.69 
  -4   3   2  122.19    5.90 
   4   3  -2  138.09   22.10 
   4  -3   2  158.08   15.20 
  -4  -3  -2  131.99    6.20 
  -4  -3  -2  124.29    6.70 
  -4   3   2  128.49    7.00 
  -4   3  -2  135.19    7.00 
   4  -3  -2  130.79   10.10 
   4   3   2  125.59    8.90 
  -4  -3   2  125.99    6.60 
  -4   3  -2  123.99    4.70 
  -4   4   2  152.88    8.60 
  -4  -4  -2  154.28    7.50 
   4   4  -2  180.08   20.30 
   4  -4   2  176.58   17.60 
  -4   4   2  155.98    7.50 
   4   4   2  149.49   11.10 
  -4  -4   2  153.58    8.30 
  -4   4  -2  152.78    8.30 
   4  -4  -2  129.59   12.80 
  -4   5   2   91.69    6.20 
  -4   5   2   86.59    6.90 
  -4  -5  -2   85.49    6.20 
   4  -5   2  108.89   14.50 
   4   5  -2   91.59   12.80 
  -4   5  -2   73.39    6.70 
   4  -5  -2  100.89   16.60 
  -4  -5   2   72.79    6.30 
   4   5   2   77.19    8.90 
   4  -6   2  294.37   22.00 
  -4  -6  -2  249.08   12.40 
   4   6  -2  274.67   20.40 
  -4   6  -2  237.88   12.90 
   4  -6  -2  290.27   38.60 
   4   6   2  255.27   17.30 
  -4  -6   2  245.28   13.00 
   4   7  -2    3.40    5.90 
  -4  -7  -2    0.30    2.90 
   4   7   2    2.20    4.60 
  -4   7  -2    2.10    4.30 
  -4  -7   2   -2.80    3.00 
  -4   0  -3 1357.06   43.60 
   4   0   3 1327.37   37.90 
  -4   0   3 1301.97   40.70 
  -4   0   3 1328.27   36.20 
   4   0  -3 1356.96   38.10 
   4   0   3 1287.27   38.90 
   4  -1   3  185.58    9.90 
   4   1  -3  189.28    7.60 
  -4  -1  -3  189.08   12.40 
  -4   1   3  177.78    9.00 
   4  -1   3  192.18    7.90 
  -4   1   3  195.98    8.80 
   4  -1  -3  197.88    9.40 
   4   1   3  186.98    9.10 
  -4  -1   3  186.68   14.20 
   4   1   3  189.68    8.60 
  -4  -1   3  195.18    7.30 
  -4   1  -3  186.58    8.20 
   4   2  -3  413.56   13.10 
   4  -2   3  438.26   18.80 
  -4  -2  -3  416.56   14.00 
  -4   2   3  432.06   16.00 
  -4   2   3  442.16   16.90 
  -4  -2  -3  424.46   15.30 
   4  -2  -3  410.96   17.00 
   4   2   3  428.36   17.10 
  -4  -2   3  424.56   14.10 
  -4   2  -3  407.26   14.50 
  -4  -2   3  467.55   29.60 
  -4   3   3  723.63   24.30 
   4   3  -3  628.54   38.50 
  -4  -3  -3  745.93   24.00 
  -4  -3  -3  721.33   21.90 
  -4   3   3  706.93   21.40 
   4  -3   3  711.73   28.90 
  -4   3  -3  743.13   23.30 
  -4  -3   3  703.03   22.80 
   4   3   3  733.03   27.20 
   4  -3  -3  729.53   27.50 
   4   4  -3    6.30   16.90 
   4  -4   3   31.70    6.70 
  -4  -4  -3   30.60    3.20 
  -4   4   3   27.90    4.10 
  -4   4   3   26.90    3.00 
  -4  -4  -3   33.10    4.60 
  -4   4  -3   25.30    4.20 
  -4  -4   3   26.90    3.70 
   4   4   3   29.10    6.20 
   4  -4  -3   29.50    6.70 
  -4   5   3  587.94   22.90 
  -4  -5  -3  568.94   20.30 
   4  -5   3  568.54   27.90 
   4   5  -3  696.53   40.40 
  -4  -5   3  578.84   21.10 
   4   5   3  551.54   26.10 
   4  -5  -3  571.84   31.10 
  -4   5  -3  560.54   21.10 
   4  -6   3  100.39   10.50 
   4   6  -3   90.09   13.90 
   4  -6  -3  105.49   22.50 
  -4   6  -3   83.09    7.90 
   4   6   3   72.49    9.80 
  -4  -6   3   80.39    7.40 
   4   7  -3   96.39   13.10 
  -4  -7   3   86.49    8.60 
  -4   7  -3   84.99    8.90 
   4   7   3   94.29   11.90 
   4  -7  -3  239.48   29.60 
   4   0  -4 2719.23   72.79 
  -4   0   4 2566.24   69.19 
  -4   0   4 2668.63   76.19 
   4   0   4 2657.53   72.99 
  -4   0  -4 2587.64   77.49 
   4   0   4 2604.44   73.69 
   4   1  -4  257.37   10.30 
  -4   1   4  278.17   12.60 
   4  -1   4  255.27   12.10 
  -4  -1  -4  266.77   16.50 
  -4   1   4  245.28    8.00 
   4  -1   4  268.67   11.70 
   4  -1  -4  257.97   11.70 
  -4   1  -4  250.07   10.20 
   4   1   4  242.48   11.40 
  -4  -1   4  256.37    9.00 
  -4  -1   4  266.67   16.50 
   4   1   4  246.28   11.20 
  -4   2   4 1273.27   38.80 
  -4  -2  -4 1260.97   37.70 
   4  -2   4 1246.68   39.70 
   4   2  -4 1286.57   35.20 
   4  -2   4 1149.78   40.60 
  -4  -2  -4 1221.58   35.10 
  -4  -2   4 1322.77   68.49 
   4   2   4 1364.56   43.10 
  -4   2  -4 1355.16   39.20 
  -4  -2   4 1357.16   38.50 
   4  -2  -4 1346.57   42.40 
  -4   3   4  934.51   31.60 
  -4  -3  -4  928.31   30.90 
   4  -3   4  948.11   34.00 
  -4  -3  -4  989.70   28.00 
   4   3  -4  972.90   49.50 
  -4  -3   4  965.60   29.10 
   4  -3  -4  955.30   33.70 
  -4   3  -4  926.11   29.40 
   4   3   4  933.11   34.20 
  -4  -4  -4   18.50    4.40 
  -4  -4  -4    8.50    2.20 
  -4   4   4   13.60    3.80 
   4   4  -4   17.00   16.30 
   4  -4   4   11.20    4.50 
  -4  -4   4   13.90    3.40 
   4   4   4   15.20    5.20 
   4  -4  -4   19.20    6.00 
  -4   4  -4   12.40    3.70 
   4   5  -4 1092.79   63.49 
  -4   5   4 1026.60   36.20 
   4  -5   4 1036.90   39.20 
   4  -5  -4 1061.49   43.30 
  -4   5  -4  985.50   33.80 
   4   5   4 1090.09   41.30 
  -4  -5   4 1026.00   33.90 
   4   6  -4  179.88   20.40 
  -4   6   4  142.49   10.80 
   4   6   4  146.59   13.80 
  -4   6  -4  160.78   11.00 
  -4  -6   4  164.68   11.00 
   4  -6  -4  196.68   20.90 
   4   7  -4  311.47   24.20 
  -4  -7   4  313.37   17.10 
   4   7   4  280.57   20.70 
   4  -7  -4  412.16   41.30 
  -4   7  -4  309.87   16.70 
  -4   0  -5  711.43   28.30 
   4   0   5  641.34   23.10 
   4   0  -5  638.34   22.20 
   4   0   5  627.94   23.10 
  -4   0   5  619.44   18.30 
  -4   0   5  646.84   25.40 
  -4   1   5  190.88   11.20 
   4  -1   5  197.68   11.30 
   4   1  -5  180.48    9.10 
  -4  -1  -5  201.38   13.80 
   4  -1   5  198.88   10.60 
  -4  -1   5  187.18   13.70 
   4   1   5  203.78   11.00 
   4  -1  -5  188.18   10.50 
   4   1   5  201.98   10.50 
  -4   1  -5  175.08    8.90 
  -4  -1   5  196.68    7.60 
  -4  -2  -5  569.94   21.40 
   4   2  -5  577.74   18.90 
  -4   2   5  552.94   22.10 
   4  -2   5  561.24   22.20 
  -4  -2  -5  568.14   17.60 
  -4  -2   5  581.74   18.30 
  -4   2  -5  599.04   19.70 
  -4  -2   5  558.34   38.10 
   4   2   5  581.34   23.30 
   4  -2  -5  504.85   22.00 
   4   3  -5  464.45   35.00 
  -4   3   5  466.75   19.70 
   4  -3   5  453.95   20.10 
  -4  -3  -5  473.15   19.30 
   4   3   5  505.45   22.30 
   4  -3  -5  508.15   22.20 
  -4  -3   5  515.15   17.90 
  -4   3  -5  478.85   18.30 
   4  -4   5   59.39    6.90 
  -4  -4  -5   52.09    6.80 
   4   4  -5   44.80   17.70 
  -4   4   5   47.10    6.30 
  -4  -4   5   54.29    5.30 
  -4   4  -5   57.89    6.00 
   4   4   5   49.70    7.60 
   4  -4  -5   53.59    8.20 
   4   5  -5  368.36   44.50 
  -4   5   5  362.56   18.50 
   4  -5   5  375.46   19.10 
   4  -5  -5  397.06   23.40 
   4   5   5  337.17   20.50 
  -4   5  -5  355.76   16.40 
  -4  -5   5  371.76   16.20 
   4   6  -5   91.39   20.60 
  -4   6   5   61.59    7.90 
   4   6   5   70.89   10.00 
  -4   6  -5   69.89    7.70 
  -4  -6   5   63.09    7.10 
   4  -6  -5   70.29   11.90 
   4   0  -6 2812.92   79.79 
  -4   0   6 2812.52   84.79 
  -4   0  -6 2839.22   90.49 
   4   0   6 2823.82   81.49 
   4   0   6 2853.31   82.39 
  -4   1   6    9.40    4.10 
   4  -1   6   17.70    5.10 
   4  -1   6   12.90    3.90 
   4   1  -6    9.20    3.20 
  -4   1  -6    9.40    2.80 
   4  -1  -6   11.70    4.00 
   4   1   6    9.00    3.50 
  -4  -1   6   15.50    2.00 
   4   1   6   18.00    4.40 
  -4  -1   6   16.10    6.20 
   4   2  -6 1653.53   47.70 
   4  -2   6 1624.44   51.19 
  -4  -2  -6 1634.04   50.99 
  -4   2   6 1606.14   51.99 
  -4   2  -6 1702.93   49.10 
  -4  -2   6 1690.63   72.19 
   4   2   6 1638.64   53.99 
   4  -2  -6 1679.33   53.09 
  -4  -2   6 1715.53   47.50 
  -4  -3  -6   63.79    7.20 
  -4   3   6   57.59    7.10 
   4  -3   6   60.89    6.80 
   4  -3  -6   77.09    8.60 
  -4   3  -6   65.59    6.30 
   4   3   6   73.89    8.30 
  -4  -3   6   69.39    5.50 
  -4  -3   6   86.09   19.60 
   4   4  -6   77.39   20.20 
   4  -4   6  102.39    9.20 
  -4   4   6   99.99    9.40 
  -4  -4  -6   85.89    9.00 
   4   4   6   95.39   10.50 
  -4  -4   6   98.59    7.40 
   4  -4  -6  107.39   11.20 
  -4   4  -6   93.79    8.10 
  -4   5   6   82.49    8.90 
   4  -5   6   72.79    8.20 
   4   5  -6   45.40   30.30 
  -4  -5   6   88.29    7.60 
   4   5   6   85.09   11.00 
  -4   5  -6   78.19    7.90 
   4  -5  -6   76.19   11.30 
   4   6  -6  262.67   30.70 
  -4   6   6  226.88   15.70 
  -4   6  -6  217.18   14.10 
   4   6   6  235.38   18.90 
   4  -6  -6  228.88   19.60 
  -4  -6   6  243.58   14.00 
  -4   0   7  469.95   24.00 
   4   0  -7  451.25   19.50 
   4   0   7  506.75   23.00 
   4   0   7  461.85   20.50 
   4  -1   7   96.69    8.60 
  -4   1   7  100.99    9.70 
   4  -1   7  120.59   12.10 
  -4  -1  -7   97.19    8.90 
   4   1  -7  111.89    8.30 
  -4  -1   7  108.99   12.50 
   4   1   7  117.19    9.90 
  -4   1  -7  102.19    7.50 
   4  -1  -7  101.89    9.20 
  -4   2   7  185.08   12.90 
   4   2  -7  166.78    9.90 
  -4  -2  -7  210.98   13.20 
   4  -2   7  213.78   12.90 
   4  -2  -7  209.08   13.30 
   4   2   7  197.08   13.60 
  -4  -2   7  231.38   24.50 
  -4   2  -7  182.38   10.30 
   4  -3   7  444.86   21.00 
  -4   3   7  426.66   21.60 
  -4  -3  -7  433.86   20.60 
  -4   3  -7  438.96   18.30 
   4  -3  -7  439.96   22.50 
  -4  -3   7  499.25   41.60 
   4   3   7  455.85   23.80 
  -4  -3   7  457.75   17.00 
  -4  -4  -7   44.40    7.50 
   4   4  -7   32.50   15.40 
  -4   4   7   40.30    6.90 
  -4  -4   7   38.50    4.80 
  -4   4  -7   38.10    6.40 
   4  -4  -7   46.30    9.50 
   4   4   7   32.00    8.00 
   4   5  -7  357.16   46.90 
  -4   5   7  474.45   24.00 
   4  -5   7  476.35   22.80 
   4  -5  -7  494.85   28.00 
  -4   5  -7  480.55   21.50 
   4   5   7  497.65   28.00 
  -4  -5   7  503.05   21.10 
   4   0  -8 1428.56   47.20 
   4   0   8 1449.35   48.50 
  -4   0   8 1421.26   53.09 
   4   0   8 1459.25   52.59 
  -4  -1  -8   63.79    8.50 
  -4   1   8   39.60    8.70 
   4   1  -8   57.09    6.90 
   4  -1   8   56.69    7.40 
  -4  -1   8   69.39   11.40 
   4   1   8   74.79    9.00 
   4  -1  -8   57.49    8.00 
   4   2  -8  490.05   20.20 
  -4  -2  -8  484.35   23.40 
   4  -2   8  502.55   22.90 
  -4   2   8  465.55   23.80 
   4  -2  -8  515.95   24.20 
   4   2   8  496.95   25.30 
  -4  -2   8  524.85   39.60 
  -4  -3  -8  511.95   24.90 
   4  -3   8  520.55   24.10 
  -4   3   8  514.85   25.50 
   4   3   8  513.25   26.50 
  -4  -3   8  599.64   51.09 
   4  -3  -8  536.25   25.80 
  -4   3  -8  474.15   20.20 
  -4   4   8    6.30    5.40 
   4  -4   8   18.10    5.60 
  -4  -4  -8    9.40    5.70 
   4   4  -8   26.80   14.70 
   4   4   8   16.30    6.60 
  -4   4  -8   11.70    4.70 
   4  -4  -8   14.50    6.50 
  -4   5   8  575.64   28.10 
   4   5  -8  355.56   42.80 
   4  -5  -8  625.44   32.40 
   4   5   8  619.64   32.10 
  -4   5  -8  598.54   25.40 
  -4  -5   8  592.34   24.00 
  -4   0  -9  458.45   24.20 
  -4   0   9  470.65   28.20 
   4   0  -9  499.45   23.30 
   4   0   9  535.75   29.40 
   4   1  -9   67.19    8.00 
  -4   1   9   78.49   11.20 
   4  -1   9   69.99    8.80 
  -4  -1  -9   63.19    9.20 
  -4  -1   9   89.19   13.70 
   4   1   9   84.59   10.70 
   4  -1  -9   71.19    9.20 
  -4  -2  -9  291.27   18.60 
   4  -2   9  299.07   17.60 
  -4   2   9  277.77   19.10 
  -4  -2   9  340.57   33.90 
   4   2   9  287.67   20.00 
   4  -2  -9  298.97   18.60 
  -4   3   9  247.68   17.90 
  -4  -3  -9  250.77   17.10 
   4  -3   9  268.47   17.00 
  -4  -3   9  282.57   34.80 
   4   3   9  243.88   18.30 
   4  -3  -9  224.98   17.20 
   4   4  -9   36.90   16.40 
   4  -4   9   13.90    5.20 
  -4   4   9   15.50    6.70 
  -4  -4  -9   24.00    7.00 
   4   4   9   21.50    6.70 
   4  -4  -9   13.80    6.30 
  -4   0  10 1259.37   55.29 
   4   0 -10 1358.06   47.80 
  -4   0 -10 1315.87   49.80 
  -4   1  10   -1.50    5.30 
  -4  -1 -10    9.40    6.20 
   4   1 -10    1.00    4.70 
   4  -1 -10    2.20    5.10 
   4   1  10    8.00    6.10 
  -4   1 -10   -1.50    5.00 
  -4  -1  10   18.40    9.20 
  -4   2  10  644.74   33.00 
  -4  -2 -10  610.14   30.40 
   4  -2  10  654.63   29.70 
   4  -2 -10  687.53   32.40 
  -4  -2  10  745.33   53.59 
   4   2  10  669.73   35.00 
   5   0   0    5.00    2.80 
   5   0   0    7.20    3.50 
  -5   0   0    1.70    2.00 
   5  -1   0  778.12   34.10 
   5   1   0  670.93   32.50 
  -5   1   0  788.42   25.60 
  -5   1   0  787.52   27.30 
  -5  -1   0  795.62   25.40 
   5   1   0  843.62   26.30 
   5  -2   0 1098.49   50.49 
  -5   2   0 1110.59   32.60 
  -5  -2   0 1101.29   32.70 
   5   2   0 1221.28   51.39 
  -5   2   0 1112.09   30.80 
  -5  -3   0   21.30    2.90 
  -5   3   0   22.90    2.10 
   5   3   0   27.20    9.20 
   5  -3   0   26.30    9.90 
  -5   3   0   19.40    3.10 
  -5  -4   0  956.90   29.20 
   5  -4   0  733.93   41.50 
   5   4   0  979.60   40.50 
  -5   4   0  977.60   29.00 
   5  -5   0   10.20    6.80 
   5   5   0    6.70    5.20 
  -5   5   0    9.50    3.50 
  -5  -5   0    5.60    2.90 
   5  -6   0  455.05   29.70 
  -5   6   0  441.96   18.40 
  -5  -6   0  440.46   18.80 
   5   6   0  457.95   27.10 
  -5   7   0    5.20    3.70 
  -5  -7   0    7.40    3.80 
   5   7   0    1.90    6.00 
  -5   0  -1   -0.70    2.30 
  -5   0   1    0.20    3.00 
   5   0  -1   -3.20    2.40 
   5   0   1    4.60    2.60 
   5   0   1    3.00    3.00 
  -5   0   1   -1.20    3.80 
   5   1  -1 2118.29   66.69 
  -5   1   1 2114.69   58.29 
   5  -1   1 1930.41   68.49 
   5   1  -1 2187.08   63.29 
  -5  -1  -1 2102.99   61.79 
  -5   1   1 2160.28   66.19 
  -5   1  -1 2172.08   61.59 
   5   1   1 2170.88   60.39 
   5   1   1 2244.28   66.09 
   5  -1  -1 2306.27   68.69 
  -5  -1   1 2194.68   60.89 
   5  -2   1    9.60    4.90 
   5   2  -1   14.70    7.10 
  -5   2   1   11.90    1.90 
  -5   2   1    9.70    2.30 
  -5  -2  -1   11.40    2.40 
  -5  -2   1   14.50    2.50 
   5   2   1   15.20    4.90 
  -5   2  -1    7.90    2.10 
   5   2   1   11.70    1.40 
   5  -2  -1   13.30    5.30 
  -5   3   1  471.05   16.20 
  -5   3   1  495.75   16.20 
  -5  -3  -1  494.15   16.70 
   5  -3   1  442.96   25.10 
   5   3  -1  562.24   40.10 
  -5  -3  -1  493.85   15.40 
   5   3   1  503.25   23.80 
   5  -3  -1  546.95   32.10 
  -5  -3   1  482.35   17.10 
  -5   3  -1  504.05   17.10 
  -5  -4  -1    9.60    2.60 
   5   4  -1   13.20   10.00 
  -5   4   1   10.80    2.80 
  -5   4   1    8.70    2.50 
   5  -4   1    5.90    5.30 
  -5   4  -1   11.30    3.40 
   5  -4  -1   -4.90   12.30 
   5   4   1    7.50    5.30 
  -5  -4   1   10.90    3.20 
   5  -5   1   90.09   13.10 
  -5   5   1   68.79    5.90 
  -5  -5  -1   85.89    6.50 
   5   5  -1   82.29   13.60 
  -5  -5   1   88.49    7.00 
   5  -5  -1   89.69   21.20 
   5   5   1   72.99    9.70 
  -5   5  -1   79.69    6.70 
  -5   6   1   30.10    5.10 
  -5  -6  -1   19.90    4.70 
   5  -6   1   32.30   13.10 
   5   6  -1   24.20    9.10 
   5  -6  -1   30.90   10.40 
   5   6   1   27.10    8.20 
  -5   6  -1   31.00    5.60 
  -5  -6   1   25.90    5.20 
   5   7  -1  407.56   26.40 
  -5  -7  -1  389.16   18.10 
  -5   7  -1  386.06   18.50 
   5   7   1  389.46   25.00 
   5  -7  -1  403.26   28.00 
  -5  -7   1  377.16   18.10 
  -5   0  -2   13.50    6.30 
  -5   0   2    7.30    3.00 
   5   0  -2    5.70    2.10 
   5   0   2    6.60    1.60 
   5   0   2    2.00    1.70 
  -5   0   2    3.10    2.10 
   5   1  -2   83.59    4.70 
  -5   1   2   86.39    6.30 
  -5  -1  -2  105.79   10.20 
   5  -1   2   89.39    9.10 
  -5   1   2   80.09    5.60 
  -5  -1   2   98.09   14.10 
   5   1   2   82.39    5.90 
   5  -1  -2   74.09    6.10 
  -5   1  -2   87.49    5.70 
  -5  -1   2   83.39    4.70 
   5   1   2   80.69    4.90 
  -5  -2  -2 2956.60   80.99 
  -5   2   2 2978.60   81.19 
   5   2  -2 2961.60   95.19 
  -5   2   2 2945.71   81.49 
   5  -2   2 3136.49  104.29 
   5   2   2 2882.41   76.99 
  -5  -2   2 2870.71   77.19 
   5  -2  -2 2874.41   82.69 
   5   2   2 2802.92   81.79 
  -5   2  -2 2896.71   77.59 
   5  -3   2   15.50    9.60 
   5   3  -2   23.90    9.70 
  -5  -3  -2   17.10    2.70 
  -5   3   2   20.00    3.00 
  -5  -3  -2   18.10    3.00 
  -5   3   2   22.80    3.00 
   5  -3  -2   28.10    6.70 
  -5  -3   2   19.00    2.80 
   5   3   2   24.40    5.70 
  -5   3  -2   15.60    3.20 
  -5  -4  -2 4463.95  118.29 
   5   4  -2 4350.36  159.68 
  -5   4   2 4375.76  117.49 
  -5   4   2 4379.96  119.29 
   5  -4   2 4575.64  158.88 
  -5  -4   2 4363.86  115.49 
  -5   4  -2 4350.56  115.39 
   5  -4  -2 4200.28  131.89 
   5   4   2 4202.68  122.89 
  -5   5   2   19.30    3.50 
   5  -5   2   33.60   14.60 
   5   5  -2   15.70   11.50 
  -5  -5  -2   17.40    3.70 
   5   5   2   15.50    5.80 
  -5   5  -2   22.30    4.50 
   5  -5  -2   36.60   15.50 
  -5  -5   2   14.80    3.80 
   5   6  -2 2277.27   85.19 
  -5  -6  -2 2314.87   66.39 
   5  -6   2 2230.88   92.99 
  -5  -6   2 2017.60   62.19 
   5   6   2 2096.89   72.19 
  -5   6  -2 2173.78   62.59 
   5  -6  -2 2094.69  102.69 
   5   7  -2   12.20    8.30 
  -5  -7  -2    6.10    3.70 
   5   7   2   -2.50    4.90 
   5  -7  -2    9.00    7.40 
  -5   7  -2   -2.60    3.50 
  -5  -7   2    8.40    4.00 
   5   0  -3    0.60    1.80 
  -5   0   3    2.50    1.30 
  -5   0  -3   -2.70    5.00 
   5   0   3    1.30    1.40 
  -5   0   3    1.20    2.30 
   5   0   3    1.70    1.30 
  -5   1   3 2032.20   57.69 
   5  -1   3 2121.09   61.09 
  -5  -1  -3 1939.71   65.19 
   5   1  -3 1955.00   54.69 
   5  -1   3 1944.91   54.39 
  -5   1   3 1967.70   60.89 
   5   1   3 1879.81   54.19 
   5   1   3 1880.71   55.09 
  -5  -1   3 1937.61   52.29 
  -5  -1   3 2007.80   69.39 
  -5   1  -3 1873.51   53.89 
   5  -1  -3 1921.61   55.39 
   5   2  -3   93.39    4.50 
  -5   2   3   91.29    6.30 
   5  -2   3  111.29    9.80 
   5   2  -3  122.19   15.10 
  -5  -2  -3   90.19    5.60 
  -5   2   3   97.99   10.50 
   5  -2  -3   96.79    7.60 
  -5   2  -3   80.09    5.50 
   5   2   3   87.79    5.60 
  -5  -2   3   95.69    5.40 
   5   2   3   78.99    6.90 
  -5  -3  -3  570.14   20.00 
  -5   3   3  577.74   19.20 
   5  -3   3  567.94   28.60 
   5   3  -3  567.54   33.20 
  -5   3   3  589.24   20.80 
  -5  -3  -3  570.54   18.90 
  -5   3  -3  607.54   20.20 
   5   3   3  571.84   24.30 
   5  -3  -3  577.14   24.90 
  -5  -3   3  580.44   19.80 
  -5   4   3   10.20    3.30 
  -5  -4  -3   10.90    2.60 
   5  -4   3    9.10    5.80 
  -5   4   3   11.30    2.60 
   5   4  -3   -2.40   11.70 
   5   4   3    9.10    4.40 
   5  -4  -3   11.10    5.60 
  -5  -4   3    8.40    3.00 
  -5   4  -3   12.40    3.50 
   5  -5   3   89.79   12.30 
   5   5  -3  104.39   26.20 
  -5   5   3   71.99    6.90 
  -5  -5  -3   62.99    5.70 
  -5   5  -3   73.09    6.90 
   5   5   3   53.89    8.20 
   5  -5  -3   95.49   14.00 
  -5  -5   3   68.59    6.40 
   5  -6   3   14.50    6.90 
   5   6  -3   12.40   11.10 
   5  -6  -3   15.50   14.80 
   5   6   3    4.90    4.70 
  -5   6  -3    2.10    3.40 
  -5  -6   3    4.20    3.10 
   5   7  -3  456.65   32.40 
   5   7   3  407.06   26.30 
  -5  -7   3  386.56   19.30 
  -5   7  -3  390.26   19.50 
   5  -7  -3  479.85   43.20 
  -5   0   4    4.60    2.70 
  -5   0  -4    2.80    6.30 
   5   0   4    6.40    2.40 
  -5   0   4    5.00    1.30 
   5   0  -4    4.30    2.40 
   5   0   4    4.50    1.90 
   5   1  -4  273.07   10.90 
  -5   1   4  281.77   13.30 
   5  -1   4  262.57   13.30 
   5  -1   4  268.67   11.90 
  -5   1   4  273.67    9.70 
  -5  -1  -4  237.38   15.00 
  -5   1  -4  271.17   11.60 
   5  -1  -4  272.07   12.60 
  -5  -1   4  266.27    9.70 
   5   1   4  259.97   12.20 
  -5  -1   4  258.87   17.80 
   5   1   4  256.47   11.90 
   5   2  -4  625.74   19.60 
  -5   2   4  638.54   23.10 
   5  -2   4  620.94   25.40 
  -5  -2  -4  645.54   21.00 
  -5  -2   4  656.33   20.50 
   5  -2  -4  635.84   24.40 
  -5  -2   4  648.44   43.10 
  -5   2  -4  643.24   21.40 
   5   2   4  598.14   24.00 
   5  -3   4   53.09    7.10 
   5   3  -4   76.09   16.50 
  -5   3   4   46.30    5.20 
  -5  -3  -4   53.19    5.50 
  -5  -3  -4   49.90    4.00 
   5   3   4   48.60    6.50 
  -5  -3   4   38.80    4.20 
  -5   3  -4   50.69    5.30 
   5  -3  -4   46.00    6.90 
   5   4  -4  734.73   45.40 
  -5  -4  -4  776.72   24.20 
  -5   4   4  762.02   27.70 
   5  -4   4  771.72   32.50 
   5  -4  -4  835.82   34.00 
  -5  -4   4  790.42   26.40 
   5   4   4  778.72   32.70 
  -5   4  -4  785.22   26.90 
  -5   5   4   -1.30    3.00 
   5  -5   4    3.90    4.20 
   5   5  -4   13.60   22.80 
   5   5   4   -4.90    4.30 
  -5   5  -4   -0.20    3.30 
  -5  -5   4    2.90    2.70 
   5  -5  -4   -2.70    5.10 
   5   6  -4  454.55   39.50 
   5  -6   4  408.66   23.90 
  -5  -6   4  381.66   17.80 
  -5   6  -4  390.86   18.50 
   5  -6  -4  439.86   32.70 
   5   6   4  364.36   23.80 
   5   0   5   -0.50    1.90 
  -5   0   5   -0.30    1.10 
   5   0   5    1.70    2.00 
   5   0  -5    1.80    2.50 
  -5   0  -5   -2.60    5.70 
  -5   0   5    1.70    2.60 
   5  -1   5 1180.08   38.60 
  -5   1   5 1181.58   39.50 
   5  -1   5 1197.98   39.90 
  -5  -1  -5 1141.59   42.30 
   5   1  -5 1176.68   35.60 
   5  -1  -5 1297.87   40.30 
  -5   1  -5 1267.67   38.60 
  -5  -1   5 1259.47   35.60 
   5   1   5 1265.17   40.80 
  -5  -1   5 1189.48   47.30 
   5   1   5 1252.17   39.90 
  -5  -2  -5    2.60    1.70 
  -5   2   5    1.60    2.60 
   5   2  -5    0.30    1.70 
   5  -2   5    0.20    2.60 
  -5  -2  -5    2.90    2.90 
  -5   2  -5    0.80    2.30 
   5  -2  -5    0.30    3.30 
   5   2   5    3.80    2.70 
  -5  -2   5    4.60    1.90 
  -5  -2   5   -6.40    6.80 
  -5  -3  -5  241.08   13.10 
   5  -3   5  257.47   15.00 
  -5   3   5  240.38   13.50 
   5   3  -5  278.67   27.10 
  -5   3  -5  271.77   12.20 
   5  -3  -5  225.68   14.30 
  -5  -3   5  246.08   11.00 
   5   3   5  230.48   14.70 
  -5   4   5    3.40    3.40 
   5  -4   5   13.30    4.60 
  -5  -4  -5   20.00    4.90 
   5   4  -5   -0.10    8.60 
  -5  -4   5    5.50    3.00 
   5  -4  -5    4.90    5.10 
  -5   4  -5    4.80    3.40 
   5   4   5    7.80    4.50 
   5  -5   5   58.39    7.90 
   5   5  -5   18.30   17.70 
  -5   5   5   57.59    7.40 
   5  -5  -5   71.89   11.20 
  -5  -5   5   59.99    6.60 
  -5   5  -5   64.19    7.30 
   5   5   5   64.09    9.80 
   5  -6   5   60.59    7.70 
   5   6  -5   73.99   23.80 
  -5   6  -5   42.70    7.40 
   5   6   5   51.89   10.90 
  -5  -6   5   52.19    6.60 
   5  -6  -5   63.19   13.60 
   5   0  -6    2.50    2.50 
   5   0   6    1.10    2.50 
   5   0   6    2.40    2.60 
  -5   0   6   -0.60    3.20 
  -5   0  -6    5.80    7.20 
  -5   1   6    5.40    3.80 
   5  -1   6    7.30    3.40 
  -5  -1  -6   25.80    7.90 
   5   1  -6    6.50    2.80 
  -5  -1   6    4.00    5.20 
   5   1   6    5.10    3.30 
  -5   1  -6    5.60    3.00 
   5  -1  -6    5.10    3.40 
  -5  -1   6    6.50    1.50 
   5   1   6    7.10    3.20 
  -5   2   6 1434.46   46.40 
  -5  -2  -6 1349.56   45.00 
   5   2  -6 1389.76   41.40 
  -5  -2   6 1499.45   70.39 
  -5   2  -6 1450.55   44.50 
   5  -2  -6 1493.35   48.60 
  -5  -2   6 1470.15   42.50 
   5   2   6 1480.35   49.70 
  -5   3   6   34.50    6.00 
   5  -3   6   36.20    5.90 
  -5  -3  -6   36.90    6.10 
  -5  -3   6   37.60    4.10 
  -5   3  -6   33.00    5.40 
   5  -3  -6   30.00    7.20 
   5   3   6   46.10    7.30 
   5  -4   6 2774.02   83.89 
   5   4  -6 2510.35  101.69 
  -5   4   6 2784.12   82.59 
  -5  -4  -6 2825.72   82.89 
   5   4   6 2808.82   89.69 
  -5   4  -6 2918.61   81.69 
  -5  -4   6 2812.22   80.39 
   5  -4  -6 2864.01   89.19 
   5  -5   6    1.10    3.90 
   5   5  -6   12.00   13.50 
  -5   5   6    3.00    4.00 
  -5   5  -6    4.60    3.70 
   5   5   6   -2.00    3.80 
  -5  -5   6    3.60    3.40 
   5  -5  -6    5.10    6.40 
   5   6  -6 1539.15   96.49 
  -5   6   6 1560.34   54.09 
  -5  -6   6 1527.75   50.29 
   5   6   6 1535.15   60.69 
   5  -6  -6 1558.04   64.99 
  -5   6  -6 1612.04   51.39 
   5   0   7    2.80    3.10 
  -5   0   7    0.60    3.60 
   5   0   7    0.50    2.80 
   5   0  -7    4.00    3.50 
   5  -1   7 1217.58   42.00 
  -5   1   7 1221.28   44.00 
   5   1  -7 1200.68   39.00 
   5  -1  -7 1216.18   41.40 
  -5  -1   7 1246.78   50.69 
   5   1   7 1237.38   44.00 
   5   1   7 1233.58   42.10 
  -5   1  -7 1217.18   40.80 
  -5  -2  -7   12.50    5.00 
   5  -2   7   11.00    4.50 
  -5   2   7   18.10    5.70 
  -5  -2   7   30.00   13.50 
   5  -2  -7   11.20    5.20 
  -5   2  -7   13.10    4.00 
   5   2   7   15.40    5.30 
  -5   3   7  366.26   19.40 
   5  -3   7  358.66   19.30 
  -5  -3  -7  332.77   18.40 
  -5   3  -7  376.16   16.50 
   5  -3  -7  345.47   19.90 
   5   3   7  341.87   20.50 
  -5  -3   7  364.86   14.50 
  -5  -3   7  352.56   33.30 
   5   4  -7   12.10   11.30 
  -5   4   7    7.30    4.70 
  -5  -4  -7    8.70    5.30 
   5  -4   7    4.30    4.30 
   5   4   7    6.10    4.90 
  -5   4  -7    5.60    4.30 
   5  -4  -7    3.40    5.60 
  -5  -4   7    6.40    3.10 
  -5   5   7   46.90    9.30 
   5  -5   7   54.49    7.10 
   5   5  -7   42.50   17.50 
  -5   5  -7   44.00    7.80 
   5   5   7   44.00   10.50 
  -5  -5   7   45.60    5.60 
   5  -5  -7   65.99   10.60 
  -5   0   8    6.30    5.50 
   5   0   8    9.50    5.10 
   5   0  -8    2.90    3.80 
   5   0   8    1.50    3.40 
   5   1  -8   81.69    8.00 
  -5   1   8   73.69    9.50 
  -5  -1  -8   80.79    9.60 
   5  -1   8   76.79    8.50 
   5   1   8   95.89   10.60 
  -5  -1   8   66.79   12.30 
   5  -1  -8   78.49    8.50 
   5  -2   8  267.27   16.40 
  -5   2   8  266.37   17.50 
  -5  -2  -8  275.17   16.80 
   5  -2  -8  297.87   18.00 
  -5  -2   8  335.47   33.20 
   5   2   8  283.87   18.80 
  -5  -3  -8   48.70    9.20 
  -5   3   8   38.20    8.40 
   5  -3   8   42.80    7.40 
   5  -3  -8   47.70    8.50 
   5   3   8   50.59    8.50 
  -5   3  -8   45.20    7.10 
  -5  -3   8   24.70   15.30 
   5   4  -8  491.85   38.50 
  -5   4   8  460.55   24.90 
   5  -4   8  470.65   24.10 
  -5  -4  -8  536.95   26.50 
  -5   4  -8  497.25   21.70 
   5   4   8  479.65   27.20 
   5  -4  -8  498.05   27.20 
  -5   0  -9   -3.30    4.50 
   5   0  -9    0.40    3.90 
  -5   0   9   -4.30    5.00 
  -5  -1  -9  486.25   25.70 
  -5   1   9  535.45   28.80 
   5   1  -9  522.75   23.10 
   5  -1   9  542.15   25.60 
   5  -1  -9  528.05   25.40 
  -5  -1   9  546.15   35.40 
   5   1   9  541.75   29.90 
  -5   2   9   22.80    7.20 
   5  -2   9   32.00    7.30 
  -5  -2  -9   24.80    7.50 
  -5  -2   9   46.60   15.40 
   5   2   9   28.20    8.00 
   5  -2  -9   30.70    8.10 
  -5   3   9  100.89   11.50 
   5  -3   9  118.19   11.60 
  -5  -3  -9  112.39   11.90 
   5  -3  -9  121.49   13.30 
  -5  -3   9  142.89   22.60 
   5   3   9  147.39   14.70 
  -5   0  10    4.90    6.90 
  -5   0 -10    4.20    5.70 
   5   0 -10   -0.20    4.90 
  -5  -1 -10   11.00    6.10 
  -5   1  10   13.70    6.80 
   5  -1 -10    5.70    5.40 
  -5  -1  10   20.60    9.70 
   5  -2  10  662.73   30.60 
  -5   2  10  630.44   33.90 
  -5  -2 -10  669.43   32.10 
   5   2  10  704.93   37.30 
   5  -2 -10  691.03   32.90 
  -5  -2  10  674.63   53.19 
  -6   0   0 2344.57   68.39 
   6   0   0 2447.16   69.99 
   6   0   0 2488.85   71.59 
   6  -1   0  765.72   31.60 
   6   1   0  698.03   29.70 
   6   1   0  790.12   31.70 
  -6  -1   0  766.22   27.50 
  -6   1   0  673.43   28.80 
  -6   2   0  798.52   23.30 
  -6   2   0  772.12   24.90 
   6   2   0  798.42   21.80 
  -6  -2   0  801.82   25.40 
   6  -2   0  797.02   37.20 
   6   2   0  711.23   38.70 
  -6  -3   0 1627.94   48.00 
  -6   3   0 1657.93   47.70 
   6   3   0 1743.13   73.49 
   6  -3   0 1700.93   65.09 
   6  -4   0   76.39   12.00 
  -6   4   0   83.59    6.10 
  -6  -4   0   69.29    5.80 
   6   4   0   77.89   14.10 
  -6   5   0 2368.26   67.79 
   6   5   0 2466.25   88.19 
  -6  -5   0 2344.87   68.39 
   6  -5   0 2401.06   84.69 
   6   6   0  284.77   23.60 
  -6  -6   0  211.08   12.20 
   6  -6   0  242.78   20.90 
  -6   7   0  786.22   29.00 
  -6  -7   0  780.62   29.50 
   6   7   0  780.72   41.70 
   6  -7   0  798.12   42.60 
   6   0   1 1288.77   52.89 
   6   0  -1 1246.98   52.79 
  -6   0   1 1250.27   39.90 
   6   0   1 1341.57   44.70 
  -6   0  -1 1230.98   39.90 
  -6   0   1 1233.08   47.70 
   6   1  -1  189.88    9.90 
  -6   1   1  185.38   15.30 
  -6   1   1  176.58    9.40 
  -6  -1  -1  186.98   14.00 
   6  -1   1  188.08    7.40 
   6   1  -1  180.58   13.50 
   6  -1   1  154.48   12.50 
   6   1   1  194.88   15.60 
  -6  -1   1  186.48    9.50 
   6  -1  -1  190.48   16.10 
   6   1   1  190.58    9.50 
  -6   1  -1  183.78   10.80 
  -6   2   1  525.85   18.70 
   6   2  -1  468.25   25.30 
  -6   2   1  518.25   17.00 
   6  -2   1  531.75   25.10 
  -6  -2  -1  520.75   18.40 
   6   2   1  541.15   27.80 
  -6   2  -1  514.05   17.90 
   6   2   1  494.55   15.90 
   6  -2  -1  559.34   31.90 
  -6  -2   1  515.25   17.90 
  -6   3   1  714.83   23.00 
  -6  -3  -1  717.63   23.40 
  -6   3   1  722.53   22.20 
   6   3  -1  604.24   37.20 
   6  -3   1  738.93   32.80 
   6   3   1  757.62   35.00 
  -6  -3   1  693.73   23.40 
   6  -3  -1  756.92   46.10 
  -6   3  -1  723.03   23.60 
  -6   4   1   19.40    3.50 
   6  -4   1   21.00    7.50 
   6   4  -1   41.30   18.70 
  -6  -4  -1   16.60    3.60 
  -6  -4   1   11.70    3.20 
  -6   4  -1   14.30    3.50 
   6   4   1   27.00    8.60 
   6  -4  -1    8.60   15.00 
  -6  -5  -1  550.44   20.70 
  -6   5   1  581.84   20.50 
   6   5  -1  547.55   38.10 
   6  -5   1  537.95   30.60 
  -6  -5   1  569.94   21.50 
   6   5   1  562.04   31.60 
  -6   5  -1  554.64   21.00 
   6  -5  -1  565.44   39.20 
  -6  -6  -1  115.59    8.60 
  -6   6   1  117.79    8.30 
   6   6  -1  103.19   16.40 
   6   6   1  132.59   14.80 
   6  -6  -1  121.09   16.70 
  -6   6  -1  116.19    8.80 
  -6  -6   1  110.39    8.90 
  -6  -7  -1   95.69    8.50 
   6   7  -1  114.19   17.00 
   6  -7   1  141.89   18.00 
   6  -7  -1  115.09   14.00 
  -6   7  -1  113.19    9.30 
  -6  -7   1  109.29    9.50 
   6   7   1  105.69   15.00 
  -6   0   2 2118.99   64.59 
  -6   0  -2 2218.18   66.29 
  -6   0   2 2017.80   66.89 
   6   0  -2 2142.59   61.59 
   6   0   2 2250.17   65.39 
   6   0   2 2105.99   59.59 
  -6   1   2   83.49    6.00 
  -6  -1  -2   90.99    8.60 
   6  -1   2  113.39   13.90 
   6   1  -2   86.39    6.00 
  -6   1   2   91.49    6.60 
  -6  -1   2  109.59   12.30 
   6   1   2   84.39    7.00 
  -6   1  -2   89.19    6.90 
  -6  -1   2   84.59    5.40 
   6   1   2   96.29    6.20 
   6  -1  -2   83.59    7.20 
   6   2  -2  702.73   32.60 
  -6   2   2  726.13   23.00 
  -6  -2  -2  680.43   23.40 
   6  -2   2  610.24   36.30 
  -6   2   2  700.53   26.90 
   6   2   2  685.93   21.90 
  -6   2  -2  691.53   22.90 
  -6  -2   2  708.13   22.50 
   6  -2  -2  693.33   28.20 
   6   2   2  704.03   28.20 
   6   3  -2  259.57   21.10 
  -6   3   2  291.07   11.90 
  -6  -3  -2  279.27   11.70 
   6  -3   2  253.77   20.50 
  -6   3   2  294.97   12.00 
   6   3   2  303.17   17.90 
  -6  -3   2  291.87   12.40 
  -6   3  -2  313.57   12.90 
   6  -3  -2  305.17   19.80 
  -6   4   2   66.09    5.30 
   6  -4   2   66.59   11.60 
  -6  -4  -2   64.09    5.30 
  -6   4   2   66.49    5.40 
   6   4  -2   50.39   16.40 
  -6   4  -2   77.49    6.50 
  -6  -4   2   76.39    6.30 
   6   4   2   73.39    9.80 
   6  -4  -2   79.99   14.20 
  -6  -5  -2  554.74   20.80 
  -6   5   2  591.34   20.50 
   6  -5   2  520.95   36.60 
   6   5  -2  633.54   49.70 
  -6  -5   2  600.24   22.70 
   6   5   2  555.34   30.10 
   6  -5  -2  663.33   53.09 
  -6   5  -2  578.74   21.90 
   6  -6   2  220.88   29.70 
   6   6  -2  173.68   23.80 
  -6  -6  -2  188.68   11.10 
   6  -6  -2  187.68   26.00 
   6   6   2  165.48   16.10 
  -6  -6   2  187.78   11.60 
  -6   6  -2  185.18   11.50 
   6   7  -2   57.09   15.40 
  -6  -7  -2   40.20    5.80 
   6  -7  -2   54.79   12.80 
  -6  -7   2   44.80    7.60 
   6   7   2   45.10   11.30 
  -6   7  -2   58.09    7.20 
   6   0   3  673.53   24.40 
   6   0  -3  663.93   22.20 
  -6   0   3  634.34   26.00 
  -6   0  -3  580.04   29.60 
  -6   0   3  639.34   21.40 
   6   0   3  645.44   21.20 
   6  -1   3  161.28   12.00 
  -6   1   3  152.98    9.30 
   6  -1   3  148.69    6.50 
   6   1  -3  152.68    7.50 
  -6  -1  -3  139.99   10.30 
  -6   1   3  155.58    9.40 
  -6  -1   3  123.29   16.00 
   6   1   3  138.69    8.10 
   6  -1  -3  162.48    9.40 
  -6  -1   3  139.29    6.90 
  -6   1  -3  133.59    8.70 
   6   1   3  131.39    8.40 
   6  -2   3  289.37   20.50 
  -6   2   3  259.67   13.60 
  -6  -2  -3  260.67   12.30 
  -6   2   3  265.97   12.30 
   6   2  -3  249.68   22.00 
  -6   2  -3  258.27   11.30 
   6   2   3  247.58   13.90 
  -6  -2   3  253.07   10.40 
   6   2   3  253.07   11.10 
   6  -2  -3  237.68   13.50 
   6  -3   3  734.13   40.30 
   6   3  -3  688.53   35.20 
  -6   3   3  681.73   24.00 
  -6   3   3  631.94   23.00 
  -6  -3  -3  636.24   21.80 
  -6  -3  -3  652.03   22.60 
   6  -3  -3  601.24   26.90 
   6   3   3  619.74   27.20 
  -6   3  -3  659.23   22.20 
  -6  -3   3  646.94   21.50 
  -6  -4  -3  110.99    6.80 
  -6   4   3   96.99    7.40 
   6  -4   3  168.68   22.00 
   6   4  -3  116.09   18.00 
   6  -4  -3  111.79   12.60 
  -6  -4   3  108.29    7.70 
  -6   4  -3  110.29    7.60 
   6   4   3  121.19   11.70 
  -6  -5  -3  511.75   19.40 
   6   5  -3  482.85   46.60 
   6  -5   3  582.44   40.00 
  -6   5  -3  502.55   20.30 
   6   5   3  522.55   28.00 
  -6  -5   3  524.75   20.80 
   6  -5  -3  516.05   35.40 
   6  -6   3  146.19   19.00 
   6   6  -3  136.29   30.90 
  -6  -6  -3  103.39    8.00 
   6  -6  -3  128.89   30.70 
  -6  -6   3   94.59    8.40 
   6   6   3  105.59   13.30 
  -6   6  -3   93.39    8.50 
  -6   0  -4 1527.05   58.79 
   6   0   4 1534.55   48.20 
   6   0   4 1586.94   46.50 
   6   0  -4 1582.44   46.40 
  -6   0   4 1555.14   43.60 
  -6   0   4 1557.54   51.59 
  -6   1   4  587.54   22.70 
  -6   1   4  557.74   19.00 
  -6  -1  -4  552.94   22.80 
   6  -1   4  547.55   23.50 
   6   1  -4  576.84   19.40 
  -6  -1   4  548.95   31.10 
   6   1   4  524.15   21.00 
  -6   1  -4  544.45   21.00 
   6  -1  -4  558.04   21.20 
  -6  -1   4  551.04   17.70 
   6   1   4  540.65   20.50 
  -6   2   4  716.53   25.70 
   6  -2   4  668.83   30.30 
  -6  -2  -4  712.33   24.50 
   6   2   4  682.23   23.90 
   6  -2  -4  670.53   26.10 
   6   2   4  661.23   26.50 
  -6  -2   4  687.93   21.90 
  -6  -2   4  626.44   37.80 
  -6   2  -4  689.03   23.30 
   6  -3   4 1666.43   59.69 
  -6  -3  -4 1657.03   47.60 
   6   3  -4 1696.23   66.39 
  -6   3   4 1609.74   50.29 
  -6  -3  -4 1659.03   49.99 
   6  -3  -4 1658.63   55.59 
  -6   3  -4 1705.13   49.90 
  -6  -3   4 1689.63   48.90 
   6   3   4 1668.93   55.79 
   6   4  -4   24.90   11.90 
   6  -4   4   52.89   11.10 
  -6  -4  -4   37.50    4.10 
  -6   4   4   35.80    5.30 
   6   4   4   40.10    7.40 
  -6   4  -4   38.50    5.20 
  -6  -4   4   38.50    5.20 
   6  -4  -4   43.70    9.30 
   6  -5   4 1633.64   61.59 
   6   5  -4 1232.58   71.69 
  -6   5   4 1613.94   49.40 
   6   5   4 1725.53   63.09 
  -6   5  -4 1671.23   52.79 
  -6  -5   4 1730.13   52.89 
   6  -5  -4 1779.52   67.49 
   6   6  -4  217.98   39.00 
   6  -6   4  183.88   17.20 
  -6   6  -4  175.98   11.90 
   6  -6  -4  212.08   25.10 
   6   6   4  185.58   17.50 
  -6  -6   4  174.18   11.80 
   6   0   5  910.71   32.70 
  -6   0  -5 1022.00   41.50 
   6   0  -5  925.51   30.70 
  -6   0   5  969.80   27.00 
   6   0   5  952.40   32.00 
  -6   0   5  803.02   34.40 
   6  -1   5  103.39    8.70 
  -6   1   5   92.49    8.60 
   6   1  -5   95.79    6.60 
  -6  -1  -5   94.79    8.50 
  -6   1  -5   98.79    8.20 
   6   1   5  100.19    8.10 
   6  -1  -5  101.19    8.20 
   6   1   5   91.09    7.50 
  -6  -1   5   95.79   12.20 
  -6  -1   5   95.79    5.40 
   6  -2   5  529.55   23.90 
  -6   2   5  525.05   21.90 
  -6  -2  -5  518.75   19.60 
  -6  -2   5  494.65   41.00 
   6  -2  -5  517.05   22.40 
  -6   2  -5  551.94   20.10 
  -6  -2   5  504.25   17.70 
   6   2   5  502.95   22.70 
  -6  -3  -5  493.25   21.30 
   6  -3   5  528.15   25.70 
   6   3  -5  559.34   35.70 
  -6   3   5  527.85   22.00 
   6   3   5  524.75   24.80 
   6  -3  -5  509.05   24.10 
  -6  -3   5  520.15   18.70 
  -6   3  -5  506.95   19.80 
   6  -4   5    6.10    4.50 
   6   4  -5   -1.30    8.40 
  -6   4   5    3.10    3.80 
   6   4   5    8.30    5.20 
  -6  -4   5    7.60    3.40 
  -6   4  -5    2.80    3.40 
   6  -4  -5    0.10    5.10 
  -6   5   5  418.06   20.30 
   6   5  -5  360.86   34.10 
   6  -5   5  432.96   25.10 
  -6  -5   5  412.66   18.30 
   6   5   5  443.36   26.40 
   6  -5  -5  404.46   25.70 
  -6   5  -5  426.36   19.10 
   6   6  -5   98.29   32.20 
   6  -6   5   89.69   10.40 
   6   6   5   96.69   12.90 
  -6   6  -5   74.89    8.70 
   6  -6  -5  104.09   17.20 
  -6  -6   5   87.59    8.00 
   6   0   6 1053.09   37.10 
  -6   0   6 1064.19   40.20 
  -6   0  -6 1044.60   40.10 
   6   0  -6  997.50   34.60 
   6   0   6 1086.69   37.90 
   6   1  -6   66.39    6.00 
  -6   1   6   71.59    8.30 
   6  -1   6   76.49    7.90 
  -6  -1  -6   67.89    7.80 
  -6   1  -6   82.19    8.00 
   6  -1  -6   66.59    7.50 
   6   1   6   72.29    7.40 
   6   1   6   72.39    7.60 
  -6  -1   6   69.79   11.30 
   6  -2   6  510.65   23.80 
  -6  -2  -6  514.55   22.50 
  -6   2   6  520.85   23.10 
  -6  -2   6  525.45   18.40 
   6   2   6  525.95   24.60 
  -6  -2   6  544.55   42.60 
  -6   2  -6  536.75   21.00 
   6  -2  -6  536.25   23.50 
   6  -3   6  391.96   21.30 
  -6  -3  -6  414.96   19.90 
   6   3  -6  353.16   30.40 
  -6   3   6  409.16   19.70 
   6   3   6  407.36   22.80 
   6  -3  -6  421.96   22.00 
  -6  -3   6  423.36   16.50 
  -6   3  -6  424.46   18.20 
   6  -4   6   24.10    6.80 
  -6   4   6   25.10    6.10 
   6   4  -6   23.80   12.10 
  -6   4  -6   12.20    4.90 
   6   4   6   26.20    7.30 
   6  -4  -6   22.50    7.90 
  -6  -4   6   21.40    4.20 
   6  -5   6  236.88   17.10 
  -6   5   6  263.17   16.30 
   6   5  -6  208.08   25.60 
   6   5   6  232.08   18.80 
   6  -5  -6  239.78   19.90 
  -6   5  -6  232.98   14.20 
  -6  -5   6  258.47   13.40 
   6   0  -7  336.57   16.60 
  -6   0   7  364.76   21.40 
   6   0   7  366.06   19.00 
  -6   1   7   75.79    9.20 
   6  -1   7   65.59    8.00 
   6   1  -7   75.79    7.10 
   6  -1  -7   71.39    7.90 
   6   1   7   85.69    9.00 
  -6   1  -7   78.49   10.50 
   6   1   7   60.79    7.60 
  -6  -1   7   67.49   12.40 
   6  -2   7  123.49   11.00 
  -6   2   7  108.59   10.30 
  -6  -2  -7  117.59   10.60 
  -6   2  -7  115.49    9.20 
  -6  -2   7  103.09   23.70 
   6   2   7  125.69   11.50 
   6  -2  -7  100.09   10.30 
  -6   3   7  376.26   20.70 
  -6  -3  -7  410.16   20.90 
   6  -3   7  377.36   21.10 
  -6   3  -7  406.76   18.90 
   6   3   7  438.86   24.80 
  -6  -3   7  446.46   17.00 
   6  -3  -7  406.26   22.30 
   6   4  -7   54.89   16.20 
  -6   4   7   46.60    7.50 
   6  -4   7   52.49    8.30 
  -6  -4   7   52.19    5.50 
   6  -4  -7   48.00   10.60 
   6   4   7   45.70   10.00 
  -6   4  -7   45.90    7.40 
   6   5  -7  298.47   29.00 
   6  -5   7  360.86   20.90 
  -6   5   7  321.47   19.60 
   6   5   7  345.57   24.10 
   6  -5  -7  354.06   24.20 
  -6   5  -7  349.57   18.70 
  -6  -5   7  365.36   17.20 
   6   0   8  631.84   28.60 
  -6   0   8  672.53   33.70 
   6   0  -8  666.53   26.70 
   6  -1   8  209.08   14.90 
  -6  -1  -8  219.48   15.30 
   6   1  -8  230.18   13.10 
  -6   1   8  217.48   16.80 
   6  -1  -8  260.07   16.30 
   6   1   8  275.07   19.00 
  -6  -1   8  242.08   22.90 
  -6   2   8  417.16   23.10 
   6  -2   8  435.76   22.90 
  -6  -2  -8  438.76   22.80 
   6  -2  -8  451.55   23.30 
  -6  -2   8  471.55   41.70 
   6   2   8  454.15   25.90 
  -6   3   8 1075.59   43.00 
  -6  -3  -8 1149.78   43.20 
   6  -3   8 1115.59   43.20 
  -6   3  -8 1173.78   40.30 
   6   3   8 1113.69   47.70 
  -6  -3   8 1224.68   65.99 
   6  -3  -8 1162.98   45.50 
  -6  -4  -8   38.80    6.70 
   6   4  -8   17.60   11.70 
   6  -4   8    5.70    4.40 
  -6   4   8    7.20    5.60 
   6  -4  -8   13.20    6.80 
  -6   4  -8   10.90    5.10 
   6   4   8   22.70    7.50 
  -6   0   9  430.26   28.60 
   6   0  -9  462.55   22.10 
   6   0   9  422.16   23.10 
   6  -1   9   52.39    8.60 
  -6  -1  -9   48.10    9.80 
  -6   1   9   49.50   10.60 
  -6  -1   9   61.69   14.20 
   6  -1  -9   40.90    8.60 
   6  -2   9  314.87   19.70 
  -6  -2  -9  310.77   19.90 
  -6   2   9  294.47   20.70 
  -6  -2   9  353.16   37.40 
   6   2   9  337.27   23.40 
   6  -2  -9  280.37   18.90 
   6  -3   9  296.67   19.10 
  -6   3   9  259.47   19.20 
  -6  -3  -9  297.47   19.40 
   6  -3  -9  300.57   20.90 
  -6  -3   9  339.37   33.00 
   6   3   9  331.57   23.60 
  -6   0  10  478.35   31.70 
  -6   0 -10  434.96   25.50 
   6   0 -10  445.56   23.40 
  -6  -1 -10   26.10    7.60 
  -6   1  10    5.90    7.30 
   6  -1  10   28.70    7.40 
  -6  -1  10   31.90   13.20 
   6  -1 -10   22.80    7.20 
  -7   0   0    3.90    2.40 
   7   0   0    2.10    2.40 
   7   0   0    4.70    3.40 
   7  -1   0 5129.19  142.79 
  -7   1   0 5120.49  149.29 
  -7  -1   0 5246.98  145.69 
   7   1   0 4405.76  140.99 
   7   1   0 5145.29  141.29 
   7  -1   0 5284.47  136.19 
   7   2   0   75.19   11.00 
  -7   2   0   83.69    7.10 
   7  -2   0   78.29   10.30 
   7   2   0   80.09    4.00 
  -7  -2   0   83.19    6.40 
   7   3   0  584.14   38.00 
  -7  -3   0  646.44   22.80 
  -7   3   0  682.03   22.40 
   7  -3   0  688.83   34.00 
  -7  -4   0  352.66   15.40 
   7   4   0  405.96   37.40 
   7  -4   0  384.26   24.60 
  -7   4   0  370.66   15.40 
  -7  -5   0   57.19    6.20 
   7  -5   0   69.59   11.10 
  -7   5   0   61.79    6.40 
   7   5   0   31.00   14.90 
   7  -6   0  150.68   16.30 
  -7  -6   0  134.29   10.00 
  -7   6   0  157.68   10.40 
   7   6   0  155.78   21.70 
  -7  -7   0  644.84   26.60 
  -7   7   0  646.14   25.80 
   7   7   0  703.63   44.50 
   7  -7   0  642.44   36.60 
  -7   0  -1    8.10    2.90 
   7   0   1    4.60    3.50 
   7   0   1    3.50    4.60 
   7   0  -1    9.70    5.90 
  -7   0   1    3.70    2.50 
   7   1  -1  553.34   24.60 
   7  -1   1  530.35   24.40 
  -7  -1  -1  519.35   24.00 
  -7   1   1  508.85   22.90 
   7  -1   1  607.94   21.00 
  -7   1   1  497.85   22.00 
   7   1  -1  538.25   20.20 
   7  -1  -1  620.64   39.90 
   7   1   1  566.44   32.00 
   7   1   1  595.24   24.00 
  -7   1  -1  520.45   26.50 
  -7  -1   1  544.55   22.60 
   7   2  -1  584.34   28.20 
   7  -2   1  614.24   27.30 
  -7   2   1  625.34   20.60 
  -7  -2  -1  621.74   23.20 
  -7   2   1  589.34   24.20 
   7   2   1  627.14   38.50 
   7  -2  -1  626.64   44.30 
   7   2   1  592.14   19.10 
  -7  -2   1  596.94   21.20 
  -7   2  -1  587.24   21.50 
  -7  -3  -1  202.88   10.10 
   7  -3   1  211.28   15.60 
  -7   3   1  177.98    9.80 
   7   3  -1  220.28   18.90 
  -7  -3   1  181.48    9.70 
   7   3   1  195.68   21.60 
  -7   3  -1  186.58    9.80 
   7  -3  -1  205.98   27.90 
  -7  -4  -1  911.51   29.70 
  -7   4   1  935.71   29.70 
   7  -4   1  925.91   39.80 
   7   4  -1  821.22   49.10 
  -7  -4   1  967.00   31.90 
   7   4   1 1034.00   50.79 
   7  -4  -1  962.00   56.39 
  -7   4  -1  960.50   31.50 
  -7  -5  -1    2.60    2.70 
  -7   5   1    2.40    3.20 
   7   5  -1  -18.80   10.50 
   7  -5   1    8.50    5.80 
   7   5   1    8.60    9.10 
  -7  -5   1    1.20    2.80 
   7  -5  -1    0.90    7.70 
  -7   5  -1   -0.60    2.90 
   7  -6   1  436.36   28.20 
  -7  -6  -1  408.76   19.00 
  -7   6   1  424.06   18.10 
   7   6  -1  437.16   39.70 
  -7  -6   1  407.86   18.80 
   7   6   1  457.15   32.90 
  -7   6  -1  437.96   18.90 
   7  -6  -1  343.87   26.20 
   7   7  -1   93.59   21.60 
  -7  -7  -1   76.59    8.30 
   7  -7   1   89.49   13.30 
  -7  -7   1   63.79    7.70 
  -7   7  -1   61.19    7.10 
   7   7   1   77.79   17.60 
   7  -7  -1   54.09   11.80 
   7   0   2   -0.30    1.70 
  -7   0   2   -4.90    4.30 
  -7   0   2   -2.70    4.70 
   7   0   2    5.10    4.00 
  -7   0  -2    2.90    2.90 
   7   0  -2   -0.70    3.00 
  -7  -1  -2 2343.47   68.09 
   7   1  -2 2383.76   76.99 
   7  -1   2 2020.50   80.39 
  -7   1   2 2330.47   65.09 
   7   1  -2 2323.07   73.49 
  -7   1   2 2313.77   67.19 
  -7   1  -2 2429.16   75.19 
  -7  -1   2 2442.96   70.09 
   7  -1  -2 2448.46   75.89 
   7   1   2 2472.35   76.39 
   7   1   2 2550.04   71.49 
  -7   2   2   36.90    9.50 
  -7   2   2   49.70    4.80 
   7  -2   2   45.00    9.70 
  -7  -2  -2   48.80    6.00 
   7   2  -2   47.20    9.60 
   7   2   2   47.70   10.00 
  -7   2  -2   31.40    4.80 
   7   2   2   39.40    3.70 
   7  -2  -2   45.90    7.90 
  -7  -2   2   32.40    3.70 
  -7  -3  -2  434.66   17.10 
  -7   3   2  427.06   17.90 
  -7   3   2  487.85   17.00 
   7   3  -2  401.96   25.90 
   7  -3   2  402.46   24.60 
  -7   3  -2  449.36   17.30 
   7  -3  -2  407.76   27.10 
  -7  -3   2  423.86   16.60 
   7   3   2  447.76   27.00 
   7  -4   2  110.99   13.30 
   7   4  -2  115.19   17.00 
  -7  -4  -2  121.49    7.80 
  -7   4   2  133.99    8.20 
  -7  -4   2  125.29    8.30 
   7   4   2  153.88   16.70 
   7  -4  -2  114.69   20.40 
  -7   4  -2  134.59    8.90 
   7  -5   2   77.09   13.00 
  -7   5   2   75.19    6.40 
   7   5  -2   86.09   21.80 
  -7  -5  -2   59.49    6.10 
   7   5   2   79.69   13.10 
  -7   5  -2   81.79    7.50 
   7  -5  -2  136.99   31.90 
  -7  -5   2   68.39    6.90 
   7  -6   2  103.69   16.50 
  -7  -6  -2  104.69    8.60 
   7   6  -2  120.79   29.60 
  -7   6  -2  112.19    9.20 
   7  -6  -2  146.49   21.50 
  -7  -6   2  102.59    8.70 
   7   6   2  115.99   16.30 
   7   0   3    3.00    1.80 
   7   0  -3    5.80    2.90 
  -7   0  -3    1.80    3.90 
  -7   0   3    2.90    2.40 
   7   0   3   18.30    4.90 
  -7   0   3    2.40    3.90 
   7   1  -3  376.26   15.00 
   7  -1   3  455.25   25.50 
  -7  -1  -3  383.76   17.10 
  -7   1   3  392.56   17.50 
  -7   1   3  360.46   15.50 
   7   1   3  404.06   16.80 
  -7  -1   3  370.96   14.50 
   7   1   3  387.76   17.50 
  -7  -1   3  351.96   29.30 
   7  -1  -3  373.16   17.30 
  -7   1  -3  386.46   18.90 
   7  -2   3  631.24   40.10 
  -7  -2  -3  585.14   24.00 
  -7   2   3  583.94   21.70 
  -7   2   3  530.55   21.00 
   7   2  -3  595.54   31.90 
   7  -2  -3  560.44   24.30 
   7   2   3  553.24   25.70 
   7   2   3  561.74   20.60 
  -7  -2   3  555.54   19.60 
  -7   2  -3  586.54   21.20 
   7   3  -3  234.38   19.50 
  -7  -3  -3  211.78   10.50 
  -7   3   3  197.68   10.80 
   7  -3   3  169.48   22.60 
  -7   3   3  211.98   15.10 
  -7  -3   3  198.18   10.00 
  -7   3  -3  195.98   10.80 
   7   3   3  224.58   16.40 
   7  -3  -3  200.28   15.40 
   7   4  -3  865.31   43.90 
  -7  -4  -3  818.62   27.50 
   7  -4   3  839.42   52.59 
   7  -4  -3  886.01   42.30 
  -7   4  -3  841.92   29.40 
  -7  -4   3  822.42   28.80 
   7   4   3  923.01   40.60 
  -7  -5  -3    1.50    2.90 
   7  -5   3    0.70   10.30 
   7   5  -3    9.50   10.20 
  -7   5  -3    1.90    3.50 
   7  -5  -3    1.10   10.60 
  -7  -5   3    4.80    3.60 
   7   5   3    6.80    5.90 
  -7  -6  -3  358.76   17.00 
   7  -6   3  425.46   42.30 
   7   6  -3  322.47   43.20 
  -7   6  -3  318.87   16.90 
   7  -6  -3  398.26   45.50 
  -7  -6   3  341.27   17.30 
   7   6   3  346.07   26.60 
  -7   0   4    6.30    4.30 
   7   0   4    0.90    1.90 
   7   0   4    1.50    2.00 
  -7   0   4   -1.20    1.40 
  -7   0  -4   -0.10    4.00 
   7   0  -4   -0.70    2.20 
  -7  -1  -4 3276.77   94.99 
   7  -1   4 3382.26  101.99 
  -7   1   4 3345.07   96.99 
   7   1  -4 3416.66   92.29 
  -7   1   4 3418.86   95.19 
  -7  -1   4 3362.66   90.79 
  -7  -1   4 3253.97  114.09 
   7   1   4 3377.36   96.29 
   7   1   4 3369.36   95.19 
   7  -1  -4 3411.96   95.39 
  -7   1  -4 3308.67   97.79 
   7  -2   4   74.29   10.90 
  -7   2   4   87.29    7.50 
  -7  -2  -4   93.39    8.40 
   7   2   4   89.19    7.00 
  -7  -2   4   87.09    5.90 
  -7   2  -4   73.29    6.70 
   7  -2  -4   83.59    8.80 
   7   2   4   85.39    8.90 
  -7  -3  -4  739.13   26.60 
   7   3  -4  714.23   37.60 
  -7  -3  -4  770.52   25.40 
  -7   3   4  703.03   27.10 
   7  -3   4  776.22   41.20 
  -7   3  -4  731.13   26.20 
   7   3   4  748.33   33.10 
   7  -3  -4  734.73   31.60 
  -7  -3   4  760.02   25.40 
   7  -4   4  324.67   28.60 
  -7  -4  -4  283.67   12.60 
  -7   4   4  289.47   14.80 
   7   4  -4  268.37   22.60 
   7  -4  -4  295.27   20.60 
  -7  -4   4  292.77   13.80 
  -7   4  -4  278.57   14.20 
   7   4   4  283.77   20.30 
   7  -5   4   26.10   12.00 
   7   5  -4   14.80   12.40 
  -7  -5   4   25.90    5.30 
   7   5   4   31.00   10.10 
   7  -5  -4   24.70   10.30 
  -7   5  -4   24.00    5.80 
   7  -6   4  162.38   19.10 
   7   6  -4  148.19   31.10 
  -7   6  -4  138.29   10.90 
   7   6   4  160.68   18.00 
  -7  -6   4  132.59   10.40 
   7  -6  -4  139.79   23.60 
   7   0   5    4.70    3.30 
   7   0  -5    4.20    2.90 
  -7   0  -5    4.50    4.00 
   7   0   5    2.20    2.50 
  -7   0   5    2.10    3.90 
  -7   0   5    4.90    1.70 
  -7  -1  -5  389.66   17.50 
   7  -1   5  388.86   20.40 
  -7   1   5  355.96   18.70 
   7   1  -5  375.06   15.50 
   7   1   5  350.06   17.40 
   7   1   5  373.06   18.40 
  -7   1  -5  339.97   19.40 
  -7  -1   5  352.46   26.30 
   7  -1  -5  379.46   17.50 
  -7  -1   5  363.86   13.50 
  -7   2   5  395.26   19.10 
  -7  -2  -5  419.86   19.50 
   7  -2   5  426.66   23.70 
  -7   2  -5  426.76   18.20 
   7   2   5  421.36   19.00 
   7   2   5  420.36   21.40 
  -7  -2   5  410.06   34.00 
   7  -2  -5  414.26   20.40 
  -7  -2   5  397.76   15.40 
  -7   3   5  119.89    9.50 
   7   3  -5  162.38   18.70 
   7  -3   5  120.59   13.20 
  -7  -3  -5  140.69   10.20 
  -7  -3  -5  122.39    7.70 
  -7   3  -5  134.19    9.50 
   7   3   5  147.69   13.70 
  -7  -3   5  123.09    8.00 
   7  -3  -5  137.99   12.50 
  -7   4   5  746.73   29.50 
   7  -4   5  748.03   38.80 
   7   4  -5  811.22   42.60 
  -7  -4   5  768.22   27.30 
   7   4   5  761.42   36.60 
  -7   4  -5  771.02   28.10 
   7  -4  -5  758.82   35.10 
   7  -5   5   13.80    7.40 
   7   5  -5    7.40   10.20 
   7   5   5    2.00    6.40 
  -7   5  -5    4.20    4.00 
  -7  -5   5    6.30    3.70 
   7  -5  -5    5.10    6.40 
   7  -6   5  426.56   27.60 
   7   6  -5  302.87   34.70 
  -7   6  -5  411.36   20.30 
   7   6   5  412.26   29.30 
  -7  -6   5  381.36   18.90 
   7  -6  -5  391.36   34.20 
   7   0  -6    1.00    3.00 
  -7   0  -6    2.60    3.70 
   7   0   6   -1.90    2.90 
  -7   0   6    0.00    4.30 
   7   1  -6 1160.38   37.20 
  -7   1   6 1122.69   42.40 
  -7  -1  -6 1165.18   39.40 
   7  -1   6 1189.78   42.90 
  -7  -1   6 1142.29   52.09 
   7  -1  -6 1174.58   39.30 
   7   1   6 1157.28   40.70 
   7   1   6 1110.29   42.40 
  -7   1  -6 1092.79   44.30 
  -7   2   6   14.60    5.20 
  -7  -2  -6   13.70    5.20 
   7  -2   6   18.90    6.20 
  -7   2  -6   29.50    6.20 
  -7  -2   6   21.50    3.70 
   7  -2  -6   19.10    5.70 
   7   2   6   23.20    6.10 
  -7  -2   6   13.40   13.10 
   7  -3   6  423.36   24.00 
  -7  -3  -6  420.26   20.60 
  -7   3   6  392.46   20.10 
   7   3  -6  395.16   32.70 
   7   3   6  393.76   23.00 
  -7   3  -6  401.46   18.30 
   7  -3  -6  373.56   21.70 
  -7  -3   6  414.16   16.60 
   7   4  -6  103.19   17.10 
   7  -4   6  117.79   13.20 
  -7   4   6   90.59    9.50 
  -7   4  -6   90.59    8.90 
  -7  -4   6  104.89    8.20 
   7  -4  -6   79.49   11.10 
   7   4   6  103.09   12.70 
   7  -5   6   28.60    8.40 
   7   5  -6   18.60   12.00 
   7   5   6   19.40    8.20 
   7  -5  -6   22.30    8.30 
  -7  -5   6   21.30    5.00 
  -7   5  -6   22.00    5.90 
  -7   0   7    0.00    5.30 
   7   0  -7    0.20    3.50 
   7   0   7    2.60    3.30 
   7  -1   7  201.28   14.60 
  -7   1   7  214.68   15.70 
   7   1  -7  177.08   11.30 
   7  -1  -7  207.08   13.70 
   7   1   7  241.78   16.60 
   7   1   7  221.18   15.00 
  -7  -1   7  216.08   21.00 
  -7   1  -7  191.38   19.20 
   7  -2   7  301.67   19.50 
  -7   2   7  299.27   18.80 
  -7  -2  -7  320.17   18.20 
   7   2   7  332.27   21.50 
  -7   2  -7  316.97   17.50 
  -7  -2   7  343.47   37.30 
   7  -2  -7  299.37   18.20 
   7   3  -7  117.19   19.80 
  -7   3   7  107.19   10.80 
  -7  -3  -7  123.49   11.90 
   7  -3   7  118.89   12.10 
  -7   3  -7  132.99   10.80 
   7   3   7  126.49   13.90 
   7  -3  -7  100.29   11.40 
   7  -4   7  514.55   28.00 
  -7   4   7  525.65   25.60 
   7   4  -7  544.15   36.70 
   7  -4  -7  549.95   30.00 
  -7  -4   7  554.54   22.10 
   7   4   7  561.74   32.10 
  -7   4  -7  552.04   24.20 
   7  -5   7    4.80    4.50 
  -7   5   7    2.50    4.60 
   7   5  -7   -5.00    8.70 
   7   5   7    2.60    6.10 
  -7   5  -7   -2.30    4.40 
   7  -5  -7    3.00    5.90 
  -7  -5   7    2.40    3.10 
   7   0   8    4.10    4.10 
   7   0  -8    2.30    3.90 
  -7   0   8   -2.40    5.20 
   7  -1   8 1526.45   55.29 
  -7   1   8 1571.44   58.19 
   7  -1  -8 1478.85   50.49 
  -7  -1   8 1431.16   65.49 
  -7   2   8   45.70    9.50 
  -7  -2  -8   61.49    9.40 
   7  -2   8   63.39    9.10 
   7   2   8   72.09   11.00 
  -7  -2   8   56.89   22.40 
   7  -2  -8   54.09    9.00 
   7  -3   8  486.65   26.40 
  -7   3   8  454.95   25.10 
  -7  -3  -8  500.85   25.80 
   7   3   8  498.55   30.20 
   7  -3  -8  494.35   26.30 
  -7   3  -8  476.15   23.20 
  -7   4   8  124.79   12.50 
   7  -4   8  138.39   13.40 
   7   4  -8  157.18   21.10 
   7   4   8  152.08   16.70 
  -7   4  -8  158.28   12.70 
   7  -4  -8  156.18   15.90 
  -7   0   9    4.80    6.90 
   7   0  -9    3.80    4.50 
   7   0   9    0.80    4.30 
   7  -1   9  153.88   14.10 
  -7   1   9  169.78   16.60 
  -7  -1  -9  181.88   15.70 
  -7  -1   9  203.18   24.00 
   7  -1  -9  181.98   14.60 
  -7  -2  -9  307.27   20.60 
  -7   2   9  320.37   22.00 
   7  -2   9  296.77   20.10 
  -7  -2   9  359.56   41.10 
   7  -2  -9  296.67   19.50 
  -7   3   9   84.19   11.50 
   7  -3   9   75.79    9.90 
  -7  -3  -9  102.89   12.10 
   7   3   9   86.09   12.40 
   7  -3  -9   76.59   11.20 
  -7   0 -10   -1.30    5.10 
   7   0 -10    0.50    4.70 
  -7   0  10   -2.10    7.30 
   8   0   0  781.22   28.60 
  -8   0   0  744.53   25.70 
   8   0   0  733.23   26.90 
  -8  -1   0    4.70    4.20 
   8   1   0    2.40    2.30 
   8   1   0    2.40    3.80 
   8  -1   0    1.00    2.40 
  -8   1   0    8.00    5.70 
   8  -1   0    2.30    2.70 
   8  -2   0  201.08   14.90 
   8   2   0  189.28   14.90 
  -8   2   0  168.78   12.80 
  -8  -2   0  193.88   11.70 
   8  -3   0  615.64   30.40 
  -8  -3   0  567.54   21.80 
   8   3   0  552.24   31.50 
  -8   3   0  585.94   22.20 
   8  -4   0   21.10    8.30 
  -8  -4   0   21.40    4.20 
   8   4   0   14.90   11.60 
  -8   4   0   22.20    4.60 
   8  -5   0  398.86   26.20 
  -8   5   0  431.86   18.30 
  -8  -5   0  396.36   18.20 
   8   5   0  431.96   43.20 
  -8   6   0   57.19    7.20 
  -8  -6   0   46.90    6.50 
   8  -6   0   70.09   11.20 
   8   6   0   31.30   20.30 
   8   0  -1 1652.53   55.09 
   8   0   1 1645.24   55.59 
   8   0   1 1626.44   51.69 
  -8   0  -1 1602.64   49.80 
   8   0  -1 1730.93   54.79 
  -8   0   1 1644.14   49.40 
  -8  -1  -1    5.20    3.20 
  -8   1   1   28.30    8.30 
   8  -1   1   20.90    5.20 
  -8   1   1   23.00    5.00 
   8   1  -1   19.10    3.30 
   8   1  -1   19.90    5.80 
   8   1   1   23.60    6.60 
   8  -1  -1    7.50    6.30 
  -8  -1   1   21.90    6.90 
  -8   1  -1   13.50    9.00 
   8   1   1   16.40    6.60 
   8  -2   1  961.50   37.50 
  -8   2   1  888.71   39.30 
  -8  -2  -1  943.31   35.20 
   8   2  -1  996.70   38.50 
  -8   2   1  904.61   31.30 
  -8  -2   1  878.41   29.40 
  -8   2  -1  863.71   30.30 
   8   2   1  736.33   36.80 
   8  -2  -1  874.91   48.00 
   8  -3   1   88.89   10.40 
  -8  -3  -1   92.09    7.60 
  -8   3   1   94.49    8.00 
   8   3  -1   87.89   11.90 
  -8   3  -1   90.29    7.50 
   8   3   1   93.59   17.00 
  -8  -3   1   86.89    6.90 
   8  -3  -1   95.89   17.10 
  -8  -4  -1   58.69    6.00 
   8  -4   1   37.80    9.00 
   8   4  -1   41.80   12.30 
  -8   4   1   41.70    5.60 
  -8  -4   1   43.90    5.30 
   8   4   1   47.60   19.90 
   8  -4  -1   44.50   13.40 
  -8   4  -1   43.20    5.80 
   8  -5   1  122.29   13.90 
  -8   5   1  131.09    8.90 
   8   5  -1   81.59   18.40 
  -8  -5  -1  133.79    9.30 
  -8  -5   1  128.09    9.70 
   8   5   1  137.39   28.70 
   8  -5  -1  139.39   17.60 
  -8   5  -1  140.29   10.00 
  -8   6   1  196.58   11.90 
   8  -6   1  198.88   17.60 
   8   6  -1  221.08   34.30 
  -8  -6  -1  176.48   11.80 
   8   6   1  248.78   30.60 
   8  -6  -1  224.18   20.90 
  -8  -6   1  192.68   13.20 
  -8   6  -1  230.98   13.60 
  -8   0   2 1451.35   48.10 
  -8   0  -2 1467.05   47.10 
   8   0   2 1567.04   64.59 
   8   0   2 1557.34   49.99 
  -8   0   2 1495.25   61.89 
   8   0  -2 1553.64   58.19 
  -8  -1  -2  217.78   12.00 
   8   1  -2  216.08   16.80 
   8  -1   2  205.08   16.40 
  -8   1   2  201.48   10.50 
   8   1  -2  231.58   16.10 
  -8   1   2  219.18   14.00 
   8  -1  -2  233.08   17.60 
   8   1   2  251.27   19.80 
  -8   1  -2  213.58   18.80 
   8   1   2  239.38   14.50 
  -8  -1   2  206.78   12.90 
   8  -2   2  885.21   38.40 
  -8  -2  -2  990.60   37.80 
  -8   2   2  938.41   31.60 
   8   2  -2  941.21   37.80 
  -8   2   2  899.11   37.20 
  -8   2  -2  989.60   33.90 
   8  -2  -2  945.61   44.40 
   8   2   2  988.60   31.90 
  -8  -2   2  959.50   32.20 
   8   2   2 1045.30   51.49 
   8   3  -2 2403.16   79.39 
  -8  -3  -2 2261.37   67.89 
  -8   3   2 2271.87   72.59 
   8  -3   2 2371.36   78.29 
  -8  -3   2 2182.58   64.99 
   8   3   2 2320.37   91.09 
  -8   3  -2 2273.57   65.69 
   8  -3  -2 2272.17   91.19 
  -8  -4  -2  145.29    9.50 
  -8   4   2  143.99   10.00 
   8   4  -2  141.59   16.90 
   8  -4   2  149.79   14.80 
  -8   4  -2  124.59    9.10 
  -8  -4   2  123.29    8.70 
   8  -4  -2  169.58   34.70 
   8   4   2  186.98   23.40 
  -8   5   2 1730.23   51.69 
  -8  -5  -2 1635.24   50.99 
   8  -5   2 1698.43   64.69 
   8   5  -2 1586.14   72.69 
  -8  -5   2 1773.12   55.89 
   8   5   2 1833.02   81.09 
  -8   5  -2 1789.52   55.59 
   8  -5  -2 1902.21   91.39 
  -8  -6  -2  103.99    8.90 
   8  -6   2  128.69   15.50 
   8   6  -2   76.49   22.10 
   8   6   2  127.89   21.40 
  -8  -6   2  107.49    9.60 
  -8   6  -2  123.59    9.90 
   8  -6  -2  107.39   17.20 
  -8   0   3 1951.00   72.59 
  -8   0  -3 2080.69   62.79 
   8   0   3 2059.99   61.19 
  -8   0   3 2018.90   65.19 
   8   0  -3 2045.60   62.79 
   8   0   3 2210.28   71.49 
   8  -1   3   16.60    9.60 
   8   1  -3   24.70    5.20 
  -8   1   3   23.00    4.00 
  -8   1   3   16.10    4.90 
  -8  -1  -3   16.00    4.30 
  -8   1  -3   28.40    8.50 
  -8  -1   3   17.70    3.70 
  -8  -1   3   19.10    8.10 
   8   1   3   20.70    5.90 
   8  -1  -3   25.20    5.60 
   8   1   3   14.40    4.00 
  -8  -2  -3  826.42   35.30 
   8  -2   3  728.23   40.90 
   8   2  -3  791.22   36.30 
  -8   2   3  760.62   26.40 
  -8   2   3  778.92   28.20 
   8  -2  -3  779.52   33.10 
   8   2   3  817.62   28.20 
   8   2   3  779.22   36.80 
  -8  -2   3  785.42   26.80 
  -8   2  -3  791.62   29.00 
  -8   3   3  188.78   16.40 
   8   3  -3  169.98   16.20 
   8  -3   3  154.68   16.60 
  -8   3   3  172.58   10.30 
  -8  -3  -3  160.88   10.40 
  -8   3  -3  151.18    9.80 
   8   3   3  171.18   18.30 
  -8  -3   3  160.38    9.50 
   8  -3  -3  173.38   16.70 
  -8  -4  -3   33.60    4.70 
   8   4  -3   37.80   11.00 
   8  -4   3   27.30    9.60 
   8  -4  -3   27.30   11.40 
  -8   4  -3   31.40    5.90 
  -8  -4   3   25.60    5.00 
   8   4   3   35.90   12.50 
  -8  -5  -3  125.59    8.70 
   8  -5   3  109.19   16.00 
   8   5  -3  109.19   18.10 
   8  -5  -3  122.89   28.90 
  -8   5  -3  129.09   10.00 
   8   5   3  140.29   19.10 
  -8  -5   3  124.69    9.70 
   8  -6   3  198.28   22.30 
  -8  -6  -3  180.08   11.40 
   8   6  -3  141.39   24.50 
   8  -6  -3  182.78   28.80 
  -8   6  -3  176.18   12.10 
   8   6   3  233.38   25.30 
  -8  -6   3  182.58   12.50 
  -8   0   4  509.55   28.10 
  -8   0   4  571.94   21.20 
   8   0  -4  589.84   22.70 
   8   0   4  597.84   27.60 
  -8   0  -4  580.44   24.30 
   8  -1   4   47.30   10.70 
  -8   1   4   65.39    9.30 
  -8  -1  -4   59.29    6.10 
   8   1  -4   53.89    5.30 
  -8   1   4   53.39    7.40 
  -8  -1   4   53.49    5.00 
   8  -1  -4   56.59    6.70 
   8   1   4   46.20    6.10 
   8   1   4   52.59    6.80 
  -8   1  -4   43.10   10.30 
  -8  -1   4   56.89   17.00 
   8   2  -4  187.38   20.60 
  -8   2   4  183.88   12.00 
   8  -2   4  184.78   22.40 
  -8  -2  -4  169.18   16.00 
  -8  -2   4  165.38    9.10 
   8  -2  -4  155.58   12.20 
   8   2   4  179.58   11.20 
   8   2   4  158.68   13.90 
  -8   2  -4  161.58   11.40 
  -8   3   4  506.65   22.00 
  -8  -3  -4  528.95   21.50 
   8   3  -4  558.84   31.80 
   8  -3   4  682.83   49.99 
  -8  -3   4  516.95   19.90 
   8  -3  -4  503.15   26.60 
   8   3   4  572.04   30.90 
  -8   3  -4  516.95   21.40 
  -8  -4  -4    8.00    3.40 
   8   4  -4    7.40    8.20 
   8  -4   4   -6.20    9.60 
  -8  -4   4    9.40    3.80 
  -8   4  -4    8.60    4.10 
   8  -4  -4    5.40    6.10 
   8   4   4    3.00    5.90 
   8  -5   4  370.06   41.70 
   8   5  -4  342.57   28.10 
  -8   5  -4  328.47   17.00 
   8   5   4  336.97   28.30 
   8  -5  -4  387.36   32.00 
  -8  -5   4  314.27   16.40 
   8  -6   4   58.79   19.50 
   8   6  -4   46.30   17.30 
   8   6   4   68.29   15.80 
   8  -6  -4   77.19   24.80 
  -8   6  -4   49.40    7.40 
  -8  -6   4   57.19    7.20 
  -8   0   5 1006.80   31.10 
  -8   0   5 1010.90   43.10 
   8   0   5 1055.29   39.50 
   8   0  -5  986.50   34.50 
  -8   0  -5  978.60   36.20 
   8   1  -5   20.60    4.10 
  -8   1   5   21.00    6.00 
  -8  -1  -5   17.40    4.70 
   8  -1   5   18.00    6.20 
  -8  -1   5   15.60    9.60 
   8  -1  -5   19.30    5.50 
   8   1   5   17.90    5.70 
  -8  -1   5   21.90    3.60 
   8   1   5   16.70    5.40 
  -8   1  -5   15.90    8.50 
  -8   2   5  603.84   26.30 
  -8  -2  -5  659.33   31.80 
   8  -2   5  614.24   34.30 
   8  -2  -5  630.54   27.80 
   8   2   5  625.54   30.40 
  -8  -2   5  580.04   38.20 
  -8  -2   5  626.54   21.90 
  -8   2  -5  613.64   25.80 
   8   2   5  607.44   26.00 
  -8   3   5   52.29    7.10 
   8   3  -5   62.39   14.20 
  -8  -3  -5   61.89    6.50 
   8  -3   5   65.59   15.70 
   8  -3  -5   58.29    9.40 
  -8   3  -5   51.89    7.00 
   8   3   5   59.49   12.10 
  -8  -3   5   58.79    6.00 
   8  -4   5   20.80   12.00 
  -8   4   5   24.70    5.60 
   8   4  -5   24.50   10.20 
  -8  -4   5   23.40    5.10 
   8  -4  -5   32.60    9.70 
   8   4   5   31.60   10.70 
  -8   4  -5   20.80    5.60 
   8  -5   5  103.19   20.60 
   8   5  -5   79.69   14.60 
   8   5   5   86.69   14.40 
  -8  -5   5   76.89    7.90 
  -8   5  -5   87.59    9.30 
   8  -5  -5   74.79   16.50 
  -8   0   6  991.80   43.40 
   8   0   6  992.80   39.30 
  -8   0  -6  971.70   35.20 
   8   0  -6  956.90   34.20 
  -8   1   6  338.87   19.80 
  -8  -1  -6  339.27   16.40 
   8  -1   6  311.47   20.40 
  -8  -1   6  361.66   30.70 
   8   1   6  353.56   20.00 
   8   1   6  355.86   21.30 
  -8   1  -6  352.06   26.90 
   8  -1  -6  323.77   17.70 
   8  -2   6  660.63   33.30 
  -8   2   6  618.94   28.30 
  -8   2  -6  648.94   28.10 
   8   2   6  709.03   34.00 
   8  -2  -6  661.23   29.30 
  -8  -2   6  633.04   45.60 
  -8  -2   6  676.93   23.20 
   8   2   6  647.74   29.00 
  -8  -3  -6 1455.05   51.29 
   8   3  -6 1454.65   65.79 
  -8   3   6 1503.65   51.29 
   8  -3   6 1548.05   61.79 
  -8   3  -6 1546.75   50.09 
   8   3   6 1498.25   59.69 
   8  -3  -6 1475.35   54.69 
  -8  -3   6 1508.15   46.50 
   8  -4   6   68.89   14.50 
  -8   4   6   60.99    7.90 
   8   4  -6   54.09   13.90 
   8   4   6   46.70   11.50 
   8  -4  -6   70.39   11.40 
  -8   4  -6   47.30    8.00 
  -8  -4   6   66.79    6.70 
   8   5  -6 1191.98   58.19 
   8  -5   6 1261.97   58.19 
   8   5   6 1313.27   60.89 
  -8   5  -6 1195.38   43.60 
   8  -5  -6 1295.97   57.09 
  -8  -5   6 1186.58   41.60 
   8   0   7 1243.88   47.10 
  -8   0   7 1171.18   51.69 
   8   0  -7 1232.48   42.00 
   8  -1   7   17.40    6.20 
  -8   1   7   20.10    6.70 
  -8   1  -7   21.50   11.80 
  -8  -1   7    9.60   10.00 
   8  -1  -7   12.60    5.40 
   8   1   7   19.20    6.30 
   8  -2   7  496.05   27.80 
  -8  -2  -7  499.35   25.70 
  -8   2   7  469.75   25.30 
  -8   2  -7  508.25   26.70 
   8  -2  -7  519.85   25.50 
   8   2   7  520.75   31.00 
  -8  -2   7  494.85   45.10 
   8  -3   7  153.48   15.80 
   8   3  -7  117.69   20.40 
  -8   3   7  142.89   12.80 
  -8  -3  -7  143.89   13.40 
   8  -3  -7  138.39   13.70 
  -8   3  -7  134.89   12.10 
   8   3   7  135.19   16.10 
   8  -4   7   56.09   11.90 
  -8   4   7   42.50    7.50 
   8   4  -7   56.79   14.90 
   8  -4  -7   52.49   11.70 
   8   4   7   56.89   12.80 
  -8   4  -7   54.09    9.00 
  -8  -4   7   61.99    6.30 
   8   0   8  297.17   20.40 
   8   0  -8  290.27   16.60 
  -8   0   8  264.27   22.70 
   8  -1   8   87.79   11.30 
  -8   1   8   90.49   12.10 
   8   1   8   95.39   11.50 
  -8  -1   8  109.49   22.70 
   8  -1  -8  107.69   11.00 
  -8  -2  -8  163.88   14.90 
   8  -2   8  127.39   14.40 
  -8   2   8  111.79   12.60 
  -8  -2   8  130.19   32.20 
   8  -2  -8  120.79   12.20 
  -8  -3  -8  354.66   22.30 
  -8   3   8  330.07   21.20 
   8  -3   8  303.37   22.30 
   8   3  -8  313.97   32.80 
   8  -3  -8  299.77   21.00 
  -8   3  -8  332.57   20.20 
   8   3   8  336.97   26.30 
   8   0  -9  474.55   23.30 
  -8   0   9  447.16   32.30 
   8   0   9  461.65   27.00 
  -8   1   9    6.90    7.80 
   8  -1   9   10.10    6.40 
  -8  -1  -9   20.70    7.40 
  -8  -1   9    5.90   11.90 
   8  -1  -9   12.10    5.90 
   8  -2   9  309.37   22.20 
  -8   2   9  311.87   22.70 
  -8  -2  -9  322.57   22.50 
   8  -2  -9  305.17   20.50 
  -8  -2   9  333.97   41.90 
   9   0   0   18.00    4.80 
  -9   0   0    7.00    3.00 
   9   0   0    1.80    2.70 
   9  -1   0   14.50    5.20 
   9   1   0   17.10    5.50 
  -9   1   0   10.80    4.70 
  -9  -1   0   12.30    4.40 
   9   1   0   14.20    4.20 
  -9   2   0 1328.17   53.69 
  -9  -2   0 1406.96   49.90 
   9   2   0 1400.96   49.20 
   9  -2   0 1388.96   49.90 
  -9  -3   0    9.90    3.90 
   9   3   0    7.70    6.50 
  -9   3   0    8.80    4.60 
   9  -3   0    2.30    4.90 
  -9  -4   0 2110.19   63.19 
   9   4   0 2076.69   78.99 
  -9   4   0 2129.89   63.59 
   9  -4   0 2050.79   72.89 
   9  -5   0   75.59   11.40 
  -9   5   0   57.49    7.30 
  -9  -5   0   59.09    6.90 
   9   5   0   70.89   18.60 
   9  -6   0  987.40   44.10 
  -9  -6   0  953.20   34.80 
  -9   6   0  963.70   34.40 
   9   6   0  754.02   56.59 
   9   0   1    4.90    3.50 
  -9   0  -1    1.20    2.60 
   9   0  -1    0.10    3.90 
  -9   0   1    0.70    2.20 
   9   0   1    5.00    3.00 
   9   0  -1    0.40    2.70 
   9  -1   1  832.42   32.20 
   9   1  -1  876.61   32.90 
  -9  -1  -1  746.93   29.50 
  -9   1   1  841.22   29.20 
   9   1  -1  882.31   28.90 
  -9   1  -1  818.12   36.40 
   9  -1  -1  790.82   31.80 
   9   1   1  857.11   32.30 
  -9  -1   1  896.31   36.10 
   9  -1  -1  897.71   37.90 
   9   1   1  730.93   35.90 
   9  -2   1  274.77   17.00 
  -9  -2  -1  274.07   20.50 
   9   2  -1  241.68   16.80 
  -9   2   1  295.87   22.90 
   9   2   1  261.57   18.40 
  -9   2  -1  278.17   18.30 
  -9  -2   1  291.87   16.60 
   9  -2  -1  291.97   22.90 
   9   3  -1  160.58   15.20 
   9  -3   1  207.68   15.70 
  -9   3   1  174.38   14.00 
  -9  -3  -1  170.08   11.80 
   9   3   1  141.69   16.00 
  -9   3  -1  144.39   10.70 
  -9  -3   1  135.29    9.90 
   9  -3  -1  153.28   17.90 
   9   4  -1  361.06   25.50 
  -9   4   1  392.16   18.60 
   9  -4   1  417.46   24.20 
  -9  -4  -1  366.86   17.70 
  -9   4  -1  359.26   17.00 
   9   4   1  327.97   27.60 
   9  -4  -1  379.56   27.50 
  -9  -4   1  338.47   16.30 
  -9  -5  -1   48.40    6.40 
   9   5  -1   36.90   13.10 
  -9   5   1   46.50    7.30 
   9  -5   1   58.19   11.70 
   9   5   1   42.20   16.90 
  -9  -5   1   36.30    6.80 
   9  -5  -1   53.19   12.30 
  -9   5  -1   45.80    6.50 
   9  -6   1  218.28   18.30 
   9   6  -1  169.98   25.50 
  -9  -6  -1  219.68   13.80 
  -9   6   1  241.28   13.80 
   9   6   1  234.48   34.70 
   9  -6  -1  227.38   20.00 
  -9  -6   1  223.48   14.10 
  -9   6  -1  211.98   13.90 
   9   0  -2    5.60    6.50 
   9   0   2    4.20    4.40 
  -9   0   2   -0.50    2.60 
   9   0   2    5.20    4.30 
  -9   0  -2    0.00    3.00 
   9   1  -2  842.22   35.00 
  -9   1   2  851.41   38.40 
   9  -1   2  804.62   35.10 
  -9   1   2  849.72   28.00 
  -9  -1  -2  830.12   29.80 
   9   1  -2  851.01   31.00 
   9   1   2  894.91   40.30 
  -9  -1   2  901.71   36.80 
   9   1   2  784.12   37.40 
  -9   1  -2  876.61   43.90 
   9  -1  -2  916.11   50.59 
  -9   2   2  639.24   26.00 
   9   2  -2  668.63   30.10 
  -9  -2  -2  713.33   37.70 
   9  -2   2  654.93   30.40 
  -9   2   2  634.24   26.40 
  -9   2  -2  685.33   29.00 
  -9  -2   2  650.53   25.40 
   9   2   2  606.84   34.60 
   9  -2  -2  634.74   43.90 
  -9   3   2  146.39   15.20 
   9  -3   2  117.59   12.40 
  -9  -3  -2  115.79   10.00 
   9   3  -2  127.19   14.20 
   9   3   2  136.89   18.90 
   9  -3  -2  110.99   26.70 
  -9  -3   2  104.49    8.50 
  -9   3  -2  117.79    9.40 
   9   4  -2 1128.89   49.20 
  -9   4   2 1133.39   41.70 
  -9  -4  -2 1142.49   38.40 
   9  -4   2 1121.09   46.80 
   9   4   2  985.70   61.59 
  -9  -4   2 1102.59   36.80 
   9  -4  -2 1137.49   66.39 
  -9   4  -2 1097.79   37.20 
  -9  -5  -2    2.30    3.30 
   9  -5   2    9.90    6.90 
   9   5  -2    1.30    8.80 
   9  -5  -2   -0.40    9.30 
   9   5   2    4.90   14.80 
  -9   5  -2    4.90    4.50 
  -9  -5   2    3.30    3.10 
   9  -6   2  407.76   26.70 
  -9  -6  -2  376.36   18.30 
   9   6  -2  338.17   31.50 
  -9   6  -2  415.76   20.20 
   9   6   2  504.25   50.19 
   9  -6  -2  394.66   30.50 
  -9  -6   2  388.76   20.40 
   9   0  -3    0.10    3.90 
  -9   0  -3    0.10    3.00 
   9   0   3    2.80    6.10 
  -9   0   3   -5.90    6.40 
  -9   0   3    2.90    4.40 
   9   1  -3  646.84   33.50 
  -9  -1  -3  627.14   23.70 
  -9   1   3  624.14   22.60 
   9  -1   3  556.94   33.20 
  -9   1   3  679.13   30.10 
  -9  -1   3  622.84   27.00 
   9  -1  -3  713.63   32.20 
   9   1   3  733.93   36.30 
   9   1   3  756.12   32.80 
  -9   1  -3  744.43   40.30 
  -9   2   3  202.28   13.10 
   9   2  -3  240.88   18.20 
   9  -2   3  209.68   18.00 
  -9  -2  -3  213.78   18.40 
  -9   2   3  179.08   10.20 
  -9   2  -3  218.08   15.40 
   9   2   3  258.17   25.70 
   9  -2  -3  209.98   17.60 
  -9  -2   3  200.18   11.70 
   9   2   3  218.98   13.20 
  -9  -3  -3  119.49   10.40 
   9  -3   3   96.39   12.30 
  -9   3   3  118.19   10.30 
   9   3  -3  124.59   14.20 
  -9  -3   3  114.19    8.40 
   9  -3  -3  105.09   15.40 
   9   3   3  152.88   23.50 
  -9   3  -3  103.29    9.50 
   9  -4   3  330.17   23.90 
  -9  -4  -3  355.86   16.90 
   9   4  -3  361.36   24.90 
  -9  -4   3  342.17   16.60 
   9  -4  -3  365.06   35.30 
  -9   4  -3  353.56   17.60 
   9   4   3  422.46   39.60 
   9  -5   3   38.30   10.70 
  -9  -5  -3   39.10    5.80 
   9   5  -3   57.19   14.10 
   9  -5  -3   47.80   23.10 
   9   5   3   44.70   18.30 
  -9   5  -3   39.90    7.40 
  -9  -5   3   40.00    7.00 
  -9  -6  -3  264.27   14.90 
   9  -6   3  293.07   24.20 
   9   6  -3  253.67   26.90 
   9  -6  -3  295.77   30.90 
  -9  -6   3  287.07   16.50 
  -9   6  -3  266.07   16.20 
   9   6   3  311.57   35.80 
   9   0   4    7.50    6.60 
  -9   0   4    0.00    6.00 
   9   0  -4    2.30    3.30 
  -9   0  -4    0.70    3.60 
  -9   0   4    5.50    2.90 
  -9   1   4   15.10    4.50 
  -9  -1  -4    7.20    3.60 
   9  -1   4   18.10   11.00 
  -9   1   4   13.60    6.10 
  -9  -1   4   16.20    3.90 
   9  -1  -4   15.50    5.30 
   9   1   4   15.80    5.90 
   9   1   4   12.80    5.30 
  -9   1  -4    3.10   10.00 
  -9  -1   4    7.90    8.20 
  -9  -2  -4  960.30   42.80 
   9   2  -4 1046.20   46.40 
  -9   2   4  948.01   35.50 
   9  -2   4  827.62   51.69 
   9  -2  -4 1004.90   40.80 
  -9  -2   4  972.70   33.20 
   9   2   4 1101.69   49.40 
   9   2   4 1013.10   38.00 
  -9   2  -4  945.61   38.40 
   9  -3   4    1.00    7.30 
   9   3  -4    1.90    6.60 
  -9  -3  -4    0.00    3.60 
  -9   3   4    8.40    4.60 
  -9  -3   4    1.10    2.90 
   9  -3  -4    5.90    6.50 
   9   3   4   -2.10    8.70 
  -9   3  -4   -4.00    3.00 
   9   4  -4 1632.64   64.29 
   9  -4   4 1512.25   69.09 
  -9  -4  -4 1662.23   50.99 
  -9   4  -4 1701.93   53.89 
   9  -4  -4 1601.44   70.29 
  -9  -4   4 1622.94   52.09 
   9   4   4 1818.42   82.29 
   9   5  -4   27.50   11.70 
   9  -5   4   20.60   10.90 
   9  -5  -4   31.10   17.60 
  -9   5  -4   26.90    6.90 
   9   5   4   31.40   16.20 
  -9  -5   4   27.00    6.00 
   9   0   5    3.10    5.30 
  -9   0   5    7.00    2.90 
  -9   0   5    5.40    7.60 
   9   0  -5    3.00    3.90 
  -9   0  -5   -2.40    3.20 
  -9  -1  -5  648.04   25.00 
  -9   1   5  654.43   30.50 
   9  -1   5  720.93   39.70 
   9  -1  -5  694.93   28.40 
   9   1   5  697.83   31.80 
  -9   1  -5  660.43   40.00 
  -9  -1   5  675.63   23.90 
  -9  -1   5  618.74   46.70 
   9  -2   5  204.78   24.20 
   9   2  -5  181.98   20.70 
  -9   2   5  192.88   14.00 
  -9  -2  -5  220.88   18.40 
  -9  -2   5  194.38   10.90 
   9   2   5  232.18   20.20 
  -9   2  -5  193.68   15.90 
   9  -2  -5  202.28   15.20 
   9   2   5  205.68   15.20 
   9  -3   5  170.28   28.80 
   9   3  -5  177.48   18.40 
  -9   3   5  146.89   11.70 
  -9  -3  -5  161.18   12.20 
   9  -3  -5  135.29   13.90 
   9   3   5  183.88   20.60 
  -9   3  -5  160.88   12.60 
  -9  -3   5  159.38   10.00 
   9  -4   5  325.27   39.20 
   9   4  -5  292.47   24.10 
   9   4   5  361.06   32.70 
  -9   4  -5  265.77   16.30 
  -9  -4   5  303.97   15.40 
   9  -4  -5  278.27   24.00 
   9  -5   5   62.19   20.60 
   9   5  -5   41.10   13.30 
   9  -5  -5   52.19   15.30 
  -9   5  -5   47.20    8.10 
   9   5   5   42.60   15.30 
  -9  -5   5   47.70    6.40 
  -9   0  -6    3.10    3.50 
   9   0  -6    0.50    3.50 
  -9   0   6   -2.10    6.00 
   9   0   6   -0.60    4.80 
   9  -1   6  472.95   29.50 
  -9   1   6  399.76   24.20 
  -9  -1  -6  417.16   19.00 
  -9   1  -6  401.46   32.00 
  -9  -1   6  388.86   35.20 
   9   1   6  415.46   24.30 
   9  -1  -6  448.96   22.10 
   9  -2   6  384.96   29.30 
  -9   2   6  306.87   19.50 
  -9  -2   6  370.36   16.10 
  -9  -2   6  374.76   31.70 
   9   2   6  385.56   22.70 
   9   2   6  370.06   27.30 
  -9   2  -6  370.36   23.80 
   9  -2  -6  375.46   21.90 
   9   3  -6  102.19   15.50 
   9  -3   6  125.99   19.80 
  -9   3   6  128.19   12.00 
   9   3   6  131.99   18.60 
   9  -3  -6  115.99   13.20 
  -9  -3   6  117.39    8.70 
  -9   3  -6  110.39   11.50 
   9  -4   6  757.52   51.39 
   9   4  -6  701.13   39.50 
   9   4   6  855.71   51.19 
  -9   4  -6  781.52   32.20 
  -9  -4   6  762.92   29.20 
   9  -4  -6  749.33   39.40 
  -9   5  -6    1.00    5.00 
  -9  -5   6    9.50    4.10 
   9   0   7   -2.60    4.90 
  -9   0  -7    5.60    4.00 
   9   0  -7    3.30    4.00 
  -9   0   7    0.70    7.00 
  -9   1   7  329.57   22.90 
   9  -1   7  362.96   25.40 
   9  -1  -7  390.86   21.30 
  -9   1  -7  404.16   27.30 
   9   1   7  395.26   24.70 
  -9  -1   7  365.66   35.20 
  -9  -2  -7  180.28   16.10 
  -9   2   7  152.38   14.50 
   9  -2   7  153.88   17.90 
   9  -2  -7  161.98   14.50 
  -9   2  -7  174.68   18.50 
  -9  -2   7  175.28   24.10 
   9   3  -7   68.19   17.90 
  -9   3   7   73.59    9.70 
   9  -3   7   85.59   14.90 
   9   3   7  114.99   17.70 
  -9   3  -7   75.59   10.50 
   9  -3  -7   58.19   10.30 
   9   4  -7  266.27   24.40 
   9  -4   7  300.07   27.10 
   9  -4  -7  287.07   23.40 
   9   4   7  332.87   31.70 
  -9   4  -7  315.87   19.80 
   9   0   8    7.30    7.00 
  -9   0   8    6.10    8.30 
  -9   1   8   18.20    7.80 
   9  -1   8   22.90    8.60 
   9  -1  -8   25.60    7.10 
   9   1   8   10.00    6.60 
  -9  -1   8   17.60   13.20 
   9  -2   8  520.75   32.70 
  -9  -2  -8  531.85   30.40 
  -9   2   8  481.85   28.20 
   9  -2  -8  500.65   26.80 
  -9  -2   8  525.35   43.80 
  -9   2  -8  506.55   36.20 
   9  -3   8    0.30    5.80 
   9   3  -8    7.40   12.20 
  -9   3   8    1.60    5.70 
   9  -3  -8    8.50    6.80 
  -9   3  -8    6.40    7.90 
  -9   0   9    4.00    9.30 
   9   0   9    8.50    6.40 
  -9  -1  -9  482.55   29.60 
  -9   1   9  443.86   29.90 
   9  -1   9  405.26   28.90 
  -9  -1   9  452.45   43.10 
   9  -1  -9  449.46   24.40 
 -10   0   0 3324.87   94.89 
  10   0   0 3394.66   96.99 
  10   0   0 3465.85   95.69 
 -10   1   0    9.20    4.10 
  10  -1   0    6.70    3.50 
 -10  -1   0   12.60    4.30 
  10   1   0    5.60    3.80 
  10   1   0   13.20    4.00 
 -10   2   0 2287.87   84.89 
 -10  -2   0 2398.06   84.59 
  10   2   0 2328.77   73.29 
  10  -2   0 2246.58   74.19 
 -10  -3   0  174.38   13.40 
  10  -3   0  159.18   14.50 
  10   3   0  164.98   15.30 
 -10   3   0  184.28   15.80 
 -10   4   0  210.28   14.20 
  10   4   0  192.88   18.40 
  10  -4   0  204.28   17.20 
 -10  -4   0  197.18   13.20 
  10  -5   0    7.60    6.20 
  10   5   0   -0.10    7.20 
 -10   5   0    5.30    4.80 
 -10  -5   0    6.90    4.10 
  10  -6   0  310.67   22.40 
 -10  -6   0  288.07   17.10 
  10   6   0  278.47   27.70 
 -10   6   0  298.97   17.30 
  10   0   1   39.10    6.00 
 -10   0  -1   41.00    5.40 
 -10   0   1   41.20    5.50 
  10   0  -1   43.90    6.00 
  10   0  -1   35.90    5.30 
 -10   1   1  188.58   10.80 
  10  -1   1  177.68   13.20 
 -10  -1  -1  189.48   11.60 
  10   1  -1  168.68   12.30 
 -10   1  -1  175.88   12.80 
  10  -1  -1  173.88   13.40 
  10   1   1  147.09   12.60 
  10   1   1  173.08   11.80 
 -10  -1   1  181.08   12.80 
 -10  -2  -1   67.59   12.10 
  10   2  -1   61.79    8.70 
 -10   2   1   59.29    9.00 
  10  -2   1   61.19    8.50 
 -10   2  -1   63.19   14.00 
 -10  -2   1   92.59   11.70 
  10  -2  -1   65.79   10.80 
  10   2   1   68.19    9.30 
 -10   3   1 1000.90   46.20 
 -10  -3  -1 1041.40   40.90 
  10  -3   1 1000.10   40.70 
  10   3  -1 1024.00   41.70 
  10   3   1  973.60   42.30 
 -10   3  -1 1052.99   39.90 
 -10  -3   1 1012.50   37.50 
  10  -3  -1  989.70   45.70 
 -10   4   1    1.70    5.70 
  10  -4   1    1.40    5.00 
 -10  -4  -1    8.10    4.10 
  10   4  -1    4.80    7.00 
 -10  -4   1    3.30    3.30 
 -10   4  -1    9.40    5.20 
  10  -4  -1    2.10    5.10 
  10   4   1   -0.50    7.00 
 -10  -5  -1  828.52   32.40 
 -10   5   1  855.81   34.00 
  10   5  -1  864.41   44.80 
  10  -5   1  858.41   39.10 
 -10   5  -1  865.01   33.10 
 -10  -5   1  830.72   32.40 
  10  -5  -1  797.22   41.90 
  10   5   1  860.11   48.60 
 -10  -6  -1    5.10    4.10 
  10   6  -1    3.70    8.00 
  10  -6   1   16.60    6.20 
 -10  -6   1   11.90    5.20 
  10   6   1   14.60   11.30 
 -10   6  -1    5.80    4.20 
  10  -6  -1    7.40    7.20 
  10   0  -2  666.03   31.40 
  10   0  -2  648.84   30.40 
 -10   0  -2  673.93   25.10 
  10   0   2  651.63   30.30 
 -10   0   2  674.93   24.60 
 -10   1   2   14.10    6.80 
 -10   1   2   17.20    4.20 
  10   1  -2   19.00    6.90 
  10  -1   2   15.90    5.70 
 -10  -1  -2   10.70    4.00 
  10   1   2   16.20    5.40 
  10   1   2   -0.20    5.70 
  10  -1  -2   22.30   10.60 
 -10   1  -2    8.40    5.70 
 -10  -1   2   16.70    7.30 
 -10  -2  -2  371.46   21.40 
  10  -2   2  356.16   21.50 
  10   2  -2  377.56   21.00 
 -10   2   2  369.76   17.00 
 -10  -2   2  385.36   20.90 
  10  -2  -2  405.56   34.20 
 -10   2  -2  418.16   26.80 
  10   2   2  362.06   22.40 
  10  -3   2  494.85   26.40 
 -10  -3  -2  518.35   27.40 
  10   3  -2  485.85   26.50 
 -10   3   2  496.75   28.80 
  10  -3  -2  450.25   38.20 
 -10  -3   2  460.05   21.00 
  10   3   2  428.26   28.00 
 -10   3  -2  473.35   22.50 
 -10   4   2   15.60    8.30 
  10   4  -2   13.30    8.10 
  10  -4   2    5.70    5.50 
 -10  -4  -2   11.20    4.50 
 -10   4  -2    9.50    5.30 
 -10  -4   2   10.80    4.60 
  10  -4  -2   -1.70    8.10 
  10   4   2    4.80    9.40 
  10  -5   2  235.98   19.10 
 -10  -5  -2  239.98   14.40 
  10   5  -2  235.98   22.10 
 -10   5  -2  227.68   15.10 
 -10  -5   2  238.08   14.90 
  10   5   2  236.98   25.80 
  10  -5  -2  225.68   23.50 
 -10  -6  -2  148.79   11.60 
  10  -6   2  157.98   16.70 
  10   6  -2  139.99   19.30 
  10  -6  -2  151.28   17.00 
 -10  -6   2  124.39   11.40 
  10   6   2  119.39   26.60 
 -10   6  -2  149.49   12.20 
 -10   0   3   45.30   11.60 
 -10   0  -3   51.29    6.40 
  10   0  -3   61.59   14.00 
  10   0   3   38.30   10.70 
 -10   0   3   54.29    7.10 
 -10   1   3  135.79    8.40 
 -10  -1  -3  122.19    9.20 
  10   1  -3  137.89   14.60 
 -10   1   3  122.69   14.90 
  10  -1   3  124.99   13.50 
  10   1   3  147.99   13.70 
 -10  -1   3  147.59   13.40 
  10   1   3  146.29   16.70 
  10  -1  -3  130.49   17.40 
 -10   1  -3  146.29   16.10 
  10  -2   3   31.70    8.70 
 -10   2   3   35.10    4.80 
 -10  -2  -3   15.40    6.10 
  10   2  -3   28.70    9.10 
  10  -2  -3   23.10   11.60 
  10   2   3   40.60   11.10 
 -10   2  -3   25.50    9.50 
 -10  -2   3   32.10    6.40 
  10  -3   3  824.22   38.40 
 -10  -3  -3  833.62   37.50 
  10   3  -3  827.52   37.60 
 -10   3   3  848.52   31.10 
 -10   3  -3  761.12   31.60 
  10  -3  -3  774.22   50.89 
  10   3   3  712.23   42.00 
 -10  -3   3  790.52   29.40 
  10   4  -3   65.89   13.40 
 -10  -4  -3   45.70    6.90 
  10  -4   3   56.69   11.60 
 -10   4  -3   52.39    7.90 
  10  -4  -3   43.20   20.60 
  10   4   3   50.09   15.80 
 -10  -4   3   53.39    7.00 
 -10  -5  -3  718.93   28.80 
  10  -5   3  693.53   37.10 
  10   5  -3  732.53   39.20 
 -10   5  -3  714.63   29.60 
  10   5   3  672.63   49.00 
  10  -5  -3  750.62   55.99 
 -10  -5   3  686.73   28.70 
 -10   0  -4 2921.71   86.89 
 -10   0   4 2982.30  112.59 
 -10   0   4 3131.49   96.49 
  10   0   4 3058.99  115.59 
  10   0  -4 3030.00   93.89 
 -10   1   4    8.00    3.70 
 -10   1   4   17.20    7.90 
  10  -1   4    2.70    7.70 
 -10  -1  -4    8.10    3.90 
 -10  -1   4   13.50    4.50 
 -10   1  -4    2.20    7.60 
  10  -1  -4   16.70    6.60 
  10   1   4   15.20    8.30 
 -10  -2  -4 1679.63   57.19 
  10   2  -4 1643.04   63.19 
  10  -2   4 1650.13   68.19 
 -10   2   4 1743.03   57.99 
 -10  -2   4 1718.23   55.39 
 -10   2  -4 1789.12   67.09 
  10  -2  -4 1795.92   67.09 
  10   2   4 1873.61   75.69 
 -10  -3  -4   97.89   12.40 
  10  -3   4   55.79   12.50 
  10   3  -4   73.59   12.30 
  10  -3  -4   54.69   13.90 
  10   3   4   78.89   19.20 
 -10   3  -4   69.89    9.60 
 -10  -3   4   64.29    7.40 
 -10  -4  -4  126.89   10.60 
  10   4  -4  137.09   16.40 
  10  -4   4  106.09   15.00 
 -10   4  -4  119.39   11.50 
 -10  -4   4  115.49    9.70 
  10  -4  -4  107.99   21.60 
  10   4   4  124.79   21.80 
  10   5  -4   17.70    9.90 
  10  -5   4   27.80    9.30 
  10  -5  -4   43.00   25.00 
 -10   5  -4   27.90    6.90 
  10   5   4   25.10   16.40 
 -10  -5   4   30.50    6.00 
 -10   0   5   10.60    9.30 
  10   0  -5    5.70    4.40 
 -10   0  -5    8.20    4.40 
  10   0   5    6.80    7.70 
  10  -1   5  180.18   26.30 
 -10  -1  -5  160.28   10.60 
 -10   1   5  179.98   16.60 
 -10  -1   5  184.08   11.10 
  10   1   5  194.38   19.00 
  10  -1  -5  179.48   14.60 
 -10   1  -5  178.58   18.20 
 -10  -1   5  161.88   21.30 
  10   2  -5   76.19   16.50 
  10  -2   5   56.79   16.20 
 -10  -2  -5   70.09    9.40 
 -10   2   5   77.89   10.30 
  10   2   5  100.49   16.90 
 -10  -2   5   69.29    7.00 
 -10   2  -5   82.99   16.10 
  10  -2  -5   74.69   11.10 
  10   2   5   75.09   11.60 
  10  -3   5  749.73   46.50 
 -10  -3  -5  816.02   36.60 
  10   3  -5  804.62   40.30 
 -10   3  -5  858.91   36.00 
  10   3   5  936.01   58.79 
 -10  -3   5  845.52   31.20 
  10  -3  -5  838.92   42.40 
  10   4  -5   10.70    9.00 
  10  -4   5   14.10   10.60 
  10   4   5   29.10   17.90 
  10  -4  -5    1.40    6.90 
 -10   4  -5    4.10    5.60 
 -10  -4   5    9.00    4.20 
  10  -5   5  644.24   42.90 
  10   5  -5  714.83   39.60 
  10   5   5  714.63   59.79 
 -10  -5   5  694.23   28.80 
 -10   5  -5  671.33   30.20 
  10  -5  -5  654.83   52.99 
  10   0   6  633.94   39.70 
 -10   0  -6  668.63   26.60 
  10   0  -6  670.53   28.60 
 -10   0   6  705.53   42.50 
  10  -1   6   16.50   11.10 
 -10  -1  -6   12.00    4.40 
 -10   1   6   15.00    7.90 
 -10  -1   6   18.60   14.80 
 -10   1  -6    6.00    6.40 
  10  -1  -6   21.80    7.10 
  10   1   6    8.80    7.00 
  10  -2   6  307.17   34.90 
 -10   2   6  264.97   19.40 
  10   2  -6  248.38   26.30 
  10   2   6  308.57   23.10 
  10  -2  -6  269.77   19.20 
 -10   2  -6  287.97   25.90 
  10   3  -6  185.68   20.50 
  10  -3   6  139.09   32.80 
 -10   3   6  186.48   15.00 
 -10   3  -6  180.28   16.60 
  10   3   6  197.58   27.30 
 -10  -3   6  188.28   11.90 
  10  -3  -6  211.88   18.60 
  10   4  -6    0.40    8.10 
  10  -4   6   -1.70   12.60 
  10  -4  -6    3.90    7.80 
 -10  -4   6    7.20    3.70 
 -10   4  -6   -2.50    5.00 
  10   4   6    3.90   12.30 
 -10   0  -7   77.99    8.10 
  10   0   7   89.09   14.80 
 -10   0   7   81.19   18.40 
 -10   1   7  102.49   14.40 
  10  -1   7  129.79   19.30 
 -10   1  -7  102.39   11.70 
 -10  -1   7  105.59   26.70 
  10  -1  -7   98.99   11.10 
  10   1   7  123.39   16.10 
 -10  -2  -7   30.50    9.80 
 -10   2   7   16.60    7.40 
  10  -2   7   16.30   11.40 
  10  -2  -7   18.00    7.80 
 -10   2  -7   33.60   13.70 
  10  -3   7  457.35   41.40 
 -10   3   7  492.65   27.10 
  10   3  -7  450.85   32.50 
  10  -3  -7  476.45   29.20 
 -10   3  -7  530.95   31.50 
  10   0   8 1999.10   81.99 
 -10   0   8 1946.31   86.79 
 -10   1   8   13.40    9.20 
  10  -1   8   17.30   10.40 
 -10  -1   8   11.50   16.90 
  10  -1  -8   14.50    6.50 
  10   1   8   17.60    8.80 
 -10  -2  -8 1110.39   51.69 
  10  -2   8 1086.39   59.29 
 -10   2   8  991.40   47.00 
 -10   2  -8 1032.40   57.89 
  10  -2  -8 1015.70   43.50 
  11   0   0    6.90    3.10 
 -11   0   0    2.70    2.80 
  11   1   0  500.95   22.50 
 -11  -1   0  502.35   21.50 
  11  -1   0  482.25   22.90 
 -11   1   0  522.15   21.30 
 -11   2   0  237.78   17.30 
  11  -2   0  240.68   16.10 
 -11  -2   0  217.38   16.60 
  11   2   0  252.17   15.90 
  11   3   0  103.39   12.00 
 -11   3   0   90.69   17.40 
 -11  -3   0  101.09   13.40 
  11  -3   0   98.39   11.60 
  11   4   0  317.87   22.50 
 -11   4   0  343.57   23.30 
  11  -4   0  313.47   21.30 
 -11  -4   0  329.87   19.90 
  11   5   0   13.90    8.70 
 -11  -5   0   18.60    6.10 
  11  -5   0   31.70    8.90 
 -11   5   0   26.20    7.40 
  11   0   1    4.10    3.00 
 -11   0  -1    0.70    3.00 
 -11   0   1    1.60    2.60 
  11   0  -1    0.10    2.90 
  11   0  -1    5.00    2.80 
 -11   1   1  708.93   26.10 
  11   1  -1  708.73   29.20 
 -11  -1  -1  727.83   26.90 
  11  -1   1  728.93   30.20 
  11   1   1  734.43   28.20 
 -11   1  -1  757.12   28.70 
 -11  -1   1  686.93   27.70 
  11  -1  -1  673.63   29.90 
 -11   2   1  220.88   13.90 
  11   2  -1  220.98   15.20 
  11  -2   1  220.78   15.10 
 -11  -2  -1  192.78   14.40 
  11  -2  -1  181.48   15.90 
 -11   2  -1  201.38   21.10 
  11   2   1  208.58   14.50 
 -11  -2   1  227.28   19.90 
 -11  -3  -1  182.08   18.70 
  11   3  -1  168.38   14.70 
 -11   3   1  150.28   19.20 
  11  -3   1  163.68   14.20 
 -11  -3   1  192.88   15.80 
 -11   3  -1  175.48   18.40 
  11   3   1  168.68   15.40 
  11  -3  -1  158.28   15.50 
  11   4  -1  413.06   25.60 
 -11  -4  -1  405.36   22.80 
  11  -4   1  383.76   23.60 
 -11   4   1  399.76   28.70 
  11   4   1  396.66   26.60 
 -11  -4   1  391.06   21.30 
 -11   4  -1  387.96   23.20 
  11  -4  -1  400.36   26.60 
  11   5  -1   25.50    9.80 
  11  -5   1   32.90    8.50 
 -11   5   1   27.10    8.10 
 -11  -5  -1   32.00    7.20 
 -11   5  -1   31.00    7.90 
  11   5   1   14.10    9.10 
 -11  -5   1   25.20    6.50 
  11  -5  -1   29.40    9.50 
  11   0  -2    1.70    3.50 
  11   0   2    9.60    4.80 
 -11   0  -2   -1.90    2.90 
  11   0  -2    4.80    4.70 
 -11   0   2   -0.20    2.70 
  11   1  -2 2065.89   68.89 
 -11  -1  -2 2230.48   65.29 
  11  -1   2 2228.28   70.89 
 -11   1   2 2146.49   63.29 
 -11   1  -2 2248.28   67.89 
  11  -1  -2 2085.09   74.99 
  11   1   2 1884.31   70.69 
 -11  -1   2 2142.29   67.39 
  11  -2   2  397.46   22.10 
 -11   2   2  399.66   17.60 
  11   2  -2  419.26   22.60 
 -11  -2  -2  394.96   21.20 
  11   2   2  411.26   22.30 
  11  -2  -2  373.36   28.30 
 -11  -2   2  441.66   27.40 
 -11   2  -2  417.76   32.50 
 -11  -3  -2  755.82   42.70 
  11   3  -2  751.32   34.00 
 -11   3   2  710.13   31.10 
  11  -3   2  736.43   33.80 
  11  -3  -2  693.83   41.30 
 -11  -3   2  706.63   31.30 
  11   3   2  682.83   33.40 
 -11   3  -2  726.63   36.00 
 -11   4   2  415.96   30.60 
 -11  -4  -2  413.36   23.20 
  11  -4   2  372.96   23.70 
  11   4  -2  401.96   25.20 
  11   4   2  410.46   27.70 
 -11  -4   2  407.46   21.30 
  11  -4  -2  362.06   28.90 
 -11   4  -2  368.96   21.60 
 -11  -5  -2    5.90    4.60 
  11   5  -2    5.10    7.60 
  11  -5   2   15.10    6.80 
  11  -5  -2    3.90    7.00 
  11   5   2  -10.80    5.70 
 -11  -5   2    4.00    4.30 
 -11   5  -2    3.90    5.00 
 -11   0   3   -1.50    2.80 
  11   0   3   -2.20    4.70 
 -11   0  -3   -2.60    3.00 
  11   0  -3    5.40    6.60 
  11   0  -3    9.10    7.60 
  11  -1   3  633.24   30.70 
  11   1  -3  598.54   30.10 
 -11   1   3  600.94   22.60 
 -11  -1  -3  583.94   23.50 
 -11   1   3  603.84   38.90 
 -11  -1   3  699.23   33.20 
  11   1   3  467.15   32.30 
  11  -1  -3  617.54   45.30 
 -11   1  -3  618.94   28.40 
  11  -2   3  257.77   19.40 
 -11   2   3  296.77   13.70 
  11   2  -3  272.47   18.70 
 -11  -2  -3  213.28   14.90 
 -11   2  -3  249.78   25.20 
  11   2   3  226.08   16.80 
 -11  -2   3  265.87   17.90 
  11  -2  -3  266.87   32.70 
  11  -3   3  154.78   14.90 
 -11  -3  -3  204.68   23.00 
  11   3  -3  164.68   15.90 
  11   3   3  154.68   16.30 
  11  -3  -3  175.18   34.90 
 -11  -3   3  163.68   12.90 
 -11   3  -3  182.58   17.50 
  11   4  -3  456.15   27.90 
 -11  -4  -3  451.35   25.40 
  11  -4   3  445.56   26.90 
  11   4   3  402.56   29.30 
 -11   4  -3  426.16   23.50 
  11  -4  -3  434.96   40.90 
 -11  -4   3  429.86   21.90 
  11  -5   3   22.40    8.50 
  11   5  -3   22.90   10.00 
 -11  -5  -3   16.90    6.20 
  11   5   3   20.50    9.20 
 -11  -5   3   28.20    7.10 
  11  -5  -3   29.60   13.10 
 -11   5  -3   28.10    7.50 
  11   0   4   -4.50    6.60 
  11   0  -4    5.90   10.10 
 -11   0  -4   -2.50    3.00 
 -11   0   4  -10.00    9.10 
 -11   0   4    9.50    5.00 
  11  -1   4  395.26   27.20 
 -11  -1  -4  483.25   20.50 
 -11   1   4  454.35   19.30 
 -11   1   4  469.25   33.10 
  11   1  -4  480.75   30.10 
 -11   1  -4  465.95   24.80 
 -11  -1   4  447.96   25.30 
  11   1   4  445.96   36.80 
  11  -1  -4  408.66   29.20 
 -11  -2  -4  114.79   10.30 
  11  -2   4  116.99   14.40 
  11   2  -4  119.59   14.10 
 -11   2  -4  116.19   20.70 
  11  -2  -4  123.89   18.20 
 -11  -2   4  118.59   10.80 
 -11  -3  -4   94.89   19.70 
  11  -3   4   67.79   11.40 
  11   3  -4   72.99   12.20 
 -11   3  -4   76.19   14.30 
  11   3   4   71.69   12.20 
 -11  -3   4   77.99    8.70 
  11  -3  -4   86.29   21.80 
  11   4  -4  311.67   22.40 
 -11  -4  -4  278.07   19.20 
  11  -4   4  273.17   22.40 
  11  -4  -4  343.17   42.70 
 -11   4  -4  264.57   18.50 
 -11  -4   4  269.17   16.20 
  11   4   4  242.88   23.50 
  11  -5   4   27.30    8.60 
  11   5  -4   26.60   10.10 
 -11  -5   4   24.80    6.10 
 -11   5  -4   29.70    7.70 
  11   5   4   26.90   12.80 
  11  -5  -4   43.70   20.30 
  11   0   5   -7.40    8.20 
 -11   0   5   -0.60   12.00 
 -11   0  -5    0.00    3.40 
 -11   1   5  527.45   34.00 
 -11  -1  -5  497.65   21.20 
  11  -1   5  412.06   31.80 
 -11  -1   5  516.95   23.70 
  11   1   5  506.75   39.40 
 -11   1  -5  513.85   26.80 
  11  -1  -5  549.15   30.20 
  11   2  -5  135.19   16.70 
 -11   2   5  158.98   16.00 
  11  -2   5  115.09   16.10 
 -11  -2  -5  135.09   11.60 
  11  -2  -5  116.39   15.50 
 -11   2  -5  140.49   23.70 
 -11  -2   5  100.89    9.30 
  11   3  -5  139.09   15.80 
 -11  -3  -5  147.19   19.80 
  11  -3   5  123.99   17.00 
  11  -3  -5  126.59   18.20 
 -11  -3   5  156.38   11.60 
  11   3   5  132.09   16.20 
 -11   3  -5  128.59   17.00 
  11   4  -5  244.78   21.50 
  11  -4   5  248.48   22.90 
 -11  -4   5  271.47   15.90 
  11   4   5  224.88   23.50 
 -11   4  -5  227.68   18.00 
  11  -4  -5  218.48   29.20 
 -11   0   6   11.50   12.90 
  11   0   6  -16.50   11.60 
 -11   0  -6   -5.30    3.20 
 -11  -1  -6 1494.65   47.50 
  11  -1   6 1249.28   72.89 
 -11   1   6 1594.94   65.99 
  11  -1  -6 1513.45   57.39 
  11   1   6 1551.64   74.79 
 -11   1  -6 1556.74   55.49 
 -11  -1   6 1553.94   73.59 
 -11   2   6  176.78   16.90 
  11  -2   6  140.49   20.60 
  11   2  -6  186.28   21.90 
  11  -2  -6  174.58   17.00 
 -11   2  -6  169.58   23.80 
  11  -3   6  340.47   31.10 
  11   3  -6  415.16   28.20 
 -11   3  -6  424.66   30.60 
 -11  -3   6  460.95   21.20 
  11  -3  -6  448.06   31.00 
 -11   4  -6  321.47   23.10 
 -11   0  -7    3.30    3.90 
  11   0   7    7.60   12.20 
 -11   0   7   32.40   13.90 
 -11   1   7  407.66   30.20 
  11  -1   7  403.76   42.50 
  11   1   7  446.96   37.50 
 -11   1  -7  437.76   23.10 
 -11  -1   7  421.06   40.10 
  11  -1  -7  420.76   24.40 
  11  -2   7  124.89   28.80 
  11   2  -7  176.48   24.20 
 -11   2   7  187.88   18.70 
  11  -2  -7  167.68   16.20 
 -11   2  -7  184.78   24.30 
  11   3  -7  127.29   16.80 
  11  -3   7   92.39   23.70 
  11  -3  -7   99.29   14.40 
 -11   3  -7   95.49   19.80 
 -11   0   8   -2.40   11.50 
  11   0   8   -6.00   11.20 
  11  -1   8  348.27   37.50 
 -11   1   8  303.97   27.60 
  11   1   8  327.37   33.10 
 -11  -1   8  329.27   37.50 
  12   0   0  621.24   25.90 
 -12   0   0  643.84   24.50 
  12  -1   0  259.17   15.60 
 -12   1   0  244.28   14.00 
  12   1   0  273.67   15.30 
 -12  -1   0  253.67   14.50 
  12   2   0  213.08   14.80 
 -12  -2   0  194.88   14.40 
  12  -2   0  179.88   14.60 
 -12   2   0  182.18   13.60 
 -12  -3   0  868.71   46.40 
 -12   3   0  734.23   42.00 
  12  -3   0  729.53   34.20 
  12   3   0  760.72   33.70 
 -12   4   0   49.20   13.60 
  12  -4   0   27.60    8.50 
 -12  -4   0   20.40    8.10 
  12   4   0   41.20   10.30 
 -12   5   0  941.71   44.90 
 -12  -5   0  882.51   39.60 
  12  -5   0  930.71   41.90 
  12   5   0  966.00   44.40 
  12   0  -1  939.31   35.10 
  12   0   1  984.30   36.80 
 -12   0  -1  985.20   34.10 
 -12   0   1 1030.60   34.20 
  12  -1   1   34.20    7.50 
 -12  -1  -1   28.30    5.90 
 -12   1   1   46.50    6.30 
  12   1  -1   32.90    5.90 
  12  -1  -1   38.50    6.60 
 -12   1  -1   36.90    6.40 
 -12  -1   1   34.70    6.40 
 -12   2   1  514.75   22.30 
 -12  -2  -1  463.95   22.90 
  12   2  -1  508.25   24.70 
  12  -2   1  524.15   25.60 
 -12   2  -1  503.25   26.00 
 -12  -2   1  482.75   25.40 
  12  -2  -1  477.15   25.30 
  12   2   1  488.55   23.70 
  12   3  -1  138.29   13.50 
 -12  -3  -1  122.49   16.10 
 -12   3   1  151.88   14.00 
  12  -3   1  147.79   13.50 
  12   3   1  149.69   13.70 
 -12   3  -1   92.69   19.60 
  12  -3  -1  142.49   14.40 
 -12  -3   1  128.99   18.20 
 -12  -4  -1   20.70    8.70 
 -12   4   1   17.10   10.90 
  12  -4   1   19.40    7.10 
  12   4  -1   16.80    7.40 
 -12  -4   1   18.20    7.60 
 -12   4  -1   15.20    9.50 
  12  -4  -1   19.00    7.60 
  12   4   1   26.40    9.00 
 -12   5   1  294.37   23.10 
  12  -5   1  190.28   17.30 
  12   5  -1  181.38   17.40 
 -12  -5  -1  196.88   16.60 
 -12  -5   1  163.28   15.10 
 -12   5  -1  214.18   18.00 
  12   5   1  186.48   17.90 
  12  -5  -1  164.68   17.20 
  12   0  -2   73.79    8.30 
  12   0  -2   75.79    8.60 
  12   0   2   71.99    9.60 
 -12   0   2   88.19    7.80 
 -12   0  -2   83.09    8.10 
 -12   1   2  349.77   16.00 
 -12  -1  -2  340.77   16.80 
  12  -1   2  381.46   21.00 
  12   1  -2  350.76   19.40 
 -12  -1   2  304.37   17.20 
  12  -1  -2  299.07   19.60 
 -12   1  -2  308.17   17.30 
  12   2  -2   53.79    8.90 
 -12   2   2   58.99    6.70 
  12  -2   2   48.00    8.50 
 -12  -2  -2   55.79    7.80 
 -12   2  -2   60.29   13.10 
  12   2   2   72.49    8.50 
 -12  -2   2   49.20   11.40 
  12  -2  -2   52.69   11.50 
 -12  -3  -2  917.21   44.30 
  12   3  -2  997.60   41.40 
 -12   3   2  993.90   36.40 
  12  -3   2 1050.89   42.60 
 -12   3  -2  955.20   51.49 
  12  -3  -2  952.40   46.60 
  12   3   2  983.20   41.40 
 -12  -3   2 1014.70   45.70 
  12   4  -2   27.60    8.40 
  12  -4   2   20.70    7.10 
 -12   4   2   25.90    6.50 
 -12  -4  -2   25.40   10.30 
 -12   4  -2   13.00    8.90 
 -12  -4   2    4.00    5.30 
  12   4   2   19.60    8.30 
  12  -4  -2   19.30    8.30 
 -12  -5  -2 1140.19   46.50 
  12  -5   2 1064.49   47.00 
  12   5  -2 1106.29   48.50 
  12   5   2 1097.29   51.59 
 -12  -5   2 1126.79   45.10 
 -12   5  -2 1123.39   47.80 
  12  -5  -2 1139.99   53.19 
  12   0  -3  910.91   39.40 
 -12   0  -3  924.11   33.10 
 -12   0   3  915.91   33.20 
  12   0   3  937.01   39.90 
 -12   1   3   74.49    6.60 
  12   1  -3   73.19   10.00 
  12  -1   3   67.99   10.20 
 -12  -1  -3   71.69    7.80 
  12  -1  -3   92.19   15.00 
 -12   1  -3   82.19    9.40 
 -12  -1   3   57.09    9.80 
 -12  -2  -3  460.65   22.10 
  12   2  -3  489.75   26.10 
  12  -2   3  502.35   27.10 
 -12   2   3  508.25   20.00 
  12  -2  -3  456.65   36.70 
 -12  -2   3  487.55   31.50 
 -12   2  -3  471.65   32.50 
 -12  -3  -3  145.89   15.50 
  12  -3   3  168.78   15.50 
  12   3  -3  171.98   15.60 
 -12  -3   3  172.38   16.10 
  12  -3  -3  170.78   23.80 
 -12   3  -3  185.48   22.70 
  12   3   3  172.78   15.80 
  12  -4   3   12.10    6.50 
 -12  -4  -3   16.60    9.80 
  12   4  -3   21.20    8.70 
 -12   4  -3   16.50    9.10 
 -12  -4   3    7.20    5.30 
  12   4   3   27.50    9.00 
  12  -4  -3   20.80   11.20 
  12   0  -4  369.86   26.50 
 -12   0  -4  309.97   16.40 
  12   0   4  319.37   23.00 
 -12   0   4  366.86   18.40 
  12   1  -4  169.08   16.40 
 -12  -1  -4  163.48   11.50 
  12  -1   4  192.98   17.20 
 -12   1   4  168.98   10.30 
 -12  -1   4  216.98   19.30 
  12   1   4  139.79   17.20 
  12  -1  -4  222.38   31.30 
 -12   1  -4  142.59   12.90 
  12   2  -4  141.59   14.70 
 -12  -2  -4  168.68   11.90 
  12  -2   4  154.88   16.00 
 -12   2  -4  157.58   20.80 
  12  -2  -4  173.98   34.60 
 -12  -3  -4  636.74   33.20 
  12   3  -4  677.53   33.60 
  12  -3   4  692.73   35.80 
 -12  -3   4  654.63   31.00 
  12   3   4  667.33   33.50 
  12  -3  -4  674.63   57.59 
 -12   3  -4  664.03   41.90 
  12   4  -4   36.50   10.40 
  12  -4   4   31.00    9.90 
 -12  -4  -4   46.80   13.30 
 -12  -4   4   64.69    9.30 
 -12   4  -4   37.50   11.30 
  12  -4  -4   10.00   15.30 
  12   4   4   38.60    9.50 
 -12   0   5  732.03   44.90 
  12   0   5  642.54   38.80 
 -12   0  -5  751.72   28.10 
  12   1  -5   27.30   12.10 
 -12  -1  -5   13.00    4.70 
 -12   1   5   12.00   13.30 
  12  -1   5   10.60    7.70 
 -12  -1   5   11.30    6.40 
 -12   1  -5   12.90    6.30 
  12   1   5   -1.80   10.10 
  12  -1  -5   18.60   10.50 
 -12  -2  -5  372.06   19.10 
  12  -2   5  377.96   26.50 
  12   2  -5  400.46   27.00 
  12  -2  -5  396.96   33.20 
 -12   2  -5  421.06   31.80 
 -12  -2   5  381.46   21.70 
 -12  -3  -5  105.09   13.80 
  12   3  -5  101.79   13.80 
  12  -3   5   97.79   13.80 
 -12   3  -5   83.39   19.60 
  12  -3  -5  103.29   24.60 
 -12  -3   5  133.79   11.80 
  12   4  -5   17.20    7.90 
  12  -4   5   23.20    8.90 
 -12  -4   5    8.40    4.60 
  12  -4  -5    5.80   17.30 
 -12   4  -5    3.80    8.50 
  12   4   5   21.00    7.50 
  12   0   6  109.49   18.70 
 -12   0  -6  128.19   10.40 
 -12   0   6  149.79   25.00 
  12  -1   6  136.29   19.30 
 -12  -1  -6  144.49   10.80 
  12   1  -6  143.29   20.30 
 -12   1   6  155.88   22.30 
  12  -1  -6  160.18   16.90 
  12   1   6  134.89   21.70 
 -12   1  -6  128.89   12.00 
  12  -2   6   31.10   11.40 
  12   2  -6   50.79   13.10 
 -12   2  -6   49.80   14.10 
  12  -2  -6   29.90   10.60 
  12   3  -6  757.42   38.30 
  12  -3   6  692.23   41.00 
 -12  -3   6  806.52   33.10 
  12  -3  -6  807.02   48.90 
 -12   3  -6  758.22   50.29 
 -12   0  -7  650.13   25.90 
  12   0   7  471.35   41.60 
 -12   0   7  638.24   53.89 
  12  -1   7   18.50   13.20 
 -12   1   7   35.50   15.50 
 -12   1  -7   49.50    8.70 
  12   1   7   10.90   16.00 
  12   2  -7  329.17   27.20 
  12  -2   7  287.77   28.30 
 -12   2  -7  363.66   26.10 
  12  -2  -7  364.06   27.60 
 -13   0   0    2.20    3.20 
  13  -1   0 1419.16   49.50 
 -13  -1   0 1392.36   46.90 
 -13   1   0 1476.45   46.70 
 -13  -2   0  195.18   14.20 
 -13   2   0  231.58   14.80 
  13   2   0  250.57   15.60 
  13  -2   0  236.68   16.10 
 -13   3   0  470.65   25.80 
  13   3   0  423.26   23.40 
 -13  -3   0  407.26   26.10 
  13  -3   0  440.46   24.70 
 -13   4   0  591.04   39.60 
 -13  -4   0  602.04   40.80 
  13  -4   0  542.85   29.70 
  13   4   0  540.25   29.40 
 -13   0  -1    0.60    3.20 
 -13   0   1    1.90    3.10 
  13   0   1    6.00    4.50 
  13   1  -1  134.79   10.60 
  13  -1   1  151.08   12.20 
 -13   1   1  135.89    9.70 
 -13  -1  -1  121.49   10.00 
 -13   1  -1  120.19   10.10 
 -13  -1   1  132.79   10.50 
  13  -1  -1  123.49   11.10 
  13   2  -1  431.16   21.90 
  13  -2   1  372.36   21.40 
 -13  -2  -1  402.36   20.50 
 -13   2   1  421.16   19.30 
 -13   2  -1  468.15   23.30 
  13   2   1  438.96   21.80 
  13  -2  -1  388.66   22.70 
 -13  -2   1  430.46   22.70 
  13  -3   1   14.60    6.40 
  13   3  -1   34.70    8.40 
 -13  -3  -1   23.70    7.90 
 -13   3   1   30.70    7.40 
 -13   3  -1   49.70   12.30 
 -13  -3   1   18.50   10.00 
  13   3   1   33.60    8.40 
  13  -3  -1   29.50    8.30 
 -13  -4  -1  710.53   46.80 
 -13   4   1  773.42   36.20 
  13   4  -1  713.43   34.40 
  13  -4   1  748.53   35.50 
  13   4   1  759.22   35.70 
 -13   4  -1  762.42   46.80 
  13  -4  -1  714.53   35.90 
 -13  -4   1  698.03   42.60 
 -13   0  -2   -1.40    2.70 
  13   0   2    5.60    4.30 
 -13   0   2    5.10    3.60 
 -13   1   2  199.58   11.40 
  13   1  -2  188.28   13.90 
 -13  -1  -2  173.88   11.90 
  13  -1   2  204.88   15.10 
 -13   1  -2  178.08   12.70 
  13  -1  -2  168.68   13.90 
 -13  -1   2  178.38   12.50 
  13  -2   2  130.39   12.60 
 -13  -2  -2  137.19   11.10 
  13   2  -2  125.19   12.10 
 -13   2   2  159.88   10.80 
 -13  -2   2  130.39   12.70 
  13  -2  -2  147.59   14.90 
 -13   2  -2  146.29   14.00 
 -13  -3  -2   10.80    5.90 
 -13   3   2   16.50    4.30 
  13   3  -2   17.20    6.40 
  13  -3   2   18.70    6.40 
  13  -3  -2   14.80    7.30 
 -13  -3   2  -13.70    7.10 
  13   3   2   21.60    6.60 
 -13   3  -2   16.10   11.50 
  13  -4   2  358.76   23.70 
  13   4  -2  364.46   23.10 
 -13  -4  -2  344.77   30.70 
 -13  -4   2  334.27   25.60 
 -13   4  -2  361.76   31.30 
  13  -4  -2  285.27   23.30 
  13   4   2  346.67   22.20 
 -13   0  -3    6.50    4.00 
  13   0   3    5.30    4.50 
 -13   0   3    1.40    3.40 
  13   1  -3   81.09   10.20 
  13  -1   3   91.09   11.10 
 -13   1   3   91.19    7.70 
 -13  -1  -3   70.99    7.70 
  13  -1  -3   85.09   12.40 
 -13   1  -3   80.69    8.90 
 -13  -1   3   95.09   10.40 
  13  -2   3  359.26   22.00 
 -13   2   3  337.67   16.00 
  13   2  -3  345.37   21.30 
 -13  -2  -3  345.67   18.70 
 -13  -2   3  345.57   23.00 
  13  -2  -3  359.36   27.10 
 -13   2  -3  334.07   22.30 
  13   3  -3   27.60    8.40 
  13  -3   3   17.50    7.70 
 -13  -3  -3   23.80    7.50 
 -13  -3   3   15.00    9.90 
  13  -3  -3   18.90   10.30 
 -13   3  -3   -9.80   10.70 
  13  -4   3  686.63   34.40 
 -13  -4  -3  691.53   43.20 
  13   4  -3  641.24   33.50 
  13   4   3  676.13   34.40 
 -13   4  -3  615.84   41.50 
 -13  -4   3  702.53   36.70 
  13  -4  -3  682.53   41.30 
 -13   0   4    9.20    4.40 
  13   0  -4    9.90    7.60 
  13   0   4    1.70    5.00 
 -13   0  -4   -1.10    3.40 
 -13  -1  -4 1153.08   39.10 
  13  -1   4 1140.19   46.80 
  13   1  -4 1094.29   46.60 
  13  -1  -4 1193.98   60.79 
 -13  -1   4 1154.88   44.90 
 -13   1  -4 1139.29   42.30 
 -13  -2  -4  295.27   17.00 
  13   2  -4  283.67   20.10 
  13  -2   4  304.47   21.50 
 -13  -2   4  346.77   27.70 
 -13   2  -4  265.17   20.70 
  13  -2  -4  274.47   31.10 
 -13  -3  -4  344.57   20.60 
  13   3  -4  326.37   22.20 
  13  -3   4  348.27   24.30 
  13  -3  -4  343.47   35.90 
 -13   3  -4  362.66   35.60 
 -13  -3   4  386.36   26.20 
  13   0  -5    8.60    8.90 
 -13   0  -5   -1.10    3.40 
  13   0   5    6.10    6.90 
  13  -1   5  126.49   15.10 
  13   1  -5  152.48   17.20 
 -13  -1  -5  130.99   10.20 
 -13   1  -5  151.38   12.80 
 -13  -2  -5  311.87   17.80 
  13   2  -5  317.67   22.60 
  13  -2   5  325.77   24.50 
 -13   2  -5  322.97   23.10 
  13  -2  -5  328.07   41.80 
 -13  -2   5  339.67   23.90 
 -13  -3  -5   12.20    6.60 
  13   3  -5    6.20    6.50 
  13  -3   5   26.00    9.60 
  13  -3  -5   20.30   19.20 
 -13   3  -5   33.50   17.80 
 -13  -3   5   34.50    8.10 
 -13   0   6   -8.90   10.90 
  13   0   6   -7.60    6.70 
 -13   0  -6   -0.60    3.50 
 -13  -1  -6  146.39   10.80 
  13   1  -6  180.48   19.60 
  13  -1   6  134.89   17.00 
 -13   1  -6  157.58   12.70 
  13   2  -6  202.88   19.60 
  13  -2   6  155.48   18.00 
 -13   2  -6  209.18   18.30 
  13  -2  -6  204.58   27.80 
 -14   0   0  749.73   28.70 
  14  -1   0   -0.30    3.40 
 -14  -1   0    6.10    4.00 
 -14   1   0    3.10    3.70 
 -14   2   0  426.96   20.50 
  14  -2   0  428.96   22.70 
 -14  -2   0  422.36   21.10 
  14   3   0  138.79   12.40 
  14  -3   0  122.19   12.30 
 -14   3   0  145.39   13.00 
 -14  -3   0  121.19   12.70 
  14   4   0    1.30    4.40 
 -14  -4   0    6.60    8.00 
  14  -4   0    0.50    5.10 
 -14   4   0   10.40    6.30 
 -14   0  -1  327.77   16.70 
 -14   0   1  319.87   16.50 
  14  -1   1  107.89   10.60 
 -14  -1  -1   87.29    8.70 
 -14   1   1   95.99    8.50 
 -14   1  -1   93.79    9.50 
 -14  -1   1   83.59    8.60 
  14  -1  -1   90.49    9.90 
  14  -2   1  235.38   16.70 
 -14   2   1  211.48   13.10 
  14   2  -1  234.38   15.20 
 -14  -2  -1  229.58   14.70 
 -14   2  -1  215.98   14.70 
  14  -2  -1  207.38   15.90 
 -14  -2   1  175.88   13.20 
  14   3  -1  406.36   23.20 
 -14  -3  -1  398.46   22.60 
  14  -3   1  403.46   23.60 
 -14   3   1  493.25   22.20 
 -14   3  -1  471.65   25.90 
  14   3   1  449.46   24.10 
 -14  -3   1  466.65   25.80 
  14  -3  -1  432.46   25.40 
  14  -4   1   20.40    7.20 
 -14  -4  -1   15.20    7.80 
 -14   4   1   36.80    7.20 
  14   4  -1   38.60    8.30 
 -14   4  -1   45.80   12.10 
 -14  -4   1   11.40    8.40 
  14  -4  -1   29.70    9.10 
  14   4   1   35.50    8.30 
 -14   0  -2 1901.21   58.39 
 -14   0   2 1798.82   57.09 
 -14  -1  -2    1.50    3.20 
  14  -1   2    4.00    4.30 
 -14   1   2    4.40    3.50 
 -14  -1   2    2.60    3.40 
  14  -1  -2    6.60    4.80 
 -14   1  -2    0.20    3.90 
  14   2  -2 1052.39   40.80 
  14  -2   2 1024.70   41.50 
 -14  -2  -2 1039.00   38.30 
 -14   2   2 1049.79   36.00 
  14  -2  -2 1024.20   43.00 
 -14   2  -2 1063.49   40.40 
 -14  -2   2 1030.20   40.00 
  14   3  -2   11.60    5.30 
  14  -3   2    8.00    5.50 
 -14   3   2   10.40    3.70 
 -14  -3  -2    8.20    5.30 
 -14  -3   2   -2.70    5.30 
 -14   3  -2   18.50    6.80 
  14  -3  -2    9.90    6.70 
 -14   0   3  280.47   14.70 
 -14   0  -3  253.87   14.90 
 -14  -1  -3   82.99    8.80 
  14  -1   3   91.79   10.90 
 -14   1   3   93.09    8.20 
  14   1  -3   88.19    9.70 
 -14   1  -3  101.09    9.90 
 -14  -1   3   91.69    8.90 
  14   2  -3  207.18   15.70 
  14  -2   3  218.78   16.90 
 -14  -2  -3  220.68   14.00 
 -14   2  -3  210.18   16.30 
  14  -2  -3  211.88   18.40 
 -14  -2   3  204.78   15.50 
 -14  -3  -3  421.86   23.00 
  14  -3   3  429.46   25.20 
  14   3  -3  412.96   24.00 
 -14   3  -3  392.56   26.60 
 -14  -3   3  400.96   27.50 
  14  -3  -3  344.07   25.60 
 -14   0   4  548.15   22.90 
 -14   0  -4  516.95   23.10 
  14   0   4  540.65   28.40 
 -14  -1  -4   15.20    5.20 
  14  -1   4    2.50    6.00 
  14   1  -4   16.40    6.30 
 -14   1  -4    1.10    4.00 
 -14  -1   4    8.70    4.60 
  14   2  -4  379.96   22.90 
 -14  -2  -4  352.26   18.70 
  14  -2   4  332.07   22.70 
 -14   2  -4  332.77   21.50 
 -14  -2   4  360.26   22.50 
  14  -2  -4  368.46   30.00 
 -14  -3  -4  130.59   12.40 
 -14  -3   4   88.69   16.50 
 -14   3  -4   78.99   15.60 
  14   0   5  287.37   21.70 
 -14   0  -5  314.97   16.90 
  14  -1   5   75.69   11.70 
  14   1  -5   89.19   11.90 
 -14  -1  -5   55.19    7.60 
 -14   1  -5   65.49    8.70 
 -14  -2  -5  148.49   11.70 
  14  -2   5  131.69   15.20 
  14   2  -5  187.08   16.20 
  14  -2  -5  201.08   28.10 
 -14   2  -5  149.09   14.80 
 -14  -2   5  191.18   18.50 
 -15   0   0    8.10    4.30 
 -15  -1   0  457.25   21.80 
 -15   1   0  453.15   20.80 
 -15   2   0   97.19    8.90 
  15  -2   0   65.39    8.90 
 -15  -2   0   83.79    9.40 
 -15  -3   0  161.88   13.90 
 -15   3   0  191.38   13.20 
  15  -3   0  148.69   14.20 
 -15   0   1    2.10    3.40 
 -15   0  -1   -0.10    3.90 
 -15   1   1  858.91   31.40 
  15  -1   1  776.02   33.10 
 -15  -1  -1  843.42   31.80 
 -15  -1   1  810.12   31.50 
 -15   1  -1  799.02   31.10 
 -15  -2  -1   21.90    6.20 
  15  -2   1   31.70    7.60 
 -15   2   1   45.60    6.70 
  15  -2  -1   36.60    8.40 
 -15   2  -1   36.90    6.70 
 -15  -2   1   35.40    7.40 
 -15   3   1  200.78   12.50 
 -15  -3  -1  148.29   13.20 
  15  -3   1  176.28   14.80 
  15   3  -1  165.98   13.10 
  15  -3  -1  165.08   15.60 
 -15  -3   1  200.38   15.30 
 -15   3  -1  186.48   14.40 
 -15   0   2   -0.40    2.80 
 -15   0  -2    2.80    3.50 
  15  -1   2   44.50    9.00 
 -15   1   2   55.79    6.40 
 -15  -1  -2   50.19    7.30 
 -15   1  -2   55.99    8.00 
 -15  -1   2   37.50    6.70 
 -15   2   2  492.05   21.20 
 -15  -2  -2  497.15   23.30 
  15  -2   2  463.05   25.30 
  15  -2  -2  463.45   25.70 
 -15   2  -2  505.35   23.90 
 -15  -2   2  482.35   23.80 
 -15   0   3    1.60    3.20 
 -15   0  -3    0.70    4.00 
 -15   1   3  863.01   31.10 
  15  -1   3  824.12   36.10 
 -15  -1  -3  857.91   32.90 
 -15  -1   3  824.62   32.40 
 -15   1  -3  849.91   33.20 
 -15  -2  -3    1.70    4.20 
  15  -2   3    8.70    6.40 
  15   2  -3   22.20    5.50 
  15  -2  -3   18.30    7.50 
 -15  -2   3   12.50    5.20 
 -15   2  -3    7.40    5.20 
 -15   0  -4    7.40    4.40 
  15  -1   4  380.96   23.00 
 -15  -1  -4  399.76   19.80 
 -15  -1   4  404.96   20.20 
 -15   1  -4  403.86   21.00 
 -16   0   0  341.47   17.90 
 -16   1   0  118.49    9.30 
 -16  -1   0   97.19    9.30 
 -16   0   1  418.16   19.70 
 -16   0  -1  410.66   20.30 
 -16   1   1   53.89    6.70 
 -16  -1  -1   57.29    7.50 
 -16  -1   1   59.09    7.10 
 -16   1  -1   71.29    7.80 
 -16   0  -2  151.98   11.70 
 -16   0   2  135.29   10.40 
 -16  -1  -2   45.80    7.70 
 -16   1   2   49.50    6.50 
 -16  -1   2   39.10    7.00 
 -16   1  -2   43.30    6.50 
  
_computing_structure_solution     'SHELXT 2014/4 (Sheldrick, 2014)' 
;
_shelx_hkl_checksum              61490
loop_
_space_group_symop_operation_xyz
'x, y, z'
'-x, -y, z+1/2'
'x+1/2, -y+1/2, z'
'-x+1/2, y+1/2, z+1/2'
loop_
_atom_site_label
_atom_site_type_symbol
_atom_site_fract_x
_atom_site_fract_y
_atom_site_fract_z
_atom_site_U_iso_or_equiv
_atom_site_adp_type
_atom_site_occupancy
_atom_site_site_symmetry_order
_atom_site_calc_flag
_atom_site_refinement_flags_adp
W1 W 0.35314(2) 0.55652(4) 0.27712(2) 0.00437(8) Uani 1 1 d .
Y1 Y 0.54323(7) 0.95456(13) 0.5213(2) 0.00532(14) Uani 1 1 d .
Cr1 Cr 0.36742(10) 0.5466(2) 0.7727(8) 0.0042(2) Uani 1 1 d U
O1 O 0.3805(5) 0.6705(10) 0.5187(9) 0.0055(9) Uani 1 1 d .
O2 O 0.2138(5) 0.3840(11) 0.3354(8) 0.0052(10) Uani 1 1 d .
O3 O 0.2910(5) 0.8743(11) 0.2063(8) 0.0056(11) Uani 1 1 d .
O4 O 0.5256(5) 0.7301(11) 0.8141(7) 0.0050(11) Uani 1 1 d U
O5 O 0.3574(5) 0.4400(10) 0.0289(10) 0.0065(11) Uani 1 1 d .
O6 O 0.4779(5) 0.2541(11) 0.7313(7) 0.0049(11) Uani 1 1 d .
loop_
_atom_site_aniso_label
_atom_site_aniso_U_11
_atom_site_aniso_U_22
_atom_site_aniso_U_33
_atom_site_aniso_U_23
_atom_site_aniso_U_13
_atom_site_aniso_U_12
W1 0.00469(11) 0.00444(12) 0.00399(12) 0.0005(2) 0.0005(3) -0.00006(9)
Y1 0.0068(3) 0.0050(3) 0.0042(3) -0.0006(3) -0.0004(3) 0.0002(2)
Cr1 0.0041(4) 0.0036(4) 0.0050(6) 0.0021(8) -0.0017(8) 0.0000(3)
O1 0.007(2) 0.007(2) 0.003(2) -0.001(2) -0.001(2) -0.0012(19)
O2 0.006(2) 0.006(2) 0.004(2) -0.0013(19) 0.0026(19) 0.000(2)
O3 0.005(2) 0.005(2) 0.007(2) 0.001(2) 0.001(2) 0.001(2)
O4 0.0059(15) 0.0049(14) 0.0040(16) -0.0008(11) -0.0003(11) 0.0005(11)
O5 0.007(3) 0.008(3) 0.004(2) 0.003(2) 0.001(3) 0.0007(18)
O6 0.005(2) 0.003(2) 0.007(3) -0.0021(17) -0.0002(17) 0.0011(19)
loop_
_atom_type_symbol
_atom_type_description
_atom_type_scat_dispersion_real
_atom_type_scat_dispersion_imag
_atom_type_scat_source
O O 0.0106 0.0060 'International Tables Vol C Tables 4.2.6.8 and 6.1.1.4'
Cr Cr 0.3209 0.6236 'International Tables Vol C Tables 4.2.6.8 and 6.1.1.4'
Y Y -2.7962 3.5667 'International Tables Vol C Tables 4.2.6.8 and 6.1.1.4'
W W -0.8490 6.8722 'International Tables Vol C Tables 4.2.6.8 and 6.1.1.4'
loop_
_geom_angle_atom_site_label_1
_geom_angle_atom_site_label_2
_geom_angle_atom_site_label_3
_geom_angle
_geom_angle_site_symmetry_1
_geom_angle_site_symmetry_3
O2 W1 O3 101.4(3) . .
O2 W1 O1 93.8(3) . .
O3 W1 O1 92.4(2) . .
O2 W1 O5 95.1(2) . .
O3 W1 O5 91.3(2) . .
O1 W1 O5 169.5(2) . .
O2 W1 O4 98.9(2) . 2_664
O3 W1 O4 159.3(2) . 2_664
O1 W1 O4 90.0(2) . 2_664
O5 W1 O4 83.1(2) . 2_664
O2 W1 O6 174.9(2) . 2_664
O3 W1 O6 82.1(2) . 2_664
O1 W1 O6 82.3(2) . 2_664
O5 W1 O6 88.5(2) . 2_664
O4 W1 O6 77.9(2) 2_664 2_664
O6 Y1 O1 101.4(2) 1_565 .
O6 Y1 O5 136.5(2) 1_565 2_665
O1 Y1 O5 78.3(2) . 2_665
O6 Y1 O4 82.24(17) 1_565 2_674
O1 Y1 O4 101.1(2) . 2_674
O5 Y1 O4 141.1(2) 2_665 2_674
O6 Y1 O6 150.32(11) 1_565 2_664
O1 Y1 O6 68.3(2) . 2_664
O5 Y1 O6 70.6(2) 2_665 2_664
O4 Y1 O6 73.13(17) 2_674 2_664
O6 Y1 O3 67.05(19) 1_565 2_675
O1 Y1 O3 144.2(2) . 2_675
O5 Y1 O3 87.7(2) 2_665 2_675
O4 Y1 O3 110.2(2) 2_674 2_675
O6 Y1 O3 137.06(19) 2_664 2_675
O6 Y1 O4 73.10(18) 1_565 .
O1 Y1 O4 69.1(2) . .
O5 Y1 O4 66.2(2) 2_665 .
O4 Y1 O4 150.50(11) 2_674 .
O6 Y1 O4 123.77(17) 2_664 .
O3 Y1 O4 75.06(19) 2_675 .
O6 Y1 O2 112.1(2) 1_565 3_565
O1 Y1 O2 142.8(2) . 3_565
O5 Y1 O2 87.7(2) 2_665 3_565
O4 Y1 O2 69.28(19) 2_674 3_565
O6 Y1 O2 74.55(19) 2_664 3_565
O3 Y1 O2 67.76(17) 2_675 3_565
O4 Y1 O2 135.13(19) . 3_565
O6 Cr1 O5 88.0(3) . 1_556
O6 Cr1 O1 93.5(3) . .
O5 Cr1 O1 177.2(3) 1_556 .
O6 Cr1 O4 82.0(2) . .
O5 Cr1 O4 92.1(3) 1_556 .
O1 Cr1 O4 85.8(3) . .
O6 Cr1 O3 98.5(3) . 4_545
O5 Cr1 O3 93.4(3) 1_556 4_545
O1 Cr1 O3 88.7(3) . 4_545
O4 Cr1 O3 174.5(4) . 4_545
O6 Cr1 O2 167.8(3) . 4
O5 Cr1 O2 90.1(3) 1_556 4
O1 Cr1 O2 88.0(3) . 4
O4 Cr1 O2 86.1(2) . 4
O3 Cr1 O2 93.6(3) 4_545 4
W1 O1 Cr1 140.4(3) . .
W1 O1 Y1 109.2(3) . .
Cr1 O1 Y1 104.8(3) . .
W1 O2 Cr1 138.0(4) . 4_544
W1 O2 Y1 126.7(3) . 3_465
Cr1 O2 Y1 95.1(2) 4_544 3_465
W1 O3 Cr1 129.9(3) . 4_554
W1 O3 Y1 102.0(3) . 2_674
Cr1 O3 Y1 127.9(3) 4_554 2_674
Cr1 O4 W1 101.4(3) . 2_665
Cr1 O4 Y1 98.8(3) . 2_675
W1 O4 Y1 144.2(3) 2_665 2_675
Cr1 O4 Y1 99.3(3) . .
W1 O4 Y1 100.4(2) 2_665 .
Y1 O4 Y1 105.1(2) 2_675 .
W1 O5 Cr1 145.2(3) . 1_554
W1 O5 Y1 108.2(3) . 2_664
Cr1 O5 Y1 101.5(3) 1_554 2_664
Cr1 O6 W1 98.8(2) . 2_665
Cr1 O6 Y1 144.7(3) . 1_545
W1 O6 Y1 98.6(2) 2_665 1_545
Cr1 O6 Y1 98.8(3) . 2_665
W1 O6 Y1 98.7(2) 2_665 2_665
Y1 O6 Y1 108.6(2) 1_545 2_665
loop_
_geom_bond_atom_site_label_1
_geom_bond_atom_site_label_2
_geom_bond_distance
_geom_bond_site_symmetry_2
W1 O2 1.808(6) .
W1 O3 1.848(6) .
W1 O1 1.884(6) .
W1 O5 1.912(7) .
W1 O4 2.000(5) 2_664
W1 O6 2.107(6) 2_664
Y1 O6 2.291(5) 1_565
Y1 O1 2.298(6) .
Y1 O5 2.306(5) 2_665
Y1 O4 2.346(5) 2_674
Y1 O6 2.389(5) 2_664
Y1 O3 2.419(6) 2_675
Y1 O4 2.441(5) .
Y1 O2 2.445(6) 3_565
Cr1 O6 1.953(6) .
Cr1 O5 1.954(9) 1_556
Cr1 O1 1.969(9) .
Cr1 O4 1.986(6) .
Cr1 O3 1.998(6) 4_545
Cr1 O2 2.006(6) 4
O2 Cr1 2.006(6) 4_544
O2 Y1 2.445(6) 3_465
O3 Cr1 1.998(6) 4_554
O3 Y1 2.419(6) 2_674
O4 W1 2.000(5) 2_665
O4 Y1 2.346(5) 2_675
O5 Cr1 1.954(9) 1_554
O5 Y1 2.306(5) 2_664
O6 W1 2.107(6) 2_665
O6 Y1 2.291(5) 1_545
O6 Y1 2.389(5) 2_665
