#------------------------------------------------------------------------------
#$Date: 2016-03-21 01:21:50 +0200 (Mon, 21 Mar 2016) $
#$Revision: 178377 $
#$URL: svn://www.crystallography.net/cod/cif/4/00/20/4002087.cif $
#------------------------------------------------------------------------------
#
# This file is available in the Crystallography Open Database (COD),
# http://www.crystallography.net/
#
# All data on this site have been placed in the public domain by the
# contributors.
#
data_4002087
loop_
_publ_author_name
'Morozov, Vladimir A.'
'Raskina, Maria V.'
'Lazoryak, Bogdan I.'
'Meert, Katrien W.'
'Korthout, Katleen'
'Smet, Philippe F.'
'Poelman, Dirk'
'Gauquelin, Nicolas'
'Verbeeck, Johan'
'Abakumov, Artem M.'
'Hadermann, Joke'
_publ_section_title
;
 Crystal Structure and Luminescent Properties of R2--xEux(MoO4)3(R = Gd,
 Sm) Red Phosphors
;
_journal_issue                   24
_journal_name_full               'Chemistry of Materials'
_journal_page_first              7124
_journal_paper_doi               10.1021/cm503720s
_journal_volume                  26
_journal_year                    2014
_chemical_formula_analytical     'a-Gd2 Mo3 O12'
_chemical_formula_iupac          'Gd2 Mo3 O12'
_chemical_formula_moiety         '(Gd3+)2, (MoO4 2-)3'
_chemical_formula_structural     'a-Gd2 Mo3 O12'
_chemical_formula_sum            'Gd2 Mo3 O12'
_chemical_formula_weight         794.3
_chemical_name_common            'a-Gd2 Mo3 O12'
_chemical_name_systematic        ' ?'
_space_group_IT_number           15
_symmetry_cell_setting           monoclinic
_symmetry_Int_Tables_number      15
_symmetry_space_group_name_Hall  '-C 2yc'
_symmetry_space_group_name_H-M   'C 1 2/c 1'
_cell_angle_alpha                90
_cell_angle_beta                 109.3176(3)
_cell_angle_gamma                90
_cell_formula_units_Z            4
_cell_length_a                   7.54873(4)
_cell_length_b                   11.43897(5)
_cell_length_c                   11.46800(6)
_cell_measurement_temperature    300
_cell_volume                     934.506(8)
_diffrn_ambient_temperature      300
_diffrn_measurement_device       'ID31 beamline'
_diffrn_measurement_device_type  Synchrotron
_diffrn_radiation_probe          x-ray
_diffrn_radiation_type           'Synchrotron X-ray'
_diffrn_radiation_wavelength     0.39996
_diffrn_source                   'ID31 beamline'
_diffrn_source_type              X-ray
_exptl_absorpt_coefficient_mu    8.378
_exptl_crystal_density_diffrn    5.6438
_exptl_crystal_density_method    'not measured'
_exptl_crystal_F_000             1400
_pd_calc_method                  'Rietveld Refinement'
_pd_char_colour                  White
_pd_instr_location               ' ?'
_pd_meas_2theta_range_inc        0.002
_pd_meas_2theta_range_max        40.000
_pd_meas_2theta_range_min        1.002
_pd_meas_number_of_points        19500
_pd_meas_scan_method             Step
_pd_proc_2theta_range_inc        0.002
_pd_proc_2theta_range_max        32.006
_pd_proc_2theta_range_min        2.99
_pd_proc_ls_background_function  '18 Legendre polynoms'
_pd_proc_ls_pref_orient_corr     none
_pd_proc_ls_profile_function     Pseudo-Voigt
_pd_proc_ls_prof_R_factor        0.1088
_pd_proc_ls_prof_wR_expected     0.0639
_pd_proc_ls_prof_wR_factor       0.1497
_refine_diff_density_max         1.68
_refine_diff_density_min         -2.12
_refine_ls_goodness_of_fit_all   2.34
_refine_ls_number_constraints    1
_refine_ls_number_parameters     68
_refine_ls_number_restraints     0
_refine_ls_R_factor_all          0.0267
_refine_ls_R_factor_gt           0.0267
_refine_ls_shift/su_max          0.0644
_refine_ls_shift/su_mean         0.0086
_refine_ls_weighting_scheme      sigma
_refine_ls_wR_factor_all         0.0348
_refine_ls_wR_factor_gt          0.0347
_cod_data_source_file            cm503720s_si_002.cif
_cod_data_source_block           I
_cod_depositor_comments
;
The following automatic conversions were performed:

'_diffrn_radiation_probe' value 'X-ray' changed to 'x-ray' according
to
/home/saulius/struct/COD-crude-data--automatic-downloads/rss-feeds/ACS/lib/dictionaries/cif_core.dic
dictionary named 'cif_core.dic' version 2.4.2 from 2011-04-26.

Automatic conversion script
Id: cif_fix_values 2935 2014-11-11 08:27:57Z andrius 

 Adding full bibliography for 4002087--4002088.cif.
;
_cod_database_code               4002087
loop_
_symmetry_equiv_pos_site_id
_symmetry_equiv_pos_as_xyz
1 x,y,z
2 -x,y,-z+1/2
3 -x,-y,-z
4 x,-y,z+1/2
5 x+1/2,y+1/2,z
6 -x+1/2,y+1/2,-z+1/2
7 -x+1/2,-y+1/2,-z
8 x+1/2,-y+1/2,z+1/2
loop_
_atom_site_label
_atom_site_type_symbol
_atom_site_fract_x
_atom_site_fract_y
_atom_site_fract_z
_atom_site_adp_type
_atom_site_U_iso_or_equiv
_atom_site_symmetry_multiplicity
_atom_site_occupancy
_atom_site_calc_flag
Gd1 Gd 0.33198(19) 0.37667(11) 0.40925(9) Uiso 0.0051(3) 8 1 d
Mo1 Mo 0 0.1276(2) 0.25 Uiso 0.0047(5) 4 1 d
Mo2 Mo 0.1493(3) 0.38842(13) 0.05994(12) Uiso 0.0054(5) 8 1 d
O1 O 0.1681(16) 0.0415(8) 0.2188(11) Uiso 0.009(3) 8 1 d
O2 O 0.1370(18) 0.2072(10) 0.3918(11) Uiso 0.012(4) 8 1 d
O3 O 0.2438(16) 0.3140(8) 0.2017(9) Uiso 0.0010(15) 8 1 d
O4 O 0.3602(16) 0.4564(8) 0.0394(10) Uiso 0.0010(15) 8 1 d
O5 O 0.0450(16) 0.4604(8) 0.4042(10) Uiso 0.0010(15) 8 1 d
O6 O 0.4557(15) 0.2156(8) 0.0585(11) Uiso 0.0010(15) 8 1 d
loop_
_atom_type_symbol
_atom_type_scat_dispersion_real
_atom_type_scat_dispersion_imag
_atom_type_scat_source
Gd -0.8268 1.4526 'International Tables Vol C tables 4.2.6.8 and 6.1.1.1'
Mo 0.0717 1.7724 'International Tables Vol C tables 4.2.6.8 and 6.1.1.1'
O 0.0016 0.0017 'International Tables Vol C tables 4.2.6.8 and 6.1.1.1'
loop_
_geom_angle_atom_site_label_1
_geom_angle_atom_site_label_2
_geom_angle_atom_site_label_3
_geom_angle_site_symmetry_1
_geom_angle_site_symmetry_3
_geom_angle
O1 Mo1 O1 . 2_555 110.8(5)
O1 Mo1 O2 . . 103.1(5)
O1 Mo1 O2 . 2_555 109.4(6)
O1 Mo1 O3 . . 80.2(4)
O1 Mo1 O3 . 2_555 169.0(4)
O1 Mo1 O4 . 5_445 63.4(4)
O1 Mo1 O4 . 6_545 73.2(5)
O1 Mo1 O4 . 7_555 42.8(4)
O1 Mo1 O4 . 8_455 117.1(4)
O1 Mo1 O2 2_555 . 109.4(6)
O1 Mo1 O2 2_555 2_555 103.1(5)
O1 Mo1 O3 2_555 . 169.0(4)
O1 Mo1 O3 2_555 2_555 80.2(4)
O1 Mo1 O4 2_555 5_445 73.2(5)
O1 Mo1 O4 2_555 6_545 63.4(4)
O1 Mo1 O4 2_555 7_555 117.1(4)
O1 Mo1 O4 2_555 8_455 42.8(4)
O2 Mo1 O2 . 2_555 121.1(5)
O2 Mo1 O3 . . 67.2(5)
O2 Mo1 O3 . 2_555 71.7(4)
O2 Mo1 O4 . 5_445 165.5(4)
O2 Mo1 O4 . 6_545 70.8(4)
O2 Mo1 O4 . 7_555 129.4(5)
O2 Mo1 O4 . 8_455 66.8(5)
O2 Mo1 O3 2_555 . 71.7(4)
O2 Mo1 O3 2_555 2_555 67.2(5)
O2 Mo1 O4 2_555 5_445 70.8(4)
O2 Mo1 O4 2_555 6_545 165.5(4)
O2 Mo1 O4 2_555 7_555 66.8(5)
O2 Mo1 O4 2_555 8_455 129.4(5)
O3 Mo1 O3 . 2_555 88.8(3)
O3 Mo1 O4 . 5_445 112.9(3)
O3 Mo1 O4 . 6_545 122.6(3)
O3 Mo1 O4 . 7_555 70.3(2)
O3 Mo1 O4 . 8_455 133.4(2)
O3 Mo1 O4 2_555 5_445 122.6(3)
O3 Mo1 O4 2_555 6_545 112.9(3)
O3 Mo1 O4 2_555 7_555 133.4(2)
O3 Mo1 O4 2_555 8_455 70.3(2)
O4 Mo1 O4 5_445 6_545 99.0(3)
O4 Mo1 O4 5_445 7_555 44.3(3)
O4 Mo1 O4 5_445 8_455 113.5(3)
O4 Mo1 O4 6_545 7_555 113.5(3)
O4 Mo1 O4 6_545 8_455 44.3(3)
O4 Mo1 O4 7_555 8_455 151.6(2)
O1 Mo2 O1 6_555 7_555 112.2(3)
O1 Mo2 O2 6_555 2_555 112.4(3)
O1 Mo2 O2 6_555 6_555 45.1(3)
O1 Mo2 O2 6_555 8_454 133.5(3)
O1 Mo2 O3 6_555 . 64.6(3)
O1 Mo2 O4 6_555 . 72.0(4)
O1 Mo2 O5 6_555 2_555 74.3(4)
O1 Mo2 O5 6_555 4_564 98.8(3)
O1 Mo2 O6 6_555 . 104.2(3)
O1 Mo2 O6 6_555 7_555 173.4(4)
O1 Mo2 O2 7_555 2_555 135.4(3)
O1 Mo2 O2 7_555 6_555 72.0(2)
O1 Mo2 O2 7_555 8_454 102.3(3)
O1 Mo2 O3 7_555 . 134.4(4)
O1 Mo2 O4 7_555 . 43.1(4)
O1 Mo2 O5 7_555 2_555 127.2(4)
O1 Mo2 O5 7_555 4_564 51.4(3)
O1 Mo2 O6 7_555 . 70.1(3)
O1 Mo2 O6 7_555 7_555 72.9(4)
O2 Mo2 O2 2_555 6_555 148.0(3)
O2 Mo2 O2 2_555 8_454 43.5(3)
O2 Mo2 O3 2_555 . 67.4(4)
O2 Mo2 O4 2_555 . 163.5(4)
O2 Mo2 O5 2_555 2_555 67.3(4)
O2 Mo2 O5 2_555 4_564 121.4(3)
O2 Mo2 O6 2_555 . 98.0(3)
O2 Mo2 O6 2_555 7_555 62.6(5)
O2 Mo2 O2 6_555 8_454 128.7(2)
O2 Mo2 O3 6_555 . 107.1(3)
O2 Mo2 O4 6_555 . 45.9(4)
O2 Mo2 O5 6_555 2_555 82.8(4)
O2 Mo2 O5 6_555 4_564 57.5(3)
O2 Mo2 O6 6_555 . 108.9(3)
O2 Mo2 O6 6_555 7_555 141.3(4)
O2 Mo2 O3 8_454 . 110.9(4)
O2 Mo2 O4 8_454 . 144.5(4)
O2 Mo2 O5 8_454 2_555 59.9(4)
O2 Mo2 O5 8_454 4_564 78.8(3)
O2 Mo2 O6 8_454 . 116.7(3)
O2 Mo2 O6 8_454 7_555 46.5(4)
O3 Mo2 O4 . . 102.5(5)
O3 Mo2 O5 . 2_555 96.9(5)
O3 Mo2 O5 . 4_564 163.3(4)
O3 Mo2 O6 . . 67.4(5)
O3 Mo2 O6 . 7_555 108.8(4)
O4 Mo2 O5 . 2_555 128.4(5)
O4 Mo2 O5 . 4_564 72.0(4)
O4 Mo2 O6 . . 65.6(4)
O4 Mo2 O6 . 7_555 111.5(5)
O5 Mo2 O5 2_555 4_564 75.9(5)
O5 Mo2 O6 2_555 . 162.3(4)
O5 Mo2 O6 2_555 7_555 106.4(5)
O5 Mo2 O6 4_564 . 121.4(4)
O5 Mo2 O6 4_564 7_555 87.7(4)
O6 Mo2 O6 . 7_555 73.1(4)
loop_
_geom_bond_atom_site_label_1
_geom_bond_atom_site_label_2
_geom_bond_site_symmetry_2
_geom_bond_distance
Gd1 Gd1 3_666 3.9033(16)
Gd1 Gd1 7_556 3.9958(18)
Gd1 O1 6_555 2.390(11)
Gd1 O2 . 2.402(12)
Gd1 O2 7_556 2.414(13)
Gd1 O3 . 2.361(10)
Gd1 O4 2_655 2.382(11)
Gd1 O4 4_565 2.389(10)
Gd1 O5 . 2.352(12)
Gd1 O6 2_655 2.389(10)
Mo1 O1 . 1.734(12)
Mo1 O1 2_555 1.734(12)
Mo1 O2 . 1.852(11)
Mo1 O2 2_555 1.852(11)
Mo2 O3 . 1.764(9)
Mo2 O4 . 1.856(12)
Mo2 O5 2_555 1.843(13)
Mo2 O6 7_555 1.782(10)
loop_
_pd_proc_point_id
_pd_proc_2theta_corrected
_pd_proc_intensity_net
_pd_calc_intensity_net
_pd_proc_ls_weight
1 2.9840 84.55 98.91 10.55
2 2.9860 113.92 98.97 12.10
3 2.9880 106.63 99.02 11.99
4 2.9900 105.69 99.08 11.93
5 2.9920 102.38 99.13 11.64
6 2.9940 86.41 99.19 10.62
7 2.9960 108.54 99.24 11.90
8 2.9980 110.26 99.29 12.22
9 3.0000 100.15 99.35 11.56
10 3.0020 107.33 99.40 11.96
11 3.0040 91.89 99.45 10.98
12 3.0060 102.94 99.50 11.53
13 3.0080 97.66 99.55 11.45
14 3.0100 113.01 99.59 12.44
15 3.0120 114.18 99.64 12.25
16 3.0140 100.96 99.69 11.43
17 3.0160 99.32 99.73 11.31
18 3.0180 104.81 99.78 11.84
19 3.0200 87.26 99.82 10.86
20 3.0220 120.89 99.87 12.63
21 3.0240 103.83 99.91 11.61
22 3.0260 97.25 99.95 11.22
23 3.0280 108.46 99.99 12.07
24 3.0300 116.81 100.03 12.54
25 3.0320 112.11 100.07 12.20
26 3.0340 98.58 100.11 11.31
27 3.0360 104.82 100.15 11.66
28 3.0380 109.17 100.19 12.15
29 3.0400 114.85 100.23 12.39
30 3.0420 120.12 100.26 12.54
31 3.0440 117.87 100.30 12.40
32 3.0460 132.99 100.33 13.07
33 3.0480 103.74 100.37 11.78
34 3.0500 120.82 100.40 12.84
35 3.0520 98.17 100.44 11.40
36 3.0540 116.23 100.47 12.23
37 3.0560 102.80 100.50 11.54
38 3.0580 105.20 100.53 11.90
39 3.0600 119.78 100.57 12.71
40 3.0620 112.54 100.60 12.15
41 3.0640 106.42 100.62 11.71
42 3.0660 92.70 100.65 10.95
43 3.0680 100.33 100.68 11.64
44 3.0700 118.86 100.71 12.67
45 3.0720 110.65 100.74 12.02
46 3.0740 108.96 100.76 11.78
47 3.0760 119.34 100.79 12.47
48 3.0780 105.27 100.82 11.87
49 3.0800 106.60 100.84 11.98
50 3.0820 90.48 100.86 10.91
51 3.0840 90.25 100.89 10.80
52 3.0860 102.56 100.91 11.49
53 3.0880 118.84 100.93 12.62
54 3.0900 84.08 100.96 10.66
55 3.0920 126.99 100.98 12.83
56 3.0940 110.05 101.00 11.97
57 3.0960 96.17 101.02 11.14
58 3.0980 113.24 101.04 12.29
59 3.1000 100.97 101.06 11.66
60 3.1020 95.63 101.07 11.24
61 3.1040 86.75 101.09 10.55
62 3.1060 129.92 101.11 13.03
63 3.1080 98.53 101.13 11.45
64 3.1100 113.92 101.14 12.38
65 3.1120 92.71 101.16 10.97
66 3.1140 96.87 101.18 11.20
67 3.1160 92.21 101.19 10.90
68 3.1180 127.37 101.21 13.10
69 3.1200 97.19 101.22 11.38
70 3.1220 99.45 101.23 11.33
71 3.1240 111.95 101.25 12.08
72 3.1260 87.82 101.26 10.71
73 3.1280 106.22 101.27 11.88
74 3.1300 109.68 101.28 12.19
75 3.1320 117.25 101.29 12.37
76 3.1340 99.55 101.30 11.33
77 3.1360 89.11 101.31 10.72
78 3.1380 90.91 101.32 10.99
79 3.1400 102.33 101.33 11.71
80 3.1420 92.94 101.34 11.00
81 3.1440 99.39 101.35 11.32
82 3.1460 99.32 101.35 11.39
83 3.1480 93.41 101.36 11.14
84 3.1500 105.13 101.37 11.85
85 3.1520 83.60 101.37 10.42
86 3.1540 106.21 101.38 11.73
87 3.1560 107.96 101.38 11.79
88 3.1580 98.30 101.39 11.43
89 3.1600 100.05 101.39 11.63
90 3.1620 95.42 101.40 11.06
91 3.1640 90.21 101.40 10.82
92 3.1660 85.33 101.40 10.56
93 3.1680 111.84 101.41 12.23
94 3.1700 106.49 101.41 11.95
95 3.1720 95.48 101.41 11.13
96 3.1740 104.20 101.41 11.53
97 3.1760 97.11 101.41 11.30
98 3.1780 113.32 101.41 12.37
99 3.1800 103.69 101.41 11.80
100 3.1820 88.16 101.41 10.73
101 3.1840 102.40 101.41 11.57
102 3.1860 101.05 101.41 11.45
103 3.1880 103.60 101.41 11.85
104 3.1900 80.66 101.41 10.41
105 3.1920 90.24 101.41 10.82
106 3.1940 112.26 101.40 11.95
107 3.1960 84.31 101.40 10.51
108 3.1980 89.01 101.40 10.95
109 3.2000 85.77 101.39 10.68
110 3.2020 96.31 101.39 11.19
111 3.2040 83.12 101.38 10.32
112 3.2060 84.67 101.38 10.51
113 3.2080 106.76 101.37 12.08
114 3.2100 99.94 101.37 11.58
115 3.2120 92.98 101.36 10.96
116 3.2140 103.57 101.36 11.53
117 3.2160 101.26 101.35 11.54
118 3.2180 90.32 101.34 11.09
119 3.2200 113.36 101.33 12.28
120 3.2220 112.61 101.33 12.07
121 3.2240 98.84 101.32 11.28
122 3.2260 120.76 101.31 12.60
123 3.2280 99.31 101.30 11.65
124 3.2300 102.60 101.29 11.69
125 3.2320 99.52 101.28 11.35
126 3.2340 111.35 101.27 11.91
127 3.2360 94.48 101.26 11.17
128 3.2380 76.11 101.25 10.22
129 3.2400 100.64 101.24 11.58
130 3.2420 100.23 101.23 11.38
131 3.2440 94.55 101.22 11.03
132 3.2460 108.24 101.21 11.98
133 3.2480 94.07 101.19 11.38
134 3.2500 87.55 101.18 10.83
135 3.2520 100.04 101.17 11.42
136 3.2540 104.28 101.16 11.62
137 3.2560 115.37 101.14 12.42
138 3.2580 111.60 101.13 12.38
139 3.2600 102.45 101.12 11.67
140 3.2620 106.64 101.10 11.85
141 3.2640 87.66 101.09 10.65
142 3.2660 104.83 101.07 11.80
143 3.2680 93.37 101.06 11.37
144 3.2700 111.10 101.04 12.16
145 3.2720 90.81 101.03 10.82
146 3.2740 85.18 101.01 10.54
147 3.2760 99.54 101.00 11.49
148 3.2780 95.43 100.98 11.43
149 3.2800 91.13 100.96 11.02
150 3.2820 107.05 100.95 11.79
151 3.2840 115.47 100.93 12.23
152 3.2860 86.37 100.91 10.67
153 3.2880 102.15 100.89 11.84
154 3.2900 96.86 100.88 11.39
155 3.2920 95.31 100.86 11.10
156 3.2940 106.13 100.84 11.68
157 3.2960 111.29 100.82 12.17
158 3.2980 105.24 100.80 12.04
159 3.3000 93.09 100.78 11.13
160 3.3020 105.21 100.76 11.71
161 3.3040 95.86 100.74 11.21
162 3.3060 106.00 100.72 11.89
163 3.3080 78.57 100.70 10.32
164 3.3100 107.31 100.68 11.99
165 3.3120 99.10 100.66 11.35
166 3.3140 93.83 100.64 11.01
167 3.3160 83.38 100.62 10.50
168 3.3180 98.82 100.60 11.75
169 3.3200 87.10 100.58 10.76
170 3.3220 83.19 100.56 10.45
171 3.3240 89.82 100.54 10.72
172 3.3260 105.03 100.51 11.84
173 3.3280 111.97 100.49 12.40
174 3.3300 96.48 100.47 11.32
175 3.3320 122.46 100.45 12.61
176 3.3340 98.35 100.42 11.25
177 3.3360 120.90 100.40 12.67
178 3.3380 102.39 100.38 11.84
179 3.3400 77.52 100.35 10.18
180 3.3420 90.31 100.33 10.80
181 3.3440 102.07 100.31 11.47
182 3.3460 116.92 100.28 12.45
183 3.3480 93.88 100.26 11.39
184 3.3500 106.04 100.23 11.88
185 3.3520 91.47 100.21 10.92
186 3.3540 104.42 100.18 11.60
187 3.3560 103.46 100.16 11.69
188 3.3580 104.02 100.13 11.97
189 3.3600 88.21 100.11 10.88
190 3.3620 103.93 100.08 11.61
191 3.3640 83.38 100.06 10.40
192 3.3660 127.60 100.03 13.05
193 3.3680 87.53 100.00 11.00
194 3.3700 85.78 99.98 10.74
195 3.3720 92.94 99.95 11.01
196 3.3740 87.66 99.92 10.63
197 3.3760 106.77 99.90 11.89
198 3.3780 85.00 99.87 10.82
199 3.3800 95.59 99.84 11.32
200 3.3820 94.89 99.82 11.15
201 3.3840 96.46 99.79 11.18
202 3.3860 92.97 99.76 11.05
203 3.3880 87.70 99.73 11.05
204 3.3900 114.42 99.71 12.45
205 3.3920 84.61 99.68 10.50
206 3.3940 95.94 99.65 11.14
207 3.3960 95.21 99.62 11.22
208 3.3980 92.82 99.59 11.30
209 3.4000 77.07 99.56 10.15
210 3.4020 87.76 99.54 10.77
211 3.4040 81.24 99.51 10.24
212 3.4060 91.71 99.48 11.01
213 3.4080 91.19 99.45 11.21
214 3.4100 108.38 99.42 12.09
215 3.4120 100.82 99.39 11.42
216 3.4140 103.30 99.36 11.58
217 3.4160 92.16 99.33 11.00
218 3.4180 100.29 99.30 11.77
219 3.4200 88.91 99.27 10.91
220 3.4220 115.37 99.24 12.28
221 3.4240 91.03 99.21 10.86
222 3.4260 106.49 99.18 11.80
223 3.4280 94.74 99.15 11.40
224 3.4300 102.55 99.12 11.70
225 3.4320 98.90 99.09 11.36
226 3.4340 92.82 99.06 10.95
227 3.4360 116.16 99.03 12.34
228 3.4380 88.10 99.00 10.99
229 3.4400 104.52 98.97 11.86
230 3.4420 97.38 98.93 11.29
231 3.4440 107.61 98.90 11.81
232 3.4460 106.78 98.87 11.80
233 3.4480 105.87 98.84 12.05
234 3.4500 88.93 98.81 11.03
235 3.4520 84.99 98.78 10.51
236 3.4540 106.43 98.75 11.75
237 3.4560 107.67 98.71 11.90
238 3.4580 89.80 98.68 11.15
239 3.4600 84.81 98.65 10.65
240 3.4620 96.19 98.62 11.31
241 3.4640 100.40 98.59 11.41
242 3.4660 90.64 98.55 10.90
243 3.4680 107.67 98.52 12.15
244 3.4700 101.97 98.49 11.74
245 3.4720 103.42 98.46 11.60
246 3.4740 101.65 98.42 11.44
247 3.4760 97.44 98.39 11.30
248 3.4780 100.78 98.36 11.79
249 3.4800 95.48 98.32 11.38
250 3.4820 92.09 98.29 10.95
251 3.4840 91.51 98.26 10.94
252 3.4860 107.09 98.23 11.86
253 3.4880 104.65 98.19 11.96
254 3.4900 96.64 98.16 11.42
255 3.4920 103.71 98.13 11.64
256 3.4940 102.65 98.09 11.56
257 3.4960 93.66 98.06 11.06
258 3.4980 101.16 98.03 11.75
259 3.5000 103.16 97.99 11.80
260 3.5020 88.57 97.96 10.82
261 3.5040 106.02 97.92 11.71
262 3.5060 99.38 97.89 11.43
263 3.5080 88.78 97.86 10.95
264 3.5100 95.33 97.82 11.32
265 3.5120 79.72 97.79 10.25
266 3.5140 102.70 97.76 11.61
267 3.5160 87.87 97.72 10.66
268 3.5180 104.75 97.69 12.03
269 3.5200 96.71 97.65 11.41
270 3.5220 99.17 97.62 11.43
271 3.5240 96.10 97.58 11.17
272 3.5260 107.01 97.55 11.91
273 3.5280 79.89 97.52 10.47
274 3.5300 85.63 97.48 10.73
275 3.5320 88.83 97.45 10.78
276 3.5340 100.29 97.41 11.42
277 3.5360 93.60 97.38 11.05
278 3.5380 102.44 97.34 11.75
279 3.5400 102.44 97.31 11.82
280 3.5420 95.43 97.27 11.15
281 3.5440 87.16 97.24 10.69
282 3.5460 97.91 97.20 11.32
283 3.5480 98.75 97.17 11.58
284 3.5500 101.93 97.14 11.74
285 3.5520 85.61 97.10 10.59
286 3.5540 83.42 97.07 10.46
287 3.5560 94.40 97.03 11.09
288 3.5580 107.46 97.00 12.03
289 3.5600 89.10 96.96 10.95
290 3.5620 92.42 96.93 10.98
291 3.5640 102.60 96.89 11.56
292 3.5660 78.49 96.86 10.12
293 3.5680 96.92 96.82 11.46
294 3.5700 94.68 96.79 11.34
295 3.5720 83.79 96.75 10.49
296 3.5740 88.52 96.72 10.73
297 3.5760 88.18 96.68 10.74
298 3.5780 91.72 96.65 11.15
299 3.5800 96.44 96.61 11.41
300 3.5820 101.65 96.58 11.52
301 3.5840 101.32 96.54 11.52
302 3.5860 84.88 96.50 10.46
303 3.5880 116.85 96.47 12.60
304 3.5900 105.97 96.43 12.01
305 3.5920 94.76 96.40 11.15
306 3.5940 105.29 96.36 11.71
307 3.5960 76.80 96.33 10.01
308 3.5980 106.82 96.29 12.02
309 3.6000 94.23 96.26 11.27
310 3.6020 106.86 96.22 11.79
311 3.6040 97.83 96.19 11.29
312 3.6060 87.92 96.15 10.72
313 3.6080 88.17 96.12 10.88
314 3.6100 81.65 96.08 10.54
315 3.6120 106.31 96.05 11.82
316 3.6140 107.49 96.01 11.83
317 3.6160 108.15 95.98 11.81
318 3.6180 109.28 95.94 12.15
319 3.6200 122.24 95.90 12.86
320 3.6220 97.71 95.87 11.33
321 3.6240 92.99 95.83 11.03
322 3.6260 102.20 95.80 11.50
323 3.6280 88.58 95.76 10.94
324 3.6300 114.27 95.73 12.35
325 3.6320 72.34 95.69 9.75
326 3.6340 101.17 95.66 11.41
327 3.6360 99.63 95.62 11.36
328 3.6380 100.73 95.59 11.61
329 3.6400 94.55 98.19 11.30
330 3.6420 93.37 98.23 11.01
331 3.6440 100.40 98.27 11.52
332 3.6460 105.35 98.31 11.71
333 3.6480 101.30 98.36 11.67
334 3.6500 92.13 100.29 11.16
335 3.6520 105.01 100.40 11.75
336 3.6540 90.38 100.52 10.88
337 3.6560 96.75 100.64 11.23
338 3.6580 103.07 100.77 11.71
339 3.6600 98.89 100.91 11.52
340 3.6620 101.16 101.06 11.57
341 3.6640 91.25 101.21 10.86
342 3.6660 99.91 101.38 11.44
343 3.6680 119.83 101.56 12.68
344 3.6700 81.07 101.74 10.49
345 3.6720 111.46 101.94 12.10
346 3.6740 112.49 102.15 12.12
347 3.6760 110.81 102.38 11.95
348 3.6780 111.46 102.61 12.23
349 3.6800 122.55 102.87 12.87
350 3.6820 101.87 103.14 11.53
351 3.6840 97.36 103.42 11.29
352 3.6860 93.30 103.73 10.98
353 3.6880 97.78 104.06 11.46
354 3.6900 95.90 104.41 11.35
355 3.6920 77.92 104.78 10.17
356 3.6940 85.14 105.18 10.49
357 3.6960 94.40 105.61 11.07
358 3.6980 114.69 106.07 12.35
359 3.7000 107.73 106.57 12.06
360 3.7020 109.60 107.10 12.04
361 3.7040 93.34 107.67 11.06
362 3.7060 124.54 108.29 12.76
363 3.7080 106.11 108.96 11.92
364 3.7100 96.08 109.68 11.46
365 3.7120 86.66 110.46 10.67
366 3.7140 111.82 111.31 12.07
367 3.7160 126.42 112.23 12.78
368 3.7180 137.18 113.24 13.56
369 3.7200 88.53 114.34 10.90
370 3.7220 113.58 115.54 12.24
371 3.7240 107.02 116.86 11.79
372 3.7260 121.57 118.31 12.61
373 3.7280 114.78 119.92 12.36
374 3.7300 123.51 121.69 12.98
375 3.7320 126.30 123.66 12.87
376 3.7340 116.51 125.86 12.30
377 3.7360 140.13 128.31 13.51
378 3.7380 132.56 131.07 13.38
379 3.7400 127.34 134.18 13.08
380 3.7420 152.86 137.71 14.09
381 3.7440 140.76 141.73 13.59
382 3.7460 132.03 146.33 13.04
383 3.7480 141.01 151.64 13.77
384 3.7500 132.15 157.80 13.39
385 3.7520 151.28 165.01 14.05
386 3.7540 156.84 173.52 14.23
387 3.7560 157.63 183.64 14.35
388 3.7580 196.75 195.81 16.22
389 3.7600 194.80 210.63 16.28
390 3.7620 211.88 228.90 16.75
391 3.7640 250.16 251.78 18.03
392 3.7660 285.89 280.94 19.21
393 3.7680 339.52 318.88 21.39
394 3.7700 399.37 369.65 23.27
395 3.7720 530.15 441.15 26.38
396 3.7740 702.67 552.77 30.32
397 3.7760 916.23 757.43 34.59
398 3.7780 1378.53 1182.56 43.44
399 3.7800 2269.89 2058.91 56.00
400 3.7820 3545.61 3647.51 70.22
401 3.7840 5647.15 5972.52 89.36
402 3.7860 7838.60 8374.98 106.13
403 3.7880 8895.73 9485.68 116.11
404 3.7900 7873.66 8606.05 109.48
405 3.7920 5690.06 6292.14 90.00
406 3.7940 3639.61 3861.95 70.44
407 3.7960 2535.86 2154.00 58.34
408 3.7980 1742.57 1213.27 48.82
409 3.8000 1283.60 766.63 41.91
410 3.8020 994.30 557.05 36.34
411 3.8040 766.24 444.03 31.95
412 3.8060 585.65 371.57 27.47
413 3.8080 490.68 320.03 25.62
414 3.8100 436.82 281.55 24.39
415 3.8120 386.77 251.99 22.55
416 3.8140 309.51 228.82 20.13
417 3.8160 275.94 210.31 18.84
418 3.8180 269.06 195.31 18.98
419 3.8200 260.88 182.98 18.75
420 3.8220 249.24 172.72 18.10
421 3.8240 233.43 164.10 17.38
422 3.8260 182.72 156.79 15.45
423 3.8280 140.97 150.52 13.71
424 3.8300 156.37 145.12 14.65
425 3.8320 153.21 140.43 14.24
426 3.8340 151.04 136.33 14.04
427 3.8360 133.00 132.72 13.10
428 3.8380 131.59 129.53 13.33
429 3.8400 140.85 126.70 13.80
430 3.8420 130.05 124.17 13.12
431 3.8440 158.49 121.90 14.41
432 3.8460 128.42 119.86 12.88
433 3.8480 135.05 118.01 13.47
434 3.8500 129.29 116.34 13.31
435 3.8520 107.65 114.82 11.92
436 3.8540 97.34 113.43 11.30
437 3.8560 116.15 112.15 12.29
438 3.8580 109.26 110.99 12.08
439 3.8600 109.62 109.91 12.12
440 3.8620 119.92 108.92 12.57
441 3.8640 102.28 108.01 11.57
442 3.8660 101.84 107.16 11.44
443 3.8680 100.22 106.37 11.60
444 3.8700 92.62 105.64 11.19
445 3.8720 89.59 104.95 10.88
446 3.8740 102.86 104.32 11.58
447 3.8760 99.26 103.72 11.36
448 3.8780 105.21 103.16 11.77
449 3.8800 94.12 102.82 11.24
450 3.8820 112.83 102.33 12.22
451 3.8840 113.26 101.87 12.21
452 3.8860 117.61 101.44 12.32
453 3.8880 89.46 101.03 10.91
454 3.8900 88.90 100.64 11.01
455 3.8920 93.33 100.28 11.08
456 3.8940 104.75 99.94 11.69
457 3.8960 120.18 99.61 12.53
458 3.8980 119.51 99.30 12.64
459 3.9000 105.02 99.01 11.90
460 3.9020 82.18 98.73 10.43
461 3.9040 107.17 98.46 11.83
462 3.9060 87.75 98.21 10.64
463 3.9080 98.76 97.97 11.45
464 3.9100 100.71 97.75 11.67
465 3.9120 80.86 97.53 10.35
466 3.9140 95.50 97.32 11.05
467 3.9160 101.27 97.13 11.49
468 3.9180 97.42 96.94 11.37
469 3.9200 105.20 96.76 11.94
470 3.9220 103.87 96.60 11.69
471 3.9240 105.79 96.44 11.75
472 3.9260 97.36 96.28 11.24
473 3.9280 86.07 96.14 10.74
474 3.9300 92.30 96.00 11.19
475 3.9320 88.82 94.06 10.82
476 3.9340 95.68 93.98 11.13
477 3.9360 85.42 91.36 10.50
478 3.9380 109.26 91.37 12.02
479 3.9400 99.31 91.38 11.61
480 3.9420 79.06 91.40 10.20
481 3.9440 94.55 91.41 11.10
482 3.9460 108.42 91.44 11.87
483 3.9480 87.23 91.47 10.77
484 3.9500 73.96 91.50 10.06
485 3.9520 84.50 91.54 10.59
486 3.9540 104.33 91.59 11.65
487 3.9560 88.03 91.65 10.67
488 3.9580 80.49 91.72 10.34
489 3.9600 95.20 91.80 11.33
490 3.9620 102.83 91.89 11.70
491 3.9640 85.01 92.01 10.52
492 3.9660 90.82 92.14 10.84
493 3.9680 88.10 92.30 10.84
494 3.9700 97.42 92.49 11.51
495 3.9720 78.47 92.71 10.19
496 3.9740 93.59 92.99 11.07
497 3.9760 90.36 93.32 10.86
498 3.9780 94.78 93.73 11.27
499 3.9800 94.87 94.23 11.35
500 3.9820 93.22 94.87 11.12
501 3.9840 106.33 95.67 11.78
502 3.9860 99.79 96.71 11.38
503 3.9880 89.38 98.09 10.97
504 3.9900 96.13 99.97 11.46
505 3.9920 96.55 102.60 11.30
506 3.9940 90.04 106.56 10.84
507 3.9960 109.98 113.65 11.93
508 3.9980 137.41 129.84 13.62
509 4.0000 175.88 170.52 15.50
510 4.0020 233.90 258.86 17.60
511 4.0040 427.45 399.92 23.53
512 4.0060 689.88 533.92 30.17
513 4.0080 719.88 537.00 31.22
514 4.0100 407.97 404.61 23.63
515 4.0120 215.24 261.97 16.94
516 4.0140 127.06 171.83 12.89
517 4.0160 109.91 130.14 11.90
518 4.0180 100.75 113.58 11.76
519 4.0200 74.59 106.36 10.02
520 4.0220 87.18 102.30 10.74
521 4.0240 90.93 99.60 10.86
522 4.0260 102.75 97.66 11.57
523 4.0280 94.57 96.22 11.27
524 4.0300 96.00 95.12 11.40
525 4.0320 99.21 94.25 8.91
526 4.0340 97.76 93.57 7.93
527 4.0360 102.64 93.01 9.15
528 4.0380 101.35 92.55 9.49
529 4.0400 94.18 92.17 9.57
530 4.0420 114.43 91.84 10.65
531 4.0440 81.80 91.56 9.03
532 4.0460 110.62 91.32 10.54
533 4.0480 91.63 91.11 9.73
534 4.0500 82.98 90.93 9.44
535 4.0520 92.48 90.76 9.96
536 4.0540 115.94 90.62 11.14
537 4.0560 108.47 93.25 10.74
538 4.0580 104.95 93.20 10.67
539 4.0600 99.95 93.15 10.56
540 4.0620 93.94 93.12 10.25
541 4.0640 84.93 93.10 9.67
542 4.0660 80.61 93.09 9.41
543 4.0680 80.17 93.08 9.47
544 4.0700 84.58 93.09 9.88
545 4.0720 82.44 93.10 9.74
546 4.0740 88.97 93.12 9.97
547 4.0760 96.43 93.14 10.40
548 4.0780 106.29 93.17 10.89
549 4.0800 115.61 93.21 11.53
550 4.0820 92.12 93.26 10.29
551 4.0840 113.44 93.31 11.26
552 4.0860 90.87 93.36 10.05
553 4.0880 100.72 93.43 10.64
554 4.0900 86.02 93.50 10.05
555 4.0920 92.36 93.57 10.26
556 4.0940 99.46 93.65 10.52
557 4.0960 99.32 93.74 10.56
558 4.0980 96.41 93.84 10.40
559 4.1000 74.60 93.94 9.27
560 4.1020 80.62 94.05 9.63
561 4.1040 101.34 94.17 10.65
562 4.1060 85.66 94.30 9.71
563 4.1080 93.95 94.43 10.28
564 4.1100 99.06 94.57 10.73
565 4.1120 90.43 94.73 10.14
566 4.1140 94.36 94.89 10.24
567 4.1160 91.30 95.06 10.12
568 4.1180 96.80 95.24 10.36
569 4.1200 86.70 95.44 10.03
570 4.1220 88.39 95.65 10.07
571 4.1240 95.85 95.87 10.35
572 4.1260 88.06 96.10 9.90
573 4.1280 102.20 96.36 10.66
574 4.1300 90.21 96.62 10.13
575 4.1320 105.05 96.91 10.96
576 4.1340 93.84 97.21 10.22
577 4.1360 106.78 97.35 10.97
578 4.1380 93.54 97.70 10.25
579 4.1400 94.78 98.08 10.49
580 4.1420 98.10 98.48 10.55
581 4.1440 84.41 98.91 9.71
582 4.1460 100.69 99.37 10.60
583 4.1480 82.43 99.86 9.58
584 4.1500 93.98 100.39 10.44
585 4.1520 110.65 100.95 11.19
586 4.1540 116.66 101.57 11.36
587 4.1560 94.26 102.22 10.20
588 4.1580 107.56 102.94 11.02
589 4.1600 138.18 103.71 12.61
590 4.1620 114.27 104.54 11.35
591 4.1640 97.38 105.45 10.41
592 4.1660 104.24 106.44 10.73
593 4.1680 119.52 107.52 11.62
594 4.1700 107.52 108.70 11.11
595 4.1720 136.25 109.99 12.50
596 4.1740 122.92 111.41 11.67
597 4.1760 111.71 112.98 11.12
598 4.1780 133.96 114.72 12.31
599 4.1800 146.56 116.64 13.07
600 4.1820 150.79 118.79 13.04
601 4.1840 134.71 121.19 12.26
602 4.1860 143.54 123.88 12.60
603 4.1880 147.41 126.92 13.00
604 4.1900 163.25 130.36 13.70
605 4.1920 172.78 134.27 14.05
606 4.1940 180.28 138.76 14.10
607 4.1960 198.30 143.93 14.81
608 4.1980 201.74 149.93 15.16
609 4.2000 221.39 156.94 16.00
610 4.2020 251.26 165.21 16.83
611 4.2040 267.53 175.04 17.13
612 4.2060 261.30 186.84 17.09
613 4.2080 312.56 201.19 18.93
614 4.2100 340.86 218.84 19.82
615 4.2120 385.67 240.88 20.75
616 4.2140 471.10 268.94 22.90
617 4.2160 529.26 305.72 24.20
618 4.2180 651.23 356.56 27.47
619 4.2200 742.13 433.61 29.17
620 4.2220 916.71 564.61 32.30
621 4.2240 1180.05 805.47 36.38
622 4.2260 1529.44 1246.18 41.63
623 4.2280 1901.00 1988.76 47.09
624 4.2300 2800.20 3078.00 57.86
625 4.2320 3771.86 4394.60 66.84
626 4.2340 4918.14 5522.37 76.49
627 4.2360 5582.18 5799.60 81.88
628 4.2380 5452.33 5007.51 81.71
629 4.2400 3958.83 3706.03 69.47
630 4.2420 2432.99 2474.87 53.23
631 4.2440 1498.00 1562.36 41.47
632 4.2460 1009.58 986.58 33.63
633 4.2480 644.42 661.93 27.25
634 4.2500 474.58 487.11 23.42
635 4.2520 411.09 388.99 21.51
636 4.2540 317.41 327.70 18.73
637 4.2560 259.14 285.05 16.92
638 4.2580 235.92 253.19 16.50
639 4.2600 213.65 228.46 15.62
640 4.2620 174.29 208.81 14.04
641 4.2640 177.28 192.95 14.13
642 4.2660 176.58 179.97 14.02
643 4.2680 136.34 169.21 12.50
644 4.2700 163.46 160.20 13.78
645 4.2720 131.52 152.58 12.18
646 4.2740 140.68 146.08 12.56
647 4.2760 133.66 140.50 12.23
648 4.2780 119.56 135.66 11.74
649 4.2800 134.22 131.45 12.42
650 4.2820 145.16 127.76 12.73
651 4.2840 101.74 124.50 10.69
652 4.2860 104.43 121.61 10.82
653 4.2880 117.91 119.05 11.59
654 4.2900 128.36 116.75 12.13
655 4.2920 106.37 114.69 10.98
656 4.2940 112.10 112.83 11.13
657 4.2960 118.83 111.15 11.50
658 4.2980 103.74 109.63 10.86
659 4.3000 121.30 108.24 11.81
660 4.3020 102.66 106.97 10.72
661 4.3040 102.83 105.81 10.76
662 4.3060 104.63 104.75 10.76
663 4.3080 93.67 103.77 10.35
664 4.3100 99.64 102.87 10.73
665 4.3120 100.11 102.03 10.64
666 4.3140 106.00 101.26 10.87
667 4.3160 105.95 100.54 10.89
668 4.3180 111.00 99.87 11.23
669 4.3200 100.06 99.25 10.78
670 4.3220 118.67 98.67 11.51
671 4.3240 117.42 98.13 11.45
672 4.3260 91.93 97.62 10.13
673 4.3280 98.92 97.15 10.60
674 4.3300 110.19 96.70 11.24
675 4.3320 121.06 96.28 11.66
676 4.3340 97.40 95.88 10.39
677 4.3360 97.43 95.51 10.44
678 4.3380 107.56 95.16 11.03
679 4.3400 83.04 94.82 9.79
680 4.3420 95.94 94.51 10.37
681 4.3440 101.47 94.21 10.66
682 4.3460 88.56 93.93 9.89
683 4.3480 99.42 93.66 10.66
684 4.3500 96.49 93.40 10.51
685 4.3520 110.36 93.16 11.17
686 4.3540 110.93 92.93 11.06
687 4.3560 89.89 92.70 10.03
688 4.3580 83.46 92.49 9.67
689 4.3600 117.53 92.29 11.53
690 4.3620 90.57 92.10 10.09
691 4.3640 73.56 91.92 9.09
692 4.3660 87.25 91.74 9.83
693 4.3680 94.53 91.57 10.34
694 4.3700 91.81 91.41 10.25
695 4.3720 77.83 91.25 9.34
696 4.3740 105.19 91.11 10.79
697 4.3760 104.88 90.96 10.80
698 4.3780 95.60 90.82 10.43
699 4.3800 96.31 90.69 10.46
700 4.3820 104.78 90.56 10.76
701 4.3840 95.17 90.44 10.32
702 4.3860 108.59 90.32 11.02
703 4.3880 94.52 90.21 10.30
704 4.3900 95.61 90.10 10.46
705 4.3920 103.38 89.99 10.71
706 4.3940 105.74 89.89 10.79
707 4.3960 82.90 89.79 9.62
708 4.3980 89.17 89.70 10.04
709 4.4000 92.42 89.60 10.24
710 4.4020 88.28 93.13 9.91
711 4.4040 105.83 93.15 10.85
712 4.4060 83.06 93.19 9.62
713 4.4080 82.16 93.23 9.61
714 4.4100 84.40 93.28 9.82
715 4.4120 104.02 93.34 10.77
716 4.4140 108.31 93.41 10.94
717 4.4160 93.49 93.49 10.18
718 4.4180 84.36 90.90 9.77
719 4.4200 100.03 91.06 10.64
720 4.4220 84.00 91.23 9.71
721 4.4240 97.72 91.40 10.44
722 4.4260 101.82 91.59 10.65
723 4.4280 114.98 91.79 11.39
724 4.4300 81.30 92.00 9.66
725 4.4320 94.98 92.22 10.34
726 4.4340 101.24 92.46 10.57
727 4.4360 91.38 92.72 10.13
728 4.4380 95.33 92.99 10.40
729 4.4400 95.39 93.28 10.40
730 4.4420 81.96 93.59 9.57
731 4.4440 105.27 93.92 10.80
732 4.4460 105.66 94.28 10.80
733 4.4480 111.02 94.66 11.23
734 4.4500 96.65 95.07 10.46
735 4.4520 95.68 95.51 10.30
736 4.4540 102.86 95.99 10.66
737 4.4560 103.80 96.51 10.81
738 4.4580 84.42 97.07 9.79
739 4.4600 111.82 97.67 11.29
740 4.4620 109.67 98.33 11.09
741 4.4640 101.67 99.05 10.58
742 4.4660 118.36 99.84 11.57
743 4.4680 141.44 100.70 12.68
744 4.4700 145.47 101.64 12.86
745 4.4720 140.02 102.68 12.50
746 4.4740 113.32 103.83 11.21
747 4.4760 132.94 105.10 12.21
748 4.4780 140.56 106.51 12.73
749 4.4800 126.56 108.09 11.94
750 4.4820 149.05 109.86 12.95
751 4.4840 129.67 111.86 11.99
752 4.4860 157.04 114.11 13.27
753 4.4880 126.23 116.67 12.06
754 4.4900 124.05 119.60 11.90
755 4.4920 117.35 122.97 11.42
756 4.4940 137.06 126.86 12.31
757 4.4960 138.27 131.41 12.47
758 4.4980 138.18 136.76 12.56
759 4.5000 160.75 143.10 13.50
760 4.5020 162.72 150.70 13.47
761 4.5040 167.03 159.91 13.56
762 4.5060 208.92 171.22 15.39
763 4.5080 221.92 185.30 16.06
764 4.5100 219.61 203.14 15.75
765 4.5120 277.29 226.18 17.56
766 4.5140 305.62 256.59 18.27
767 4.5160 389.66 297.91 21.07
768 4.5180 531.23 356.37 24.71
769 4.5200 645.92 446.39 27.05
770 4.5220 968.19 610.95 33.06
771 4.5240 1309.37 975.24 38.33
772 4.5260 2152.47 1804.15 50.08
773 4.5280 3589.00 3403.11 66.02
774 4.5300 5770.56 5679.59 84.13
775 4.5320 7871.11 7446.44 99.15
776 4.5340 6993.08 6882.24 92.13
777 4.5360 4310.44 4649.39 72.33
778 4.5380 2175.14 2598.93 50.94
779 4.5400 1153.93 1361.25 36.45
780 4.5420 689.56 776.81 27.91
781 4.5440 503.80 524.08 23.66
782 4.5460 356.60 401.25 20.18
783 4.5480 289.88 327.93 18.39
784 4.5500 227.99 278.05 16.13
785 4.5520 241.58 242.04 16.51
786 4.5540 175.10 215.17 13.90
787 4.5560 159.68 194.61 13.56
788 4.5580 137.35 178.54 12.72
789 4.5600 113.63 165.76 11.32
790 4.5620 122.90 155.42 11.80
791 4.5640 117.20 146.95 11.45
792 4.5660 124.08 139.92 11.81
793 4.5680 102.38 134.02 10.93
794 4.5700 125.41 129.03 12.00
795 4.5720 97.66 124.77 10.50
796 4.5740 104.52 121.10 10.74
797 4.5760 96.19 117.92 10.47
798 4.5780 85.72 115.14 10.01
799 4.5800 88.71 112.71 10.08
800 4.5820 91.13 110.56 10.13
801 4.5840 97.79 108.65 10.48
802 4.5860 101.95 106.95 10.69
803 4.5880 101.03 105.43 10.84
804 4.5900 92.81 104.06 10.31
805 4.5920 104.94 102.83 10.86
806 4.5940 100.37 101.71 10.56
807 4.5960 91.03 100.70 10.11
808 4.5980 99.37 99.78 10.77
809 4.6000 114.28 98.94 11.39
810 4.6020 83.63 98.17 9.70
811 4.6040 105.68 97.46 10.86
812 4.6060 91.76 96.80 10.17
813 4.6080 83.93 96.20 9.87
814 4.6100 78.27 95.65 9.46
815 4.6120 91.14 95.13 10.14
816 4.6140 83.59 94.65 9.72
817 4.6160 88.76 94.21 9.93
818 4.6180 91.20 93.79 10.34
819 4.6200 83.34 93.41 9.73
820 4.6220 103.72 93.04 10.79
821 4.6240 82.13 92.71 9.54
822 4.6260 84.03 92.39 9.70
823 4.6280 82.55 92.09 9.81
824 4.6300 75.74 91.81 9.36
825 4.6320 85.86 91.54 9.88
826 4.6340 84.51 91.30 9.68
827 4.6360 78.29 91.06 9.34
828 4.6380 100.22 90.84 10.75
829 4.6400 85.76 90.63 9.94
830 4.6420 104.53 90.43 10.86
831 4.6440 84.31 90.24 9.74
832 4.6460 80.40 90.06 9.47
833 4.6480 80.24 89.89 9.67
834 4.6500 106.83 89.73 11.01
835 4.6520 75.72 89.57 9.21
836 4.6540 97.54 89.43 10.45
837 4.6560 100.91 89.29 10.64
838 4.6580 83.98 89.15 9.84
839 4.6600 90.47 89.03 10.18
840 4.6620 79.04 88.90 9.48
841 4.6640 76.56 88.79 9.25
842 4.6660 76.41 85.21 9.23
843 4.6680 95.79 85.21 10.46
844 4.6700 77.58 85.20 9.43
845 4.6720 88.51 85.20 9.90
846 4.6740 80.42 85.19 9.50
847 4.6760 86.53 85.18 9.88
848 4.6780 65.66 85.18 8.69
849 4.6800 91.69 85.17 10.27
850 4.6820 89.07 85.17 10.01
851 4.6840 88.68 85.16 9.97
852 4.6860 90.31 85.16 10.02
853 4.6880 78.41 85.15 9.50
854 4.6900 81.50 85.23 9.64
855 4.6920 66.68 85.23 8.68
856 4.6940 71.45 85.23 8.90
857 4.6960 96.42 85.23 10.41
858 4.6980 82.68 85.22 9.73
859 4.7000 76.64 85.22 9.34
860 4.7020 97.55 85.22 10.46
861 4.7040 82.05 85.22 9.63
862 4.7060 87.26 85.22 9.83
863 4.7080 92.42 85.22 10.34
864 4.7100 92.19 85.21 10.30
865 4.7120 97.04 85.21 10.43
866 4.7140 95.01 85.21 10.29
867 4.7160 89.36 85.21 9.97
868 4.7180 92.33 85.21 10.32
869 4.7200 66.92 85.21 8.74
870 4.7220 54.68 85.21 7.86
871 4.7240 106.42 85.21 10.88
872 4.7260 96.46 85.22 10.38
873 4.7280 64.15 85.22 8.58
874 4.7300 88.57 85.22 10.13
875 4.7320 85.22 85.22 9.75
876 4.7340 67.42 85.22 8.70
877 4.7360 83.35 85.23 9.66
878 4.7380 93.72 85.23 10.43
879 4.7400 71.97 85.24 9.07
880 4.7420 62.59 85.24 8.39
881 4.7440 75.96 85.25 9.25
882 4.7460 73.93 85.26 9.01
883 4.7480 71.29 85.27 9.06
884 4.7500 94.57 85.27 10.38
885 4.7520 77.80 85.29 9.37
886 4.7540 80.03 85.30 9.43
887 4.7560 79.32 85.31 9.40
888 4.7580 73.44 85.33 9.15
889 4.7600 74.46 85.34 9.25
890 4.7620 84.59 85.36 9.76
891 4.7640 70.93 85.38 8.95
892 4.7660 79.93 85.41 9.37
893 4.7680 78.29 85.43 9.51
894 4.7700 74.63 85.46 9.27
895 4.7720 77.54 85.50 9.27
896 4.7740 88.64 85.53 9.96
897 4.7760 85.25 85.58 9.74
898 4.7780 83.21 85.63 9.84
899 4.7800 76.81 85.68 9.35
900 4.7820 74.78 85.75 9.19
901 4.7840 80.07 85.82 9.48
902 4.7860 83.51 85.91 9.60
903 4.7880 79.28 86.01 9.57
904 4.7900 97.88 86.13 10.58
905 4.7920 94.90 86.27 10.34
906 4.7940 81.89 86.44 9.59
907 4.7960 80.71 86.64 9.49
908 4.7980 68.45 86.88 8.88
909 4.8000 69.38 87.18 8.93
910 4.8020 60.41 87.56 8.22
911 4.8040 69.34 88.04 8.85
912 4.8060 81.75 88.66 9.49
913 4.8080 81.56 89.48 9.68
914 4.8100 86.41 90.60 9.92
915 4.8120 79.95 92.21 9.52
916 4.8140 81.14 94.75 9.47
917 4.8160 100.39 99.51 10.56
918 4.8180 93.64 109.71 10.41
919 4.8200 130.56 131.02 12.15
920 4.8220 177.88 168.33 14.10
921 4.8240 202.79 216.81 15.12
922 4.8260 273.13 248.87 17.41
923 4.8280 246.42 231.64 16.69
924 4.8300 182.03 185.57 14.48
925 4.8320 141.04 145.12 12.57
926 4.8340 118.56 119.70 11.50
927 4.8360 121.71 105.73 11.61
928 4.8380 112.70 98.28 11.34
929 4.8400 97.24 94.13 10.51
930 4.8420 102.94 91.66 10.72
931 4.8440 92.45 90.10 10.16
932 4.8460 90.17 89.05 10.01
933 4.8480 77.87 88.30 9.46
934 4.8500 87.69 87.73 9.99
935 4.8520 77.97 87.28 9.42
936 4.8540 82.76 86.93 9.56
937 4.8560 88.63 86.65 9.94
938 4.8580 77.54 86.41 9.43
939 4.8600 74.06 86.22 9.20
940 4.8620 80.88 86.05 9.54
941 4.8640 80.58 85.91 9.47
942 4.8660 96.80 85.80 10.37
943 4.8680 76.61 85.69 9.37
944 4.8700 71.97 85.60 9.08
945 4.8720 95.07 85.52 10.36
946 4.8740 87.73 85.45 9.93
947 4.8760 58.42 85.39 8.06
948 4.8780 82.78 85.34 9.77
949 4.8800 80.41 85.29 9.62
950 4.8820 71.43 85.24 8.96
951 4.8840 89.16 85.20 9.95
952 4.8860 73.47 85.16 9.03
953 4.8880 85.00 85.13 9.89
954 4.8900 85.50 85.10 9.85
955 4.8920 69.54 85.07 8.86
956 4.8940 66.13 85.04 8.60
957 4.8960 94.17 85.02 10.24
958 4.8980 67.08 85.00 8.78
959 4.9000 86.92 84.98 9.97
960 4.9020 99.57 84.96 10.57
961 4.9040 81.25 84.94 9.53
962 4.9060 70.24 84.92 8.85
963 4.9080 89.38 84.90 10.18
964 4.9100 80.03 84.89 9.58
965 4.9120 73.23 84.87 9.07
966 4.9140 90.24 84.86 10.00
967 4.9160 84.15 84.84 9.67
968 4.9180 85.93 84.83 9.90
969 4.9200 78.55 84.82 9.45
970 4.9220 66.21 84.81 8.62
971 4.9240 88.13 84.80 9.89
972 4.9260 79.41 84.78 9.40
973 4.9280 85.22 84.77 9.95
974 4.9300 92.72 84.76 10.26
975 4.9320 75.59 84.75 9.21
976 4.9340 92.63 84.74 10.14
977 4.9360 85.15 84.74 9.76
978 4.9380 85.63 84.73 9.96
979 4.9400 81.83 84.72 9.67
980 4.9420 83.30 84.71 9.67
981 4.9440 78.88 84.70 9.38
982 4.9460 78.75 84.69 9.33
983 4.9480 71.84 84.69 9.16
984 4.9500 78.10 84.68 9.45
985 4.9520 78.50 84.67 9.39
986 4.9540 70.90 84.66 8.83
987 4.9560 75.29 84.66 9.18
988 4.9580 73.20 84.65 9.23
989 4.9600 78.02 84.64 9.40
990 4.9620 89.92 84.64 10.06
991 4.9640 86.30 84.63 9.81
992 4.9660 70.34 84.54 8.85
993 4.9680 94.99 84.54 10.50
994 4.9700 88.39 84.53 10.06
995 4.9720 74.50 84.53 9.14
996 4.9740 82.32 84.52 9.55
997 4.9760 82.17 84.52 9.59
998 4.9780 85.43 84.51 10.00
999 4.9800 93.18 84.51 10.26
1000 4.9820 79.53 84.51 9.47
1001 4.9840 77.79 84.50 9.29
1002 4.9860 83.32 84.50 9.66
1003 4.9880 77.29 84.49 9.47
1004 4.9900 73.37 84.49 9.19
1005 4.9920 74.73 84.49 9.15
1006 4.9940 69.33 84.48 8.79
1007 4.9960 81.95 84.48 9.55
1008 4.9980 64.03 84.47 8.65
1009 5.0000 71.36 84.47 9.01
1010 5.0020 64.70 84.47 8.51
1011 5.0040 59.35 84.46 8.12
1012 5.0060 71.20 84.46 8.94
1013 5.0080 94.32 84.45 10.48
1014 5.0100 89.88 84.45 10.13
1015 5.0120 73.68 84.45 9.09
1016 5.0140 75.21 84.44 9.15
1017 5.0160 97.53 84.44 10.43
1018 5.0180 84.60 84.43 9.91
1019 5.0200 91.26 84.43 10.20
1020 5.0220 75.16 84.43 9.17
1021 5.0240 77.49 84.42 9.29
1022 5.0260 79.72 84.42 9.39
1023 5.0280 89.15 84.41 10.15
1024 5.0300 79.40 84.41 9.56
1025 5.0320 76.10 84.40 9.30
1026 5.0340 81.51 84.40 9.46
1027 5.0360 98.01 84.40 10.51
1028 5.0380 78.84 84.39 9.52
1029 5.0400 104.68 84.39 10.94
1030 5.0420 83.89 84.38 9.70
1031 5.0440 81.73 84.38 9.54
1032 5.0460 107.94 84.38 10.91
1033 5.0480 83.74 84.37 9.85
1034 5.0500 85.16 84.37 9.89
1035 5.0520 81.55 84.36 9.62
1036 5.0540 90.32 84.36 9.95
1037 5.0560 65.82 84.35 8.64
1038 5.0580 88.33 84.35 10.09
1039 5.0600 61.45 84.35 8.38
1040 5.0620 81.73 84.34 9.58
1041 5.0640 100.05 84.34 10.54
1042 5.0660 79.70 84.33 9.41
1043 5.0680 93.99 84.33 10.43
1044 5.0700 98.05 84.32 10.60
1045 5.0720 83.88 84.32 9.70
1046 5.0740 80.43 84.32 9.43
1047 5.0760 84.06 84.31 9.72
1048 5.0780 85.65 84.31 9.92
1049 5.0800 86.45 84.30 9.95
1050 5.0820 89.30 84.30 9.98
1051 5.0840 91.70 84.29 10.08
1052 5.0860 67.17 84.29 8.63
1053 5.0880 101.67 84.29 10.76
1054 5.0900 100.38 84.28 10.68
1055 5.0920 93.55 84.28 10.23
1056 5.0940 86.91 84.27 9.75
1057 5.0960 85.35 84.27 9.78
1058 5.0980 84.67 84.26 9.91
1059 5.1000 74.06 84.26 9.16
1060 5.1020 85.18 84.25 9.73
1061 5.1040 92.14 84.25 10.09
1062 5.1060 86.92 84.25 9.89
1063 5.1080 88.86 84.24 10.09
1064 5.1100 79.08 84.24 9.50
1065 5.1120 91.84 84.23 10.13
1066 5.1140 95.64 84.23 10.29
1067 5.1160 79.67 84.22 9.46
1068 5.1180 96.20 84.22 10.47
1069 5.1200 91.01 84.21 10.20
1070 5.1220 83.92 84.21 9.65
1071 5.1240 85.98 84.20 9.75
1072 5.1260 80.59 84.20 9.49
1073 5.1280 88.07 84.20 10.05
1074 5.1300 91.78 84.19 10.21
1075 5.1320 86.30 84.19 9.79
1076 5.1340 88.47 84.18 9.85
1077 5.1360 80.50 84.18 9.52
1078 5.1380 93.17 84.17 10.33
1079 5.1400 92.33 84.17 10.27
1080 5.1420 99.99 84.16 10.56
1081 5.1440 79.27 84.16 9.36
1082 5.1460 65.35 84.15 8.56
1083 5.1480 87.47 84.15 10.02
1084 5.1500 75.53 84.14 9.32
1085 5.1520 73.17 84.14 9.03
1086 5.1540 74.76 84.13 9.06
1087 5.1560 80.89 84.13 9.56
1088 5.1580 96.23 84.12 10.50
1089 5.1600 74.22 84.12 9.23
1090 5.1620 97.69 84.11 10.41
1091 5.1640 63.66 84.11 8.39
1092 5.1660 67.69 84.10 8.75
1093 5.1680 88.65 84.10 10.11
1094 5.1700 85.52 84.09 9.86
1095 5.1720 68.06 84.09 8.71
1096 5.1740 90.33 84.08 9.95
1097 5.1760 78.20 84.08 9.40
1098 5.1780 87.73 84.07 10.03
1099 5.1800 103.79 84.07 10.91
1100 5.1820 84.41 84.06 9.64
1101 5.1840 69.47 84.06 8.77
1102 5.1860 86.00 84.05 9.89
1103 5.1880 102.07 84.05 10.86
1104 5.1900 87.39 84.04 9.97
1105 5.1920 79.53 84.04 9.36
1106 5.1940 93.95 84.03 10.18
1107 5.1960 78.30 84.03 9.41
1108 5.1980 83.11 84.02 9.76
1109 5.2000 73.47 84.02 9.13
1110 5.2020 75.56 84.01 9.14
1111 5.2040 79.09 84.01 9.30
1112 5.2060 79.18 84.00 9.48
1113 5.2080 74.95 84.00 9.33
1114 5.2100 95.11 83.99 10.36
1115 5.2120 79.31 83.99 9.32
1116 5.2140 85.07 83.98 9.67
1117 5.2160 92.14 83.97 10.27
1118 5.2180 79.69 83.97 9.55
1119 5.2200 78.14 83.96 9.36
1120 5.2220 94.11 83.96 10.20
1121 5.2240 98.00 83.95 10.35
1122 5.2260 88.77 83.95 10.10
1123 5.2280 82.34 83.94 9.75
1124 5.2300 90.23 83.94 10.08
1125 5.2320 98.43 83.93 10.39
1126 5.2340 81.41 83.93 9.54
1127 5.2360 105.47 83.92 10.98
1128 5.2380 89.36 83.91 10.12
1129 5.2400 82.98 83.91 9.68
1130 5.2420 99.70 83.90 10.49
1131 5.2440 80.77 83.90 9.41
1132 5.2460 83.37 83.89 9.80
1133 5.2480 89.65 83.89 10.22
1134 5.2500 100.18 83.88 10.62
1135 5.2520 85.43 83.87 9.71
1136 5.2540 89.66 83.87 9.99
1137 5.2560 104.88 83.86 11.01
1138 5.2580 83.68 83.86 9.86
1139 5.2600 85.25 83.85 9.80
1140 5.2620 85.83 83.84 9.81
1141 5.2640 85.05 83.84 9.70
1142 5.2660 87.21 83.83 10.02
1143 5.2680 95.21 83.83 10.51
1144 5.2700 91.31 83.82 10.27
1145 5.2720 72.91 83.82 8.95
1146 5.2740 80.05 83.81 9.44
1147 5.2760 89.46 83.80 10.21
1148 5.2780 96.65 83.80 10.57
1149 5.2800 89.65 83.79 10.06
1150 5.2820 106.26 83.78 10.92
1151 5.2840 89.76 83.78 9.98
1152 5.2860 86.06 83.77 9.90
1153 5.2880 90.36 83.77 10.25
1154 5.2900 87.86 83.76 10.00
1155 5.2920 94.25 83.75 10.22
1156 5.2940 72.82 83.75 8.99
1157 5.2960 64.24 83.74 8.66
1158 5.2980 101.85 83.74 10.90
1159 5.3000 89.05 83.73 10.03
1160 5.3020 99.12 83.72 10.56
1161 5.3040 102.64 83.72 10.68
1162 5.3060 91.71 83.71 10.31
1163 5.3080 82.27 83.70 9.76
1164 5.3100 87.06 83.70 9.98
1165 5.3120 98.83 83.69 10.47
1166 5.3140 74.52 83.68 9.10
1167 5.3160 91.53 83.68 10.24
1168 5.3180 84.99 83.67 9.97
1169 5.3200 87.63 83.66 9.96
1170 5.3220 86.59 83.66 9.84
1171 5.3240 89.32 83.65 9.93
1172 5.3260 92.04 83.64 10.37
1173 5.3280 116.17 83.64 11.63
1174 5.3300 107.22 83.63 11.04
1175 5.3320 89.50 83.62 9.96
1176 5.3340 86.20 83.62 9.81
1177 5.3360 73.13 83.61 9.14
1178 5.3380 95.82 83.60 10.54
1179 5.3400 89.92 83.60 10.11
1180 5.3420 91.06 83.59 10.07
1181 5.3440 77.55 83.58 9.24
1182 5.3460 82.48 83.58 9.77
1183 5.3480 100.33 83.57 10.85
1184 5.3500 100.53 83.56 10.63
1185 5.3520 107.87 83.56 10.96
1186 5.3540 95.72 83.55 10.30
1187 5.3560 94.14 83.54 10.41
1188 5.3580 84.98 83.53 9.97
1189 5.3600 97.69 83.53 10.53
1190 5.3620 90.89 83.52 10.09
1191 5.3640 81.74 83.51 9.53
1192 5.3660 89.08 83.51 10.15
1193 5.3680 90.45 83.50 10.25
1194 5.3700 108.01 83.49 11.10
1195 5.3720 94.48 83.48 10.23
1196 5.3740 85.00 83.48 9.69
1197 5.3760 82.11 83.47 9.76
1198 5.3780 70.44 83.46 9.11
1199 5.3800 95.20 83.46 10.33
1200 5.3820 75.36 83.45 9.23
1201 5.3840 88.53 83.44 9.89
1202 5.3860 87.16 83.43 10.04
1203 5.3880 84.88 83.43 9.96
1204 5.3900 87.70 83.42 10.04
1205 5.3920 98.65 83.41 10.50
1206 5.3940 86.89 83.40 9.79
1207 5.3960 77.28 83.40 9.47
1208 5.3980 87.75 83.39 10.13
1209 5.4000 84.90 83.38 9.81
1210 5.4020 69.95 83.37 8.85
1211 5.4040 83.76 83.37 9.70
1212 5.4060 88.44 83.36 10.03
1213 5.4080 93.36 83.35 10.42
1214 5.4100 79.47 83.34 9.53
1215 5.4120 87.79 83.33 9.95
1216 5.4140 93.76 83.33 10.15
1217 5.4160 98.82 83.32 10.63
1218 5.4180 97.79 83.31 10.75
1219 5.4200 97.96 83.30 10.53
1220 5.4220 87.79 83.29 9.88
1221 5.4240 81.97 83.29 9.53
1222 5.4260 96.00 83.28 10.49
1223 5.4280 79.80 83.27 9.65
1224 5.4300 71.27 83.26 9.00
1225 5.4320 80.97 83.25 9.56
1226 5.4340 86.98 83.25 9.82
1227 5.4360 91.83 83.24 10.21
1228 5.4380 86.38 83.23 10.06
1229 5.4400 83.21 83.22 9.74
1230 5.4420 62.63 83.21 8.37
1231 5.4440 97.32 83.21 10.38
1232 5.4460 95.61 83.20 10.47
1233 5.4480 87.89 83.19 10.12
1234 5.4500 81.94 83.18 9.71
1235 5.4520 72.78 83.17 9.02
1236 5.4540 81.32 83.16 9.47
1237 5.4560 83.74 83.16 9.81
1238 5.4580 84.12 83.15 9.86
1239 5.4600 94.72 83.14 10.36
1240 5.4620 61.53 83.13 8.36
1241 5.4640 85.41 83.12 9.73
1242 5.4660 85.59 83.11 9.91
1243 5.4680 101.13 83.10 10.87
1244 5.4700 79.83 83.10 9.57
1245 5.4720 89.35 83.09 9.97
1246 5.4740 75.38 83.08 9.15
1247 5.4760 88.42 83.07 10.01
1248 5.4780 111.45 83.06 11.33
1249 5.4800 75.15 83.05 9.23
1250 5.4820 92.84 83.04 10.26
1251 5.4840 77.71 83.03 9.26
1252 5.4860 68.97 83.03 8.89
1253 5.4880 87.83 83.02 10.08
1254 5.4900 97.86 83.01 10.63
1255 5.4920 99.21 83.00 10.52
1256 5.4940 80.20 82.99 9.44
1257 5.4960 104.89 82.98 10.92
1258 5.4980 78.01 82.97 9.51
1259 5.5000 85.02 82.96 9.86
1260 5.5020 92.20 82.95 10.19
1261 5.5040 104.56 82.94 10.76
1262 5.5060 72.78 82.93 9.08
1263 5.5080 83.09 82.93 9.83
1264 5.5100 83.68 82.92 9.75
1265 5.5120 89.54 82.91 10.06
1266 5.5140 71.10 82.90 8.88
1267 5.5160 76.13 82.89 9.32
1268 5.5180 75.03 82.88 9.34
1269 5.5200 81.45 82.87 9.65
1270 5.5220 90.66 82.86 10.07
1271 5.5240 73.67 82.85 9.06
1272 5.5260 79.31 82.84 9.49
1273 5.5280 83.20 82.83 9.82
1274 5.5300 86.99 82.82 10.00
1275 5.5320 98.78 82.81 10.59
1276 5.5340 86.03 82.80 9.71
1277 5.5360 84.19 82.79 9.76
1278 5.5380 77.63 82.78 9.52
1279 5.5400 88.35 82.77 10.02
1280 5.5420 84.70 82.76 9.75
1281 5.5440 86.24 82.75 9.80
1282 5.5460 89.24 82.74 10.09
1283 5.5480 93.72 82.73 10.41
1284 5.5500 79.07 82.72 9.51
1285 5.5520 84.02 82.71 9.77
1286 5.5540 73.14 82.70 8.98
1287 5.5560 81.81 82.69 9.59
1288 5.5580 99.65 82.68 10.74
1289 5.5600 88.50 82.67 10.05
1290 5.5620 70.82 82.66 8.89
1291 5.5640 85.37 82.65 9.76
1292 5.5660 86.96 82.64 9.90
1293 5.5680 79.67 82.63 9.63
1294 5.5700 63.87 82.62 8.56
1295 5.5720 85.80 82.61 9.82
1296 5.5740 93.30 82.60 10.18
1297 5.5760 86.23 82.59 9.91
1298 5.5780 79.85 82.58 9.58
1299 5.5800 85.43 82.57 9.87
1300 5.5820 85.80 82.56 9.84
1301 5.5840 90.76 82.55 10.02
1302 5.5860 94.26 82.54 10.31
1303 5.5880 90.30 82.53 10.25
1304 5.5900 77.36 82.52 9.43
1305 5.5920 87.97 82.51 9.93
1306 5.5940 78.14 82.50 9.34
1307 5.5960 88.60 82.49 9.95
1308 5.5980 100.69 82.48 10.83
1309 5.6000 87.96 82.47 10.05
1310 5.6020 93.66 82.46 10.25
1311 5.6040 76.15 82.45 9.21
1312 5.6060 107.44 82.43 11.04
1313 5.6080 74.88 82.42 9.27
1314 5.6100 85.00 82.41 9.85
1315 5.6120 82.09 82.40 9.62
1316 5.6140 73.46 82.39 9.04
1317 5.6160 106.07 82.38 10.90
1318 5.6180 63.54 82.37 8.60
1319 5.6200 82.44 82.36 9.69
1320 5.6220 77.22 82.35 9.31
1321 5.6240 66.11 82.34 8.59
1322 5.6260 63.11 82.32 8.44
1323 5.6280 73.14 82.31 9.17
1324 5.6300 85.69 82.30 9.89
1325 5.6320 84.87 82.29 9.81
1326 5.6340 94.92 82.28 10.22
1327 5.6360 67.05 82.27 8.65
1328 5.6380 75.39 82.26 9.34
1329 5.6400 92.82 82.25 10.28
1330 5.6420 77.62 82.23 9.34
1331 5.6440 80.51 82.22 9.49
1332 5.6460 100.61 82.21 10.62
1333 5.6480 84.44 82.20 9.92
1334 5.6500 80.37 82.19 9.59
1335 5.6520 70.06 82.18 8.87
1336 5.6540 89.38 82.17 9.99
1337 5.6560 76.03 82.15 9.25
1338 5.6580 92.33 82.14 10.30
1339 5.6600 83.25 82.13 9.71
1340 5.6620 81.38 82.12 9.57
1341 5.6640 71.05 82.11 8.85
1342 5.6660 74.48 82.09 9.18
1343 5.6680 96.85 82.08 10.56
1344 5.6700 77.71 82.07 9.43
1345 5.6720 80.91 82.06 9.51
1346 5.6740 84.88 82.05 9.71
1347 5.6760 72.81 82.04 9.09
1348 5.6780 81.71 82.12 9.66
1349 5.6800 77.97 82.11 9.43
1350 5.6820 83.56 82.10 9.65
1351 5.6840 73.96 82.09 9.07
1352 5.6860 76.64 82.08 9.26
1353 5.6880 81.22 82.07 9.69
1354 5.6900 89.38 82.06 10.07
1355 5.6920 77.12 82.05 9.34
1356 5.6940 61.37 82.04 8.26
1357 5.6960 90.18 82.03 10.10
1358 5.6980 80.80 82.02 9.68
1359 5.7000 90.10 82.01 10.10
1360 5.7020 89.10 82.01 10.07
1361 5.7040 84.25 82.00 9.67
1362 5.7060 85.64 81.99 9.82
1363 5.7080 81.84 81.98 9.69
1364 5.7100 69.82 81.97 8.94
1365 5.7120 66.18 81.97 8.64
1366 5.7140 68.49 81.96 8.69
1367 5.7160 57.49 81.95 8.08
1368 5.7180 89.94 81.94 10.13
1369 5.7200 72.40 81.94 9.04
1370 5.7220 72.86 81.93 9.04
1371 5.7240 60.74 81.93 8.24
1372 5.7260 84.39 81.92 9.72
1373 5.7280 66.40 81.91 8.73
1374 5.7300 73.62 81.91 9.16
1375 5.7320 93.53 81.90 10.32
1376 5.7340 97.63 81.90 10.37
1377 5.7360 69.94 81.90 8.91
1378 5.7380 82.09 81.89 9.74
1379 5.7400 78.75 81.89 9.50
1380 5.7420 67.70 81.89 8.73
1381 5.7440 81.99 81.89 9.56
1382 5.7460 84.05 81.89 9.72
1383 5.7480 70.86 81.89 9.03
1384 5.7500 90.89 81.89 10.17
1385 5.7520 66.54 81.90 8.70
1386 5.7540 66.21 81.90 8.55
1387 5.7560 87.44 81.91 9.88
1388 5.7580 62.99 81.91 8.59
1389 5.7600 69.17 81.92 8.86
1390 5.7620 83.36 81.93 9.67
1391 5.7640 86.87 81.94 9.84
1392 5.7660 82.04 81.96 9.65
1393 5.7680 82.20 81.98 9.73
1394 5.7700 82.75 82.00 9.70
1395 5.7720 84.41 82.02 9.81
1396 5.7740 86.14 82.05 9.75
1397 5.7760 72.23 82.08 9.02
1398 5.7780 90.40 82.12 10.19
1399 5.7800 88.08 82.17 10.06
1400 5.7820 71.72 82.22 8.96
1401 5.7840 70.79 82.28 8.89
1402 5.7860 73.27 82.34 9.07
1403 5.7880 78.32 82.42 9.56
1404 5.7900 94.31 82.52 10.36
1405 5.7920 75.91 82.62 9.27
1406 5.7940 82.64 82.75 9.63
1407 5.7960 75.59 82.90 9.22
1408 5.7980 79.05 83.09 9.58
1409 5.8000 77.05 83.30 9.43
1410 5.8020 75.94 83.57 9.23
1411 5.8040 72.04 83.89 8.92
1412 5.8060 95.42 84.29 10.40
1413 5.8080 81.40 84.79 9.68
1414 5.8100 83.27 85.42 9.76
1415 5.8120 90.45 86.25 10.11
1416 5.8140 89.73 87.35 9.98
1417 5.8160 93.01 88.87 10.21
1418 5.8180 94.08 91.10 10.40
1419 5.8200 104.82 94.80 10.93
1420 5.8220 101.43 101.65 10.68
1421 5.8240 127.01 114.72 11.87
1422 5.8260 172.23 137.91 13.85
1423 5.8280 170.29 172.91 13.99
1424 5.8300 234.77 213.06 16.43
1425 5.8320 246.85 235.32 16.69
1426 5.8340 240.90 218.15 16.35
1427 5.8360 226.31 178.66 15.96
1428 5.8380 160.57 142.16 13.60
1429 5.8400 123.70 117.23 11.81
1430 5.8420 119.02 102.90 11.58
1431 5.8440 87.66 95.36 9.89
1432 5.8460 80.14 91.31 9.42
1433 5.8480 83.53 88.90 9.84
1434 5.8500 72.09 87.28 9.09
1435 5.8520 97.52 86.10 10.46
1436 5.8540 85.65 85.21 9.79
1437 5.8560 79.70 84.52 9.49
1438 5.8580 83.13 83.97 9.82
1439 5.8600 83.72 83.53 9.78
1440 5.8620 87.04 83.17 9.94
1441 5.8640 72.24 82.87 8.97
1442 5.8660 75.95 82.62 9.27
1443 5.8680 59.38 82.40 8.27
1444 5.8700 57.71 82.22 8.15
1445 5.8720 67.76 82.06 8.72
1446 5.8740 86.31 81.92 9.79
1447 5.8760 89.86 81.79 10.05
1448 5.8780 73.82 81.68 9.19
1449 5.8800 79.34 81.58 9.50
1450 5.8820 74.44 81.49 9.16
1451 5.8840 82.62 81.41 9.61
1452 5.8860 78.64 81.34 9.39
1453 5.8880 85.52 81.27 9.89
1454 5.8900 72.99 81.21 9.13
1455 5.8920 87.56 81.15 9.97
1456 5.8940 81.28 81.10 9.45
1457 5.8960 81.47 81.05 9.55
1458 5.8980 59.89 81.00 8.34
1459 5.9000 80.12 80.95 9.56
1460 5.9020 66.97 80.91 8.69
1461 5.9040 72.14 80.87 8.97
1462 5.9060 77.05 80.83 9.30
1463 5.9080 68.06 80.80 8.82
1464 5.9100 81.65 80.76 9.69
1465 5.9120 66.46 80.73 8.65
1466 5.9140 93.96 80.69 10.22
1467 5.9160 96.82 80.66 10.43
1468 5.9180 63.11 80.63 8.50
1469 5.9200 69.15 80.60 8.91
1470 5.9220 101.62 80.57 10.78
1471 5.9240 74.66 80.55 9.07
1472 5.9260 75.07 80.52 9.20
1473 5.9280 64.62 80.49 8.61
1474 5.9300 85.33 80.47 9.88
1475 5.9320 97.56 80.44 10.52
1476 5.9340 75.79 80.42 9.18
1477 5.9360 73.14 80.39 9.08
1478 5.9380 68.40 80.37 8.84
1479 5.9400 87.06 80.34 9.97
1480 5.9420 90.99 80.32 10.14
1481 5.9440 88.40 80.30 9.91
1482 5.9460 78.63 80.28 9.36
1483 5.9480 71.30 80.25 9.09
1484 5.9500 72.72 80.23 9.14
1485 5.9520 78.84 80.21 9.41
1486 5.9540 86.24 80.19 9.77
1487 5.9560 82.30 80.17 9.67
1488 5.9580 72.05 80.14 9.08
1489 5.9600 74.16 80.12 9.19
1490 5.9620 82.00 80.10 9.62
1491 5.9640 79.84 80.08 9.44
1492 5.9660 84.19 80.06 9.68
1493 5.9680 108.94 80.04 8.88
1494 5.9700 93.09 80.02 7.60
1495 5.9720 82.00 80.00 7.85
1496 5.9740 66.96 79.98 7.25
1497 5.9760 97.68 79.96 9.12
1498 5.9780 91.84 79.94 9.07
1499 5.9800 82.60 79.92 8.63
1500 5.9820 98.11 79.90 9.43
1501 5.9840 85.21 79.88 8.70
1502 5.9860 71.54 79.86 8.12
1503 5.9880 80.15 79.84 8.77
1504 5.9900 86.68 79.73 9.17
1505 5.9920 76.50 79.72 8.54
1506 5.9940 88.10 79.70 9.03
1507 5.9960 80.13 79.68 8.80
1508 5.9980 88.88 79.66 9.43
1509 6.0000 93.51 79.65 9.56
1510 6.0020 74.62 79.63 8.48
1511 6.0040 85.21 79.61 9.06
1512 6.0060 85.53 79.59 9.19
1513 6.0080 79.17 79.58 8.96
1514 6.0100 63.52 79.56 7.98
1515 6.0120 75.24 79.54 8.63
1516 6.0140 84.99 79.52 9.06
1517 6.0160 73.61 79.51 8.55
1518 6.0180 84.02 79.49 9.25
1519 6.0200 81.14 79.47 9.00
1520 6.0220 90.88 79.45 9.41
1521 6.0240 91.21 79.44 9.44
1522 6.0260 74.91 79.42 8.60
1523 6.0280 69.16 79.40 8.38
1524 6.0300 74.52 79.38 8.65
1525 6.0320 88.93 79.36 9.38
1526 6.0340 89.62 79.35 9.31
1527 6.0360 63.25 79.33 7.91
1528 6.0380 83.63 79.31 9.23
1529 6.0400 79.53 79.29 8.94
1530 6.0420 74.36 79.27 8.52
1531 6.0440 73.90 79.26 8.48
1532 6.0460 65.53 79.24 8.06
1533 6.0480 75.76 79.22 8.82
1534 6.0500 88.30 79.20 9.38
1535 6.0520 77.35 79.18 8.74
1536 6.0540 90.05 79.16 9.32
1537 6.0560 90.41 79.15 9.47
1538 6.0580 80.51 79.13 9.03
1539 6.0600 80.56 79.11 8.97
1540 6.0620 78.92 79.09 8.86
1541 6.0640 88.22 79.07 9.27
1542 6.0660 81.23 79.05 8.93
1543 6.0680 76.04 79.04 8.77
1544 6.0700 73.91 79.02 8.66
1545 6.0720 86.31 79.00 9.26
1546 6.0740 70.35 78.98 8.26
1547 6.0760 81.10 78.96 8.96
1548 6.0780 86.76 78.94 9.41
1549 6.0800 93.28 78.92 9.61
1550 6.0820 98.04 78.91 9.81
1551 6.0840 77.49 78.89 8.67
1552 6.0860 77.38 78.87 8.73
1553 6.0880 67.18 78.85 8.27
1554 6.0900 76.35 78.83 8.75
1555 6.0920 78.44 78.81 8.82
1556 6.0940 63.29 78.79 7.82
1557 6.0960 82.01 78.77 9.04
1558 6.0980 64.80 78.75 8.08
1559 6.1000 80.69 78.74 9.00
1560 6.1020 90.37 78.72 9.46
1561 6.1040 71.18 78.70 8.35
1562 6.1060 73.92 78.68 8.52
1563 6.1080 103.90 78.66 10.19
1564 6.1100 78.61 78.64 8.87
1565 6.1120 85.10 78.62 9.18
1566 6.1140 94.38 78.60 9.57
1567 6.1160 96.32 78.58 9.73
1568 6.1180 82.06 78.56 9.10
1569 6.1200 75.99 78.54 8.73
1570 6.1220 86.69 78.52 9.24
1571 6.1240 76.55 78.50 8.60
1572 6.1260 78.86 78.49 8.85
1573 6.1280 64.37 78.47 8.03
1574 6.1300 74.87 78.45 8.63
1575 6.1320 84.44 78.43 9.13
1576 6.1340 71.83 78.41 8.33
1577 6.1360 80.06 78.39 8.85
1578 6.1380 67.65 78.37 8.28
1579 6.1400 76.67 78.35 8.78
1580 6.1420 74.94 78.33 8.54
1581 6.1440 86.48 78.31 9.20
1582 6.1460 71.03 78.29 8.36
1583 6.1480 82.47 78.27 9.08
1584 6.1500 62.26 78.25 7.92
1585 6.1520 85.31 78.23 9.18
1586 6.1540 64.69 78.21 7.89
1587 6.1560 94.16 78.19 9.64
1588 6.1580 79.02 78.17 8.92
1589 6.1600 73.40 78.15 8.52
1590 6.1620 77.21 78.13 8.74
1591 6.1640 88.65 78.11 9.29
1592 6.1660 77.90 78.09 8.71
1593 6.1680 72.12 78.07 8.54
1594 6.1700 76.92 78.05 8.82
1595 6.1720 82.10 78.03 8.95
1596 6.1740 86.85 78.01 9.16
1597 6.1760 78.52 77.99 8.83
1598 6.1780 73.89 77.97 8.64
1599 6.1800 65.42 77.95 8.12
1600 6.1820 79.87 77.93 8.89
1601 6.1840 88.05 77.91 9.24
1602 6.1860 81.54 77.89 8.96
1603 6.1880 55.40 77.87 7.52
1604 6.1900 67.56 77.85 8.21
1605 6.1920 69.34 77.83 8.27
1606 6.1940 81.55 77.81 8.90
1607 6.1960 82.54 77.79 9.04
1608 6.1980 96.11 77.77 9.87
1609 6.2000 63.45 77.75 7.95
1610 6.2020 79.06 77.73 8.79
1611 6.2040 73.45 77.71 8.47
1612 6.2060 91.52 77.68 9.46
1613 6.2080 94.04 77.66 9.74
1614 6.2100 119.72 77.64 10.95
1615 6.2120 80.82 77.62 8.90
1616 6.2140 74.78 77.60 8.53
1617 6.2160 83.61 77.58 9.09
1618 6.2180 76.85 77.56 8.83
1619 6.2200 88.59 77.54 9.39
1620 6.2220 88.03 77.52 9.32
1621 6.2240 84.82 77.50 9.10
1622 6.2260 86.62 77.48 9.24
1623 6.2280 91.67 77.46 9.64
1624 6.2300 92.64 77.44 9.64
1625 6.2320 75.84 77.41 8.61
1626 6.2340 97.09 77.39 9.70
1627 6.2360 74.16 77.37 8.54
1628 6.2380 79.83 77.35 9.01
1629 6.2400 88.53 77.33 9.39
1630 6.2420 72.48 77.31 8.43
1631 6.2440 90.27 77.29 9.36
1632 6.2460 82.20 77.27 9.02
1633 6.2480 81.85 77.25 9.12
1634 6.2500 86.88 77.22 9.33
1635 6.2520 92.59 77.20 9.54
1636 6.2540 82.95 77.18 8.97
1637 6.2560 91.13 77.16 9.47
1638 6.2580 78.72 77.14 8.97
1639 6.2600 76.26 77.12 8.75
1640 6.2620 77.30 77.10 8.73
1641 6.2640 90.93 77.08 9.42
1642 6.2660 87.54 83.75 9.32
1643 6.2680 88.94 83.90 9.50
1644 6.2700 105.85 84.05 10.31
1645 6.2720 86.81 84.21 9.26
1646 6.2740 79.20 84.38 8.76
1647 6.2760 81.51 84.56 9.00
1648 6.2780 82.49 85.35 9.13
1649 6.2800 82.44 85.56 9.04
1650 6.2820 100.59 85.78 9.95
1651 6.2840 81.09 86.01 8.95
1652 6.2860 76.48 86.25 8.65
1653 6.2880 90.27 86.50 9.55
1654 6.2900 82.74 86.76 9.11
1655 6.2920 76.63 87.03 8.67
1656 6.2940 97.40 87.32 9.66
1657 6.2960 88.04 87.63 9.37
1658 6.2980 81.64 87.94 9.06
1659 6.3000 97.09 88.28 9.83
1660 6.3020 69.35 88.63 8.28
1661 6.3040 80.23 89.00 8.86
1662 6.3060 86.36 89.39 9.21
1663 6.3080 82.04 89.80 9.12
1664 6.3100 98.56 90.23 9.97
1665 6.3120 82.02 90.68 8.95
1666 6.3140 78.60 91.16 8.76
1667 6.3160 85.45 91.67 9.15
1668 6.3180 72.37 92.21 8.50
1669 6.3200 87.78 92.78 9.39
1670 6.3220 91.14 93.38 9.47
1671 6.3240 92.81 94.03 9.52
1672 6.3260 89.38 94.71 9.37
1673 6.3280 89.56 95.43 9.53
1674 6.3300 118.35 96.20 10.85
1675 6.3320 100.87 97.02 9.99
1676 6.3340 98.28 97.89 9.75
1677 6.3360 96.56 98.83 9.76
1678 6.3380 100.82 99.83 10.04
1679 6.3400 101.28 100.90 10.03
1680 6.3420 92.00 102.05 9.47
1681 6.3440 97.78 103.29 9.80
1682 6.3460 111.45 104.61 10.42
1683 6.3480 100.63 106.05 10.03
1684 6.3500 108.68 107.60 10.47
1685 6.3520 118.68 109.27 10.78
1686 6.3540 112.83 111.09 10.44
1687 6.3560 107.20 113.07 10.22
1688 6.3580 118.06 115.22 10.89
1689 6.3600 116.32 117.57 10.72
1690 6.3620 126.11 120.14 11.13
1691 6.3640 123.50 122.97 10.97
1692 6.3660 109.32 126.08 10.34
1693 6.3680 131.32 129.52 11.53
1694 6.3700 142.51 133.33 11.89
1695 6.3720 157.22 137.57 12.39
1696 6.3740 163.53 142.30 12.61
1697 6.3760 180.11 147.61 13.21
1698 6.3780 165.25 153.60 12.85
1699 6.3800 177.57 160.37 13.22
1700 6.3820 207.93 168.09 14.21
1701 6.3840 206.04 176.92 14.10
1702 6.3860 225.25 187.10 14.86
1703 6.3880 246.51 198.93 15.66
1704 6.3900 234.34 212.77 15.22
1705 6.3920 287.23 229.11 16.79
1706 6.3940 330.93 248.62 17.93
1707 6.3960 341.98 272.15 18.28
1708 6.3980 399.42 300.92 20.01
1709 6.4000 469.16 336.62 21.55
1710 6.4020 565.89 381.71 23.49
1711 6.4040 578.40 440.00 23.85
1712 6.4060 761.09 518.12 27.27
1713 6.4080 899.58 629.55 30.25
1714 6.4100 1203.29 804.58 34.72
1715 6.4120 1552.65 1106.33 39.25
1716 6.4140 1901.33 1638.98 43.51
1717 6.4160 2691.98 2519.99 52.37
1718 6.4180 3663.30 3784.85 61.66
1719 6.4200 5048.17 5177.75 73.17
1720 6.4220 6149.25 6013.81 81.00
1721 6.4240 6284.66 6113.86 81.52
1722 6.4260 5996.64 6201.73 79.41
1723 6.4280 5982.70 6567.93 80.85
1724 6.4300 6389.18 6731.67 82.84
1725 6.4320 6153.52 6159.14 80.62
1726 6.4340 5255.67 5090.58 74.08
1727 6.4360 3746.88 3989.66 62.22
1728 6.4380 2688.69 2967.42 52.79
1729 6.4400 2060.71 2080.73 45.49
1730 6.4420 1437.34 1429.37 37.85
1731 6.4440 1079.63 1006.40 32.38
1732 6.4460 900.68 747.29 29.77
1733 6.4480 675.37 588.79 26.05
1734 6.4500 602.81 486.66 24.36
1735 6.4520 477.04 415.52 21.65
1736 6.4540 435.19 362.59 20.51
1737 6.4560 382.98 321.49 19.42
1738 6.4580 321.34 288.71 17.95
1739 6.4600 312.47 262.11 17.55
1740 6.4620 278.75 240.22 16.54
1741 6.4640 234.16 221.97 15.08
1742 6.4660 240.35 206.59 15.38
1743 6.4680 204.97 193.51 14.32
1744 6.4700 157.36 182.29 12.47
1745 6.4720 192.31 172.59 13.70
1746 6.4740 168.07 164.15 12.71
1747 6.4760 155.90 156.75 12.49
1748 6.4780 160.59 150.23 12.66
1749 6.4800 164.52 144.46 12.72
1750 6.4820 160.26 139.32 12.56
1751 6.4840 150.90 134.72 12.12
1752 6.4860 135.67 130.60 11.59
1753 6.4880 151.16 126.88 12.36
1754 6.4900 129.99 123.51 11.34
1755 6.4920 121.43 120.46 10.89
1756 6.4940 122.48 117.68 10.94
1757 6.4960 118.40 115.14 10.88
1758 6.4980 111.97 112.81 10.62
1759 6.5000 103.33 110.68 10.09
1760 6.5020 100.97 108.71 9.96
1761 6.5040 120.91 106.90 10.88
1762 6.5060 103.74 105.22 10.15
1763 6.5080 116.80 103.67 10.88
1764 6.5100 115.53 102.23 10.70
1765 6.5120 94.24 100.88 9.60
1766 6.5140 99.64 99.63 9.87
1767 6.5160 92.85 98.46 9.59
1768 6.5180 103.98 97.37 10.30
1769 6.5200 93.35 96.35 9.55
1770 6.5220 103.97 95.39 10.07
1771 6.5240 106.25 94.48 10.22
1772 6.5260 111.58 93.63 10.55
1773 6.5280 98.62 92.83 10.01
1774 6.5300 112.62 92.08 10.57
1775 6.5320 92.08 91.37 9.49
1776 6.5340 97.10 90.69 9.71
1777 6.5360 106.73 90.05 10.37
1778 6.5380 93.25 89.45 9.74
1779 6.5400 108.46 88.87 10.36
1780 6.5420 95.56 88.33 9.66
1781 6.5440 116.55 87.81 10.72
1782 6.5460 117.02 87.32 10.82
1783 6.5480 87.84 86.85 9.48
1784 6.5500 94.42 86.40 9.71
1785 6.5520 89.11 85.97 9.33
1786 6.5540 87.06 85.56 9.26
1787 6.5560 103.21 85.17 10.20
1788 6.5580 94.73 84.79 9.83
1789 6.5600 86.37 84.43 9.28
1790 6.5620 80.77 84.09 8.90
1791 6.5640 68.76 83.76 8.26
1792 6.5660 67.08 83.44 8.22
1793 6.5680 84.24 83.14 9.30
1794 6.5700 77.45 82.84 8.77
1795 6.5720 83.24 82.56 9.04
1796 6.5740 83.75 82.29 9.11
1797 6.5760 84.21 82.03 9.17
1798 6.5780 103.30 81.78 10.29
1799 6.5800 83.45 78.94 9.12
1800 6.5820 68.07 78.77 8.19
1801 6.5840 87.78 78.60 9.32
1802 6.5860 94.58 78.44 9.71
1803 6.5880 70.61 78.29 8.54
1804 6.5900 87.95 78.14 9.36
1805 6.5920 66.44 77.99 8.08
1806 6.5940 83.31 77.85 9.04
1807 6.5960 88.35 77.72 9.45
1808 6.5980 74.05 76.99 8.70
1809 6.6000 84.17 76.88 9.17
1810 6.6020 59.16 76.76 7.62
1811 6.6040 81.45 76.66 8.97
1812 6.6060 88.86 76.55 9.35
1813 6.6080 73.09 76.45 8.65
1814 6.6100 93.86 76.35 9.70
1815 6.6120 87.01 76.25 9.26
1816 6.6140 95.50 72.97 9.68
1817 6.6160 80.53 72.95 8.96
1818 6.6180 84.45 72.92 9.21
1819 6.6200 58.61 72.90 7.68
1820 6.6220 84.40 72.87 9.13
1821 6.6240 84.97 72.85 9.09
1822 6.6260 91.60 72.82 9.53
1823 6.6280 78.33 72.80 8.95
1824 6.6300 92.02 72.77 9.58
1825 6.6320 87.25 72.75 9.25
1826 6.6340 90.90 72.72 9.48
1827 6.6360 77.62 72.70 8.77
1828 6.6380 85.95 72.67 9.28
1829 6.6400 70.10 72.65 8.39
1830 6.6420 84.60 72.62 9.11
1831 6.6440 74.80 72.60 8.55
1832 6.6460 77.46 72.57 8.76
1833 6.6480 87.74 72.54 9.42
1834 6.6500 87.30 72.52 9.31
1835 6.6520 67.97 72.49 8.17
1836 6.6540 88.15 72.47 9.27
1837 6.6560 71.52 72.44 8.41
1838 6.6580 78.56 72.42 8.89
1839 6.6600 87.57 72.39 9.33
1840 6.6620 70.46 72.37 8.35
1841 6.6640 74.42 72.34 8.56
1842 6.6660 79.76 72.31 8.84
1843 6.6680 67.64 72.29 8.28
1844 6.6700 88.58 72.26 9.41
1845 6.6720 89.41 72.24 9.34
1846 6.6740 82.45 72.21 8.96
1847 6.6760 95.01 72.19 9.70
1848 6.6780 84.36 72.16 9.19
1849 6.6800 85.45 72.14 9.14
1850 6.6820 103.86 72.11 10.10
1851 6.6840 88.42 72.08 9.33
1852 6.6860 72.49 72.06 8.41
1853 6.6880 93.97 72.03 9.72
1854 6.6900 77.92 72.59 8.86
1855 6.6920 85.35 72.58 9.15
1856 6.6940 73.91 72.57 8.47
1857 6.6960 93.10 72.57 9.57
1858 6.6980 88.06 72.56 9.41
1859 6.7000 67.75 73.76 8.22
1860 6.7020 77.39 73.79 8.70
1861 6.7040 74.34 73.84 8.54
1862 6.7060 89.68 73.88 9.35
1863 6.7080 65.81 73.93 8.15
1864 6.7100 84.76 73.98 9.17
1865 6.7120 78.60 74.04 8.83
1866 6.7140 73.88 74.10 8.47
1867 6.7160 70.02 74.17 8.31
1868 6.7180 74.12 74.24 8.69
1869 6.7200 90.93 74.32 9.46
1870 6.7220 72.31 74.41 8.40
1871 6.7240 79.30 74.50 8.83
1872 6.7260 72.91 74.60 8.44
1873 6.7280 71.75 74.71 8.50
1874 6.7300 73.91 74.83 8.58
1875 6.7320 78.30 74.95 8.80
1876 6.7340 78.93 75.09 8.75
1877 6.7360 82.80 75.24 9.06
1878 6.7380 70.91 75.40 8.41
1879 6.7400 71.54 75.58 8.47
1880 6.7420 68.75 75.77 8.20
1881 6.7440 81.83 75.98 8.96
1882 6.7460 81.61 76.21 8.94
1883 6.7480 70.78 76.47 8.48
1884 6.7500 72.16 76.74 8.46
1885 6.7520 75.17 77.04 8.59
1886 6.7540 62.65 77.38 7.82
1887 6.7560 72.96 77.74 8.47
1888 6.7580 76.95 78.15 8.79
1889 6.7600 74.08 78.60 8.57
1890 6.7620 71.44 79.09 8.39
1891 6.7640 87.00 79.65 9.24
1892 6.7660 81.72 80.27 8.98
1893 6.7680 66.32 80.97 8.19
1894 6.7700 58.59 81.75 7.63
1895 6.7720 75.41 82.64 8.64
1896 6.7740 77.72 83.65 8.73
1897 6.7760 70.16 84.80 8.31
1898 6.7780 72.48 86.12 8.54
1899 6.7800 81.20 87.65 9.02
1900 6.7820 83.21 89.43 9.04
1901 6.7840 80.42 91.51 8.90
1902 6.7860 90.06 93.97 9.42
1903 6.7880 76.66 96.91 8.80
1904 6.7900 98.47 100.44 9.89
1905 6.7920 93.73 104.76 9.64
1906 6.7940 95.44 110.09 9.64
1907 6.7960 109.23 116.77 10.42
1908 6.7980 126.65 125.31 11.26
1909 6.8000 109.46 136.45 10.41
1910 6.8020 131.41 151.32 11.34
1911 6.8040 165.94 171.79 12.78
1912 6.8060 220.81 201.15 14.72
1913 6.8080 245.02 246.29 15.62
1914 6.8100 370.31 324.25 19.24
1915 6.8120 559.45 476.88 23.59
1916 6.8140 825.02 785.98 28.45
1917 6.8160 1298.08 1345.24 35.90
1918 6.8180 2025.95 2095.88 45.75
1919 6.8200 2411.66 2530.00 49.68
1920 6.8220 1970.72 2108.25 44.35
1921 6.8240 1338.13 1326.66 36.51
1922 6.8260 854.85 760.83 28.93
1923 6.8280 561.36 458.56 23.78
1924 6.8300 363.67 314.27 19.04
1925 6.8320 308.39 241.14 17.47
1926 6.8340 258.10 198.02 15.86
1927 6.8360 200.46 169.54 13.97
1928 6.8380 211.94 149.54 14.55
1929 6.8400 140.65 134.94 11.82
1930 6.8420 114.38 123.99 10.64
1931 6.8440 126.34 115.56 11.12
1932 6.8460 101.87 108.94 9.98
1933 6.8480 97.15 103.65 9.90
1934 6.8500 103.64 99.35 10.14
1935 6.8520 86.98 95.81 9.24
1936 6.8540 89.99 92.86 9.37
1937 6.8560 83.71 90.38 9.10
1938 6.8580 78.31 88.27 8.83
1939 6.8600 72.50 86.46 8.50
1940 6.8620 84.22 84.90 9.13
1941 6.8640 69.42 83.54 8.23
1942 6.8660 75.34 82.34 8.59
1943 6.8680 78.66 81.29 8.86
1944 6.8700 88.09 80.36 9.35
1945 6.8720 83.87 79.53 9.09
1946 6.8740 60.69 78.79 7.73
1947 6.8760 66.16 78.12 8.05
1948 6.8780 80.68 77.52 8.94
1949 6.8800 84.95 76.97 9.18
1950 6.8820 71.17 76.47 8.41
1951 6.8840 89.82 76.02 9.34
1952 6.8860 61.30 75.60 7.78
1953 6.8880 75.74 75.22 8.72
1954 6.8900 80.69 74.86 9.01
1955 6.8920 65.50 74.54 7.99
1956 6.8940 79.08 74.24 8.79
1957 6.8960 52.94 73.95 7.24
1958 6.8980 71.81 73.69 8.47
1959 6.9000 82.33 73.45 9.01
1960 6.9020 73.16 73.22 8.50
1961 6.9040 71.66 73.00 8.38
1962 6.9060 73.61 72.80 8.46
1963 6.9080 77.16 72.61 8.78
1964 6.9100 65.28 72.43 8.03
1965 6.9120 70.89 72.26 8.36
1966 6.9140 69.08 72.10 8.20
1967 6.9160 69.40 71.95 8.27
1968 6.9180 75.93 71.81 8.71
1969 6.9200 100.11 71.67 9.93
1970 6.9220 84.60 71.54 9.12
1971 6.9240 69.42 71.41 8.26
1972 6.9260 57.71 71.29 7.53
1973 6.9280 69.68 71.18 8.40
1974 6.9300 89.10 71.07 9.41
1975 6.9320 76.93 70.96 8.67
1976 6.9340 74.22 70.86 8.53
1977 6.9360 63.20 70.76 7.90
1978 6.9380 74.62 70.67 8.63
1979 6.9400 70.11 70.58 8.33
1980 6.9420 69.27 70.49 8.28
1981 6.9440 65.01 69.27 7.96
1982 6.9460 73.45 69.22 8.49
1983 6.9480 53.16 69.18 7.35
1984 6.9500 78.64 68.57 8.85
1985 6.9520 65.05 68.54 8.02
1986 6.9540 63.88 68.52 7.87
1987 6.9560 67.16 68.49 8.17
1988 6.9580 65.81 68.46 8.12
1989 6.9600 80.94 68.44 8.98
1990 6.9620 50.42 68.41 7.05
1991 6.9640 83.38 68.38 9.02
1992 6.9660 80.63 68.36 8.90
1993 6.9680 58.01 68.33 7.69
1994 6.9700 71.36 68.30 8.41
1995 6.9720 72.66 68.27 8.45
1996 6.9740 68.68 68.25 8.21
1997 6.9760 83.67 68.22 9.13
1998 6.9780 71.01 68.19 8.45
1999 6.9800 62.55 68.17 7.88
2000 6.9820 75.15 68.14 8.60
2001 6.9840 57.55 68.11 7.51
2002 6.9860 51.36 68.09 7.14
2003 6.9880 65.27 68.06 8.13
2004 6.9900 76.98 68.03 8.77
2005 6.9920 68.55 68.00 8.19
2006 6.9940 72.68 67.98 8.40
2007 6.9960 75.12 67.95 8.63
2008 6.9980 79.17 67.92 8.92
2009 7.0000 58.89 67.90 7.64
2010 7.0020 83.53 67.87 9.12
2011 7.0040 71.43 67.84 8.36
2012 7.0060 72.98 67.82 8.44
2013 7.0080 63.49 67.79 8.04
2014 7.0100 64.40 67.76 8.04
2015 7.0120 70.97 67.73 8.40
2016 7.0140 60.18 67.71 7.63
2017 7.0160 67.58 67.68 8.21
2018 7.0180 66.77 67.65 8.15
2019 7.0200 87.38 67.63 9.35
2020 7.0220 79.60 67.60 8.84
2021 7.0240 64.76 67.57 7.96
2022 7.0260 68.57 67.55 8.21
2023 7.0280 83.68 67.52 9.22
2024 7.0300 61.67 67.49 7.81
2025 7.0320 79.62 67.46 8.93
2026 7.0340 76.84 67.44 8.64
2027 7.0360 70.63 67.41 8.41
2028 7.0380 70.21 67.38 8.38
2029 7.0400 72.83 67.36 8.48
2030 7.0420 75.73 67.33 8.63
2031 7.0440 65.86 67.30 8.02
2032 7.0460 78.22 67.27 8.80
2033 7.0480 93.78 67.25 9.70
2034 7.0500 79.17 67.22 8.90
2035 7.0520 73.19 67.19 8.52
2036 7.0540 77.11 67.17 8.66
2037 7.0560 73.79 67.14 8.53
2038 7.0580 68.48 67.11 8.30
2039 7.0600 74.05 67.08 8.56
2040 7.0620 75.15 67.06 8.59
2041 7.0640 85.53 67.03 9.17
2042 7.0660 83.68 67.00 9.07
2043 7.0680 85.70 66.98 9.28
2044 7.0700 69.37 66.95 8.27
2045 7.0720 83.29 66.92 9.08
2046 7.0740 75.62 66.90 8.54
2047 7.0760 70.68 66.87 8.35
2048 7.0780 76.25 66.84 8.75
2049 7.0800 75.84 66.81 8.65
2050 7.0820 76.30 66.79 8.68
2051 7.0840 67.01 66.76 8.06
2052 7.0860 83.57 66.73 9.08
2053 7.0880 73.36 66.71 8.54
2054 7.0900 72.53 66.68 8.51
2055 7.0920 73.28 66.65 8.50
2056 7.0940 80.86 66.62 8.86
2057 7.0960 90.42 66.60 9.48
2058 7.0980 93.67 66.57 9.67
2059 7.1000 102.76 66.54 10.04
2060 7.1020 94.40 66.52 9.64
2061 7.1040 77.68 66.49 8.70
2062 7.1060 81.97 66.46 8.97
2063 7.1080 73.06 87.71 8.54
2064 7.1100 83.08 88.18 9.07
2065 7.1120 106.99 88.68 10.22
2066 7.1140 95.04 89.20 9.54
2067 7.1160 97.37 89.73 9.79
2068 7.1180 95.35 90.29 9.71
2069 7.1200 64.72 90.87 8.04
2070 7.1220 85.51 91.47 9.19
2071 7.1240 100.72 92.10 9.88
2072 7.1260 90.91 92.75 9.46
2073 7.1280 79.63 93.43 8.95
2074 7.1300 95.54 94.14 9.77
2075 7.1320 84.00 94.88 9.10
2076 7.1340 97.18 95.65 9.71
2077 7.1360 85.99 96.46 9.23
2078 7.1380 95.35 97.30 9.74
2079 7.1400 92.52 98.17 9.59
2080 7.1420 91.06 99.09 9.44
2081 7.1440 99.25 100.05 9.85
2082 7.1460 83.57 101.06 9.08
2083 7.1480 91.61 102.11 9.52
2084 7.1500 87.95 103.21 9.34
2085 7.1520 104.70 104.37 10.14
2086 7.1540 90.30 105.58 9.37
2087 7.1560 78.89 106.85 8.83
2088 7.1580 94.20 108.19 9.68
2089 7.1600 108.57 109.60 10.35
2090 7.1620 99.04 111.08 9.85
2091 7.1640 91.63 112.64 9.41
2092 7.1660 79.34 114.29 8.85
2093 7.1680 101.23 116.03 10.05
2094 7.1700 103.55 117.86 10.13
2095 7.1720 104.07 119.80 10.14
2096 7.1740 112.65 121.86 10.42
2097 7.1760 101.28 124.03 10.01
2098 7.1780 92.52 126.33 9.59
2099 7.1800 96.88 128.78 9.76
2100 7.1820 94.06 131.39 9.64
2101 7.1840 114.93 134.16 10.59
2102 7.1860 115.81 137.11 10.72
2103 7.1880 96.72 140.26 9.82
2104 7.1900 121.40 143.62 10.92
2105 7.1920 116.21 147.22 10.70
2106 7.1940 127.43 151.07 11.13
2107 7.1960 97.56 155.21 9.80
2108 7.1980 110.92 159.66 10.57
2109 7.2000 98.87 164.46 9.83
2110 7.2020 98.29 169.63 9.84
2111 7.2040 104.89 175.21 10.06
2112 7.2060 113.65 181.27 10.67
2113 7.2080 116.51 187.84 10.75
2114 7.2100 117.76 194.98 10.78
2115 7.2120 134.86 202.77 11.44
2116 7.2140 128.64 211.29 11.17
2117 7.2160 116.42 220.63 10.70
2118 7.2180 141.32 230.89 11.93
2119 7.2200 137.65 242.21 11.58
2120 7.2220 146.35 254.73 11.99
2121 7.2240 119.90 268.62 10.79
2122 7.2260 144.40 284.09 11.98
2123 7.2280 153.16 301.40 12.44
2124 7.2300 161.69 320.83 12.60
2125 7.2320 144.73 342.76 11.91
2126 7.2340 145.52 367.62 11.96
2127 7.2360 207.06 395.97 14.39
2128 7.2380 194.80 428.47 13.99
2129 7.2400 227.59 465.98 14.95
2130 7.2420 219.33 509.57 14.67
2131 7.2440 271.73 560.59 16.26
2132 7.2460 273.99 620.85 16.61
2133 7.2480 307.62 692.71 17.61
2134 7.2500 388.75 779.28 19.63
2135 7.2520 446.24 884.76 20.84
2136 7.2540 493.68 1015.10 22.06
2137 7.2560 610.37 1178.47 24.75
2138 7.2580 828.50 1387.14 29.00
2139 7.2600 1072.90 1659.79 32.54
2140 7.2620 1416.74 2029.54 37.75
2141 7.2640 1933.92 2561.81 44.01
2142 7.2660 2719.06 3397.88 53.24
2143 7.2680 4001.65 4820.94 65.37
2144 7.2700 6256.12 7305.15 81.99
2145 7.2720 10241.60 11440.60 107.87
2146 7.2740 17771.50 17608.70 148.44
2147 7.2760 28416.20 25244.30 201.75
2148 7.2780 35450.90 31463.80 233.43
2149 7.2800 31330.10 31558.10 213.91
2150 7.2820 22083.40 25432.60 170.09
2151 7.2840 15871.70 17781.40 139.45
2152 7.2860 11507.50 11566.20 115.98
2153 7.2880 8608.76 7381.88 98.76
2154 7.2900 6492.43 4864.95 83.73
2155 7.2920 5204.23 3422.90 74.34
2156 7.2940 4165.43 2576.92 65.74
2157 7.2960 3585.28 2039.49 61.38
2158 7.2980 2826.52 1666.79 54.41
2159 7.3000 2356.24 1392.25 48.86
2160 7.3020 2033.70 1182.26 45.59
2161 7.3040 1804.35 1017.91 42.45
2162 7.3060 1566.73 886.84 40.31
2163 7.3080 1415.24 780.75 38.17
2164 7.3100 1309.35 693.76 36.16
2165 7.3120 1177.21 621.57 34.21
2166 7.3140 998.86 560.98 31.60
2167 7.3160 921.70 509.68 30.34
2168 7.3180 864.53 465.90 29.61
2169 7.3200 833.05 428.21 28.63
2170 7.3220 711.69 395.55 26.48
2171 7.3240 750.73 367.06 27.18
2172 7.3260 710.45 342.07 26.79
2173 7.3280 667.88 320.02 26.00
2174 7.3300 612.38 300.48 24.57
2175 7.3320 617.46 283.07 24.67
2176 7.3340 592.72 285.60 24.14
2177 7.3360 528.36 272.03 24.38
2178 7.3380 488.08 259.85 24.11
2179 7.3400 489.11 248.89 24.19
2180 7.3420 463.52 239.00 24.35
2181 7.3440 410.78 230.06 24.57
2182 7.3460 414.28 221.95 24.86
2183 7.3480 380.18 214.59 25.05
2184 7.3500 358.14 207.90 25.66
2185 7.3520 359.45 201.80 25.48
2186 7.3540 354.38 196.25 25.65
2187 7.3560 319.20 191.18 25.83
2188 7.3580 327.17 186.55 23.83
2189 7.3600 324.80 182.32 21.13
2190 7.3620 287.97 178.47 19.55
2191 7.3640 255.41 174.95 18.65
2192 7.3660 262.13 171.74 18.02
2193 7.3680 289.83 168.82 17.14
2194 7.3700 245.63 166.17 15.59
2195 7.3720 279.10 163.77 16.65
2196 7.3740 289.66 161.59 16.83
2197 7.3760 257.67 159.64 16.12
2198 7.3780 254.10 157.90 16.04
2199 7.3800 268.34 156.35 16.31
2200 7.3820 270.64 154.99 16.25
2201 7.3840 291.20 153.80 17.00
2202 7.3860 273.66 152.79 19.38
2203 7.3880 275.54 151.95 19.44
2204 7.3900 255.38 151.27 20.01
2205 7.3920 273.61 150.76 21.02
2206 7.3940 299.35 150.39 22.05
2207 7.3960 294.35 150.19 22.30
2208 7.3980 252.38 150.14 21.41
2209 7.4000 271.41 150.25 21.22
2210 7.4020 301.96 150.51 21.50
2211 7.4040 304.24 150.94 21.15
2212 7.4060 276.50 151.56 21.96
2213 7.4080 317.22 152.33 21.07
2214 7.4100 321.93 153.28 20.44
2215 7.4120 288.10 154.42 20.05
2216 7.4140 306.94 155.75 19.98
2217 7.4160 306.80 157.31 20.15
2218 7.4180 336.03 159.09 20.29
2219 7.4200 337.46 161.13 19.31
2220 7.4220 354.76 163.45 20.05
2221 7.4240 344.83 166.09 19.19
2222 7.4260 343.18 169.08 19.79
2223 7.4280 368.69 172.50 19.30
2224 7.4300 353.42 176.42 19.83
2225 7.4320 374.89 180.96 19.21
2226 7.4340 347.66 186.30 19.69
2227 7.4360 384.04 192.69 19.66
2228 7.4380 357.25 200.60 20.36
2229 7.4400 378.55 210.92 19.44
2230 7.4420 431.16 225.51 20.66
2231 7.4440 406.22 248.73 20.08
2232 7.4460 458.36 289.74 21.43
2233 7.4480 512.91 361.06 22.82
2234 7.4500 558.03 465.51 23.60
2235 7.4520 622.57 517.88 24.84
2236 7.4540 624.06 464.64 24.84
2237 7.4560 571.43 373.86 23.90
2238 7.4580 534.48 318.61 23.37
2239 7.4600 538.87 297.13 22.97
2240 7.4620 507.38 294.70 22.48
2241 7.4640 540.59 301.65 23.06
2242 7.4660 594.43 313.93 24.39
2243 7.4680 632.48 330.23 25.39
2244 7.4700 676.81 350.20 26.01
2245 7.4720 709.63 373.96 26.57
2246 7.4740 774.92 401.84 27.62
2247 7.4760 815.76 434.45 28.63
2248 7.4780 819.48 472.63 28.86
2249 7.4800 893.26 517.46 29.81
2250 7.4820 1054.21 570.41 32.42
2251 7.4840 1150.63 633.46 33.90
2252 7.4860 1287.36 709.16 35.93
2253 7.4880 1439.38 800.94 38.61
2254 7.4900 1693.11 913.63 41.33
2255 7.4920 1914.83 1054.15 44.04
2256 7.4940 2144.05 1233.00 46.39
2257 7.4960 2575.48 1468.11 51.72
2258 7.4980 3011.61 1793.80 56.12
2259 7.5000 3665.74 2276.93 61.59
2260 7.5020 4444.39 3043.32 68.26
2261 7.5040 5523.66 4298.29 76.38
2262 7.5060 6959.70 6315.07 87.39
2263 7.5080 8922.82 9357.04 101.12
2264 7.5100 11618.10 13507.60 116.12
2265 7.5120 15378.20 18359.10 136.48
2266 7.5140 20632.80 22515.30 163.28
2267 7.5160 25718.20 23692.60 188.23
2268 7.5180 25745.00 21019.90 189.93
2269 7.5200 17970.20 16322.30 150.74
2270 7.5220 11065.10 11662.30 112.98
2271 7.5240 6743.24 7958.23 85.07
2272 7.5260 4347.06 5366.48 67.92
2273 7.5280 2954.83 3700.47 55.42
2274 7.5300 2108.72 2678.77 46.18
2275 7.5320 1562.50 2049.73 39.89
2276 7.5340 1109.46 1643.07 33.13
2277 7.5360 857.87 1360.50 29.30
2278 7.5380 726.58 1151.42 27.13
2279 7.5400 563.70 989.95 23.71
2280 7.5420 506.37 861.71 22.37
2281 7.5440 444.66 758.10 20.94
2282 7.5460 328.88 673.14 18.14
2283 7.5480 337.55 602.70 18.39
2284 7.5500 299.76 543.66 17.18
2285 7.5520 250.60 493.76 15.74
2286 7.5540 237.44 451.20 15.26
2287 7.5560 202.51 414.68 14.18
2288 7.5580 217.93 383.11 14.82
2289 7.5600 174.97 355.71 13.17
2290 7.5620 201.58 331.85 14.10
2291 7.5640 167.15 311.05 12.79
2292 7.5660 159.15 293.08 12.57
2293 7.5680 160.56 277.87 12.74
2294 7.5700 177.04 265.65 13.28
2295 7.5720 181.13 256.75 13.36
2296 7.5740 177.38 251.03 13.16
2297 7.5760 152.81 247.97 12.31
2298 7.5780 175.98 243.96 13.28
2299 7.5800 155.88 234.95 12.45
2300 7.5820 164.74 222.21 12.73
2301 7.5840 164.06 209.15 12.69
2302 7.5860 178.73 196.16 13.28
2303 7.5880 131.88 183.98 11.54
2304 7.5900 122.55 173.82 11.00
2305 7.5920 114.51 165.70 10.64
2306 7.5940 134.59 159.07 11.47
2307 7.5960 121.29 153.44 10.97
2308 7.5980 108.57 148.49 10.45
2309 7.6000 107.38 144.03 10.32
2310 7.6020 130.60 139.96 11.35
2311 7.6040 116.82 136.20 10.70
2312 7.6060 113.18 132.72 10.59
2313 7.6080 92.57 129.49 9.68
2314 7.6100 91.21 126.48 9.50
2315 7.6120 106.71 123.66 10.28
2316 7.6140 89.73 121.03 9.38
2317 7.6160 85.52 118.55 9.20
2318 7.6180 100.06 116.22 10.03
2319 7.6200 88.78 114.03 9.40
2320 7.6220 118.73 111.96 10.79
2321 7.6240 98.63 110.01 9.87
2322 7.6260 87.69 108.16 9.32
2323 7.6280 93.51 106.42 9.74
2324 7.6300 115.27 104.76 10.68
2325 7.6320 92.00 103.18 9.53
2326 7.6340 89.58 101.69 9.37
2327 7.6360 114.62 100.27 10.69
2328 7.6380 96.51 98.92 9.85
2329 7.6400 99.03 97.63 9.94
2330 7.6420 89.66 96.40 9.35
2331 7.6440 90.78 95.23 9.51
2332 7.6460 108.08 94.11 10.32
2333 7.6480 86.59 93.04 9.38
2334 7.6500 67.35 92.02 8.19
2335 7.6520 91.71 91.04 9.52
2336 7.6540 96.24 90.10 9.74
2337 7.6560 105.84 89.20 10.23
2338 7.6580 81.75 88.34 9.08
2339 7.6600 76.33 87.51 8.68
2340 7.6620 94.24 86.72 9.64
2341 7.6640 79.55 85.95 8.84
2342 7.6660 91.36 85.22 9.49
2343 7.6680 71.92 84.51 8.54
2344 7.6700 63.11 83.83 7.91
2345 7.6720 79.28 83.18 8.82
2346 7.6740 73.98 82.55 8.51
2347 7.6760 90.20 81.94 9.46
2348 7.6780 72.14 81.35 8.54
2349 7.6800 83.60 80.78 9.12
2350 7.6820 78.76 80.24 8.80
2351 7.6840 76.95 79.71 8.70
2352 7.6860 85.17 79.20 9.13
2353 7.6880 71.93 78.70 8.54
2354 7.6900 87.49 78.22 9.33
2355 7.6920 68.07 77.76 8.18
2356 7.6940 76.54 77.31 8.66
2357 7.6960 74.94 76.88 8.64
2358 7.6980 68.57 76.46 8.29
2359 7.7000 80.50 76.05 8.92
2360 7.7020 78.35 75.66 8.81
2361 7.7040 90.44 75.27 9.45
2362 7.7060 91.03 74.90 9.49
2363 7.7080 87.99 74.54 9.41
2364 7.7100 82.75 74.19 9.07
2365 7.7120 91.41 73.85 9.50
2366 7.7140 80.87 73.51 8.91
2367 7.7160 81.26 73.19 8.95
2368 7.7180 81.20 58.50 9.06
2369 7.7200 84.36 58.47 9.12
2370 7.7220 76.34 58.45 8.66
2371 7.7240 62.35 58.42 7.84
2372 7.7260 86.53 58.40 9.22
2373 7.7280 71.73 58.37 8.49
2374 7.7300 68.39 58.35 8.26
2375 7.7320 72.98 58.32 8.51
2376 7.7340 78.01 58.30 8.79
2377 7.7360 71.02 58.27 8.40
2378 7.7380 81.58 58.24 9.06
2379 7.7400 78.98 58.22 8.85
2380 7.7420 72.86 58.19 8.48
2381 7.7440 72.81 58.17 8.48
2382 7.7460 66.49 58.14 8.09
2383 7.7480 87.72 58.12 9.42
2384 7.7500 76.32 58.09 8.72
2385 7.7520 70.36 58.07 8.32
2386 7.7540 86.94 58.02 9.19
2387 7.7560 78.28 58.00 8.81
2388 7.7580 72.20 57.98 8.55
2389 7.7600 67.29 57.95 8.21
2390 7.7620 73.53 57.93 8.50
2391 7.7640 81.13 57.90 8.90
2392 7.7660 73.61 57.88 8.58
2393 7.7680 68.12 57.86 8.35
2394 7.7700 75.59 57.83 8.69
2395 7.7720 65.40 57.81 8.05
2396 7.7740 69.32 57.78 8.26
2397 7.7760 64.08 57.76 7.96
2398 7.7780 79.96 57.74 8.95
2399 7.7800 57.09 57.71 7.57
2400 7.7820 64.94 57.69 7.97
2401 7.7840 84.58 57.67 9.13
2402 7.7860 88.46 57.64 9.34
2403 7.7880 67.81 57.62 8.33
2404 7.7900 70.96 57.59 8.40
2405 7.7920 83.40 57.57 9.10
2406 7.7940 63.24 57.55 7.89
2407 7.7960 83.46 57.52 9.10
2408 7.7980 67.25 57.50 8.23
2409 7.8000 95.77 57.48 9.77
2410 7.8020 77.31 57.45 8.76
2411 7.8040 63.04 57.43 7.91
2412 7.8060 63.34 57.41 7.88
2413 7.8080 51.80 57.38 7.24
2414 7.8100 67.91 57.36 8.25
2415 7.8120 50.44 57.33 7.03
2416 7.8140 60.85 57.31 7.71
2417 7.8160 67.23 57.29 8.20
2418 7.8180 66.51 57.26 8.22
2419 7.8200 70.79 57.24 8.42
2420 7.8220 57.50 57.22 7.53
2421 7.8240 57.75 57.19 7.60
2422 7.8260 62.25 57.17 7.80
2423 7.8280 58.45 57.15 7.71
2424 7.8300 63.33 57.12 7.96
2425 7.8320 66.76 57.10 8.07
2426 7.8340 67.46 57.08 8.18
2427 7.8360 57.40 57.05 7.54
2428 7.8380 65.81 57.03 8.15
2429 7.8400 55.94 57.01 7.45
2430 7.8420 65.32 56.98 8.02
2431 7.8440 62.58 56.96 7.88
2432 7.8460 61.17 56.94 7.80
2433 7.8480 78.66 56.91 8.89
2434 7.8500 58.23 56.89 7.66
2435 7.8520 67.75 56.87 8.18
2436 7.8540 77.28 56.85 8.71
2437 7.8560 75.14 56.82 8.58
2438 7.8580 57.73 56.80 7.65
2439 7.8600 62.18 56.78 7.87
2440 7.8620 59.71 56.75 7.66
2441 7.8640 59.11 56.73 7.64
2442 7.8660 67.26 56.71 8.17
2443 7.8680 44.33 56.68 6.70
2444 7.8700 60.92 56.66 7.81
2445 7.8720 59.69 56.64 7.68
2446 7.8740 77.68 56.62 8.75
2447 7.8760 61.11 56.59 7.75
2448 7.8780 72.07 56.57 8.52
2449 7.8800 74.20 56.55 8.63
2450 7.8820 55.47 56.52 7.39
2451 7.8840 55.47 56.50 7.40
2452 7.8860 62.62 56.48 7.87
2453 7.8880 62.34 56.46 7.93
2454 7.8900 57.68 56.43 7.59
2455 7.8920 52.62 56.41 7.22
2456 7.8940 76.19 56.39 8.68
2457 7.8960 66.37 56.36 8.10
2458 7.8980 73.84 56.34 8.60
2459 7.9000 67.32 56.32 8.19
2460 7.9020 66.71 56.30 8.11
2461 7.9040 55.12 56.27 7.37
2462 7.9060 60.48 56.25 7.75
2463 7.9080 57.65 56.23 7.63
2464 7.9100 75.52 56.21 8.66
2465 7.9120 72.09 56.18 8.40
2466 7.9140 70.55 67.24 8.38
2467 7.9160 64.26 67.65 7.94
2468 7.9180 50.30 68.08 7.14
2469 7.9200 62.55 68.55 7.89
2470 7.9220 71.68 69.04 8.40
2471 7.9240 66.46 69.56 8.07
2472 7.9260 59.50 70.12 7.65
2473 7.9280 59.28 70.72 7.71
2474 7.9300 60.60 71.36 7.77
2475 7.9320 64.21 72.05 7.96
2476 7.9340 69.33 72.79 8.28
2477 7.9360 74.46 73.58 8.57
2478 7.9380 67.56 74.43 8.26
2479 7.9400 82.28 75.35 9.01
2480 7.9420 80.48 76.34 8.85
2481 7.9440 68.21 77.42 8.21
2482 7.9460 72.97 78.58 8.47
2483 7.9480 84.74 79.85 9.20
2484 7.9500 69.45 81.22 8.35
2485 7.9520 82.26 82.72 9.05
2486 7.9540 74.89 84.37 8.61
2487 7.9560 82.18 86.17 8.96
2488 7.9580 92.20 88.15 9.61
2489 7.9600 83.48 90.34 9.12
2490 7.9620 93.54 92.76 9.58
2491 7.9640 117.24 95.44 10.73
2492 7.9660 138.65 98.43 11.67
2493 7.9680 142.88 101.78 11.99
2494 7.9700 137.20 105.54 11.63
2495 7.9720 162.58 109.78 12.71
2496 7.9740 161.15 114.60 12.51
2497 7.9760 163.26 120.08 12.66
2498 7.9780 175.70 126.37 13.30
2499 7.9800 181.34 133.63 13.45
2500 7.9820 187.59 142.08 13.58
2501 7.9840 198.42 151.97 14.02
2502 7.9860 183.07 163.66 13.47
2503 7.9880 180.80 177.60 13.52
2504 7.9900 234.03 194.42 15.26
2505 7.9920 204.73 214.96 10.55
2506 7.9940 228.79 240.37 11.87
2507 7.9960 249.11 272.34 13.09
2508 7.9980 261.82 313.33 13.94
2509 8.0000 324.73 366.97 15.98
2510 8.0020 387.10 439.10 17.38
2511 8.0040 495.20 538.94 19.90
2512 8.0060 635.82 682.53 22.77
2513 8.0080 849.66 899.36 26.69
2514 8.0100 1280.42 1251.39 33.00
2515 8.0120 1988.76 1898.73 41.27
2516 8.0140 3443.42 3262.52 55.13
2517 8.0160 6508.93 6136.07 77.72
2518 8.0180 11334.20 10863.80 107.02
2519 8.0200 13880.30 13170.10 120.80
2520 8.0220 9705.82 9076.09 97.19
2521 8.0240 5169.64 4886.10 69.22
2522 8.0260 2871.52 2652.84 50.59
2523 8.0280 1699.25 1616.27 39.11
2524 8.0300 1053.38 1103.98 30.70
2525 8.0320 742.27 810.94 25.62
2526 8.0340 529.00 624.79 21.47
2527 8.0360 360.99 499.15 17.77
2528 8.0380 282.80 410.49 15.93
2529 8.0400 200.84 345.76 13.40
2530 8.0420 197.40 297.08 13.12
2531 8.0440 160.17 259.59 11.83
2532 8.0460 127.80 230.13 10.55
2533 8.0480 145.70 206.57 11.36
2534 8.0500 119.09 187.43 10.36
2535 8.0520 113.71 171.67 9.92
2536 8.0540 105.13 158.54 9.61
2537 8.0560 93.64 147.50 9.05
2538 8.0580 93.87 138.27 9.14
2539 8.0600 88.67 130.23 8.91
2540 8.0620 81.93 123.30 8.44
2541 8.0640 96.06 117.27 9.18
2542 8.0660 91.48 112.00 8.91
2543 8.0680 82.28 107.36 8.55
2544 8.0700 70.13 103.26 7.92
2545 8.0720 80.67 99.61 8.39
2546 8.0740 61.89 96.36 7.35
2547 8.0760 93.57 93.44 9.07
2548 8.0780 72.43 90.82 7.99
2549 8.0800 70.32 88.44 7.93
2550 8.0820 85.93 86.30 8.65
2551 8.0840 77.85 84.34 8.24
2552 8.0860 75.89 82.56 8.14
2553 8.0880 56.84 80.93 7.09
2554 8.0900 71.37 79.44 7.97
2555 8.0920 64.33 78.07 7.50
2556 8.0940 68.07 76.80 7.76
2557 8.0960 56.03 75.63 6.98
2558 8.0980 69.40 74.55 7.85
2559 8.1000 60.57 73.55 7.35
2560 8.1020 77.20 72.62 8.19
2561 8.1040 68.89 71.75 7.75
2562 8.1060 76.50 70.94 8.16
2563 8.1080 74.39 70.19 8.08
2564 8.1100 63.88 69.49 7.55
2565 8.1120 67.03 68.82 7.65
2566 8.1140 74.16 68.21 8.03
2567 8.1160 54.29 67.62 6.89
2568 8.1180 55.74 67.08 7.03
2569 8.1200 68.50 66.56 7.79
2570 8.1220 72.26 66.07 7.92
2571 8.1240 62.00 65.62 7.37
2572 8.1260 58.54 65.18 7.11
2573 8.1280 71.73 54.24 7.98
2574 8.1300 61.97 54.23 7.41
2575 8.1320 69.63 54.22 7.77
2576 8.1340 52.94 54.21 6.80
2577 8.1360 65.24 54.21 7.53
2578 8.1380 62.74 54.20 7.42
2579 8.1400 58.58 54.19 7.21
2580 8.1420 59.38 54.19 7.17
2581 8.1440 64.10 54.18 7.45
2582 8.1460 61.06 54.18 7.26
2583 8.1480 51.09 54.17 6.76
2584 8.1500 65.29 54.17 7.59
2585 8.1520 71.50 54.17 7.86
2586 8.1540 67.43 54.17 7.69
2587 8.1560 69.22 54.17 7.75
2588 8.1580 67.02 54.17 7.72
2589 8.1600 54.43 54.17 6.93
2590 8.1620 68.39 54.18 7.71
2591 8.1640 59.17 54.18 7.17
2592 8.1660 53.90 54.19 6.84
2593 8.1680 69.05 54.20 7.85
2594 8.1700 60.14 54.21 7.26
2595 8.1720 56.46 54.22 6.98
2596 8.1740 65.40 54.24 7.55
2597 8.1760 68.34 54.26 7.69
2598 8.1780 76.89 54.28 8.26
2599 8.1800 59.06 54.30 7.25
2600 8.1820 73.78 54.33 7.97
2601 8.1840 66.67 54.36 7.67
2602 8.1860 63.87 54.39 7.46
2603 8.1880 76.60 54.43 8.29
2604 8.1900 60.35 54.53 7.29
2605 8.1920 54.75 54.58 6.92
2606 8.1940 63.50 54.64 7.41
2607 8.1960 69.26 54.70 7.76
2608 8.1980 50.88 54.77 6.77
2609 8.2000 72.80 54.85 7.98
2610 8.2020 66.50 54.93 7.61
2611 8.2040 54.62 55.03 6.93
2612 8.2060 54.47 55.14 6.92
2613 8.2080 69.02 55.27 7.86
2614 8.2100 82.10 55.40 8.56
2615 8.2120 73.34 55.56 7.97
2616 8.2140 50.50 55.74 6.64
2617 8.2160 57.24 55.94 7.08
2618 8.2180 54.08 56.18 6.96
2619 8.2200 69.11 56.44 7.83
2620 8.2220 65.09 56.75 7.50
2621 8.2240 72.52 57.11 7.98
2622 8.2260 66.25 57.52 7.61
2623 8.2280 85.82 58.01 8.80
2624 8.2300 69.95 58.59 7.84
2625 8.2320 70.66 59.28 7.86
2626 8.2340 66.33 60.11 7.62
2627 8.2360 70.95 61.13 7.91
2628 8.2380 76.34 62.42 8.26
2629 8.2400 77.14 64.07 8.31
2630 8.2420 76.51 66.32 8.14
2631 8.2440 78.90 69.53 8.32
2632 8.2460 85.90 74.34 8.69
2633 8.2480 74.29 81.67 8.14
2634 8.2500 99.26 92.58 9.37
2635 8.2520 116.37 107.99 10.01
2636 8.2540 119.42 127.90 10.24
2637 8.2560 126.44 149.95 10.47
2638 8.2580 161.99 169.21 12.08
2639 8.2600 168.03 184.48 12.13
2640 8.2620 165.44 197.79 12.07
2641 8.2640 157.60 211.82 11.72
2642 8.2660 199.06 221.57 13.27
2643 8.2680 205.72 218.63 13.56
2644 8.2700 220.09 200.52 13.99
2645 8.2720 186.42 173.73 12.71
2646 8.2740 143.49 146.23 11.23
2647 8.2760 119.47 122.57 10.23
2648 8.2780 95.76 104.32 9.22
2649 8.2800 94.14 91.40 9.10
2650 8.2820 106.41 83.00 9.64
2651 8.2840 83.02 78.14 8.54
2652 8.2860 91.27 76.18 8.91
2653 8.2880 84.99 77.29 8.73
2654 8.2900 81.23 83.42 8.47
2655 8.2920 119.01 98.89 10.14
2656 8.2940 132.31 126.66 10.72
2657 8.2960 150.90 134.26 11.45
2658 8.2980 127.02 108.13 10.63
2659 8.3000 98.28 85.85 9.31
2660 8.3020 74.57 74.37 8.06
2661 8.3040 83.46 68.82 8.54
2662 8.3060 72.24 65.84 7.98
2663 8.3080 56.57 64.03 7.07
2664 8.3100 64.65 62.84 7.54
2665 8.3120 60.96 62.01 7.29
2666 8.3140 64.27 61.42 7.50
2667 8.3160 55.15 61.00 6.91
2668 8.3180 58.64 60.70 7.22
2669 8.3200 62.93 60.49 7.44
2670 8.3220 66.97 60.35 7.60
2671 8.3240 60.28 60.27 7.27
2672 8.3260 65.52 60.24 7.58
2673 8.3280 64.41 60.26 7.58
2674 8.3300 52.43 60.31 6.80
2675 8.3320 63.86 60.40 7.48
2676 8.3340 63.45 60.53 7.44
2677 8.3360 69.48 60.68 7.78
2678 8.3380 73.71 60.88 8.07
2679 8.3400 64.10 61.10 7.54
2680 8.3420 57.56 61.36 7.07
2681 8.3440 60.29 61.65 7.30
2682 8.3460 59.03 61.99 7.16
2683 8.3480 54.89 62.36 7.00
2684 8.3500 60.07 62.77 7.24
2685 8.3520 60.06 63.23 7.23
2686 8.3540 57.96 63.74 7.12
2687 8.3560 67.16 64.31 7.66
2688 8.3580 70.31 64.93 7.85
2689 8.3600 57.94 65.63 7.13
2690 8.3620 57.74 66.40 7.08
2691 8.3640 66.03 67.26 7.59
2692 8.3660 68.81 68.21 7.74
2693 8.3680 66.90 69.27 7.67
2694 8.3700 71.15 70.46 7.87
2695 8.3720 79.47 71.80 8.31
2696 8.3740 59.68 73.30 7.22
2697 8.3760 65.11 75.00 7.48
2698 8.3780 65.25 76.94 7.58
2699 8.3800 87.77 79.15 8.76
2700 8.3820 72.33 81.68 7.94
2701 8.3840 61.31 84.62 7.30
2702 8.3860 73.59 88.04 8.01
2703 8.3880 86.36 92.05 8.73
2704 8.3900 87.54 96.80 8.70
2705 8.3920 95.79 102.48 9.14
2706 8.3940 116.20 109.37 10.05
2707 8.3960 131.58 117.82 10.68
2708 8.3980 128.07 128.35 10.63
2709 8.4000 153.38 141.72 11.54
2710 8.4020 154.47 159.04 11.64
2711 8.4040 195.11 182.43 13.01
2712 8.4060 216.15 215.68 13.72
2713 8.4080 287.08 266.70 15.87
2714 8.4100 377.21 350.59 18.11
2715 8.4120 468.40 490.87 20.24
2716 8.4140 623.82 713.37 23.21
2717 8.4160 947.28 1021.94 28.86
2718 8.4180 1208.94 1333.34 32.72
2719 8.4200 1367.03 1447.22 34.59
2720 8.4220 1316.15 1354.04 34.19
2721 8.4240 1489.87 1322.54 36.20
2722 8.4260 1732.81 1547.65 39.26
2723 8.4280 2117.00 2024.60 43.70
2724 8.4300 2252.56 2353.83 44.87
2725 8.4320 1783.74 1997.33 39.79
2726 8.4340 1120.62 1345.37 31.29
2727 8.4360 796.29 850.54 26.39
2728 8.4380 630.53 556.13 23.55
2729 8.4400 435.37 393.83 19.47
2730 8.4420 337.48 302.25 17.12
2731 8.4440 322.63 245.83 16.75
2732 8.4460 269.78 208.04 15.29
2733 8.4480 193.96 181.34 13.04
2734 8.4500 210.82 161.92 13.44
2735 8.4520 196.61 147.60 13.10
2736 8.4540 177.79 137.07 12.34
2737 8.4560 163.58 129.61 11.99
2738 8.4580 133.98 124.91 10.81
2739 8.4600 146.15 122.95 11.24
2740 8.4620 140.55 124.14 11.05
2741 8.4640 129.24 128.90 10.58
2742 8.4660 145.42 137.74 11.30
2743 8.4680 133.66 150.87 10.86
2744 8.4700 143.70 167.93 11.18
2745 8.4720 141.64 187.45 11.13
2746 8.4740 155.10 206.23 11.59
2747 8.4760 197.10 219.00 13.16
2748 8.4780 200.97 220.38 13.36
2749 8.4800 199.77 209.12 13.13
2750 8.4820 187.74 189.28 12.82
2751 8.4840 159.36 166.54 11.72
2752 8.4860 117.99 144.95 10.21
2753 8.4880 130.82 126.53 10.80
2754 8.4900 105.72 111.95 9.59
2755 8.4920 92.95 101.07 8.98
2756 8.4940 78.24 93.30 8.28
2757 8.4960 82.98 87.93 8.60
2758 8.4980 94.95 84.28 9.18
2759 8.5000 80.04 81.80 8.34
2760 8.5020 68.25 80.10 7.71
2761 8.5040 80.06 78.93 8.38
2762 8.5060 73.17 78.15 8.04
2763 8.5080 77.83 77.57 8.34
2764 8.5100 63.89 77.34 7.44
2765 8.5120 86.61 77.32 8.72
2766 8.5140 79.39 77.51 8.31
2767 8.5160 74.19 77.91 8.16
2768 8.5180 75.14 78.51 8.20
2769 8.5200 92.81 79.32 8.99
2770 8.5220 76.18 80.36 8.16
2771 8.5240 88.61 81.65 8.81
2772 8.5260 91.30 83.22 9.05
2773 8.5280 99.34 85.11 9.43
2774 8.5300 79.02 87.36 8.34
2775 8.5320 88.54 90.04 8.76
2776 8.5340 96.79 93.24 9.24
2777 8.5360 106.32 97.05 9.72
2778 8.5380 102.77 101.64 9.64
2779 8.5400 114.04 107.17 9.93
2780 8.5420 125.93 113.91 10.48
2781 8.5440 137.01 122.20 11.01
2782 8.5460 149.73 132.52 11.58
2783 8.5480 164.78 145.58 12.21
2784 8.5500 211.72 162.37 13.63
2785 8.5520 249.26 184.46 14.72
2786 8.5540 303.35 214.31 16.30
2787 8.5560 328.85 256.30 17.16
2788 8.5580 414.47 319.26 19.36
2789 8.5600 554.15 421.85 22.20
2790 8.5620 703.18 600.16 24.69
2791 8.5640 963.07 908.28 29.48
2792 8.5660 1385.93 1392.96 35.50
2793 8.5680 1771.42 1975.86 40.43
2794 8.5700 2194.69 2288.87 44.44
2795 8.5720 2066.94 2204.44 42.88
2796 8.5740 1898.91 2104.95 41.37
2797 8.5760 1956.74 1990.14 42.07
2798 8.5780 1660.78 1622.48 39.22
2799 8.5800 1212.28 1145.19 32.77
2800 8.5820 791.08 768.30 26.40
2801 8.5840 556.05 522.91 22.18
2802 8.5860 402.13 375.69 18.97
2803 8.5880 300.78 288.24 16.41
2804 8.5900 225.35 233.60 14.10
2805 8.5920 203.80 196.73 13.31
2806 8.5940 159.74 170.19 11.88
2807 8.5960 123.12 150.32 10.45
2808 8.5980 107.12 135.00 9.82
2809 8.6000 123.58 122.94 10.43
2810 8.6020 107.82 113.27 9.69
2811 8.6040 84.76 105.41 8.65
2812 8.6060 101.16 98.92 9.45
2813 8.6080 81.61 93.50 8.54
2814 8.6100 88.17 88.94 8.79
2815 8.6120 77.75 85.05 8.24
2816 8.6140 69.67 81.72 7.84
2817 8.6160 73.82 78.83 8.07
2818 8.6180 73.68 76.32 8.10
2819 8.6200 72.63 74.12 8.01
2820 8.6220 85.48 72.18 8.64
2821 8.6240 69.99 70.46 7.85
2822 8.6260 71.13 68.93 7.93
2823 8.6280 89.50 67.56 8.93
2824 8.6300 84.95 66.33 8.67
2825 8.6320 68.45 65.22 7.72
2826 8.6340 66.64 72.83 7.66
2827 8.6360 55.52 72.14 7.01
2828 8.6380 76.65 71.54 8.27
2829 8.6400 69.22 71.01 7.81
2830 8.6420 78.61 70.56 8.27
2831 8.6440 75.88 70.18 8.15
2832 8.6460 82.28 69.86 8.52
2833 8.6480 73.72 69.59 8.08
2834 8.6500 71.50 69.37 7.95
2835 8.6520 61.42 69.21 7.30
2836 8.6540 62.94 69.09 7.42
2837 8.6560 66.65 69.01 7.68
2838 8.6580 72.45 68.97 7.99
2839 8.6600 70.35 68.98 7.86
2840 8.6620 71.30 69.02 7.86
2841 8.6640 60.39 69.10 7.26
2842 8.6660 72.97 69.22 7.98
2843 8.6680 71.05 69.37 7.94
2844 8.6700 65.67 69.56 7.62
2845 8.6720 74.54 69.79 8.04
2846 8.6740 61.01 70.05 7.29
2847 8.6760 64.24 70.35 7.50
2848 8.6780 62.39 70.69 7.43
2849 8.6800 72.69 71.08 7.98
2850 8.6820 68.77 71.50 7.76
2851 8.6840 72.47 71.96 7.95
2852 8.6860 66.17 72.47 7.62
2853 8.6880 67.42 73.02 7.73
2854 8.6900 71.27 73.63 7.92
2855 8.6920 64.49 74.28 7.46
2856 8.6940 74.57 74.99 8.10
2857 8.6960 60.08 75.76 7.28
2858 8.6980 75.86 76.59 8.17
2859 8.7000 68.87 77.49 7.78
2860 8.7020 76.51 78.46 8.13
2861 8.7040 62.89 79.51 7.41
2862 8.7060 88.07 80.65 8.79
2863 8.7080 88.38 81.87 8.87
2864 8.7100 72.28 83.20 7.96
2865 8.7120 69.84 84.64 7.83
2866 8.7140 73.81 84.84 8.03
2867 8.7160 77.64 86.56 8.29
2868 8.7180 80.51 88.44 8.45
2869 8.7200 78.15 90.47 8.27
2870 8.7220 73.38 92.68 8.00
2871 8.7240 79.94 95.09 8.35
2872 8.7260 85.49 97.73 8.68
2873 8.7280 80.25 100.62 8.45
2874 8.7300 98.75 103.79 9.34
2875 8.7320 88.52 106.24 8.75
2876 8.7340 94.74 110.12 9.07
2877 8.7360 93.80 114.43 9.09
2878 8.7380 102.93 119.23 9.57
2879 8.7400 119.68 124.58 10.27
2880 8.7420 127.04 130.58 10.52
2881 8.7440 133.08 137.34 10.76
2882 8.7460 119.63 144.99 10.20
2883 8.7480 152.72 153.71 11.72
2884 8.7500 155.37 163.70 11.64
2885 8.7520 180.49 175.16 12.57
2886 8.7540 179.08 188.57 12.46
2887 8.7560 176.12 204.29 12.46
2888 8.7580 223.55 222.90 14.09
2889 8.7600 249.44 245.16 14.85
2890 8.7620 274.86 272.12 15.40
2891 8.7640 327.98 305.25 16.97
2892 8.7660 408.37 346.55 18.95
2893 8.7680 457.26 399.08 20.15
2894 8.7700 546.72 467.33 21.99
2895 8.7720 652.20 558.78 23.89
2896 8.7740 844.39 687.08 27.25
2897 8.7760 1025.56 879.85 30.17
2898 8.7780 1392.94 1194.39 35.56
2899 8.7800 1766.88 1732.32 39.77
2900 8.7820 2639.58 2633.36 48.83
2901 8.7840 3984.13 3996.83 60.26
2902 8.7860 5822.03 5597.38 74.51
2903 8.7880 7151.60 6403.37 83.51
2904 8.7900 5995.09 5624.73 75.91
2905 8.7920 4730.06 4285.98 66.26
2906 8.7940 3859.52 3379.94 59.46
2907 8.7960 3615.81 3139.20 57.88
2908 8.7980 3786.62 3516.75 59.63
2909 8.8000 4262.94 4349.02 63.03
2910 8.8020 5041.02 5231.93 68.11
2911 8.8040 5643.86 5434.09 73.13
2912 8.8060 4933.05 4645.91 67.88
2913 8.8080 3408.19 3453.26 56.16
2914 8.8100 2151.30 2400.58 43.92
2915 8.8120 1508.82 1643.49 36.55
2916 8.8140 1025.23 1152.32 29.94
2917 8.8160 835.63 849.43 27.18
2918 8.8180 633.72 661.42 23.75
2919 8.8200 505.59 538.39 21.12
2920 8.8220 418.18 452.07 19.08
2921 8.8240 332.66 387.84 16.99
2922 8.8260 299.08 338.24 16.24
2923 8.8280 273.60 298.95 15.55
2924 8.8300 256.42 267.22 14.95
2925 8.8320 196.50 241.25 13.08
2926 8.8340 170.57 219.70 12.20
2927 8.8360 139.41 201.62 11.02
2928 8.8380 152.73 186.29 11.70
2929 8.8400 166.57 173.18 12.02
2930 8.8420 132.15 161.88 10.69
2931 8.8440 135.83 152.06 10.84
2932 8.8460 109.69 143.47 9.80
2933 8.8480 106.71 135.92 9.71
2934 8.8500 105.63 129.24 9.58
2935 8.8520 85.33 123.31 8.63
2936 8.8540 94.43 118.01 9.06
2937 8.8560 103.86 113.25 9.53
2938 8.8580 95.90 108.97 9.21
2939 8.8600 81.30 105.10 8.45
2940 8.8620 80.91 101.59 8.38
2941 8.8640 70.42 98.40 7.81
2942 8.8660 70.09 95.49 7.87
2943 8.8680 77.28 92.82 8.26
2944 8.8700 77.53 90.37 8.23
2945 8.8720 71.07 88.12 7.86
2946 8.8740 88.92 86.05 8.82
2947 8.8760 69.14 84.13 7.78
2948 8.8780 77.06 82.36 8.27
2949 8.8800 63.39 80.71 7.44
2950 8.8820 68.45 79.18 7.73
2951 8.8840 64.87 77.75 7.47
2952 8.8860 63.82 76.42 7.52
2953 8.8880 78.01 75.18 8.31
2954 8.8900 67.55 74.02 7.70
2955 8.8920 72.34 72.92 7.89
2956 8.8940 54.53 71.90 6.88
2957 8.8960 75.22 70.94 8.15
2958 8.8980 69.31 70.03 7.81
2959 8.9000 65.63 69.18 7.58
2960 8.9020 59.26 68.37 7.15
2961 8.9040 61.08 67.61 7.28
2962 8.9060 56.44 66.89 7.05
2963 8.9080 55.14 66.21 7.01
2964 8.9100 71.10 65.57 7.88
2965 8.9120 66.37 64.95 7.63
2966 8.9140 73.22 64.37 7.93
2967 8.9160 51.41 63.82 6.78
2968 8.9180 52.89 63.29 6.86
2969 8.9200 60.83 62.79 7.30
2970 8.9220 64.86 62.31 7.45
2971 8.9240 51.42 61.86 6.69
2972 8.9260 59.63 61.42 7.28
2973 8.9280 51.82 61.01 6.77
2974 8.9300 58.01 60.61 7.13
2975 8.9320 60.52 60.23 7.26
2976 8.9340 61.96 59.87 7.30
2977 8.9360 52.74 59.52 6.87
2978 8.9380 67.90 59.19 7.81
2979 8.9400 66.33 58.87 7.64
2980 8.9420 59.85 58.56 7.22
2981 8.9440 47.87 53.79 6.45
2982 8.9460 46.12 53.62 6.43
2983 8.9480 51.00 54.58 6.74
2984 8.9500 58.04 54.45 7.13
2985 8.9520 62.69 54.34 7.38
2986 8.9540 50.95 54.23 6.64
2987 8.9560 58.81 54.14 7.25
2988 8.9580 61.99 54.05 7.43
2989 8.9600 51.81 53.96 6.74
2990 8.9620 62.10 53.88 7.32
2991 8.9640 53.16 53.82 6.83
2992 8.9660 69.91 53.75 7.88
2993 8.9680 44.93 53.70 6.34
2994 8.9700 47.49 53.65 6.46
2995 8.9720 63.92 53.61 7.45
2996 8.9740 73.35 53.58 7.98
2997 8.9760 58.01 53.55 7.20
2998 8.9780 48.26 53.53 6.56
2999 8.9800 52.59 53.53 6.78
3000 8.9820 62.96 53.53 7.40
3001 8.9840 60.99 49.99 7.29
3002 8.9860 54.13 50.09 6.95
3003 8.9880 51.98 50.19 6.81
3004 8.9900 61.93 50.30 7.38
3005 8.9920 55.24 50.42 6.92
3006 8.9940 47.12 50.55 6.41
3007 8.9960 55.22 50.69 7.01
3008 8.9980 60.22 50.84 7.31
3009 9.0000 56.15 51.00 6.99
3010 9.0020 47.38 51.18 6.43
3011 9.0040 51.69 51.38 6.71
3012 9.0060 53.47 51.59 6.86
3013 9.0080 53.41 51.83 6.90
3014 9.0100 44.82 52.09 6.25
3015 9.0120 72.72 52.37 7.91
3016 9.0140 65.29 52.69 7.52
3017 9.0160 54.88 53.04 7.01
3018 9.0180 58.68 53.43 7.19
3019 9.0200 61.04 53.86 7.31
3020 9.0220 59.90 54.35 7.20
3021 9.0240 55.32 54.90 6.95
3022 9.0260 64.30 55.53 7.55
3023 9.0280 60.26 56.23 7.32
3024 9.0300 67.11 57.04 7.69
3025 9.0320 57.40 57.97 7.07
3026 9.0340 61.84 59.05 7.33
3027 9.0360 70.41 60.31 7.92
3028 9.0380 91.37 61.78 9.00
3029 9.0400 78.46 63.53 8.28
3030 9.0420 74.91 65.63 8.07
3031 9.0440 72.95 68.16 7.98
3032 9.0460 80.40 71.27 8.45
3033 9.0480 76.39 75.14 8.22
3034 9.0500 88.34 80.03 8.79
3035 9.0520 100.06 86.33 9.33
3036 9.0540 108.50 94.63 9.69
3037 9.0560 145.80 105.86 11.36
3038 9.0580 141.71 121.52 11.20
3039 9.0600 165.28 144.28 11.96
3040 9.0620 225.77 179.31 13.93
3041 9.0640 274.70 237.68 15.48
3042 9.0660 387.91 343.37 18.57
3043 9.0680 516.88 539.58 21.47
3044 9.0700 774.60 871.09 26.21
3045 9.0720 999.36 1231.92 29.59
3046 9.0740 1206.26 1190.67 32.51
3047 9.0760 912.55 811.02 28.62
3048 9.0780 561.83 500.89 22.45
3049 9.0800 359.82 322.26 17.74
3050 9.0820 243.92 226.24 14.54
3051 9.0840 160.18 172.64 11.81
3052 9.0860 133.29 140.03 10.87
3053 9.0880 116.95 118.61 10.17
3054 9.0900 107.55 103.75 9.72
3055 9.0920 81.86 93.05 8.43
3056 9.0940 77.69 85.09 8.20
3057 9.0960 74.75 79.03 8.13
3058 9.0980 73.94 74.31 8.11
3059 9.1000 59.73 70.56 7.19
3060 9.1020 58.90 67.54 7.15
3061 9.1040 60.98 65.07 7.30
3062 9.1060 57.48 63.02 7.11
3063 9.1080 53.78 61.30 6.93
3064 9.1100 48.79 59.85 6.51
3065 9.1120 58.62 58.61 7.11
3066 9.1140 66.95 57.54 7.62
3067 9.1160 59.82 56.62 7.28
3068 9.1180 46.22 55.81 6.40
3069 9.1200 59.93 55.11 7.20
3070 9.1220 43.67 54.48 6.14
3071 9.1240 60.94 53.94 7.31
3072 9.1260 46.89 53.45 6.43
3073 9.1280 56.31 53.01 7.07
3074 9.1300 46.09 52.61 6.32
3075 9.1320 42.75 52.25 6.11
3076 9.1340 38.48 51.93 5.80
3077 9.1360 41.34 51.63 6.05
3078 9.1380 52.60 51.37 6.80
3079 9.1400 52.98 51.12 6.75
3080 9.1420 55.74 50.90 6.96
3081 9.1440 37.72 50.69 5.71
3082 9.1460 47.28 50.50 6.49
3083 9.1480 50.46 50.32 6.66
3084 9.1500 36.81 50.16 5.64
3085 9.1520 47.53 50.01 6.46
3086 9.1540 49.55 50.02 6.56
3087 9.1560 50.61 49.89 6.69
3088 9.1580 47.01 49.77 6.46
3089 9.1600 40.67 49.66 5.90
3090 9.1620 36.82 49.55 5.67
3091 9.1640 44.40 49.45 6.22
3092 9.1660 38.70 49.36 5.85
3093 9.1680 44.16 49.28 6.28
3094 9.1700 57.61 49.20 7.07
3095 9.1720 39.37 49.23 5.85
3096 9.1740 52.52 49.16 6.75
3097 9.1760 49.97 49.10 6.68
3098 9.1780 45.02 49.04 6.30
3099 9.1800 47.41 48.98 6.37
3100 9.1820 44.60 48.93 6.24
3101 9.1840 49.69 48.87 6.59
3102 9.1860 40.48 48.83 5.99
3103 9.1880 41.34 48.78 6.07
3104 9.1900 46.62 48.74 6.35
3105 9.1920 36.46 48.70 5.62
3106 9.1940 55.06 48.66 6.93
3107 9.1960 44.15 48.62 6.29
3108 9.1980 47.89 48.59 6.48
3109 9.2000 43.77 47.48 6.13
3110 9.2020 48.88 47.48 6.49
3111 9.2040 47.42 47.49 6.44
3112 9.2060 54.20 47.49 6.99
3113 9.2080 50.71 47.50 6.68
3114 9.2100 45.01 47.50 6.23
3115 9.2120 53.43 47.51 6.78
3116 9.2140 37.24 47.51 5.74
3117 9.2160 42.39 47.52 6.18
3118 9.2180 42.68 47.52 6.17
3119 9.2200 47.52 47.53 6.38
3120 9.2220 52.13 47.53 6.75
3121 9.2240 42.26 47.54 6.09
3122 9.2260 44.12 47.55 6.32
3123 9.2280 49.42 47.56 6.63
3124 9.2300 48.07 47.57 6.48
3125 9.2320 45.81 47.58 6.28
3126 9.2340 47.18 47.58 6.47
3127 9.2360 63.36 47.60 7.58
3128 9.2380 45.16 47.61 6.34
3129 9.2400 41.44 47.62 5.98
3130 9.2420 44.72 47.63 6.29
3131 9.2440 40.18 47.64 5.95
3132 9.2460 48.66 47.66 6.62
3133 9.2480 54.13 47.67 6.96
3134 9.2500 44.37 47.68 6.19
3135 9.2520 42.14 47.70 6.06
3136 9.2540 31.25 47.72 5.27
3137 9.2560 41.38 47.73 6.14
3138 9.2580 45.83 47.75 6.36
3139 9.2600 40.82 47.77 5.96
3140 9.2620 42.40 47.79 6.10
3141 9.2640 35.75 47.82 5.64
3142 9.2660 36.65 47.84 5.76
3143 9.2680 32.81 47.86 5.45
3144 9.2700 37.50 47.89 5.71
3145 9.2720 45.22 47.92 6.29
3146 9.2740 42.84 47.95 6.17
3147 9.2760 44.21 47.98 6.32
3148 9.2780 38.70 48.01 5.88
3149 9.2800 45.48 48.04 6.29
3150 9.2820 44.59 48.08 6.26
3151 9.2840 45.44 48.12 6.35
3152 9.2860 48.51 48.16 6.65
3153 9.2880 57.19 48.20 7.14
3154 9.2900 43.50 48.25 6.15
3155 9.2920 42.56 48.30 6.08
3156 9.2940 44.19 48.35 6.27
3157 9.2960 53.84 48.41 6.96
3158 9.2980 43.31 48.47 6.20
3159 9.3000 38.86 48.53 5.82
3160 9.3020 43.19 48.60 6.13
3161 9.3040 43.29 48.68 6.21
3162 9.3060 40.94 48.76 6.08
3163 9.3080 51.80 48.84 6.81
3164 9.3100 42.57 48.93 6.08
3165 9.3120 47.13 49.03 6.42
3166 9.3140 53.19 49.14 6.83
3167 9.3160 58.89 49.25 7.30
3168 9.3180 46.88 49.37 6.43
3169 9.3200 38.06 49.51 5.77
3170 9.3220 49.68 49.65 6.58
3171 9.3240 42.42 49.81 6.11
3172 9.3260 60.11 49.99 7.35
3173 9.3280 52.83 50.17 6.87
3174 9.3300 43.75 50.38 6.18
3175 9.3320 52.38 50.61 6.72
3176 9.3340 47.50 50.86 6.50
3177 9.3360 42.39 51.14 6.20
3178 9.3380 48.76 51.45 6.59
3179 9.3400 42.52 51.79 6.08
3180 9.3420 45.99 52.18 6.35
3181 9.3440 43.08 52.61 6.16
3182 9.3460 55.35 53.10 7.07
3183 9.3480 51.27 53.65 6.78
3184 9.3500 39.56 54.28 5.88
3185 9.3520 37.04 55.00 5.68
3186 9.3540 40.42 55.84 6.00
3187 9.3560 49.13 56.82 6.69
3188 9.3580 49.48 57.98 6.64
3189 9.3600 53.75 59.37 6.83
3190 9.3620 57.65 61.08 7.09
3191 9.3640 58.82 63.22 7.20
3192 9.3660 62.57 65.95 7.53
3193 9.3680 61.09 69.45 7.42
3194 9.3700 63.07 73.97 7.39
3195 9.3720 73.05 79.79 7.95
3196 9.3740 79.49 87.26 8.38
3197 9.3760 94.80 96.82 9.26
3198 9.3780 108.00 109.04 9.78
3199 9.3800 122.83 124.83 10.35
3200 9.3820 145.89 145.99 11.24
3201 9.3840 204.12 175.45 13.41
3202 9.3860 212.05 215.95 13.84
3203 9.3880 279.22 268.24 15.83
3204 9.3900 364.03 328.33 17.85
3205 9.3920 394.01 384.49 18.44
3206 9.3940 408.87 419.13 19.07
3207 9.3960 375.78 418.96 18.39
3208 9.3980 291.03 383.10 16.14
3209 9.4000 265.84 323.78 15.22
3210 9.4020 211.52 259.52 13.51
3211 9.4040 166.48 203.21 12.13
3212 9.4060 165.87 159.45 12.22
3213 9.4080 132.50 128.03 10.91
3214 9.4100 118.31 106.57 10.16
3215 9.4120 119.27 92.32 10.18
3216 9.4140 111.99 82.79 9.93
3217 9.4160 98.00 76.22 9.42
3218 9.4180 101.46 71.47 9.58
3219 9.4200 79.27 67.86 8.32
3220 9.4220 77.43 65.02 8.19
3221 9.4240 85.29 62.72 8.70
3222 9.4260 68.67 60.82 7.84
3223 9.4280 82.84 59.25 8.59
3224 9.4300 77.58 57.92 8.27
3225 9.4320 58.39 56.79 7.12
3226 9.4340 67.51 55.82 7.73
3227 9.4360 64.44 54.98 7.62
3228 9.4380 54.09 54.25 6.95
3229 9.4400 71.52 53.62 7.88
3230 9.4420 60.41 53.06 7.23
3231 9.4440 58.12 52.56 7.19
3232 9.4460 63.08 52.12 7.52
3233 9.4480 53.02 51.73 6.92
3234 9.4500 69.93 51.38 7.82
3235 9.4520 62.27 51.06 7.35
3236 9.4540 62.26 50.78 7.43
3237 9.4560 65.10 50.52 7.64
3238 9.4580 52.02 50.29 6.85
3239 9.4600 46.49 50.07 6.38
3240 9.4620 48.38 49.88 6.48
3241 9.4640 62.86 49.70 7.44
3242 9.4660 62.84 49.53 7.50
3243 9.4680 51.66 49.38 6.82
3244 9.4700 54.40 49.24 6.92
3245 9.4720 52.11 49.11 6.73
3246 9.4740 39.50 48.99 5.90
3247 9.4760 53.16 48.88 6.92
3248 9.4780 61.60 48.78 7.41
3249 9.4800 56.84 48.68 7.07
3250 9.4820 57.44 48.59 7.06
3251 9.4840 51.27 48.51 6.70
3252 9.4860 53.49 48.43 6.91
3253 9.4880 53.42 48.36 6.91
3254 9.4900 59.69 48.29 7.25
3255 9.4920 44.39 48.23 6.21
3256 9.4940 52.59 48.16 6.81
3257 9.4960 52.25 48.11 6.85
3258 9.4980 50.45 48.05 6.71
3259 9.5000 61.69 48.00 7.35
3260 9.5020 47.01 47.95 6.37
3261 9.5040 47.55 47.91 6.46
3262 9.5060 43.45 47.86 6.24
3263 9.5080 55.13 47.99 7.03
3264 9.5100 46.54 47.96 6.40
3265 9.5120 56.32 47.92 6.98
3266 9.5140 45.94 47.89 6.33
3267 9.5160 41.86 47.86 6.13
3268 9.5180 44.22 47.84 6.28
3269 9.5200 60.24 47.81 7.29
3270 9.5220 45.82 47.79 6.30
3271 9.5240 47.05 47.77 6.44
3272 9.5260 52.34 47.75 6.85
3273 9.5280 57.07 47.73 7.15
3274 9.5300 48.43 47.71 6.50
3275 9.5320 56.90 47.69 7.04
3276 9.5340 47.71 47.68 6.48
3277 9.5360 57.20 47.66 7.12
3278 9.5380 60.58 47.65 7.35
3279 9.5400 50.65 47.64 6.65
3280 9.5420 62.70 47.63 7.38
3281 9.5440 51.34 47.62 6.74
3282 9.5460 50.14 47.61 6.72
3283 9.5480 53.68 47.60 6.92
3284 9.5500 49.41 47.60 6.58
3285 9.5520 49.24 47.59 6.55
3286 9.5540 57.31 47.59 7.09
3287 9.5560 42.32 47.58 6.16
3288 9.5580 51.23 47.58 6.75
3289 9.5600 46.80 47.58 6.42
3290 9.5620 54.74 47.58 6.88
3291 9.5640 57.08 47.58 7.08
3292 9.5660 52.98 47.59 6.86
3293 9.5680 54.57 47.59 7.02
3294 9.5700 51.48 47.60 6.74
3295 9.5720 68.07 47.60 7.70
3296 9.5740 48.81 47.61 6.54
3297 9.5760 51.76 47.62 6.82
3298 9.5780 61.72 47.63 7.42
3299 9.5800 56.85 47.64 7.05
3300 9.5820 53.33 47.66 6.80
3301 9.5840 54.59 47.67 6.94
3302 9.5860 49.15 47.69 6.63
3303 9.5880 47.25 47.71 6.48
3304 9.5900 69.53 47.73 7.85
3305 9.5920 66.66 47.76 7.58
3306 9.5940 54.09 47.79 6.90
3307 9.5960 49.25 47.82 6.64
3308 9.5980 53.43 47.85 6.89
3309 9.6000 56.87 47.89 7.08
3310 9.6020 51.21 47.93 6.67
3311 9.6040 55.23 47.97 6.96
3312 9.6060 56.55 48.02 7.12
3313 9.6080 48.78 48.08 6.58
3314 9.6100 49.06 48.14 6.59
3315 9.6120 60.00 48.20 7.19
3316 9.6140 54.90 48.28 6.94
3317 9.6160 47.28 48.36 6.53
3318 9.6180 47.94 48.46 6.53
3319 9.6200 52.80 48.56 6.84
3320 9.6220 57.42 48.68 7.04
3321 9.6240 43.09 48.75 6.17
3322 9.6260 50.39 48.91 6.70
3323 9.6280 49.77 49.08 6.67
3324 9.6300 55.60 49.27 7.00
3325 9.6320 49.69 49.50 6.56
3326 9.6340 55.10 49.76 6.95
3327 9.6360 56.22 49.92 7.07
3328 9.6380 59.49 50.27 7.27
3329 9.6400 53.65 50.70 6.88
3330 9.6420 63.55 51.21 7.42
3331 9.6440 55.88 51.83 6.99
3332 9.6460 67.79 52.60 7.74
3333 9.6480 59.51 53.58 7.27
3334 9.6500 69.15 54.87 7.81
3335 9.6520 74.62 56.65 8.02
3336 9.6540 60.59 59.22 7.27
3337 9.6560 70.27 63.02 7.91
3338 9.6580 66.67 68.46 7.67
3339 9.6600 84.26 75.22 8.57
3340 9.6620 101.07 81.16 9.36
3341 9.6640 103.14 85.46 9.49
3342 9.6660 107.89 92.61 9.79
3343 9.6680 117.76 107.74 10.25
3344 9.6700 136.01 134.63 10.91
3345 9.6720 155.09 174.85 11.57
3346 9.6740 217.72 221.08 13.78
3347 9.6760 243.30 245.15 14.74
3348 9.6780 229.60 223.11 14.20
3349 9.6800 193.35 176.65 13.06
3350 9.6820 120.77 134.47 10.25
3351 9.6840 111.80 104.78 9.85
3352 9.6860 91.27 86.04 9.05
3353 9.6880 76.72 74.70 8.24
3354 9.6900 68.50 67.75 7.74
3355 9.6920 70.04 63.25 7.81
3356 9.6940 58.85 60.12 7.17
3357 9.6960 68.19 57.84 7.78
3358 9.6980 53.81 56.12 6.91
3359 9.7000 52.57 54.79 6.80
3360 9.7020 51.58 53.73 6.70
3361 9.7040 52.84 52.89 6.80
3362 9.7060 56.00 52.21 7.10
3363 9.7080 60.64 51.65 7.32
3364 9.7100 54.28 51.18 6.90
3365 9.7120 49.43 50.79 6.60
3366 9.7140 62.04 50.46 7.35
3367 9.7160 50.74 50.18 6.73
3368 9.7180 67.41 49.94 7.72
3369 9.7200 48.37 49.74 6.52
3370 9.7220 57.96 49.56 7.11
3371 9.7240 46.38 49.41 6.39
3372 9.7260 45.95 49.28 6.41
3373 9.7280 56.16 49.16 7.04
3374 9.7300 59.40 49.06 7.24
3375 9.7320 50.93 48.98 6.65
3376 9.7340 68.04 48.91 7.69
3377 9.7360 51.89 48.84 6.81
3378 9.7380 63.43 48.79 7.48
3379 9.7400 41.20 48.74 6.03
3380 9.7420 54.89 48.71 6.93
3381 9.7440 50.08 48.68 6.61
3382 9.7460 42.07 48.65 6.11
3383 9.7480 53.25 48.63 6.86
3384 9.7500 47.84 48.62 6.50
3385 9.7520 43.77 48.61 6.17
3386 9.7540 53.47 48.61 6.84
3387 9.7560 56.99 48.61 7.13
3388 9.7580 67.37 48.62 7.72
3389 9.7600 74.79 48.63 8.13
3390 9.7620 61.65 48.65 7.31
3391 9.7640 59.53 48.67 7.18
3392 9.7660 54.83 48.70 7.00
3393 9.7680 60.13 48.73 7.29
3394 9.7700 68.47 48.77 7.78
3395 9.7720 53.82 48.81 6.86
3396 9.7740 65.06 48.85 7.51
3397 9.7760 59.41 48.90 7.29
3398 9.7780 48.50 48.96 6.59
3399 9.7800 56.99 49.02 7.10
3400 9.7820 47.18 49.09 6.41
3401 9.7840 50.65 49.17 6.67
3402 9.7860 48.90 49.26 6.60
3403 9.7880 52.27 49.35 6.83
3404 9.7900 42.26 49.45 6.10
3405 9.7920 57.15 49.56 7.06
3406 9.7940 47.28 49.69 6.42
3407 9.7960 52.62 49.82 6.88
3408 9.7980 53.87 49.97 6.91
3409 9.8000 50.11 50.13 6.69
3410 9.8020 55.06 50.31 6.92
3411 9.8040 50.79 50.51 6.69
3412 9.8060 63.61 50.73 7.53
3413 9.8080 50.36 50.98 6.70
3414 9.8100 47.79 51.25 6.49
3415 9.8120 54.70 51.56 6.90
3416 9.8140 47.65 51.90 6.49
3417 9.8160 58.92 52.29 7.28
3418 9.8180 49.24 52.72 6.61
3419 9.8200 58.68 53.21 7.21
3420 9.8220 55.01 53.78 6.93
3421 9.8240 48.73 54.44 6.54
3422 9.8260 53.71 55.20 6.94
3423 9.8280 59.49 56.08 7.30
3424 9.8300 59.80 57.13 7.28
3425 9.8320 55.99 58.37 7.00
3426 9.8340 56.13 59.87 7.01
3427 9.8360 58.55 61.82 7.21
3428 9.8380 61.30 64.15 7.36
3429 9.8400 61.87 67.20 7.40
3430 9.8420 69.80 71.34 7.79
3431 9.8440 64.06 77.10 7.50
3432 9.8460 57.15 85.20 7.13
3433 9.8480 85.13 96.31 8.70
3434 9.8500 105.32 111.50 9.65
3435 9.8520 130.82 131.11 10.67
3436 9.8540 150.30 154.91 11.43
3437 9.8560 186.79 181.35 12.90
3438 9.8580 222.88 208.29 14.06
3439 9.8600 229.84 237.39 14.18
3440 9.8620 272.42 275.85 15.42
3441 9.8640 356.38 328.67 17.66
3442 9.8660 492.82 386.62 21.02
3443 9.8680 468.49 416.80 20.33
3444 9.8700 350.10 388.04 17.65
3445 9.8720 292.03 317.50 15.92
3446 9.8740 231.32 243.23 14.20
3447 9.8760 182.71 183.85 12.74
3448 9.8780 159.91 142.03 11.95
3449 9.8800 121.32 114.60 10.36
3450 9.8820 102.57 97.15 9.41
3451 9.8840 119.06 85.91 10.23
3452 9.8860 99.00 78.34 9.38
3453 9.8880 97.46 72.93 9.28
3454 9.8900 78.77 68.87 8.35
3455 9.8920 82.04 65.72 8.50
3456 9.8940 74.90 63.21 8.05
3457 9.8960 77.37 61.19 8.31
3458 9.8980 73.70 59.53 8.10
3459 9.9000 62.43 58.16 7.41
3460 9.9020 62.41 57.01 7.36
3461 9.9040 71.55 56.04 7.86
3462 9.9060 55.95 55.21 7.09
3463 9.9080 66.32 54.50 7.62
3464 9.9100 54.12 53.89 6.91
3465 9.9120 79.81 53.52 8.34
3466 9.9140 68.11 53.06 7.70
3467 9.9160 59.20 52.66 7.25
3468 9.9180 60.84 52.31 7.36
3469 9.9200 53.12 51.99 6.82
3470 9.9220 44.26 51.72 6.24
3471 9.9240 41.18 51.47 5.98
3472 9.9260 50.33 51.26 6.72
3473 9.9280 48.38 51.06 6.52
3474 9.9300 55.54 50.89 7.01
3475 9.9320 52.83 50.74 6.79
3476 9.9340 57.33 50.61 7.06
3477 9.9360 51.48 50.49 6.78
3478 9.9380 63.13 50.39 7.43
3479 9.9400 56.36 50.30 7.05
3480 9.9420 54.49 50.22 6.90
3481 9.9440 55.82 50.16 6.97
3482 9.9460 63.54 50.10 7.49
3483 9.9480 52.83 50.06 6.82
3484 9.9500 57.77 50.32 7.10
3485 9.9520 53.02 50.30 6.80
3486 9.9540 49.87 50.29 6.57
3487 9.9560 58.20 50.29 7.23
3488 9.9580 57.97 50.30 7.15
3489 9.9600 56.40 50.32 7.02
3490 9.9620 49.64 50.35 6.57
3491 9.9640 42.68 50.39 6.10
3492 9.9660 48.78 50.44 6.63
3493 9.9680 52.24 50.51 6.78
3494 9.9700 57.93 50.59 7.15
3495 9.9720 43.39 50.68 6.14
3496 9.9740 57.55 50.80 7.08
3497 9.9760 54.72 50.93 7.00
3498 9.9780 59.28 51.09 7.25
3499 9.9800 58.14 51.27 7.17
3500 9.9820 63.37 51.48 7.43
3501 9.9840 46.75 51.73 6.38
3502 9.9860 56.38 52.03 7.12
3503 9.9880 59.70 52.37 7.26
3504 9.9900 63.72 52.79 7.50
3505 9.9920 60.70 53.28 7.30
3506 9.9940 52.90 53.88 6.79
3507 9.9960 62.79 54.62 7.51
3508 9.9980 65.40 55.53 7.59
3509 10.0000 49.51 56.67 6.61
3510 10.0020 55.91 58.15 6.95
3511 10.0040 68.26 60.10 7.75
3512 10.0060 74.18 62.81 8.13
3513 10.0080 87.61 66.80 8.81
3514 10.0100 73.27 72.99 8.02
3515 10.0120 74.77 82.86 8.08
3516 10.0140 99.93 98.29 9.31
3517 10.0160 108.13 120.88 9.88
3518 10.0180 115.94 149.96 10.15
3519 10.0200 171.04 177.90 12.23
3520 10.0220 187.77 187.62 12.76
3521 10.0240 199.16 171.32 13.13
3522 10.0260 169.31 143.51 12.32
3523 10.0280 134.75 118.24 10.94
3524 10.0300 118.25 99.38 10.20
3525 10.0320 97.21 86.14 9.20
3526 10.0340 68.12 77.19 7.73
3527 10.0360 67.91 71.33 7.80
3528 10.0380 74.49 67.60 8.13
3529 10.0400 88.15 65.31 8.84
3530 10.0420 60.68 64.05 7.28
3531 10.0440 62.67 63.61 7.41
3532 10.0460 56.21 63.88 7.08
3533 10.0480 57.48 64.88 7.16
3534 10.0500 71.37 66.73 7.94
3535 10.0520 67.59 69.77 7.65
3536 10.0540 75.58 74.63 8.12
3537 10.0560 78.66 82.65 8.41
3538 10.0580 89.30 96.33 8.86
3539 10.0600 113.05 119.56 9.99
3540 10.0620 173.82 156.59 12.29
3541 10.0640 249.07 205.56 14.77
3542 10.0660 284.38 241.49 15.91
3543 10.0680 272.13 225.83 15.52
3544 10.0700 209.34 178.20 13.58
3545 10.0720 127.03 134.38 10.50
3546 10.0740 126.15 105.11 10.48
3547 10.0760 104.07 87.40 9.69
3548 10.0780 90.31 76.88 8.90
3549 10.0800 93.55 70.39 9.04
3550 10.0820 84.59 66.14 8.59
3551 10.0840 86.86 63.18 8.72
3552 10.0860 82.93 61.03 8.60
3553 10.0880 75.00 59.43 8.18
3554 10.0900 80.25 58.22 8.43
3555 10.0920 71.53 57.28 7.89
3556 10.0940 53.60 56.50 6.87
3557 10.0960 70.22 55.93 7.96
3558 10.0980 60.74 55.47 7.32
3559 10.1000 64.61 55.12 7.54
3560 10.1020 65.35 54.84 7.54
3561 10.1040 73.06 54.63 8.00
3562 10.1060 60.85 54.47 7.33
3563 10.1080 54.20 54.36 6.89
3564 10.1100 55.81 54.28 7.00
3565 10.1120 57.06 54.24 7.03
3566 10.1140 63.09 54.23 7.38
3567 10.1160 69.98 54.25 7.87
3568 10.1180 69.44 54.30 7.80
3569 10.1200 55.74 54.37 6.94
3570 10.1220 61.18 54.46 7.31
3571 10.1240 61.64 54.58 7.30
3572 10.1260 69.00 55.57 7.83
3573 10.1280 59.16 55.76 7.20
3574 10.1300 75.86 55.97 8.16
3575 10.1320 62.99 56.20 7.36
3576 10.1340 67.47 56.46 7.65
3577 10.1360 71.68 56.75 7.97
3578 10.1380 57.18 57.07 7.11
3579 10.1400 70.88 57.42 7.86
3580 10.1420 70.94 57.81 7.85
3581 10.1440 63.71 58.23 7.47
3582 10.1460 63.58 58.69 7.54
3583 10.1480 63.33 59.20 7.44
3584 10.1500 65.40 59.76 7.57
3585 10.1520 64.10 60.37 7.47
3586 10.1540 75.90 61.05 8.12
3587 10.1560 69.79 62.54 7.87
3588 10.1580 68.95 63.39 7.79
3589 10.1600 71.15 64.34 7.89
3590 10.1620 62.59 65.39 7.36
3591 10.1640 98.06 66.57 9.25
3592 10.1660 82.52 67.89 8.60
3593 10.1680 73.66 69.38 8.01
3594 10.1700 88.35 71.07 8.80
3595 10.1720 78.44 73.00 8.25
3596 10.1740 83.29 75.23 8.50
3597 10.1760 89.86 77.80 8.98
3598 10.1780 82.17 80.82 8.49
3599 10.1800 84.48 84.41 8.58
3600 10.1820 99.41 88.74 9.28
3601 10.1840 116.59 94.13 10.10
3602 10.1860 126.43 101.08 10.64
3603 10.1880 122.26 110.40 10.40
3604 10.1900 145.12 123.38 11.27
3605 10.1920 150.19 141.89 11.39
3606 10.1940 188.46 168.26 12.81
3607 10.1960 202.59 205.03 13.46
3608 10.1980 233.99 254.24 14.34
3609 10.2000 288.19 316.30 15.86
3610 10.2020 378.41 388.34 18.16
3611 10.2040 451.26 461.03 19.79
3612 10.2060 544.38 516.30 22.11
3613 10.2080 653.83 533.35 24.17
3614 10.2100 677.31 506.82 24.41
3615 10.2120 603.95 452.45 22.89
3616 10.2140 463.30 391.53 20.15
3617 10.2160 386.44 337.55 18.63
3618 10.2180 329.04 296.27 17.01
3619 10.2200 291.90 269.49 15.98
3620 10.2220 267.95 257.63 15.24
3621 10.2240 291.98 261.31 15.90
3622 10.2260 339.78 283.65 17.46
3623 10.2280 367.57 331.86 18.00
3624 10.2300 449.80 420.49 19.91
3625 10.2320 560.62 572.04 21.98
3626 10.2340 756.39 810.23 25.89
3627 10.2360 1005.35 1133.66 30.05
3628 10.2380 1336.03 1436.54 34.67
3629 10.2400 1662.29 1476.93 38.35
3630 10.2420 1360.09 1210.42 34.81
3631 10.2440 976.62 873.23 29.32
3632 10.2460 649.53 609.49 24.26
3633 10.2480 417.79 435.15 19.16
3634 10.2500 354.06 328.11 17.60
3635 10.2520 254.95 263.69 14.92
3636 10.2540 198.21 224.24 13.12
3637 10.2560 166.40 199.26 12.21
3638 10.2580 152.32 183.32 11.60
3639 10.2600 157.03 173.73 11.79
3640 10.2620 157.98 169.17 11.74
3641 10.2640 137.97 169.10 10.99
3642 10.2660 149.85 173.56 11.59
3643 10.2680 177.75 183.18 12.55
3644 10.2700 204.19 199.40 13.38
3645 10.2720 231.29 225.07 14.21
3646 10.2740 289.05 265.85 15.86
3647 10.2760 343.61 332.35 17.47
3648 10.2780 495.82 442.63 20.93
3649 10.2800 677.10 621.53 24.46
3650 10.2820 959.54 890.58 28.93
3651 10.2840 1221.71 1219.30 32.94
3652 10.2860 1405.92 1456.29 35.71
3653 10.2880 1399.58 1510.53 35.20
3654 10.2900 1257.98 1413.74 33.59
3655 10.2920 1012.06 1093.63 29.86
3656 10.2940 743.56 738.13 25.47
3657 10.2960 576.64 498.06 22.81
3658 10.2980 434.66 355.92 19.52
3659 10.3000 374.20 271.19 18.06
3660 10.3020 314.89 217.92 16.50
3661 10.3040 242.22 182.20 14.55
3662 10.3060 210.31 157.02 13.66
3663 10.3080 188.55 138.54 12.89
3664 10.3100 154.92 124.57 11.66
3665 10.3120 155.24 113.74 11.59
3666 10.3140 131.66 105.17 10.70
3667 10.3160 117.78 98.26 10.25
3668 10.3180 130.70 92.61 10.71
3669 10.3200 100.42 87.92 9.36
3670 10.3220 112.16 83.98 9.89
3671 10.3240 87.47 80.64 8.78
3672 10.3260 93.33 77.78 9.09
3673 10.3280 88.47 75.31 8.78
3674 10.3300 69.52 73.16 7.81
3675 10.3320 83.45 71.28 8.50
3676 10.3340 81.39 69.62 8.44
3677 10.3360 69.15 68.15 7.85
3678 10.3380 58.85 66.84 7.19
3679 10.3400 66.03 65.67 7.62
3680 10.3420 68.23 64.61 7.68
3681 10.3440 64.85 63.66 7.52
3682 10.3460 61.02 62.80 7.37
3683 10.3480 55.06 62.01 6.97
3684 10.3500 65.91 61.30 7.58
3685 10.3520 63.82 60.64 7.49
3686 10.3540 56.01 60.04 6.95
3687 10.3560 55.10 59.49 7.03
3688 10.3580 54.98 58.98 6.93
3689 10.3600 63.34 58.51 7.43
3690 10.3620 44.68 58.07 6.22
3691 10.3640 55.10 57.66 6.96
3692 10.3660 48.69 57.29 6.60
3693 10.3680 58.38 56.94 7.10
3694 10.3700 51.24 56.61 6.69
3695 10.3720 58.44 56.30 7.14
3696 10.3740 45.03 56.02 6.24
3697 10.3760 59.63 55.75 7.29
3698 10.3780 47.77 55.50 6.48
3699 10.3800 51.28 55.26 6.67
3700 10.3820 46.03 55.04 6.34
3701 10.3840 61.41 54.83 7.31
3702 10.3860 51.07 54.63 6.74
3703 10.3880 56.35 54.44 7.00
3704 10.3900 44.61 54.27 6.22
3705 10.3920 49.71 54.10 6.62
3706 10.3940 57.65 53.94 7.10
3707 10.3960 53.47 53.79 6.88
3708 10.3980 49.21 53.65 6.57
3709 10.4000 56.85 53.51 7.04
3710 10.4020 51.43 53.99 6.69
3711 10.4040 40.95 53.88 5.98
3712 10.4060 43.48 54.01 6.22
3713 10.4080 48.92 53.93 6.52
3714 10.4100 54.98 52.72 6.91
3715 10.4120 59.90 52.68 7.23
3716 10.4140 67.24 52.64 7.60
3717 10.4160 62.33 52.60 7.42
3718 10.4180 43.84 52.58 6.16
3719 10.4200 51.35 52.55 6.67
3720 10.4220 49.74 52.54 6.56
3721 10.4240 48.40 52.52 6.48
3722 10.4260 49.99 52.51 6.67
3723 10.4280 44.65 51.81 6.23
3724 10.4300 56.46 51.83 6.98
3725 10.4320 47.36 51.85 6.45
3726 10.4340 50.11 51.88 6.59
3727 10.4360 62.88 51.92 7.48
3728 10.4380 47.53 51.96 6.43
3729 10.4400 64.25 52.00 7.44
3730 10.4420 47.65 52.05 6.46
3731 10.4440 55.59 52.11 6.93
3732 10.4460 45.95 52.17 6.39
3733 10.4480 47.09 51.42 6.38
3734 10.4500 56.52 51.52 7.04
3735 10.4520 45.72 51.62 6.31
3736 10.4540 51.20 51.73 6.66
3737 10.4560 57.81 51.85 7.17
3738 10.4580 60.00 51.97 7.19
3739 10.4600 44.27 52.11 6.22
3740 10.4620 33.04 52.26 5.36
3741 10.4640 50.84 52.42 6.67
3742 10.4660 46.50 52.60 6.47
3743 10.4680 49.81 52.51 6.59
3744 10.4700 48.26 52.72 6.53
3745 10.4720 53.15 52.96 6.81
3746 10.4740 53.14 53.21 6.81
3747 10.4760 43.05 53.49 6.20
3748 10.4780 50.38 53.80 6.62
3749 10.4800 52.74 54.14 6.77
3750 10.4820 55.29 54.52 6.94
3751 10.4840 42.91 54.95 6.14
3752 10.4860 44.82 55.43 6.35
3753 10.4880 64.03 55.97 7.45
3754 10.4900 57.01 56.58 7.05
3755 10.4920 50.78 57.28 6.63
3756 10.4940 56.78 58.08 7.10
3757 10.4960 60.87 59.01 7.37
3758 10.4980 65.50 60.08 7.54
3759 10.5000 53.65 61.35 6.86
3760 10.5020 62.72 62.86 7.39
3761 10.5040 59.70 64.66 7.25
3762 10.5060 72.81 66.84 8.10
3763 10.5080 61.23 69.52 7.32
3764 10.5100 60.94 72.86 7.31
3765 10.5120 64.82 77.09 7.45
3766 10.5140 69.74 82.56 7.87
3767 10.5160 82.37 90.21 8.59
3768 10.5180 91.44 100.06 8.93
3769 10.5200 108.60 113.89 9.78
3770 10.5220 131.55 134.18 10.68
3771 10.5240 165.65 165.78 12.08
3772 10.5260 224.83 218.82 14.15
3773 10.5280 299.90 313.46 16.31
3774 10.5300 526.88 481.99 21.53
3775 10.5320 713.17 741.06 24.92
3776 10.5340 1007.67 951.96 29.92
3777 10.5360 859.80 850.43 27.91
3778 10.5380 602.91 579.93 23.14
3779 10.5400 414.22 372.25 19.17
3780 10.5420 293.87 251.03 15.99
3781 10.5440 223.16 183.90 14.01
3782 10.5460 188.02 145.23 12.96
3783 10.5480 153.27 121.23 11.64
3784 10.5500 120.40 105.26 10.37
3785 10.5520 104.32 94.08 9.49
3786 10.5540 87.14 85.97 8.82
3787 10.5560 75.01 79.91 8.19
3788 10.5580 69.97 75.27 7.88
3789 10.5600 70.37 71.65 7.88
3790 10.5620 60.91 68.77 7.33
3791 10.5640 54.95 66.45 6.98
3792 10.5660 59.95 64.54 7.37
3793 10.5680 46.97 62.97 6.45
3794 10.5700 60.03 61.65 7.32
3795 10.5720 45.44 60.55 6.32
3796 10.5740 36.41 59.60 5.67
3797 10.5760 61.60 58.80 7.47
3798 10.5780 55.78 58.73 7.05
3799 10.5800 50.79 58.15 6.70
3800 10.5820 54.39 57.64 6.92
3801 10.5840 41.90 57.20 6.10
3802 10.5860 51.61 56.81 6.83
3803 10.5880 51.87 56.48 6.77
3804 10.5900 47.25 56.19 6.48
3805 10.5920 54.36 55.94 6.91
3806 10.5940 52.43 55.71 6.80
3807 10.5960 44.88 55.52 6.35
3808 10.5980 48.04 55.35 6.57
3809 10.6000 50.85 55.21 6.72
3810 10.6020 47.74 55.09 6.49
3811 10.6040 46.35 54.98 6.41
3812 10.6060 53.82 54.90 6.94
3813 10.6080 40.77 54.83 5.97
3814 10.6100 44.71 54.77 6.29
3815 10.6120 57.26 54.73 7.09
3816 10.6140 51.07 54.70 6.69
3817 10.6160 43.54 54.68 6.26
3818 10.6180 45.58 54.67 6.36
3819 10.6200 38.00 54.68 5.79
3820 10.6220 44.87 54.70 6.28
3821 10.6240 47.36 54.73 6.46
3822 10.6260 54.29 54.76 6.99
3823 10.6280 46.40 54.81 6.40
3824 10.6300 50.88 54.87 6.73
3825 10.6320 47.80 54.94 6.48
3826 10.6340 45.67 55.03 6.34
3827 10.6360 49.13 55.12 6.65
3828 10.6380 42.93 55.22 6.13
3829 10.6400 54.33 55.34 6.90
3830 10.6420 45.78 55.47 6.33
3831 10.6440 56.92 55.61 7.07
3832 10.6460 49.57 55.77 6.66
3833 10.6480 47.32 55.94 6.45
3834 10.6500 46.80 56.13 6.45
3835 10.6520 37.28 56.34 5.74
3836 10.6540 42.70 56.57 6.11
3837 10.6560 47.73 56.81 6.56
3838 10.6580 44.97 57.08 6.27
3839 10.6600 58.91 57.37 7.19
3840 10.6620 49.44 57.69 6.57
3841 10.6640 43.38 58.04 6.15
3842 10.6660 57.46 58.21 7.18
3843 10.6680 59.87 58.05 7.23
3844 10.6700 58.77 58.53 7.18
3845 10.6720 51.07 59.06 6.70
3846 10.6740 50.09 59.64 6.61
3847 10.6760 58.54 60.28 7.20
3848 10.6780 60.94 60.99 7.32
3849 10.6800 53.97 61.77 6.88
3850 10.6820 59.16 62.65 7.18
3851 10.6840 54.35 63.62 6.89
3852 10.6860 53.64 64.72 6.94
3853 10.6880 63.27 65.95 7.44
3854 10.6900 68.13 67.35 7.73
3855 10.6920 66.24 68.95 7.63
3856 10.6940 68.61 70.79 7.71
3857 10.6960 61.73 72.92 7.42
3858 10.6980 76.18 75.41 8.15
3859 10.7000 59.46 78.33 7.24
3860 10.7020 67.18 81.80 7.69
3861 10.7040 100.72 85.98 9.35
3862 10.7060 90.52 91.06 8.98
3863 10.7080 110.28 97.36 9.88
3864 10.7100 118.21 105.38 10.16
3865 10.7120 122.05 115.94 10.31
3866 10.7140 145.65 130.51 11.26
3867 10.7160 167.58 151.55 12.20
3868 10.7180 188.91 182.81 12.83
3869 10.7200 259.92 229.29 15.08
3870 10.7220 338.60 296.19 17.18
3871 10.7240 421.86 386.81 19.13
3872 10.7260 495.92 497.59 21.08
3873 10.7280 644.70 607.52 23.88
3874 10.7300 580.84 672.42 22.59
3875 10.7320 562.09 658.28 22.15
3876 10.7340 496.23 589.74 20.75
3877 10.7360 468.25 521.01 20.48
3878 10.7380 487.91 490.52 20.71
3879 10.7400 496.76 519.05 20.86
3880 10.7420 622.56 615.53 23.39
3881 10.7440 770.17 759.80 25.98
3882 10.7460 828.73 855.83 27.25
3883 10.7480 695.02 786.96 24.65
3884 10.7500 522.64 608.14 21.49
3885 10.7520 424.37 438.15 19.33
3886 10.7540 347.34 316.47 17.36
3887 10.7560 258.41 237.59 15.16
3888 10.7580 235.64 188.02 14.41
3889 10.7600 161.33 156.32 11.85
3890 10.7620 172.72 135.01 12.29
3891 10.7640 154.13 119.86 11.60
3892 10.7660 147.32 108.68 11.42
3893 10.7680 129.35 100.04 10.68
3894 10.7700 114.13 93.24 9.99
3895 10.7720 122.10 87.79 10.34
3896 10.7740 94.54 83.35 9.08
3897 10.7760 102.46 79.69 9.56
3898 10.7780 86.48 76.64 8.73
3899 10.7800 71.13 74.06 7.89
3900 10.7820 88.48 71.86 8.76
3901 10.7840 65.96 69.98 7.60
3902 10.7860 78.45 68.35 8.32
3903 10.7880 77.92 66.92 8.27
3904 10.7900 71.70 65.68 7.93
3905 10.7920 63.72 64.65 7.49
3906 10.7940 79.74 63.68 8.32
3907 10.7960 62.93 62.81 7.48
3908 10.7980 59.90 62.04 7.28
3909 10.8000 62.33 61.35 7.36
3910 10.8020 57.36 60.73 7.11
3911 10.8040 63.12 60.17 7.40
3912 10.8060 62.28 59.66 7.45
3913 10.8080 61.55 59.20 7.35
3914 10.8100 49.21 58.78 6.56
3915 10.8120 65.42 58.40 7.57
3916 10.8140 53.38 58.08 6.82
3917 10.8160 59.97 57.77 7.28
3918 10.8180 64.64 57.47 7.56
3919 10.8200 56.87 57.21 7.02
3920 10.8220 49.32 58.12 6.59
3921 10.8240 56.96 57.93 7.01
3922 10.8260 52.26 57.76 6.84
3923 10.8280 54.97 57.60 6.93
3924 10.8300 50.73 57.46 6.67
3925 10.8320 55.10 57.34 6.96
3926 10.8340 38.33 57.23 5.78
3927 10.8360 47.90 57.14 6.53
3928 10.8380 41.77 57.06 6.05
3929 10.8400 46.01 56.99 6.33
3930 10.8420 44.45 56.94 6.26
3931 10.8440 61.06 56.90 7.31
3932 10.8460 45.54 56.87 6.39
3933 10.8480 44.68 56.85 6.28
3934 10.8500 50.07 56.84 6.60
3935 10.8520 51.98 56.85 6.80
3936 10.8540 51.96 56.86 6.70
3937 10.8560 51.31 56.89 6.76
3938 10.8580 56.97 56.93 7.07
3939 10.8600 52.42 56.99 6.78
3940 10.8620 47.18 57.05 6.43
3941 10.8640 62.15 57.14 7.34
3942 10.8660 53.71 57.23 6.92
3943 10.8680 54.70 57.34 6.94
3944 10.8700 46.35 57.47 6.36
3945 10.8720 46.73 57.62 6.44
3946 10.8740 51.24 57.79 6.67
3947 10.8760 48.32 57.99 6.56
3948 10.8780 54.12 58.21 6.88
3949 10.8800 54.14 58.46 6.87
3950 10.8820 52.18 58.74 6.80
3951 10.8840 55.64 59.07 6.95
3952 10.8860 59.11 59.44 7.24
3953 10.8880 41.87 59.86 6.08
3954 10.8900 47.84 60.35 6.48
3955 10.8920 62.09 60.93 7.36
3956 10.8940 73.90 61.60 8.00
3957 10.8960 55.95 62.39 7.07
3958 10.8980 63.13 63.34 7.43
3959 10.9000 44.93 64.51 6.26
3960 10.9020 55.43 65.95 6.96
3961 10.9040 63.52 67.79 7.45
3962 10.9060 66.05 70.18 7.67
3963 10.9080 66.51 73.43 7.63
3964 10.9100 72.13 78.08 7.93
3965 10.9120 79.50 85.08 8.34
3966 10.9140 94.31 96.13 8.99
3967 10.9160 124.33 113.62 10.54
3968 10.9180 166.05 138.73 12.08
3969 10.9200 172.61 167.48 12.27
3970 10.9220 193.37 179.65 13.01
3971 10.9240 186.76 170.05 12.76
3972 10.9260 150.64 162.02 11.56
3973 10.9280 171.22 166.61 12.22
3974 10.9300 191.05 168.00 12.95
3975 10.9320 159.34 149.11 11.74
3976 10.9340 120.05 126.88 10.20
3977 10.9360 122.03 113.31 10.42
3978 10.9380 98.27 107.72 9.29
3979 10.9400 94.62 107.89 9.09
3980 10.9420 123.36 112.84 10.38
3981 10.9440 113.29 123.21 9.95
3982 10.9460 162.66 141.86 12.05
3983 10.9480 183.90 174.94 12.71
3984 10.9500 273.04 234.44 15.41
3985 10.9520 361.09 329.86 17.74
3986 10.9540 508.11 448.12 21.07
3987 10.9560 556.44 511.42 22.32
3988 10.9580 418.12 437.37 19.15
3989 10.9600 313.72 324.36 16.62
3990 10.9620 257.41 251.59 14.98
3991 10.9640 236.30 221.51 14.34
3992 10.9660 239.65 222.90 14.64
3993 10.9680 272.25 249.13 15.48
3994 10.9700 283.96 298.54 15.74
3995 10.9720 373.94 370.70 18.09
3996 10.9740 506.44 460.45 21.06
3997 10.9760 531.21 550.22 21.76
3998 10.9780 550.46 607.52 21.99
3999 10.9800 481.56 604.67 20.49
4000 10.9820 432.64 542.09 19.58
4001 10.9840 361.17 446.33 17.76
4002 10.9860 282.18 349.31 15.88
4003 10.9880 250.50 268.91 14.81
4004 10.9900 215.81 209.23 13.79
4005 10.9920 184.46 168.04 12.66
4006 10.9940 168.86 140.02 12.14
4007 10.9960 148.67 121.22 11.51
4008 10.9980 146.35 108.30 11.33
4009 11.0000 116.74 99.04 10.06
4010 11.0020 126.01 92.09 10.55
4011 11.0040 101.01 86.68 9.39
4012 11.0060 89.18 82.35 8.93
4013 11.0080 101.92 78.82 9.48
4014 11.0100 96.90 75.90 9.22
4015 11.0120 98.72 73.46 9.32
4016 11.0140 71.84 71.40 7.90
4017 11.0160 83.20 69.65 8.62
4018 11.0180 88.95 68.14 8.86
4019 11.0200 83.44 66.85 8.52
4020 11.0220 71.84 66.00 7.95
4021 11.0240 76.09 65.02 8.18
4022 11.0260 70.85 64.15 7.97
4023 11.0280 64.56 63.39 7.52
4024 11.0300 64.31 62.72 7.50
4025 11.0320 60.74 62.12 7.30
4026 11.0340 59.12 61.58 7.16
4027 11.0360 60.19 61.10 7.35
4028 11.0380 52.17 60.68 6.77
4029 11.0400 57.04 60.29 7.00
4030 11.0420 59.75 59.94 7.22
4031 11.0440 63.29 59.63 7.44
4032 11.0460 62.30 59.35 7.44
4033 11.0480 53.50 59.10 6.86
4034 11.0500 62.06 58.87 7.36
4035 11.0520 59.87 58.66 7.25
4036 11.0540 55.09 58.48 6.90
4037 11.0560 55.30 58.31 7.05
4038 11.0580 55.23 58.16 6.96
4039 11.0600 63.71 58.02 7.41
4040 11.0620 51.08 57.90 6.68
4041 11.0640 54.00 57.80 6.88
4042 11.0660 61.26 57.70 7.37
4043 11.0680 56.26 57.62 6.99
4044 11.0700 53.55 57.49 6.85
4045 11.0720 59.95 57.43 7.22
4046 11.0740 48.14 57.38 6.49
4047 11.0760 45.32 57.34 6.36
4048 11.0780 50.58 57.32 6.64
4049 11.0800 54.14 57.21 6.86
4050 11.0820 63.57 57.21 7.47
4051 11.0840 67.57 57.21 7.69
4052 11.0860 58.88 57.22 7.23
4053 11.0880 61.84 57.24 7.38
4054 11.0900 63.15 57.27 7.39
4055 11.0920 49.92 56.99 6.61
4056 11.0940 53.32 57.02 6.80
4057 11.0960 40.77 57.09 6.04
4058 11.0980 60.21 57.17 7.23
4059 11.1000 48.01 57.27 6.48
4060 11.1020 61.38 57.37 7.32
4061 11.1040 56.79 57.49 7.05
4062 11.1060 55.58 57.62 7.04
4063 11.1080 54.74 57.77 6.88
4064 11.1100 69.25 57.94 7.73
4065 11.1120 56.71 58.12 7.07
4066 11.1140 54.63 58.33 6.87
4067 11.1160 45.51 58.56 6.35
4068 11.1180 51.81 58.81 6.71
4069 11.1200 69.80 59.10 7.78
4070 11.1220 62.93 59.41 7.41
4071 11.1240 39.94 59.77 5.93
4072 11.1260 51.06 60.17 6.76
4073 11.1280 55.54 60.63 6.94
4074 11.1300 62.38 61.14 7.37
4075 11.1320 63.31 61.73 7.46
4076 11.1340 54.51 62.40 6.88
4077 11.1360 60.94 63.18 7.35
4078 11.1380 71.44 64.08 7.85
4079 11.1400 61.78 65.13 7.34
4080 11.1420 76.66 66.36 8.21
4081 11.1440 59.07 67.83 7.20
4082 11.1460 94.35 69.60 9.11
4083 11.1480 61.03 71.75 7.29
4084 11.1500 69.59 74.39 7.77
4085 11.1520 79.99 77.78 8.38
4086 11.1540 92.76 82.00 8.96
4087 11.1560 95.68 87.51 9.23
4088 11.1580 109.46 94.95 9.74
4089 11.1600 117.41 105.48 10.04
4090 11.1620 124.34 121.17 10.41
4091 11.1640 165.78 145.48 12.00
4092 11.1660 188.13 183.45 12.90
4093 11.1680 242.05 240.78 14.44
4094 11.1700 307.31 319.96 16.31
4095 11.1720 367.59 408.44 17.91
4096 11.1740 472.62 460.57 20.35
4097 11.1760 467.38 432.87 20.41
4098 11.1780 417.79 354.92 19.01
4099 11.1800 319.23 279.90 16.59
4100 11.1820 260.22 228.51 15.02
4101 11.1840 216.61 200.82 13.74
4102 11.1860 218.60 190.88 13.93
4103 11.1880 201.61 190.53 13.19
4104 11.1900 194.21 189.90 12.96
4105 11.1920 194.94 180.73 12.99
4106 11.1940 208.39 162.63 13.50
4107 11.1960 170.37 141.32 12.30
4108 11.1980 120.70 121.97 10.20
4109 11.2000 110.42 106.38 9.78
4110 11.2020 96.12 94.66 9.14
4111 11.2040 94.36 86.22 9.09
4112 11.2060 79.91 80.27 8.45
4113 11.2080 79.00 75.80 8.29
4114 11.2100 82.29 72.74 8.45
4115 11.2120 64.73 70.45 7.51
4116 11.2140 73.59 68.66 8.04
4117 11.2160 66.97 67.23 7.73
4118 11.2180 63.29 66.07 7.40
4119 11.2200 59.53 65.10 7.18
4120 11.2220 58.64 64.30 7.17
4121 11.2240 40.96 63.63 6.00
4122 11.2260 60.60 63.07 7.37
4123 11.2280 48.77 62.59 6.52
4124 11.2300 48.49 62.19 6.52
4125 11.2320 58.17 61.85 7.12
4126 11.2340 60.15 61.57 7.28
4127 11.2360 69.78 61.34 7.92
4128 11.2380 63.30 61.16 7.42
4129 11.2400 65.30 61.01 7.53
4130 11.2420 54.97 60.89 6.94
4131 11.2440 60.55 60.81 7.31
4132 11.2460 62.80 60.76 7.50
4133 11.2480 50.66 60.74 6.66
4134 11.2500 66.96 60.74 7.65
4135 11.2520 61.81 60.77 7.35
4136 11.2540 76.25 60.82 8.21
4137 11.2560 66.45 60.90 7.75
4138 11.2580 78.10 61.00 8.29
4139 11.2600 56.90 61.13 7.07
4140 11.2620 67.46 61.29 7.72
4141 11.2640 55.82 61.47 7.06
4142 11.2660 67.12 61.68 7.77
4143 11.2680 57.82 61.93 7.14
4144 11.2700 61.06 62.20 7.32
4145 11.2720 61.93 62.51 7.38
4146 11.2740 73.85 62.86 8.10
4147 11.2760 45.49 63.25 6.40
4148 11.2780 63.42 63.69 7.47
4149 11.2800 80.92 64.18 8.41
4150 11.2820 48.55 64.73 6.55
4151 11.2840 78.42 65.34 8.35
4152 11.2860 86.59 66.03 8.83
4153 11.2880 86.94 66.80 8.66
4154 11.2900 77.25 67.67 8.27
4155 11.2920 56.89 68.66 7.05
4156 11.2940 69.89 69.77 7.84
4157 11.2960 75.71 71.04 8.25
4158 11.2980 68.50 72.50 7.72
4159 11.3000 71.84 74.17 7.93
4160 11.3020 83.72 76.10 8.58
4161 11.3040 74.37 78.37 8.15
4162 11.3060 93.70 81.06 9.14
4163 11.3080 101.42 84.30 9.42
4164 11.3100 105.41 88.30 9.65
4165 11.3120 97.58 93.40 9.23
4166 11.3140 123.44 100.06 10.48
4167 11.3160 143.74 109.02 11.40
4168 11.3180 124.75 121.26 10.40
4169 11.3200 158.54 138.01 11.74
4170 11.3220 163.40 160.74 11.92
4171 11.3240 160.50 190.87 11.93
4172 11.3260 185.64 229.56 12.92
4173 11.3280 217.06 277.27 13.70
4174 11.3300 252.32 333.15 14.86
4175 11.3320 264.28 394.20 15.17
4176 11.3340 337.13 454.04 17.29
4177 11.3360 368.57 502.19 18.19
4178 11.3380 467.00 526.16 20.23
4179 11.3400 543.85 518.12 21.84
4180 11.3420 585.16 480.93 22.72
4181 11.3440 530.86 425.84 21.66
4182 11.3460 442.93 364.93 20.00
4183 11.3480 353.07 306.60 17.59
4184 11.3500 256.18 255.40 14.97
4185 11.3520 215.24 213.10 13.70
4186 11.3540 174.49 179.87 12.39
4187 11.3560 132.89 154.90 10.95
4188 11.3580 129.74 136.63 10.65
4189 11.3600 115.77 124.43 10.06
4190 11.3620 104.11 116.90 9.52
4191 11.3640 105.12 113.43 9.64
4192 11.3660 81.59 113.86 8.58
4193 11.3680 114.05 118.49 10.01
4194 11.3700 109.50 127.79 9.82
4195 11.3720 124.04 141.92 10.40
4196 11.3740 158.95 159.85 11.86
4197 11.3760 201.20 177.54 13.41
4198 11.3780 212.75 187.01 13.64
4199 11.3800 197.46 181.70 13.19
4200 11.3820 174.16 164.62 12.35
4201 11.3840 122.06 144.25 10.34
4202 11.3860 111.95 126.03 10.12
4203 11.3880 91.45 110.97 8.98
4204 11.3900 95.63 98.71 9.17
4205 11.3920 72.54 89.27 7.99
4206 11.3940 93.36 82.46 9.14
4207 11.3960 78.48 77.66 8.41
4208 11.3980 70.17 74.22 7.88
4209 11.4000 74.37 71.69 8.11
4210 11.4020 76.30 69.74 8.16
4211 11.4040 70.40 68.19 7.88
4212 11.4060 55.85 66.92 7.12
4213 11.4080 54.79 65.85 6.97
4214 11.4100 65.63 64.94 7.59
4215 11.4120 69.75 64.16 7.85
4216 11.4140 65.97 63.49 7.64
4217 11.4160 53.73 62.89 6.99
4218 11.4180 67.60 62.37 7.73
4219 11.4200 67.94 61.91 7.71
4220 11.4220 64.90 61.49 7.56
4221 11.4240 65.69 61.05 7.62
4222 11.4260 54.30 60.72 7.01
4223 11.4280 60.44 60.41 7.32
4224 11.4300 55.94 60.14 7.04
4225 11.4320 57.02 59.89 7.06
4226 11.4340 61.39 59.66 7.39
4227 11.4360 51.98 59.45 6.84
4228 11.4380 43.94 59.25 6.23
4229 11.4400 60.13 59.08 7.26
4230 11.4420 55.00 58.91 6.96
4231 11.4440 57.72 58.76 7.15
4232 11.4460 59.10 58.62 7.27
4233 11.4480 63.97 58.49 7.52
4234 11.4500 66.81 58.36 7.68
4235 11.4520 55.61 58.25 7.00
4236 11.4540 56.29 58.57 7.00
4237 11.4560 56.21 58.48 7.12
4238 11.4580 59.61 58.40 7.24
4239 11.4600 50.92 58.32 6.69
4240 11.4620 49.48 58.25 6.59
4241 11.4640 64.74 58.18 7.58
4242 11.4660 55.25 58.12 7.06
4243 11.4680 55.23 58.06 6.96
4244 11.4700 58.17 58.00 7.19
4245 11.4720 60.75 57.95 7.31
4246 11.4740 66.82 57.91 7.70
4247 11.4760 44.61 57.87 6.34
4248 11.4780 62.09 57.83 7.43
4249 11.4800 51.53 57.79 6.72
4250 11.4820 57.00 57.76 7.09
4251 11.4840 53.78 57.73 6.87
4252 11.4860 47.73 57.70 6.55
4253 11.4880 47.44 57.68 6.48
4254 11.4900 67.11 57.65 7.70
4255 11.4920 62.51 57.63 7.41
4256 11.4940 64.79 57.62 7.56
4257 11.4960 54.36 57.60 7.00
4258 11.4980 54.50 57.59 6.92
4259 11.5000 52.81 57.57 6.82
4260 11.5020 55.61 57.56 7.01
4261 11.5040 51.14 57.56 6.71
4262 11.5060 52.45 57.55 6.89
4263 11.5080 48.60 57.55 6.56
4264 11.5100 67.97 57.54 7.71
4265 11.5120 57.37 57.54 7.11
4266 11.5140 52.37 57.54 6.80
4267 11.5160 57.23 57.55 7.16
4268 11.5180 53.27 57.55 6.86
4269 11.5200 53.68 57.56 6.90
4270 11.5220 51.92 57.56 6.76
4271 11.5240 50.04 57.57 6.63
4272 11.5260 61.86 57.58 7.51
4273 11.5280 63.24 57.60 7.44
4274 11.5300 58.56 57.61 7.22
4275 11.5320 50.28 57.62 6.64
4276 11.5340 68.18 57.64 7.76
4277 11.5360 42.23 57.66 6.13
4278 11.5380 55.56 57.68 7.07
4279 11.5400 56.43 57.70 7.01
4280 11.5420 61.68 57.72 7.33
4281 11.5440 70.77 57.75 7.91
4282 11.5460 50.27 57.78 6.74
4283 11.5480 54.10 57.81 6.91
4284 11.5500 43.07 57.84 6.17
4285 11.5520 43.35 57.87 6.22
4286 11.5540 50.09 57.90 6.62
4287 11.5560 53.94 57.94 6.98
4288 11.5580 61.93 57.98 7.39
4289 11.5600 63.00 58.02 7.43
4290 11.5620 44.84 58.07 6.27
4291 11.5640 55.51 58.11 6.99
4292 11.5660 51.82 58.16 6.81
4293 11.5680 70.48 58.21 7.88
4294 11.5700 60.09 58.27 7.28
4295 11.5720 48.16 58.33 6.50
4296 11.5740 62.31 58.38 7.36
4297 11.5760 54.70 58.45 7.01
4298 11.5780 62.44 58.51 7.40
4299 11.5800 54.65 58.59 6.90
4300 11.5820 57.76 58.66 7.10
4301 11.5840 51.73 58.75 6.74
4302 11.5860 53.82 58.83 6.96
4303 11.5880 49.85 58.92 6.61
4304 11.5900 62.65 59.02 7.42
4305 11.5920 67.77 59.12 7.72
4306 11.5940 55.89 59.23 7.00
4307 11.5960 57.87 59.35 7.18
4308 11.5980 50.46 60.12 6.69
4309 11.6000 60.69 60.27 7.30
4310 11.6020 70.16 61.26 7.81
4311 11.6040 67.59 61.46 7.73
4312 11.6060 58.94 61.58 7.30
4313 11.6080 66.30 61.81 7.65
4314 11.6100 70.62 62.04 7.86
4315 11.6120 66.36 62.30 7.67
4316 11.6140 72.55 62.57 7.95
4317 11.6160 68.21 62.87 7.81
4318 11.6180 54.80 63.18 6.95
4319 11.6200 68.47 63.52 7.77
4320 11.6220 60.05 63.89 7.23
4321 11.6240 66.74 64.29 7.66
4322 11.6260 58.74 64.73 7.24
4323 11.6280 73.16 65.20 8.04
4324 11.6300 71.90 65.72 7.94
4325 11.6320 65.10 66.29 7.57
4326 11.6340 72.68 66.92 7.97
4327 11.6360 78.92 67.62 8.38
4328 11.6380 59.46 68.39 7.24
4329 11.6400 81.12 69.25 8.40
4330 11.6420 77.96 70.22 8.29
4331 11.6440 78.90 71.32 8.31
4332 11.6460 93.55 72.56 9.17
4333 11.6480 85.48 73.98 8.69
4334 11.6500 90.16 75.62 8.88
4335 11.6520 88.90 77.52 8.83
4336 11.6540 89.58 79.75 8.84
4337 11.6560 102.28 82.40 9.53
4338 11.6580 119.52 85.31 10.23
4339 11.6600 106.24 89.25 9.64
4340 11.6620 117.87 94.26 10.18
4341 11.6640 121.08 100.86 10.26
4342 11.6660 142.42 109.86 11.24
4343 11.6680 146.85 122.45 11.36
4344 11.6700 168.59 140.12 12.12
4345 11.6720 165.46 164.54 12.06
4346 11.6740 198.15 196.95 13.16
4347 11.6760 246.60 236.96 14.84
4348 11.6780 260.21 280.02 15.11
4349 11.6800 297.43 317.39 16.04
4350 11.6820 379.13 344.59 18.21
4351 11.6840 392.20 368.31 18.53
4352 11.6860 362.29 397.01 18.00
4353 11.6880 382.88 430.49 18.31
4354 11.6900 385.19 458.45 18.37
4355 11.6920 435.55 465.26 19.58
4356 11.6940 468.68 441.90 20.17
4357 11.6960 465.94 394.53 20.45
4358 11.6980 368.10 337.43 18.07
4359 11.7000 284.07 282.34 15.70
4360 11.7020 208.37 235.07 13.53
4361 11.7040 183.35 197.51 12.68
4362 11.7060 161.82 169.35 12.02
4363 11.7080 135.05 149.26 10.90
4364 11.7100 135.59 135.59 10.92
4365 11.7120 129.90 126.70 10.68
4366 11.7140 127.91 121.32 10.58
4367 11.7160 129.60 118.50 10.75
4368 11.7180 110.27 117.67 9.85
4369 11.7200 134.06 118.55 10.80
4370 11.7220 129.73 121.08 10.67
4371 11.7240 145.60 125.41 11.25
4372 11.7260 123.87 131.85 10.56
4373 11.7280 150.20 140.99 11.45
4374 11.7300 180.94 153.72 12.59
4375 11.7320 200.18 171.55 13.30
4376 11.7340 233.43 197.01 14.30
4377 11.7360 293.51 234.53 16.20
4378 11.7380 349.77 292.39 17.55
4379 11.7400 435.54 385.18 19.51
4380 11.7420 561.49 536.58 22.22
4381 11.7440 709.56 771.28 24.84
4382 11.7460 1010.08 1058.08 30.23
4383 11.7480 1160.17 1255.87 32.09
4384 11.7500 1207.06 1343.41 32.55
4385 11.7520 1212.12 1309.41 32.92
4386 11.7540 1085.57 1061.97 30.94
4387 11.7560 756.73 751.49 26.09
4388 11.7580 563.67 521.16 22.23
4389 11.7600 372.56 376.22 18.09
4390 11.7620 293.57 287.76 16.05
4391 11.7640 259.68 232.44 15.05
4392 11.7660 211.13 196.15 13.76
4393 11.7680 166.90 171.02 12.17
4394 11.7700 152.86 162.24 11.53
4395 11.7720 125.07 149.01 10.49
4396 11.7740 143.04 139.01 11.14
4397 11.7760 122.21 131.32 10.47
4398 11.7780 113.07 125.33 9.95
4399 11.7800 103.40 120.63 9.49
4400 11.7820 93.71 116.92 9.09
4401 11.7840 114.05 113.98 9.98
4402 11.7860 97.04 111.67 9.34
4403 11.7880 77.27 109.87 8.23
4404 11.7900 107.02 108.49 9.69
4405 11.7920 95.37 107.46 9.15
4406 11.7940 101.61 106.74 9.40
4407 11.7960 98.30 106.29 9.35
4408 11.7980 78.34 106.06 8.28
4409 11.8000 90.65 106.05 8.87
4410 11.8020 88.79 106.23 8.85
4411 11.8040 88.62 106.59 8.83
4412 11.8060 83.52 107.12 8.63
4413 11.8080 82.48 107.81 8.50
4414 11.8100 90.62 108.66 8.94
4415 11.8120 91.65 109.66 8.97
4416 11.8140 102.31 110.82 9.45
4417 11.8160 93.36 112.14 9.13
4418 11.8180 99.33 113.61 9.38
4419 11.8200 93.36 115.26 9.02
4420 11.8220 90.19 117.07 8.88
4421 11.8240 98.44 119.08 9.30
4422 11.8260 87.14 121.27 8.84
4423 11.8280 98.61 123.67 9.32
4424 11.8300 100.60 126.30 9.38
4425 11.8320 97.15 129.17 9.27
4426 11.8340 121.62 132.29 10.27
4427 11.8360 113.15 135.71 10.08
4428 11.8380 90.69 139.44 8.94
4429 11.8400 114.60 143.51 10.03
4430 11.8420 116.19 147.97 10.08
4431 11.8440 111.77 152.86 9.83
4432 11.8460 147.03 158.22 11.47
4433 11.8480 147.30 164.12 11.38
4434 11.8500 170.07 170.62 12.15
4435 11.8520 191.65 177.81 13.01
4436 11.8540 208.14 185.77 13.49
4437 11.8560 225.86 194.63 14.18
4438 11.8580 217.43 204.51 13.86
4439 11.8600 286.24 215.57 15.80
4440 11.8620 315.62 228.01 16.71
4441 11.8640 312.98 242.05 16.48
4442 11.8660 331.37 258.01 17.24
4443 11.8680 391.36 276.21 18.60
4444 11.8700 427.06 297.13 19.35
4445 11.8720 472.04 321.31 20.39
4446 11.8740 508.45 349.46 21.10
4447 11.8760 561.74 382.53 22.43
4448 11.8780 578.55 421.72 22.56
4449 11.8800 644.68 468.65 23.82
4450 11.8820 687.71 525.56 24.71
4451 11.8840 727.72 595.47 25.25
4452 11.8860 836.24 682.68 27.46
4453 11.8880 956.82 793.40 29.15
4454 11.8900 1112.92 937.00 31.24
4455 11.8920 1388.19 1128.20 35.13
4456 11.8940 1636.28 1390.41 38.15
4457 11.8960 2030.91 1764.85 43.25
4458 11.8980 2579.36 2323.95 48.17
4459 11.9000 3460.41 3192.48 56.05
4460 11.9020 4781.49 4570.40 66.93
4461 11.9040 6852.26 6669.66 80.92
4462 11.9060 9741.57 9276.63 99.48
4463 11.9080 11557.00 10799.70 108.76
4464 11.9100 10643.70 9906.40 103.29
4465 11.9120 8905.97 8315.87 94.06
4466 11.9140 8448.63 7744.00 90.67
4467 11.9160 8810.46 8596.52 94.02
4468 11.9180 10217.40 10327.70 101.97
4469 11.9200 11354.30 10682.20 106.95
4470 11.9220 9238.44 8465.41 95.98
4471 11.9240 6246.05 5827.65 77.03
4472 11.9260 4103.86 3975.44 62.22
4473 11.9280 3061.15 2817.56 52.57
4474 11.9300 2235.92 2089.99 44.72
4475 11.9320 1718.40 1614.39 39.28
4476 11.9340 1340.43 1291.03 34.31
4477 11.9360 1153.28 1064.09 32.21
4478 11.9380 942.15 901.21 28.84
4479 11.9400 781.73 781.87 26.14
4480 11.9420 698.25 689.46 24.76
4481 11.9440 564.56 609.38 22.22
4482 11.9460 476.13 536.54 20.66
4483 11.9480 400.26 473.56 18.67
4484 11.9500 378.84 421.66 18.20
4485 11.9520 320.41 379.34 16.81
4486 11.9540 311.03 344.61 16.39
4487 11.9560 265.52 315.74 15.35
4488 11.9580 253.52 291.37 14.89
4489 11.9600 233.23 270.52 14.21
4490 11.9620 214.25 252.49 13.66
4491 11.9640 195.54 236.75 13.07
4492 11.9660 177.54 222.92 12.63
4493 11.9680 180.55 210.69 12.55
4494 11.9700 167.05 199.58 12.00
4495 11.9720 153.37 189.87 11.66
4496 11.9740 153.48 181.16 11.56
4497 11.9760 157.50 173.32 11.84
4498 11.9780 137.07 166.23 10.95
4499 11.9800 139.51 159.80 11.07
4500 11.9820 136.14 153.96 10.91
4501 11.9840 118.10 148.63 10.13
4502 11.9860 133.01 143.76 10.91
4503 11.9880 111.03 139.30 9.85
4504 11.9900 121.44 135.21 10.29
4505 11.9920 125.69 131.44 10.51
4506 11.9940 101.65 127.97 9.42
4507 11.9960 118.58 132.56 10.33
4508 11.9980 119.22 129.80 10.25
4509 12.0000 96.64 127.26 9.19
4510 12.0020 114.48 124.94 10.02
4511 12.0040 111.25 122.83 9.82
4512 12.0060 91.04 120.90 9.04
4513 12.0080 75.89 119.16 8.18
4514 12.0100 97.81 117.59 9.24
4515 12.0120 87.12 116.19 8.74
4516 12.0140 95.80 114.97 9.15
4517 12.0160 113.11 113.94 10.08
4518 12.0180 92.59 113.10 9.04
4519 12.0200 91.96 112.48 8.96
4520 12.0220 122.52 112.12 10.39
4521 12.0240 111.96 112.08 9.87
4522 12.0260 98.91 112.48 9.43
4523 12.0280 89.94 113.50 8.90
4524 12.0300 117.22 115.53 10.14
4525 12.0320 114.26 119.39 10.00
4526 12.0340 129.96 126.61 10.63
4527 12.0360 125.94 139.54 10.64
4528 12.0380 136.79 160.34 11.01
4529 12.0400 191.70 186.49 12.95
4530 12.0420 221.03 200.59 13.93
4531 12.0440 202.03 185.74 13.26
4532 12.0460 165.52 158.99 12.19
4533 12.0480 119.65 137.69 10.23
4534 12.0500 113.40 124.25 9.93
4535 12.0520 107.98 116.48 9.77
4536 12.0540 104.29 112.05 9.52
4537 12.0560 100.15 109.43 9.44
4538 12.0580 96.35 107.81 9.22
4539 12.0600 104.54 106.81 9.53
4540 12.0620 82.33 106.21 8.54
4541 12.0640 101.76 105.93 9.41
4542 12.0660 105.29 105.88 9.77
4543 12.0680 93.50 97.37 9.08
4544 12.0700 89.22 97.91 8.80
4545 12.0720 106.78 89.70 9.78
4546 12.0740 97.49 90.77 9.22
4547 12.0760 100.20 95.52 9.48
4548 12.0780 114.91 96.94 10.04
4549 12.0800 123.45 98.50 10.38
4550 12.0820 110.89 100.21 9.85
4551 12.0840 99.78 102.07 9.33
4552 12.0860 94.44 104.10 9.17
4553 12.0880 100.94 106.31 9.40
4554 12.0900 92.91 108.73 8.98
4555 12.0920 105.31 111.36 9.65
4556 12.0940 102.98 114.25 9.46
4557 12.0960 119.05 117.41 10.30
4558 12.0980 114.86 120.88 10.08
4559 12.1000 106.77 124.71 9.58
4560 12.1020 139.24 128.95 11.07
4561 12.1040 117.96 133.66 10.10
4562 12.1060 140.44 138.90 11.21
4563 12.1080 136.66 144.78 10.90
4564 12.1100 131.07 151.40 10.66
4565 12.1120 128.42 158.90 10.61
4566 12.1140 160.11 167.46 11.79
4567 12.1160 149.17 177.30 11.48
4568 12.1180 170.66 188.72 12.21
4569 12.1200 180.41 202.11 12.48
4570 12.1220 187.35 218.01 12.81
4571 12.1240 216.52 237.33 13.73
4572 12.1260 223.40 261.37 14.14
4573 12.1280 280.59 292.36 15.61
4574 12.1300 337.53 333.70 17.00
4575 12.1320 369.64 390.52 18.04
4576 12.1340 459.69 469.29 20.02
4577 12.1360 584.27 576.51 22.87
4578 12.1380 714.60 715.96 24.97
4579 12.1400 871.97 879.74 27.53
4580 12.1420 960.14 1034.20 29.26
4581 12.1440 994.94 1128.59 29.37
4582 12.1460 1015.52 1159.64 30.38
4583 12.1480 1019.09 1192.36 29.88
4584 12.1500 1252.23 1295.53 33.34
4585 12.1520 1402.05 1512.81 35.27
4586 12.1540 1809.04 1865.80 40.15
4587 12.1560 2281.18 2318.79 45.61
4588 12.1580 2901.08 2720.94 51.20
4589 12.1600 3509.42 2970.35 56.43
4590 12.1620 3887.19 3148.03 60.10
4591 12.1640 3811.59 3267.79 59.02
4592 12.1660 3272.27 3249.06 55.31
4593 12.1680 2651.34 3045.67 48.97
4594 12.1700 2276.27 2696.11 45.23
4595 12.1720 1950.69 2282.46 41.90
4596 12.1740 1576.21 1874.43 37.30
4597 12.1760 1410.90 1511.87 35.94
4598 12.1780 1248.51 1210.72 33.08
4599 12.1800 1106.33 972.99 31.23
4600 12.1820 976.46 793.24 29.46
4601 12.1840 907.69 662.02 28.25
4602 12.1860 845.10 568.98 27.54
4603 12.1880 811.85 504.86 26.82
4604 12.1900 733.70 462.04 25.41
4605 12.1920 680.81 435.25 24.60
4606 12.1940 684.61 421.26 24.42
4607 12.1960 674.48 418.93 24.68
4608 12.1980 643.54 428.49 23.72
4609 12.2000 658.89 451.59 23.97
4610 12.2020 730.38 490.93 25.28
4611 12.2040 697.66 550.07 24.78
4612 12.2060 766.43 632.89 26.28
4613 12.2080 815.33 742.74 26.71
4614 12.2100 864.78 881.42 27.49
4615 12.2120 988.92 1047.25 29.67
4616 12.2140 1144.22 1231.35 31.55
4617 12.2160 1259.15 1415.41 33.83
4618 12.2180 1464.68 1573.67 36.10
4619 12.2200 1646.48 1691.19 38.15
4620 12.2220 1870.21 1781.25 41.01
4621 12.2240 1908.51 1872.61 41.31
4622 12.2260 1969.30 1968.12 42.47
4623 12.2280 2030.93 1988.70 42.67
4624 12.2300 1953.23 1842.70 41.76
4625 12.2320 1712.77 1603.78 39.33
4626 12.2340 1462.10 1369.26 35.99
4627 12.2360 1315.04 1164.89 34.71
4628 12.2380 1118.64 988.66 31.50
4629 12.2400 898.77 834.99 28.13
4630 12.2420 752.80 701.14 25.83
4631 12.2440 603.75 586.88 22.97
4632 12.2460 533.34 491.79 21.94
4633 12.2480 405.19 414.67 18.87
4634 12.2500 304.45 353.39 16.30
4635 12.2520 291.67 305.40 16.04
4636 12.2540 255.19 268.23 14.93
4637 12.2560 256.94 239.44 15.14
4638 12.2580 215.64 217.01 13.77
4639 12.2600 217.37 199.27 13.77
4640 12.2620 178.61 184.96 12.57
4641 12.2640 187.67 173.18 12.72
4642 12.2660 158.41 163.28 11.94
4643 12.2680 140.70 154.81 11.10
4644 12.2700 135.60 147.45 10.87
4645 12.2720 134.97 141.00 10.93
4646 12.2740 142.47 135.29 11.14
4647 12.2760 125.04 130.20 10.53
4648 12.2780 115.11 125.64 10.04
4649 12.2800 105.54 121.54 9.55
4650 12.2820 148.77 117.83 11.47
4651 12.2840 144.04 114.47 11.17
4652 12.2860 109.16 111.40 9.86
4653 12.2880 109.65 108.61 9.86
4654 12.2900 95.03 106.05 9.06
4655 12.2920 119.61 103.69 10.30
4656 12.2940 105.27 101.53 9.57
4657 12.2960 108.92 99.52 9.87
4658 12.2980 97.29 97.67 9.23
4659 12.3000 94.78 95.95 9.05
4660 12.3020 97.30 94.36 9.28
4661 12.3040 88.14 92.87 8.74
4662 12.3060 109.41 91.48 9.90
4663 12.3080 100.44 90.19 9.36
4664 12.3100 100.18 88.97 9.32
4665 12.3120 115.13 87.83 10.12
4666 12.3140 109.56 86.76 9.77
4667 12.3160 83.59 85.76 8.63
4668 12.3180 87.24 84.81 8.75
4669 12.3200 98.86 83.92 9.24
4670 12.3220 78.34 82.38 8.32
4671 12.3240 91.27 81.60 8.91
4672 12.3260 92.55 80.86 9.06
4673 12.3280 93.57 80.17 9.05
4674 12.3300 83.05 79.50 8.48
4675 12.3320 82.27 78.87 8.54
4676 12.3340 92.37 78.28 8.94
4677 12.3360 107.39 77.71 9.77
4678 12.3380 93.46 78.04 9.04
4679 12.3400 90.12 77.54 8.82
4680 12.3420 79.71 77.06 8.38
4681 12.3440 94.19 76.60 9.05
4682 12.3460 90.31 76.16 8.98
4683 12.3480 83.25 75.74 8.49
4684 12.3500 87.20 75.34 8.68
4685 12.3520 88.88 74.96 8.85
4686 12.3540 75.20 74.60 8.05
4687 12.3560 96.80 74.25 9.29
4688 12.3580 91.64 73.43 8.94
4689 12.3600 83.35 73.11 8.47
4690 12.3620 87.11 72.82 8.76
4691 12.3640 100.24 72.53 9.33
4692 12.3660 97.50 72.26 9.36
4693 12.3680 83.18 72.00 8.50
4694 12.3700 99.43 71.75 9.23
4695 12.3720 91.89 71.51 9.07
4696 12.3740 96.49 71.28 9.14
4697 12.3760 91.35 71.05 9.01
4698 12.3780 97.37 70.84 9.16
4699 12.3800 105.93 70.64 9.58
4700 12.3820 80.07 70.04 8.38
4701 12.3840 81.45 69.86 8.38
4702 12.3860 77.67 69.69 8.31
4703 12.3880 85.87 69.52 8.63
4704 12.3900 69.55 69.36 7.73
4705 12.3920 86.80 69.21 8.75
4706 12.3940 76.26 69.06 8.12
4707 12.3960 68.93 68.92 7.81
4708 12.3980 84.42 68.79 8.53
4709 12.4000 87.91 68.65 8.73
4710 12.4020 73.17 68.53 7.99
4711 12.4040 61.34 68.41 7.30
4712 12.4060 66.91 68.29 7.73
4713 12.4080 72.39 68.18 7.91
4714 12.4100 72.10 68.07 7.90
4715 12.4120 73.98 67.96 8.08
4716 12.4140 75.47 67.86 8.08
4717 12.4160 68.90 67.77 7.83
4718 12.4180 68.22 67.68 7.67
4719 12.4200 72.83 67.59 7.88
4720 12.4220 57.40 67.50 7.13
4721 12.4240 76.75 67.42 8.16
4722 12.4260 73.81 67.34 8.08
4723 12.4280 73.71 67.26 7.92
4724 12.4300 56.98 67.19 7.06
4725 12.4320 77.35 67.12 8.25
4726 12.4340 63.33 67.05 7.38
4727 12.4360 79.32 66.99 8.42
4728 12.4380 73.40 66.93 7.92
4729 12.4400 75.65 66.87 8.08
4730 12.4420 82.22 66.81 8.47
4731 12.4440 56.51 66.76 7.02
4732 12.4460 71.46 66.71 7.95
4733 12.4480 83.92 66.66 8.45
4734 12.4500 67.15 66.61 7.61
4735 12.4520 64.20 66.57 7.51
4736 12.4540 58.19 66.53 7.12
4737 12.4560 70.82 66.49 7.93
4738 12.4580 73.89 66.34 7.95
4739 12.4600 79.03 66.31 8.26
4740 12.4620 64.87 66.28 7.55
4741 12.4640 89.53 66.25 8.90
4742 12.4660 84.95 66.23 8.71
4743 12.4680 88.87 66.20 8.71
4744 12.4700 80.76 66.18 8.41
4745 12.4720 89.69 64.32 8.86
4746 12.4740 85.38 64.33 8.63
4747 12.4760 86.74 64.33 8.81
4748 12.4780 89.68 64.34 8.79
4749 12.4800 85.75 64.35 8.63
4750 12.4820 80.61 64.36 8.38
4751 12.4840 86.28 64.37 8.73
4752 12.4860 92.69 64.39 9.10
4753 12.4880 99.03 64.40 9.21
4754 12.4900 86.12 64.42 8.70
4755 12.4920 83.57 64.44 8.59
4756 12.4940 84.66 64.46 8.61
4757 12.4960 96.93 64.48 9.32
4758 12.4980 82.97 64.50 8.47
4759 12.5000 71.89 64.53 7.95
4760 12.5020 78.46 64.56 8.27
4761 12.5040 74.54 64.58 8.11
4762 12.5060 74.67 64.61 8.16
4763 12.5080 86.82 64.65 8.67
4764 12.5100 80.74 64.68 8.44
4765 12.5120 75.83 64.71 8.12
4766 12.5140 75.66 64.75 8.18
4767 12.5160 75.00 64.79 8.21
4768 12.5180 55.50 64.83 6.90
4769 12.5200 74.02 64.87 8.08
4770 12.5220 87.83 64.92 8.75
4771 12.5240 70.85 64.96 7.90
4772 12.5260 81.37 65.01 8.55
4773 12.5280 85.93 65.06 8.65
4774 12.5300 63.38 65.12 7.51
4775 12.5320 82.17 65.17 8.51
4776 12.5340 65.71 65.23 7.65
4777 12.5360 82.70 65.29 8.65
4778 12.5380 73.10 65.35 7.98
4779 12.5400 92.60 65.42 9.08
4780 12.5420 75.22 65.02 8.11
4781 12.5440 66.23 65.10 7.66
4782 12.5460 78.71 65.18 8.40
4783 12.5480 77.17 65.26 8.19
4784 12.5500 83.37 65.27 8.65
4785 12.5520 65.23 65.36 7.60
4786 12.5540 83.26 65.45 8.59
4787 12.5560 84.89 65.55 8.79
4788 12.5580 59.06 65.65 7.18
4789 12.5600 59.97 65.75 7.30
4790 12.5620 76.47 65.86 8.21
4791 12.5640 80.67 65.97 8.47
4792 12.5660 78.07 66.08 8.37
4793 12.5680 74.67 66.20 8.10
4794 12.5700 83.40 66.33 8.61
4795 12.5720 70.11 66.46 7.92
4796 12.5740 66.99 66.59 7.70
4797 12.5760 66.98 66.73 7.76
4798 12.5780 78.45 66.88 8.30
4799 12.5800 79.57 67.03 8.38
4800 12.5820 81.18 67.19 8.44
4801 12.5840 80.63 67.35 8.45
4802 12.5860 89.12 67.52 8.98
4803 12.5880 92.87 67.70 9.05
4804 12.5900 82.96 67.88 8.58
4805 12.5920 84.88 68.08 8.69
4806 12.5940 89.49 68.28 8.92
4807 12.5960 80.52 68.00 8.48
4808 12.5980 70.41 68.22 7.83
4809 12.6000 73.82 68.46 8.06
4810 12.6020 71.80 68.71 7.93
4811 12.6040 71.70 68.97 7.95
4812 12.6060 92.00 69.47 9.12
4813 12.6080 81.54 69.76 8.47
4814 12.6100 64.33 70.06 7.52
4815 12.6120 82.55 70.38 8.53
4816 12.6140 92.37 70.71 9.00
4817 12.6160 72.15 71.07 8.07
4818 12.6180 78.66 71.43 8.30
4819 12.6200 81.85 71.82 8.42
4820 12.6220 82.48 72.23 8.52
4821 12.6240 95.63 72.67 9.18
4822 12.6260 86.91 73.12 8.84
4823 12.6280 86.64 73.61 8.72
4824 12.6300 88.05 74.12 8.78
4825 12.6320 89.68 74.66 8.89
4826 12.6340 90.06 75.23 8.84
4827 12.6360 103.77 75.84 9.66
4828 12.6380 100.60 76.49 9.40
4829 12.6400 84.53 77.17 8.55
4830 12.6420 93.32 77.91 9.06
4831 12.6440 91.72 78.69 8.96
4832 12.6460 92.24 79.53 9.15
4833 12.6480 99.67 80.43 9.29
4834 12.6500 96.86 81.39 9.17
4835 12.6520 109.78 82.42 9.88
4836 12.6540 117.55 83.53 10.14
4837 12.6560 109.45 84.73 9.88
4838 12.6580 116.43 86.02 10.09
4839 12.6600 116.86 87.42 10.05
4840 12.6620 107.55 88.93 9.69
4841 12.6640 113.87 90.58 9.97
4842 12.6660 114.16 92.37 10.13
4843 12.6680 119.05 94.33 10.18
4844 12.6700 121.26 96.47 10.27
4845 12.6720 132.41 98.82 10.87
4846 12.6740 143.71 101.40 11.17
4847 12.6760 119.79 104.94 10.38
4848 12.6780 151.52 108.11 11.48
4849 12.6800 165.22 111.93 11.98
4850 12.6820 173.86 115.87 12.36
4851 12.6840 189.71 120.28 12.83
4852 12.6860 151.49 125.26 11.68
4853 12.6880 169.37 130.91 12.15
4854 12.6900 211.57 137.39 13.56
4855 12.6920 224.15 144.90 14.09
4856 12.6940 246.62 153.75 14.62
4857 12.6960 260.95 164.38 15.29
4858 12.6980 254.06 177.40 14.89
4859 12.7000 286.48 193.68 15.80
4860 12.7020 313.74 214.43 16.66
4861 12.7040 327.84 241.22 16.86
4862 12.7060 340.07 276.00 17.53
4863 12.7080 385.82 321.11 18.48
4864 12.7100 413.84 379.13 18.96
4865 12.7120 459.70 452.57 20.16
4866 12.7140 525.64 543.62 21.43
4867 12.7160 570.98 653.60 22.64
4868 12.7180 714.29 782.72 24.98
4869 12.7200 742.66 928.72 25.40
4870 12.7220 818.11 1086.60 26.89
4871 12.7240 920.58 1247.17 28.35
4872 12.7260 1075.74 1395.58 31.25
4873 12.7280 1227.15 1511.84 32.95
4874 12.7300 1420.04 1575.11 35.45
4875 12.7320 1672.72 1571.67 38.76
4876 12.7340 1761.94 1502.44 39.43
4877 12.7360 1705.89 1382.31 39.65
4878 12.7380 1492.55 1232.52 36.42
4879 12.7400 1179.24 1072.59 32.08
4880 12.7420 899.71 916.76 28.29
4881 12.7440 704.80 773.77 24.86
4882 12.7460 532.60 648.26 21.87
4883 12.7480 449.95 542.20 19.80
4884 12.7500 393.33 455.40 18.55
4885 12.7520 333.71 386.60 17.19
4886 12.7540 253.47 333.88 14.81
4887 12.7560 257.12 295.14 15.20
4888 12.7580 221.07 268.86 13.84
4889 12.7600 215.70 254.61 13.72
4890 12.7620 213.97 253.69 13.65
4891 12.7640 242.70 269.10 14.55
4892 12.7660 261.62 303.75 15.34
4893 12.7680 337.95 352.99 17.13
4894 12.7700 401.01 386.68 18.65
4895 12.7720 382.88 363.30 18.47
4896 12.7740 302.81 300.39 16.15
4897 12.7760 242.49 240.36 14.78
4898 12.7780 174.49 197.12 12.31
4899 12.7800 144.77 168.77 11.19
4900 12.7820 133.89 150.49 10.86
4901 12.7840 117.36 138.30 10.08
4902 12.7860 100.96 129.67 9.56
4903 12.7880 100.06 123.21 9.36
4904 12.7900 70.97 118.22 7.85
4905 12.7920 90.31 114.32 8.97
4906 12.7940 75.96 111.30 8.11
4907 12.7960 74.98 109.07 8.22
4908 12.7980 68.36 107.58 7.71
4909 12.8000 71.53 106.84 7.89
4910 12.8020 81.01 106.85 8.43
4911 12.8040 90.16 107.59 8.84
4912 12.8060 75.85 108.98 8.26
4913 12.8080 83.26 110.82 8.55
4914 12.8100 91.34 112.65 8.88
4915 12.8120 71.58 113.80 7.94
4916 12.8140 82.89 113.58 8.47
4917 12.8160 77.01 111.81 8.36
4918 12.8180 77.44 108.98 8.22
4919 12.8200 82.31 105.83 8.43
4920 12.8220 72.77 102.92 8.02
4921 12.8240 69.15 100.57 7.73
4922 12.8260 77.32 98.92 8.33
4923 12.8280 79.51 98.01 8.31
4924 12.8300 81.36 97.84 8.41
4925 12.8320 90.63 98.44 8.89
4926 12.8340 91.91 99.84 8.92
4927 12.8360 91.56 102.20 9.06
4928 12.8380 96.53 105.76 9.14
4929 12.8400 112.51 111.04 9.84
4930 12.8420 105.82 118.89 9.64
4931 12.8440 118.02 130.70 10.10
4932 12.8460 138.97 148.22 11.13
4933 12.8480 149.14 173.01 11.39
4934 12.8500 168.37 205.97 12.09
4935 12.8520 206.85 245.26 13.46
4936 12.8540 247.63 275.18 14.66
4937 12.8560 287.06 271.65 16.08
4938 12.8580 255.49 240.69 14.90
4939 12.8600 184.78 208.22 12.58
4940 12.8620 197.05 185.98 13.12
4941 12.8640 184.97 173.93 12.72
4942 12.8660 157.96 169.82 11.88
4943 12.8680 164.77 172.35 11.87
4944 12.8700 189.68 180.93 12.81
4945 12.8720 176.22 194.97 12.44
4946 12.8740 189.32 213.54 12.80
4947 12.8760 231.48 234.87 14.45
4948 12.8780 232.48 256.15 14.26
4949 12.8800 258.37 274.24 14.91
4950 12.8820 310.97 288.24 16.50
4951 12.8840 293.95 301.25 16.00
4952 12.8860 360.63 318.75 18.04
4953 12.8880 430.76 344.92 19.29
4954 12.8900 504.12 379.05 20.89
4955 12.8920 508.59 412.17 21.17
4956 12.8940 464.62 426.55 20.12
4957 12.8960 369.29 407.76 18.18
4958 12.8980 310.55 360.89 16.39
4959 12.9000 237.90 303.98 14.36
4960 12.9020 193.69 251.09 12.98
4961 12.9040 188.83 207.82 12.82
4962 12.9060 183.51 174.93 12.86
4963 12.9080 158.05 151.02 11.67
4964 12.9100 127.86 134.09 10.51
4965 12.9120 121.46 122.23 10.31
4966 12.9140 118.92 113.82 10.16
4967 12.9160 102.15 107.72 9.61
4968 12.9180 117.38 103.16 10.04
4969 12.9200 111.35 99.67 9.86
4970 12.9220 98.01 96.95 9.24
4971 12.9240 96.50 94.83 9.18
4972 12.9260 84.47 93.18 8.74
4973 12.9280 102.63 91.93 9.40
4974 12.9300 70.52 91.01 7.84
4975 12.9320 86.77 90.40 8.68
4976 12.9340 78.79 90.05 8.32
4977 12.9360 81.72 89.76 8.57
4978 12.9380 82.08 89.92 8.43
4979 12.9400 87.63 90.33 8.76
4980 12.9420 76.84 90.99 8.19
4981 12.9440 94.51 91.93 9.09
4982 12.9460 84.14 93.16 8.75
4983 12.9480 81.91 94.73 8.43
4984 12.9500 86.56 96.69 8.69
4985 12.9520 94.84 99.11 9.11
4986 12.9540 88.43 102.10 8.83
4987 12.9560 86.45 105.81 8.79
4988 12.9580 91.89 110.48 8.90
4989 12.9600 117.17 116.49 10.14
4990 12.9620 112.63 124.39 9.92
4991 12.9640 139.60 134.96 11.08
4992 12.9660 140.40 149.34 11.26
4993 12.9680 174.31 168.93 12.28
4994 12.9700 197.51 195.38 13.12
4995 12.9720 220.74 230.46 13.89
4996 12.9740 287.26 275.63 15.95
4997 12.9760 356.82 331.77 17.88
4998 12.9780 451.62 398.05 19.79
4999 12.9800 548.28 470.85 21.81
5000 12.9820 546.89 541.90 21.91
5001 12.9840 584.94 598.28 22.70
5002 12.9860 587.06 627.83 23.09
5003 12.9880 539.25 626.77 21.59
5004 12.9900 487.47 599.57 20.60
5005 12.9920 434.72 551.64 19.52
5006 12.9940 385.15 487.83 18.41
5007 12.9960 320.66 416.23 16.96
5008 12.9980 316.65 346.65 16.56
5009 13.0000 265.01 285.93 15.21
5010 13.0020 242.13 236.55 14.53
5011 13.0040 212.09 198.35 13.65
5012 13.0060 178.42 169.70 12.66
5013 13.0080 182.31 148.63 12.57
5014 13.0100 147.38 133.23 11.31
5015 13.0120 143.70 121.87 11.23
5016 13.0140 147.39 113.33 11.36
5017 13.0160 129.79 106.72 10.83
5018 13.0180 118.56 101.46 10.08
5019 13.0200 124.32 97.16 10.34
5020 13.0220 105.77 93.56 9.54
5021 13.0240 113.75 90.52 10.04
5022 13.0260 98.42 87.91 9.39
5023 13.0280 105.59 85.66 9.58
5024 13.0300 102.14 83.70 9.40
5025 13.0320 98.35 81.98 9.29
5026 13.0340 82.58 80.46 8.54
5027 13.0360 87.48 79.12 8.86
5028 13.0380 80.76 77.93 8.39
5029 13.0400 85.41 76.70 8.57
5030 13.0420 71.73 75.74 7.95
5031 13.0440 72.82 74.88 8.00
5032 13.0460 76.92 74.09 8.31
5033 13.0480 69.45 73.38 7.74
5034 13.0500 82.36 72.74 8.44
5035 13.0520 76.02 72.33 8.17
5036 13.0540 72.38 71.80 7.97
5037 13.0560 71.55 71.30 8.00
5038 13.0580 67.19 70.85 7.59
5039 13.0600 65.69 70.43 7.56
5040 13.0620 80.75 70.04 8.39
5041 13.0640 69.03 69.68 7.80
5042 13.0660 72.44 69.34 8.06
5043 13.0680 78.04 69.03 8.21
5044 13.0700 63.96 68.74 7.42
5045 13.0720 65.94 68.47 7.61
5046 13.0740 75.02 68.22 8.08
5047 13.0760 70.47 67.98 7.98
5048 13.0780 61.44 67.76 7.26
5049 13.0800 61.26 67.56 7.27
5050 13.0820 56.60 67.36 7.05
5051 13.0840 52.97 67.18 6.83
5052 13.0860 76.96 67.01 8.31
5053 13.0880 65.31 66.85 7.51
5054 13.0900 61.19 66.69 7.28
5055 13.0920 64.18 66.55 7.49
5056 13.0940 61.66 66.41 7.35
5057 13.0960 69.96 66.29 7.96
5058 13.0980 59.65 66.17 7.14
5059 13.1000 53.65 66.06 6.83
5060 13.1020 60.41 65.94 7.24
5061 13.1040 62.37 65.84 7.41
5062 13.1060 70.35 65.75 7.97
5063 13.1080 78.22 65.66 8.20
5064 13.1100 63.18 65.58 7.39
5065 13.1120 59.55 65.50 7.22
5066 13.1140 57.86 65.42 7.11
5067 13.1160 50.97 65.35 6.76
5068 13.1180 57.58 65.29 6.99
5069 13.1200 48.47 65.24 6.46
5070 13.1220 65.28 65.19 7.55
5071 13.1240 72.57 65.15 7.98
5072 13.1260 61.09 64.25 7.40
5073 13.1280 57.12 64.23 6.96
5074 13.1300 50.06 64.21 6.61
5075 13.1320 58.11 64.21 7.13
5076 13.1340 55.59 64.21 7.01
5077 13.1360 65.74 64.23 7.66
5078 13.1380 58.62 64.25 7.11
5079 13.1400 62.07 64.29 7.30
5080 13.1420 48.49 64.12 6.54
5081 13.1440 64.71 64.21 7.55
5082 13.1460 52.44 64.32 6.84
5083 13.1480 44.63 64.48 6.18
5084 13.1500 47.70 64.79 6.43
5085 13.1520 52.30 65.09 6.77
5086 13.1540 62.31 65.51 7.41
5087 13.1560 64.87 66.14 7.62
5088 13.1580 65.74 67.08 7.45
5089 13.1600 60.20 68.51 7.20
5090 13.1620 68.33 70.63 7.72
5091 13.1640 72.85 73.51 8.05
5092 13.1660 73.29 76.50 8.07
5093 13.1680 86.69 77.71 8.58
5094 13.1700 76.27 76.02 8.11
5095 13.1720 76.93 73.01 8.18
5096 13.1740 70.33 71.38 7.90
5097 13.1760 62.20 69.52 7.44
5098 13.1780 79.31 68.32 8.19
5099 13.1800 72.05 67.58 7.88
5100 13.1820 67.03 67.13 7.64
5101 13.1840 67.87 66.86 7.74
5102 13.1860 64.13 66.66 7.57
5103 13.1880 45.61 66.63 6.22
5104 13.1900 60.17 66.68 7.23
5105 13.1920 45.27 66.80 6.28
5106 13.1940 62.15 67.00 7.40
5107 13.1960 63.54 67.25 7.51
5108 13.1980 66.88 67.58 7.55
5109 13.2000 64.88 68.01 7.48
5110 13.2020 77.79 68.54 8.21
5111 13.2040 64.98 69.22 7.62
5112 13.2060 61.58 70.08 7.40
5113 13.2080 80.65 71.18 8.29
5114 13.2100 54.03 72.60 6.88
5115 13.2120 73.93 74.48 8.03
5116 13.2140 69.79 77.04 7.89
5117 13.2160 82.55 80.70 8.56
5118 13.2180 93.96 86.13 8.94
5119 13.2200 101.10 94.40 9.38
5120 13.2220 96.58 107.08 9.15
5121 13.2240 119.57 125.80 10.34
5122 13.2260 149.91 149.65 11.54
5123 13.2280 169.05 168.50 12.03
5124 13.2300 154.15 165.87 11.59
5125 13.2320 112.03 144.59 9.92
5126 13.2340 93.90 121.52 9.11
5127 13.2360 105.22 104.30 9.69
5128 13.2380 89.80 92.82 8.75
5129 13.2400 78.26 85.38 8.27
5130 13.2420 75.53 80.52 8.13
5131 13.2440 68.97 77.24 7.87
5132 13.2460 74.18 74.97 8.11
5133 13.2480 70.48 73.35 7.79
5134 13.2500 73.49 72.17 8.00
5135 13.2520 64.55 71.31 7.53
5136 13.2540 66.75 70.68 7.74
5137 13.2560 75.12 70.23 8.20
5138 13.2580 66.05 69.92 7.53
5139 13.2600 73.74 69.72 8.07
5140 13.2620 60.13 69.62 7.27
5141 13.2640 60.42 69.61 7.38
5142 13.2660 66.61 69.68 7.73
5143 13.2680 62.07 69.83 7.28
5144 13.2700 65.44 69.93 7.58
5145 13.2720 62.76 70.25 7.45
5146 13.2740 69.52 70.66 7.90
5147 13.2760 70.42 71.18 7.96
5148 13.2780 67.93 71.83 7.64
5149 13.2800 74.61 72.66 8.11
5150 13.2820 79.36 73.70 8.32
5151 13.2840 73.78 75.06 8.17
5152 13.2860 92.25 76.87 9.10
5153 13.2880 85.38 79.32 8.56
5154 13.2900 72.63 82.71 7.99
5155 13.2920 87.71 87.39 8.79
5156 13.2940 81.81 93.45 8.63
5157 13.2960 95.47 101.85 9.25
5158 13.2980 110.51 112.54 9.75
5159 13.3000 121.26 125.45 10.26
5160 13.3020 109.28 139.89 9.80
5161 13.3040 137.75 154.07 11.11
5162 13.3060 163.21 164.75 12.07
5163 13.3080 167.76 168.30 12.06
5164 13.3100 202.46 163.28 13.27
5165 13.3120 199.02 151.84 13.26
5166 13.3140 181.67 137.71 12.72
5167 13.3160 159.21 123.83 11.98
5168 13.3180 130.46 111.73 10.54
5169 13.3200 129.68 101.94 10.68
5170 13.3220 111.94 94.44 9.91
5171 13.3240 95.82 93.84 9.26
5172 13.3260 76.14 90.15 8.25
5173 13.3280 108.09 87.76 9.65
5174 13.3300 81.13 86.37 8.43
5175 13.3320 77.92 85.76 8.26
5176 13.3340 102.55 85.80 9.56
5177 13.3360 97.32 86.47 9.35
5178 13.3380 80.48 87.82 8.31
5179 13.3400 104.09 90.01 9.52
5180 13.3420 104.68 93.28 9.58
5181 13.3440 109.21 97.89 9.91
5182 13.3460 121.35 103.93 10.45
5183 13.3480 129.46 110.68 10.54
5184 13.3500 140.61 115.70 11.14
5185 13.3520 132.88 116.03 10.83
5186 13.3540 157.86 112.26 11.92
5187 13.3560 128.45 107.72 10.69
5188 13.3580 123.23 104.57 10.29
5189 13.3600 142.38 103.53 11.19
5190 13.3620 121.57 104.82 10.33
5191 13.3640 120.80 108.58 10.40
5192 13.3660 116.25 114.95 10.27
5193 13.3680 134.95 123.81 10.79
5194 13.3700 151.48 134.26 11.50
5195 13.3720 145.53 143.74 11.29
5196 13.3740 169.04 148.08 12.29
5197 13.3760 142.10 144.69 11.33
5198 13.3780 157.14 135.59 11.62
5199 13.3800 127.12 124.95 10.55
5200 13.3820 109.36 115.46 9.82
5201 13.3840 110.96 108.07 9.99
5202 13.3860 103.40 102.78 9.67
5203 13.3880 110.47 99.24 9.78
5204 13.3900 82.43 97.06 8.49
5205 13.3920 91.50 95.89 8.99
5206 13.3940 73.14 95.34 8.11
5207 13.3960 88.48 95.26 8.96
5208 13.3980 87.87 95.52 8.71
5209 13.4000 97.91 96.05 9.26
5210 13.4020 80.38 96.79 8.45
5211 13.4040 91.39 97.73 9.02
5212 13.4060 100.18 98.85 9.48
5213 13.4080 98.82 100.05 9.25
5214 13.4100 86.38 101.81 8.70
5215 13.4120 100.12 103.47 9.37
5216 13.4140 84.95 105.31 8.71
5217 13.4160 117.37 107.36 10.31
5218 13.4180 99.05 109.61 9.28
5219 13.4200 121.83 112.09 10.28
5220 13.4220 125.49 114.83 10.50
5221 13.4240 108.45 117.85 9.84
5222 13.4260 107.77 121.17 9.85
5223 13.4280 127.89 124.85 10.54
5224 13.4300 151.95 128.92 11.56
5225 13.4320 125.70 133.43 10.53
5226 13.4340 160.85 138.45 11.98
5227 13.4360 149.85 144.06 11.56
5228 13.4380 161.35 150.34 11.84
5229 13.4400 185.43 157.40 12.71
5230 13.4420 194.26 165.39 13.04
5231 13.4440 183.92 174.47 12.79
5232 13.4460 173.96 184.86 12.57
5233 13.4480 214.19 196.87 13.63
5234 13.4500 225.98 210.88 14.02
5235 13.4520 237.94 231.48 14.52
5236 13.4540 266.86 251.65 15.41
5237 13.4560 302.38 276.52 16.51
5238 13.4580 330.76 307.85 16.96
5239 13.4600 378.04 348.06 18.19
5240 13.4620 414.27 400.21 19.09
5241 13.4640 437.79 467.94 19.82
5242 13.4660 502.31 555.13 21.41
5243 13.4680 596.06 665.51 22.78
5244 13.4700 701.54 801.70 24.73
5245 13.4720 787.20 963.54 26.52
5246 13.4740 975.03 1145.95 29.51
5247 13.4760 1118.34 1336.50 31.98
5248 13.4780 1315.06 1517.07 33.97
5249 13.4800 1677.91 1676.32 38.65
5250 13.4820 1783.24 1821.41 40.01
5251 13.4840 1981.44 1977.16 42.51
5252 13.4860 2133.35 2177.15 44.78
5253 13.4880 2381.21 2466.86 46.30
5254 13.4900 2985.61 2918.58 51.99
5255 13.4920 3832.81 3630.76 59.74
5256 13.4940 5049.10 4649.08 69.30
5257 13.4960 6482.95 5670.80 80.05
5258 13.4980 6047.99 5835.66 75.43
5259 13.5000 4591.80 4851.77 65.30
5260 13.5020 3478.33 3552.83 56.61
5261 13.5040 2680.67 2521.59 49.60
5262 13.5060 2044.78 1820.66 43.67
5263 13.5080 1624.35 1361.40 37.94
5264 13.5100 1334.92 1055.23 34.37
5265 13.5120 1041.32 843.66 30.39
5266 13.5140 890.02 692.06 28.25
5267 13.5160 724.06 580.35 25.69
5268 13.5180 662.42 496.19 24.04
5269 13.5200 559.08 431.51 22.01
5270 13.5220 472.02 380.98 20.38
5271 13.5240 429.64 340.87 19.56
5272 13.5260 371.76 308.51 18.28
5273 13.5280 330.28 282.06 16.99
5274 13.5300 306.06 260.17 16.31
5275 13.5320 265.59 241.86 15.36
5276 13.5340 248.42 226.42 14.79
5277 13.5360 220.05 213.30 14.09
5278 13.5380 205.04 202.10 13.39
5279 13.5400 199.72 192.50 13.15
5280 13.5420 176.77 184.24 12.49
5281 13.5440 184.15 177.14 12.79
5282 13.5460 158.31 171.03 11.93
5283 13.5480 163.50 165.79 11.94
5284 13.5500 165.01 161.32 11.98
5285 13.5520 177.11 157.53 12.48
5286 13.5540 147.39 154.34 11.39
5287 13.5560 141.48 151.74 11.25
5288 13.5580 134.98 149.68 10.82
5289 13.5600 129.47 148.12 10.56
5290 13.5620 145.85 147.04 11.33
5291 13.5640 144.08 146.45 11.25
5292 13.5660 159.00 146.33 11.98
5293 13.5680 146.23 146.70 11.28
5294 13.5700 145.11 147.59 11.20
5295 13.5720 164.33 149.01 12.03
5296 13.5740 160.53 151.02 11.92
5297 13.5760 148.99 153.68 11.56
5298 13.5780 161.63 157.06 11.87
5299 13.5800 170.90 161.28 12.15
5300 13.5820 173.76 166.46 12.34
5301 13.5840 176.66 172.79 12.50
5302 13.5860 178.34 180.49 12.73
5303 13.5880 204.31 189.89 13.36
5304 13.5900 219.44 201.40 13.74
5305 13.5920 251.45 215.64 14.90
5306 13.5940 247.64 233.52 14.82
5307 13.5960 300.40 256.36 16.41
5308 13.5980 332.61 286.25 17.03
5309 13.6000 395.35 326.11 18.50
5310 13.6020 462.75 380.29 20.19
5311 13.6040 539.13 453.92 21.78
5312 13.6060 678.30 551.83 24.75
5313 13.6080 855.91 674.47 27.45
5314 13.6100 936.67 810.19 28.59
5315 13.6120 1045.96 933.63 30.58
5316 13.6140 1130.32 1034.63 31.69
5317 13.6160 1236.89 1158.45 33.66
5318 13.6180 1457.72 1384.31 36.01
5319 13.6200 1720.10 1792.46 39.00
5320 13.6220 2247.47 2458.13 45.36
5321 13.6240 3149.53 3391.50 53.78
5322 13.6260 4083.19 4293.93 62.31
5323 13.6280 4763.60 4445.45 66.66
5324 13.6300 4030.69 3668.22 60.83
5325 13.6320 2763.32 2655.17 50.19
5326 13.6340 1902.68 1855.24 41.53
5327 13.6360 1328.97 1315.76 34.86
5328 13.6380 932.14 967.17 28.67
5329 13.6400 684.26 741.18 24.37
5330 13.6420 566.54 590.42 22.34
5331 13.6440 447.33 485.57 19.87
5332 13.6460 374.66 409.80 18.29
5333 13.6480 285.47 353.43 15.80
5334 13.6500 244.11 310.62 14.53
5335 13.6520 215.34 277.86 13.73
5336 13.6540 189.67 252.98 12.87
5337 13.6560 187.48 234.81 12.98
5338 13.6580 170.19 222.65 12.19
5339 13.6600 186.75 215.21 12.63
5340 13.6620 171.85 208.26 12.25
5341 13.6640 185.74 196.60 12.83
5342 13.6660 147.80 181.25 11.51
5343 13.6680 156.48 166.03 11.66
5344 13.6700 135.88 153.01 10.88
5345 13.6720 114.99 137.86 10.05
5346 13.6740 111.13 129.72 9.92
5347 13.6760 120.18 123.17 10.36
5348 13.6780 76.43 117.75 8.19
5349 13.6800 77.58 113.16 8.19
5350 13.6820 99.43 109.21 9.33
5351 13.6840 85.43 105.75 8.65
5352 13.6860 89.65 102.68 8.98
5353 13.6880 79.74 99.94 8.34
5354 13.6900 83.14 97.49 8.48
5355 13.6920 74.42 95.27 8.12
5356 13.6940 75.86 93.26 8.20
5357 13.6960 90.51 91.43 8.97
5358 13.6980 75.48 89.75 8.11
5359 13.7000 69.91 88.22 7.82
5360 13.7020 76.66 86.80 8.21
5361 13.7040 67.58 85.50 7.71
5362 13.7060 74.31 84.29 8.22
5363 13.7080 53.52 83.18 6.85
5364 13.7100 80.22 82.14 8.34
5365 13.7120 65.79 81.17 7.63
5366 13.7140 73.12 80.27 8.05
5367 13.7160 78.17 79.43 8.36
5368 13.7180 57.96 78.64 7.13
5369 13.7200 60.67 77.91 7.25
5370 13.7220 64.97 77.21 7.59
5371 13.7240 77.43 76.56 8.22
5372 13.7260 65.94 75.94 7.68
5373 13.7280 72.96 75.36 7.98
5374 13.7300 65.44 74.81 7.52
5375 13.7320 66.94 74.29 7.67
5376 13.7340 79.12 73.80 8.40
5377 13.7360 61.02 73.33 7.37
5378 13.7380 64.72 72.89 7.51
5379 13.7400 65.31 72.47 7.52
5380 13.7420 60.08 72.08 7.30
5381 13.7440 64.03 71.70 7.51
5382 13.7460 73.90 71.34 8.12
5383 13.7480 66.30 70.99 7.62
5384 13.7500 60.99 70.66 7.29
5385 13.7520 59.21 70.35 7.20
5386 13.7540 82.04 70.01 8.49
5387 13.7560 78.08 69.73 8.37
5388 13.7580 74.95 69.45 8.09
5389 13.7600 82.31 69.19 8.43
5390 13.7620 67.85 68.94 7.75
5391 13.7640 66.86 68.74 7.73
5392 13.7660 58.78 68.51 7.24
5393 13.7680 74.50 68.29 8.08
5394 13.7700 74.00 68.08 8.02
5395 13.7720 72.54 67.88 8.01
5396 13.7740 65.25 67.68 7.58
5397 13.7760 56.42 67.49 7.13
5398 13.7780 71.03 67.31 7.86
5399 13.7800 60.90 67.13 7.27
5400 13.7820 61.10 66.96 7.33
5401 13.7840 75.14 66.80 8.17
5402 13.7860 59.95 66.19 7.32
5403 13.7880 62.12 66.04 7.35
5404 13.7900 60.99 65.90 7.29
5405 13.7920 61.63 65.76 7.40
5406 13.7940 56.39 65.63 7.04
5407 13.7960 68.72 65.48 7.87
5408 13.7980 61.34 65.36 7.37
5409 13.8000 57.65 65.24 7.04
5410 13.8020 55.83 65.13 7.01
5411 13.8040 56.65 61.09 7.07
5412 13.8060 67.52 61.07 7.79
5413 13.8080 72.76 61.05 7.97
5414 13.8100 51.36 61.03 6.69
5415 13.8120 68.04 61.01 7.77
5416 13.8140 60.10 61.00 7.30
5417 13.8160 59.70 60.98 7.31
5418 13.8180 50.18 60.69 6.62
5419 13.8200 58.97 60.68 7.16
5420 13.8220 76.46 60.67 8.21
5421 13.8240 61.92 60.66 7.36
5422 13.8260 55.24 60.65 7.07
5423 13.8280 63.42 60.64 7.45
5424 13.8300 68.65 60.57 7.72
5425 13.8320 40.71 60.56 6.00
5426 13.8340 48.45 60.09 6.56
5427 13.8360 51.93 60.09 6.83
5428 13.8380 59.45 60.06 7.21
5429 13.8400 48.57 60.06 6.49
5430 13.8420 46.03 60.06 6.38
5431 13.8440 59.73 60.05 7.21
5432 13.8460 50.73 60.06 6.75
5433 13.8480 70.33 60.06 7.89
5434 13.8500 55.88 60.06 6.97
5435 13.8520 65.92 60.06 7.62
5436 13.8540 45.16 60.07 6.33
5437 13.8560 68.16 60.07 7.83
5438 13.8580 57.29 60.08 7.09
5439 13.8600 63.68 60.09 7.43
5440 13.8620 57.88 60.09 7.16
5441 13.8640 59.55 60.10 7.24
5442 13.8660 49.55 60.11 6.64
5443 13.8680 48.11 60.12 6.51
5444 13.8700 67.99 60.14 7.69
5445 13.8720 60.96 60.15 7.30
5446 13.8740 64.14 60.17 7.50
5447 13.8760 67.67 60.19 7.79
5448 13.8780 55.01 60.21 6.94
5449 13.8800 50.93 60.23 6.61
5450 13.8820 59.36 60.26 7.25
5451 13.8840 53.84 60.29 6.90
5452 13.8860 46.67 60.33 6.46
5453 13.8880 61.22 60.37 7.31
5454 13.8900 48.69 60.41 6.52
5455 13.8920 66.05 60.46 7.63
5456 13.8940 60.24 60.52 7.26
5457 13.8960 57.24 60.59 7.17
5458 13.8980 52.74 60.67 6.82
5459 13.9000 58.13 60.76 7.09
5460 13.9020 53.55 60.86 6.86
5461 13.9040 54.40 60.99 6.95
5462 13.9060 67.37 61.13 7.75
5463 13.9080 63.99 61.31 7.47
5464 13.9100 60.62 61.52 7.22
5465 13.9120 60.17 61.77 7.36
5466 13.9140 69.91 62.09 7.82
5467 13.9160 70.54 62.48 7.92
5468 13.9180 48.44 62.98 6.52
5469 13.9200 45.13 63.63 6.24
5470 13.9220 72.08 64.50 7.96
5471 13.9240 73.11 65.70 8.02
5472 13.9260 65.92 67.36 7.66
5473 13.9280 59.59 69.67 7.19
5474 13.9300 63.06 72.81 7.37
5475 13.9320 54.40 76.96 6.96
5476 13.9340 70.47 82.01 7.90
5477 13.9360 66.98 87.67 7.73
5478 13.9380 91.93 94.13 8.95
5479 13.9400 82.18 102.27 8.43
5480 13.9420 88.52 110.32 8.79
5481 13.9440 106.33 111.38 9.65
5482 13.9460 83.51 102.67 8.65
5483 13.9480 74.45 91.04 8.09
5484 13.9500 71.26 81.73 7.82
5485 13.9520 68.05 75.35 7.75
5486 13.9540 82.45 71.13 8.55
5487 13.9560 66.97 68.32 7.76
5488 13.9580 64.82 66.38 7.50
5489 13.9600 71.70 65.00 7.87
5490 13.9620 53.65 63.98 6.88
5491 13.9640 66.91 63.22 7.66
5492 13.9660 54.59 62.62 6.98
5493 13.9680 55.60 62.15 7.01
5494 13.9700 74.90 62.05 8.00
5495 13.9720 58.25 61.75 7.18
5496 13.9740 50.98 61.88 6.74
5497 13.9760 55.44 61.68 7.07
5498 13.9780 52.94 61.52 6.78
5499 13.9800 44.58 61.38 6.24
5500 13.9820 59.93 61.26 7.29
5501 13.9840 62.18 61.16 7.41
5502 13.9860 55.56 61.08 7.08
5503 13.9880 56.31 61.01 7.00
5504 13.9900 63.11 60.95 7.42
5505 13.9920 53.27 60.89 6.84
5506 13.9940 42.59 60.85 6.14
5507 13.9960 56.88 60.81 7.15
5508 13.9980 59.36 60.78 7.22
5509 14.0000 52.52 60.76 6.74
5510 14.0020 50.98 60.74 6.75
5511 14.0040 51.29 60.72 6.75
5512 14.0060 53.61 60.71 6.96
5513 14.0080 67.52 60.70 7.71
5514 14.0100 63.73 60.69 7.46
5515 14.0120 68.50 60.69 7.80
5516 14.0140 59.86 60.69 7.30
5517 14.0160 61.06 60.70 7.41
5518 14.0180 56.81 60.70 7.09
5519 14.0200 71.20 60.71 7.84
5520 14.0220 58.49 63.07 7.21
5521 14.0240 58.48 63.12 7.18
5522 14.0260 58.06 63.17 7.24
5523 14.0280 61.53 63.22 7.35
5524 14.0300 55.16 63.28 6.89
5525 14.0320 41.53 63.35 6.08
5526 14.0340 61.46 63.42 7.42
5527 14.0360 49.90 63.49 6.69
5528 14.0380 52.24 63.56 6.74
5529 14.0400 61.49 63.64 7.31
5530 14.0420 75.03 63.72 8.13
5531 14.0440 54.20 63.81 6.90
5532 14.0460 59.73 63.91 7.31
5533 14.0480 60.85 64.00 7.31
5534 14.0500 67.98 64.11 7.64
5535 14.0520 63.82 64.22 7.50
5536 14.0540 61.67 64.33 7.40
5537 14.0560 66.49 64.46 7.70
5538 14.0580 65.39 64.59 7.52
5539 14.0600 66.73 64.72 7.62
5540 14.0620 53.37 64.87 6.88
5541 14.0640 56.19 65.02 7.04
5542 14.0660 50.77 65.18 6.74
5543 14.0680 64.08 65.36 7.51
5544 14.0700 50.26 65.54 6.60
5545 14.0720 53.67 65.74 6.87
5546 14.0740 59.17 65.95 7.26
5547 14.0760 58.62 66.17 7.22
5548 14.0780 57.65 66.41 7.09
5549 14.0800 71.18 66.67 7.82
5550 14.0820 50.42 66.94 6.68
5551 14.0840 65.20 67.24 7.60
5552 14.0860 57.91 67.56 7.22
5553 14.0880 59.22 67.91 7.24
5554 14.0900 72.20 68.28 7.93
5555 14.0920 67.83 68.69 7.69
5556 14.0940 65.06 69.14 7.62
5557 14.0960 56.77 69.63 7.12
5558 14.0980 56.21 70.18 7.02
5559 14.1000 70.77 70.77 7.78
5560 14.1020 58.67 71.43 7.20
5561 14.1040 68.13 72.17 7.74
5562 14.1060 70.69 73.00 7.94
5563 14.1080 69.87 76.44 7.80
5564 14.1100 73.60 77.54 7.95
5565 14.1120 83.04 78.80 8.57
5566 14.1140 86.91 80.23 8.72
5567 14.1160 74.57 81.87 8.16
5568 14.1180 64.28 83.79 7.51
5569 14.1200 97.03 86.05 9.08
5570 14.1220 92.93 88.72 9.01
5571 14.1240 82.65 91.90 8.58
5572 14.1260 89.56 95.82 8.94
5573 14.1280 110.51 100.68 9.79
5574 14.1300 106.17 106.81 9.58
5575 14.1320 113.85 114.72 9.98
5576 14.1340 138.83 125.18 11.05
5577 14.1360 152.54 139.48 11.67
5578 14.1380 150.66 159.76 11.44
5579 14.1400 189.28 189.52 12.73
5580 14.1420 222.64 234.24 13.98
5581 14.1440 298.02 301.00 16.27
5582 14.1460 364.21 393.56 18.09
5583 14.1480 476.72 495.55 20.37
5584 14.1500 542.55 567.20 21.62
5585 14.1520 555.28 603.86 22.18
5586 14.1540 665.52 627.95 24.23
5587 14.1560 629.78 608.60 23.70
5588 14.1580 499.84 518.59 20.86
5589 14.1600 357.18 402.87 17.58
5590 14.1620 292.21 305.66 15.98
5591 14.1640 243.05 236.67 14.69
5592 14.1660 190.19 191.13 12.98
5593 14.1680 183.18 161.81 12.58
5594 14.1700 155.12 142.77 11.53
5595 14.1720 143.58 129.99 11.23
5596 14.1740 123.88 121.13 10.46
5597 14.1760 110.40 114.88 9.92
5598 14.1780 111.33 110.54 9.80
5599 14.1800 110.66 107.68 9.80
5600 14.1820 93.92 105.97 9.05
5601 14.1840 105.44 105.00 9.64
5602 14.1860 122.70 104.10 10.47
5603 14.1880 98.35 102.61 9.24
5604 14.1900 88.84 100.56 8.74
5605 14.1920 103.78 98.47 9.53
5606 14.1940 105.03 96.73 9.69
5607 14.1960 89.25 95.43 8.92
5608 14.1980 84.55 94.55 8.59
5609 14.2000 101.12 94.04 9.27
5610 14.2020 92.20 93.83 9.05
5611 14.2040 92.03 93.88 9.02
5612 14.2060 68.82 94.12 7.84
5613 14.2080 83.07 94.55 8.52
5614 14.2100 81.15 95.13 8.36
5615 14.2120 88.25 95.85 8.85
5616 14.2140 86.84 96.70 8.77
5617 14.2160 83.74 97.69 8.67
5618 14.2180 82.98 98.81 8.47
5619 14.2200 86.89 100.06 8.66
5620 14.2220 93.71 101.46 9.08
5621 14.2240 85.26 103.00 8.78
5622 14.2260 83.17 104.69 8.61
5623 14.2280 72.98 106.55 7.98
5624 14.2300 94.95 108.59 9.02
5625 14.2320 97.51 110.82 9.29
5626 14.2340 81.31 113.26 8.49
5627 14.2360 95.83 115.93 9.25
5628 14.2380 100.25 118.86 9.33
5629 14.2400 105.95 122.12 9.55
5630 14.2420 101.00 125.67 9.43
5631 14.2440 96.19 129.58 9.22
5632 14.2460 97.83 134.17 9.38
5633 14.2480 119.03 138.99 10.20
5634 14.2500 125.77 144.37 10.46
5635 14.2520 117.07 150.39 10.13
5636 14.2540 140.98 157.16 11.20
5637 14.2560 117.37 164.79 10.26
5638 14.2580 118.40 173.41 10.15
5639 14.2600 135.70 183.17 10.77
5640 14.2620 146.61 194.26 11.38
5641 14.2640 149.91 206.85 11.50
5642 14.2660 168.22 221.17 12.26
5643 14.2680 183.66 237.45 12.63
5644 14.2700 193.59 255.99 12.97
5645 14.2720 217.52 277.16 13.83
5646 14.2740 236.92 301.39 14.50
5647 14.2760 276.98 329.40 15.72
5648 14.2780 294.16 362.28 15.98
5649 14.2800 307.53 401.90 16.32
5650 14.2820 398.34 451.35 18.70
5651 14.2840 441.82 515.34 19.85
5652 14.2860 499.79 600.83 21.09
5653 14.2880 571.52 717.21 22.21
5654 14.2900 821.96 876.39 26.82
5655 14.2920 938.98 1092.03 28.77
5656 14.2940 1183.52 1376.69 32.73
5657 14.2960 1538.05 1739.44 37.31
5658 14.2980 2123.57 2177.93 43.60
5659 14.3000 2812.71 2667.06 50.11
5660 14.3020 3488.73 3139.77 56.93
5661 14.3040 3588.65 3479.62 57.64
5662 14.3060 3343.99 3572.57 55.99
5663 14.3080 2912.89 3404.91 51.30
5664 14.3100 2630.49 3084.76 48.40
5665 14.3120 2391.18 2753.27 46.70
5666 14.3140 2381.58 2515.20 46.50
5667 14.3160 2432.39 2432.24 47.35
5668 14.3180 2601.14 2536.36 48.30
5669 14.3200 3081.49 2823.38 52.52
5670 14.3220 3701.11 3203.95 58.30
5671 14.3240 4004.49 3444.09 61.21
5672 14.3260 3447.32 3290.92 56.62
5673 14.3280 2719.66 2784.08 49.62
5674 14.3300 2040.94 2182.32 42.25
5675 14.3320 1755.17 1662.26 39.73
5676 14.3340 1408.37 1266.83 35.69
5677 14.3360 1198.52 982.22 32.90
5678 14.3380 956.37 782.05 28.81
5679 14.3400 845.40 640.53 27.10
5680 14.3420 744.55 538.92 25.51
5681 14.3440 630.79 463.45 23.60
5682 14.3460 597.10 405.60 23.16
5683 14.3480 538.62 359.96 21.67
5684 14.3500 485.99 323.12 20.45
5685 14.3520 468.14 292.92 20.38
5686 14.3540 422.27 268.01 19.40
5687 14.3560 392.57 246.87 18.69
5688 14.3580 357.18 228.93 17.68
5689 14.3600 333.68 213.57 16.94
5690 14.3620 312.15 200.31 16.51
5691 14.3640 277.19 188.79 15.68
5692 14.3660 275.08 178.71 15.60
5693 14.3680 251.19 169.87 14.75
5694 14.3700 254.44 162.07 14.74
5695 14.3720 230.03 155.16 14.17
5696 14.3740 248.12 149.04 14.88
5697 14.3760 251.41 143.59 14.98
5698 14.3780 211.14 138.73 13.49
5699 14.3800 231.04 134.41 14.06
5700 14.3820 224.02 130.57 13.98
5701 14.3840 183.21 127.16 12.74
5702 14.3860 218.75 124.17 13.91
5703 14.3880 202.84 121.56 13.24
5704 14.3900 168.14 119.33 12.01
5705 14.3920 198.02 117.46 13.24
5706 14.3940 205.63 115.98 13.44
5707 14.3960 200.26 119.35 13.34
5708 14.3980 177.47 118.81 12.40
5709 14.4000 168.69 122.62 11.99
5710 14.4020 178.96 123.28 12.58
5711 14.4040 176.99 124.70 12.49
5712 14.4060 198.01 127.15 13.22
5713 14.4080 199.38 131.02 13.11
5714 14.4100 202.82 137.04 13.13
5715 14.4120 233.68 146.57 14.34
5716 14.4140 206.05 162.07 13.52
5717 14.4160 233.93 187.52 14.36
5718 14.4180 269.62 228.27 15.21
5719 14.4200 310.67 289.08 16.26
5720 14.4220 427.97 368.24 19.43
5721 14.4240 527.68 441.43 21.53
5722 14.4260 514.47 457.10 21.35
5723 14.4280 441.35 399.53 19.55
5724 14.4300 383.25 316.51 18.10
5725 14.4320 288.72 245.97 15.95
5726 14.4340 247.26 196.21 14.80
5727 14.4360 231.38 163.97 14.29
5728 14.4380 216.72 143.68 13.65
5729 14.4400 176.39 130.76 12.28
5730 14.4420 187.07 122.13 12.71
5731 14.4440 182.50 116.03 12.70
5732 14.4460 159.25 111.52 11.85
5733 14.4480 166.38 108.08 11.91
5734 14.4500 153.89 105.43 11.47
5735 14.4520 160.55 103.35 11.85
5736 14.4540 120.65 101.71 10.35
5737 14.4560 108.50 100.42 9.77
5738 14.4580 118.02 99.41 10.02
5739 14.4600 147.22 98.63 11.26
5740 14.4620 132.76 98.05 10.78
5741 14.4640 144.69 97.64 11.32
5742 14.4660 115.86 97.39 10.11
5743 14.4680 120.94 97.27 10.25
5744 14.4700 129.73 97.29 10.55
5745 14.4720 115.63 97.43 10.11
5746 14.4740 126.46 97.69 10.62
5747 14.4760 111.96 98.08 9.93
5748 14.4780 112.69 98.60 9.81
5749 14.4800 114.39 99.25 9.98
5750 14.4820 137.06 100.06 10.93
5751 14.4840 160.74 101.03 11.95
5752 14.4860 152.01 102.20 11.62
5753 14.4880 149.09 103.60 11.34
5754 14.4900 141.28 105.27 11.09
5755 14.4920 146.89 107.29 11.38
5756 14.4940 153.99 109.75 11.77
5757 14.4960 157.56 112.81 11.80
5758 14.4980 159.86 116.69 11.74
5759 14.5000 147.05 121.81 11.30
5760 14.5020 149.59 128.75 11.49
5761 14.5040 184.30 138.40 12.74
5762 14.5060 183.83 151.92 12.83
5763 14.5080 222.23 170.51 13.85
5764 14.5100 236.11 194.37 14.41
5765 14.5120 255.92 219.84 14.97
5766 14.5140 296.45 236.27 16.30
5767 14.5160 269.95 233.56 15.44
5768 14.5180 242.13 216.78 14.40
5769 14.5200 244.85 198.55 14.56
5770 14.5220 208.30 185.80 13.55
5771 14.5240 242.18 179.96 14.66
5772 14.5260 203.40 180.68 13.45
5773 14.5280 210.93 187.38 13.49
5774 14.5300 241.41 199.33 14.62
5775 14.5320 191.45 215.00 12.98
5776 14.5340 215.72 230.51 13.87
5777 14.5360 223.82 239.57 14.15
5778 14.5380 259.87 238.66 14.94
5779 14.5400 238.27 231.50 14.38
5780 14.5420 257.77 224.22 15.09
5781 14.5440 206.16 217.91 13.60
5782 14.5460 235.03 218.70 14.45
5783 14.5480 218.09 223.90 13.73
5784 14.5500 249.33 233.55 14.84
5785 14.5520 262.60 247.79 15.27
5786 14.5540 288.26 267.22 16.08
5787 14.5560 284.65 293.01 15.88
5788 14.5580 340.58 327.18 17.28
5789 14.5600 369.95 372.63 18.00
5790 14.5620 450.12 432.98 20.03
5791 14.5640 530.15 511.74 21.87
5792 14.5660 623.01 609.29 23.68
5793 14.5680 747.12 717.17 25.57
5794 14.5700 775.76 822.81 26.21
5795 14.5720 900.48 934.18 28.39
5796 14.5740 1053.95 1085.50 30.91
5797 14.5760 1265.48 1309.89 33.84
5798 14.5780 1549.81 1618.88 36.99
5799 14.5800 2057.96 1983.29 43.12
5800 14.5820 2569.22 2327.41 48.24
5801 14.5840 3013.39 2599.58 53.07
5802 14.5860 3181.35 2778.37 54.47
5803 14.5880 2987.10 2806.59 52.09
5804 14.5900 2352.29 2643.05 46.00
5805 14.5920 2066.67 2326.91 43.37
5806 14.5940 1662.69 1951.76 39.06
5807 14.5960 1377.97 1588.79 35.26
5808 14.5980 1222.67 1274.45 32.90
5809 14.6000 1038.29 1019.98 30.27
5810 14.6020 931.96 823.28 28.79
5811 14.6040 842.58 676.83 27.36
5812 14.6060 782.80 570.33 26.59
5813 14.6080 725.29 494.64 25.20
5814 14.6100 651.65 441.46 23.94
5815 14.6120 620.53 404.68 23.42
5816 14.6140 617.59 380.14 23.56
5817 14.6160 538.27 365.48 21.91
5818 14.6180 558.07 359.80 22.13
5819 14.6200 539.77 363.31 21.71
5820 14.6220 544.62 377.08 21.89
5821 14.6240 565.64 402.51 22.46
5822 14.6260 601.20 440.43 23.26
5823 14.6280 591.74 488.73 22.80
5824 14.6300 663.91 537.98 24.06
5825 14.6320 708.33 570.96 25.09
5826 14.6340 758.38 577.67 26.03
5827 14.6360 755.63 569.74 26.08
5828 14.6380 731.17 566.97 25.35
5829 14.6400 734.97 580.80 25.29
5830 14.6420 743.88 612.97 25.56
5831 14.6440 804.69 658.33 26.78
5832 14.6460 834.57 705.75 27.49
5833 14.6480 949.02 742.05 28.78
5834 14.6500 973.82 762.84 29.22
5835 14.6520 973.35 778.75 29.26
5836 14.6540 1018.64 808.27 30.33
5837 14.6560 1007.85 867.69 29.80
5838 14.6580 1072.11 968.25 30.77
5839 14.6600 1147.09 1116.68 31.66
5840 14.6620 1265.04 1314.30 33.54
5841 14.6640 1449.81 1554.69 35.94
5842 14.6660 1706.06 1816.92 39.72
5843 14.6680 2092.67 2058.90 43.05
5844 14.6700 2403.67 2224.24 46.61
5845 14.6720 2772.94 2275.37 50.13
5846 14.6740 2714.84 2228.17 49.82
5847 14.6760 2371.23 2138.30 46.41
5848 14.6780 1974.29 2059.32 41.79
5849 14.6800 1844.97 2020.59 40.42
5850 14.6820 1635.75 2027.59 38.16
5851 14.6840 1671.75 2067.46 38.77
5852 14.6860 1746.86 2113.20 39.99
5853 14.6880 1840.41 2129.77 40.63
5854 14.6900 2001.32 2086.85 41.97
5855 14.6920 2107.95 1973.22 43.62
5856 14.6940 2053.53 1800.79 43.15
5857 14.6960 1758.37 1594.77 39.99
5858 14.6980 1368.06 1380.06 34.65
5859 14.7000 1080.11 1175.09 30.74
5860 14.7020 836.32 990.13 27.11
5861 14.7040 674.82 829.99 24.47
5862 14.7060 606.86 695.71 23.29
5863 14.7080 478.37 586.33 20.43
5864 14.7100 390.66 499.17 18.52
5865 14.7120 399.20 430.93 18.66
5866 14.7140 354.53 378.38 17.73
5867 14.7160 305.76 338.35 16.53
5868 14.7180 274.39 308.28 15.42
5869 14.7200 287.22 286.35 15.74
5870 14.7220 241.85 271.66 14.63
5871 14.7240 265.86 264.15 15.24
5872 14.7260 240.66 265.10 14.68
5873 14.7280 251.56 276.09 14.74
5874 14.7300 261.24 298.26 15.04
5875 14.7320 347.43 328.26 17.48
5876 14.7340 385.99 350.99 18.40
5877 14.7360 368.60 344.74 18.25
5878 14.7380 326.32 310.30 16.85
5879 14.7400 279.08 267.83 15.54
5880 14.7420 239.60 230.99 14.46
5881 14.7440 213.39 205.11 13.78
5882 14.7460 202.09 184.00 13.45
5883 14.7480 174.76 167.88 12.31
5884 14.7500 158.86 155.37 11.75
5885 14.7520 136.65 145.51 10.97
5886 14.7540 116.52 137.61 10.13
5887 14.7560 131.91 131.16 10.84
5888 14.7580 111.49 125.80 9.88
5889 14.7600 101.81 121.27 9.40
5890 14.7620 105.88 117.39 9.63
5891 14.7640 107.64 114.00 9.71
5892 14.7660 90.88 111.03 9.07
5893 14.7680 106.69 108.37 9.59
5894 14.7700 111.72 105.55 9.84
5895 14.7720 110.95 103.40 9.89
5896 14.7740 76.03 101.45 8.16
5897 14.7760 94.89 99.67 9.18
5898 14.7780 97.06 98.04 9.23
5899 14.7800 96.45 96.55 9.13
5900 14.7820 100.39 95.18 9.35
5901 14.7840 85.09 93.92 8.68
5902 14.7860 89.91 92.77 8.98
5903 14.7880 77.37 91.51 8.19
5904 14.7900 75.51 90.54 8.12
5905 14.7920 86.23 89.66 8.74
5906 14.7940 79.76 88.86 8.37
5907 14.7960 100.45 88.14 9.50
5908 14.7980 85.07 87.50 8.60
5909 14.8000 104.79 86.95 9.52
5910 14.8020 92.41 86.48 8.99
5911 14.8040 88.83 86.10 8.85
5912 14.8060 99.81 85.83 9.46
5913 14.8080 96.87 85.68 9.13
5914 14.8100 113.17 85.67 9.92
5915 14.8120 100.79 85.86 9.42
5916 14.8140 84.79 86.29 8.64
5917 14.8160 110.86 87.09 9.91
5918 14.8180 99.40 88.40 9.31
5919 14.8200 113.15 90.40 9.83
5920 14.8220 110.02 93.33 9.83
5921 14.8240 129.87 97.40 10.70
5922 14.8260 120.06 102.75 10.37
5923 14.8280 146.35 109.26 11.26
5924 14.8300 144.78 116.27 11.20
5925 14.8320 123.76 122.10 10.38
5926 14.8340 132.35 124.43 10.79
5927 14.8360 137.85 122.04 11.09
5928 14.8380 115.99 116.17 10.03
5929 14.8400 131.90 109.15 10.67
5930 14.8420 114.17 102.70 10.02
5931 14.8440 114.15 97.56 10.00
5932 14.8460 118.06 93.94 10.34
5933 14.8480 116.04 91.82 10.01
5934 14.8500 119.94 91.14 10.16
5935 14.8520 88.96 91.82 8.85
5936 14.8540 100.23 93.71 9.42
5937 14.8560 126.29 96.26 10.60
5938 14.8580 106.94 98.13 9.63
5939 14.8600 106.02 97.67 9.56
5940 14.8620 107.17 94.85 9.63
5941 14.8640 102.31 91.21 9.49
5942 14.8660 92.70 87.97 9.09
5943 14.8680 86.68 85.32 8.64
5944 14.8700 114.92 83.62 9.96
5945 14.8720 106.60 82.51 9.70
5946 14.8740 94.64 81.85 9.08
5947 14.8760 102.35 81.50 9.53
5948 14.8780 105.82 79.61 9.59
5949 14.8800 93.25 79.71 8.99
5950 14.8820 105.69 79.96 9.56
5951 14.8840 104.68 80.34 9.63
5952 14.8860 99.05 80.86 9.46
5953 14.8880 87.07 81.50 8.68
5954 14.8900 89.42 82.29 8.80
5955 14.8920 104.69 83.22 9.58
5956 14.8940 102.52 84.32 9.50
5957 14.8960 107.58 85.67 9.81
5958 14.8980 114.88 87.18 9.94
5959 14.9000 103.74 88.95 9.48
5960 14.9020 110.05 91.04 9.79
5961 14.9040 117.96 93.53 10.17
5962 14.9060 100.21 96.51 9.48
5963 14.9080 124.36 100.14 10.39
5964 14.9100 117.17 104.63 10.09
5965 14.9120 132.59 110.32 10.74
5966 14.9140 140.31 117.72 11.14
5967 14.9160 131.44 127.65 10.85
5968 14.9180 164.27 141.39 11.87
5969 14.9200 162.08 160.69 11.86
5970 14.9220 219.25 187.40 13.78
5971 14.9240 254.23 221.10 15.02
5972 14.9260 277.56 253.55 15.76
5973 14.9280 301.69 271.72 16.12
5974 14.9300 323.09 278.32 16.78
5975 14.9320 322.05 290.58 16.77
5976 14.9340 333.83 314.79 17.15
5977 14.9360 405.66 342.50 19.12
5978 14.9380 392.33 364.82 18.38
5979 14.9400 391.86 391.07 18.51
5980 14.9420 416.59 436.17 19.13
5981 14.9440 492.82 503.56 21.00
5982 14.9460 533.95 580.59 21.80
5983 14.9480 695.41 635.38 24.61
5984 14.9500 687.89 633.47 24.61
5985 14.9520 641.87 576.17 23.74
5986 14.9540 580.20 498.11 22.67
5987 14.9560 498.78 429.37 21.11
5988 14.9580 419.12 382.48 19.04
5989 14.9600 409.13 359.70 18.80
5990 14.9620 391.30 359.42 18.49
5991 14.9640 368.64 379.15 18.07
5992 14.9660 415.77 415.01 19.29
5993 14.9680 379.31 462.40 18.11
5994 14.9700 449.07 513.55 19.79
5995 14.9720 515.88 555.12 21.40
5996 14.9740 514.37 574.76 21.40
5997 14.9760 591.06 561.82 22.99
5998 14.9780 601.55 519.22 22.80
5999 14.9800 542.90 459.54 21.77
6000 14.9820 409.43 395.78 18.91
6001 14.9840 329.21 336.39 17.05
6002 14.9860 290.93 285.30 16.14
6003 14.9880 275.37 243.58 15.41
6004 14.9900 213.86 210.88 13.65
6005 14.9920 203.47 186.00 13.32
6006 14.9940 180.28 167.54 12.66
6007 14.9960 167.97 154.04 12.19
6008 14.9980 166.19 144.26 11.97
6009 15.0000 138.39 137.19 10.91
6010 15.0020 163.68 132.10 11.98
6011 15.0040 148.68 128.49 11.40
6012 15.0060 162.98 126.01 12.14
6013 15.0080 160.13 124.46 11.69
6014 15.0100 154.82 123.69 11.57
6015 15.0120 157.20 123.62 11.73
6016 15.0140 153.16 124.22 11.63
6017 15.0160 163.07 125.47 11.96
6018 15.0180 166.89 127.39 11.99
6019 15.0200 186.16 130.00 12.62
6020 15.0220 167.71 133.37 12.13
6021 15.0240 165.81 137.58 12.10
6022 15.0260 197.62 142.77 13.27
6023 15.0280 228.97 149.13 14.06
6024 15.0300 214.31 156.92 13.68
6025 15.0320 263.99 166.58 15.12
6026 15.0340 246.40 178.70 14.80
6027 15.0360 262.04 194.18 15.33
6028 15.0380 289.72 214.23 15.73
6029 15.0400 312.28 240.57 16.46
6030 15.0420 357.83 275.29 17.67
6031 15.0440 388.91 320.99 18.63
6032 15.0460 410.50 380.42 19.11
6033 15.0480 482.67 456.34 20.42
6034 15.0500 508.85 551.03 21.02
6035 15.0520 599.63 665.57 22.90
6036 15.0540 642.69 799.17 23.81
6037 15.0560 776.81 947.21 26.36
6038 15.0580 867.19 1099.96 27.49
6039 15.0600 983.40 1240.03 29.18
6040 15.0620 1118.35 1342.51 31.46
6041 15.0640 1396.19 1382.88 35.31
6042 15.0660 1527.64 1348.57 37.25
6043 15.0680 1595.61 1251.07 37.24
6044 15.0700 1368.24 1113.35 34.86
6045 15.0720 1081.45 960.50 30.92
6046 15.0740 819.77 810.88 27.02
6047 15.0760 597.01 674.95 23.11
6048 15.0780 478.24 557.78 20.26
6049 15.0800 408.89 460.39 18.79
6050 15.0820 319.00 382.02 16.72
6051 15.0840 240.24 320.39 14.54
6052 15.0860 251.93 272.79 14.88
6053 15.0880 209.55 236.39 13.46
6054 15.0900 169.15 208.58 12.08
6055 15.0920 177.37 187.21 12.45
6056 15.0940 126.45 170.53 10.53
6057 15.0960 137.10 157.24 11.00
6058 15.0980 138.17 146.45 10.87
6059 15.1000 121.14 137.45 10.20
6060 15.1020 108.31 129.88 9.72
6061 15.1040 105.01 123.40 9.64
6062 15.1060 98.01 117.78 9.32
6063 15.1080 79.71 112.88 8.24
6064 15.1100 96.14 108.58 9.12
6065 15.1120 72.65 104.78 7.99
6066 15.1140 83.51 101.41 8.58
6067 15.1160 82.40 98.42 8.47
6068 15.1180 63.86 95.65 7.40
6069 15.1200 66.49 93.26 7.57
6070 15.1220 62.06 91.13 7.40
6071 15.1240 72.23 89.22 7.97
6072 15.1260 81.92 87.51 8.50
6073 15.1280 60.84 85.98 7.22
6074 15.1300 77.06 84.52 8.17
6075 15.1320 64.69 83.30 7.52
6076 15.1340 81.13 82.22 8.46
6077 15.1360 78.57 81.26 8.33
6078 15.1380 63.93 80.43 7.39
6079 15.1400 68.99 79.70 7.71
6080 15.1420 80.56 79.38 8.39
6081 15.1440 54.44 78.89 6.94
6082 15.1460 65.27 78.50 7.59
6083 15.1480 61.70 78.68 7.28
6084 15.1500 87.74 78.53 8.67
6085 15.1520 68.91 78.51 7.79
6086 15.1540 61.06 78.61 7.36
6087 15.1560 77.13 78.86 8.26
6088 15.1580 76.99 79.28 8.12
6089 15.1600 91.57 79.88 8.92
6090 15.1620 84.72 80.71 8.62
6091 15.1640 83.24 81.83 8.56
6092 15.1660 88.86 83.30 8.86
6093 15.1680 64.69 85.25 7.46
6094 15.1700 73.66 87.83 8.01
6095 15.1720 96.29 91.28 9.18
6096 15.1740 97.57 95.89 9.33
6097 15.1760 104.53 102.04 9.55
6098 15.1780 99.46 110.14 9.23
6099 15.1800 104.97 120.58 9.56
6100 15.1820 130.69 133.72 10.65
6101 15.1840 131.73 149.70 10.79
6102 15.1860 158.56 167.78 11.76
6103 15.1880 203.36 187.62 13.13
6104 15.1900 225.03 207.06 14.03
6105 15.1920 224.98 225.24 14.00
6106 15.1940 247.71 244.14 14.75
6107 15.1960 260.49 267.71 15.19
6108 15.1980 320.26 298.32 16.49
6109 15.2000 402.95 331.79 18.67
6110 15.2020 364.69 353.97 17.84
6111 15.2040 326.49 347.77 17.02
6112 15.2060 250.09 312.14 14.76
6113 15.2080 201.49 263.46 13.19
6114 15.2100 162.90 216.99 11.90
6115 15.2120 162.84 179.15 11.92
6116 15.2140 147.12 150.53 11.39
6117 15.2160 117.24 129.73 10.15
6118 15.2180 142.20 114.85 11.02
6119 15.2200 100.41 104.20 9.37
6120 15.2220 126.15 96.44 10.54
6121 15.2240 107.06 90.64 9.79
6122 15.2260 100.46 86.18 9.39
6123 15.2280 80.60 82.65 8.34
6124 15.2300 78.32 79.79 8.31
6125 15.2320 85.27 77.45 8.68
6126 15.2340 89.29 75.51 8.95
6127 15.2360 94.82 73.88 9.12
6128 15.2380 77.37 72.51 8.15
6129 15.2400 85.16 71.34 8.67
6130 15.2420 77.21 70.34 8.25
6131 15.2440 89.07 69.48 8.96
6132 15.2460 65.14 68.74 7.56
6133 15.2480 64.05 68.11 7.44
6134 15.2500 60.72 67.56 7.32
6135 15.2520 63.01 67.10 7.48
6136 15.2540 71.53 66.70 7.99
6137 15.2560 68.68 66.37 7.82
6138 15.2580 79.41 66.09 8.27
6139 15.2600 77.36 65.96 8.30
6140 15.2620 68.96 65.78 7.80
6141 15.2640 84.35 65.65 8.75
6142 15.2660 62.78 65.56 7.42
6143 15.2680 82.23 65.52 8.44
6144 15.2700 61.58 65.52 7.38
6145 15.2720 74.65 65.56 8.11
6146 15.2740 63.83 65.64 7.58
6147 15.2760 57.24 65.78 7.12
6148 15.2780 70.24 65.96 7.74
6149 15.2800 59.72 66.19 7.26
6150 15.2820 54.50 66.47 6.93
6151 15.2840 74.45 66.82 8.15
6152 15.2860 70.56 67.23 7.92
6153 15.2880 77.90 67.72 8.19
6154 15.2900 66.78 67.97 7.70
6155 15.2920 67.63 68.65 7.70
6156 15.2940 75.51 69.47 8.22
6157 15.2960 77.33 70.39 8.27
6158 15.2980 68.80 71.46 7.70
6159 15.3000 71.62 72.72 7.94
6160 15.3020 77.57 74.19 8.30
6161 15.3040 76.26 75.94 8.32
6162 15.3060 63.92 78.01 7.50
6163 15.3080 93.37 80.50 8.94
6164 15.3100 85.22 83.50 8.65
6165 15.3120 96.28 87.18 9.24
6166 15.3140 100.32 91.72 9.44
6167 15.3160 96.75 97.42 9.25
6168 15.3180 126.26 104.71 10.42
6169 15.3200 125.95 114.26 10.54
6170 15.3220 147.41 127.19 11.39
6171 15.3240 169.77 145.40 12.34
6172 15.3260 168.21 172.01 12.23
6173 15.3280 257.04 211.90 14.86
6174 15.3300 287.13 271.57 15.88
6175 15.3320 359.84 357.97 17.83
6176 15.3340 426.07 471.91 19.65
6177 15.3360 599.88 593.92 23.04
6178 15.3380 689.69 678.86 24.41
6179 15.3400 739.13 691.36 25.72
6180 15.3420 696.34 625.45 24.79
6181 15.3440 534.45 508.37 22.03
6182 15.3460 416.19 389.53 19.17
6183 15.3480 300.32 296.12 16.11
6184 15.3500 232.82 231.01 14.30
6185 15.3520 202.20 188.20 13.40
6186 15.3540 193.56 160.76 13.17
6187 15.3560 149.39 143.21 11.55
6188 15.3580 129.91 131.80 10.57
6189 15.3600 128.55 124.15 10.59
6190 15.3620 121.21 118.79 10.37
6191 15.3640 107.71 114.88 9.83
6192 15.3660 109.63 111.97 9.86
6193 15.3680 116.91 109.92 10.04
6194 15.3700 116.80 108.71 10.18
6195 15.3720 114.58 108.35 10.09
6196 15.3740 104.83 108.94 9.68
6197 15.3760 108.65 110.68 9.85
6198 15.3780 125.78 113.81 10.40
6199 15.3800 133.10 118.44 10.80
6200 15.3820 119.85 124.49 10.29
6201 15.3840 139.22 131.67 11.24
6202 15.3860 140.83 139.34 11.17
6203 15.3880 153.74 146.51 11.58
6204 15.3900 158.45 151.94 11.84
6205 15.3920 128.62 154.40 10.71
6206 15.3940 129.09 153.12 10.73
6207 15.3960 103.21 147.98 9.62
6208 15.3980 106.56 139.72 9.61
6209 15.4000 99.30 129.76 9.34
6210 15.4020 101.33 119.45 9.46
6211 15.4040 93.75 109.70 9.22
6212 15.4060 88.10 100.97 8.86
6213 15.4080 96.63 93.46 9.13
6214 15.4100 74.01 87.19 8.10
6215 15.4120 83.50 82.08 8.63
6216 15.4140 72.91 78.61 8.10
6217 15.4160 87.48 75.39 8.84
6218 15.4180 76.06 72.89 8.13
6219 15.4200 69.21 70.93 7.79
6220 15.4220 66.55 69.42 7.71
6221 15.4240 77.42 67.38 8.34
6222 15.4260 65.97 66.46 7.71
6223 15.4280 72.69 65.75 7.94
6224 15.4300 54.34 65.19 6.90
6225 15.4320 55.32 64.78 7.00
6226 15.4340 57.20 64.48 7.17
6227 15.4360 65.27 64.30 7.62
6228 15.4380 65.82 64.23 7.57
6229 15.4400 58.09 64.28 7.16
6230 15.4420 55.01 64.45 6.95
6231 15.4440 73.86 64.55 8.17
6232 15.4460 71.73 65.03 8.02
6233 15.4480 77.78 65.71 8.24
6234 15.4500 74.79 66.65 8.08
6235 15.4520 71.74 67.92 8.01
6236 15.4540 76.17 69.65 8.24
6237 15.4560 71.72 72.03 8.02
6238 15.4580 71.44 75.36 7.84
6239 15.4600 78.32 80.13 8.27
6240 15.4620 81.98 87.02 8.55
6241 15.4640 83.17 96.99 8.61
6242 15.4660 107.45 111.07 9.82
6243 15.4680 92.78 129.66 8.95
6244 15.4700 144.56 150.38 11.24
6245 15.4720 151.12 165.07 11.53
6246 15.4740 132.88 163.89 10.87
6247 15.4760 129.72 148.26 10.75
6248 15.4780 117.23 128.89 10.01
6249 15.4800 98.34 113.00 9.25
6250 15.4820 91.93 102.48 9.00
6251 15.4840 95.26 96.86 9.23
6252 15.4860 100.25 94.64 9.48
6253 15.4880 89.89 92.87 8.84
6254 15.4900 82.12 88.71 8.46
6255 15.4920 90.36 82.48 8.95
6256 15.4940 80.17 76.48 8.43
6257 15.4960 66.29 71.77 7.72
6258 15.4980 67.97 68.34 7.68
6259 15.5000 66.09 65.88 7.56
6260 15.5020 72.90 64.08 8.06
6261 15.5040 68.46 62.74 7.85
6262 15.5060 61.03 61.71 7.38
6263 15.5080 61.08 60.89 7.32
6264 15.5100 60.90 60.24 7.31
6265 15.5120 56.41 59.70 7.12
6266 15.5140 60.96 59.25 7.40
6267 15.5160 55.21 58.87 7.05
6268 15.5180 57.67 58.56 7.10
6269 15.5200 59.26 58.28 7.22
6270 15.5220 59.67 58.05 7.27
6271 15.5240 52.48 57.85 6.82
6272 15.5260 50.73 57.67 6.72
6273 15.5280 60.96 57.52 7.28
6274 15.5300 49.59 57.39 6.59
6275 15.5320 62.39 57.28 7.44
6276 15.5340 57.55 57.18 7.17
6277 15.5360 57.90 56.53 7.18
6278 15.5380 51.85 56.47 6.71
6279 15.5400 56.48 56.42 7.01
6280 15.5420 48.97 56.38 6.60
6281 15.5440 47.78 56.35 6.53
6282 15.5460 57.19 56.33 7.18
6283 15.5480 51.88 56.31 6.70
6284 15.5500 61.60 56.31 7.33
6285 15.5520 51.37 56.30 6.77
6286 15.5540 49.73 56.31 6.64
6287 15.5560 50.92 56.32 6.75
6288 15.5580 63.38 56.34 7.44
6289 15.5600 58.44 56.36 7.14
6290 15.5620 53.49 56.40 6.87
6291 15.5640 65.42 56.43 7.64
6292 15.5660 48.96 56.47 6.65
6293 15.5680 56.39 56.52 7.00
6294 15.5700 61.69 56.57 7.37
6295 15.5720 56.59 56.63 7.07
6296 15.5740 65.45 56.70 7.63
6297 15.5760 67.00 56.77 7.74
6298 15.5780 66.25 56.85 7.57
6299 15.5800 59.40 56.93 7.17
6300 15.5820 48.44 57.03 6.57
6301 15.5840 65.40 57.12 7.59
6302 15.5860 61.83 57.23 7.49
6303 15.5880 61.15 57.35 7.28
6304 15.5900 66.79 57.47 7.68
6305 15.5920 42.03 57.60 6.13
6306 15.5940 58.90 57.74 7.25
6307 15.5960 54.15 57.89 6.97
6308 15.5980 59.13 58.06 7.14
6309 15.6000 72.66 58.23 7.96
6310 15.6020 51.42 58.42 6.74
6311 15.6040 52.01 58.62 6.81
6312 15.6060 68.71 58.83 7.84
6313 15.6080 51.23 59.06 6.68
6314 15.6100 70.40 59.30 7.82
6315 15.6120 50.88 59.57 6.71
6316 15.6140 49.24 59.85 6.61
6317 15.6160 59.07 60.15 7.30
6318 15.6180 83.47 60.48 8.48
6319 15.6200 59.73 60.84 7.21
6320 15.6220 57.42 61.22 7.12
6321 15.6240 53.89 61.63 6.94
6322 15.6260 79.83 62.08 8.44
6323 15.6280 62.11 62.56 7.34
6324 15.6300 63.76 63.09 7.46
6325 15.6320 78.75 63.67 8.36
6326 15.6340 62.60 64.35 7.45
6327 15.6360 57.21 65.04 7.14
6328 15.6380 74.27 65.80 8.01
6329 15.6400 69.01 66.63 7.74
6330 15.6420 55.65 67.56 7.02
6331 15.6440 87.85 68.59 8.84
6332 15.6460 83.42 69.74 8.62
6333 15.6480 70.04 71.04 7.81
6334 15.6500 65.04 72.53 7.55
6335 15.6520 86.11 74.24 8.71
6336 15.6540 86.09 76.22 8.72
6337 15.6560 88.58 78.53 8.90
6338 15.6580 91.46 81.26 8.88
6339 15.6600 100.10 84.49 9.36
6340 15.6620 98.34 88.32 9.28
6341 15.6640 102.96 92.84 9.51
6342 15.6660 111.92 98.17 9.97
6343 15.6680 109.96 104.39 9.75
6344 15.6700 136.60 111.57 10.91
6345 15.6720 139.51 119.78 11.11
6346 15.6740 177.21 128.97 12.50
6347 15.6760 177.26 139.09 12.52
6348 15.6780 165.90 150.06 11.98
6349 15.6800 177.02 162.07 12.44
6350 15.6820 195.37 175.74 13.20
6351 15.6840 216.04 192.29 13.83
6352 15.6860 213.98 213.41 13.89
6353 15.6880 261.80 240.97 15.08
6354 15.6900 273.48 277.25 15.50
6355 15.6920 284.79 324.36 15.83
6356 15.6940 362.98 384.37 17.92
6357 15.6960 386.53 458.18 18.58
6358 15.6980 423.74 543.33 19.21
6359 15.7000 542.99 630.51 21.80
6360 15.7020 656.85 703.03 24.28
6361 15.7040 764.38 743.45 26.14
6362 15.7060 762.00 746.90 26.14
6363 15.7080 778.25 721.73 26.09
6364 15.7100 701.70 677.14 24.86
6365 15.7120 638.85 616.84 23.78
6366 15.7140 606.59 544.46 23.18
6367 15.7160 512.00 467.25 21.36
6368 15.7180 424.91 393.39 19.21
6369 15.7200 320.87 328.49 16.66
6370 15.7220 289.88 274.33 15.99
6371 15.7240 218.87 230.76 13.88
6372 15.7260 183.98 196.50 12.76
6373 15.7280 156.75 170.02 11.65
6374 15.7300 134.92 149.71 10.85
6375 15.7320 142.16 134.14 11.19
6376 15.7340 104.55 122.14 9.62
6377 15.7360 98.51 112.76 9.34
6378 15.7380 98.35 105.29 9.23
6379 15.7400 82.73 99.23 8.47
6380 15.7420 80.30 94.23 8.39
6381 15.7440 83.55 90.01 8.59
6382 15.7460 77.14 86.42 8.30
6383 15.7480 79.86 83.33 8.32
6384 15.7500 74.11 80.64 8.06
6385 15.7520 71.87 78.29 7.98
6386 15.7540 74.83 76.22 8.11
6387 15.7560 78.96 74.39 8.38
6388 15.7580 54.99 72.82 6.92
6389 15.7600 78.30 71.37 8.25
6390 15.7620 73.72 70.05 8.03
6391 15.7640 67.54 68.88 7.75
6392 15.7660 58.78 67.83 7.24
6393 15.7680 83.67 66.87 8.53
6394 15.7700 68.83 67.01 7.75
6395 15.7720 64.76 66.23 7.58
6396 15.7740 52.10 65.53 6.78
6397 15.7760 82.77 64.85 8.61
6398 15.7780 57.48 64.26 7.07
6399 15.7800 64.32 63.72 7.49
6400 15.7820 56.61 63.23 7.08
6401 15.7840 53.85 62.78 6.93
6402 15.7860 61.07 62.36 7.42
6403 15.7880 60.28 61.98 7.25
6404 15.7900 59.71 61.62 7.22
6405 15.7920 60.99 61.30 7.38
6406 15.7940 69.54 61.00 7.87
6407 15.7960 66.57 60.72 7.71
6408 15.7980 49.96 60.47 6.59
6409 15.8000 54.52 60.23 6.92
6410 15.8020 47.49 60.13 6.52
6411 15.8040 52.26 59.93 6.80
6412 15.8060 58.48 59.75 7.26
6413 15.8080 54.74 59.58 6.88
6414 15.8100 52.74 59.43 6.80
6415 15.8120 56.99 59.29 7.09
6416 15.8140 59.70 59.17 7.29
6417 15.8160 43.73 59.05 6.25
6418 15.8180 58.74 58.95 7.16
6419 15.8200 52.05 58.86 6.72
6420 15.8220 51.21 58.78 6.73
6421 15.8240 49.55 58.71 6.59
6422 15.8260 61.63 58.65 7.45
6423 15.8280 64.37 58.60 7.47
6424 15.8300 63.25 58.56 7.45
6425 15.8320 63.68 58.53 7.51
6426 15.8340 57.00 58.51 7.10
6427 15.8360 50.26 58.50 6.71
6428 15.8380 52.77 58.50 6.75
6429 15.8400 55.03 58.50 6.95
6430 15.8420 54.72 58.52 6.96
6431 15.8440 63.45 58.55 7.52
6432 15.8460 58.92 58.59 7.23
6433 15.8480 51.93 58.64 6.73
6434 15.8500 57.12 58.71 7.08
6435 15.8520 60.91 58.78 7.34
6436 15.8540 58.62 58.87 7.18
6437 15.8560 64.84 58.97 7.60
6438 15.8580 54.73 59.09 6.88
6439 15.8600 49.85 59.22 6.59
6440 15.8620 67.17 59.37 7.67
6441 15.8640 58.12 59.54 7.17
6442 15.8660 60.71 59.73 7.35
6443 15.8680 69.38 59.95 7.80
6444 15.8700 58.17 60.19 7.10
6445 15.8720 64.37 60.46 7.56
6446 15.8740 71.79 60.77 7.96
6447 15.8760 59.16 61.12 7.28
6448 15.8780 62.89 61.51 7.37
6449 15.8800 50.63 61.95 6.65
6450 15.8820 59.41 63.20 7.24
6451 15.8840 58.87 63.80 7.21
6452 15.8860 69.93 64.49 7.94
6453 15.8880 77.68 65.29 8.24
6454 15.8900 65.40 66.24 7.55
6455 15.8920 74.81 67.37 8.19
6456 15.8940 78.39 68.76 8.32
6457 15.8960 82.83 70.50 8.60
6458 15.8980 71.42 72.73 7.89
6459 15.9000 81.54 75.65 8.42
6460 15.9020 75.12 79.52 8.17
6461 15.9040 93.33 84.62 9.11
6462 15.9060 84.91 91.27 8.71
6463 15.9080 116.93 99.69 10.03
6464 15.9100 123.18 109.94 10.34
6465 15.9120 132.39 121.55 10.81
6466 15.9140 141.39 133.15 11.12
6467 15.9160 158.87 142.21 11.85
6468 15.9180 163.31 146.04 11.99
6469 15.9200 139.61 144.12 10.97
6470 15.9220 151.81 138.88 11.53
6471 15.9240 126.43 133.77 10.58
6472 15.9260 129.48 131.44 10.69
6473 15.9280 154.11 133.49 11.57
6474 15.9300 165.85 140.48 11.96
6475 15.9320 176.42 150.87 12.47
6476 15.9340 189.57 159.16 12.94
6477 15.9360 176.28 158.14 12.48
6478 15.9380 155.49 147.77 11.64
6479 15.9400 135.70 135.12 10.79
6480 15.9420 124.53 125.54 10.43
6481 15.9440 104.54 120.77 9.61
6482 15.9460 133.17 121.10 10.87
6483 15.9480 132.22 126.72 10.76
6484 15.9500 142.85 137.56 11.13
6485 15.9520 165.02 151.07 12.10
6486 15.9540 158.85 159.56 11.90
6487 15.9560 161.24 156.51 11.97
6488 15.9580 147.15 147.10 11.27
6489 15.9600 151.31 140.01 11.49
6490 15.9620 148.93 138.42 11.48
6491 15.9640 161.30 140.51 11.88
6492 15.9660 157.23 141.04 11.81
6493 15.9680 154.24 136.75 11.59
6494 15.9700 161.61 130.68 11.87
6495 15.9720 140.86 126.68 11.12
6496 15.9740 148.23 125.89 11.44
6497 15.9760 159.87 128.23 11.96
6498 15.9780 148.57 133.56 11.37
6499 15.9800 181.53 142.17 12.58
6500 15.9820 186.67 154.82 12.86
6501 15.9840 196.08 172.94 13.14
6502 15.9860 241.22 198.60 14.67
6503 15.9880 262.13 234.59 15.13
6504 15.9900 285.04 284.10 15.74
6505 15.9920 360.13 349.58 17.80
6506 15.9940 429.62 429.89 19.50
6507 15.9960 480.59 515.33 20.70
6508 15.9980 613.81 578.91 23.19
6509 16.0000 687.89 590.01 24.57
6510 16.0020 624.40 547.42 23.54
6511 16.0040 554.32 481.93 22.17
6512 16.0060 460.48 423.18 20.28
6513 16.0080 433.21 384.76 19.47
6514 16.0100 406.55 369.91 18.87
6515 16.0120 379.51 377.65 18.26
6516 16.0140 425.92 405.46 19.38
6517 16.0160 426.09 449.23 19.44
6518 16.0180 465.72 502.01 20.15
6519 16.0200 465.97 551.74 20.15
6520 16.0220 578.80 582.19 22.71
6521 16.0240 582.12 578.11 22.73
6522 16.0260 578.46 539.29 22.82
6523 16.0280 500.18 478.48 20.80
6524 16.0300 436.60 411.31 19.59
6525 16.0320 340.24 348.60 17.32
6526 16.0340 292.93 295.17 16.20
6527 16.0360 220.42 252.35 13.99
6528 16.0380 181.41 219.61 12.58
6529 16.0400 194.33 195.63 12.97
6530 16.0420 191.85 178.90 13.03
6531 16.0440 180.62 168.02 12.66
6532 16.0460 151.59 161.79 11.61
6533 16.0480 165.93 159.40 12.01
6534 16.0500 160.54 160.40 11.78
6535 16.0520 144.72 164.67 11.37
6536 16.0540 150.52 172.42 11.53
6537 16.0560 165.42 184.12 12.11
6538 16.0580 196.33 200.55 13.08
6539 16.0600 196.50 222.83 13.08
6540 16.0620 221.13 252.61 13.95
6541 16.0640 287.99 292.09 16.01
6542 16.0660 310.92 344.02 16.60
6543 16.0680 351.17 410.62 17.48
6544 16.0700 418.76 494.36 19.05
6545 16.0720 592.55 600.99 22.97
6546 16.0740 726.38 739.77 25.49
6547 16.0760 934.87 905.24 28.91
6548 16.0780 1250.60 1040.01 33.46
6549 16.0800 1318.80 1041.96 34.10
6550 16.0820 1003.36 892.94 29.86
6551 16.0840 701.73 690.66 25.05
6552 16.0860 523.64 513.26 21.70
6553 16.0880 369.13 381.75 17.90
6554 16.0900 298.28 291.73 16.04
6555 16.0920 247.96 232.17 14.84
6556 16.0940 189.64 192.76 12.99
6557 16.0960 157.56 165.94 11.79
6558 16.0980 140.91 146.77 11.05
6559 16.1000 102.91 132.46 9.48
6560 16.1020 101.58 121.42 9.46
6561 16.1040 110.59 112.64 9.84
6562 16.1060 105.26 105.56 9.67
6563 16.1080 78.85 99.75 8.29
6564 16.1100 64.62 94.95 7.47
6565 16.1120 65.35 90.90 7.61
6566 16.1140 78.77 87.48 8.35
6567 16.1160 64.30 84.57 7.54
6568 16.1180 68.99 82.05 7.73
6569 16.1200 60.48 79.88 7.27
6570 16.1220 59.07 77.99 7.20
6571 16.1240 70.89 76.33 7.90
6572 16.1260 62.27 74.88 7.45
6573 16.1280 66.93 73.59 7.62
6574 16.1300 60.24 72.46 7.22
6575 16.1320 78.87 71.46 8.29
6576 16.1340 60.36 70.57 7.35
6577 16.1360 58.57 69.79 7.20
6578 16.1380 53.37 69.09 6.78
6579 16.1400 60.94 68.48 7.27
6580 16.1420 60.87 67.94 7.32
6581 16.1440 64.29 67.47 7.51
6582 16.1460 63.21 67.07 7.46
6583 16.1480 50.45 66.73 6.63
6584 16.1500 52.14 66.44 6.73
6585 16.1520 72.33 66.08 7.95
6586 16.1540 55.44 65.92 6.98
6587 16.1560 63.79 65.81 7.55
6588 16.1580 55.48 65.76 6.91
6589 16.1600 62.67 65.77 7.40
6590 16.1620 56.39 65.85 7.02
6591 16.1640 68.33 65.97 7.83
6592 16.1660 54.14 66.21 6.88
6593 16.1680 59.82 66.54 7.23
6594 16.1700 65.88 66.98 7.54
6595 16.1720 58.70 67.56 7.17
6596 16.1740 70.17 68.30 7.91
6597 16.1760 74.78 69.24 8.14
6598 16.1780 75.56 70.45 8.08
6599 16.1800 83.36 72.01 8.52
6600 16.1820 76.25 74.04 8.21
6601 16.1840 67.77 76.77 7.74
6602 16.1860 95.12 80.50 9.27
6603 16.1880 92.16 85.76 8.90
6604 16.1900 104.35 93.33 9.53
6605 16.1920 107.90 104.31 9.74
6606 16.1940 116.05 119.94 10.09
6607 16.1960 123.35 140.69 10.43
6608 16.1980 154.83 163.59 11.55
6609 16.2000 180.59 178.43 12.55
6610 16.2020 232.44 174.88 14.24
6611 16.2040 195.94 157.22 13.20
6612 16.2060 166.90 137.37 12.15
6613 16.2080 128.74 121.44 10.60
6614 16.2100 115.01 110.73 9.98
6615 16.2120 101.21 104.88 9.51
6616 16.2140 123.59 103.09 10.39
6617 16.2160 105.60 104.46 9.73
6618 16.2180 133.90 107.57 10.74
6619 16.2200 132.31 110.08 10.71
6620 16.2220 137.59 110.62 11.03
6621 16.2240 116.51 110.72 10.10
6622 16.2260 119.27 112.54 10.31
6623 16.2280 120.96 117.06 10.29
6624 16.2300 126.30 124.54 10.54
6625 16.2320 159.22 134.88 11.87
6626 16.2340 171.82 147.85 12.42
6627 16.2360 183.06 163.10 12.72
6628 16.2380 200.57 179.85 13.23
6629 16.2400 250.09 196.93 14.75
6630 16.2420 220.48 212.17 14.02
6631 16.2440 217.03 224.38 13.75
6632 16.2460 244.00 231.87 14.75
6633 16.2480 215.88 234.99 13.71
6634 16.2500 215.62 235.86 13.68
6635 16.2520 209.35 237.28 13.64
6636 16.2540 233.78 241.51 14.34
6637 16.2560 255.41 249.50 15.04
6638 16.2580 282.40 260.26 15.58
6639 16.2600 301.59 270.24 16.32
6640 16.2620 241.49 273.80 14.64
6641 16.2640 262.31 266.07 15.23
6642 16.2660 201.54 246.87 13.32
6643 16.2680 169.43 220.61 12.20
6644 16.2700 174.95 192.84 12.36
6645 16.2720 151.47 167.15 11.54
6646 16.2740 127.51 145.22 10.66
6647 16.2760 125.71 127.37 10.54
6648 16.2780 111.64 112.59 9.84
6649 16.2800 127.11 101.81 10.52
6650 16.2820 109.46 93.62 9.84
6651 16.2840 102.55 87.43 9.48
6652 16.2860 100.98 82.73 9.46
6653 16.2880 86.30 79.10 8.64
6654 16.2900 84.27 76.25 8.63
6655 16.2920 75.15 73.97 8.14
6656 16.2940 74.87 72.12 8.16
6657 16.2960 75.35 70.59 8.15
6658 16.2980 85.76 69.34 8.66
6659 16.3000 76.67 68.31 8.17
6660 16.3020 84.15 67.47 8.61
6661 16.3040 73.74 66.82 8.06
6662 16.3060 80.64 66.34 8.44
6663 16.3080 70.97 66.04 7.87
6664 16.3100 73.47 65.92 8.01
6665 16.3120 69.91 66.00 7.90
6666 16.3140 77.89 66.31 8.28
6667 16.3160 72.01 66.88 8.01
6668 16.3180 65.64 67.74 7.53
6669 16.3200 70.64 68.94 7.87
6670 16.3220 62.18 70.49 7.39
6671 16.3240 79.21 72.44 8.32
6672 16.3260 78.31 74.79 8.38
6673 16.3280 74.87 77.17 8.04
6674 16.3300 69.90 80.24 7.80
6675 16.3320 77.83 83.56 8.33
6676 16.3340 77.57 86.95 8.27
6677 16.3360 80.28 90.19 8.40
6678 16.3380 99.25 92.94 9.29
6679 16.3400 82.61 94.72 8.47
6680 16.3420 86.84 95.45 8.72
6681 16.3440 102.58 94.87 9.49
6682 16.3460 96.66 93.08 9.27
6683 16.3480 104.19 90.35 9.46
6684 16.3500 81.45 87.06 8.43
6685 16.3520 93.37 83.53 9.09
6686 16.3540 77.23 80.02 8.25
6687 16.3560 74.83 76.71 8.14
6688 16.3580 68.06 73.70 7.69
6689 16.3600 68.75 71.06 7.74
6690 16.3620 78.44 68.79 8.28
6691 16.3640 67.12 66.91 7.69
6692 16.3660 54.29 65.39 6.94
6693 16.3680 59.53 64.19 7.21
6694 16.3700 62.80 63.29 7.38
6695 16.3720 56.01 62.63 7.05
6696 16.3740 60.76 62.20 7.28
6697 16.3760 65.22 61.96 7.59
6698 16.3780 50.70 61.89 6.66
6699 16.3800 62.56 61.99 7.40
6700 16.3820 71.25 62.28 7.91
6701 16.3840 58.54 62.73 7.17
6702 16.3860 56.45 63.40 7.05
6703 16.3880 64.39 64.34 7.47
6704 16.3900 67.36 65.63 7.66
6705 16.3920 60.19 67.37 7.27
6706 16.3940 66.06 69.67 7.60
6707 16.3960 74.59 72.70 8.07
6708 16.3980 77.76 76.60 8.26
6709 16.4000 76.14 81.54 8.10
6710 16.4020 80.45 87.61 8.42
6711 16.4040 99.54 94.83 9.35
6712 16.4060 104.77 103.02 9.62
6713 16.4080 108.51 112.05 9.68
6714 16.4100 125.18 121.16 10.46
6715 16.4120 147.87 129.29 11.37
6716 16.4140 134.70 135.17 10.86
6717 16.4160 135.81 137.52 10.91
6718 16.4180 111.24 135.71 9.79
6719 16.4200 109.66 130.09 9.73
6720 16.4220 87.81 121.86 8.76
6721 16.4240 95.77 112.46 9.19
6722 16.4260 90.81 103.07 8.94
6723 16.4280 75.74 94.40 8.15
6724 16.4300 92.22 86.83 8.93
6725 16.4320 79.90 80.45 8.40
6726 16.4340 66.30 75.83 7.65
6727 16.4360 76.98 71.70 8.20
6728 16.4380 66.69 68.46 7.57
6729 16.4400 72.70 65.95 7.94
6730 16.4420 67.13 64.01 7.66
6731 16.4440 76.89 62.51 8.20
6732 16.4460 73.01 61.33 8.00
6733 16.4480 61.31 60.39 7.32
6734 16.4500 72.31 59.63 7.87
6735 16.4520 59.02 58.99 7.20
6736 16.4540 57.25 58.46 7.11
6737 16.4560 47.91 58.00 6.48
6738 16.4580 60.92 57.60 7.24
6739 16.4600 71.06 57.26 7.85
6740 16.4620 50.54 56.96 6.66
6741 16.4640 71.15 56.69 7.90
6742 16.4660 44.22 56.46 6.24
6743 16.4680 51.94 56.25 6.76
6744 16.4700 58.85 56.06 7.16
6745 16.4720 63.56 55.90 7.49
6746 16.4740 60.78 55.75 7.31
6747 16.4760 47.54 55.62 6.47
6748 16.4780 56.37 55.50 6.98
6749 16.4800 47.55 55.40 6.44
6750 16.4820 63.73 55.31 7.51
6751 16.4840 62.90 55.22 7.42
6752 16.4860 63.79 55.15 7.49
6753 16.4880 57.75 55.09 7.13
6754 16.4900 55.76 55.03 6.99
6755 16.4920 56.53 54.98 7.02
6756 16.4940 58.47 54.94 7.19
6757 16.4960 44.97 54.90 6.33
6758 16.4980 67.00 54.88 7.61
6759 16.5000 66.41 54.85 7.62
6760 16.5020 56.04 54.83 7.04
6761 16.5040 66.39 54.82 7.63
6762 16.5060 49.28 54.81 6.62
6763 16.5080 55.84 54.81 6.96
6764 16.5100 60.20 54.82 7.30
6765 16.5120 45.10 54.82 6.31
6766 16.5140 42.94 54.84 6.16
6767 16.5160 50.71 54.86 6.72
6768 16.5180 67.13 54.88 7.63
6769 16.5200 51.73 54.91 6.77
6770 16.5220 47.29 54.94 6.47
6771 16.5240 54.75 54.99 7.01
6772 16.5260 50.37 55.04 6.66
6773 16.5280 64.59 55.09 7.49
6774 16.5300 53.68 55.16 6.93
6775 16.5320 63.77 55.23 7.52
6776 16.5340 53.40 55.32 6.85
6777 16.5360 49.51 55.43 6.68
6778 16.5380 57.96 55.55 7.10
6779 16.5400 58.82 55.70 7.19
6780 16.5420 60.24 55.87 7.33
6781 16.5440 66.30 56.07 7.71
6782 16.5460 60.68 56.31 7.34
6783 16.5480 75.38 56.57 8.14
6784 16.5500 62.12 56.87 7.45
6785 16.5520 68.88 57.19 7.83
6786 16.5540 54.86 57.51 7.01
6787 16.5560 56.30 57.81 7.12
6788 16.5580 67.10 58.05 7.65
6789 16.5600 60.39 58.23 7.33
6790 16.5620 53.22 58.33 6.86
6791 16.5640 51.88 58.39 6.81
6792 16.5660 55.30 58.44 7.06
6793 16.5680 54.63 58.51 6.92
6794 16.5700 57.15 58.50 7.15
6795 16.5720 55.76 58.67 7.10
6796 16.5740 60.46 58.91 7.36
6797 16.5760 63.20 59.22 7.52
6798 16.5780 69.29 59.62 7.77
6799 16.5800 65.66 60.12 7.62
6800 16.5820 59.08 60.73 7.26
6801 16.5840 53.87 61.48 6.97
6802 16.5860 48.52 62.42 6.61
6803 16.5880 63.80 63.60 7.46
6804 16.5900 64.10 65.14 7.53
6805 16.5920 49.52 67.27 6.64
6806 16.5940 70.77 69.99 7.94
6807 16.5960 74.70 73.63 8.16
6808 16.5980 64.44 78.37 7.50
6809 16.6000 74.57 83.96 8.09
6810 16.6020 93.31 89.12 9.10
6811 16.6040 95.70 91.65 9.19
6812 16.6060 100.24 90.64 9.43
6813 16.6080 85.73 87.93 8.69
6814 16.6100 78.47 85.62 8.31
6815 16.6120 84.54 84.83 8.61
6816 16.6140 85.86 85.61 8.71
6817 16.6160 87.49 88.08 8.83
6818 16.6180 90.71 92.36 8.90
6819 16.6200 83.66 98.62 8.56
6820 16.6220 97.14 107.18 9.30
6821 16.6240 108.74 118.76 9.79
6822 16.6260 109.84 135.50 9.88
6823 16.6280 153.26 159.88 11.59
6824 16.6300 192.92 193.34 12.94
6825 16.6320 220.39 233.30 13.96
6826 16.6340 292.23 268.00 16.07
6827 16.6360 280.48 281.07 15.70
6828 16.6380 295.53 273.00 16.04
6829 16.6400 238.63 260.69 14.42
6830 16.6420 231.30 254.24 14.28
6831 16.6440 234.89 251.36 14.39
6832 16.6460 261.45 243.90 15.29
6833 16.6480 206.77 227.30 13.41
6834 16.6500 178.09 205.07 12.51
6835 16.6520 172.04 183.63 12.34
6836 16.6540 149.33 167.11 11.47
6837 16.6560 154.51 157.00 11.66
6838 16.6580 168.73 153.76 12.13
6839 16.6600 197.80 157.61 13.12
6840 16.6620 174.73 168.90 12.38
6841 16.6640 216.75 188.05 13.87
6842 16.6660 205.58 215.02 13.46
6843 16.6680 220.41 248.34 13.88
6844 16.6700 244.76 283.13 14.56
6845 16.6720 323.88 309.20 16.94
6846 16.6740 348.83 314.43 17.60
6847 16.6760 292.86 295.11 16.07
6848 16.6780 234.97 260.63 14.27
6849 16.6800 182.07 223.68 12.57
6850 16.6820 166.06 191.61 12.08
6851 16.6840 164.93 166.65 12.02
6852 16.6860 134.41 148.52 10.86
6853 16.6880 128.71 135.97 10.57
6854 16.6900 109.81 127.63 9.75
6855 16.6920 118.84 121.83 10.23
6856 16.6940 116.61 117.12 10.17
6857 16.6960 112.28 112.31 9.90
6858 16.6980 85.30 106.81 8.62
6859 16.7000 72.57 100.76 7.95
6860 16.7020 82.96 94.64 8.53
6861 16.7040 81.02 88.91 8.41
6862 16.7060 73.48 83.82 8.11
6863 16.7080 70.72 79.46 7.82
6864 16.7100 69.53 75.81 7.79
6865 16.7120 67.28 72.82 7.71
6866 16.7140 80.72 70.38 8.41
6867 16.7160 72.25 68.41 7.98
6868 16.7180 65.78 66.81 7.58
6869 16.7200 57.74 65.51 7.07
6870 16.7220 61.09 64.43 7.32
6871 16.7240 64.41 63.53 7.56
6872 16.7260 56.59 62.77 7.06
6873 16.7280 56.19 62.12 7.02
6874 16.7300 54.95 61.56 6.91
6875 16.7320 55.68 61.06 7.02
6876 16.7340 61.26 60.64 7.36
6877 16.7360 71.39 60.26 7.93
6878 16.7380 66.10 59.93 7.63
6879 16.7400 60.04 59.64 7.22
6880 16.7420 53.24 59.39 6.85
6881 16.7440 36.65 59.18 5.69
6882 16.7460 55.39 58.99 7.07
6883 16.7480 56.58 58.84 7.03
6884 16.7500 61.74 58.71 7.35
6885 16.7520 53.64 58.61 6.88
6886 16.7540 50.33 58.53 6.69
6887 16.7560 59.21 58.48 7.19
6888 16.7580 60.08 58.45 7.27
6889 16.7600 55.31 58.45 6.95
6890 16.7620 51.17 58.48 6.73
6891 16.7640 55.61 58.54 7.00
6892 16.7660 66.00 58.63 7.69
6893 16.7680 55.42 58.75 6.96
6894 16.7700 39.17 58.91 5.85
6895 16.7720 63.90 59.11 7.54
6896 16.7740 57.28 59.36 7.11
6897 16.7760 56.93 59.67 7.11
6898 16.7780 50.93 60.01 6.69
6899 16.7800 60.16 60.47 7.25
6900 16.7820 68.78 61.03 7.74
6901 16.7840 69.32 61.71 7.83
6902 16.7860 56.55 62.54 7.08
6903 16.7880 55.87 63.58 6.97
6904 16.7900 66.13 64.87 7.60
6905 16.7920 55.57 66.48 7.03
6906 16.7940 59.19 68.57 7.25
6907 16.7960 60.00 71.32 7.27
6908 16.7980 78.96 74.98 8.29
6909 16.8000 74.17 80.03 8.01
6910 16.8020 98.07 87.11 9.29
6911 16.8040 98.91 97.09 9.30
6912 16.8060 89.63 111.11 8.89
6913 16.8080 138.68 130.07 11.02
6914 16.8100 142.07 153.29 11.13
6915 16.8120 174.74 175.38 12.38
6916 16.8140 158.45 185.43 11.88
6917 16.8160 131.87 176.64 10.78
6918 16.8180 142.43 155.11 11.11
6919 16.8200 109.04 131.67 9.70
6920 16.8220 119.20 112.37 10.26
6921 16.8240 106.90 98.15 9.70
6922 16.8260 73.23 88.09 8.03
6923 16.8280 83.27 81.02 8.53
6924 16.8300 89.26 76.04 8.78
6925 16.8320 77.48 72.46 8.27
6926 16.8340 61.54 69.85 7.35
6927 16.8360 64.47 67.92 7.55
6928 16.8380 68.46 66.48 7.69
6929 16.8400 58.81 65.28 7.12
6930 16.8420 66.99 64.50 7.68
6931 16.8440 64.21 63.96 7.55
6932 16.8460 59.95 63.63 7.29
6933 16.8480 64.43 63.47 7.51
6934 16.8500 59.05 63.49 7.17
6935 16.8520 53.39 63.72 6.85
6936 16.8540 64.59 64.09 7.54
6937 16.8560 73.10 64.66 8.03
6938 16.8580 56.73 65.47 7.01
6939 16.8600 60.51 66.57 7.23
6940 16.8620 72.91 68.05 7.99
6941 16.8640 64.39 70.07 7.55
6942 16.8660 82.36 72.82 8.54
6943 16.8680 75.00 76.62 8.03
6944 16.8700 84.20 81.85 8.55
6945 16.8720 84.46 89.01 8.61
6946 16.8740 81.86 98.60 8.49
6947 16.8760 116.33 110.95 10.11
6948 16.8780 141.52 126.06 11.09
6949 16.8800 145.55 142.83 11.21
6950 16.8820 182.80 158.18 12.59
6951 16.8840 167.93 166.99 12.20
6952 16.8860 176.39 165.15 12.48
6953 16.8880 145.92 153.64 11.25
6954 16.8900 132.92 137.39 10.72
6955 16.8920 105.36 121.06 9.63
6956 16.8940 89.19 107.00 8.84
6957 16.8960 91.16 95.88 8.91
6958 16.8980 103.92 87.59 9.50
6959 16.9000 82.90 81.74 8.48
6960 16.9020 90.72 77.84 8.84
6961 16.9040 90.62 75.32 8.97
6962 16.9060 72.11 73.26 8.00
6963 16.9080 83.87 71.13 8.48
6964 16.9100 72.59 68.73 7.96
6965 16.9120 78.96 66.46 8.34
6966 16.9140 67.60 64.58 7.72
6967 16.9160 60.90 63.11 7.30
6968 16.9180 60.48 61.97 7.26
6969 16.9200 66.08 61.08 7.58
6970 16.9220 70.32 60.37 7.84
6971 16.9240 78.42 59.80 8.35
6972 16.9260 74.72 59.34 8.10
6973 16.9280 59.36 58.97 7.18
6974 16.9300 70.89 58.66 7.87
6975 16.9320 68.43 58.41 7.79
6976 16.9340 53.97 58.02 6.92
6977 16.9360 64.54 57.86 7.56
6978 16.9380 53.30 57.74 6.81
6979 16.9400 64.33 57.65 7.50
6980 16.9420 69.01 57.59 7.80
6981 16.9440 61.46 57.56 7.35
6982 16.9460 58.06 57.56 7.18
6983 16.9480 69.98 57.58 7.79
6984 16.9500 62.35 57.73 7.38
6985 16.9520 63.50 57.82 7.52
6986 16.9540 71.22 57.94 7.96
6987 16.9560 68.38 58.11 7.76
6988 16.9580 63.12 58.33 7.38
6989 16.9600 67.41 58.60 7.68
6990 16.9620 63.21 58.93 7.48
6991 16.9640 61.60 59.37 7.39
6992 16.9660 69.35 59.93 7.86
6993 16.9680 55.88 60.61 6.95
6994 16.9700 62.30 61.46 7.39
6995 16.9720 69.16 62.51 7.84
6996 16.9740 60.73 63.78 7.35
6997 16.9760 73.85 65.31 8.00
6998 16.9780 67.60 67.13 7.68
6999 16.9800 65.10 69.26 7.52
7000 16.9820 67.96 71.71 7.74
7001 16.9840 66.76 74.49 7.70
7002 16.9860 68.58 77.56 7.81
7003 16.9880 81.63 81.53 8.40
7004 16.9900 78.74 85.06 8.25
7005 16.9920 75.76 88.64 8.20
7006 16.9940 94.56 92.11 9.19
7007 16.9960 78.67 95.25 8.27
7008 16.9980 83.97 97.79 8.55
7009 17.0000 94.82 99.46 9.10
7010 17.0020 83.16 100.07 8.51
7011 17.0040 81.63 99.53 8.51
7012 17.0060 92.71 97.93 9.08
7013 17.0080 106.43 95.46 9.63
7014 17.0100 95.77 92.38 9.12
7015 17.0120 68.85 88.98 7.81
7016 17.0140 84.55 85.46 8.67
7017 17.0160 85.30 82.00 8.65
7018 17.0180 83.19 78.72 8.52
7019 17.0200 70.07 75.73 7.81
7020 17.0220 67.25 73.01 7.69
7021 17.0240 69.46 70.63 7.83
7022 17.0260 52.79 68.56 6.86
7023 17.0280 53.67 66.83 6.84
7024 17.0300 67.39 65.39 7.65
7025 17.0320 59.34 64.21 7.24
7026 17.0340 50.47 63.30 6.70
7027 17.0360 50.55 62.61 6.65
7028 17.0380 51.32 62.01 6.68
7029 17.0400 55.90 61.69 6.99
7030 17.0420 70.39 61.54 7.85
7031 17.0440 54.38 61.53 6.97
7032 17.0460 54.26 61.68 6.92
7033 17.0480 53.10 61.97 6.80
7034 17.0500 70.60 62.39 7.86
7035 17.0520 55.78 62.94 7.02
7036 17.0540 58.25 63.60 7.18
7037 17.0560 66.68 64.33 7.66
7038 17.0580 59.03 65.05 7.16
7039 17.0600 57.12 65.72 7.05
7040 17.0620 57.94 66.36 7.14
7041 17.0640 61.76 66.92 7.38
7042 17.0660 56.36 67.61 7.05
7043 17.0680 68.18 68.64 7.69
7044 17.0700 73.00 70.23 7.94
7045 17.0720 71.34 72.62 7.91
7046 17.0740 64.14 76.03 7.55
7047 17.0760 78.56 80.60 8.29
7048 17.0780 89.80 86.17 8.82
7049 17.0800 92.94 92.11 8.97
7050 17.0820 96.14 97.31 9.19
7051 17.0840 96.08 100.39 9.18
7052 17.0860 82.77 99.90 8.53
7053 17.0880 89.24 95.59 8.79
7054 17.0900 71.83 89.20 7.90
7055 17.0920 75.77 82.74 8.20
7056 17.0940 75.64 77.28 8.17
7057 17.0960 65.16 73.04 7.58
7058 17.0980 74.50 69.88 8.04
7059 17.1000 55.58 67.58 6.93
7060 17.1020 66.71 65.95 7.69
7061 17.1040 60.02 64.81 7.26
7062 17.1060 64.16 64.02 7.52
7063 17.1080 55.90 63.48 6.94
7064 17.1100 62.64 63.14 7.39
7065 17.1120 52.06 62.94 6.76
7066 17.1140 64.84 62.86 7.58
7067 17.1160 63.11 62.89 7.45
7068 17.1180 64.27 63.11 7.42
7069 17.1200 60.66 63.39 7.23
7070 17.1220 71.46 63.71 7.95
7071 17.1240 72.64 64.16 7.96
7072 17.1260 68.45 64.74 7.75
7073 17.1280 61.92 65.50 7.33
7074 17.1300 62.61 66.49 7.37
7075 17.1320 72.88 67.80 8.01
7076 17.1340 65.20 69.54 7.58
7077 17.1360 68.31 71.83 7.72
7078 17.1380 66.66 74.82 7.57
7079 17.1400 61.67 78.64 7.31
7080 17.1420 84.23 83.35 8.59
7081 17.1440 85.39 88.78 8.68
7082 17.1460 107.19 94.40 9.70
7083 17.1480 110.00 98.99 9.73
7084 17.1500 104.76 101.09 9.49
7085 17.1520 99.33 100.04 9.36
7086 17.1540 92.23 96.69 9.01
7087 17.1560 78.81 92.54 8.30
7088 17.1580 71.86 88.74 7.87
7089 17.1600 73.16 85.73 7.95
7090 17.1620 104.14 83.86 9.54
7091 17.1640 83.29 83.02 8.56
7092 17.1660 77.65 83.14 8.24
7093 17.1680 78.79 84.19 8.25
7094 17.1700 72.68 86.16 7.92
7095 17.1720 89.38 89.15 8.89
7096 17.1740 107.06 93.36 9.69
7097 17.1760 80.66 99.09 8.43
7098 17.1780 119.43 106.81 10.17
7099 17.1800 114.63 117.02 9.92
7100 17.1820 107.99 130.12 9.75
7101 17.1840 133.05 145.85 10.81
7102 17.1860 151.84 162.48 11.49
7103 17.1880 192.18 177.54 12.90
7104 17.1900 210.98 191.48 13.50
7105 17.1920 224.89 209.48 14.06
7106 17.1940 258.60 237.64 15.07
7107 17.1960 284.72 279.77 15.82
7108 17.1980 337.62 335.52 16.99
7109 17.2000 436.62 394.55 19.46
7110 17.2020 512.46 431.96 21.19
7111 17.2040 472.75 424.28 20.58
7112 17.2060 417.47 380.46 19.05
7113 17.2080 368.03 329.35 17.80
7114 17.2100 263.26 288.56 15.16
7115 17.2120 267.53 261.47 15.39
7116 17.2140 257.84 245.63 15.00
7117 17.2160 247.63 236.87 14.71
7118 17.2180 244.25 231.34 14.47
7119 17.2200 200.27 226.62 13.25
7120 17.2220 196.76 222.21 13.20
7121 17.2240 169.76 219.07 12.31
7122 17.2260 200.33 218.49 13.23
7123 17.2280 222.02 221.23 13.80
7124 17.2300 217.50 226.73 13.87
7125 17.2320 223.19 232.61 14.06
7126 17.2340 214.52 234.66 13.74
7127 17.2360 187.80 228.88 12.87
7128 17.2380 167.79 214.51 12.04
7129 17.2400 148.25 194.67 11.48
7130 17.2420 145.76 173.63 11.32
7131 17.2440 136.69 154.23 11.06
7132 17.2460 127.56 137.82 10.58
7133 17.2480 122.44 124.69 10.29
7134 17.2500 95.01 114.62 9.16
7135 17.2520 97.80 107.20 9.34
7136 17.2540 110.86 102.00 9.97
7137 17.2560 94.03 98.67 9.05
7138 17.2580 100.49 96.93 9.33
7139 17.2600 113.74 96.65 10.04
7140 17.2620 106.66 97.86 9.75
7141 17.2640 97.17 100.69 9.31
7142 17.2660 100.74 105.40 9.43
7143 17.2680 131.89 112.28 10.70
7144 17.2700 156.95 121.60 11.79
7145 17.2720 144.99 133.47 11.42
7146 17.2740 178.86 147.45 12.63
7147 17.2760 211.53 162.13 13.62
7148 17.2780 190.27 174.96 12.85
7149 17.2800 182.04 183.15 12.69
7150 17.2820 174.35 185.77 12.50
7151 17.2840 157.61 183.91 11.88
7152 17.2860 170.86 178.93 12.23
7153 17.2880 164.00 172.04 11.95
7154 17.2900 135.00 164.42 10.90
7155 17.2920 134.26 155.51 10.96
7156 17.2940 139.77 144.00 11.15
7157 17.2960 129.66 131.05 10.67
7158 17.2980 139.72 119.48 10.95
7159 17.3000 112.67 110.83 9.98
7160 17.3020 103.55 105.12 9.63
7161 17.3040 100.72 101.54 9.44
7162 17.3060 102.75 99.05 9.53
7163 17.3080 104.29 97.16 9.49
7164 17.3100 101.51 96.01 9.50
7165 17.3120 97.78 95.83 9.33
7166 17.3140 99.56 96.68 9.45
7167 17.3160 102.34 98.58 9.46
7168 17.3180 114.84 101.64 9.96
7169 17.3200 110.10 106.25 9.86
7170 17.3220 125.55 113.07 10.59
7171 17.3240 135.49 123.22 10.99
7172 17.3260 176.56 137.97 12.42
7173 17.3280 185.98 158.15 12.68
7174 17.3300 211.67 182.24 13.66
7175 17.3320 211.70 202.95 13.77
7176 17.3340 248.23 208.95 14.80
7177 17.3360 211.60 196.16 13.67
7178 17.3380 174.41 171.96 12.22
7179 17.3400 170.31 146.43 12.24
7180 17.3420 135.80 125.23 11.01
7181 17.3440 128.20 109.45 10.64
7182 17.3460 120.14 98.39 10.36
7183 17.3480 91.98 90.85 8.92
7184 17.3500 97.01 85.80 9.26
7185 17.3520 88.30 82.43 8.89
7186 17.3540 88.41 80.15 8.90
7187 17.3560 104.48 78.57 9.57
7188 17.3580 91.16 77.35 8.90
7189 17.3600 84.36 76.25 8.65
7190 17.3620 87.10 75.05 8.86
7191 17.3640 78.86 73.65 8.37
7192 17.3660 78.87 72.10 8.38
7193 17.3680 65.70 70.48 7.53
7194 17.3700 93.66 68.89 9.09
7195 17.3720 79.29 67.39 8.40
7196 17.3740 69.48 66.20 7.90
7197 17.3760 72.86 65.02 8.00
7198 17.3780 67.06 64.00 7.60
7199 17.3800 57.02 63.14 7.11
7200 17.3820 60.15 62.41 7.33
7201 17.3840 56.82 61.79 7.16
7202 17.3860 57.02 61.28 7.07
7203 17.3880 51.64 60.85 6.72
7204 17.3900 60.59 60.48 7.32
7205 17.3920 58.52 60.17 7.25
7206 17.3940 54.16 61.40 6.98
7207 17.3960 55.73 61.19 7.00
7208 17.3980 67.82 61.00 7.69
7209 17.4000 58.56 60.84 7.17
7210 17.4020 69.06 60.70 7.88
7211 17.4040 48.53 60.57 6.61
7212 17.4060 57.55 60.46 7.16
7213 17.4080 54.55 60.36 6.88
7214 17.4100 62.27 60.28 7.43
7215 17.4120 50.07 60.20 6.68
7216 17.4140 60.15 60.14 7.35
7217 17.4160 63.58 60.08 7.50
7218 17.4180 63.48 60.03 7.42
7219 17.4200 51.63 59.75 6.76
7220 17.4220 60.28 59.72 7.34
7221 17.4240 61.52 59.70 7.44
7222 17.4260 54.15 59.68 6.94
7223 17.4280 58.05 59.63 7.11
7224 17.4300 68.58 59.63 7.75
7225 17.4320 73.91 59.63 8.14
7226 17.4340 60.32 59.64 7.38
7227 17.4360 52.06 59.63 6.81
7228 17.4380 60.55 59.71 7.23
7229 17.4400 57.64 59.74 7.15
7230 17.4420 57.18 59.78 7.14
7231 17.4440 54.22 59.83 7.00
7232 17.4460 54.25 59.89 6.95
7233 17.4480 63.55 59.96 7.40
7234 17.4500 56.13 60.03 7.07
7235 17.4520 55.67 60.12 7.05
7236 17.4540 58.03 60.22 7.24
7237 17.4560 61.62 60.33 7.39
7238 17.4580 64.80 60.45 7.50
7239 17.4600 53.13 60.58 6.83
7240 17.4620 65.71 60.73 7.67
7241 17.4640 51.21 60.88 6.77
7242 17.4660 58.42 60.99 7.19
7243 17.4680 54.85 61.15 6.93
7244 17.4700 47.33 61.29 6.46
7245 17.4720 56.04 61.43 7.07
7246 17.4740 74.74 61.54 8.18
7247 17.4760 70.10 61.64 7.89
7248 17.4780 68.67 61.72 7.69
7249 17.4800 56.59 61.78 7.06
7250 17.4820 61.98 61.83 7.42
7251 17.4840 50.11 61.88 6.73
7252 17.4860 55.12 61.93 6.96
7253 17.4880 59.08 61.99 7.18
7254 17.4900 54.04 62.06 6.91
7255 17.4920 56.64 62.15 7.10
7256 17.4940 61.55 62.25 7.44
7257 17.4960 73.32 62.37 8.06
7258 17.4980 62.69 62.50 7.36
7259 17.5000 51.23 62.65 6.69
7260 17.5020 65.55 62.91 7.64
7261 17.5040 62.37 63.10 7.45
7262 17.5060 65.86 63.31 7.67
7263 17.5080 59.30 63.54 7.18
7264 17.5100 61.95 63.79 7.39
7265 17.5120 45.92 64.05 6.39
7266 17.5140 71.01 64.45 7.94
7267 17.5160 61.07 64.77 7.36
7268 17.5180 57.58 65.12 7.05
7269 17.5200 66.05 65.50 7.60
7270 17.5220 55.53 65.91 7.04
7271 17.5240 70.96 66.35 7.93
7272 17.5260 72.44 66.81 8.02
7273 17.5280 56.38 67.34 6.98
7274 17.5300 52.69 67.95 6.81
7275 17.5320 59.70 68.65 7.32
7276 17.5340 81.95 69.46 8.52
7277 17.5360 70.66 70.41 7.90
7278 17.5380 71.11 71.54 7.86
7279 17.5400 74.19 72.80 8.06
7280 17.5420 74.13 74.46 8.13
7281 17.5440 76.40 76.45 8.26
7282 17.5460 63.60 78.83 7.54
7283 17.5480 66.91 81.63 7.59
7284 17.5500 85.91 84.81 8.67
7285 17.5520 84.47 88.16 8.65
7286 17.5540 72.00 91.58 8.05
7287 17.5560 84.54 94.58 8.61
7288 17.5580 88.53 96.61 8.75
7289 17.5600 75.87 97.39 8.13
7290 17.5620 99.21 97.09 9.40
7291 17.5640 97.11 96.23 9.22
7292 17.5660 89.65 95.33 8.95
7293 17.5680 93.82 94.76 9.00
7294 17.5700 104.64 94.73 9.56
7295 17.5720 102.31 95.36 9.48
7296 17.5740 93.40 96.69 9.12
7297 17.5760 94.91 98.71 9.14
7298 17.5780 98.86 101.59 9.23
7299 17.5800 106.86 105.36 9.67
7300 17.5820 125.73 110.15 10.54
7301 17.5840 102.07 116.20 9.52
7302 17.5860 136.06 123.86 10.97
7303 17.5880 141.44 133.68 11.05
7304 17.5900 175.21 146.46 12.34
7305 17.5920 195.45 163.36 13.16
7306 17.5940 218.83 185.86 13.97
7307 17.5960 235.40 215.82 14.42
7308 17.5980 286.60 254.56 15.78
7309 17.6000 315.13 300.37 16.57
7310 17.6020 378.03 345.27 18.29
7311 17.6040 391.36 378.71 18.58
7312 17.6060 420.02 401.45 19.37
7313 17.6080 422.19 427.12 19.19
7314 17.6100 512.47 463.67 21.21
7315 17.6120 517.81 501.62 21.39
7316 17.6140 543.37 522.19 22.06
7317 17.6160 540.49 525.26 22.04
7318 17.6180 529.03 532.87 21.53
7319 17.6200 533.30 563.56 21.60
7320 17.6220 605.21 621.93 23.29
7321 17.6240 716.43 699.47 25.39
7322 17.6260 854.76 772.45 27.74
7323 17.6280 915.10 805.15 28.35
7324 17.6300 824.45 774.58 26.92
7325 17.6320 708.31 693.18 25.09
7326 17.6340 601.45 594.22 23.17
7327 17.6360 536.97 503.31 21.97
7328 17.6380 504.55 431.64 21.00
7329 17.6400 482.68 381.51 20.58
7330 17.6420 424.49 351.98 19.40
7331 17.6440 432.17 341.11 19.55
7332 17.6460 412.77 347.17 19.24
7333 17.6480 449.07 368.69 19.72
7334 17.6500 424.29 404.34 19.32
7335 17.6520 461.48 451.99 20.26
7336 17.6540 508.25 507.41 21.31
7337 17.6560 533.23 562.63 21.76
7338 17.6580 594.79 605.13 22.70
7339 17.6600 745.00 621.55 25.47
7340 17.6620 736.65 605.84 25.59
7341 17.6640 672.48 563.70 24.51
7342 17.6660 535.39 507.55 21.86
7343 17.6680 415.77 449.20 19.03
7344 17.6700 391.07 394.61 18.44
7345 17.6720 353.41 348.56 17.67
7346 17.6740 329.76 312.41 17.11
7347 17.6760 303.58 284.31 16.35
7348 17.6780 240.26 259.23 14.45
7349 17.6800 231.26 233.10 14.22
7350 17.6820 221.52 206.63 13.93
7351 17.6840 184.16 182.87 12.77
7352 17.6860 175.58 163.54 12.48
7353 17.6880 139.48 148.55 10.98
7354 17.6900 175.89 137.16 12.38
7355 17.6920 120.28 128.56 10.26
7356 17.6940 129.03 122.11 10.69
7357 17.6960 112.19 117.32 9.95
7358 17.6980 132.38 113.90 10.68
7359 17.7000 143.45 111.67 11.18
7360 17.7020 100.50 110.57 9.40
7361 17.7040 117.75 110.70 10.18
7362 17.7060 127.33 112.26 10.67
7363 17.7080 114.42 115.69 9.96
7364 17.7100 128.04 121.68 10.55
7365 17.7120 137.93 131.33 11.02
7366 17.7140 159.65 146.02 11.97
7367 17.7160 194.53 167.26 13.12
7368 17.7180 203.40 195.16 13.26
7369 17.7200 250.43 225.87 14.83
7370 17.7220 291.61 251.44 16.04
7371 17.7240 301.15 265.74 16.33
7372 17.7260 321.83 265.57 17.01
7373 17.7280 268.64 246.77 15.29
7374 17.7300 237.13 213.87 14.38
7375 17.7320 175.10 179.15 12.48
7376 17.7340 156.08 150.28 11.77
7377 17.7360 138.25 128.67 11.13
7378 17.7380 118.24 113.32 10.11
7379 17.7400 106.00 102.61 9.65
7380 17.7420 99.45 95.09 9.38
7381 17.7440 89.32 89.68 8.87
7382 17.7460 86.74 85.64 8.80
7383 17.7480 68.11 82.52 7.69
7384 17.7500 79.89 80.03 8.33
7385 17.7520 73.74 77.99 8.06
7386 17.7540 60.65 76.30 7.35
7387 17.7560 60.63 74.87 7.34
7388 17.7580 68.91 73.66 7.71
7389 17.7600 73.26 72.61 7.97
7390 17.7620 88.27 71.71 8.82
7391 17.7640 71.52 70.91 7.94
7392 17.7660 61.34 70.21 7.42
7393 17.7680 64.61 69.59 7.49
7394 17.7700 67.37 69.04 7.65
7395 17.7720 65.46 68.55 7.59
7396 17.7740 66.73 68.11 7.68
7397 17.7760 55.60 67.71 7.05
7398 17.7780 83.50 67.35 8.50
7399 17.7800 69.33 67.02 7.76
7400 17.7820 76.40 66.73 8.23
7401 17.7840 59.27 66.46 7.24
7402 17.7860 65.87 66.24 7.67
7403 17.7880 51.91 66.02 6.71
7404 17.7900 73.51 65.82 8.03
7405 17.7920 60.62 65.64 7.31
7406 17.7940 63.54 65.48 7.49
7407 17.7960 85.29 65.34 8.73
7408 17.7980 59.28 65.21 7.19
7409 17.8000 56.73 65.09 7.00
7410 17.8020 66.84 64.99 7.69
7411 17.8040 62.71 64.90 7.44
7412 17.8060 72.07 64.81 8.02
7413 17.8080 59.82 64.75 7.23
7414 17.8100 55.32 64.69 6.94
7415 17.8120 62.87 64.65 7.44
7416 17.8140 61.03 64.62 7.36
7417 17.8160 74.64 64.60 8.17
7418 17.8180 60.25 64.59 7.24
7419 17.8200 55.96 64.59 6.95
7420 17.8220 60.62 64.61 7.36
7421 17.8240 65.73 64.63 7.62
7422 17.8260 67.56 64.78 7.81
7423 17.8280 52.85 64.83 6.80
7424 17.8300 65.94 64.89 7.59
7425 17.8320 58.52 64.97 7.22
7426 17.8340 63.18 64.85 7.49
7427 17.8360 73.36 64.80 8.09
7428 17.8380 51.43 64.93 6.70
7429 17.8400 69.96 65.06 7.82
7430 17.8420 49.59 65.22 6.62
7431 17.8440 60.38 65.39 7.29
7432 17.8460 58.72 65.58 7.29
7433 17.8480 59.94 65.79 7.21
7434 17.8500 60.86 66.03 7.30
7435 17.8520 71.37 66.29 7.94
7436 17.8540 74.28 66.57 8.11
7437 17.8560 65.82 66.89 7.67
7438 17.8580 71.58 67.23 7.87
7439 17.8600 64.42 67.62 7.51
7440 17.8620 76.32 68.04 8.21
7441 17.8640 74.62 68.51 8.15
7442 17.8660 68.23 69.03 7.82
7443 17.8680 78.78 69.61 8.29
7444 17.8700 79.84 70.26 8.33
7445 17.8720 83.18 70.98 8.60
7446 17.8740 74.25 71.79 8.10
7447 17.8760 74.27 72.71 8.14
7448 17.8780 64.21 73.74 7.44
7449 17.8800 76.82 74.91 8.20
7450 17.8820 86.13 76.26 8.74
7451 17.8840 80.14 77.79 8.41
7452 17.8860 89.40 79.57 8.98
7453 17.8880 87.62 81.64 8.69
7454 17.8900 80.55 84.08 8.40
7455 17.8920 109.61 86.96 9.86
7456 17.8940 94.05 90.40 9.12
7457 17.8960 123.09 94.59 10.43
7458 17.8980 115.35 99.22 10.05
7459 17.9000 122.08 105.75 10.31
7460 17.9020 119.99 114.17 10.28
7461 17.9040 132.50 125.23 10.79
7462 17.9060 161.61 140.07 12.00
7463 17.9080 180.98 160.11 12.51
7464 17.9100 185.58 187.07 12.63
7465 17.9120 213.68 222.64 13.71
7466 17.9140 265.86 267.59 15.29
7467 17.9160 323.42 319.12 16.97
7468 17.9180 349.25 366.92 17.37
7469 17.9200 375.30 393.40 18.08
7470 17.9220 412.62 387.01 19.05
7471 17.9240 363.93 356.25 17.95
7472 17.9260 334.70 320.29 17.26
7473 17.9280 318.93 292.75 16.72
7474 17.9300 294.20 279.02 15.96
7475 17.9320 299.35 279.88 16.25
7476 17.9340 285.93 294.02 15.90
7477 17.9360 303.62 318.22 16.43
7478 17.9380 341.09 346.18 17.18
7479 17.9400 395.41 367.18 18.67
7480 17.9420 401.50 369.75 18.78
7481 17.9440 395.46 349.52 18.66
7482 17.9460 364.81 312.92 18.05
7483 17.9480 297.68 270.80 16.06
7484 17.9500 225.59 231.15 14.01
7485 17.9520 197.02 197.37 13.16
7486 17.9540 159.44 170.27 11.87
7487 17.9560 148.78 149.31 11.49
7488 17.9580 129.83 133.50 10.58
7489 17.9600 148.33 121.80 11.38
7490 17.9620 115.19 113.24 10.08
7491 17.9640 122.88 107.04 10.42
7492 17.9660 99.83 102.56 9.43
7493 17.9680 110.82 99.41 9.81
7494 17.9700 87.80 97.23 8.74
7495 17.9720 83.24 95.73 8.57
7496 17.9740 94.73 94.68 9.19
7497 17.9760 84.47 93.93 8.64
7498 17.9780 90.46 93.44 8.91
7499 17.9800 93.74 93.26 9.01
7500 17.9820 88.76 93.57 8.86
7501 17.9840 81.86 94.12 8.55
7502 17.9860 103.72 94.51 9.64
7503 17.9880 78.28 95.20 8.28
7504 17.9900 95.31 95.41 9.15
7505 17.9920 96.28 94.83 9.22
7506 17.9940 70.22 93.36 7.89
7507 17.9960 93.36 91.21 9.12
7508 17.9980 84.56 88.73 8.58
7509 18.0000 86.99 86.28 8.70
7510 18.0020 64.63 84.13 7.60
7511 18.0040 71.05 82.44 7.93
7512 18.0060 79.93 81.29 8.47
7513 18.0080 75.87 81.39 8.09
7514 18.0100 85.09 81.15 8.63
7515 18.0120 81.30 80.97 8.50
7516 18.0140 77.11 80.41 8.29
7517 18.0160 80.37 79.25 8.44
7518 18.0180 66.63 77.66 7.61
7519 18.0200 81.71 76.01 8.51
7520 18.0220 80.90 74.56 8.45
7521 18.0240 72.33 73.43 8.01
7522 18.0260 73.51 72.63 8.11
7523 18.0280 82.14 72.13 8.42
7524 18.0300 68.85 71.91 7.77
7525 18.0320 69.48 71.96 7.88
7526 18.0340 64.80 72.27 7.56
7527 18.0360 84.81 72.88 8.70
7528 18.0380 73.51 73.85 8.04
7529 18.0400 63.97 75.27 7.49
7530 18.0420 85.34 77.27 8.67
7531 18.0440 71.72 80.00 8.01
7532 18.0460 85.94 83.60 8.77
7533 18.0480 82.25 88.14 8.48
7534 18.0500 101.77 93.41 9.36
7535 18.0520 92.71 98.68 9.08
7536 18.0540 93.45 102.49 9.16
7537 18.0560 95.12 103.43 9.22
7538 18.0580 105.78 101.49 9.57
7539 18.0600 90.38 98.17 8.89
7540 18.0620 97.42 95.06 9.27
7541 18.0640 78.56 93.12 8.32
7542 18.0660 100.79 92.80 9.50
7543 18.0680 86.60 94.37 8.67
7544 18.0700 108.30 98.11 9.70
7545 18.0720 106.94 104.31 9.76
7546 18.0740 130.23 113.28 10.71
7547 18.0760 141.48 125.01 11.20
7548 18.0780 129.77 138.59 10.61
7549 18.0800 165.16 151.67 11.99
7550 18.0820 188.89 160.90 12.92
7551 18.0840 177.31 163.85 12.47
7552 18.0860 146.14 159.89 11.42
7553 18.0880 143.87 150.56 11.17
7554 18.0900 129.22 138.95 10.60
7555 18.0920 124.89 127.61 10.47
7556 18.0940 126.16 119.14 10.59
7557 18.0960 119.89 110.54 10.33
7558 18.0980 99.31 103.25 9.28
7559 18.1000 99.95 97.23 9.32
7560 18.1020 102.36 92.44 9.52
7561 18.1040 92.07 88.77 9.01
7562 18.1060 81.14 86.12 8.46
7563 18.1080 91.87 84.30 8.91
7564 18.1100 82.88 83.15 8.52
7565 18.1120 70.35 82.42 7.86
7566 18.1140 98.70 81.82 9.32
7567 18.1160 89.23 81.04 8.90
7568 18.1180 82.24 79.89 8.40
7569 18.1200 72.89 78.44 7.94
7570 18.1220 89.00 76.87 8.86
7571 18.1240 72.13 75.35 7.98
7572 18.1260 69.45 73.99 7.88
7573 18.1280 80.36 74.29 8.29
7574 18.1300 82.86 73.38 8.49
7575 18.1320 75.93 72.66 8.14
7576 18.1340 79.39 72.10 8.34
7577 18.1360 83.60 71.69 8.60
7578 18.1380 71.67 72.73 7.89
7579 18.1400 68.70 72.54 7.69
7580 18.1420 68.95 72.43 7.80
7581 18.1440 74.33 72.38 8.10
7582 18.1460 75.36 72.38 8.21
7583 18.1480 70.53 72.41 7.78
7584 18.1500 70.22 72.53 7.83
7585 18.1520 69.57 72.64 7.82
7586 18.1540 64.65 72.78 7.55
7587 18.1560 79.30 72.95 8.40
7588 18.1580 66.17 73.16 7.55
7589 18.1600 73.10 73.40 7.97
7590 18.1620 67.19 73.67 7.68
7591 18.1640 74.87 73.98 8.15
7592 18.1660 57.12 74.32 7.12
7593 18.1680 69.22 74.71 7.75
7594 18.1700 63.84 75.15 7.45
7595 18.1720 70.41 75.64 7.91
7596 18.1740 81.26 75.94 8.48
7597 18.1760 81.84 78.27 8.50
7598 18.1780 86.26 79.04 8.63
7599 18.1800 92.93 79.92 9.02
7600 18.1820 80.46 80.96 8.42
7601 18.1840 92.83 82.20 9.06
7602 18.1860 96.88 83.73 9.31
7603 18.1880 81.43 85.66 8.41
7604 18.1900 82.82 88.16 8.47
7605 18.1920 107.97 91.49 9.74
7606 18.1940 94.55 96.01 9.13
7607 18.1960 96.09 102.14 9.26
7608 18.1980 107.79 110.19 9.63
7609 18.2000 117.29 119.61 10.11
7610 18.2020 134.53 127.79 10.89
7611 18.2040 115.74 130.33 10.10
7612 18.2060 121.60 125.85 10.38
7613 18.2080 122.30 117.97 10.30
7614 18.2100 103.11 110.52 9.49
7615 18.2120 107.59 104.91 9.74
7616 18.2140 86.08 101.13 8.77
7617 18.2160 91.44 98.81 8.99
7618 18.2180 89.37 97.49 8.78
7619 18.2200 100.16 96.90 9.34
7620 18.2220 95.75 96.84 9.19
7621 18.2240 92.12 97.17 9.01
7622 18.2260 89.99 97.81 8.93
7623 18.2280 99.74 98.71 9.31
7624 18.2300 96.23 99.83 9.15
7625 18.2320 96.83 101.16 9.30
7626 18.2340 88.98 102.47 8.86
7627 18.2360 108.87 104.21 9.84
7628 18.2380 104.52 106.16 9.50
7629 18.2400 97.79 108.32 9.22
7630 18.2420 98.94 110.72 9.37
7631 18.2440 94.42 113.38 9.12
7632 18.2460 122.61 116.32 10.41
7633 18.2480 108.37 119.58 9.66
7634 18.2500 131.55 123.21 10.75
7635 18.2520 130.09 127.23 10.75
7636 18.2540 127.01 131.74 10.60
7637 18.2560 145.26 136.78 11.42
7638 18.2580 149.05 142.46 11.33
7639 18.2600 160.75 148.91 11.82
7640 18.2620 179.49 156.24 12.61
7641 18.2640 177.18 164.66 12.57
7642 18.2660 177.65 174.41 12.56
7643 18.2680 200.56 185.82 13.23
7644 18.2700 218.93 199.27 13.89
7645 18.2720 215.28 215.40 13.84
7646 18.2740 237.18 234.99 14.49
7647 18.2760 288.90 259.45 16.05
7648 18.2780 271.84 289.66 15.32
7649 18.2800 343.33 327.99 17.27
7650 18.2820 351.26 377.11 17.67
7651 18.2840 452.16 440.05 20.03
7652 18.2860 556.92 520.24 22.26
7653 18.2880 634.55 620.86 23.53
7654 18.2900 794.33 743.44 26.38
7655 18.2920 963.42 886.87 29.44
7656 18.2940 1221.36 1042.16 33.22
7657 18.2960 1397.25 1190.50 35.41
7658 18.2980 1412.95 1298.12 35.34
7659 18.3000 1314.91 1345.66 33.97
7660 18.3020 1334.52 1346.14 34.51
7661 18.3040 1257.41 1342.48 33.55
7662 18.3060 1340.50 1381.50 34.85
7663 18.3080 1519.36 1495.81 36.56
7664 18.3100 1836.69 1688.03 40.35
7665 18.3120 2107.04 1894.32 43.77
7666 18.3140 2143.37 1968.30 44.22
7667 18.3160 1793.96 1813.00 40.30
7668 18.3180 1388.03 1514.93 34.85
7669 18.3200 1179.63 1216.18 32.31
7670 18.3220 1038.61 982.32 30.42
7671 18.3240 874.66 816.58 27.88
7672 18.3260 766.80 705.14 26.14
7673 18.3280 748.81 634.01 25.61
7674 18.3300 682.43 593.19 24.38
7675 18.3320 672.61 576.95 24.37
7676 18.3340 731.35 583.01 25.60
7677 18.3360 776.23 612.15 26.37
7678 18.3380 765.23 668.61 25.72
7679 18.3400 857.81 760.38 27.41
7680 18.3420 1013.14 899.57 30.08
7681 18.3440 1166.78 1103.30 32.34
7682 18.3460 1444.68 1387.96 36.05
7683 18.3480 1902.77 1754.96 41.21
7684 18.3500 2324.03 2152.21 45.62
7685 18.3520 2750.85 2460.64 49.79
7686 18.3540 2648.88 2599.77 49.36
7687 18.3560 2679.59 2627.66 49.60
7688 18.3580 2806.53 2598.98 49.96
7689 18.3600 2758.54 2446.84 49.66
7690 18.3620 2271.20 2123.13 45.39
7691 18.3640 1762.83 1717.82 39.90
7692 18.3660 1355.84 1345.42 34.87
7693 18.3680 1066.50 1052.51 30.53
7694 18.3700 891.16 840.07 27.96
7695 18.3720 754.02 691.47 25.73
7696 18.3740 701.02 587.91 25.01
7697 18.3760 563.09 512.09 22.30
7698 18.3780 533.45 453.89 21.55
7699 18.3800 456.99 410.35 19.79
7700 18.3820 437.25 380.67 19.59
7701 18.3840 396.36 364.24 18.66
7702 18.3860 384.06 360.38 18.37
7703 18.3880 435.82 367.67 19.37
7704 18.3900 463.23 381.53 20.12
7705 18.3920 454.79 390.99 19.97
7706 18.3940 463.98 383.57 20.30
7707 18.3960 422.14 359.79 19.29
7708 18.3980 359.15 331.86 17.62
7709 18.4000 351.04 309.01 17.43
7710 18.4020 371.49 294.11 18.04
7711 18.4040 336.35 286.75 17.31
7712 18.4060 351.71 285.58 17.63
7713 18.4080 348.95 289.10 17.33
7714 18.4100 340.40 296.03 17.09
7715 18.4120 333.53 305.39 17.11
7716 18.4140 317.19 316.72 16.73
7717 18.4160 325.34 329.91 16.85
7718 18.4180 323.06 345.21 16.66
7719 18.4200 322.25 364.14 16.73
7720 18.4220 322.03 384.62 16.74
7721 18.4240 327.88 407.95 17.01
7722 18.4260 388.48 433.75 18.46
7723 18.4280 364.41 461.48 17.79
7724 18.4300 412.75 489.99 18.79
7725 18.4320 442.30 517.66 19.72
7726 18.4340 461.92 542.71 20.40
7727 18.4360 559.36 563.32 22.14
7728 18.4380 563.82 578.07 21.94
7729 18.4400 575.50 586.06 22.47
7730 18.4420 625.37 586.96 23.36
7731 18.4440 614.32 580.71 23.26
7732 18.4460 649.03 567.54 23.89
7733 18.4480 584.88 547.91 22.65
7734 18.4500 539.58 522.69 21.49
7735 18.4520 596.97 493.08 22.90
7736 18.4540 570.77 460.69 22.59
7737 18.4560 513.68 426.95 21.18
7738 18.4580 453.32 393.33 19.73
7739 18.4600 448.75 360.96 19.88
7740 18.4620 367.89 330.53 17.92
7741 18.4640 355.83 302.63 17.72
7742 18.4660 297.80 277.48 16.16
7743 18.4680 295.72 255.25 16.03
7744 18.4700 227.26 235.90 14.02
7745 18.4720 212.19 219.33 13.60
7746 18.4740 223.71 205.43 14.13
7747 18.4760 213.93 194.00 13.72
7748 18.4780 198.45 184.89 13.05
7749 18.4800 180.00 177.93 12.48
7750 18.4820 170.43 172.96 12.30
7751 18.4840 160.41 169.89 11.93
7752 18.4860 178.00 168.62 12.47
7753 18.4880 178.23 169.06 12.50
7754 18.4900 175.23 171.18 12.44
7755 18.4920 182.71 174.89 12.72
7756 18.4940 166.07 180.10 12.13
7757 18.4960 182.13 186.67 12.74
7758 18.4980 185.03 194.33 12.64
7759 18.5000 197.80 202.68 13.13
7760 18.5020 183.26 211.15 12.69
7761 18.5040 198.68 219.06 13.30
7762 18.5060 236.41 225.68 14.43
7763 18.5080 223.61 230.56 13.87
7764 18.5100 225.92 233.59 14.08
7765 18.5120 211.80 234.99 13.74
7766 18.5140 228.70 235.27 14.14
7767 18.5160 240.88 234.98 14.58
7768 18.5180 219.57 234.57 13.81
7769 18.5200 227.18 234.36 14.16
7770 18.5220 225.38 234.42 14.09
7771 18.5240 230.57 234.75 14.30
7772 18.5260 219.98 235.30 14.01
7773 18.5280 236.70 236.17 14.30
7774 18.5300 247.86 237.61 14.78
7775 18.5320 284.92 240.02 16.01
7776 18.5340 287.26 243.91 15.90
7777 18.5360 285.86 248.28 15.90
7778 18.5380 276.78 256.80 15.47
7779 18.5400 307.51 268.54 16.53
7780 18.5420 337.87 284.17 17.30
7781 18.5440 357.25 304.16 17.79
7782 18.5460 343.32 328.92 17.53
7783 18.5480 362.67 359.18 17.77
7784 18.5500 367.02 396.00 18.09
7785 18.5520 413.88 439.70 19.38
7786 18.5540 458.52 487.40 20.21
7787 18.5560 511.18 531.59 21.33
7788 18.5580 619.10 563.29 23.21
7789 18.5600 615.80 579.27 23.40
7790 18.5620 669.61 582.46 24.59
7791 18.5640 683.93 576.35 24.85
7792 18.5660 667.15 564.27 24.41
7793 18.5680 632.60 552.93 23.58
7794 18.5700 604.48 551.71 23.17
7795 18.5720 647.96 569.06 24.14
7796 18.5740 626.87 611.35 23.67
7797 18.5760 678.46 683.14 24.65
7798 18.5780 775.96 785.84 26.11
7799 18.5800 838.57 922.80 27.13
7800 18.5820 966.32 1085.41 29.52
7801 18.5840 1113.42 1251.91 31.70
7802 18.5860 1348.27 1386.23 34.80
7803 18.5880 1547.26 1446.00 37.17
7804 18.5900 1649.71 1419.35 38.64
7805 18.5920 1423.70 1335.99 35.98
7806 18.5940 1239.52 1240.83 33.51
7807 18.5960 1128.87 1161.60 31.93
7808 18.5980 996.82 1104.65 29.59
7809 18.6000 1030.19 1059.92 30.17
7810 18.6020 1006.98 1009.56 30.15
7811 18.6040 1035.59 939.12 30.70
7812 18.6060 972.04 847.43 29.50
7813 18.6080 829.23 744.02 26.98
7814 18.6100 657.80 641.44 24.05
7815 18.6120 553.05 547.88 22.29
7816 18.6140 460.43 467.25 20.17
7817 18.6160 373.10 400.29 18.20
7818 18.6180 302.57 346.02 16.20
7819 18.6200 277.82 302.90 15.60
7820 18.6220 264.06 269.11 15.29
7821 18.6240 224.44 243.03 14.13
7822 18.6260 192.39 223.08 13.08
7823 18.6280 180.83 208.20 12.51
7824 18.6300 202.50 197.63 13.31
7825 18.6320 169.63 190.85 12.24
7826 18.6340 150.72 187.53 11.57
7827 18.6360 171.08 187.05 12.29
7828 18.6380 195.70 187.66 13.00
7829 18.6400 192.12 186.00 12.91
7830 18.6420 169.54 179.23 12.21
7831 18.6440 138.27 168.52 11.09
7832 18.6460 121.51 157.22 10.41
7833 18.6480 114.35 147.45 9.97
7834 18.6500 120.08 139.71 10.21
7835 18.6520 118.98 133.77 10.26
7836 18.6540 100.39 129.30 9.44
7837 18.6560 103.84 125.93 9.59
7838 18.6580 107.10 123.36 9.58
7839 18.6600 107.15 121.40 9.67
7840 18.6620 98.46 119.91 9.26
7841 18.6640 120.81 118.78 10.30
7842 18.6660 102.80 118.02 9.56
7843 18.6680 93.74 117.57 9.05
7844 18.6700 97.37 117.41 9.20
7845 18.6720 92.49 117.54 9.02
7846 18.6740 97.86 117.94 9.35
7847 18.6760 93.26 118.63 9.11
7848 18.6780 108.76 119.62 9.69
7849 18.6800 98.32 120.93 9.25
7850 18.6820 104.76 122.57 9.60
7851 18.6840 118.14 124.59 10.20
7852 18.6860 93.75 127.04 9.16
7853 18.6880 99.18 129.99 9.27
7854 18.6900 123.81 133.53 10.35
7855 18.6920 139.48 137.80 11.08
7856 18.6940 125.96 142.96 10.55
7857 18.6960 137.77 149.26 11.08
7858 18.6980 134.34 157.03 10.77
7859 18.7000 156.95 166.66 11.70
7860 18.7020 149.94 178.72 11.44
7861 18.7040 182.85 193.80 12.78
7862 18.7060 205.52 212.72 13.50
7863 18.7080 230.40 236.29 14.14
7864 18.7100 250.52 265.36 14.76
7865 18.7120 278.57 300.90 15.68
7866 18.7140 292.15 343.58 16.11
7867 18.7160 359.02 393.96 17.85
7868 18.7180 420.76 452.23 19.10
7869 18.7200 509.25 517.87 21.09
7870 18.7220 614.91 589.72 23.17
7871 18.7240 771.99 665.07 26.21
7872 18.7260 960.49 739.99 29.47
7873 18.7280 1007.26 808.10 29.64
7874 18.7300 1050.86 861.60 30.29
7875 18.7320 957.43 892.84 29.25
7876 18.7340 825.28 895.75 27.16
7877 18.7360 714.82 870.07 25.19
7878 18.7380 602.90 820.35 22.94
7879 18.7400 569.86 754.18 22.30
7880 18.7420 514.64 679.81 21.19
7881 18.7440 485.46 603.59 20.75
7882 18.7460 422.62 530.26 19.48
7883 18.7480 379.59 462.77 18.12
7884 18.7500 387.71 402.39 18.31
7885 18.7520 317.23 349.87 16.71
7886 18.7540 323.07 305.06 16.95
7887 18.7560 314.92 267.62 16.71
7888 18.7580 294.33 236.70 15.97
7889 18.7600 254.16 211.51 14.91
7890 18.7620 251.33 191.18 14.86
7891 18.7640 247.07 174.78 14.76
7892 18.7660 210.10 161.59 13.75
7893 18.7680 196.27 150.91 13.03
7894 18.7700 200.78 142.20 13.16
7895 18.7720 177.90 135.00 12.51
7896 18.7740 169.12 128.97 12.27
7897 18.7760 185.37 123.88 12.84
7898 18.7780 165.94 119.52 11.96
7899 18.7800 144.26 115.75 11.21
7900 18.7820 131.52 112.47 10.78
7901 18.7840 140.46 109.61 11.12
7902 18.7860 131.14 107.13 10.79
7903 18.7880 130.60 104.98 10.66
7904 18.7900 120.54 103.14 10.24
7905 18.7920 137.72 101.61 10.98
7906 18.7940 117.24 100.39 10.20
7907 18.7960 125.73 99.46 10.57
7908 18.7980 132.00 98.84 10.67
7909 18.8000 125.56 98.54 10.47
7910 18.8020 114.79 98.57 9.97
7911 18.8040 115.74 98.93 10.14
7912 18.8060 124.40 99.61 10.50
7913 18.8080 118.29 100.62 10.15
7914 18.8100 113.73 101.91 9.90
7915 18.8120 109.96 103.44 9.84
7916 18.8140 119.49 105.11 10.26
7917 18.8160 105.27 106.82 9.68
7918 18.8180 99.10 108.38 9.24
7919 18.8200 107.40 109.58 9.65
7920 18.8220 109.68 110.21 9.74
7921 18.8240 119.24 110.09 10.30
7922 18.8260 139.64 109.16 11.17
7923 18.8280 107.00 107.49 9.59
7924 18.8300 130.07 105.25 10.62
7925 18.8320 130.36 102.64 10.70
7926 18.8340 102.38 99.90 9.52
7927 18.8360 112.02 97.17 9.91
7928 18.8380 97.53 94.57 9.21
7929 18.8400 102.34 92.19 9.42
7930 18.8420 99.80 89.89 9.33
7931 18.8440 109.06 88.03 9.82
7932 18.8460 90.66 86.42 9.02
7933 18.8480 94.91 85.03 9.06
7934 18.8500 89.25 83.82 8.76
7935 18.8520 92.01 82.75 8.97
7936 18.8540 74.91 81.78 8.17
7937 18.8560 82.81 80.88 8.54
7938 18.8580 81.84 80.02 8.42
7939 18.8600 73.16 79.19 7.97
7940 18.8620 86.48 78.36 8.65
7941 18.8640 84.96 77.45 8.66
7942 18.8660 77.66 76.73 8.32
7943 18.8680 99.09 76.06 9.28
7944 18.8700 74.32 75.45 8.03
7945 18.8720 79.92 74.91 8.38
7946 18.8740 85.68 74.42 8.73
7947 18.8760 92.91 73.98 9.07
7948 18.8780 79.46 73.56 8.26
7949 18.8800 93.94 73.19 9.07
7950 18.8820 64.41 71.97 7.50
7951 18.8840 73.03 71.71 8.06
7952 18.8860 94.55 71.48 9.17
7953 18.8880 73.58 71.27 8.02
7954 18.8900 68.93 71.23 7.74
7955 18.8920 80.90 71.07 8.43
7956 18.8940 90.94 70.93 8.99
7957 18.8960 88.35 70.79 8.84
7958 18.8980 70.54 70.68 7.82
7959 18.9000 78.15 70.57 8.23
7960 18.9020 86.22 70.59 8.71
7961 18.9040 78.91 70.51 8.33
7962 18.9060 75.30 70.44 8.15
7963 18.9080 78.95 70.37 8.29
7964 18.9100 65.79 70.32 7.54
7965 18.9120 71.17 70.27 7.90
7966 18.9140 79.89 70.23 8.39
7967 18.9160 70.67 70.20 7.91
7968 18.9180 74.77 70.18 8.04
7969 18.9200 67.40 70.17 7.64
7970 18.9220 70.08 70.16 7.82
7971 18.9240 64.69 70.17 7.58
7972 18.9260 69.89 70.19 7.85
7973 18.9280 74.14 70.22 8.02
7974 18.9300 91.36 70.25 8.93
7975 18.9320 74.42 70.30 8.10
7976 18.9340 72.41 70.37 7.95
7977 18.9360 66.36 70.44 7.68
7978 18.9380 78.43 70.08 8.27
7979 18.9400 71.52 70.22 7.87
7980 18.9420 98.91 70.35 9.31
7981 18.9440 75.56 70.47 8.21
7982 18.9460 75.28 70.65 8.20
7983 18.9480 68.43 70.86 7.68
7984 18.9500 60.88 71.10 7.27
7985 18.9520 72.82 71.39 8.06
7986 18.9540 72.72 71.73 8.03
7987 18.9560 102.63 72.15 9.49
7988 18.9580 73.73 72.65 8.03
7989 18.9600 70.44 73.12 7.81
7990 18.9620 61.22 73.85 7.33
7991 18.9640 68.10 74.70 7.80
7992 18.9660 79.96 75.70 8.45
7993 18.9680 73.47 76.81 7.97
7994 18.9700 94.13 78.00 9.03
7995 18.9720 87.73 79.22 8.80
7996 18.9740 83.01 80.27 8.59
7997 18.9760 95.92 81.07 9.20
7998 18.9780 86.91 81.75 8.67
7999 18.9800 83.31 82.17 8.51
8000 18.9820 85.30 82.65 8.63
8001 18.9840 95.43 83.35 9.24
8002 18.9860 83.03 84.46 8.59
8003 18.9880 78.89 86.13 8.27
8004 18.9900 106.16 88.51 9.59
8005 18.9920 104.95 91.80 9.63
8006 18.9940 103.40 96.19 9.60
8007 18.9960 108.25 101.81 9.76
8008 18.9980 119.88 108.58 10.19
8009 19.0000 130.58 115.97 10.68
8010 19.0020 133.14 122.76 10.79
8011 19.0040 142.71 127.68 11.22
8012 19.0060 136.10 130.73 11.02
8013 19.0080 146.73 133.29 11.34
8014 19.0100 142.79 136.82 11.15
8015 19.0120 143.23 142.02 11.23
8016 19.0140 151.56 148.86 11.57
8017 19.0160 171.42 156.74 12.30
8018 19.0180 171.16 164.55 12.13
8019 19.0200 183.71 171.71 12.58
8020 19.0220 178.32 177.76 12.47
8021 19.0240 184.74 183.38 12.80
8022 19.0260 179.90 189.83 12.62
8023 19.0280 177.38 198.21 12.42
8024 19.0300 192.94 208.52 12.93
8025 19.0320 260.58 218.95 15.15
8026 19.0340 244.59 225.58 14.74
8027 19.0360 206.42 224.07 13.50
8028 19.0380 176.36 213.96 12.39
8029 19.0400 182.55 196.06 12.57
8030 19.0420 137.43 175.86 10.99
8031 19.0440 144.87 156.82 11.28
8032 19.0460 166.12 140.45 12.15
8033 19.0480 122.71 127.12 10.32
8034 19.0500 123.23 116.72 10.34
8035 19.0520 121.72 108.75 10.35
8036 19.0540 111.70 102.76 9.93
8037 19.0560 116.50 98.30 10.16
8038 19.0580 111.39 95.00 9.78
8039 19.0600 104.39 92.55 9.50
8040 19.0620 100.98 90.76 9.38
8041 19.0640 111.30 89.48 9.90
8042 19.0660 105.33 88.60 9.64
8043 19.0680 99.35 88.06 9.23
8044 19.0700 89.16 87.85 8.78
8045 19.0720 94.34 87.94 9.14
8046 19.0740 84.78 88.34 8.61
8047 19.0760 115.26 89.09 10.06
8048 19.0780 111.13 90.21 9.80
8049 19.0800 85.19 91.77 8.58
8050 19.0820 102.60 93.84 9.48
8051 19.0840 99.25 96.78 9.36
8052 19.0860 103.37 100.12 9.58
8053 19.0880 106.56 104.23 9.53
8054 19.0900 111.49 109.19 9.84
8055 19.0920 112.57 115.07 9.94
8056 19.0940 126.63 121.91 10.58
8057 19.0960 124.41 129.68 10.47
8058 19.0980 134.71 138.30 10.79
8059 19.1000 145.68 147.62 11.24
8060 19.1020 168.02 157.46 12.12
8061 19.1040 182.37 167.82 12.67
8062 19.1060 180.72 179.00 12.60
8063 19.1080 219.50 191.77 13.74
8064 19.1100 212.04 207.39 13.50
8065 19.1120 228.96 227.71 14.11
8066 19.1140 237.25 254.87 14.55
8067 19.1160 268.32 293.47 15.29
8068 19.1180 306.18 337.10 16.16
8069 19.1200 389.39 380.76 18.39
8070 19.1220 449.19 408.29 19.80
8071 19.1240 427.21 404.76 19.42
8072 19.1260 406.18 369.22 18.98
8073 19.1280 328.15 315.78 16.82
8074 19.1300 260.97 262.01 15.03
8075 19.1320 226.00 217.17 14.00
8076 19.1340 189.27 183.19 12.97
8077 19.1360 150.52 158.58 11.52
8078 19.1380 140.10 141.14 10.93
8079 19.1400 119.42 128.84 10.17
8080 19.1420 125.29 120.11 10.47
8081 19.1440 111.91 113.81 9.93
8082 19.1460 104.90 109.19 9.57
8083 19.1480 95.66 105.73 9.10
8084 19.1500 109.26 103.09 9.74
8085 19.1520 102.55 101.06 9.43
8086 19.1540 85.93 99.57 8.74
8087 19.1560 94.98 98.61 9.13
8088 19.1580 97.21 98.17 9.09
8089 19.1600 92.76 98.22 8.97
8090 19.1620 102.53 98.72 9.44
8091 19.1640 107.30 99.61 9.75
8092 19.1660 92.52 100.73 9.04
8093 19.1680 105.42 101.87 9.54
8094 19.1700 106.37 102.71 9.63
8095 19.1720 96.48 103.06 9.17
8096 19.1740 98.92 102.89 9.33
8097 19.1760 106.01 102.31 9.64
8098 19.1780 117.44 101.50 10.06
8099 19.1800 115.05 100.68 9.96
8100 19.1820 123.02 100.03 10.29
8101 19.1840 94.18 99.69 9.19
8102 19.1860 103.04 99.26 9.50
8103 19.1880 98.71 99.86 9.22
8104 19.1900 92.76 101.01 8.99
8105 19.1920 93.72 102.78 9.06
8106 19.1940 105.42 105.22 9.62
8107 19.1960 121.99 108.39 10.36
8108 19.1980 129.60 112.33 10.60
8109 19.2000 124.33 117.00 10.36
8110 19.2020 132.43 122.34 10.74
8111 19.2040 141.20 128.26 11.18
8112 19.2060 156.12 134.81 11.68
8113 19.2080 154.65 141.92 11.51
8114 19.2100 189.44 149.35 12.90
8115 19.2120 217.32 156.65 13.79
8116 19.2140 193.84 163.48 13.07
8117 19.2160 234.49 169.71 14.36
8118 19.2180 219.40 174.86 13.75
8119 19.2200 222.00 177.99 13.94
8120 19.2220 207.59 178.16 13.50
8121 19.2240 155.04 174.98 11.73
8122 19.2260 141.80 168.90 11.16
8123 19.2280 157.46 161.00 11.69
8124 19.2300 147.29 152.38 11.36
8125 19.2320 129.29 143.95 10.70
8126 19.2340 152.51 136.26 11.61
8127 19.2360 107.80 129.59 9.74
8128 19.2380 124.03 124.06 10.27
8129 19.2400 124.09 119.66 10.47
8130 19.2420 143.99 116.32 11.24
8131 19.2440 111.23 113.93 10.00
8132 19.2460 116.74 112.39 10.12
8133 19.2480 132.64 111.56 10.73
8134 19.2500 119.81 111.36 10.30
8135 19.2520 131.64 111.69 10.82
8136 19.2540 120.75 112.51 10.38
8137 19.2560 141.73 113.77 11.17
8138 19.2580 151.76 115.47 11.49
8139 19.2600 144.52 117.64 11.28
8140 19.2620 128.13 120.31 10.69
8141 19.2640 136.55 123.56 11.05
8142 19.2660 130.37 127.49 10.72
8143 19.2680 148.37 132.24 11.35
8144 19.2700 159.15 137.97 11.90
8145 19.2720 158.08 144.87 11.82
8146 19.2740 177.30 153.18 12.58
8147 19.2760 174.17 163.13 12.42
8148 19.2780 174.61 175.06 12.29
8149 19.2800 190.38 189.24 12.93
8150 19.2820 185.94 206.05 12.82
8151 19.2840 222.90 225.84 14.15
8152 19.2860 215.51 248.96 13.79
8153 19.2880 253.35 275.86 14.82
8154 19.2900 262.26 306.80 15.22
8155 19.2920 279.27 341.95 15.72
8156 19.2940 316.14 380.98 16.72
8157 19.2960 353.83 422.62 17.65
8158 19.2980 433.40 464.24 19.44
8159 19.3000 453.94 502.88 20.02
8160 19.3020 546.34 537.39 21.96
8161 19.3040 567.83 567.94 22.58
8162 19.3060 620.01 594.09 23.44
8163 19.3080 626.17 613.01 23.42
8164 19.3100 641.10 619.89 23.79
8165 19.3120 607.46 610.64 23.21
8166 19.3140 574.22 585.36 22.68
8167 19.3160 513.88 548.87 21.35
8168 19.3180 478.17 507.80 20.37
8169 19.3200 476.72 467.43 20.49
8170 19.3220 433.33 431.29 19.60
8171 19.3240 424.06 401.29 19.38
8172 19.3260 395.95 378.50 18.77
8173 19.3280 365.12 363.34 17.83
8174 19.3300 393.85 356.09 18.62
8175 19.3320 401.42 357.35 18.85
8176 19.3340 387.80 367.96 18.61
8177 19.3360 376.22 388.37 18.21
8178 19.3380 383.94 417.80 18.21
8179 19.3400 418.72 452.88 19.17
8180 19.3420 493.56 486.40 20.91
8181 19.3440 516.88 507.77 21.44
8182 19.3460 509.17 509.66 21.27
8183 19.3480 487.28 494.75 20.61
8184 19.3500 452.12 473.19 19.99
8185 19.3520 428.34 455.01 19.58
8186 19.3540 417.47 445.51 19.32
8187 19.3560 454.18 446.48 20.09
8188 19.3580 453.61 458.16 19.86
8189 19.3600 495.04 479.39 20.90
8190 19.3620 520.56 508.58 21.52
8191 19.3640 580.60 543.57 22.78
8192 19.3660 679.60 581.70 24.67
8193 19.3680 757.05 619.92 25.76
8194 19.3700 722.75 655.27 25.31
8195 19.3720 693.85 686.26 25.06
8196 19.3740 689.56 713.70 24.66
8197 19.3760 690.66 741.47 24.75
8198 19.3780 708.33 775.58 24.87
8199 19.3800 765.48 823.04 26.20
8200 19.3820 840.63 890.26 27.30
8201 19.3840 944.58 981.44 29.13
8202 19.3860 1086.91 1097.22 31.24
8203 19.3880 1322.93 1229.86 34.05
8204 19.3900 1490.33 1358.10 36.65
8205 19.3920 1665.98 1444.26 39.10
8206 19.3940 1542.32 1449.64 37.31
8207 19.3960 1411.90 1366.54 35.74
8208 19.3980 1199.51 1226.16 32.50
8209 19.4000 1012.59 1070.11 30.05
8210 19.4020 906.79 927.78 28.52
8211 19.4040 843.03 813.04 27.51
8212 19.4060 797.52 729.87 26.79
8213 19.4080 718.34 678.67 25.01
8214 19.4100 702.62 657.88 24.95
8215 19.4120 694.44 665.22 24.91
8216 19.4140 715.20 697.32 25.27
8217 19.4160 741.30 748.16 25.73
8218 19.4180 814.71 806.26 26.70
8219 19.4200 849.41 853.11 27.44
8220 19.4220 956.16 866.56 29.34
8221 19.4240 956.61 833.93 29.33
8222 19.4260 848.76 761.59 27.52
8223 19.4280 712.16 668.67 24.86
8224 19.4300 549.89 573.68 22.11
8225 19.4320 501.78 487.38 21.07
8226 19.4340 421.36 413.95 19.32
8227 19.4360 355.43 354.06 17.83
8228 19.4380 312.69 306.25 16.46
8229 19.4400 304.02 268.77 16.36
8230 19.4420 258.65 239.54 15.17
8231 19.4440 232.58 216.73 14.41
8232 19.4460 215.26 198.75 13.81
8233 19.4480 211.23 184.35 13.52
8234 19.4500 211.38 172.65 13.69
8235 19.4520 192.47 162.92 13.05
8236 19.4540 179.28 154.73 12.63
8237 19.4560 160.85 147.73 11.93
8238 19.4580 164.20 141.68 11.89
8239 19.4600 162.20 136.41 11.93
8240 19.4620 137.38 131.79 11.04
8241 19.4640 135.15 127.72 10.98
8242 19.4660 114.31 124.17 10.06
8243 19.4680 118.09 120.97 10.16
8244 19.4700 136.15 118.13 10.95
8245 19.4720 120.69 115.58 10.35
8246 19.4740 136.19 113.31 10.96
8247 19.4760 135.04 111.27 10.92
8248 19.4780 130.02 109.45 10.59
8249 19.4800 119.24 107.82 10.25
8250 19.4820 130.27 106.37 10.74
8251 19.4840 108.79 105.07 9.83
8252 19.4860 123.61 103.92 10.48
8253 19.4880 130.83 102.91 10.67
8254 19.4900 124.23 102.03 10.44
8255 19.4920 135.91 101.27 10.97
8256 19.4940 131.24 100.62 10.80
8257 19.4960 116.63 100.09 10.13
8258 19.4980 120.58 99.67 10.20
8259 19.5000 109.25 99.35 9.79
8260 19.5020 131.46 99.15 10.82
8261 19.5040 120.42 99.06 10.34
8262 19.5060 109.62 99.08 9.89
8263 19.5080 116.77 99.23 10.03
8264 19.5100 105.48 99.51 9.64
8265 19.5120 104.96 99.94 9.63
8266 19.5140 137.14 100.53 11.03
8267 19.5160 125.11 101.32 10.51
8268 19.5180 134.09 102.33 10.84
8269 19.5200 133.70 103.61 10.82
8270 19.5220 119.01 105.21 10.24
8271 19.5240 110.50 107.20 9.92
8272 19.5260 115.89 109.67 10.17
8273 19.5280 119.65 112.71 10.16
8274 19.5300 140.13 116.42 11.10
8275 19.5320 151.93 120.98 11.61
8276 19.5340 136.48 126.51 10.95
8277 19.5360 141.84 133.16 11.26
8278 19.5380 158.07 141.10 11.67
8279 19.5400 151.53 150.48 11.57
8280 19.5420 177.21 161.42 12.56
8281 19.5440 157.94 174.06 11.83
8282 19.5460 179.79 188.45 12.64
8283 19.5480 183.69 204.60 12.60
8284 19.5500 197.49 222.44 13.16
8285 19.5520 201.26 241.83 13.33
8286 19.5540 200.85 262.41 13.31
8287 19.5560 229.65 283.80 14.27
8288 19.5580 221.81 305.28 13.83
8289 19.5600 279.20 326.00 15.70
8290 19.5620 277.72 344.76 15.68
8291 19.5640 294.20 360.33 16.12
8292 19.5660 338.75 371.36 17.35
8293 19.5680 349.31 376.75 17.45
8294 19.5700 386.72 375.93 18.39
8295 19.5720 413.38 368.96 19.22
8296 19.5740 467.71 356.51 20.38
8297 19.5760 432.38 339.80 19.64
8298 19.5780 385.70 320.14 18.22
8299 19.5800 358.27 298.82 17.75
8300 19.5820 297.06 276.93 16.24
8301 19.5840 259.65 255.28 15.21
8302 19.5860 206.04 234.54 13.56
8303 19.5880 182.24 215.07 12.63
8304 19.5900 158.32 197.16 11.78
8305 19.5920 155.99 181.03 11.81
8306 19.5940 139.99 166.61 11.13
8307 19.5960 125.61 153.92 10.58
8308 19.5980 117.77 142.88 10.08
8309 19.6000 107.12 133.39 9.70
8310 19.6020 113.45 125.30 10.05
8311 19.6040 94.04 118.44 9.08
8312 19.6060 102.28 112.68 9.55
8313 19.6080 100.78 107.83 9.37
8314 19.6100 94.73 103.77 9.11
8315 19.6120 97.09 100.36 9.22
8316 19.6140 105.64 97.49 9.65
8317 19.6160 97.67 95.07 9.32
8318 19.6180 71.11 93.00 7.84
8319 19.6200 85.55 91.23 8.63
8320 19.6220 94.88 89.70 9.16
8321 19.6240 79.33 88.37 8.36
8322 19.6260 78.13 87.15 8.35
8323 19.6280 86.43 86.15 8.65
8324 19.6300 76.25 85.27 8.20
8325 19.6320 81.88 84.53 8.50
8326 19.6340 84.71 84.09 8.62
8327 19.6360 87.62 83.61 8.84
8328 19.6380 89.62 83.29 8.78
8329 19.6400 76.26 83.15 8.16
8330 19.6420 74.63 82.84 8.13
8331 19.6440 78.28 83.14 8.29
8332 19.6460 93.41 83.68 9.13
8333 19.6480 92.75 84.46 9.01
8334 19.6500 93.64 85.39 9.03
8335 19.6520 78.73 86.28 8.30
8336 19.6540 89.77 86.97 8.93
8337 19.6560 78.44 86.78 8.35
8338 19.6580 87.10 85.81 8.71
8339 19.6600 80.97 84.32 8.42
8340 19.6620 79.10 82.64 8.37
8341 19.6640 73.32 81.04 8.02
8342 19.6660 73.24 79.64 8.08
8343 19.6680 71.02 78.46 7.89
8344 19.6700 77.94 77.51 8.25
8345 19.6720 63.55 76.73 7.51
8346 19.6740 64.81 76.12 7.63
8347 19.6760 62.56 75.64 7.47
8348 19.6780 72.81 75.25 7.96
8349 19.6800 70.73 74.27 7.88
8350 19.6820 77.08 74.03 8.24
8351 19.6840 80.47 73.83 8.42
8352 19.6860 70.52 73.65 7.97
8353 19.6880 65.09 73.48 7.55
8354 19.6900 63.57 73.33 7.44
8355 19.6920 55.12 73.20 6.97
8356 19.6940 67.78 73.07 7.76
8357 19.6960 70.16 72.95 7.88
8358 19.6980 72.40 72.87 7.94
8359 19.7000 63.43 72.81 7.49
8360 19.7020 60.47 72.79 7.31
8361 19.7040 66.46 72.80 7.67
8362 19.7060 67.92 72.87 7.78
8363 19.7080 77.78 72.98 8.25
8364 19.7100 65.50 73.16 7.54
8365 19.7120 62.99 73.40 7.45
8366 19.7140 68.71 73.71 7.77
8367 19.7160 68.52 74.11 7.82
8368 19.7180 71.59 74.59 7.87
8369 19.7200 63.93 75.16 7.48
8370 19.7220 68.98 75.83 7.83
8371 19.7240 58.26 76.60 7.18
8372 19.7260 78.53 77.52 8.36
8373 19.7280 78.52 78.67 8.28
8374 19.7300 94.02 80.20 9.10
8375 19.7320 81.74 82.26 8.51
8376 19.7340 86.76 85.07 8.71
8377 19.7360 85.55 88.79 8.72
8378 19.7380 96.54 93.53 9.16
8379 19.7400 107.71 98.64 9.64
8380 19.7420 117.05 104.49 10.12
8381 19.7440 114.64 109.06 10.04
8382 19.7460 125.30 110.52 10.54
8383 19.7480 105.68 108.11 9.54
8384 19.7500 91.74 102.98 8.94
8385 19.7520 93.86 97.01 9.12
8386 19.7540 86.92 91.47 8.74
8387 19.7560 88.14 86.88 8.85
8388 19.7580 65.68 83.31 7.63
8389 19.7600 65.79 80.64 7.55
8390 19.7620 64.39 78.70 7.54
8391 19.7640 81.64 77.33 8.51
8392 19.7660 85.36 76.41 8.71
8393 19.7680 76.78 75.55 8.17
8394 19.7700 77.64 75.26 8.27
8395 19.7720 73.55 75.19 8.06
8396 19.7740 65.16 75.31 7.56
8397 19.7760 78.20 75.60 8.36
8398 19.7780 78.53 76.02 8.29
8399 19.7800 81.74 76.55 8.46
8400 19.7820 73.77 77.14 8.05
8401 19.7840 82.24 77.73 8.54
8402 19.7860 73.56 78.28 8.12
8403 19.7880 88.21 78.74 8.74
8404 19.7900 78.04 79.12 8.29
8405 19.7920 79.63 79.46 8.40
8406 19.7940 73.92 79.83 8.05
8407 19.7960 74.41 80.33 8.14
8408 19.7980 72.90 81.01 7.96
8409 19.8000 72.67 81.91 7.94
8410 19.8020 98.81 83.05 9.41
8411 19.8040 81.51 84.39 8.43
8412 19.8060 85.30 85.88 8.78
8413 19.8080 93.77 87.39 9.03
8414 19.8100 88.58 88.83 8.81
8415 19.8120 95.01 90.20 9.17
8416 19.8140 90.93 91.70 8.95
8417 19.8160 82.36 93.64 8.55
8418 19.8180 98.76 96.82 9.30
8419 19.8200 107.77 101.65 9.67
8420 19.8220 112.38 108.48 9.99
8421 19.8240 123.71 117.03 10.41
8422 19.8260 121.48 125.86 10.40
8423 19.8280 142.47 131.99 11.13
8424 19.8300 166.23 131.58 12.09
8425 19.8320 143.20 124.44 11.23
8426 19.8340 139.42 113.75 11.06
8427 19.8360 110.44 103.27 9.93
8428 19.8380 87.44 94.63 8.72
8429 19.8400 101.35 88.09 9.44
8430 19.8420 90.70 83.31 8.99
8431 19.8440 74.72 79.85 8.10
8432 19.8460 87.08 77.36 8.78
8433 19.8480 71.72 75.53 7.94
8434 19.8500 65.36 74.15 7.57
8435 19.8520 67.08 73.08 7.74
8436 19.8540 69.00 72.24 7.79
8437 19.8560 73.59 71.57 8.16
8438 19.8580 55.01 71.01 6.91
8439 19.8600 69.49 70.55 7.81
8440 19.8620 78.73 70.17 8.37
8441 19.8640 67.86 69.84 7.77
8442 19.8660 62.91 69.57 7.50
8443 19.8680 52.15 69.33 6.78
8444 19.8700 65.96 69.05 7.60
8445 19.8720 64.43 68.88 7.59
8446 19.8740 71.44 68.73 7.93
8447 19.8760 68.52 68.61 7.80
8448 19.8780 58.23 68.50 7.16
8449 19.8800 47.94 68.40 6.48
8450 19.8820 66.70 68.32 7.65
8451 19.8840 65.41 68.25 7.63
8452 19.8860 70.98 68.19 7.98
8453 19.8880 69.33 68.15 7.76
8454 19.8900 71.16 68.11 7.87
8455 19.8920 68.99 68.08 7.86
8456 19.8940 61.15 68.05 7.36
8457 19.8960 59.62 68.04 7.30
8458 19.8980 51.79 68.03 6.69
8459 19.9000 65.11 68.02 7.54
8460 19.9020 64.64 68.03 7.59
8461 19.9040 67.96 68.04 7.70
8462 19.9060 49.97 68.53 6.69
8463 19.9080 49.40 68.56 6.58
8464 19.9100 68.32 68.59 7.70
8465 19.9120 57.25 68.63 7.10
8466 19.9140 73.13 68.68 8.02
8467 19.9160 68.81 68.74 7.86
8468 19.9180 69.15 68.80 7.76
8469 19.9200 66.77 69.47 7.64
8470 19.9220 57.52 69.55 7.14
8471 19.9240 67.44 69.65 7.72
8472 19.9260 57.98 69.76 7.21
8473 19.9280 54.22 69.87 6.90
8474 19.9300 64.79 70.00 7.51
8475 19.9320 91.56 70.14 8.94
8476 19.9340 62.85 70.29 7.42
8477 19.9360 75.20 70.46 8.16
8478 19.9380 62.38 70.65 7.37
8479 19.9400 70.16 70.86 7.82
8480 19.9420 65.92 71.09 7.67
8481 19.9440 69.63 71.35 7.80
8482 19.9460 73.42 71.65 8.11
8483 19.9480 66.31 71.98 7.60
8484 19.9500 60.31 72.37 7.24
8485 19.9520 59.95 72.82 7.29
8486 19.9540 58.58 73.35 7.18
8487 19.9560 73.58 73.99 8.12
8488 19.9580 77.72 74.78 8.22
8489 19.9600 78.29 75.76 8.26
8490 19.9620 75.64 77.06 8.17
8491 19.9640 64.25 78.58 7.51
8492 19.9660 77.49 80.48 8.33
8493 19.9680 86.68 82.80 8.69
8494 19.9700 86.34 85.59 8.70
8495 19.9720 82.64 88.84 8.60
8496 19.9740 98.68 92.44 9.33
8497 19.9760 73.23 96.17 8.07
8498 19.9780 99.11 99.64 9.32
8499 19.9800 99.51 102.44 9.33
8500 19.9820 92.37 104.34 9.06
8501 19.9840 82.90 105.29 8.54
8502 19.9860 86.81 105.34 8.83
8503 19.9880 102.16 104.55 9.40
8504 19.9900 113.45 103.11 9.95
8505 19.9920 95.29 101.23 9.19
8506 19.9940 110.09 99.25 9.84
8507 19.9960 115.43 97.35 10.10
8508 19.9980 95.57 95.58 9.10
8509 20.0000 83.61 93.90 8.54
8510 20.0020 84.07 92.26 8.62
8511 20.0040 95.06 90.63 9.11
8512 20.0060 89.41 89.04 8.93
8513 20.0080 87.29 87.54 8.71
8514 20.0100 84.25 86.20 8.59
8515 20.0120 89.77 85.04 8.90
8516 20.0140 92.71 84.08 9.07
8517 20.0160 81.14 83.33 8.47
8518 20.0180 80.75 82.86 8.42
8519 20.0200 81.85 82.50 8.47
8520 20.0220 98.06 82.28 9.31
8521 20.0240 82.14 82.23 8.49
8522 20.0260 85.86 82.32 8.75
8523 20.0280 81.49 82.50 8.45
8524 20.0300 70.31 82.84 7.81
8525 20.0320 89.72 83.30 8.92
8526 20.0340 98.16 83.86 9.29
8527 20.0360 77.09 84.53 8.31
8528 20.0380 84.82 85.31 8.61
8529 20.0400 95.65 86.20 9.13
8530 20.0420 92.46 87.21 9.04
8531 20.0440 97.34 88.36 9.31
8532 20.0460 113.54 89.66 10.06
8533 20.0480 85.77 91.15 8.65
8534 20.0500 113.18 92.86 9.94
8535 20.0520 106.61 94.83 9.76
8536 20.0540 114.38 97.12 10.01
8537 20.0560 110.15 99.82 9.89
8538 20.0580 102.56 103.00 9.42
8539 20.0600 101.54 106.79 9.43
8540 20.0620 124.16 111.31 10.49
8541 20.0640 120.94 116.70 10.31
8542 20.0660 138.86 123.13 11.13
8543 20.0680 127.23 130.76 10.53
8544 20.0700 146.71 139.74 11.34
8545 20.0720 156.46 150.27 11.77
8546 20.0740 154.37 162.49 11.62
8547 20.0760 182.20 176.46 12.72
8548 20.0780 180.44 192.20 12.54
8549 20.0800 159.56 209.70 11.77
8550 20.0820 203.41 228.71 13.42
8551 20.0840 191.82 248.91 13.00
8552 20.0860 241.13 269.62 14.73
8553 20.0880 262.53 290.06 15.08
8554 20.0900 280.57 309.14 15.63
8555 20.0920 322.12 325.85 16.95
8556 20.0940 333.97 339.46 17.06
8557 20.0960 362.96 350.61 17.98
8558 20.0980 391.68 358.11 18.52
8559 20.1000 402.29 363.56 18.71
8560 20.1020 371.87 367.74 18.13
8561 20.1040 363.34 371.16 17.91
8562 20.1060 382.76 373.82 18.47
8563 20.1080 345.70 375.27 17.30
8564 20.1100 346.64 374.75 17.37
8565 20.1120 322.66 371.53 16.87
8566 20.1140 305.24 365.23 16.27
8567 20.1160 319.25 355.98 16.86
8568 20.1180 337.75 344.43 17.10
8569 20.1200 304.41 331.66 16.26
8570 20.1220 331.52 318.96 17.03
8571 20.1240 307.25 307.79 16.41
8572 20.1260 259.86 299.48 15.14
8573 20.1280 293.00 295.25 15.94
8574 20.1300 291.22 295.92 15.86
8575 20.1320 281.64 301.63 15.70
8576 20.1340 294.81 311.04 16.06
8577 20.1360 295.32 320.53 16.12
8578 20.1380 322.32 325.23 16.66
8579 20.1400 298.16 322.17 16.13
8580 20.1420 268.74 310.95 15.31
8581 20.1440 268.72 293.09 15.37
8582 20.1460 192.90 271.58 13.07
8583 20.1480 235.25 249.99 14.31
8584 20.1500 195.12 230.95 13.03
8585 20.1520 199.66 215.89 13.28
8586 20.1540 197.97 205.48 13.09
8587 20.1560 186.42 199.80 12.83
8588 20.1580 194.04 199.42 12.92
8589 20.1600 192.52 204.41 12.96
8590 20.1620 232.13 215.07 14.22
8591 20.1640 247.88 231.58 14.72
8592 20.1660 242.78 253.68 14.71
8593 20.1680 271.64 279.73 15.32
8594 20.1700 277.04 305.54 15.59
8595 20.1720 328.45 324.00 16.98
8596 20.1740 342.65 328.20 17.29
8597 20.1760 308.13 317.18 16.51
8598 20.1780 247.32 296.91 14.64
8599 20.1800 252.07 275.13 14.84
8600 20.1820 247.76 257.05 14.76
8601 20.1840 227.74 244.97 14.10
8602 20.1860 239.35 239.56 14.58
8603 20.1880 216.16 240.69 13.70
8604 20.1900 234.18 247.88 14.32
8605 20.1920 248.32 260.53 14.80
8606 20.1940 264.52 278.51 15.28
8607 20.1960 298.19 303.17 16.26
8608 20.1980 320.19 337.56 16.57
8609 20.2000 355.94 385.23 17.73
8610 20.2020 419.63 449.43 19.22
8611 20.2040 513.54 531.76 21.23
8612 20.2060 717.85 629.94 25.41
8613 20.2080 854.67 733.55 27.34
8614 20.2100 946.26 819.89 28.88
8615 20.2120 880.46 860.45 28.08
8616 20.2140 762.42 839.04 25.94
8617 20.2160 717.46 765.55 25.31
8618 20.2180 568.17 664.20 22.26
8619 20.2200 517.81 558.69 21.32
8620 20.2220 403.50 464.28 18.97
8621 20.2240 373.52 387.14 18.17
8622 20.2260 312.35 327.39 16.66
8623 20.2280 327.07 282.83 16.94
8624 20.2300 271.57 250.45 15.42
8625 20.2320 264.36 227.84 15.37
8626 20.2340 238.13 213.11 14.48
8627 20.2360 250.76 204.93 14.97
8628 20.2380 246.84 202.45 14.63
8629 20.2400 227.74 204.61 14.18
8630 20.2420 228.74 209.40 14.18
8631 20.2440 247.84 213.86 14.80
8632 20.2460 231.45 216.06 14.34
8633 20.2480 222.84 216.75 13.96
8634 20.2500 242.42 216.97 14.55
8635 20.2520 210.11 216.28 13.71
8636 20.2540 236.90 213.01 14.42
8637 20.2560 249.53 204.56 14.89
8638 20.2580 212.07 190.05 13.63
8639 20.2600 176.97 172.49 12.45
8640 20.2620 193.00 155.74 13.08
8641 20.2640 167.23 141.69 12.09
8642 20.2660 150.05 130.65 11.59
8643 20.2680 159.71 122.18 11.77
8644 20.2700 142.74 115.71 11.18
8645 20.2720 119.49 110.73 10.30
8646 20.2740 123.41 106.86 10.44
8647 20.2760 96.98 103.83 9.27
8648 20.2780 115.86 101.43 10.06
8649 20.2800 106.08 99.52 9.66
8650 20.2820 128.91 98.00 10.67
8651 20.2840 89.95 96.81 8.89
8652 20.2860 91.44 95.90 9.09
8653 20.2880 97.25 95.23 9.17
8654 20.2900 111.21 94.79 9.86
8655 20.2920 96.93 94.57 9.26
8656 20.2940 110.11 94.56 9.80
8657 20.2960 110.16 94.77 9.94
8658 20.2980 91.10 95.21 8.86
8659 20.3000 91.03 95.92 8.92
8660 20.3020 105.27 96.93 9.65
8661 20.3040 88.90 98.30 8.82
8662 20.3060 108.21 100.19 9.80
8663 20.3080 135.74 102.54 10.88
8664 20.3100 109.50 105.55 9.75
8665 20.3120 124.54 109.38 10.52
8666 20.3140 131.66 114.18 10.73
8667 20.3160 137.73 120.89 11.09
8668 20.3180 142.30 128.07 11.09
8669 20.3200 155.34 136.46 11.66
8670 20.3220 182.83 146.00 12.71
8671 20.3240 168.88 157.02 12.15
8672 20.3260 185.20 170.48 12.83
8673 20.3280 208.44 187.52 13.43
8674 20.3300 224.86 208.03 14.04
8675 20.3320 246.66 228.18 14.72
8676 20.3340 250.42 240.15 14.76
8677 20.3360 247.63 238.15 14.94
8678 20.3380 224.00 225.84 13.89
8679 20.3400 217.07 212.15 13.77
8680 20.3420 199.43 203.05 13.24
8681 20.3440 216.14 200.37 13.83
8682 20.3460 195.64 203.91 13.17
8683 20.3480 165.35 212.98 11.99
8684 20.3500 215.99 226.80 13.71
8685 20.3520 240.37 244.62 14.57
8686 20.3540 231.25 265.32 14.21
8687 20.3560 246.89 287.53 14.81
8688 20.3580 282.10 309.21 15.71
8689 20.3600 299.24 327.59 16.12
8690 20.3620 333.48 339.87 17.03
8691 20.3640 388.58 344.02 18.45
8692 20.3660 400.27 339.86 18.96
8693 20.3680 419.94 329.11 19.09
8694 20.3700 362.04 314.57 17.74
8695 20.3720 322.84 299.05 16.82
8696 20.3740 288.01 284.67 15.86
8697 20.3760 270.47 272.65 15.42
8698 20.3780 233.95 263.64 14.20
8699 20.3800 209.46 257.77 13.46
8700 20.3820 214.33 254.62 13.70
8701 20.3840 217.96 253.62 13.79
8702 20.3860 236.63 253.87 14.48
8703 20.3880 218.60 254.30 13.71
8704 20.3900 227.04 253.77 14.05
8705 20.3920 248.31 251.34 14.73
8706 20.3940 258.55 246.40 15.08
8707 20.3960 257.29 238.82 15.08
8708 20.3980 253.77 228.97 14.80
8709 20.4000 222.98 217.47 13.97
8710 20.4020 260.48 205.03 15.01
8711 20.4040 205.45 192.33 13.43
8712 20.4060 197.07 179.88 13.20
8713 20.4080 157.63 168.05 11.65
8714 20.4100 145.93 157.17 11.25
8715 20.4120 146.26 147.25 11.26
8716 20.4140 126.37 138.40 10.55
8717 20.4160 120.83 130.66 10.31
8718 20.4180 111.20 124.01 9.75
8719 20.4200 111.58 118.37 9.86
8720 20.4220 110.93 113.68 9.83
8721 20.4240 109.84 109.84 9.76
8722 20.4260 85.24 106.78 8.67
8723 20.4280 96.91 104.40 9.16
8724 20.4300 94.05 102.63 9.04
8725 20.4320 91.39 101.40 8.90
8726 20.4340 88.39 100.66 8.84
8727 20.4360 117.31 100.37 10.11
8728 20.4380 88.05 100.51 8.71
8729 20.4400 88.41 101.06 8.77
8730 20.4420 101.98 102.02 9.44
8731 20.4440 108.04 103.38 9.73
8732 20.4460 107.14 105.15 9.69
8733 20.4480 109.08 107.37 9.73
8734 20.4500 104.92 110.10 9.54
8735 20.4520 134.94 113.39 10.81
8736 20.4540 114.98 117.32 10.04
8737 20.4560 134.46 121.96 10.84
8738 20.4580 136.84 127.43 10.84
8739 20.4600 144.38 133.97 11.18
8740 20.4620 148.82 142.07 11.41
8741 20.4640 161.66 152.46 11.93
8742 20.4660 167.92 166.18 12.20
8743 20.4680 169.79 184.15 12.12
8744 20.4700 205.79 206.59 13.46
8745 20.4720 236.72 232.51 14.38
8746 20.4740 240.40 257.02 14.54
8747 20.4760 279.64 272.25 15.71
8748 20.4780 278.03 271.95 15.58
8749 20.4800 245.88 258.72 14.61
8750 20.4820 252.81 241.06 14.86
8751 20.4840 225.27 226.48 14.06
8752 20.4860 227.13 218.68 14.13
8753 20.4880 199.76 218.37 13.22
8754 20.4900 184.13 224.52 12.75
8755 20.4920 220.69 233.66 13.90
8756 20.4940 225.82 240.25 14.10
8757 20.4960 248.31 238.24 14.77
8758 20.4980 244.81 225.91 14.56
8759 20.5000 213.47 206.97 13.66
8760 20.5020 164.49 186.90 12.11
8761 20.5040 177.73 169.01 12.44
8762 20.5060 131.81 153.90 10.78
8763 20.5080 126.40 142.73 10.45
8764 20.5100 161.47 134.47 11.89
8765 20.5120 146.54 128.58 11.41
8766 20.5140 135.75 124.49 10.92
8767 20.5160 108.28 121.92 9.78
8768 20.5180 137.61 120.50 10.99
8769 20.5200 122.61 120.05 10.39
8770 20.5220 120.70 120.44 10.32
8771 20.5240 127.63 121.64 10.60
8772 20.5260 127.74 123.67 10.71
8773 20.5280 139.62 126.60 10.99
8774 20.5300 142.54 130.56 11.23
8775 20.5320 138.53 135.77 11.18
8776 20.5340 159.54 142.54 11.80
8777 20.5360 158.42 151.29 11.84
8778 20.5380 166.34 162.70 12.05
8779 20.5400 191.23 177.64 13.05
8780 20.5420 215.43 197.34 13.78
8781 20.5440 228.68 223.29 14.20
8782 20.5460 258.59 257.36 15.23
8783 20.5480 285.70 301.41 15.77
8784 20.5500 319.67 356.53 16.78
8785 20.5520 392.33 422.07 18.80
8786 20.5540 418.59 492.39 19.27
8787 20.5560 457.36 558.77 20.22
8788 20.5580 534.56 612.01 21.76
8789 20.5600 624.42 643.21 23.57
8790 20.5620 700.80 643.45 25.17
8791 20.5640 711.31 610.70 25.12
8792 20.5660 637.05 553.95 23.92
8793 20.5680 540.66 487.77 21.77
8794 20.5700 417.46 423.73 19.26
8795 20.5720 369.77 368.12 18.19
8796 20.5740 309.93 322.98 16.61
8797 20.5760 286.15 288.12 15.94
8798 20.5780 261.13 262.62 15.09
8799 20.5800 231.29 244.84 14.27
8800 20.5820 214.09 232.99 13.82
8801 20.5840 212.07 224.55 13.71
8802 20.5860 216.18 214.97 13.94
8803 20.5880 196.23 201.16 13.11
8804 20.5900 193.18 183.86 13.04
8805 20.5920 170.85 166.38 12.42
8806 20.5940 146.07 150.99 11.31
8807 20.5960 121.62 138.37 10.42
8808 20.5980 113.34 128.30 9.96
8809 20.6000 133.22 120.40 10.81
8810 20.6020 130.03 114.22 10.77
8811 20.6040 83.17 109.38 8.56
8812 20.6060 112.59 105.50 10.01
8813 20.6080 109.25 102.59 9.76
8814 20.6100 112.43 100.42 9.97
8815 20.6120 105.17 98.89 9.64
8816 20.6140 81.26 98.01 8.47
8817 20.6160 84.03 97.66 8.67
8818 20.6180 78.37 97.86 8.28
8819 20.6200 94.80 98.58 9.09
8820 20.6220 111.73 99.74 9.98
8821 20.6240 100.72 101.18 9.41
8822 20.6260 107.45 102.64 9.76
8823 20.6280 92.17 103.78 8.97
8824 20.6300 85.61 104.26 8.66
8825 20.6320 92.97 104.02 9.07
8826 20.6340 99.33 103.35 9.31
8827 20.6360 95.59 102.71 9.28
8828 20.6380 83.91 102.57 8.53
8829 20.6400 93.97 103.31 9.07
8830 20.6420 101.28 105.23 9.47
8831 20.6440 108.62 108.63 9.75
8832 20.6460 117.40 113.73 10.18
8833 20.6480 132.96 120.68 10.80
8834 20.6500 134.53 129.43 10.83
8835 20.6520 138.33 139.34 11.10
8836 20.6540 147.66 149.13 11.38
8837 20.6560 157.25 157.57 11.81
8838 20.6580 165.37 164.53 11.98
8839 20.6600 171.07 170.95 12.22
8840 20.6620 158.53 176.40 11.81
8841 20.6640 196.11 177.51 13.10
8842 20.6660 160.68 170.58 11.96
8843 20.6680 128.97 156.63 10.59
8844 20.6700 132.19 140.38 10.73
8845 20.6720 119.40 125.70 10.27
8846 20.6740 110.58 113.94 9.80
8847 20.6760 117.51 104.99 10.22
8848 20.6780 99.24 98.29 9.27
8849 20.6800 104.29 93.27 9.54
8850 20.6820 94.62 89.46 9.12
8851 20.6840 104.00 86.50 9.52
8852 20.6860 88.08 84.18 8.83
8853 20.6880 80.07 82.34 8.36
8854 20.6900 71.26 80.90 7.89
8855 20.6920 82.59 79.78 8.53
8856 20.6940 104.88 78.95 9.59
8857 20.6960 75.26 78.38 8.20
8858 20.6980 79.90 78.06 8.33
8859 20.7000 80.89 77.98 8.40
8860 20.7020 76.74 78.17 8.22
8861 20.7040 90.17 78.63 8.86
8862 20.7060 82.66 79.40 8.59
8863 20.7080 69.01 80.48 7.74
8864 20.7100 73.43 81.91 8.01
8865 20.7120 80.87 83.68 8.44
8866 20.7140 90.38 85.73 8.91
8867 20.7160 76.47 87.91 8.25
8868 20.7180 78.45 90.31 8.25
8869 20.7200 94.34 92.97 9.10
8870 20.7220 82.05 96.13 8.47
8871 20.7240 107.91 99.91 9.69
8872 20.7260 97.80 103.70 9.34
8873 20.7280 90.22 106.01 8.86
8874 20.7300 110.86 105.70 9.84
8875 20.7320 92.38 102.98 9.09
8876 20.7340 102.04 98.60 9.48
8877 20.7360 86.47 93.36 8.78
8878 20.7380 85.88 88.32 8.62
8879 20.7400 74.73 85.32 8.10
8880 20.7420 78.20 82.12 8.30
8881 20.7440 75.47 79.75 8.13
8882 20.7460 75.46 78.01 8.21
8883 20.7480 73.75 76.75 8.01
8884 20.7500 73.84 75.82 8.10
8885 20.7520 72.84 75.00 7.98
8886 20.7540 71.63 74.52 7.96
8887 20.7560 74.93 75.15 8.13
8888 20.7580 65.16 74.97 7.56
8889 20.7600 77.54 74.90 8.23
8890 20.7620 70.77 74.92 7.94
8891 20.7640 75.57 75.04 8.13
8892 20.7660 61.55 75.24 7.39
8893 20.7680 79.03 75.54 8.30
8894 20.7700 79.68 75.93 8.40
8895 20.7720 68.82 76.44 7.75
8896 20.7740 62.55 77.08 7.43
8897 20.7760 62.96 77.89 7.49
8898 20.7780 69.53 78.90 7.78
8899 20.7800 80.32 80.06 8.38
8900 20.7820 65.63 81.68 7.62
8901 20.7840 80.43 83.75 8.40
8902 20.7860 83.98 86.39 8.62
8903 20.7880 77.57 89.77 8.22
8904 20.7900 93.04 93.88 9.05
8905 20.7920 101.96 99.22 9.46
8906 20.7940 103.88 105.75 9.53
8907 20.7960 110.87 113.55 9.94
8908 20.7980 110.74 122.50 9.81
8909 20.8000 139.50 132.21 11.04
8910 20.8020 147.78 141.87 11.40
8911 20.8040 175.58 150.68 12.41
8912 20.8060 171.52 155.77 12.36
8913 20.8080 131.43 156.28 10.71
8914 20.8100 125.68 152.20 10.49
8915 20.8120 125.43 144.59 10.48
8916 20.8140 97.99 135.20 9.29
8917 20.8160 108.47 125.57 9.81
8918 20.8180 109.69 116.68 9.72
8919 20.8200 94.60 108.94 9.13
8920 20.8220 101.31 102.49 9.39
8921 20.8240 88.93 97.25 8.86
8922 20.8260 90.80 93.15 8.95
8923 20.8280 85.31 89.99 8.63
8924 20.8300 94.81 87.60 9.07
8925 20.8320 89.00 85.81 8.85
8926 20.8340 71.98 84.49 7.94
8927 20.8360 92.01 83.54 9.03
8928 20.8380 96.12 82.87 9.08
8929 20.8400 74.44 82.41 8.07
8930 20.8420 84.67 82.14 8.59
8931 20.8440 90.61 82.02 8.91
8932 20.8460 79.84 82.03 8.43
8933 20.8480 79.04 82.17 8.28
8934 20.8500 76.79 82.43 8.20
8935 20.8520 74.50 82.82 8.10
8936 20.8540 73.67 83.34 8.06
8937 20.8560 100.31 84.02 9.38
8938 20.8580 82.80 84.85 8.49
8939 20.8600 82.89 85.86 8.50
8940 20.8620 95.54 87.05 9.13
8941 20.8640 84.61 88.43 8.63
8942 20.8660 98.93 89.97 9.34
8943 20.8680 95.48 91.63 9.09
8944 20.8700 89.48 93.36 8.85
8945 20.8720 94.15 95.19 9.03
8946 20.8740 77.12 97.12 8.24
8947 20.8760 93.61 99.21 9.11
8948 20.8780 88.75 101.43 8.78
8949 20.8800 78.82 103.73 8.31
8950 20.8820 105.53 106.02 9.56
8951 20.8840 106.45 108.17 9.67
8952 20.8860 132.43 110.10 10.78
8953 20.8880 125.20 111.37 10.43
8954 20.8900 138.04 112.84 11.01
8955 20.8920 111.12 114.26 9.85
8956 20.8940 119.15 116.74 10.16
8957 20.8960 116.08 118.66 10.11
8958 20.8980 133.88 121.14 10.76
8959 20.9000 140.25 124.37 11.07
8960 20.9020 139.42 128.55 11.00
8961 20.9040 136.33 133.88 10.92
8962 20.9060 146.34 140.58 11.38
8963 20.9080 146.52 148.86 11.23
8964 20.9100 156.20 158.97 11.72
8965 20.9120 161.09 171.06 11.89
8966 20.9140 163.17 185.33 11.94
8967 20.9160 166.43 202.41 12.07
8968 20.9180 198.69 221.29 13.14
8969 20.9200 201.05 242.39 13.25
8970 20.9220 205.34 265.53 13.44
8971 20.9240 212.87 290.14 13.66
8972 20.9260 240.98 315.40 14.70
8973 20.9280 270.09 340.22 15.31
8974 20.9300 295.80 363.24 16.18
8975 20.9320 315.22 383.14 16.68
8976 20.9340 363.08 398.85 17.90
8977 20.9360 391.13 409.42 18.55
8978 20.9380 412.48 414.48 18.93
8979 20.9400 424.94 413.48 19.33
8980 20.9420 398.94 406.39 18.77
8981 20.9440 414.34 393.84 19.10
8982 20.9460 351.29 377.22 17.71
8983 20.9480 358.64 358.30 17.67
8984 20.9500 378.82 338.89 18.27
8985 20.9520 302.10 320.40 16.38
8986 20.9540 310.84 303.99 16.54
8987 20.9560 274.93 290.42 15.56
8988 20.9580 257.81 280.23 14.95
8989 20.9600 244.83 273.82 14.72
8990 20.9620 253.86 271.44 15.00
8991 20.9640 260.74 273.23 15.16
8992 20.9660 257.90 279.37 15.09
8993 20.9680 270.14 289.80 15.40
8994 20.9700 301.76 304.28 16.27
8995 20.9720 271.78 322.62 15.55
8996 20.9740 301.31 344.81 16.36
8997 20.9760 304.16 371.28 16.49
8998 20.9780 357.56 402.92 17.70
8999 20.9800 436.70 440.86 19.67
9000 20.9820 494.47 486.00 20.85
9001 20.9840 527.84 539.06 21.58
9002 20.9860 601.29 600.21 23.06
9003 20.9880 782.96 668.38 26.30
9004 20.9900 861.61 740.92 27.61
9005 20.9920 864.74 811.43 27.76
9006 20.9940 897.48 870.33 28.25
9007 20.9960 832.24 909.18 27.27
9008 20.9980 809.81 927.93 26.60
9009 21.0000 770.72 933.05 25.98
9010 21.0020 766.56 929.25 26.05
9011 21.0040 811.79 917.85 26.74
9012 21.0060 861.07 902.97 27.65
9013 21.0080 894.74 892.07 28.01
9014 21.0100 1012.25 889.03 29.98
9015 21.0120 1060.78 890.33 30.69
9016 21.0140 1042.59 886.72 30.49
9017 21.0160 873.66 867.84 27.75
9018 21.0180 793.79 827.93 26.39
9019 21.0200 730.74 769.22 25.36
9020 21.0220 646.64 699.55 23.85
9021 21.0240 579.94 627.69 22.60
9022 21.0260 488.53 560.62 20.85
9023 21.0280 491.37 502.40 20.70
9024 21.0300 455.90 455.15 19.98
9025 21.0320 410.90 419.95 19.15
9026 21.0340 435.54 397.66 19.57
9027 21.0360 443.50 389.43 19.81
9028 21.0380 405.13 396.96 18.81
9029 21.0400 468.21 422.77 20.30
9030 21.0420 497.60 469.99 20.85
9031 21.0440 565.27 541.16 22.28
9032 21.0460 695.73 634.82 24.83
9033 21.0480 901.96 736.78 28.08
9034 21.0500 1021.45 811.72 30.10
9035 21.0520 980.78 816.51 29.40
9036 21.0540 832.57 743.84 27.07
9037 21.0560 662.76 630.83 24.05
9038 21.0580 519.01 517.68 21.31
9039 21.0600 480.55 422.94 20.57
9040 21.0620 388.71 349.66 18.46
9041 21.0640 322.08 295.10 16.69
9042 21.0660 287.59 254.96 15.91
9043 21.0680 295.42 225.47 15.98
9044 21.0700 241.79 203.51 14.54
9045 21.0720 221.85 186.88 13.92
9046 21.0740 227.16 174.03 14.11
9047 21.0760 169.24 163.92 12.14
9048 21.0780 176.21 155.86 12.38
9049 21.0800 194.55 149.40 12.99
9050 21.0820 172.10 144.21 12.30
9051 21.0840 172.90 140.06 12.27
9052 21.0860 165.79 136.81 12.10
9053 21.0880 163.87 134.33 11.95
9054 21.0900 143.95 132.55 11.23
9055 21.0920 150.01 131.41 11.45
9056 21.0940 142.00 130.89 11.17
9057 21.0960 141.09 130.98 11.10
9058 21.0980 143.43 131.70 11.14
9059 21.1000 156.86 133.10 11.69
9060 21.1020 149.05 135.22 11.45
9061 21.1040 138.94 138.18 11.02
9062 21.1060 173.13 142.10 12.36
9063 21.1080 172.49 147.20 12.25
9064 21.1100 174.63 153.73 12.34
9065 21.1120 184.70 162.12 12.72
9066 21.1140 202.06 172.94 13.28
9067 21.1160 223.75 187.12 13.99
9068 21.1180 251.38 206.12 14.73
9069 21.1200 276.93 231.93 15.50
9070 21.1220 281.28 267.74 15.67
9071 21.1240 362.61 317.52 17.90
9072 21.1260 397.82 386.12 18.65
9073 21.1280 453.68 478.27 19.91
9074 21.1300 573.54 595.34 22.43
9075 21.1320 743.31 728.48 25.55
9076 21.1340 906.67 846.01 28.25
9077 21.1360 1039.27 897.64 30.39
9078 21.1380 910.91 857.08 28.14
9079 21.1400 710.66 755.61 24.85
9080 21.1420 614.66 643.47 23.12
9081 21.1440 514.92 549.76 21.34
9082 21.1460 420.09 481.72 19.18
9083 21.1480 405.60 436.74 18.82
9084 21.1500 431.61 409.08 19.43
9085 21.1520 387.06 392.64 18.35
9086 21.1540 394.15 382.31 18.59
9087 21.1560 441.99 373.96 19.64
9088 21.1580 385.51 364.70 18.29
9089 21.1600 401.58 352.42 18.71
9090 21.1620 351.84 337.05 17.46
9091 21.1640 309.80 320.87 16.51
9092 21.1660 282.36 306.94 15.75
9093 21.1680 251.43 296.82 14.77
9094 21.1700 232.36 290.73 14.23
9095 21.1720 261.48 288.04 15.09
9096 21.1740 261.06 287.73 15.11
9097 21.1760 251.45 288.59 14.78
9098 21.1780 247.18 289.38 14.72
9099 21.1800 265.64 288.89 15.19
9100 21.1820 285.58 286.24 15.73
9101 21.1840 287.68 281.04 15.88
9102 21.1860 301.49 273.55 16.24
9103 21.1880 339.77 264.49 17.24
9104 21.1900 264.25 254.90 15.17
9105 21.1920 270.21 245.80 15.38
9106 21.1940 241.10 237.99 14.45
9107 21.1960 245.44 231.91 14.62
9108 21.1980 250.23 227.38 14.74
9109 21.2000 232.03 223.55 14.20
9110 21.2020 213.50 219.08 13.61
9111 21.2040 189.49 212.77 12.86
9112 21.2060 174.90 204.18 12.35
9113 21.2080 169.99 193.98 12.20
9114 21.2100 173.10 183.44 12.23
9115 21.2120 164.03 173.21 12.06
9116 21.2140 145.85 162.65 11.25
9117 21.2160 118.77 150.95 10.20
9118 21.2180 122.83 138.74 10.33
9119 21.2200 113.47 127.46 9.97
9120 21.2220 120.07 117.96 10.24
9121 21.2240 117.80 110.35 10.20
9122 21.2260 91.82 104.31 9.01
9123 21.2280 112.82 99.52 9.92
9124 21.2300 93.93 95.70 9.04
9125 21.2320 97.49 92.54 9.30
9126 21.2340 102.22 89.92 9.47
9127 21.2360 94.27 87.69 9.06
9128 21.2380 93.58 85.78 9.06
9129 21.2400 82.03 84.11 8.52
9130 21.2420 92.18 82.64 8.99
9131 21.2440 84.13 81.56 8.66
9132 21.2460 87.72 80.40 8.78
9133 21.2480 95.68 79.35 9.14
9134 21.2500 98.71 78.40 9.33
9135 21.2520 70.56 77.36 7.91
9136 21.2540 79.49 76.58 8.38
9137 21.2560 72.93 75.87 8.02
9138 21.2580 68.03 75.22 7.76
9139 21.2600 81.44 74.62 8.44
9140 21.2620 79.67 74.07 8.43
9141 21.2640 74.98 73.57 8.12
9142 21.2660 82.90 73.11 8.57
9143 21.2680 73.37 72.69 8.06
9144 21.2700 72.51 72.30 7.97
9145 21.2720 71.89 71.94 8.00
9146 21.2740 74.28 71.62 8.09
9147 21.2760 65.77 71.33 7.63
9148 21.2780 62.00 71.06 7.38
9149 21.2800 92.47 70.82 9.03
9150 21.2820 73.33 70.61 8.04
9151 21.2840 70.37 70.42 7.92
9152 21.2860 69.64 70.25 7.82
9153 21.2880 72.06 70.10 7.99
9154 21.2900 61.66 69.97 7.33
9155 21.2920 65.15 69.85 7.64
9156 21.2940 59.17 69.76 7.20
9157 21.2960 69.63 69.69 7.86
9158 21.2980 72.52 69.63 7.99
9159 21.3000 71.49 68.99 7.89
9160 21.3020 77.62 69.00 8.27
9161 21.3040 71.24 69.05 7.92
9162 21.3060 57.46 69.15 7.13
9163 21.3080 64.28 69.31 7.55
9164 21.3100 64.56 69.53 7.60
9165 21.3120 55.25 69.84 7.01
9166 21.3140 70.56 70.23 7.88
9167 21.3160 85.64 70.72 8.70
9168 21.3180 76.52 71.31 8.21
9169 21.3200 70.45 72.00 7.88
9170 21.3220 65.71 72.76 7.65
9171 21.3240 72.14 73.56 7.96
9172 21.3260 65.34 74.34 7.59
9173 21.3280 73.33 75.00 7.99
9174 21.3300 74.69 75.45 8.10
9175 21.3320 76.45 75.66 8.26
9176 21.3340 79.13 75.62 8.31
9177 21.3360 71.74 75.43 7.95
9178 21.3380 68.34 75.12 7.74
9179 21.3400 82.36 74.72 8.51
9180 21.3420 72.74 74.26 8.04
9181 21.3440 68.87 73.74 7.77
9182 21.3460 65.53 73.17 7.60
9183 21.3480 66.20 72.57 7.63
9184 21.3500 84.80 71.97 8.66
9185 21.3520 80.39 71.37 8.46
9186 21.3540 76.36 70.79 8.20
9187 21.3560 85.06 70.26 8.62
9188 21.3580 69.31 69.76 7.82
9189 21.3600 68.85 69.32 7.80
9190 21.3620 81.78 68.93 8.55
9191 21.3640 76.19 68.60 8.13
9192 21.3660 94.70 68.33 9.17
9193 21.3680 80.02 68.13 8.37
9194 21.3700 80.10 68.00 8.42
9195 21.3720 76.66 67.93 8.30
9196 21.3740 81.91 67.93 8.46
9197 21.3760 77.91 68.03 8.30
9198 21.3780 77.05 68.19 8.25
9199 21.3800 72.58 67.80 8.00
9200 21.3820 58.26 68.17 7.20
9201 21.3840 76.30 68.68 8.20
9202 21.3860 75.03 69.35 8.17
9203 21.3880 77.17 69.84 8.27
9204 21.3900 72.84 70.99 8.04
9205 21.3920 66.22 72.45 7.71
9206 21.3940 73.26 74.25 8.07
9207 21.3960 77.24 76.40 8.26
9208 21.3980 90.31 78.75 8.88
9209 21.4000 68.67 82.16 7.82
9210 21.4020 76.09 83.83 8.26
9211 21.4040 85.75 84.44 8.68
9212 21.4060 74.15 83.95 8.15
9213 21.4080 76.10 82.81 8.19
9214 21.4100 62.34 81.57 7.41
9215 21.4120 76.49 80.64 8.24
9216 21.4140 74.34 80.18 8.15
9217 21.4160 77.30 80.24 8.29
9218 21.4180 72.51 80.84 7.99
9219 21.4200 94.51 81.98 9.15
9220 21.4220 82.22 83.66 8.56
9221 21.4240 94.28 85.83 9.10
9222 21.4260 91.44 88.42 8.98
9223 21.4280 112.91 91.19 9.99
9224 21.4300 89.22 94.23 8.87
9225 21.4320 90.97 97.53 8.99
9226 21.4340 94.07 101.42 9.11
9227 21.4360 95.13 106.32 9.15
9228 21.4380 98.34 112.63 9.26
9229 21.4400 136.40 120.63 11.00
9230 21.4420 118.30 130.53 10.20
9231 21.4440 127.77 142.42 10.61
9232 21.4460 163.61 155.67 12.01
9233 21.4480 165.27 169.52 12.01
9234 21.4500 174.97 182.45 12.43
9235 21.4520 194.79 192.59 13.14
9236 21.4540 180.95 200.09 12.59
9237 21.4560 196.00 205.82 13.17
9238 21.4580 206.84 211.51 13.48
9239 21.4600 216.49 217.68 13.82
9240 21.4620 205.67 222.87 13.51
9241 21.4640 201.59 224.20 13.35
9242 21.4660 189.88 219.73 12.94
9243 21.4680 210.10 210.51 13.53
9244 21.4700 194.84 200.01 13.11
9245 21.4720 180.55 191.82 12.70
9246 21.4740 174.95 188.33 12.38
9247 21.4760 199.43 190.28 13.33
9248 21.4780 197.84 196.98 13.20
9249 21.4800 195.76 205.36 13.16
9250 21.4820 227.67 211.32 14.22
9251 21.4840 244.12 211.21 14.69
9252 21.4860 206.63 203.04 13.54
9253 21.4880 175.85 188.59 12.45
9254 21.4900 182.58 172.48 12.71
9255 21.4920 155.98 158.23 11.78
9256 21.4940 157.58 146.83 11.76
9257 21.4960 157.70 138.01 11.80
9258 21.4980 138.80 131.12 11.09
9259 21.5000 127.96 125.60 10.65
9260 21.5020 127.90 121.11 10.68
9261 21.5040 113.89 117.46 10.02
9262 21.5060 117.80 114.64 10.25
9263 21.5080 105.63 112.66 9.64
9264 21.5100 107.03 111.58 9.76
9265 21.5120 119.43 111.41 10.31
9266 21.5140 100.57 112.21 9.42
9267 21.5160 88.52 113.89 8.84
9268 21.5180 103.82 116.53 9.59
9269 21.5200 106.11 119.48 9.68
9270 21.5220 109.69 122.54 9.81
9271 21.5240 117.80 125.24 10.19
9272 21.5260 111.12 127.15 9.92
9273 21.5280 129.06 127.96 10.67
9274 21.5300 142.09 127.52 11.19
9275 21.5320 117.07 125.75 10.20
9276 21.5340 150.18 122.69 11.52
9277 21.5360 132.81 118.51 10.81
9278 21.5380 162.07 113.57 11.88
9279 21.5400 104.05 108.25 9.60
9280 21.5420 113.03 103.00 9.99
9281 21.5440 105.90 98.06 9.61
9282 21.5460 98.17 93.61 9.31
9283 21.5480 83.78 89.71 8.57
9284 21.5500 85.74 86.36 8.68
9285 21.5520 72.80 83.56 8.01
9286 21.5540 89.73 81.24 8.92
9287 21.5560 90.89 79.35 8.94
9288 21.5580 73.01 77.84 8.00
9289 21.5600 85.86 76.63 8.66
9290 21.5620 84.46 75.69 8.66
9291 21.5640 69.97 74.97 7.83
9292 21.5660 94.58 74.43 9.13
9293 21.5680 72.98 74.05 7.99
9294 21.5700 83.54 73.79 8.60
9295 21.5720 103.37 73.65 9.55
9296 21.5740 93.61 73.62 9.07
9297 21.5760 92.46 73.69 9.04
9298 21.5780 77.57 73.75 8.26
9299 21.5800 87.18 74.00 8.73
9300 21.5820 82.91 74.34 8.58
9301 21.5840 75.25 74.74 8.17
9302 21.5860 91.92 75.17 9.02
9303 21.5880 79.51 75.59 8.33
9304 21.5900 105.06 75.96 9.65
9305 21.5920 99.44 76.28 9.41
9306 21.5940 91.47 76.59 8.96
9307 21.5960 76.19 76.95 8.19
9308 21.5980 85.07 77.38 8.66
9309 21.6000 96.45 77.91 9.20
9310 21.6020 77.46 78.56 8.31
9311 21.6040 102.22 79.34 9.47
9312 21.6060 91.22 80.25 9.04
9313 21.6080 92.15 81.30 8.97
9314 21.6100 93.91 82.52 9.11
9315 21.6120 107.39 83.91 9.77
9316 21.6140 114.97 85.51 10.08
9317 21.6160 94.67 87.36 9.14
9318 21.6180 114.59 89.50 9.98
9319 21.6200 103.38 92.02 9.56
9320 21.6220 97.33 95.01 9.28
9321 21.6240 123.96 98.60 10.44
9322 21.6260 130.22 103.00 10.72
9323 21.6280 130.47 108.42 10.68
9324 21.6300 133.46 115.13 10.81
9325 21.6320 151.42 123.41 11.59
9326 21.6340 150.31 133.90 11.47
9327 21.6360 182.36 144.89 12.67
9328 21.6380 190.54 155.71 12.91
9329 21.6400 194.66 165.21 13.04
9330 21.6420 201.55 173.71 13.33
9331 21.6440 189.90 182.92 12.92
9332 21.6460 189.68 194.50 12.92
9333 21.6480 190.89 209.17 12.93
9334 21.6500 206.01 226.99 13.46
9335 21.6520 230.35 247.76 14.22
9336 21.6540 236.97 271.05 14.45
9337 21.6560 283.84 296.31 15.81
9338 21.6580 261.72 322.52 15.05
9339 21.6600 326.22 348.39 16.92
9340 21.6620 369.60 372.13 18.03
9341 21.6640 381.47 391.95 18.33
9342 21.6660 423.82 406.48 19.33
9343 21.6680 436.24 415.17 19.58
9344 21.6700 472.79 418.52 20.36
9345 21.6720 433.53 417.74 19.63
9346 21.6740 409.85 414.26 18.96
9347 21.6760 415.57 409.23 19.19
9348 21.6780 338.10 403.27 17.10
9349 21.6800 366.15 396.48 18.02
9350 21.6820 365.88 388.57 17.95
9351 21.6840 349.00 379.08 17.55
9352 21.6860 376.27 367.76 18.26
9353 21.6880 414.73 354.67 19.06
9354 21.6900 367.18 340.34 17.95
9355 21.6920 350.91 325.58 17.68
9356 21.6940 330.29 311.39 17.10
9357 21.6960 302.18 298.76 16.31
9358 21.6980 265.92 288.45 15.30
9359 21.7000 269.25 281.01 15.30
9360 21.7020 284.71 276.54 15.85
9361 21.7040 259.96 274.59 15.09
9362 21.7060 254.83 273.85 15.04
9363 21.7080 273.10 272.07 15.46
9364 21.7100 250.12 266.71 14.75
9365 21.7120 204.96 256.28 13.47
9366 21.7140 226.65 241.37 14.13
9367 21.7160 215.41 224.39 13.74
9368 21.7180 176.04 207.68 12.37
9369 21.7200 177.26 193.02 12.48
9370 21.7220 152.06 181.38 11.55
9371 21.7240 153.69 173.28 11.61
9372 21.7260 161.90 169.01 11.89
9373 21.7280 173.15 168.72 12.35
9374 21.7300 178.85 172.64 12.48
9375 21.7320 156.54 180.64 11.75
9376 21.7340 193.26 192.01 13.02
9377 21.7360 174.82 204.93 12.40
9378 21.7380 208.95 215.53 13.49
9379 21.7400 208.20 219.02 13.49
9380 21.7420 213.22 212.91 13.68
9381 21.7440 176.74 199.22 12.49
9382 21.7460 171.94 182.55 12.27
9383 21.7480 148.53 166.68 11.39
9384 21.7500 119.41 153.34 10.19
9385 21.7520 128.14 143.02 10.61
9386 21.7540 120.20 135.55 10.29
9387 21.7560 114.79 130.27 10.06
9388 21.7580 110.55 126.73 9.85
9389 21.7600 127.66 124.34 10.54
9390 21.7620 119.51 122.61 10.24
9391 21.7640 118.63 121.24 10.20
9392 21.7660 122.51 120.13 10.38
9393 21.7680 115.07 119.41 10.06
9394 21.7700 114.26 119.08 9.99
9395 21.7720 99.12 119.23 9.38
9396 21.7740 103.29 119.75 9.53
9397 21.7760 130.77 120.31 10.74
9398 21.7780 134.78 120.74 10.86
9399 21.7800 118.82 120.92 10.22
9400 21.7820 134.33 121.11 10.91
9401 21.7840 122.13 121.80 10.38
9402 21.7860 139.16 123.51 11.07
9403 21.7880 134.31 126.73 10.89
9404 21.7900 146.72 131.92 11.34
9405 21.7920 133.45 139.64 10.91
9406 21.7940 143.32 150.37 11.25
9407 21.7960 171.90 164.63 12.31
9408 21.7980 180.61 182.73 12.61
9409 21.8000 186.70 204.55 12.78
9410 21.8020 195.28 228.85 13.14
9411 21.8040 230.26 251.99 14.26
9412 21.8060 238.08 268.55 14.55
9413 21.8080 246.21 274.26 14.75
9414 21.8100 269.29 268.80 15.32
9415 21.8120 258.84 253.74 15.18
9416 21.8140 239.12 231.67 14.45
9417 21.8160 208.65 206.07 13.55
9418 21.8180 196.43 180.96 13.11
9419 21.8200 163.54 158.91 11.99
9420 21.8220 122.82 140.80 10.42
9421 21.8240 118.58 126.46 10.21
9422 21.8260 110.32 115.31 9.85
9423 21.8280 108.12 106.71 9.73
9424 21.8300 93.65 100.02 9.07
9425 21.8320 79.15 94.86 8.39
9426 21.8340 94.07 90.77 9.07
9427 21.8360 71.82 87.50 7.96
9428 21.8380 84.79 84.85 8.62
9429 21.8400 82.57 82.68 8.50
9430 21.8420 80.48 80.89 8.44
9431 21.8440 67.00 79.39 7.70
9432 21.8460 78.57 78.14 8.35
9433 21.8480 85.02 77.09 8.63
9434 21.8500 67.27 76.21 7.70
9435 21.8520 60.74 75.48 7.34
9436 21.8540 78.42 74.88 8.33
9437 21.8560 68.15 74.39 7.76
9438 21.8580 84.00 74.01 8.63
9439 21.8600 76.83 73.73 8.16
9440 21.8620 76.74 73.54 8.24
9441 21.8640 60.09 73.45 7.30
9442 21.8660 70.87 73.46 7.91
9443 21.8680 76.71 73.58 8.24
9444 21.8700 57.28 73.83 7.04
9445 21.8720 71.26 74.24 7.98
9446 21.8740 70.05 74.82 7.85
9447 21.8760 71.97 75.60 7.99
9448 21.8780 68.99 76.57 7.75
9449 21.8800 74.62 77.61 8.13
9450 21.8820 69.65 78.44 7.81
9451 21.8840 64.78 78.81 7.58
9452 21.8860 74.36 78.73 8.10
9453 21.8880 79.55 78.48 8.36
9454 21.8900 75.04 78.34 8.12
9455 21.8920 78.83 78.41 8.34
9456 21.8940 75.27 78.72 8.19
9457 21.8960 73.50 79.25 8.06
9458 21.8980 87.56 79.98 8.74
9459 21.9000 69.57 80.90 7.82
9460 21.9020 84.57 82.02 8.66
9461 21.9040 70.43 83.30 7.88
9462 21.9060 80.73 84.82 8.49
9463 21.9080 84.28 86.58 8.59
9464 21.9100 72.01 88.59 7.96
9465 21.9120 72.69 90.90 7.97
9466 21.9140 80.98 93.57 8.41
9467 21.9160 74.66 96.70 8.10
9468 21.9180 90.50 100.37 8.88
9469 21.9200 89.04 104.75 8.85
9470 21.9220 98.47 110.02 9.34
9471 21.9240 116.63 116.47 10.12
9472 21.9260 115.98 124.40 10.09
9473 21.9280 127.56 134.26 10.58
9474 21.9300 134.29 146.55 10.78
9475 21.9320 141.48 161.78 11.17
9476 21.9340 172.99 180.60 12.33
9477 21.9360 176.58 203.50 12.42
9478 21.9380 192.50 230.79 12.98
9479 21.9400 257.35 262.40 14.90
9480 21.9420 271.83 297.67 15.42
9481 21.9440 320.20 335.46 16.82
9482 21.9460 375.02 374.73 18.20
9483 21.9480 431.77 414.96 19.44
9484 21.9500 533.73 454.79 21.71
9485 21.9520 570.87 491.53 22.49
9486 21.9540 607.50 520.87 23.07
9487 21.9560 590.20 537.94 22.85
9488 21.9580 498.95 539.03 20.97
9489 21.9600 436.88 523.16 19.42
9490 21.9620 393.76 492.52 18.61
9491 21.9640 344.40 451.97 17.45
9492 21.9660 281.26 406.88 15.67
9493 21.9680 277.10 361.74 15.56
9494 21.9700 253.41 319.38 14.89
9495 21.9720 225.91 281.23 14.11
9496 21.9740 211.94 247.84 13.64
9497 21.9760 197.96 219.34 13.24
9498 21.9780 192.35 195.56 13.02
9499 21.9800 189.99 176.09 12.91
9500 21.9820 174.88 160.39 12.42
9501 21.9840 155.20 148.04 11.74
9502 21.9860 150.02 138.57 11.48
9503 21.9880 137.99 131.62 11.01
9504 21.9900 152.16 126.91 11.58
9505 21.9920 144.07 124.32 11.33
9506 21.9940 137.86 123.88 10.99
9507 21.9960 122.61 125.79 10.36
9508 21.9980 135.14 130.40 10.89
9509 22.0000 146.53 138.17 11.38
9510 22.0020 167.37 149.21 12.13
9511 22.0040 169.13 162.45 12.24
9512 22.0060 193.95 174.62 13.07
9513 22.0080 208.71 180.97 13.53
9514 22.0100 224.62 179.40 13.98
9515 22.0120 209.31 171.91 13.66
9516 22.0140 167.67 160.68 12.15
9517 22.0160 170.42 146.82 12.25
9518 22.0180 138.12 132.21 11.00
9519 22.0200 112.84 119.03 9.97
9520 22.0220 100.88 108.26 9.45
9521 22.0240 107.77 99.91 9.79
9522 22.0260 116.57 93.58 10.09
9523 22.0280 102.35 88.81 9.53
9524 22.0300 82.28 85.21 8.46
9525 22.0320 88.56 82.46 8.91
9526 22.0340 88.45 80.35 8.88
9527 22.0360 76.80 78.73 8.23
9528 22.0380 82.52 77.48 8.49
9529 22.0400 85.55 76.46 8.70
9530 22.0420 77.81 75.80 8.29
9531 22.0440 78.08 75.39 8.29
9532 22.0460 80.33 75.18 8.42
9533 22.0480 80.95 75.15 8.44
9534 22.0500 79.28 75.28 8.33
9535 22.0520 74.97 75.51 8.14
9536 22.0540 89.49 75.80 8.89
9537 22.0560 75.33 76.11 8.14
9538 22.0580 83.51 76.39 8.57
9539 22.0600 88.95 76.55 8.83
9540 22.0620 73.42 76.80 8.08
9541 22.0640 75.47 77.12 8.15
9542 22.0660 90.50 77.60 8.92
9543 22.0680 75.63 78.34 8.17
9544 22.0700 86.48 79.36 8.68
9545 22.0720 83.95 80.70 8.60
9546 22.0740 82.85 82.27 8.55
9547 22.0760 92.92 83.91 9.07
9548 22.0780 88.41 85.33 8.79
9549 22.0800 95.03 86.18 9.14
9550 22.0820 85.90 86.21 8.69
9551 22.0840 76.47 85.40 8.22
9552 22.0860 71.08 84.03 7.96
9553 22.0880 71.86 82.45 7.96
9554 22.0900 70.43 81.00 7.84
9555 22.0920 86.92 79.86 8.71
9556 22.0940 86.26 79.14 8.71
9557 22.0960 70.84 78.91 7.88
9558 22.0980 84.55 79.04 8.62
9559 22.1000 82.34 79.75 8.48
9560 22.1020 84.37 80.91 8.59
9561 22.1040 80.09 82.48 8.39
9562 22.1060 95.69 84.43 9.24
9563 22.1080 91.56 86.63 8.90
9564 22.1100 87.54 89.18 8.77
9565 22.1120 109.61 91.91 9.79
9566 22.1140 95.24 94.71 9.16
9567 22.1160 110.78 97.47 9.83
9568 22.1180 98.75 100.11 9.29
9569 22.1200 102.73 102.54 9.43
9570 22.1220 101.56 104.79 9.43
9571 22.1240 99.12 106.89 9.30
9572 22.1260 96.64 108.92 9.23
9573 22.1280 145.70 110.89 11.32
9574 22.1300 129.43 112.73 10.64
9575 22.1320 122.79 114.26 10.38
9576 22.1340 95.86 115.18 9.18
9577 22.1360 105.07 115.15 9.58
9578 22.1380 114.05 113.90 9.98
9579 22.1400 96.91 111.36 9.21
9580 22.1420 107.48 107.74 9.71
9581 22.1440 81.78 103.35 8.46
9582 22.1460 89.44 98.60 8.84
9583 22.1480 83.54 93.83 8.54
9584 22.1500 83.20 89.26 8.53
9585 22.1520 86.71 85.06 8.73
9586 22.1540 86.26 81.32 8.72
9587 22.1560 82.52 78.05 8.48
9588 22.1580 90.81 75.26 8.91
9589 22.1600 88.61 72.93 8.77
9590 22.1620 72.45 71.01 7.99
9591 22.1640 64.08 69.49 7.50
9592 22.1660 77.38 68.24 8.24
9593 22.1680 82.77 67.34 8.54
9594 22.1700 70.29 66.69 7.87
9595 22.1720 70.38 66.23 7.85
9596 22.1740 58.51 65.90 7.22
9597 22.1760 84.79 65.62 8.63
9598 22.1780 67.46 65.31 7.67
9599 22.1800 72.83 64.93 7.98
9600 22.1820 77.68 64.50 8.31
9601 22.1840 67.97 64.08 7.72
9602 22.1860 73.31 63.70 8.03
9603 22.1880 70.47 63.42 7.88
9604 22.1900 67.99 63.26 7.72
9605 22.1920 47.00 63.23 6.46
9606 22.1940 62.00 63.35 7.36
9607 22.1960 70.01 63.62 7.86
9608 22.1980 68.51 64.06 7.74
9609 22.2000 79.26 64.69 8.37
9610 22.2020 72.76 65.51 8.00
9611 22.2040 56.14 66.53 7.07
9612 22.2060 65.09 67.74 7.56
9613 22.2080 78.48 69.13 8.25
9614 22.2100 62.30 70.63 7.37
9615 22.2120 62.74 72.15 7.44
9616 22.2140 77.55 73.53 8.26
9617 22.2160 81.04 74.58 8.39
9618 22.2180 69.83 75.16 7.84
9619 22.2200 61.33 75.24 7.32
9620 22.2220 66.79 74.91 7.68
9621 22.2240 78.74 74.36 8.32
9622 22.2260 73.66 73.87 8.07
9623 22.2280 61.16 73.42 7.30
9624 22.2300 50.41 73.20 6.66
9625 22.2320 67.62 73.24 7.76
9626 22.2340 84.60 73.56 8.65
9627 22.2360 74.66 74.13 8.11
9628 22.2380 83.69 74.88 8.60
9629 22.2400 76.43 75.74 8.17
9630 22.2420 79.42 76.60 8.34
9631 22.2440 73.84 77.34 8.06
9632 22.2460 82.67 77.82 8.54
9633 22.2480 75.00 77.95 8.12
9634 22.2500 77.57 77.65 8.27
9635 22.2520 64.36 76.95 7.54
9636 22.2540 56.75 75.85 7.09
9637 22.2560 71.18 74.51 7.92
9638 22.2580 63.34 73.02 7.44
9639 22.2600 56.60 71.48 7.06
9640 22.2620 61.21 69.92 7.36
9641 22.2640 60.99 68.29 7.33
9642 22.2660 80.25 66.98 8.43
9643 22.2680 61.15 65.82 7.37
9644 22.2700 60.68 64.83 7.29
9645 22.2720 68.58 64.00 7.81
9646 22.2740 68.72 63.34 7.81
9647 22.2760 57.60 62.84 7.11
9648 22.2780 55.78 62.49 7.00
9649 22.2800 65.47 62.28 7.62
9650 22.2820 63.61 62.19 7.49
9651 22.2840 55.25 62.22 6.99
9652 22.2860 58.52 62.35 7.19
9653 22.2880 57.80 62.54 7.17
9654 22.2900 54.74 62.78 6.91
9655 22.2920 78.20 63.03 8.31
9656 22.2940 64.71 63.25 7.61
9657 22.2960 66.56 63.39 7.66
9658 22.2980 76.51 63.44 8.16
9659 22.3000 71.22 63.37 7.93
9660 22.3020 67.40 63.20 7.67
9661 22.3040 55.97 62.95 7.05
9662 22.3060 69.66 62.66 7.83
9663 22.3080 58.79 62.37 7.20
9664 22.3100 52.19 62.10 6.78
9665 22.3120 57.34 61.87 7.10
9666 22.3140 56.57 61.69 7.07
9667 22.3160 67.32 61.58 7.70
9668 22.3180 69.22 61.53 7.79
9669 22.3200 66.93 61.55 7.69
9670 22.3220 57.01 61.65 7.04
9671 22.3240 46.55 61.83 6.44
9672 22.3260 53.21 62.08 6.86
9673 22.3280 57.48 62.43 7.12
9674 22.3300 62.61 62.87 7.39
9675 22.3320 74.44 63.42 8.11
9676 22.3340 74.60 64.10 8.14
9677 22.3360 72.14 64.92 7.99
9678 22.3380 68.38 65.93 7.74
9679 22.3400 78.32 67.15 8.30
9680 22.3420 70.50 68.62 7.83
9681 22.3440 77.34 70.40 8.29
9682 22.3460 72.81 72.54 7.97
9683 22.3480 82.26 75.10 8.49
9684 22.3500 89.77 78.15 8.82
9685 22.3520 76.85 81.76 8.23
9686 22.3540 89.26 86.00 8.85
9687 22.3560 91.98 90.92 8.95
9688 22.3580 109.20 96.53 9.75
9689 22.3600 111.68 102.78 9.86
9690 22.3620 101.98 109.58 9.46
9691 22.3640 123.10 116.76 10.40
9692 22.3660 136.76 124.17 10.95
9693 22.3680 156.55 132.95 11.66
9694 22.3700 149.04 140.40 11.40
9695 22.3720 188.09 147.47 12.78
9696 22.3740 146.75 153.47 11.37
9697 22.3760 136.07 157.38 10.91
9698 22.3780 151.63 158.15 11.52
9699 22.3800 156.63 155.26 11.69
9700 22.3820 128.95 149.11 10.63
9701 22.3840 127.25 140.85 10.55
9702 22.3860 132.86 131.75 10.80
9703 22.3880 109.18 122.92 9.79
9704 22.3900 101.58 115.03 9.38
9705 22.3920 93.69 108.49 9.04
9706 22.3940 87.94 103.55 8.80
9707 22.3960 104.74 100.37 9.56
9708 22.3980 107.20 99.15 9.64
9709 22.4000 113.51 99.85 10.00
9710 22.4020 100.42 103.43 9.35
9711 22.4040 111.69 109.94 9.85
9712 22.4060 122.97 119.59 10.39
9713 22.4080 126.40 131.76 10.49
9714 22.4100 159.70 143.93 11.74
9715 22.4120 180.10 151.04 12.53
9716 22.4140 179.27 148.56 12.65
9717 22.4160 141.21 137.52 11.09
9718 22.4180 147.03 123.20 11.27
9719 22.4200 129.87 109.80 10.64
9720 22.4220 109.17 98.98 9.74
9721 22.4240 91.06 90.81 8.92
9722 22.4260 82.57 84.91 8.49
9723 22.4280 83.82 80.75 8.52
9724 22.4300 82.00 77.91 8.46
9725 22.4320 82.73 76.04 8.49
9726 22.4340 78.05 74.91 8.31
9727 22.4360 71.06 74.36 7.91
9728 22.4380 77.16 74.31 8.19
9729 22.4400 77.38 74.71 8.18
9730 22.4420 72.42 75.54 7.97
9731 22.4440 71.23 76.79 7.92
9732 22.4460 74.70 78.41 8.09
9733 22.4480 83.72 80.38 8.54
9734 22.4500 88.44 82.56 8.77
9735 22.4520 93.63 84.77 9.04
9736 22.4540 99.29 86.69 9.34
9737 22.4560 78.75 87.96 8.29
9738 22.4580 100.43 88.38 9.35
9739 22.4600 92.14 87.99 8.94
9740 22.4620 99.42 87.14 9.35
9741 22.4640 80.38 86.26 8.39
9742 22.4660 85.45 85.73 8.67
9743 22.4680 92.34 86.39 8.97
9744 22.4700 95.44 87.19 9.16
9745 22.4720 80.97 88.86 8.42
9746 22.4740 93.45 91.59 9.07
9747 22.4760 96.74 95.73 9.15
9748 22.4780 90.57 101.39 8.94
9749 22.4800 94.59 108.47 9.07
9750 22.4820 110.87 115.94 9.93
9751 22.4840 110.28 121.54 9.82
9752 22.4860 130.20 122.80 10.74
9753 22.4880 99.15 119.38 9.34
9754 22.4900 107.10 113.24 9.66
9755 22.4920 110.01 106.46 9.88
9756 22.4940 99.35 100.09 9.35
9757 22.4960 87.01 94.42 8.73
9758 22.4980 98.08 89.49 9.30
9759 22.5000 68.68 85.24 7.76
9760 22.5020 70.29 81.61 7.85
9761 22.5040 66.93 78.54 7.67
9762 22.5060 80.74 75.96 8.43
9763 22.5080 77.32 73.80 8.24
9764 22.5100 75.15 72.01 8.07
9765 22.5120 81.89 70.55 8.62
9766 22.5140 78.75 69.35 8.28
9767 22.5160 74.48 68.40 8.09
9768 22.5180 62.17 67.63 7.42
9769 22.5200 66.33 67.01 7.63
9770 22.5220 66.81 66.51 7.76
9771 22.5240 68.17 66.10 7.72
9772 22.5260 64.56 65.76 7.55
9773 22.5280 58.64 65.47 7.21
9774 22.5300 58.70 65.22 7.20
9775 22.5320 69.58 65.01 7.91
9776 22.5340 67.29 64.84 7.74
9777 22.5360 64.37 64.80 7.52
9778 22.5380 62.54 64.69 7.44
9779 22.5400 69.07 64.62 7.79
9780 22.5420 60.21 64.59 7.34
9781 22.5440 57.67 64.58 7.11
9782 22.5460 66.77 64.61 7.69
9783 22.5480 61.75 64.67 7.39
9784 22.5500 56.68 64.75 7.07
9785 22.5520 63.54 64.98 7.61
9786 22.5540 70.59 65.13 7.91
9787 22.5560 75.27 65.31 8.17
9788 22.5580 69.65 65.51 7.88
9789 22.5600 67.29 65.75 7.72
9790 22.5620 66.69 66.02 7.72
9791 22.5640 84.15 66.32 8.65
9792 22.5660 66.81 66.65 7.70
9793 22.5680 71.62 67.02 7.96
9794 22.5700 64.48 67.42 7.57
9795 22.5720 71.02 67.86 7.99
9796 22.5740 67.96 68.34 7.77
9797 22.5760 82.67 68.87 8.55
9798 22.5780 73.98 69.45 8.09
9799 22.5800 75.26 70.09 8.14
9800 22.5820 68.65 70.79 7.84
9801 22.5840 68.36 71.56 7.76
9802 22.5860 85.19 72.41 8.72
9803 22.5880 77.01 73.37 8.27
9804 22.5900 77.58 74.43 8.27
9805 22.5920 87.27 75.64 8.84
9806 22.5940 82.92 77.03 8.58
9807 22.5960 75.33 78.65 8.20
9808 22.5980 88.49 80.58 8.85
9809 22.6000 85.32 82.93 8.64
9810 22.6020 90.29 85.85 8.96
9811 22.6040 104.35 89.57 9.61
9812 22.6060 102.17 94.30 9.50
9813 22.6080 94.48 100.31 9.15
9814 22.6100 106.79 107.64 9.67
9815 22.6120 118.23 115.94 10.26
9816 22.6140 151.09 123.69 11.54
9817 22.6160 127.37 128.39 10.60
9818 22.6180 163.53 128.60 12.04
9819 22.6200 156.01 125.69 11.67
9820 22.6220 135.37 122.31 10.94
9821 22.6240 143.81 120.09 11.27
9822 22.6260 133.20 119.69 10.84
9823 22.6280 144.37 121.20 11.24
9824 22.6300 159.87 124.60 11.82
9825 22.6320 159.92 129.87 11.89
9826 22.6340 162.77 137.06 11.99
9827 22.6360 152.44 146.25 11.55
9828 22.6380 149.77 157.59 11.47
9829 22.6400 183.92 171.28 12.67
9830 22.6420 200.48 187.45 13.31
9831 22.6440 209.79 206.15 13.64
9832 22.6460 196.85 227.26 13.13
9833 22.6480 234.24 250.35 14.35
9834 22.6500 245.40 274.57 14.64
9835 22.6520 273.40 298.48 15.57
9836 22.6540 312.22 320.45 16.55
9837 22.6560 338.25 339.06 17.27
9838 22.6580 384.99 353.88 18.41
9839 22.6600 374.09 365.82 18.02
9840 22.6620 370.31 376.49 18.00
9841 22.6640 386.30 387.84 18.53
9842 22.6660 341.31 401.07 17.24
9843 22.6680 344.74 416.71 17.47
9844 22.6700 356.28 434.67 17.69
9845 22.6720 370.02 454.24 18.09
9846 22.6740 424.15 474.49 19.38
9847 22.6760 445.60 494.33 19.79
9848 22.6780 443.48 512.86 19.79
9849 22.6800 484.86 529.51 20.59
9850 22.6820 565.91 544.19 22.23
9851 22.6840 589.88 557.36 22.84
9852 22.6860 593.28 569.67 22.83
9853 22.6880 620.60 581.55 23.41
9854 22.6900 714.28 592.42 24.88
9855 22.6920 707.89 600.34 25.13
9856 22.6940 640.85 602.22 23.74
9857 22.6960 571.04 595.00 22.40
9858 22.6980 543.74 577.36 21.89
9859 22.7000 480.78 550.39 20.46
9860 22.7020 493.40 516.64 20.71
9861 22.7040 455.60 479.07 20.07
9862 22.7060 432.85 440.42 19.51
9863 22.7080 366.36 403.84 17.91
9864 22.7100 353.63 372.32 17.50
9865 22.7120 343.14 348.10 17.43
9866 22.7140 346.01 332.67 17.52
9867 22.7160 341.09 326.96 17.30
9868 22.7180 341.04 331.58 17.34
9869 22.7200 351.62 346.91 17.50
9870 22.7220 365.30 372.81 17.91
9871 22.7240 459.65 407.89 20.11
9872 22.7260 446.03 449.09 19.82
9873 22.7280 499.37 491.20 20.93
9874 22.7300 607.06 527.27 23.04
9875 22.7320 605.54 548.15 23.04
9876 22.7340 611.89 545.52 23.35
9877 22.7360 517.67 517.62 21.34
9878 22.7380 448.19 471.49 19.81
9879 22.7400 388.51 417.71 18.42
9880 22.7420 310.05 365.04 16.52
9881 22.7440 284.51 318.16 15.84
9882 22.7460 250.25 278.69 14.79
9883 22.7480 238.82 246.71 14.50
9884 22.7500 216.49 221.24 13.74
9885 22.7520 216.05 200.90 13.81
9886 22.7540 223.39 184.20 14.00
9887 22.7560 179.93 169.97 12.55
9888 22.7580 181.36 157.44 12.60
9889 22.7600 168.09 146.38 12.08
9890 22.7620 157.74 136.78 11.80
9891 22.7640 145.88 128.46 11.34
9892 22.7660 146.65 121.34 11.40
9893 22.7680 132.98 115.28 10.73
9894 22.7700 126.70 111.13 10.52
9895 22.7720 120.53 106.83 10.28
9896 22.7740 115.02 103.22 10.06
9897 22.7760 111.12 100.23 9.87
9898 22.7780 93.62 97.77 9.07
9899 22.7800 99.55 95.74 9.30
9900 22.7820 108.30 94.21 9.78
9901 22.7840 119.90 93.11 10.28
9902 22.7860 109.41 92.43 9.81
9903 22.7880 109.64 92.18 9.84
9904 22.7900 103.58 92.40 9.53
9905 22.7920 90.80 93.10 8.96
9906 22.7940 107.91 94.31 9.75
9907 22.7960 91.48 96.02 8.97
9908 22.7980 101.65 98.19 9.42
9909 22.8000 102.14 100.69 9.45
9910 22.8020 111.53 103.42 9.85
9911 22.8040 107.14 106.22 9.73
9912 22.8060 122.37 108.80 10.33
9913 22.8080 113.63 110.50 9.95
9914 22.8100 123.48 110.60 10.34
9915 22.8120 117.22 109.04 10.14
9916 22.8140 119.47 106.62 10.29
9917 22.8160 114.23 104.12 9.99
9918 22.8180 118.48 101.94 10.15
9919 22.8200 122.20 100.18 10.29
9920 22.8220 98.75 98.83 9.29
9921 22.8240 120.58 97.84 10.25
9922 22.8260 100.56 97.22 9.43
9923 22.8280 113.66 96.97 9.96
9924 22.8300 113.45 97.08 9.91
9925 22.8320 118.30 97.56 10.17
9926 22.8340 113.81 98.42 10.04
9927 22.8360 133.26 99.69 10.78
9928 22.8380 141.66 101.40 11.15
9929 22.8400 125.75 103.61 10.44
9930 22.8420 132.76 106.22 10.74
9931 22.8440 140.60 109.29 11.14
9932 22.8460 119.72 112.77 10.26
9933 22.8480 117.54 116.63 10.20
9934 22.8500 138.71 120.85 10.98
9935 22.8520 133.63 125.41 10.79
9936 22.8540 129.09 130.38 10.67
9937 22.8560 152.72 135.84 11.56
9938 22.8580 166.63 141.85 12.07
9939 22.8600 172.18 148.26 12.28
9940 22.8620 179.08 154.66 12.45
9941 22.8640 186.29 160.20 12.80
9942 22.8660 191.43 163.86 12.96
9943 22.8680 211.95 164.92 13.61
9944 22.8700 172.59 163.48 12.30
9945 22.8720 157.63 160.05 11.70
9946 22.8740 154.35 155.48 11.62
9947 22.8760 129.36 150.61 10.63
9948 22.8780 154.81 146.26 11.66
9949 22.8800 139.33 142.99 10.97
9950 22.8820 154.59 140.86 11.60
9951 22.8840 146.05 139.15 11.35
9952 22.8860 148.59 136.38 11.43
9953 22.8880 150.21 131.44 11.46
9954 22.8900 136.03 124.61 10.91
9955 22.8920 125.57 117.13 10.50
9956 22.8940 105.16 110.10 9.60
9957 22.8960 125.14 104.03 10.42
9958 22.8980 116.95 99.15 10.13
9959 22.9000 121.52 95.45 10.25
9960 22.9020 104.34 92.89 9.57
9961 22.9040 107.78 91.37 9.72
9962 22.9060 91.75 90.79 8.98
9963 22.9080 112.38 91.07 9.96
9964 22.9100 124.13 92.20 10.38
9965 22.9120 112.15 94.19 9.96
9966 22.9140 100.62 96.98 9.42
9967 22.9160 116.23 100.17 10.08
9968 22.9180 101.59 102.67 9.40
9969 22.9200 104.58 103.09 9.49
9970 22.9220 114.82 100.74 10.06
9971 22.9240 100.15 96.37 9.39
9972 22.9260 82.71 91.42 8.57
9973 22.9280 107.48 86.92 9.70
9974 22.9300 101.46 83.30 9.40
9975 22.9320 94.04 80.61 9.13
9976 22.9340 79.40 78.74 8.37
9977 22.9360 92.56 77.54 9.00
9978 22.9380 84.71 76.86 8.64
9979 22.9400 68.51 76.56 7.72
9980 22.9420 75.50 76.48 8.16
9981 22.9440 89.73 76.44 8.86
9982 22.9460 87.76 76.29 8.84
9983 22.9480 83.23 75.90 8.54
9984 22.9500 74.74 75.24 8.06
9985 22.9520 83.49 74.35 8.59
9986 22.9540 109.92 73.34 9.88
9987 22.9560 97.23 72.34 9.29
9988 22.9580 87.34 71.41 8.77
9989 22.9600 72.44 70.61 7.96
9990 22.9620 77.12 69.94 8.24
9991 22.9640 60.64 69.43 7.31
9992 22.9660 75.20 69.06 8.18
9993 22.9680 72.28 68.83 7.97
9994 22.9700 79.86 68.73 8.35
9995 22.9720 71.51 68.75 7.94
9996 22.9740 84.70 68.89 8.64
9997 22.9760 63.29 69.14 7.48
9998 22.9780 81.48 69.49 8.47
9999 22.9800 64.43 69.95 7.49
10000 22.9820 75.20 70.52 8.13
10001 22.9840 92.21 71.23 8.98
10002 22.9860 78.26 72.08 8.35
10003 22.9880 74.93 73.08 8.09
10004 22.9900 92.89 74.32 8.99
10005 22.9920 74.39 75.81 8.05
10006 22.9940 90.75 77.61 8.98
10007 22.9960 82.69 79.79 8.52
10008 22.9980 98.38 82.51 9.33
10009 23.0000 101.12 85.92 9.36
10010 23.0020 105.99 90.27 9.62
10011 23.0040 97.27 95.93 9.29
10012 23.0060 113.07 103.38 9.99
10013 23.0080 117.97 113.30 10.20
10014 23.0100 131.02 126.49 10.68
10015 23.0120 151.74 143.69 11.54
10016 23.0140 160.80 165.29 11.84
10017 23.0160 165.91 190.11 12.16
10018 23.0180 212.50 214.10 13.59
10019 23.0200 241.52 230.09 14.48
10020 23.0220 249.18 231.79 14.75
10021 23.0240 217.85 219.39 13.88
10022 23.0260 169.99 199.91 12.27
10023 23.0280 167.41 180.54 12.13
10024 23.0300 163.02 164.92 11.86
10025 23.0320 155.47 153.52 11.67
10026 23.0340 131.41 145.41 10.81
10027 23.0360 148.84 139.24 11.42
10028 23.0380 160.82 133.81 11.86
10029 23.0400 148.44 128.60 11.32
10030 23.0420 132.02 123.55 10.75
10031 23.0440 132.84 119.05 10.80
10032 23.0460 143.04 115.30 11.24
10033 23.0480 121.72 112.47 10.39
10034 23.0500 116.86 110.68 10.07
10035 23.0520 104.55 110.00 9.54
10036 23.0540 113.11 110.50 10.02
10037 23.0560 112.91 112.24 9.94
10038 23.0580 106.54 115.33 9.64
10039 23.0600 112.61 119.95 9.88
10040 23.0620 127.77 126.32 10.53
10041 23.0640 155.91 134.69 11.69
10042 23.0660 148.54 145.42 11.46
10043 23.0680 164.59 158.82 12.04
10044 23.0700 146.68 175.24 11.21
10045 23.0720 172.76 194.88 12.32
10046 23.0740 214.11 217.91 13.70
10047 23.0760 208.01 244.12 13.51
10048 23.0780 248.61 272.84 14.65
10049 23.0800 265.13 302.38 15.14
10050 23.0820 290.78 331.18 15.93
10051 23.0840 373.76 355.44 18.19
10052 23.0860 405.38 371.39 18.97
10053 23.0880 472.54 376.13 20.29
10054 23.0900 453.16 369.08 19.82
10055 23.0920 397.25 352.42 18.61
10056 23.0940 342.65 329.84 17.38
10057 23.0960 322.74 305.19 16.78
10058 23.0980 314.80 281.38 16.62
10059 23.1000 241.25 260.24 14.39
10060 23.1020 250.78 242.81 14.79
10061 23.1040 214.60 229.42 13.74
10062 23.1060 191.16 220.10 13.00
10063 23.1080 207.48 214.37 13.44
10064 23.1100 186.11 212.22 12.72
10065 23.1120 201.61 212.88 13.23
10066 23.1140 196.84 215.64 13.14
10067 23.1160 200.01 219.68 13.33
10068 23.1180 240.40 224.09 14.39
10069 23.1200 207.95 227.86 13.33
10070 23.1220 227.39 230.08 14.02
10071 23.1240 257.77 230.02 15.08
10072 23.1260 226.76 227.34 14.09
10073 23.1280 255.26 222.14 14.90
10074 23.1300 265.45 214.92 15.08
10075 23.1320 239.13 206.37 14.43
10076 23.1340 179.95 197.28 12.59
10077 23.1360 183.41 188.32 12.69
10078 23.1380 192.30 180.10 12.90
10079 23.1400 157.89 173.05 11.66
10080 23.1420 159.19 167.55 11.69
10081 23.1440 181.84 163.88 12.66
10082 23.1460 139.82 162.28 11.10
10083 23.1480 159.47 162.93 11.80
10084 23.1500 150.96 165.99 11.36
10085 23.1520 134.90 171.54 10.82
10086 23.1540 165.03 179.61 12.04
10087 23.1560 170.56 190.17 12.23
10088 23.1580 167.79 203.03 12.06
10089 23.1600 180.59 217.85 12.46
10090 23.1620 188.57 233.96 12.77
10091 23.1640 211.40 250.48 13.60
10092 23.1660 237.08 266.03 14.46
10093 23.1680 257.11 279.01 14.97
10094 23.1700 261.66 287.82 14.98
10095 23.1720 253.81 291.38 14.89
10096 23.1740 315.89 289.20 16.67
10097 23.1760 283.28 281.81 15.72
10098 23.1780 287.75 270.18 15.79
10099 23.1800 306.01 255.51 16.25
10100 23.1820 241.52 238.94 14.49
10101 23.1840 202.11 221.50 13.27
10102 23.1860 210.76 204.09 13.59
10103 23.1880 173.09 187.40 12.34
10104 23.1900 200.41 171.99 13.08
10105 23.1920 127.71 158.14 10.64
10106 23.1940 144.79 146.03 11.30
10107 23.1960 112.88 135.71 9.91
10108 23.1980 109.87 127.09 9.82
10109 23.2000 106.06 120.15 9.55
10110 23.2020 111.69 114.46 9.91
10111 23.2040 113.33 109.84 9.95
10112 23.2060 114.96 105.92 10.08
10113 23.2080 93.82 102.36 9.01
10114 23.2100 83.69 99.03 8.52
10115 23.2120 95.79 95.86 9.21
10116 23.2140 96.86 92.98 9.23
10117 23.2160 93.35 90.51 9.06
10118 23.2180 100.14 88.51 9.36
10119 23.2200 77.64 87.00 8.18
10120 23.2220 65.28 85.90 7.63
10121 23.2240 74.14 85.13 8.07
10122 23.2260 66.77 84.41 7.69
10123 23.2280 84.12 83.78 8.60
10124 23.2300 91.81 82.95 8.88
10125 23.2320 75.17 81.77 8.24
10126 23.2340 72.70 80.25 8.00
10127 23.2360 78.57 78.47 8.34
10128 23.2380 71.76 76.56 7.93
10129 23.2400 84.13 74.66 8.53
10130 23.2420 78.95 72.85 8.38
10131 23.2440 64.44 71.19 7.54
10132 23.2460 68.04 69.69 7.85
10133 23.2480 58.24 68.37 7.14
10134 23.2500 54.16 67.22 6.90
10135 23.2520 70.41 66.22 7.93
10136 23.2540 53.14 65.35 6.90
10137 23.2560 57.23 64.60 7.13
10138 23.2580 52.76 63.96 6.84
10139 23.2600 55.71 63.39 6.95
10140 23.2620 61.66 62.90 7.45
10141 23.2640 69.93 62.46 7.85
10142 23.2660 57.18 62.06 7.15
10143 23.2680 70.22 61.71 7.89
10144 23.2700 49.15 61.40 6.54
10145 23.2720 67.94 61.11 7.78
10146 23.2740 61.12 60.85 7.38
10147 23.2760 57.00 60.53 7.12
10148 23.2780 53.16 60.31 6.84
10149 23.2800 59.67 60.09 7.22
10150 23.2820 73.81 59.91 8.08
10151 23.2840 62.26 59.74 7.43
10152 23.2860 55.69 59.58 7.04
10153 23.2880 56.83 59.44 7.08
10154 23.2900 55.60 59.30 6.95
10155 23.2920 53.44 59.18 6.91
10156 23.2940 62.90 59.07 7.47
10157 23.2960 59.30 58.97 7.26
10158 23.2980 65.10 58.88 7.60
10159 23.3000 53.31 58.80 6.81
10160 23.3020 54.51 58.73 6.92
10161 23.3040 56.95 58.66 7.06
10162 23.3060 62.24 58.61 7.46
10163 23.3080 65.77 58.56 7.61
10164 23.3100 55.90 58.53 6.96
10165 23.3120 64.80 58.50 7.61
10166 23.3140 68.94 58.48 7.83
10167 23.3160 64.14 58.46 7.52
10168 23.3180 64.12 58.46 7.52
10169 23.3200 65.05 58.47 7.53
10170 23.3220 57.70 58.48 7.17
10171 23.3240 73.32 58.51 8.04
10172 23.3260 61.05 58.55 7.37
10173 23.3280 63.53 58.60 7.49
10174 23.3300 49.86 58.66 6.58
10175 23.3320 73.49 58.75 8.11
10176 23.3340 59.97 58.85 7.26
10177 23.3360 62.49 58.96 7.43
10178 23.3380 59.10 59.11 7.22
10179 23.3400 63.06 59.29 7.38
10180 23.3420 59.68 59.47 7.33
10181 23.3440 60.72 59.72 7.32
10182 23.3460 65.41 60.06 7.60
10183 23.3480 55.54 60.42 6.99
10184 23.3500 55.70 60.84 6.99
10185 23.3520 65.80 61.34 7.65
10186 23.3540 54.94 61.92 6.97
10187 23.3560 66.10 62.59 7.65
10188 23.3580 67.27 63.37 7.70
10189 23.3600 60.43 64.33 7.25
10190 23.3620 62.45 65.43 7.46
10191 23.3640 61.71 66.56 7.39
10192 23.3660 77.76 67.85 8.29
10193 23.3680 66.06 69.25 7.67
10194 23.3700 68.27 70.77 7.72
10195 23.3720 69.74 72.40 7.93
10196 23.3740 72.25 74.14 7.98
10197 23.3760 89.52 75.95 8.92
10198 23.3780 68.09 77.80 7.74
10199 23.3800 74.08 79.64 8.04
10200 23.3820 75.94 81.43 8.21
10201 23.3840 54.58 83.07 6.98
10202 23.3860 72.15 84.56 7.97
10203 23.3880 79.16 85.80 8.38
10204 23.3900 85.99 86.74 8.67
10205 23.3920 102.16 87.36 9.51
10206 23.3940 93.55 87.63 9.10
10207 23.3960 90.91 87.58 8.99
10208 23.3980 100.14 87.13 9.44
10209 23.4000 87.61 86.46 8.70
10210 23.4020 83.58 85.41 8.70
10211 23.4040 77.77 84.13 8.31
10212 23.4060 91.60 82.69 8.98
10213 23.4080 78.88 81.14 8.38
10214 23.4100 69.28 79.56 7.81
10215 23.4120 71.48 78.00 7.98
10216 23.4140 65.90 76.49 7.64
10217 23.4160 68.37 75.07 7.80
10218 23.4180 75.52 73.77 8.17
10219 23.4200 72.14 72.61 7.96
10220 23.4220 80.66 71.59 8.43
10221 23.4240 68.23 70.73 7.83
10222 23.4260 72.93 70.04 8.03
10223 23.4280 74.74 69.51 8.15
10224 23.4300 77.75 69.14 8.24
10225 23.4320 55.81 68.95 7.08
10226 23.4340 50.27 68.93 6.69
10227 23.4360 62.37 69.10 7.42
10228 23.4380 80.88 69.45 8.51
10229 23.4400 75.70 70.01 8.13
10230 23.4420 77.77 70.81 8.28
10231 23.4440 79.66 71.86 8.43
10232 23.4460 83.17 73.22 8.58
10233 23.4480 77.35 74.96 8.27
10234 23.4500 82.48 77.28 8.50
10235 23.4520 84.94 80.07 8.67
10236 23.4540 87.12 83.59 8.80
10237 23.4560 83.49 88.07 8.54
10238 23.4580 83.78 93.74 8.62
10239 23.4600 108.80 100.91 9.72
10240 23.4620 118.53 109.85 10.20
10241 23.4640 107.85 120.70 9.78
10242 23.4660 106.80 133.32 9.72
10243 23.4680 147.23 146.72 11.37
10244 23.4700 147.62 158.82 11.37
10245 23.4720 169.31 167.16 12.22
10246 23.4740 165.43 170.79 12.05
10247 23.4760 180.72 171.54 12.59
10248 23.4780 148.06 172.66 11.46
10249 23.4800 139.37 176.79 10.98
10250 23.4820 171.25 184.94 12.23
10251 23.4840 184.23 196.05 12.78
10252 23.4860 205.72 206.55 13.48
10253 23.4880 252.66 210.72 14.97
10254 23.4900 242.10 204.34 14.62
10255 23.4920 218.17 188.52 13.85
10256 23.4940 176.34 168.36 12.49
10257 23.4960 153.96 148.61 11.64
10258 23.4980 128.67 131.65 10.67
10259 23.5000 96.24 117.95 9.15
10260 23.5020 111.96 107.24 9.94
10261 23.5040 101.56 99.00 9.48
10262 23.5060 93.56 92.67 9.11
10263 23.5080 93.84 87.83 9.13
10264 23.5100 83.33 83.89 8.54
10265 23.5120 77.86 81.07 8.31
10266 23.5140 79.86 78.84 8.38
10267 23.5160 81.31 77.12 8.49
10268 23.5180 82.37 75.76 8.54
10269 23.5200 65.38 74.69 7.55
10270 23.5220 77.27 73.84 8.24
10271 23.5240 71.77 73.16 7.96
10272 23.5260 63.07 72.62 7.43
10273 23.5280 70.09 72.22 7.90
10274 23.5300 64.17 71.96 7.50
10275 23.5320 68.86 71.88 7.77
10276 23.5340 65.05 71.99 7.61
10277 23.5360 62.73 72.34 7.45
10278 23.5380 73.97 72.97 8.11
10279 23.5400 60.35 73.92 7.26
10280 23.5420 72.32 75.22 7.99
10281 23.5440 80.77 76.91 8.45
10282 23.5460 73.57 79.01 8.01
10283 23.5480 89.07 81.52 8.93
10284 23.5500 72.36 84.40 7.96
10285 23.5520 91.97 87.60 8.93
10286 23.5540 106.45 90.96 9.73
10287 23.5560 105.70 94.30 9.64
10288 23.5580 98.78 97.33 9.33
10289 23.5600 95.44 99.72 9.13
10290 23.5620 107.12 101.18 9.65
10291 23.5640 83.45 101.52 8.59
10292 23.5660 82.75 100.79 8.56
10293 23.5680 83.84 99.30 8.65
10294 23.5700 95.00 97.42 9.15
10295 23.5720 82.25 95.59 8.47
10296 23.5740 92.52 94.15 9.08
10297 23.5760 90.87 93.37 8.91
10298 23.5780 86.84 93.45 8.77
10299 23.5800 94.04 94.52 9.07
10300 23.5820 94.77 96.65 9.13
10301 23.5840 104.67 99.81 9.65
10302 23.5860 112.29 103.77 9.97
10303 23.5880 112.63 108.06 9.99
10304 23.5900 138.61 111.88 11.02
10305 23.5920 116.09 114.24 10.16
10306 23.5940 110.47 114.62 9.89
10307 23.5960 122.31 113.52 10.36
10308 23.5980 125.90 112.17 10.59
10309 23.6000 110.23 111.82 9.80
10310 23.6020 113.62 113.41 9.96
10311 23.6040 141.85 117.25 11.25
10312 23.6060 135.60 123.57 10.96
10313 23.6080 138.18 131.88 11.06
10314 23.6100 161.69 140.76 11.90
10315 23.6120 143.48 148.11 11.20
10316 23.6140 151.98 152.90 11.60
10317 23.6160 155.37 156.22 11.72
10318 23.6180 186.22 158.34 12.84
10319 23.6200 178.93 159.00 12.55
10320 23.6220 156.71 157.63 11.70
10321 23.6240 184.15 155.12 12.76
10322 23.6260 129.33 152.84 10.72
10323 23.6280 171.32 150.57 12.36
10324 23.6300 165.43 146.28 12.08
10325 23.6320 153.48 138.36 11.57
10326 23.6340 122.60 127.75 10.42
10327 23.6360 103.66 116.73 9.56
10328 23.6380 97.68 106.98 9.27
10329 23.6400 84.99 99.02 8.65
10330 23.6420 82.36 92.77 8.49
10331 23.6440 93.12 87.94 9.08
10332 23.6460 72.50 84.25 8.00
10333 23.6480 72.74 81.46 8.04
10334 23.6500 90.47 79.40 8.93
10335 23.6520 95.12 77.94 9.11
10336 23.6540 79.01 76.88 8.36
10337 23.6560 71.11 76.67 7.94
10338 23.6580 60.49 76.60 7.30
10339 23.6600 63.06 76.95 7.45
10340 23.6620 87.46 77.69 8.71
10341 23.6640 81.56 78.84 8.48
10342 23.6660 70.22 80.41 7.83
10343 23.6680 85.23 82.41 8.69
10344 23.6700 78.92 84.87 8.32
10345 23.6720 87.84 87.82 8.72
10346 23.6740 89.06 91.28 8.86
10347 23.6760 99.20 95.20 9.36
10348 23.6780 85.21 99.75 8.67
10349 23.6800 121.92 104.75 10.31
10350 23.6820 123.94 109.92 10.40
10351 23.6840 107.52 114.74 9.74
10352 23.6860 116.50 118.30 10.16
10353 23.6880 115.33 119.62 10.12
10354 23.6900 115.21 118.15 10.06
10355 23.6920 111.79 114.12 9.85
10356 23.6940 90.46 108.52 8.94
10357 23.6960 86.39 102.36 8.76
10358 23.6980 97.89 96.42 9.30
10359 23.7000 86.76 91.15 8.71
10360 23.7020 76.29 86.66 8.17
10361 23.7040 89.73 82.98 8.90
10362 23.7060 74.13 79.99 8.10
10363 23.7080 86.41 77.59 8.78
10364 23.7100 71.66 75.71 7.97
10365 23.7120 72.16 74.25 7.98
10366 23.7140 68.88 73.14 7.80
10367 23.7160 79.78 72.33 8.41
10368 23.7180 76.93 71.78 8.27
10369 23.7200 74.95 71.44 8.11
10370 23.7220 68.99 71.29 7.78
10371 23.7240 69.37 71.33 7.81
10372 23.7260 83.89 71.54 8.65
10373 23.7280 74.79 71.92 8.15
10374 23.7300 85.65 72.48 8.69
10375 23.7320 88.27 73.24 8.75
10376 23.7340 83.58 74.23 8.60
10377 23.7360 68.48 75.49 7.79
10378 23.7380 73.91 77.08 8.08
10379 23.7400 102.88 79.05 9.47
10380 23.7420 71.28 81.50 7.89
10381 23.7440 86.89 84.51 8.75
10382 23.7460 95.63 88.17 9.22
10383 23.7480 97.71 92.57 9.29
10384 23.7500 97.75 97.80 9.28
10385 23.7520 119.87 103.86 10.21
10386 23.7540 113.15 110.69 9.97
10387 23.7560 136.64 118.04 10.98
10388 23.7580 152.84 125.48 11.61
10389 23.7600 142.52 132.47 11.21
10390 23.7620 127.45 138.73 10.50
10391 23.7640 117.44 144.41 10.13
10392 23.7660 138.28 150.14 11.07
10393 23.7680 153.75 156.72 11.64
10394 23.7700 154.80 164.49 11.64
10395 23.7720 157.89 173.36 11.70
10396 23.7740 191.81 182.49 13.00
10397 23.7760 189.64 190.16 12.90
10398 23.7780 233.98 194.49 14.38
10399 23.7800 214.17 193.74 13.72
10400 23.7820 188.99 188.01 12.84
10401 23.7840 172.84 178.57 12.32
10402 23.7860 172.77 167.44 12.40
10403 23.7880 150.16 156.38 11.53
10404 23.7900 156.94 146.59 11.76
10405 23.7920 157.54 138.64 11.70
10406 23.7940 120.35 132.72 10.32
10407 23.7960 144.57 128.80 11.31
10408 23.7980 148.82 126.76 11.48
10409 23.8000 128.46 126.46 10.62
10410 23.8020 148.64 127.85 11.41
10411 23.8040 125.43 130.83 10.56
10412 23.8060 149.52 135.31 11.50
10413 23.8080 143.63 141.11 11.27
10414 23.8100 162.59 147.96 11.98
10415 23.8120 142.73 155.46 11.20
10416 23.8140 143.50 163.04 11.25
10417 23.8160 171.60 169.96 12.36
10418 23.8180 154.28 175.29 11.66
10419 23.8200 187.38 178.20 12.87
10420 23.8220 195.32 178.07 13.08
10421 23.8240 214.76 174.83 13.79
10422 23.8260 198.22 168.89 13.21
10423 23.8280 201.42 161.04 13.42
10424 23.8300 131.43 152.14 10.79
10425 23.8320 141.90 142.96 11.11
10426 23.8340 120.84 134.02 10.31
10427 23.8360 130.05 125.71 10.76
10428 23.8380 103.41 118.24 9.58
10429 23.8400 116.28 111.70 10.10
10430 23.8420 80.90 106.12 8.47
10431 23.8440 89.02 101.50 8.87
10432 23.8460 101.32 97.78 9.42
10433 23.8480 109.29 94.90 9.84
10434 23.8500 100.25 92.82 9.36
10435 23.8520 92.09 91.48 8.94
10436 23.8540 82.60 90.85 8.54
10437 23.8560 109.57 90.92 9.87
10438 23.8580 94.80 91.71 9.15
10439 23.8600 83.35 93.27 8.55
10440 23.8620 100.70 95.65 9.34
10441 23.8640 108.60 98.95 9.81
10442 23.8660 118.12 103.26 10.25
10443 23.8680 110.18 108.65 9.89
10444 23.8700 123.14 115.11 10.42
10445 23.8720 135.28 122.51 10.87
10446 23.8740 149.31 130.44 11.46
10447 23.8760 148.25 138.13 11.45
10448 23.8780 149.51 144.43 11.47
10449 23.8800 133.27 148.22 10.83
10450 23.8820 132.45 149.17 10.72
10451 23.8840 131.81 147.88 10.77
10452 23.8860 128.92 145.64 10.69
10453 23.8880 139.58 143.76 11.09
10454 23.8900 140.30 143.16 11.07
10455 23.8920 153.68 144.28 11.57
10456 23.8940 144.74 147.23 11.28
10457 23.8960 189.97 152.07 12.91
10458 23.8980 177.52 159.03 12.52
10459 23.9000 173.97 168.24 12.37
10460 23.9020 207.21 179.30 13.40
10461 23.9040 202.41 190.13 13.31
10462 23.9060 201.99 197.32 13.44
10463 23.9080 208.81 197.57 13.48
10464 23.9100 195.09 190.58 13.09
10465 23.9120 194.05 179.26 12.96
10466 23.9140 184.07 167.31 12.76
10467 23.9160 163.14 157.17 12.02
10468 23.9180 164.38 149.84 12.06
10469 23.9200 150.04 145.59 11.47
10470 23.9220 149.45 144.37 11.40
10471 23.9240 146.03 146.18 11.33
10472 23.9260 142.28 151.10 11.21
10473 23.9280 162.39 159.41 12.03
10474 23.9300 166.56 171.58 12.08
10475 23.9320 188.31 188.22 12.80
10476 23.9340 216.13 210.08 13.79
10477 23.9360 215.80 237.77 13.86
10478 23.9380 246.01 271.69 14.69
10479 23.9400 292.79 311.07 15.99
10480 23.9420 345.33 353.11 17.38
10481 23.9440 437.28 391.83 19.62
10482 23.9460 499.98 418.48 21.04
10483 23.9480 473.86 425.94 20.55
10484 23.9500 408.06 414.06 18.97
10485 23.9520 391.00 390.16 18.50
10486 23.9540 338.71 363.93 17.25
10487 23.9560 338.22 342.73 17.45
10488 23.9580 298.92 330.67 16.27
10489 23.9600 337.19 329.80 17.19
10490 23.9620 337.15 339.89 17.21
10491 23.9640 349.73 359.98 17.51
10492 23.9660 374.68 386.32 18.19
10493 23.9680 410.41 411.60 19.10
10494 23.9700 446.60 424.63 19.92
10495 23.9720 448.89 417.59 19.78
10496 23.9740 397.38 390.97 18.76
10497 23.9760 362.80 352.91 17.91
10498 23.9780 314.90 312.57 16.74
10499 23.9800 289.19 275.61 15.99
10500 23.9820 263.80 243.97 15.13
10501 23.9840 208.60 216.99 13.56
10502 23.9860 194.72 193.38 13.16
10503 23.9880 173.01 172.69 12.35
10504 23.9900 157.96 155.02 11.76
10505 23.9920 130.76 140.49 10.71
10506 23.9940 118.89 128.80 10.23
10507 23.9960 118.62 119.47 10.23
10508 23.9980 112.13 112.00 9.99
10509 24.0000 109.05 105.97 9.78
10510 24.0020 107.35 101.08 9.64
10511 24.0040 95.71 97.06 9.22
10512 24.0060 88.46 93.76 8.87
10513 24.0080 100.14 91.03 9.43
10514 24.0100 85.14 88.79 8.64
10515 24.0120 76.75 86.94 8.19
10516 24.0140 85.14 85.46 8.71
10517 24.0160 73.66 84.32 8.07
10518 24.0180 78.63 83.47 8.34
10519 24.0200 78.22 82.93 8.30
10520 24.0220 99.83 82.71 9.32
10521 24.0240 92.89 82.89 9.10
10522 24.0260 86.96 83.55 8.78
10523 24.0280 90.26 84.83 8.95
10524 24.0300 89.91 86.92 8.87
10525 24.0320 94.73 90.04 9.10
10526 24.0340 90.29 94.44 8.91
10527 24.0360 102.83 100.31 9.55
10528 24.0380 123.61 107.42 10.44
10529 24.0400 128.80 114.63 10.62
10530 24.0420 117.16 119.55 10.17
10531 24.0440 123.74 119.65 10.44
10532 24.0460 95.81 114.60 9.20
10533 24.0480 102.32 106.68 9.55
10534 24.0500 113.60 98.43 9.98
10535 24.0520 84.01 91.26 8.56
10536 24.0540 94.10 85.53 9.12
10537 24.0560 86.74 81.22 8.80
10538 24.0580 79.84 77.78 8.39
10539 24.0600 73.47 75.12 8.04
10540 24.0620 76.74 73.04 8.21
10541 24.0640 62.76 71.38 7.41
10542 24.0660 66.56 70.04 7.72
10543 24.0680 81.95 68.95 8.49
10544 24.0700 57.46 68.04 7.11
10545 24.0720 71.00 67.28 7.83
10546 24.0740 74.19 66.63 8.11
10547 24.0760 84.53 66.08 8.66
10548 24.0780 68.05 65.60 7.76
10549 24.0800 75.51 65.19 8.10
10550 24.0820 61.56 64.83 7.33
10551 24.0840 69.22 64.51 7.82
10552 24.0860 67.47 64.23 7.73
10553 24.0880 55.27 63.98 6.99
10554 24.0900 63.57 63.76 7.48
10555 24.0920 59.38 63.57 7.19
10556 24.0940 64.95 63.40 7.51
10557 24.0960 60.62 63.26 7.36
10558 24.0980 65.58 63.12 7.60
10559 24.1000 55.85 63.00 7.02
10560 24.1020 54.75 62.91 6.90
10561 24.1040 71.85 62.82 7.94
10562 24.1060 72.33 62.76 8.04
10563 24.1080 53.96 62.70 6.91
10564 24.1100 60.93 62.67 7.33
10565 24.1120 74.53 62.64 8.06
10566 24.1140 71.66 62.69 7.91
10567 24.1160 67.20 62.68 7.70
10568 24.1180 57.39 63.02 7.13
10569 24.1200 65.03 63.04 7.54
10570 24.1220 59.94 63.08 7.19
10571 24.1240 60.91 63.13 7.31
10572 24.1260 59.39 63.19 7.29
10573 24.1280 52.72 63.26 6.79
10574 24.1300 47.40 63.35 6.42
10575 24.1320 53.41 63.45 6.80
10576 24.1340 61.23 63.56 7.32
10577 24.1360 63.36 63.67 7.51
10578 24.1380 80.18 63.80 8.36
10579 24.1400 72.47 63.94 7.99
10580 24.1420 77.14 64.07 8.19
10581 24.1440 70.28 64.23 7.80
10582 24.1460 59.08 64.42 7.23
10583 24.1480 62.30 64.62 7.43
10584 24.1500 63.10 64.85 7.41
10585 24.1520 59.53 65.10 7.17
10586 24.1540 54.90 65.38 6.96
10587 24.1560 68.01 65.69 7.74
10588 24.1580 64.79 66.03 7.51
10589 24.1600 73.67 66.42 8.02
10590 24.1620 59.79 66.84 7.18
10591 24.1640 72.21 67.21 7.93
10592 24.1660 74.47 67.73 8.13
10593 24.1680 63.26 68.31 7.47
10594 24.1700 64.42 68.95 7.51
10595 24.1720 72.26 69.66 7.91
10596 24.1740 56.38 70.47 7.05
10597 24.1760 73.75 71.37 8.08
10598 24.1780 72.12 72.39 7.94
10599 24.1800 81.35 73.56 8.47
10600 24.1820 73.09 74.88 7.97
10601 24.1840 60.56 76.41 7.33
10602 24.1860 81.52 78.18 8.49
10603 24.1880 67.61 80.24 7.73
10604 24.1900 79.19 82.67 8.33
10605 24.1920 86.47 86.80 8.70
10606 24.1940 84.66 90.30 8.59
10607 24.1960 97.13 94.56 9.29
10608 24.1980 83.19 99.84 8.53
10609 24.2000 100.15 106.51 9.38
10610 24.2020 98.92 115.13 9.26
10611 24.2040 135.68 126.43 10.96
10612 24.2060 132.78 141.49 10.82
10613 24.2080 152.31 161.66 11.52
10614 24.2100 171.64 188.42 12.28
10615 24.2120 188.27 223.22 12.78
10616 24.2140 258.76 265.97 15.09
10617 24.2160 280.70 313.03 15.74
10618 24.2180 382.17 353.01 18.40
10619 24.2200 389.40 369.83 18.48
10620 24.2220 369.88 356.18 17.95
10621 24.2240 282.62 322.28 15.77
10622 24.2260 266.79 284.31 15.39
10623 24.2280 203.48 252.50 13.36
10624 24.2300 208.72 230.13 13.55
10625 24.2320 203.23 216.80 13.31
10626 24.2340 177.02 210.07 12.56
10627 24.2360 193.04 205.96 13.05
10628 24.2380 189.87 200.25 12.94
10629 24.2400 165.18 191.33 12.05
10630 24.2420 184.99 180.95 12.75
10631 24.2440 159.71 171.55 11.79
10632 24.2460 150.60 164.37 11.58
10633 24.2480 157.49 159.44 11.76
10634 24.2500 153.32 156.28 11.59
10635 24.2520 134.21 154.50 10.82
10636 24.2540 155.00 153.63 11.76
10637 24.2560 158.61 153.41 11.84
10638 24.2580 122.35 153.67 10.39
10639 24.2600 145.49 154.38 11.31
10640 24.2620 150.62 155.51 11.50
10641 24.2640 149.09 156.95 11.42
10642 24.2660 126.40 158.41 10.63
10643 24.2680 149.97 159.49 11.50
10644 24.2700 123.89 159.71 10.37
10645 24.2720 151.51 158.78 11.55
10646 24.2740 156.96 156.68 11.78
10647 24.2760 138.59 153.72 11.07
10648 24.2780 137.01 150.30 10.98
10649 24.2800 142.73 146.51 11.19
10650 24.2820 145.83 143.05 11.28
10651 24.2840 119.39 139.68 10.22
10652 24.2860 122.53 136.32 10.43
10653 24.2880 123.87 132.70 10.45
10654 24.2900 142.18 129.40 11.16
10655 24.2920 121.25 126.32 10.26
10656 24.2940 121.92 123.62 10.32
10657 24.2960 115.96 121.46 10.16
10658 24.2980 136.67 119.97 11.00
10659 24.3000 123.89 119.22 10.44
10660 24.3020 121.88 119.26 10.24
10661 24.3040 121.48 120.17 10.31
10662 24.3060 111.51 121.98 9.98
10663 24.3080 120.86 124.73 10.29
10664 24.3100 129.13 128.35 10.64
10665 24.3120 140.29 132.29 11.06
10666 24.3140 148.31 135.60 11.39
10667 24.3160 140.26 137.13 11.14
10668 24.3180 128.58 137.01 10.67
10669 24.3200 128.99 136.53 10.66
10670 24.3220 122.48 137.06 10.29
10671 24.3240 127.76 139.06 10.58
10672 24.3260 168.78 142.40 12.21
10673 24.3280 153.36 146.51 11.58
10674 24.3300 130.67 150.58 10.67
10675 24.3320 148.10 153.84 11.38
10676 24.3340 137.77 155.92 10.98
10677 24.3360 126.61 156.99 10.58
10678 24.3380 158.73 157.60 11.84
10679 24.3400 150.71 157.63 11.49
10680 24.3420 150.37 156.65 11.36
10681 24.3440 130.29 153.60 10.69
10682 24.3460 151.79 147.88 11.61
10683 24.3480 125.93 139.96 10.48
10684 24.3500 127.76 131.38 10.56
10685 24.3520 90.79 122.77 8.90
10686 24.3540 117.16 115.13 10.13
10687 24.3560 99.51 109.43 9.38
10688 24.3580 100.02 104.30 9.38
10689 24.3600 97.87 100.31 9.28
10690 24.3620 95.51 97.30 9.07
10691 24.3640 93.23 95.12 9.03
10692 24.3660 102.61 93.67 9.54
10693 24.3680 88.38 92.84 8.80
10694 24.3700 83.40 92.60 8.55
10695 24.3720 91.50 92.92 8.88
10696 24.3740 93.33 93.79 9.05
10697 24.3760 95.78 95.19 9.19
10698 24.3780 105.02 96.98 9.54
10699 24.3800 100.49 98.84 9.36
10700 24.3820 98.14 100.36 9.25
10701 24.3840 94.19 101.29 9.04
10702 24.3860 103.67 101.63 9.58
10703 24.3880 90.89 101.64 8.94
10704 24.3900 108.33 101.70 9.72
10705 24.3920 86.83 102.15 8.65
10706 24.3940 107.37 103.14 9.74
10707 24.3960 96.77 104.68 9.25
10708 24.3980 98.58 106.71 9.26
10709 24.4000 86.60 109.11 8.68
10710 24.4020 113.46 111.78 9.90
10711 24.4040 105.45 114.60 9.62
10712 24.4060 111.04 117.50 9.91
10713 24.4080 111.44 120.49 9.92
10714 24.4100 129.96 123.67 10.60
10715 24.4120 116.03 127.21 10.03
10716 24.4140 104.60 131.27 9.55
10717 24.4160 137.24 136.00 11.02
10718 24.4180 153.26 141.52 11.54
10719 24.4200 131.12 147.94 10.65
10720 24.4220 154.37 155.41 11.52
10721 24.4240 162.98 164.03 11.95
10722 24.4260 163.32 174.06 12.02
10723 24.4280 189.14 185.98 12.83
10724 24.4300 172.58 200.39 12.26
10725 24.4320 211.38 218.15 13.50
10726 24.4340 224.29 240.32 14.05
10727 24.4360 276.47 268.08 15.57
10728 24.4380 298.46 302.72 16.12
10729 24.4400 365.25 345.39 17.71
10730 24.4420 416.39 397.14 18.96
10731 24.4440 454.01 457.94 19.91
10732 24.4460 545.87 525.79 21.97
10733 24.4480 591.33 595.87 22.60
10734 24.4500 700.26 659.91 24.80
10735 24.4520 719.62 710.54 24.95
10736 24.4540 742.56 746.68 25.58
10737 24.4560 739.65 775.44 25.71
10738 24.4580 760.65 804.85 25.78
10739 24.4600 882.07 834.28 27.83
10740 24.4620 957.65 849.79 28.90
10741 24.4640 865.98 832.85 27.60
10742 24.4660 759.50 780.01 26.01
10743 24.4680 673.15 706.65 24.39
10744 24.4700 605.53 631.25 23.01
10745 24.4720 529.74 563.90 21.48
10746 24.4740 515.54 507.52 21.34
10747 24.4760 411.51 461.15 19.03
10748 24.4780 390.17 423.03 18.59
10749 24.4800 388.28 390.97 18.41
10750 24.4820 368.86 363.89 17.95
10751 24.4840 332.31 340.48 16.98
10752 24.4860 322.02 320.06 17.03
10753 24.4880 304.04 302.36 16.29
10754 24.4900 263.42 287.33 15.12
10755 24.4920 264.15 275.02 15.20
10756 24.4940 267.49 265.39 15.31
10757 24.4960 250.93 258.38 14.90
10758 24.4980 233.53 253.72 14.34
10759 24.5000 247.46 251.01 14.65
10760 24.5020 271.11 249.78 15.38
10761 24.5040 269.48 249.30 15.34
10762 24.5060 284.91 249.15 15.90
10763 24.5080 277.83 249.10 15.70
10764 24.5100 279.67 249.10 15.62
10765 24.5120 250.20 249.31 14.82
10766 24.5140 282.70 249.47 15.78
10767 24.5160 262.53 248.93 15.22
10768 24.5180 282.68 246.59 15.76
10769 24.5200 244.02 241.43 14.61
10770 24.5220 237.92 233.14 14.47
10771 24.5240 203.93 222.38 13.36
10772 24.5260 202.23 210.47 13.36
10773 24.5280 173.08 198.62 12.40
10774 24.5300 186.44 187.68 12.75
10775 24.5320 162.79 178.00 12.02
10776 24.5340 197.52 169.49 13.15
10777 24.5360 160.26 161.87 12.01
10778 24.5380 169.33 154.79 12.17
10779 24.5400 146.48 147.98 11.34
10780 24.5420 142.60 141.32 11.20
10781 24.5440 155.33 134.88 11.67
10782 24.5460 138.73 128.76 11.07
10783 24.5480 128.85 123.07 10.74
10784 24.5500 122.20 117.92 10.35
10785 24.5520 132.05 113.34 10.79
10786 24.5540 109.68 109.33 9.86
10787 24.5560 115.70 105.89 10.16
10788 24.5580 115.22 102.98 10.09
10789 24.5600 108.06 100.56 9.75
10790 24.5620 96.93 98.59 9.27
10791 24.5640 114.32 97.03 10.04
10792 24.5660 106.81 95.83 9.79
10793 24.5680 109.39 94.98 9.87
10794 24.5700 87.87 94.44 8.81
10795 24.5720 99.37 94.20 9.40
10796 24.5740 108.46 94.25 9.81
10797 24.5760 104.68 94.58 9.69
10798 24.5780 96.80 95.25 9.30
10799 24.5800 92.41 96.29 9.04
10800 24.5820 117.31 97.77 10.20
10801 24.5840 118.63 99.82 10.28
10802 24.5860 103.05 102.58 9.60
10803 24.5880 109.96 106.26 9.90
10804 24.5900 109.78 111.10 9.84
10805 24.5920 113.16 117.26 10.00
10806 24.5940 129.80 124.76 10.75
10807 24.5960 127.59 133.02 10.65
10808 24.5980 155.50 140.91 11.77
10809 24.6000 162.65 147.68 11.96
10810 24.6020 171.68 153.88 12.30
10811 24.6040 154.74 161.10 11.67
10812 24.6060 160.43 169.82 11.92
10813 24.6080 167.22 178.67 12.19
10814 24.6100 183.75 184.99 12.70
10815 24.6120 183.44 187.04 12.71
10816 24.6140 180.14 185.19 12.60
10817 24.6160 179.92 180.44 12.71
10818 24.6180 181.50 172.98 12.67
10819 24.6200 165.36 163.37 12.06
10820 24.6220 149.72 153.31 11.40
10821 24.6240 127.11 144.56 10.59
10822 24.6260 149.89 137.98 11.54
10823 24.6280 147.08 133.74 11.40
10824 24.6300 148.75 131.73 11.43
10825 24.6320 156.41 131.69 11.71
10826 24.6340 134.25 133.32 10.88
10827 24.6360 127.33 136.20 10.60
10828 24.6380 155.77 139.73 11.73
10829 24.6400 165.70 143.20 12.05
10830 24.6420 179.78 146.01 12.59
10831 24.6440 174.28 148.07 12.35
10832 24.6460 180.67 149.95 12.65
10833 24.6480 165.59 152.54 12.15
10834 24.6500 202.55 156.78 13.33
10835 24.6520 170.66 163.46 12.23
10836 24.6540 194.15 173.30 13.01
10837 24.6560 192.90 187.09 13.08
10838 24.6580 200.49 205.64 13.22
10839 24.6600 251.42 229.87 14.89
10840 24.6620 243.27 260.45 14.52
10841 24.6640 306.57 297.63 16.41
10842 24.6660 318.99 340.06 16.77
10843 24.6680 376.19 383.85 18.32
10844 24.6700 416.30 422.55 19.05
10845 24.6720 443.90 450.00 19.83
10846 24.6740 483.50 465.15 20.59
10847 24.6760 449.79 472.36 20.04
10848 24.6780 423.66 476.43 19.29
10849 24.6800 456.55 477.13 20.03
10850 24.6820 427.87 468.97 19.31
10851 24.6840 475.63 446.26 20.32
10852 24.6860 413.49 409.17 19.20
10853 24.6880 376.76 363.87 18.25
10854 24.6900 313.87 318.00 16.58
10855 24.6920 273.99 276.37 15.50
10856 24.6940 220.78 241.07 13.90
10857 24.6960 190.77 212.32 12.95
10858 24.6980 184.31 189.32 12.76
10859 24.7000 165.07 171.20 12.04
10860 24.7020 153.19 157.01 11.50
10861 24.7040 136.24 145.93 10.88
10862 24.7060 149.39 137.27 11.46
10863 24.7080 135.36 130.52 10.88
10864 24.7100 135.31 125.26 10.88
10865 24.7120 127.73 121.21 10.57
10866 24.7140 127.24 118.15 10.58
10867 24.7160 147.83 115.96 11.40
10868 24.7180 101.09 114.54 9.44
10869 24.7200 122.16 113.94 10.34
10870 24.7220 122.46 114.00 10.35
10871 24.7240 127.62 114.78 10.55
10872 24.7260 106.69 116.40 9.70
10873 24.7280 124.44 118.88 10.48
10874 24.7300 128.23 122.28 10.63
10875 24.7320 125.19 126.67 10.49
10876 24.7340 139.60 132.07 11.03
10877 24.7360 128.65 138.16 10.67
10878 24.7380 133.70 145.54 10.84
10879 24.7400 143.94 153.63 11.17
10880 24.7420 173.03 161.99 12.32
10881 24.7440 164.69 170.12 12.00
10882 24.7460 167.28 177.36 12.12
10883 24.7480 188.13 183.32 12.87
10884 24.7500 200.81 188.12 13.32
10885 24.7520 208.22 192.28 13.44
10886 24.7540 199.76 196.53 13.27
10887 24.7560 193.58 201.59 13.05
10888 24.7580 184.63 207.84 12.77
10889 24.7600 193.67 215.38 13.03
10890 24.7620 181.78 223.95 12.59
10891 24.7640 220.28 233.01 13.84
10892 24.7660 215.39 241.69 13.80
10893 24.7680 218.78 248.92 13.89
10894 24.7700 252.01 253.63 14.89
10895 24.7720 277.17 255.08 15.58
10896 24.7740 278.67 253.09 15.70
10897 24.7760 273.41 248.15 15.53
10898 24.7780 275.29 241.18 15.53
10899 24.7800 253.01 233.26 14.93
10900 24.7820 224.45 225.33 14.00
10901 24.7840 194.74 218.12 13.05
10902 24.7860 195.13 212.14 13.12
10903 24.7880 194.02 207.35 13.15
10904 24.7900 179.50 204.49 12.54
10905 24.7920 173.23 203.26 12.31
10906 24.7940 160.49 203.59 11.86
10907 24.7960 174.99 205.33 12.40
10908 24.7980 202.47 208.26 13.31
10909 24.8000 177.45 212.17 12.47
10910 24.8020 181.90 216.71 12.62
10911 24.8040 165.31 221.59 11.98
10912 24.8060 178.11 226.48 12.57
10913 24.8080 218.91 231.02 13.97
10914 24.8100 193.94 234.94 12.99
10915 24.8120 238.53 237.91 14.45
10916 24.8140 234.12 239.71 14.37
10917 24.8160 232.88 240.16 14.33
10918 24.8180 241.05 239.20 14.49
10919 24.8200 274.64 236.85 15.49
10920 24.8220 248.29 233.23 14.66
10921 24.8240 267.51 228.36 15.27
10922 24.8260 267.28 222.32 15.33
10923 24.8280 208.69 215.19 13.55
10924 24.8300 235.33 207.13 14.31
10925 24.8320 183.70 198.48 12.60
10926 24.8340 204.76 189.58 13.41
10927 24.8360 182.28 180.79 12.66
10928 24.8380 164.98 172.35 12.00
10929 24.8400 162.97 164.41 11.94
10930 24.8420 143.78 157.06 11.16
10931 24.8440 150.63 150.39 11.48
10932 24.8460 137.02 144.27 11.02
10933 24.8480 150.84 138.72 11.52
10934 24.8500 147.91 133.71 11.36
10935 24.8520 126.66 129.16 10.52
10936 24.8540 120.86 125.00 10.24
10937 24.8560 111.29 121.10 9.91
10938 24.8580 106.62 117.62 9.69
10939 24.8600 108.41 114.51 9.72
10940 24.8620 108.30 111.75 9.69
10941 24.8640 107.88 109.44 9.74
10942 24.8660 113.86 107.60 10.01
10943 24.8680 94.83 106.23 9.14
10944 24.8700 100.33 105.38 9.38
10945 24.8720 111.52 105.04 9.90
10946 24.8740 106.55 105.22 9.62
10947 24.8760 113.59 105.90 10.03
10948 24.8780 102.69 107.07 9.51
10949 24.8800 135.71 108.69 10.90
10950 24.8820 123.14 110.72 10.32
10951 24.8840 128.26 113.09 10.57
10952 24.8860 142.28 115.69 11.23
10953 24.8880 132.14 118.39 10.80
10954 24.8900 141.08 121.08 11.12
10955 24.8920 132.62 123.54 10.81
10956 24.8940 109.70 125.64 9.76
10957 24.8960 132.44 127.25 10.82
10958 24.8980 120.70 128.32 10.29
10959 24.9000 125.41 128.90 10.48
10960 24.9020 133.45 129.08 10.81
10961 24.9040 150.60 128.84 11.48
10962 24.9060 138.14 128.22 11.04
10963 24.9080 144.57 126.85 11.29
10964 24.9100 115.19 124.33 10.06
10965 24.9120 118.39 121.18 10.19
10966 24.9140 100.40 116.42 9.40
10967 24.9160 111.42 111.35 9.88
10968 24.9180 80.66 106.49 8.44
10969 24.9200 96.04 102.06 9.14
10970 24.9220 91.24 98.30 8.90
10971 24.9240 88.07 95.15 8.74
10972 24.9260 115.91 92.58 10.12
10973 24.9280 76.87 90.54 8.24
10974 24.9300 74.39 88.97 8.11
10975 24.9320 79.39 87.83 8.34
10976 24.9340 85.29 87.05 8.67
10977 24.9360 85.91 86.59 8.70
10978 24.9380 81.94 86.39 8.49
10979 24.9400 92.90 86.40 9.01
10980 24.9420 79.27 86.54 8.34
10981 24.9440 83.03 86.74 8.52
10982 24.9460 92.32 86.94 9.03
10983 24.9480 77.71 87.09 8.31
10984 24.9500 88.52 87.15 8.79
10985 24.9520 77.92 87.11 8.25
10986 24.9540 92.81 87.01 9.04
10987 24.9560 82.73 86.88 8.54
10988 24.9580 72.37 86.80 8.03
10989 24.9600 107.19 86.79 9.71
10990 24.9620 101.62 86.91 9.42
10991 24.9640 81.72 87.19 8.46
10992 24.9660 80.90 87.66 8.49
10993 24.9680 76.43 88.34 8.23
10994 24.9700 83.09 89.26 8.54
10995 24.9720 85.74 90.46 8.68
10996 24.9740 76.32 91.98 8.16
10997 24.9760 100.85 93.94 9.45
10998 24.9780 92.93 96.45 9.07
10999 24.9800 106.00 99.70 9.63
11000 24.9820 116.58 103.92 10.04
11001 24.9840 109.50 109.31 9.83
11002 24.9860 126.47 115.94 10.58
11003 24.9880 144.22 123.29 11.28
11004 24.9900 124.79 129.79 10.42
11005 24.9920 135.76 132.79 10.91
11006 24.9940 120.49 130.63 10.24
11007 24.9960 130.80 123.94 10.74
11008 24.9980 115.99 115.81 10.10
11009 25.0000 105.21 108.13 9.60
11010 25.0020 98.68 101.85 9.27
11011 25.0040 92.57 97.06 8.99
11012 25.0060 85.28 93.55 8.72
11013 25.0080 92.99 90.99 9.04
11014 25.0100 102.52 89.12 9.45
11015 25.0120 88.53 87.20 8.81
11016 25.0140 89.03 85.61 8.78
11017 25.0160 75.18 84.06 8.13
11018 25.0180 85.95 82.63 8.70
11019 25.0200 76.02 81.42 8.15
11020 25.0220 99.78 80.54 9.26
11021 25.0240 73.47 80.04 8.00
11022 25.0260 90.72 79.95 8.97
11023 25.0280 82.48 80.31 8.51
11024 25.0300 87.98 81.12 8.78
11025 25.0320 92.73 82.41 9.00
11026 25.0340 91.48 84.15 8.92
11027 25.0360 88.66 86.27 8.86
11028 25.0380 85.42 88.56 8.65
11029 25.0400 89.08 90.66 8.84
11030 25.0420 89.09 92.12 8.81
11031 25.0440 115.83 92.62 10.05
11032 25.0460 109.88 92.23 9.87
11033 25.0480 75.92 91.41 8.20
11034 25.0500 74.42 90.76 8.05
11035 25.0520 84.93 90.77 8.64
11036 25.0540 85.35 91.82 8.62
11037 25.0560 70.54 94.17 7.89
11038 25.0580 98.19 97.87 9.23
11039 25.0600 102.59 102.60 9.47
11040 25.0620 94.78 107.18 9.04
11041 25.0640 114.53 109.62 9.98
11042 25.0660 96.18 108.46 9.18
11043 25.0680 103.08 104.40 9.54
11044 25.0700 85.61 99.43 8.62
11045 25.0720 88.29 95.18 8.76
11046 25.0740 102.76 92.34 9.45
11047 25.0760 98.22 91.04 9.31
11048 25.0780 93.54 91.14 9.04
11049 25.0800 84.59 92.26 8.56
11050 25.0820 92.03 93.67 8.91
11051 25.0840 98.94 94.26 9.31
11052 25.0860 97.80 93.25 9.26
11053 25.0880 73.58 90.79 8.03
11054 25.0900 76.02 87.68 8.16
11055 25.0920 84.90 84.86 8.58
11056 25.0940 88.61 82.65 8.77
11057 25.0960 80.30 81.65 8.42
11058 25.0980 88.88 80.65 8.85
11059 25.1000 84.58 80.06 8.55
11060 25.1020 74.60 79.75 8.03
11061 25.1040 80.83 79.59 8.40
11062 25.1060 69.19 79.54 7.82
11063 25.1080 72.58 79.63 7.99
11064 25.1100 63.12 79.90 7.39
11065 25.1120 78.22 80.39 8.25
11066 25.1140 80.79 81.11 8.38
11067 25.1160 87.76 82.00 8.83
11068 25.1180 92.77 82.98 8.99
11069 25.1200 78.46 83.95 8.28
11070 25.1220 92.34 84.84 8.92
11071 25.1240 80.85 86.09 8.38
11072 25.1260 84.03 86.96 8.61
11073 25.1280 94.47 87.99 9.12
11074 25.1300 101.69 89.31 9.42
11075 25.1320 107.60 90.99 9.60
11076 25.1340 94.99 93.06 9.10
11077 25.1360 106.82 95.52 9.76
11078 25.1380 94.31 98.34 9.06
11079 25.1400 104.52 101.44 9.54
11080 25.1420 120.68 104.68 10.21
11081 25.1440 111.35 107.88 9.79
11082 25.1460 116.82 110.84 10.20
11083 25.1480 133.67 113.31 10.80
11084 25.1500 110.81 115.14 9.85
11085 25.1520 103.68 116.29 9.44
11086 25.1540 113.73 116.88 9.96
11087 25.1560 96.38 117.19 9.21
11088 25.1580 132.32 117.88 10.77
11089 25.1600 115.74 118.81 10.00
11090 25.1620 112.96 120.64 9.86
11091 25.1640 110.54 123.75 9.79
11092 25.1660 129.80 128.49 10.70
11093 25.1680 152.55 135.18 11.59
11094 25.1700 142.47 144.01 11.16
11095 25.1720 140.78 154.66 11.03
11096 25.1740 177.23 165.65 12.38
11097 25.1760 188.55 174.22 12.92
11098 25.1780 174.31 178.33 12.31
11099 25.1800 169.73 178.41 12.14
11100 25.1820 191.03 176.49 12.83
11101 25.1840 167.26 173.69 12.06
11102 25.1860 174.52 169.87 12.39
11103 25.1880 148.79 164.53 11.39
11104 25.1900 157.43 157.64 11.67
11105 25.1920 137.23 149.69 10.88
11106 25.1940 102.10 141.34 9.44
11107 25.1960 99.59 133.16 9.35
11108 25.1980 104.36 125.50 9.54
11109 25.2000 89.90 118.60 8.81
11110 25.2020 93.11 112.59 9.06
11111 25.2040 98.00 107.52 9.20
11112 25.2060 113.14 103.36 9.98
11113 25.2080 102.22 100.03 9.42
11114 25.2100 97.45 97.45 9.19
11115 25.2120 91.13 95.52 8.92
11116 25.2140 92.56 94.13 9.01
11117 25.2160 90.99 93.20 8.94
11118 25.2180 82.48 92.67 8.51
11119 25.2200 69.96 92.48 7.79
11120 25.2220 83.45 92.58 8.58
11121 25.2240 78.51 92.97 8.30
11122 25.2260 80.72 93.63 8.46
11123 25.2280 97.53 94.54 9.25
11124 25.2300 111.80 95.73 9.90
11125 25.2320 103.23 97.20 9.57
11126 25.2340 95.92 99.20 9.16
11127 25.2360 89.48 101.36 8.92
11128 25.2380 98.21 103.95 9.31
11129 25.2400 102.05 107.08 9.36
11130 25.2420 107.46 110.83 9.73
11131 25.2440 120.19 115.38 10.25
11132 25.2460 111.84 120.86 9.97
11133 25.2480 126.88 127.50 10.58
11134 25.2500 110.59 135.53 9.83
11135 25.2520 118.22 145.18 10.23
11136 25.2540 143.36 156.75 11.24
11137 25.2560 164.39 170.46 12.08
11138 25.2580 169.23 186.55 12.25
11139 25.2600 185.06 205.22 12.75
11140 25.2620 204.07 226.50 13.40
11141 25.2640 270.38 250.33 15.45
11142 25.2660 299.35 276.23 16.37
11143 25.2680 334.59 303.56 17.19
11144 25.2700 360.08 330.89 17.78
11145 25.2720 398.45 356.45 18.79
11146 25.2740 359.39 378.27 17.82
11147 25.2760 390.27 395.24 18.69
11148 25.2780 383.02 407.28 18.36
11149 25.2800 381.86 415.73 18.37
11150 25.2820 362.51 422.69 17.87
11151 25.2840 442.63 429.92 19.68
11152 25.2860 460.47 437.81 20.34
11153 25.2880 459.27 444.85 20.17
11154 25.2900 470.61 447.63 20.28
11155 25.2920 460.08 442.22 20.19
11156 25.2940 390.27 426.48 18.57
11157 25.2960 341.29 401.66 17.48
11158 25.2980 328.21 371.85 16.98
11159 25.3000 298.64 341.71 16.17
11160 25.3020 309.84 314.89 16.41
11161 25.3040 280.07 293.59 15.64
11162 25.3060 260.37 278.60 15.27
11163 25.3080 258.49 269.70 15.16
11164 25.3100 270.93 265.51 15.43
11165 25.3120 242.87 263.67 14.61
11166 25.3140 245.42 261.11 14.65
11167 25.3160 267.53 254.65 15.38
11168 25.3180 267.47 242.23 15.32
11169 25.3200 250.47 224.46 14.87
11170 25.3220 247.42 204.34 14.71
11171 25.3240 217.18 184.94 13.81
11172 25.3260 185.20 167.97 12.85
11173 25.3280 187.09 153.96 12.85
11174 25.3300 163.21 142.68 11.92
11175 25.3320 142.11 133.82 11.16
11176 25.3340 122.94 126.89 10.42
11177 25.3360 125.97 121.53 10.55
11178 25.3380 131.80 117.47 10.80
11179 25.3400 141.38 114.52 11.15
11180 25.3420 130.31 112.51 10.66
11181 25.3440 127.02 111.43 10.56
11182 25.3460 115.77 111.29 10.18
11183 25.3480 132.99 112.19 10.84
11184 25.3500 123.40 114.26 10.40
11185 25.3520 119.72 117.62 10.26
11186 25.3540 159.60 122.23 11.91
11187 25.3560 162.36 127.57 12.01
11188 25.3580 163.70 132.52 12.08
11189 25.3600 172.76 135.53 12.31
11190 25.3620 174.85 135.39 12.39
11191 25.3640 174.43 131.99 12.39
11192 25.3660 129.58 126.65 10.75
11193 25.3680 139.13 121.17 11.09
11194 25.3700 120.16 116.65 10.27
11195 25.3720 126.92 113.37 10.58
11196 25.3740 122.66 111.19 10.43
11197 25.3760 120.39 109.81 10.36
11198 25.3780 143.53 108.90 11.32
11199 25.3800 122.28 108.18 10.32
11200 25.3820 121.63 107.47 10.37
11201 25.3840 129.24 106.76 10.68
11202 25.3860 107.42 106.11 9.81
11203 25.3880 115.69 105.65 10.12
11204 25.3900 120.80 105.47 10.31
11205 25.3920 124.57 105.64 10.48
11206 25.3940 120.76 106.18 10.33
11207 25.3960 114.73 107.18 10.10
11208 25.3980 123.14 108.64 10.40
11209 25.4000 111.92 110.62 9.96
11210 25.4020 116.26 113.16 10.08
11211 25.4040 128.92 116.32 10.68
11212 25.4060 131.86 120.18 10.87
11213 25.4080 138.82 124.85 11.13
11214 25.4100 133.96 130.45 10.87
11215 25.4120 139.28 137.12 11.03
11216 25.4140 139.85 145.02 11.13
11217 25.4160 148.24 154.29 11.47
11218 25.4180 169.01 165.09 12.23
11219 25.4200 202.05 177.52 13.38
11220 25.4220 192.48 191.65 13.03
11221 25.4240 200.68 207.60 13.33
11222 25.4260 214.27 226.12 13.82
11223 25.4280 242.83 246.45 14.66
11224 25.4300 264.28 269.54 15.28
11225 25.4320 257.08 295.63 15.04
11226 25.4340 322.59 324.60 16.89
11227 25.4360 372.47 355.50 18.30
11228 25.4380 390.03 386.62 18.54
11229 25.4400 448.83 414.96 19.96
11230 25.4420 469.19 436.92 20.26
11231 25.4440 417.64 449.41 19.36
11232 25.4460 393.86 451.01 18.67
11233 25.4480 392.76 442.91 18.70
11234 25.4500 346.27 428.30 17.47
11235 25.4520 356.73 410.84 17.68
11236 25.4540 334.37 393.77 17.16
11237 25.4560 318.52 379.26 16.90
11238 25.4580 304.99 368.57 16.44
11239 25.4600 308.11 362.36 16.50
11240 25.4620 310.20 360.83 16.48
11241 25.4640 318.82 363.92 16.79
11242 25.4660 348.43 371.37 17.58
11243 25.4680 379.23 382.64 18.42
11244 25.4700 392.06 396.75 18.68
11245 25.4720 406.21 411.90 18.89
11246 25.4740 418.72 425.03 19.23
11247 25.4760 471.65 432.06 20.56
11248 25.4780 475.21 429.25 20.49
11249 25.4800 423.13 415.45 19.35
11250 25.4820 415.19 392.87 19.03
11251 25.4840 376.06 365.46 18.17
11252 25.4860 352.89 336.78 17.70
11253 25.4880 313.49 309.19 16.69
11254 25.4900 319.73 283.71 16.83
11255 25.4920 251.83 260.78 14.86
11256 25.4940 259.66 240.38 15.08
11257 25.4960 260.40 222.34 15.19
11258 25.4980 227.59 206.46 14.18
11259 25.5000 185.27 192.44 12.82
11260 25.5020 195.04 180.09 13.05
11261 25.5040 182.43 169.15 12.68
11262 25.5060 166.03 159.47 12.14
11263 25.5080 143.38 150.89 11.25
11264 25.5100 144.56 143.28 11.32
11265 25.5120 131.63 136.54 10.74
11266 25.5140 126.46 130.59 10.54
11267 25.5160 128.99 125.34 10.69
11268 25.5180 125.81 120.73 10.53
11269 25.5200 117.06 116.70 10.16
11270 25.5220 126.69 113.19 10.47
11271 25.5240 127.10 110.14 10.59
11272 25.5260 118.75 107.50 10.24
11273 25.5280 120.74 105.26 10.38
11274 25.5300 107.84 103.35 9.77
11275 25.5320 107.88 101.94 9.67
11276 25.5340 112.47 100.61 9.98
11277 25.5360 115.85 99.53 10.12
11278 25.5380 110.66 98.65 9.88
11279 25.5400 105.48 97.98 9.64
11280 25.5420 104.25 97.49 9.55
11281 25.5440 103.22 97.11 9.50
11282 25.5460 118.40 96.93 10.22
11283 25.5480 97.70 98.29 9.30
11284 25.5500 95.06 98.39 9.15
11285 25.5520 110.14 98.63 9.79
11286 25.5540 98.64 99.02 9.34
11287 25.5560 110.86 99.58 9.88
11288 25.5580 115.21 100.31 10.11
11289 25.5600 103.78 101.24 9.58
11290 25.5620 122.85 102.39 10.34
11291 25.5640 91.36 103.78 8.99
11292 25.5660 111.66 105.41 9.96
11293 25.5680 105.34 107.29 9.66
11294 25.5700 108.73 109.42 9.77
11295 25.5720 109.09 111.78 9.76
11296 25.5740 119.91 114.33 10.25
11297 25.5760 113.81 117.05 10.00
11298 25.5780 93.52 119.89 9.09
11299 25.5800 125.70 122.90 10.52
11300 25.5820 122.28 126.19 10.35
11301 25.5840 137.88 129.91 10.94
11302 25.5860 128.31 134.21 10.68
11303 25.5880 138.98 139.22 11.02
11304 25.5900 146.84 145.03 11.42
11305 25.5920 136.58 151.83 10.92
11306 25.5940 138.85 159.71 11.02
11307 25.5960 166.36 168.74 12.15
11308 25.5980 178.53 179.02 12.55
11309 25.6000 193.25 190.60 13.02
11310 25.6020 194.45 203.46 12.99
11311 25.6040 205.05 217.69 13.41
11312 25.6060 235.82 233.12 14.47
11313 25.6080 257.84 249.68 15.11
11314 25.6100 293.70 267.08 16.08
11315 25.6120 298.57 284.99 16.14
11316 25.6140 344.32 302.96 17.39
11317 25.6160 356.02 320.35 17.73
11318 25.6180 349.10 336.49 17.46
11319 25.6200 366.43 350.66 18.07
11320 25.6220 380.89 362.33 18.22
11321 25.6240 329.00 371.12 16.96
11322 25.6260 345.21 377.10 17.50
11323 25.6280 348.87 380.67 17.60
11324 25.6300 355.64 382.35 17.69
11325 25.6320 363.41 382.82 17.81
11326 25.6340 387.82 382.53 18.46
11327 25.6360 372.69 381.65 18.14
11328 25.6380 416.04 379.98 19.12
11329 25.6400 406.14 376.98 19.02
11330 25.6420 384.77 371.83 18.36
11331 25.6440 360.80 363.71 17.75
11332 25.6460 383.14 352.08 18.48
11333 25.6480 310.42 336.97 16.62
11334 25.6500 287.19 318.98 15.93
11335 25.6520 265.28 299.12 15.27
11336 25.6540 254.00 278.46 14.95
11337 25.6560 226.82 257.94 14.15
11338 25.6580 242.43 238.33 14.59
11339 25.6600 208.70 220.04 13.54
11340 25.6620 219.83 203.39 13.88
11341 25.6640 212.97 188.51 13.67
11342 25.6660 188.32 175.42 12.83
11343 25.6680 148.35 164.09 11.46
11344 25.6700 164.47 154.40 12.04
11345 25.6720 159.45 146.25 11.78
11346 25.6740 160.25 139.52 11.88
11347 25.6760 162.30 134.01 12.01
11348 25.6780 165.10 129.41 12.04
11349 25.6800 151.88 125.97 11.60
11350 25.6820 140.35 123.39 11.08
11351 25.6840 136.62 121.51 10.88
11352 25.6860 140.17 120.24 11.12
11353 25.6880 155.45 119.47 11.71
11354 25.6900 119.94 119.11 10.31
11355 25.6920 136.59 119.06 10.87
11356 25.6940 146.13 119.28 11.30
11357 25.6960 159.15 119.71 11.86
11358 25.6980 129.44 120.26 10.67
11359 25.7000 129.88 120.71 10.70
11360 25.7020 137.61 120.63 10.92
11361 25.7040 145.71 119.52 11.28
11362 25.7060 144.46 117.35 11.33
11363 25.7080 132.22 114.62 10.76
11364 25.7100 131.18 111.91 10.78
11365 25.7120 126.62 109.58 10.54
11366 25.7140 118.84 107.72 10.15
11367 25.7160 117.42 106.33 10.18
11368 25.7180 139.95 105.36 11.08
11369 25.7200 111.41 104.75 9.90
11370 25.7220 123.28 104.46 10.35
11371 25.7240 132.17 104.46 10.80
11372 25.7260 129.18 104.72 10.71
11373 25.7280 141.39 105.23 11.17
11374 25.7300 121.67 105.97 10.35
11375 25.7320 139.92 106.95 11.05
11376 25.7340 132.60 108.17 10.74
11377 25.7360 133.33 109.65 10.83
11378 25.7380 128.62 111.40 10.64
11379 25.7400 131.09 113.29 10.75
11380 25.7420 136.54 115.70 10.91
11381 25.7440 127.97 118.51 10.55
11382 25.7460 146.64 121.79 11.40
11383 25.7480 151.82 125.61 11.59
11384 25.7500 133.57 130.08 10.91
11385 25.7520 142.26 135.30 11.12
11386 25.7540 153.77 141.42 11.60
11387 25.7560 178.51 148.58 12.57
11388 25.7580 195.53 156.98 13.14
11389 25.7600 168.03 166.81 12.18
11390 25.7620 198.57 178.28 13.13
11391 25.7640 206.94 191.63 13.39
11392 25.7660 208.00 207.10 13.60
11393 25.7680 233.44 224.91 14.37
11394 25.7700 274.91 245.25 15.59
11395 25.7720 299.08 268.26 16.09
11396 25.7740 308.74 293.94 16.48
11397 25.7760 352.32 322.06 17.57
11398 25.7780 379.35 352.19 18.27
11399 25.7800 467.46 383.33 20.26
11400 25.7820 494.57 414.14 20.78
11401 25.7840 497.38 443.00 20.81
11402 25.7860 524.90 468.63 21.54
11403 25.7880 543.03 490.36 21.92
11404 25.7900 519.41 508.09 21.48
11405 25.7920 517.20 522.16 21.16
11406 25.7940 531.67 533.04 21.57
11407 25.7960 515.45 541.69 21.40
11408 25.7980 510.57 549.92 21.25
11409 25.8000 571.51 560.61 22.48
11410 25.8020 557.96 577.34 22.01
11411 25.8040 555.17 603.36 22.13
11412 25.8060 632.14 639.84 23.68
11413 25.8080 665.17 683.18 24.35
11414 25.8100 723.51 724.77 25.47
11415 25.8120 787.76 754.85 26.37
11416 25.8140 759.71 767.75 25.75
11417 25.8160 744.47 760.60 25.83
11418 25.8180 665.84 733.93 24.28
11419 25.8200 704.73 695.78 24.99
11420 25.8220 601.44 656.92 22.91
11421 25.8240 589.17 623.13 22.78
11422 25.8260 597.04 595.22 23.01
11423 25.8280 528.77 571.78 21.58
11424 25.8300 564.41 551.07 22.37
11425 25.8320 543.83 531.98 21.83
11426 25.8340 540.14 513.65 21.75
11427 25.8360 482.22 495.94 20.75
11428 25.8380 484.59 478.26 20.78
11429 25.8400 470.01 460.34 20.40
11430 25.8420 465.00 442.18 20.07
11431 25.8440 415.83 424.05 19.11
11432 25.8460 402.78 406.61 19.01
11433 25.8480 359.77 390.49 17.90
11434 25.8500 344.34 376.11 17.44
11435 25.8520 371.15 363.59 18.00
11436 25.8540 312.89 352.71 16.57
11437 25.8560 347.67 343.14 17.54
11438 25.8580 306.57 334.54 16.54
11439 25.8600 322.56 326.79 16.92
11440 25.8620 311.41 319.94 16.48
11441 25.8640 287.98 314.11 15.84
11442 25.8660 276.98 309.39 15.69
11443 25.8680 286.73 305.65 15.93
11444 25.8700 275.55 302.58 15.64
11445 25.8720 260.98 299.61 15.09
11446 25.8740 265.81 296.09 15.26
11447 25.8760 268.65 291.38 15.41
11448 25.8780 259.53 284.74 15.13
11449 25.8800 272.71 276.40 15.48
11450 25.8820 285.37 266.29 15.83
11451 25.8840 271.60 255.01 15.38
11452 25.8860 243.14 242.98 14.66
11453 25.8880 243.34 230.84 14.76
11454 25.8900 174.88 218.75 12.53
11455 25.8920 199.12 206.71 13.11
11456 25.8940 181.55 194.91 12.64
11457 25.8960 169.73 183.78 12.30
11458 25.8980 181.55 173.85 12.66
11459 25.9000 168.82 165.35 12.21
11460 25.9020 175.38 158.29 12.32
11461 25.9040 133.01 152.05 10.72
11462 25.9060 140.21 146.49 11.17
11463 25.9080 154.27 141.56 11.63
11464 25.9100 136.76 137.37 11.04
11465 25.9120 107.09 134.02 9.63
11466 25.9140 139.84 131.46 11.00
11467 25.9160 131.00 129.50 10.76
11468 25.9180 156.46 127.81 11.78
11469 25.9200 119.43 126.10 10.23
11470 25.9220 122.19 124.24 10.30
11471 25.9240 119.77 122.28 10.26
11472 25.9260 132.02 120.39 10.78
11473 25.9280 115.79 118.74 10.14
11474 25.9300 122.99 117.43 10.46
11475 25.9320 114.46 116.50 10.02
11476 25.9340 108.13 115.67 9.65
11477 25.9360 98.51 114.37 9.36
11478 25.9380 97.35 111.95 9.30
11479 25.9400 116.18 108.31 10.11
11480 25.9420 108.70 103.99 9.71
11481 25.9440 110.01 99.71 9.84
11482 25.9460 90.55 95.87 8.93
11483 25.9480 89.16 92.57 8.88
11484 25.9500 91.19 89.80 8.98
11485 25.9520 93.09 87.46 9.00
11486 25.9540 79.11 85.48 8.30
11487 25.9560 68.03 83.79 7.74
11488 25.9580 75.36 82.33 8.19
11489 25.9600 81.12 81.06 8.47
11490 25.9620 77.54 79.95 8.20
11491 25.9640 83.97 78.96 8.55
11492 25.9660 73.74 78.08 8.11
11493 25.9680 69.30 77.30 7.84
11494 25.9700 72.84 76.59 7.99
11495 25.9720 76.09 75.94 8.12
11496 25.9740 77.98 75.36 8.27
11497 25.9760 64.98 74.82 7.58
11498 25.9780 76.44 74.33 8.23
11499 25.9800 74.12 73.87 8.10
11500 25.9820 85.58 73.44 8.63
11501 25.9840 74.92 73.04 8.09
11502 25.9860 62.50 72.67 7.47
11503 25.9880 74.89 72.33 8.17
11504 25.9900 86.23 72.00 8.74
11505 25.9920 75.28 71.70 8.10
11506 25.9940 72.59 71.41 7.99
11507 25.9960 65.71 71.14 7.65
11508 25.9980 81.98 70.88 8.49
11509 26.0000 61.86 70.63 7.37
11510 26.0020 89.12 70.40 8.81
11511 26.0040 86.14 70.18 8.69
11512 26.0060 74.39 69.98 8.11
11513 26.0080 81.94 69.78 8.54
11514 26.0100 83.67 69.59 8.61
11515 26.0120 98.79 69.42 9.24
11516 26.0140 69.65 69.25 7.85
11517 26.0160 63.59 69.09 7.49
11518 26.0180 64.82 68.93 7.58
11519 26.0200 65.53 68.79 7.62
11520 26.0220 77.40 68.65 8.21
11521 26.0240 77.82 68.52 8.29
11522 26.0260 75.73 68.39 8.14
11523 26.0280 82.06 68.30 8.57
11524 26.0300 76.40 68.19 8.24
11525 26.0320 73.40 68.08 8.00
11526 26.0340 62.34 67.98 7.42
11527 26.0360 71.95 67.89 8.03
11528 26.0380 77.14 67.80 8.30
11529 26.0400 65.11 67.72 7.59
11530 26.0420 66.24 67.64 7.59
11531 26.0440 66.86 67.57 7.70
11532 26.0460 69.76 67.51 7.87
11533 26.0480 63.09 67.45 7.49
11534 26.0500 75.26 67.39 8.15
11535 26.0520 76.90 67.34 8.19
11536 26.0540 71.52 67.30 7.93
11537 26.0560 66.73 67.26 7.70
11538 26.0580 67.76 67.23 7.76
11539 26.0600 63.86 67.20 7.51
11540 26.0620 52.39 67.18 6.74
11541 26.0640 76.21 67.17 8.22
11542 26.0660 73.46 67.16 8.03
11543 26.0680 76.07 67.17 8.22
11544 26.0700 55.12 67.17 7.02
11545 26.0720 75.26 67.19 8.09
11546 26.0740 58.41 67.22 7.13
11547 26.0760 58.68 67.25 7.23
11548 26.0780 61.74 67.30 7.40
11549 26.0800 72.73 67.36 8.03
11550 26.0820 68.84 67.43 7.75
11551 26.0840 87.73 67.52 8.78
11552 26.0860 68.01 67.43 7.78
11553 26.0880 68.58 67.57 7.80
11554 26.0900 63.56 67.73 7.51
11555 26.0920 74.33 67.73 8.03
11556 26.0940 71.67 67.95 7.90
11557 26.0960 64.40 68.21 7.55
11558 26.0980 70.00 68.51 7.89
11559 26.1000 68.25 68.85 7.78
11560 26.1020 74.81 69.23 8.09
11561 26.1040 65.65 69.65 7.57
11562 26.1060 61.62 70.09 7.40
11563 26.1080 61.43 70.55 7.38
11564 26.1100 83.95 71.00 8.62
11565 26.1120 63.18 71.45 7.34
11566 26.1140 67.63 71.91 7.70
11567 26.1160 66.74 72.40 7.68
11568 26.1180 84.97 72.96 8.65
11569 26.1200 81.32 73.62 8.45
11570 26.1220 74.24 74.42 8.05
11571 26.1240 74.11 75.39 8.02
11572 26.1260 81.48 76.54 8.49
11573 26.1280 91.74 77.91 9.04
11574 26.1300 72.86 79.48 7.99
11575 26.1320 86.15 81.29 8.62
11576 26.1340 98.72 83.32 9.24
11577 26.1360 83.37 85.56 8.65
11578 26.1380 88.36 88.07 8.81
11579 26.1400 107.08 90.67 9.73
11580 26.1420 96.21 93.37 9.12
11581 26.1440 103.58 96.11 9.47
11582 26.1460 101.36 98.80 9.44
11583 26.1480 110.97 101.30 9.92
11584 26.1500 117.64 103.44 10.17
11585 26.1520 115.83 105.06 10.01
11586 26.1540 106.60 105.98 9.62
11587 26.1560 108.41 106.09 9.79
11588 26.1580 112.03 105.37 9.89
11589 26.1600 101.13 103.89 9.37
11590 26.1620 91.73 101.82 8.88
11591 26.1640 90.58 99.34 8.88
11592 26.1660 84.82 96.65 8.64
11593 26.1680 101.70 94.03 9.48
11594 26.1700 82.44 91.36 8.52
11595 26.1720 79.73 88.85 8.26
11596 26.1740 83.78 86.55 8.54
11597 26.1760 76.80 84.50 8.23
11598 26.1780 77.28 82.71 8.24
11599 26.1800 84.74 81.20 8.66
11600 26.1820 83.37 79.95 8.48
11601 26.1840 87.89 78.96 8.76
11602 26.1860 80.60 78.23 8.45
11603 26.1880 77.96 77.63 8.31
11604 26.1900 80.08 77.33 8.41
11605 26.1920 67.98 77.31 7.72
11606 26.1940 90.07 77.53 8.89
11607 26.1960 84.78 77.93 8.68
11608 26.1980 86.12 78.61 8.73
11609 26.2000 103.06 79.53 9.56
11610 26.2020 97.92 80.69 9.17
11611 26.2040 93.01 82.26 9.05
11612 26.2060 93.77 83.96 9.11
11613 26.2080 100.07 85.93 9.39
11614 26.2100 87.28 88.18 8.75
11615 26.2120 100.27 90.71 9.34
11616 26.2140 111.28 93.47 9.84
11617 26.2160 120.09 96.61 10.31
11618 26.2180 125.60 99.69 10.54
11619 26.2200 90.85 102.76 8.93
11620 26.2220 100.45 105.71 9.36
11621 26.2240 118.55 108.40 10.19
11622 26.2260 113.13 110.75 10.01
11623 26.2280 102.80 112.75 9.54
11624 26.2300 116.91 114.44 10.14
11625 26.2320 124.76 115.81 10.40
11626 26.2340 119.66 117.03 10.28
11627 26.2360 121.43 118.02 10.42
11628 26.2380 140.04 118.67 11.12
11629 26.2400 119.27 118.84 10.29
11630 26.2420 121.11 118.44 10.27
11631 26.2440 113.10 117.47 9.94
11632 26.2460 134.75 116.04 10.92
11633 26.2480 106.68 114.39 9.73
11634 26.2500 120.66 112.75 10.28
11635 26.2520 102.92 111.28 9.46
11636 26.2540 112.49 110.29 9.97
11637 26.2560 116.57 109.71 10.13
11638 26.2580 115.62 109.91 10.15
11639 26.2600 101.90 110.82 9.50
11640 26.2620 101.73 112.45 9.40
11641 26.2640 124.79 114.81 10.40
11642 26.2660 117.08 117.88 10.22
11643 26.2680 112.35 121.59 9.98
11644 26.2700 126.15 125.85 10.58
11645 26.2720 140.44 130.52 10.97
11646 26.2740 128.37 135.40 10.61
11647 26.2760 125.73 140.35 10.55
11648 26.2780 136.21 145.22 11.01
11649 26.2800 136.42 149.94 10.97
11650 26.2820 133.07 154.47 10.77
11651 26.2840 145.60 158.70 11.23
11652 26.2860 154.27 162.50 11.69
11653 26.2880 199.76 165.72 13.31
11654 26.2900 161.85 168.25 11.94
11655 26.2920 181.12 170.03 12.48
11656 26.2940 190.80 171.15 12.91
11657 26.2960 179.09 171.74 12.62
11658 26.2980 203.42 171.99 13.44
11659 26.3000 172.85 172.09 12.28
11660 26.3020 176.02 172.15 12.36
11661 26.3040 167.23 172.12 12.04
11662 26.3060 140.67 172.07 11.13
11663 26.3080 157.27 171.73 11.83
11664 26.3100 170.59 170.91 12.22
11665 26.3120 131.00 169.49 10.64
11666 26.3140 143.32 167.52 11.19
11667 26.3160 157.94 165.06 11.85
11668 26.3180 143.21 162.23 11.27
11669 26.3200 138.21 159.05 11.07
11670 26.3220 142.09 155.56 11.07
11671 26.3240 141.27 151.76 11.09
11672 26.3260 172.07 147.67 12.34
11673 26.3280 137.46 143.28 11.04
11674 26.3300 130.29 138.79 10.67
11675 26.3320 137.72 134.23 10.99
11676 26.3340 141.33 129.66 11.03
11677 26.3360 117.54 125.15 10.19
11678 26.3380 106.88 120.77 9.73
11679 26.3400 116.85 116.57 10.13
11680 26.3420 99.20 112.56 9.30
11681 26.3440 110.92 108.78 9.82
11682 26.3460 116.83 105.25 10.22
11683 26.3480 104.23 101.97 9.59
11684 26.3500 94.21 99.00 9.16
11685 26.3520 94.76 96.35 9.02
11686 26.3540 82.42 94.02 8.48
11687 26.3560 91.89 92.03 9.00
11688 26.3580 69.37 90.37 7.81
11689 26.3600 91.21 88.95 8.98
11690 26.3620 96.67 87.97 9.15
11691 26.3640 93.12 87.32 8.96
11692 26.3660 93.92 87.01 9.14
11693 26.3680 88.34 87.02 8.86
11694 26.3700 83.78 87.36 8.56
11695 26.3720 86.67 88.00 8.63
11696 26.3740 96.50 88.93 9.17
11697 26.3760 75.77 90.13 8.18
11698 26.3780 95.29 91.51 9.15
11699 26.3800 96.86 93.89 9.23
11700 26.3820 94.56 95.77 9.00
11701 26.3840 87.69 97.78 8.71
11702 26.3860 93.37 99.79 9.10
11703 26.3880 105.24 101.59 9.65
11704 26.3900 104.35 102.94 9.55
11705 26.3920 123.16 103.53 10.31
11706 26.3940 112.11 103.14 9.86
11707 26.3960 110.32 101.75 9.93
11708 26.3980 116.91 99.55 10.14
11709 26.4000 97.86 97.08 9.27
11710 26.4020 115.85 94.68 10.02
11711 26.4040 109.71 92.61 9.75
11712 26.4060 81.54 90.89 8.49
11713 26.4080 84.52 89.82 8.63
11714 26.4100 87.26 89.29 8.76
11715 26.4120 94.53 89.30 8.97
11716 26.4140 90.43 89.84 8.86
11717 26.4160 92.65 90.91 9.06
11718 26.4180 88.54 92.49 8.79
11719 26.4200 95.13 94.59 9.11
11720 26.4220 102.54 97.17 9.40
11721 26.4240 117.67 100.22 10.09
11722 26.4260 121.15 103.64 10.32
11723 26.4280 117.93 107.32 10.17
11724 26.4300 110.38 111.02 9.84
11725 26.4320 114.71 114.41 9.92
11726 26.4340 119.10 117.22 10.17
11727 26.4360 111.08 119.30 9.91
11728 26.4380 122.58 120.48 10.36
11729 26.4400 133.93 120.83 10.88
11730 26.4420 108.85 120.50 9.64
11731 26.4440 100.23 119.77 9.34
11732 26.4460 111.90 118.96 9.91
11733 26.4480 104.46 118.41 9.57
11734 26.4500 112.85 118.42 9.92
11735 26.4520 103.85 119.26 9.42
11736 26.4540 130.10 121.16 10.68
11737 26.4560 117.69 124.31 10.19
11738 26.4580 133.86 128.87 10.86
11739 26.4600 127.08 134.97 10.53
11740 26.4620 124.23 142.67 10.33
11741 26.4640 162.08 151.88 11.82
11742 26.4660 156.76 162.34 11.77
11743 26.4680 184.04 173.45 12.69
11744 26.4700 193.43 184.15 13.04
11745 26.4720 209.73 192.82 13.46
11746 26.4740 233.78 197.08 14.30
11747 26.4760 199.00 194.74 13.26
11748 26.4780 207.18 185.70 13.56
11749 26.4800 163.17 172.71 11.96
11750 26.4820 151.55 159.12 11.44
11751 26.4840 112.52 147.14 9.91
11752 26.4860 122.27 137.61 10.41
11753 26.4880 123.84 130.71 10.46
11754 26.4900 123.55 126.38 10.40
11755 26.4920 114.76 124.50 9.99
11756 26.4940 121.01 124.99 10.29
11757 26.4960 116.73 127.76 10.15
11758 26.4980 134.51 132.49 10.85
11759 26.5000 153.81 138.47 11.67
11760 26.5020 140.42 144.31 11.04
11761 26.5040 151.77 148.40 11.50
11762 26.5060 158.46 149.91 11.86
11763 26.5080 161.05 149.28 11.97
11764 26.5100 159.39 147.29 11.78
11765 26.5120 148.45 144.26 11.35
11766 26.5140 152.60 140.18 11.62
11767 26.5160 125.50 135.20 10.55
11768 26.5180 121.35 129.76 10.41
11769 26.5200 131.77 124.54 10.78
11770 26.5220 94.40 120.20 9.09
11771 26.5240 97.90 116.88 9.29
11772 26.5260 117.99 114.92 10.19
11773 26.5280 100.74 114.37 9.48
11774 26.5300 107.98 115.17 9.79
11775 26.5320 113.98 117.01 9.96
11776 26.5340 121.41 119.24 10.37
11777 26.5360 114.14 120.83 10.07
11778 26.5380 110.22 120.80 9.90
11779 26.5400 108.89 118.86 9.76
11780 26.5420 111.49 115.55 9.86
11781 26.5440 118.88 111.80 10.26
11782 26.5460 110.57 108.34 9.92
11783 26.5480 120.90 105.59 10.39
11784 26.5500 93.17 103.75 9.06
11785 26.5520 102.62 102.90 9.52
11786 26.5540 101.53 103.10 9.47
11787 26.5560 112.28 104.36 10.05
11788 26.5580 119.13 106.70 10.32
11789 26.5600 115.33 110.13 10.16
11790 26.5620 122.96 114.62 10.41
11791 26.5640 117.07 120.12 10.18
11792 26.5660 110.40 126.48 9.95
11793 26.5680 147.56 133.34 11.52
11794 26.5700 160.26 140.18 11.90
11795 26.5720 172.26 146.13 12.36
11796 26.5740 167.70 150.23 12.18
11797 26.5760 180.03 151.96 12.71
11798 26.5780 164.75 150.34 12.13
11799 26.5800 152.14 146.08 11.60
11800 26.5820 139.39 140.05 11.09
11801 26.5840 124.49 133.23 10.49
11802 26.5860 125.41 126.42 10.51
11803 26.5880 133.62 120.14 10.95
11804 26.5900 104.61 114.70 9.72
11805 26.5920 123.21 110.23 10.35
11806 26.5940 120.42 106.78 10.31
11807 26.5960 105.45 104.34 9.71
11808 26.5980 109.69 102.86 9.88
11809 26.6000 136.38 102.29 10.97
11810 26.6020 117.60 102.60 10.15
11811 26.6040 119.31 103.71 10.23
11812 26.6060 127.60 105.59 10.68
11813 26.6080 111.75 108.18 9.96
11814 26.6100 107.87 111.42 9.78
11815 26.6120 120.29 115.22 10.24
11816 26.6140 120.16 119.45 10.30
11817 26.6160 116.75 123.89 10.16
11818 26.6180 146.95 128.30 11.41
11819 26.6200 118.17 132.32 10.25
11820 26.6220 147.86 135.59 11.32
11821 26.6240 146.82 137.85 11.38
11822 26.6260 138.80 138.97 11.10
11823 26.6280 147.31 139.09 11.45
11824 26.6300 143.70 138.51 11.24
11825 26.6320 110.74 137.61 9.85
11826 26.6340 138.99 136.79 11.07
11827 26.6360 119.28 136.39 10.26
11828 26.6380 140.00 136.66 11.10
11829 26.6400 138.27 137.82 11.07
11830 26.6420 123.93 140.07 10.33
11831 26.6440 129.31 143.51 10.62
11832 26.6460 150.49 148.09 11.53
11833 26.6480 145.89 153.27 11.38
11834 26.6500 145.83 157.92 11.40
11835 26.6520 178.12 160.58 12.43
11836 26.6540 155.95 160.73 11.71
11837 26.6560 141.97 159.21 11.20
11838 26.6580 155.54 157.23 11.71
11839 26.6600 149.09 155.47 11.43
11840 26.6620 168.43 154.10 12.13
11841 26.6640 162.44 153.04 11.87
11842 26.6660 156.55 152.20 11.73
11843 26.6680 159.05 151.46 11.89
11844 26.6700 157.78 150.77 11.84
11845 26.6720 166.94 150.10 12.00
11846 26.6740 140.94 149.40 11.10
11847 26.6760 154.84 148.65 11.65
11848 26.6780 141.98 147.83 11.22
11849 26.6800 139.78 146.94 11.09
11850 26.6820 129.75 145.98 10.58
11851 26.6840 169.30 144.96 12.17
11852 26.6860 139.69 143.92 11.04
11853 26.6880 153.20 142.89 11.64
11854 26.6900 145.47 141.91 11.33
11855 26.6920 119.66 140.99 10.18
11856 26.6940 148.55 140.13 11.42
11857 26.6960 137.79 139.31 11.02
11858 26.6980 137.88 138.48 11.06
11859 26.7000 126.74 137.68 10.59
11860 26.7020 142.40 136.99 11.10
11861 26.7040 130.95 136.55 10.67
11862 26.7060 133.07 136.54 10.82
11863 26.7080 134.91 137.15 10.92
11864 26.7100 131.41 138.53 10.80
11865 26.7120 134.24 140.80 10.78
11866 26.7140 125.19 144.06 10.45
11867 26.7160 138.19 148.33 11.05
11868 26.7180 153.21 153.59 11.65
11869 26.7200 142.15 159.68 11.18
11870 26.7220 166.83 166.30 12.03
11871 26.7240 161.02 172.85 11.85
11872 26.7260 153.72 179.01 11.64
11873 26.7280 158.40 184.31 11.81
11874 26.7300 154.25 188.99 11.70
11875 26.7320 147.43 193.27 11.29
11876 26.7340 147.17 197.29 11.27
11877 26.7360 145.04 201.05 11.35
11878 26.7380 188.37 204.34 12.92
11879 26.7400 179.49 206.96 12.59
11880 26.7420 191.58 208.67 12.87
11881 26.7440 224.42 209.34 13.99
11882 26.7460 225.19 208.93 14.10
11883 26.7480 244.90 207.44 14.64
11884 26.7500 210.37 205.11 13.73
11885 26.7520 240.84 202.16 14.45
11886 26.7540 224.47 198.88 13.97
11887 26.7560 207.07 195.61 13.54
11888 26.7580 185.87 192.69 12.78
11889 26.7600 204.22 190.46 13.46
11890 26.7620 208.20 189.18 13.38
11891 26.7640 211.29 189.01 13.59
11892 26.7660 186.68 189.75 12.85
11893 26.7680 185.33 190.73 12.75
11894 26.7700 206.83 190.66 13.54
11895 26.7720 206.55 188.13 13.41
11896 26.7740 171.30 182.42 12.22
11897 26.7760 172.49 174.21 12.36
11898 26.7780 155.87 165.06 11.74
11899 26.7800 132.36 156.43 10.83
11900 26.7820 139.11 149.00 10.93
11901 26.7840 150.29 142.66 11.48
11902 26.7860 114.66 136.68 10.05
11903 26.7880 125.01 130.28 10.48
11904 26.7900 123.13 123.36 10.51
11905 26.7920 106.57 116.40 9.59
11906 26.7940 111.28 110.00 9.85
11907 26.7960 104.97 104.45 9.62
11908 26.7980 91.32 99.82 8.99
11909 26.8000 80.19 96.02 8.39
11910 26.8020 83.14 92.90 8.47
11911 26.8040 81.32 90.36 8.40
11912 26.8060 93.18 88.25 9.09
11913 26.8080 85.99 86.56 8.69
11914 26.8100 90.60 85.19 8.97
11915 26.8120 76.13 84.09 8.10
11916 26.8140 76.31 83.22 8.18
11917 26.8160 75.99 82.54 8.20
11918 26.8180 64.73 82.03 7.57
11919 26.8200 89.69 81.64 8.91
11920 26.8220 74.25 81.34 8.00
11921 26.8240 86.02 81.11 8.66
11922 26.8260 90.71 80.93 8.94
11923 26.8280 82.57 80.76 8.52
11924 26.8300 74.16 80.64 8.10
11925 26.8320 91.37 80.57 8.88
11926 26.8340 72.56 80.57 7.94
11927 26.8360 75.82 80.67 8.19
11928 26.8380 69.46 80.88 7.87
11929 26.8400 83.88 81.24 8.59
11930 26.8420 73.96 81.76 7.98
11931 26.8440 102.79 82.65 9.45
11932 26.8460 97.88 83.54 9.28
11933 26.8480 80.37 84.63 8.41
11934 26.8500 86.71 85.96 8.81
11935 26.8520 86.14 87.54 8.60
11936 26.8540 101.67 89.40 9.41
11937 26.8560 106.99 91.54 9.72
11938 26.8580 99.63 93.99 9.41
11939 26.8600 101.97 96.76 9.47
11940 26.8620 119.32 99.82 10.13
11941 26.8640 97.89 103.22 9.22
11942 26.8660 114.94 106.90 10.09
11943 26.8680 101.87 110.81 9.48
11944 26.8700 138.12 114.84 11.03
11945 26.8720 128.71 118.93 10.57
11946 26.8740 135.41 123.01 10.78
11947 26.8760 112.91 127.08 10.01
11948 26.8780 101.33 131.18 9.45
11949 26.8800 133.21 135.30 10.84
11950 26.8820 132.61 139.52 10.70
11951 26.8840 127.22 143.76 10.52
11952 26.8860 163.58 147.98 12.01
11953 26.8880 134.83 152.16 10.87
11954 26.8900 159.54 156.37 11.84
11955 26.8920 175.91 160.71 12.35
11956 26.8940 170.98 165.32 12.20
11957 26.8960 152.55 170.33 11.64
11958 26.8980 146.24 175.80 11.32
11959 26.9000 164.26 181.70 11.99
11960 26.9020 166.03 187.81 12.00
11961 26.9040 191.17 193.64 12.81
11962 26.9060 177.52 198.58 12.55
11963 26.9080 160.64 202.06 11.90
11964 26.9100 186.18 204.05 12.79
11965 26.9120 177.29 204.68 12.35
11966 26.9140 193.22 204.13 12.99
11967 26.9160 187.43 202.51 12.91
11968 26.9180 203.71 199.87 13.33
11969 26.9200 188.49 196.31 12.86
11970 26.9220 189.43 192.03 12.76
11971 26.9240 193.05 187.24 12.95
11972 26.9260 210.79 182.23 13.64
11973 26.9280 167.03 177.20 12.18
11974 26.9300 144.92 172.33 11.32
11975 26.9320 152.87 167.73 11.47
11976 26.9340 159.22 163.41 11.86
11977 26.9360 134.66 159.45 10.95
11978 26.9380 139.31 155.76 11.07
11979 26.9400 137.06 152.27 11.02
11980 26.9420 139.86 148.91 11.01
11981 26.9440 153.04 145.90 11.59
11982 26.9460 119.75 142.55 10.27
11983 26.9480 135.34 139.12 10.96
11984 26.9500 138.12 135.60 11.01
11985 26.9520 129.25 131.99 10.59
11986 26.9540 131.99 128.32 10.74
11987 26.9560 128.24 124.63 10.71
11988 26.9580 119.38 121.02 10.25
11989 26.9600 114.90 117.54 10.06
11990 26.9620 120.22 114.25 10.19
11991 26.9640 119.26 111.17 10.23
11992 26.9660 90.20 108.37 8.95
11993 26.9680 109.57 105.88 9.83
11994 26.9700 115.54 103.75 10.12
11995 26.9720 90.19 102.01 8.86
11996 26.9740 94.14 100.74 9.02
11997 26.9760 89.32 100.01 8.92
11998 26.9780 78.20 99.93 8.33
11999 26.9800 94.60 100.66 9.14
12000 26.9820 114.91 102.43 9.95
12001 26.9840 94.22 105.45 9.10
12002 26.9860 108.36 110.12 9.78
12003 26.9880 106.48 116.77 9.70
12004 26.9900 130.42 125.65 10.73
12005 26.9920 113.70 136.34 9.90
12006 26.9940 161.71 147.12 11.87
12007 26.9960 159.77 154.58 11.92
12008 26.9980 162.71 155.36 11.96
12009 27.0000 139.68 149.04 11.10
12010 27.0020 133.07 138.52 10.74
12011 27.0040 125.51 127.34 10.44
12012 27.0060 115.17 117.64 10.09
12013 27.0080 113.89 110.25 10.03
12014 27.0100 106.05 105.03 9.68
12015 27.0120 108.19 101.68 9.65
12016 27.0140 96.77 99.87 9.24
12017 27.0160 87.97 99.31 8.84
12018 27.0180 102.79 99.77 9.49
12019 27.0200 106.77 101.04 9.67
12020 27.0220 101.38 102.90 9.39
12021 27.0240 132.96 105.01 10.73
12022 27.0260 112.70 106.96 9.98
12023 27.0280 93.68 108.24 9.11
12024 27.0300 89.78 108.39 8.89
12025 27.0320 92.68 107.26 8.98
12026 27.0340 102.72 105.07 9.51
12027 27.0360 99.90 102.30 9.46
12028 27.0380 113.63 99.43 9.99
12029 27.0400 89.64 96.86 8.85
12030 27.0420 81.32 94.80 8.38
12031 27.0440 83.01 93.36 8.50
12032 27.0460 93.85 92.56 9.12
12033 27.0480 87.97 92.38 8.82
12034 27.0500 94.85 92.76 9.17
12035 27.0520 90.57 93.60 8.81
12036 27.0540 98.89 94.75 9.33
12037 27.0560 110.79 96.02 9.93
12038 27.0580 103.41 97.16 9.51
12039 27.0600 100.81 97.89 9.37
12040 27.0620 88.92 97.96 8.76
12041 27.0640 87.69 97.23 8.74
12042 27.0660 93.91 95.72 9.14
12043 27.0680 85.44 93.57 8.65
12044 27.0700 88.45 91.01 8.79
12045 27.0720 82.55 88.28 8.44
12046 27.0740 69.97 85.57 7.82
12047 27.0760 64.10 82.99 7.51
12048 27.0780 58.20 80.63 7.18
12049 27.0800 72.68 78.52 7.95
12050 27.0820 79.36 76.67 8.25
12051 27.0840 58.06 75.06 7.14
12052 27.0860 68.39 73.72 7.79
12053 27.0880 80.94 72.59 8.43
12054 27.0900 72.62 71.67 7.92
12055 27.0920 82.88 70.92 8.45
12056 27.0940 71.82 70.28 7.90
12057 27.0960 64.92 69.80 7.58
12058 27.0980 60.86 69.44 7.30
12059 27.1000 59.50 69.18 7.20
12060 27.1020 72.57 69.00 7.85
12061 27.1040 70.38 68.90 7.85
12062 27.1060 73.70 69.05 8.07
12063 27.1080 77.54 69.08 8.31
12064 27.1100 61.98 69.18 7.31
12065 27.1120 61.49 69.28 7.29
12066 27.1140 61.57 69.49 7.32
12067 27.1160 57.00 69.77 7.13
12068 27.1180 59.88 70.12 7.24
12069 27.1200 64.33 70.53 7.50
12070 27.1220 73.83 71.02 7.92
12071 27.1240 64.19 71.59 7.46
12072 27.1260 73.38 72.25 8.09
12073 27.1280 79.92 72.99 8.36
12074 27.1300 69.39 73.84 7.76
12075 27.1320 72.31 74.78 7.89
12076 27.1340 69.64 75.84 7.81
12077 27.1360 78.07 76.97 8.29
12078 27.1380 69.90 78.25 7.84
12079 27.1400 71.57 79.65 7.89
12080 27.1420 82.02 81.18 8.37
12081 27.1440 78.22 82.83 8.22
12082 27.1460 77.80 84.63 8.31
12083 27.1480 73.61 86.57 8.07
12084 27.1500 81.81 88.70 8.42
12085 27.1520 87.70 91.06 8.67
12086 27.1540 107.27 93.72 9.63
12087 27.1560 86.38 96.76 8.74
12088 27.1580 102.18 100.29 9.48
12089 27.1600 90.73 104.46 8.88
12090 27.1620 103.92 109.43 9.41
12091 27.1640 104.01 115.42 9.51
12092 27.1660 114.31 122.71 10.09
12093 27.1680 118.94 131.62 10.21
12094 27.1700 138.07 142.57 10.94
12095 27.1720 164.26 155.95 11.83
12096 27.1740 168.20 172.26 12.09
12097 27.1760 174.44 191.82 12.47
12098 27.1780 197.74 214.72 13.14
12099 27.1800 237.14 240.30 14.29
12100 27.1820 310.04 266.42 16.35
12101 27.1840 307.08 288.96 16.31
12102 27.1860 299.54 302.34 16.37
12103 27.1880 281.45 302.18 15.64
12104 27.1900 239.15 288.50 14.44
12105 27.1920 240.32 265.55 14.41
12106 27.1940 221.93 238.99 13.90
12107 27.1960 167.94 213.01 12.21
12108 27.1980 170.27 189.75 12.20
12109 27.2000 147.51 169.91 11.29
12110 27.2020 140.39 153.46 10.96
12111 27.2040 153.01 140.12 11.55
12112 27.2060 128.54 129.42 10.65
12113 27.2080 127.45 120.92 10.56
12114 27.2100 143.40 114.16 11.15
12115 27.2120 116.78 108.72 10.08
12116 27.2140 120.59 104.31 10.20
12117 27.2160 109.69 100.70 9.92
12118 27.2180 114.14 97.70 9.97
12119 27.2200 103.92 95.06 9.45
12120 27.2220 88.16 92.63 8.73
12121 27.2240 95.39 90.37 9.19
12122 27.2260 95.61 88.35 9.21
12123 27.2280 93.85 86.61 9.11
12124 27.2300 106.96 85.15 9.66
12125 27.2320 97.45 83.94 9.23
12126 27.2340 95.51 82.98 9.15
12127 27.2360 97.57 82.55 9.33
12128 27.2380 73.08 82.03 8.07
12129 27.2400 79.36 81.75 8.28
12130 27.2420 79.67 81.69 8.32
12131 27.2440 75.48 81.87 8.14
12132 27.2460 81.91 82.30 8.58
12133 27.2480 82.00 82.98 8.49
12134 27.2500 94.34 83.94 9.12
12135 27.2520 87.80 85.22 8.75
12136 27.2540 94.20 86.84 9.14
12137 27.2560 81.09 88.83 8.53
12138 27.2580 89.82 91.26 8.89
12139 27.2600 97.98 94.14 9.29
12140 27.2620 92.42 97.49 8.99
12141 27.2640 103.96 101.29 9.58
12142 27.2660 113.84 105.40 10.12
12143 27.2680 106.35 109.55 9.75
12144 27.2700 121.82 113.32 10.32
12145 27.2720 122.73 116.23 10.36
12146 27.2740 108.96 118.13 9.79
12147 27.2760 133.07 119.13 10.97
12148 27.2780 131.44 119.68 10.77
12149 27.2800 128.93 120.38 10.59
12150 27.2820 117.31 121.78 10.09
12151 27.2840 121.57 124.21 10.38
12152 27.2860 143.58 127.86 11.33
12153 27.2880 136.41 132.79 10.98
12154 27.2900 121.40 138.96 10.31
12155 27.2920 123.25 146.24 10.29
12156 27.2940 152.91 154.27 11.62
12157 27.2960 178.28 162.46 12.71
12158 27.2980 171.05 170.02 12.23
12159 27.3000 166.57 176.01 12.09
12160 27.3020 157.67 179.89 11.72
12161 27.3040 188.10 181.27 12.82
12162 27.3060 183.94 180.85 12.77
12163 27.3080 168.51 179.65 12.27
12164 27.3100 168.12 178.74 12.11
12165 27.3120 161.40 178.98 11.80
12166 27.3140 163.59 180.96 12.00
12167 27.3160 180.52 184.93 12.75
12168 27.3180 161.72 190.92 11.88
12169 27.3200 193.35 198.72 13.09
12170 27.3220 198.88 207.91 13.14
12171 27.3240 231.09 218.01 14.25
12172 27.3260 278.32 228.28 15.73
12173 27.3280 279.37 237.80 15.82
12174 27.3300 279.42 245.41 15.64
12175 27.3320 287.59 249.68 15.80
12176 27.3340 250.66 249.42 14.83
12177 27.3360 242.10 244.10 14.79
12178 27.3380 216.00 234.18 13.83
12179 27.3400 196.34 220.96 13.08
12180 27.3420 169.40 206.07 12.11
12181 27.3440 186.11 190.85 12.81
12182 27.3460 162.40 176.34 12.05
12183 27.3480 127.84 163.11 10.63
12184 27.3500 158.94 151.39 11.85
12185 27.3520 157.02 141.20 11.67
12186 27.3540 139.56 132.38 11.06
12187 27.3560 128.06 124.76 10.73
12188 27.3580 116.71 118.10 10.18
12189 27.3600 111.71 112.25 9.88
12190 27.3620 111.18 107.11 9.85
12191 27.3640 109.60 102.61 9.84
12192 27.3660 114.99 98.71 10.19
12193 27.3680 110.48 95.37 9.91
12194 27.3700 100.32 92.53 9.41
12195 27.3720 94.69 90.14 9.08
12196 27.3740 105.85 88.16 9.66
12197 27.3760 94.71 86.54 9.22
12198 27.3780 100.90 85.25 9.50
12199 27.3800 92.66 84.25 9.03
12200 27.3820 99.30 83.52 9.31
12201 27.3840 109.68 83.05 9.81
12202 27.3860 78.60 82.82 8.41
12203 27.3880 79.18 82.80 8.37
12204 27.3900 93.23 83.02 9.07
12205 27.3920 93.74 83.46 9.01
12206 27.3940 77.08 84.11 8.28
12207 27.3960 90.90 84.97 9.03
12208 27.3980 74.99 86.06 8.20
12209 27.4000 87.87 87.37 8.81
12210 27.4020 93.58 88.95 9.00
12211 27.4040 97.30 90.80 9.29
12212 27.4060 105.46 92.94 9.74
12213 27.4080 96.96 95.36 9.29
12214 27.4100 115.34 98.03 10.07
12215 27.4120 113.27 100.86 9.94
12216 27.4140 105.51 103.74 9.62
12217 27.4160 116.39 106.54 10.24
12218 27.4180 110.31 109.19 9.89
12219 27.4200 121.85 111.72 10.33
12220 27.4220 140.49 114.22 11.05
12221 27.4240 119.52 116.88 10.25
12222 27.4260 125.96 120.07 10.60
12223 27.4280 126.78 123.78 10.61
12224 27.4300 131.61 128.41 10.81
12225 27.4320 155.87 134.20 11.58
12226 27.4340 133.46 141.42 10.83
12227 27.4360 158.03 150.37 11.89
12228 27.4380 160.20 161.37 11.98
12229 27.4400 179.38 174.73 12.49
12230 27.4420 169.52 190.72 12.14
12231 27.4440 191.79 209.28 12.95
12232 27.4460 196.71 229.54 13.26
12233 27.4480 224.95 249.43 14.19
12234 27.4500 253.20 265.17 14.99
12235 27.4520 274.46 271.99 15.45
12236 27.4540 282.09 267.29 15.80
12237 27.4560 259.27 252.14 15.22
12238 27.4580 244.86 230.84 14.80
12239 27.4600 202.73 207.90 13.39
12240 27.4620 166.53 186.29 12.00
12241 27.4640 179.43 167.51 12.53
12242 27.4660 149.73 151.90 11.61
12243 27.4680 124.47 139.28 10.52
12244 27.4700 141.40 129.31 11.15
12245 27.4720 130.74 121.55 10.67
12246 27.4740 122.14 115.59 10.35
12247 27.4760 112.79 111.09 10.05
12248 27.4780 115.89 107.76 10.18
12249 27.4800 94.81 105.30 9.15
12250 27.4820 91.81 103.48 8.98
12251 27.4840 113.10 102.06 9.95
12252 27.4860 100.48 100.86 9.49
12253 27.4880 102.23 99.77 9.57
12254 27.4900 80.75 98.78 8.44
12255 27.4920 93.56 97.97 9.04
12256 27.4940 98.50 97.44 9.25
12257 27.4960 115.51 97.35 10.17
12258 27.4980 91.37 97.84 9.03
12259 27.5000 95.21 99.07 9.19
12260 27.5020 106.05 101.30 9.57
12261 27.5040 93.27 104.68 9.10
12262 27.5060 93.04 109.19 9.12
12263 27.5080 105.00 114.38 9.70
12264 27.5100 119.98 119.04 10.29
12265 27.5120 119.24 121.44 10.19
12266 27.5140 136.95 120.86 10.89
12267 27.5160 116.04 118.39 10.21
12268 27.5180 119.46 115.84 10.31
12269 27.5200 119.35 114.39 10.19
12270 27.5220 95.47 114.43 9.11
12271 27.5240 100.94 115.81 9.40
12272 27.5260 123.84 118.19 10.51
12273 27.5280 133.84 121.03 10.95
12274 27.5300 115.63 123.61 10.11
12275 27.5320 113.81 125.27 9.91
12276 27.5340 134.78 125.64 10.80
12277 27.5360 118.41 125.40 10.25
12278 27.5380 120.91 124.83 10.39
12279 27.5400 123.56 124.20 10.40
12280 27.5420 116.51 123.41 10.05
12281 27.5440 130.27 122.09 10.67
12282 27.5460 113.76 119.69 10.04
12283 27.5480 104.42 115.97 9.66
12284 27.5500 109.90 111.12 9.81
12285 27.5520 109.19 105.74 9.73
12286 27.5540 104.46 100.49 9.54
12287 27.5560 96.23 95.76 9.26
12288 27.5580 90.45 91.72 9.00
12289 27.5600 86.16 88.47 8.72
12290 27.5620 91.76 85.94 8.92
12291 27.5640 71.73 84.03 7.90
12292 27.5660 80.57 82.65 8.50
12293 27.5680 82.74 81.68 8.58
12294 27.5700 78.99 81.04 8.34
12295 27.5720 74.34 80.62 8.02
12296 27.5740 87.06 80.38 8.74
12297 27.5760 77.89 80.32 8.34
12298 27.5780 87.67 80.63 8.87
12299 27.5800 92.16 81.01 8.98
12300 27.5820 93.08 81.64 9.02
12301 27.5840 84.77 82.51 8.57
12302 27.5860 82.66 83.60 8.62
12303 27.5880 84.08 84.82 8.67
12304 27.5900 90.32 86.03 8.93
12305 27.5920 76.69 87.05 8.17
12306 27.5940 80.58 87.68 8.40
12307 27.5960 88.27 87.80 8.88
12308 27.5980 80.43 87.43 8.50
12309 27.6000 76.77 86.68 8.22
12310 27.6020 80.68 85.75 8.36
12311 27.6040 82.36 84.81 8.45
12312 27.6060 81.77 84.02 8.56
12313 27.6080 88.37 83.44 8.89
12314 27.6100 70.06 83.18 7.86
12315 27.6120 86.73 83.26 8.69
12316 27.6140 90.64 83.73 8.92
12317 27.6160 82.30 84.60 8.57
12318 27.6180 92.90 85.92 9.10
12319 27.6200 92.18 87.72 8.99
12320 27.6220 97.92 90.05 9.25
12321 27.6240 91.71 92.96 8.88
12322 27.6260 93.40 96.53 9.12
12323 27.6280 102.01 100.81 9.56
12324 27.6300 122.72 105.90 10.40
12325 27.6320 105.68 111.85 9.54
12326 27.6340 113.47 118.71 9.94
12327 27.6360 120.64 126.48 10.38
12328 27.6380 141.89 135.18 11.23
12329 27.6400 135.19 144.79 10.88
12330 27.6420 145.42 155.27 11.25
12331 27.6440 160.59 166.46 11.86
12332 27.6460 183.29 178.09 12.79
12333 27.6480 185.90 189.58 12.97
12334 27.6500 216.04 199.88 13.75
12335 27.6520 203.52 207.87 13.32
12336 27.6540 238.97 212.45 14.36
12337 27.6560 211.74 213.10 13.82
12338 27.6580 206.52 210.14 13.54
12339 27.6600 186.82 204.53 12.84
12340 27.6620 187.51 197.51 12.77
12341 27.6640 188.01 190.13 12.82
12342 27.6660 165.36 183.24 12.12
12343 27.6680 167.37 177.34 12.27
12344 27.6700 194.34 172.70 13.07
12345 27.6720 176.84 169.44 12.41
12346 27.6740 181.47 167.50 12.55
12347 27.6760 177.32 166.78 12.58
12348 27.6780 153.29 167.08 11.71
12349 27.6800 173.82 168.19 12.34
12350 27.6820 172.70 170.00 12.25
12351 27.6840 166.97 172.38 12.05
12352 27.6860 186.22 175.12 12.94
12353 27.6880 198.12 177.82 13.25
12354 27.6900 188.15 179.99 12.92
12355 27.6920 188.75 181.06 12.78
12356 27.6940 198.77 180.51 13.11
12357 27.6960 198.21 178.03 13.32
12358 27.6980 198.07 173.50 13.31
12359 27.7000 176.16 167.12 12.45
12360 27.7020 144.58 159.34 11.17
12361 27.7040 150.40 150.76 11.44
12362 27.7060 146.35 141.94 11.39
12363 27.7080 126.85 133.36 10.68
12364 27.7100 123.42 125.31 10.39
12365 27.7120 111.60 117.93 9.86
12366 27.7140 110.32 111.35 9.73
12367 27.7160 121.00 105.54 10.39
12368 27.7180 94.25 100.47 9.17
12369 27.7200 91.00 96.11 8.94
12370 27.7220 104.39 92.40 9.53
12371 27.7240 96.00 89.25 9.10
12372 27.7260 87.55 86.60 8.85
12373 27.7280 88.18 84.40 8.86
12374 27.7300 98.89 82.58 9.35
12375 27.7320 88.48 81.08 8.72
12376 27.7340 95.04 79.87 9.12
12377 27.7360 67.32 78.89 7.71
12378 27.7380 96.37 78.12 9.30
12379 27.7400 78.06 77.52 8.29
12380 27.7420 81.08 77.08 8.39
12381 27.7440 88.31 76.70 8.71
12382 27.7460 88.73 76.49 8.91
12383 27.7480 94.78 76.39 9.23
12384 27.7500 80.21 76.38 8.39
12385 27.7520 75.85 76.45 8.12
12386 27.7540 88.12 76.62 8.78
12387 27.7560 76.85 76.87 8.23
12388 27.7580 77.24 77.24 8.28
12389 27.7600 78.54 78.32 8.33
12390 27.7620 106.58 78.97 9.65
12391 27.7640 87.85 79.81 8.71
12392 27.7660 93.50 80.88 9.07
12393 27.7680 96.09 82.23 9.31
12394 27.7700 78.29 83.93 8.31
12395 27.7720 94.72 86.07 9.06
12396 27.7740 95.27 88.74 9.14
12397 27.7760 86.67 92.07 8.81
12398 27.7780 97.06 96.21 9.31
12399 27.7800 110.35 101.28 9.85
12400 27.7820 101.64 107.47 9.41
12401 27.7840 124.61 114.89 10.41
12402 27.7860 111.30 123.62 9.92
12403 27.7880 137.22 133.70 11.09
12404 27.7900 145.37 144.91 11.32
12405 27.7920 136.88 156.82 10.91
12406 27.7940 166.36 168.88 12.07
12407 27.7960 174.04 180.05 12.44
12408 27.7980 219.72 189.22 14.00
12409 27.8000 230.54 195.28 14.18
12410 27.8020 206.00 197.44 13.43
12411 27.8040 214.36 195.25 13.63
12412 27.8060 181.90 189.26 12.70
12413 27.8080 171.44 180.59 12.35
12414 27.8100 170.58 170.52 12.28
12415 27.8120 147.81 160.20 11.34
12416 27.8140 162.15 150.44 11.89
12417 27.8160 143.61 141.73 11.26
12418 27.8180 144.21 134.46 11.32
12419 27.8200 142.61 128.79 11.18
12420 27.8220 124.08 124.75 10.38
12421 27.8240 126.02 122.30 10.48
12422 27.8260 111.85 121.38 9.96
12423 27.8280 139.69 121.86 11.15
12424 27.8300 142.28 123.58 11.19
12425 27.8320 135.40 126.39 10.89
12426 27.8340 137.66 130.11 10.94
12427 27.8360 157.30 134.55 11.81
12428 27.8380 153.79 139.49 11.71
12429 27.8400 138.94 144.63 11.05
12430 27.8420 143.11 149.58 11.16
12431 27.8440 156.27 153.83 11.63
12432 27.8460 148.09 156.79 11.50
12433 27.8480 182.45 157.98 12.70
12434 27.8500 167.12 157.10 12.14
12435 27.8520 152.20 154.27 11.51
12436 27.8540 141.54 149.86 11.10
12437 27.8560 148.53 144.46 11.50
12438 27.8580 131.85 138.66 10.86
12439 27.8600 137.74 132.97 11.01
12440 27.8620 152.30 127.74 11.55
12441 27.8640 108.80 123.24 9.75
12442 27.8660 115.63 119.63 10.17
12443 27.8680 123.51 116.99 10.50
12444 27.8700 123.57 115.51 10.48
12445 27.8720 117.60 114.98 10.13
12446 27.8740 147.26 115.53 11.31
12447 27.8760 116.94 117.08 10.21
12448 27.8780 122.64 119.46 10.45
12449 27.8800 126.97 122.26 10.56
12450 27.8820 147.03 124.71 11.30
12451 27.8840 143.82 125.68 11.16
12452 27.8860 138.79 124.32 11.09
12453 27.8880 130.94 120.80 10.80
12454 27.8900 108.13 116.17 9.79
12455 27.8920 121.73 111.63 10.28
12456 27.8940 110.05 108.12 9.78
12457 27.8960 109.50 105.52 9.87
12458 27.8980 102.52 104.11 9.56
12459 27.9000 113.40 103.83 9.99
12460 27.9020 99.42 104.63 9.28
12461 27.9040 103.99 106.46 9.50
12462 27.9060 106.12 109.28 9.69
12463 27.9080 114.46 113.01 10.09
12464 27.9100 101.84 117.61 9.48
12465 27.9120 115.96 122.95 10.04
12466 27.9140 142.80 128.88 11.14
12467 27.9160 134.72 135.13 10.91
12468 27.9180 121.49 141.32 10.43
12469 27.9200 132.59 146.99 10.80
12470 27.9220 127.40 151.59 10.55
12471 27.9240 148.00 154.65 11.34
12472 27.9260 171.45 155.91 12.33
12473 27.9280 193.11 155.39 13.17
12474 27.9300 179.20 153.41 12.52
12475 27.9320 174.30 150.47 12.34
12476 27.9340 175.79 147.09 12.38
12477 27.9360 154.63 143.69 11.69
12478 27.9380 147.24 140.46 11.44
12479 27.9400 118.89 137.36 10.25
12480 27.9420 124.04 134.21 10.39
12481 27.9440 135.83 130.87 10.89
12482 27.9460 120.31 127.43 10.32
12483 27.9480 122.36 124.04 10.46
12484 27.9500 132.43 120.75 10.81
12485 27.9520 127.91 117.19 10.53
12486 27.9540 112.03 112.97 9.89
12487 27.9560 111.79 108.07 9.97
12488 27.9580 92.48 102.96 9.06
12489 27.9600 95.76 98.19 9.14
12490 27.9620 103.40 94.05 9.48
12491 27.9640 84.44 90.62 8.55
12492 27.9660 87.96 87.84 8.86
12493 27.9680 84.11 85.60 8.68
12494 27.9700 91.56 83.86 9.01
12495 27.9720 85.47 82.53 8.63
12496 27.9740 83.29 81.59 8.51
12497 27.9760 78.14 81.00 8.35
12498 27.9780 83.43 80.71 8.63
12499 27.9800 89.83 80.67 8.91
12500 27.9820 78.34 80.78 8.26
12501 27.9840 72.30 80.90 7.98
12502 27.9860 89.77 80.85 8.92
12503 27.9880 86.48 80.51 8.79
12504 27.9900 87.97 79.84 8.83
12505 27.9920 87.36 78.93 8.76
12506 27.9940 71.81 77.91 7.95
12507 27.9960 76.10 76.92 8.23
12508 27.9980 85.99 76.06 8.75
12509 28.0000 65.11 75.37 7.60
12510 28.0020 85.45 74.86 8.61
12511 28.0040 84.95 74.53 8.60
12512 28.0060 99.41 74.36 9.42
12513 28.0080 65.66 74.34 7.63
12514 28.0100 93.26 74.42 9.11
12515 28.0120 59.90 74.59 7.24
12516 28.0140 83.44 74.84 8.52
12517 28.0160 73.24 75.20 8.08
12518 28.0180 68.86 75.70 7.86
12519 28.0200 91.76 76.36 9.01
12520 28.0220 70.55 77.23 7.82
12521 28.0240 73.52 78.31 8.03
12522 28.0260 92.74 79.62 9.16
12523 28.0280 78.93 81.17 8.36
12524 28.0300 82.36 82.91 8.48
12525 28.0320 83.79 84.83 8.54
12526 28.0340 76.06 86.82 8.18
12527 28.0360 91.09 88.82 8.99
12528 28.0380 109.56 90.77 9.83
12529 28.0400 97.78 92.70 9.34
12530 28.0420 94.77 94.70 9.06
12531 28.0440 96.08 96.81 9.21
12532 28.0460 119.45 98.92 10.33
12533 28.0480 109.58 100.69 9.85
12534 28.0500 117.09 101.78 10.15
12535 28.0520 103.60 102.05 9.50
12536 28.0540 108.83 101.77 9.75
12537 28.0560 80.56 101.30 8.47
12538 28.0580 99.71 101.16 9.39
12539 28.0600 112.22 101.66 9.97
12540 28.0620 106.62 102.95 9.62
12541 28.0640 125.55 105.10 10.47
12542 28.0660 113.36 108.13 10.05
12543 28.0680 105.02 112.04 9.64
12544 28.0700 119.54 116.83 10.30
12545 28.0720 119.93 122.50 10.18
12546 28.0740 138.42 129.04 11.00
12547 28.0760 124.44 136.37 10.54
12548 28.0780 152.28 144.42 11.60
12549 28.0800 154.89 152.98 11.68
12550 28.0820 177.45 161.98 12.45
12551 28.0840 173.39 171.26 12.31
12552 28.0860 186.48 180.73 12.84
12553 28.0880 209.63 190.44 13.71
12554 28.0900 229.99 200.49 14.23
12555 28.0920 215.33 210.92 13.68
12556 28.0940 262.81 221.72 15.09
12557 28.0960 248.60 232.65 14.88
12558 28.0980 267.00 243.45 15.34
12559 28.1000 270.53 253.76 15.41
12560 28.1020 270.00 263.29 15.34
12561 28.1040 276.25 271.97 15.54
12562 28.1060 242.29 279.85 14.60
12563 28.1080 269.61 287.07 15.47
12564 28.1100 276.49 293.89 15.66
12565 28.1120 285.95 300.48 15.66
12566 28.1140 349.32 306.85 17.39
12567 28.1160 321.00 312.81 16.86
12568 28.1180 352.90 317.90 17.71
12569 28.1200 349.39 321.44 17.45
12570 28.1220 356.09 322.74 17.57
12571 28.1240 302.63 321.25 16.14
12572 28.1260 290.99 316.79 16.00
12573 28.1280 280.10 309.67 15.77
12574 28.1300 311.15 300.54 16.55
12575 28.1320 276.25 290.17 15.48
12576 28.1340 236.50 279.32 14.31
12577 28.1360 250.84 268.59 14.91
12578 28.1380 257.17 258.18 15.06
12579 28.1400 212.93 248.52 13.60
12580 28.1420 199.51 239.94 13.11
12581 28.1440 213.42 232.62 13.64
12582 28.1460 212.16 226.54 13.65
12583 28.1480 209.40 221.58 13.57
12584 28.1500 193.53 217.58 13.04
12585 28.1520 191.91 214.51 12.90
12586 28.1540 215.97 212.33 13.63
12587 28.1560 196.42 211.01 13.16
12588 28.1580 215.90 210.46 13.84
12589 28.1600 242.33 210.60 14.53
12590 28.1620 223.45 211.37 13.85
12591 28.1640 242.54 212.72 14.52
12592 28.1660 236.05 214.58 14.46
12593 28.1680 239.20 216.82 14.50
12594 28.1700 232.71 219.37 14.33
12595 28.1720 237.00 221.82 14.32
12596 28.1740 243.34 223.57 14.63
12597 28.1760 239.28 223.71 14.50
12598 28.1780 234.20 221.15 14.42
12599 28.1800 234.95 215.27 14.41
12600 28.1820 184.79 206.42 12.64
12601 28.1840 183.47 195.72 12.65
12602 28.1860 204.99 184.45 13.49
12603 28.1880 182.65 173.47 12.71
12604 28.1900 174.72 163.26 12.42
12605 28.1920 142.27 154.03 11.10
12606 28.1940 151.62 145.79 11.55
12607 28.1960 145.90 138.57 11.28
12608 28.1980 134.83 132.31 10.92
12609 28.2000 133.31 126.98 10.78
12610 28.2020 130.83 122.54 10.66
12611 28.2040 117.72 118.98 10.16
12612 28.2060 107.81 116.30 9.70
12613 28.2080 122.40 114.47 10.40
12614 28.2100 112.04 113.50 9.93
12615 28.2120 117.15 113.34 10.04
12616 28.2140 130.63 113.97 10.72
12617 28.2160 120.82 115.33 10.35
12618 28.2180 128.75 117.32 10.67
12619 28.2200 123.45 119.76 10.45
12620 28.2220 129.20 122.39 10.61
12621 28.2240 140.53 124.86 11.10
12622 28.2260 131.07 126.72 10.78
12623 28.2280 144.21 127.54 11.33
12624 28.2300 155.88 127.03 11.72
12625 28.2320 136.59 125.49 10.87
12626 28.2340 126.55 122.53 10.57
12627 28.2360 126.00 118.88 10.57
12628 28.2380 95.39 114.99 9.18
12629 28.2400 103.07 111.24 9.55
12630 28.2420 114.36 107.89 9.94
12631 28.2440 111.37 105.10 9.94
12632 28.2460 83.83 102.97 8.61
12633 28.2480 93.57 101.44 9.08
12634 28.2500 103.25 100.69 9.57
12635 28.2520 111.53 100.57 9.84
12636 28.2540 107.50 101.09 9.74
12637 28.2560 114.82 102.12 10.10
12638 28.2580 134.79 103.54 10.94
12639 28.2600 116.50 105.18 10.12
12640 28.2620 119.45 106.86 10.18
12641 28.2640 108.54 108.35 9.75
12642 28.2660 126.11 109.42 10.59
12643 28.2680 105.17 109.92 9.67
12644 28.2700 122.54 109.80 10.39
12645 28.2720 104.38 109.12 9.53
12646 28.2740 96.85 108.03 9.23
12647 28.2760 104.81 106.72 9.63
12648 28.2780 100.89 105.35 9.51
12649 28.2800 86.28 104.06 8.74
12650 28.2820 84.11 102.96 8.54
12651 28.2840 94.41 102.12 9.13
12652 28.2860 91.99 101.62 9.01
12653 28.2880 103.09 101.47 9.55
12654 28.2900 111.35 101.69 9.88
12655 28.2920 99.19 102.22 9.28
12656 28.2940 94.65 102.90 9.09
12657 28.2960 116.34 103.49 10.14
12658 28.2980 121.59 103.64 10.36
12659 28.3000 89.10 103.08 8.88
12660 28.3020 103.65 101.67 9.46
12661 28.3040 81.49 99.55 8.45
12662 28.3060 96.34 97.05 9.21
12663 28.3080 85.54 94.50 8.71
12664 28.3100 99.01 92.19 9.35
12665 28.3120 79.46 90.31 8.30
12666 28.3140 88.01 88.93 8.79
12667 28.3160 88.20 88.14 8.80
12668 28.3180 89.81 87.94 8.93
12669 28.3200 87.24 88.36 8.76
12670 28.3220 95.90 89.40 9.10
12671 28.3240 88.41 91.10 8.78
12672 28.3260 88.49 93.45 8.86
12673 28.3280 84.17 96.37 8.60
12674 28.3300 103.04 99.54 9.52
12675 28.3320 108.34 102.20 9.70
12676 28.3340 96.03 103.21 9.21
12677 28.3360 108.86 101.84 9.81
12678 28.3380 101.00 98.45 9.43
12679 28.3400 105.68 94.16 9.65
12680 28.3420 97.09 89.94 9.17
12681 28.3440 78.86 86.23 8.30
12682 28.3460 85.50 83.12 8.72
12683 28.3480 81.76 80.58 8.50
12684 28.3500 72.64 78.55 8.00
12685 28.3520 73.29 76.94 7.98
12686 28.3540 72.93 75.70 7.97
12687 28.3560 77.98 74.82 8.31
12688 28.3580 78.23 74.21 8.32
12689 28.3600 70.49 73.98 7.83
12690 28.3620 78.63 74.10 8.26
12691 28.3640 79.29 74.60 8.30
12692 28.3660 68.49 75.53 7.80
12693 28.3680 76.31 76.94 8.19
12694 28.3700 100.27 78.92 9.40
12695 28.3720 96.47 81.51 9.12
12696 28.3740 82.82 84.74 8.51
12697 28.3760 98.66 88.48 9.28
12698 28.3780 95.33 92.50 9.22
12699 28.3800 105.71 96.44 9.57
12700 28.3820 116.16 100.16 10.00
12701 28.3840 99.23 101.94 9.32
12702 28.3860 102.70 101.18 9.50
12703 28.3880 109.64 97.79 9.83
12704 28.3900 96.63 92.93 9.24
12705 28.3920 80.99 88.01 8.36
12706 28.3940 76.46 83.85 8.15
12707 28.3960 67.67 80.66 7.76
12708 28.3980 91.84 78.39 8.98
12709 28.4000 75.82 76.91 8.17
12710 28.4020 83.21 76.09 8.45
12711 28.4040 75.54 75.85 8.13
12712 28.4060 77.77 76.12 8.27
12713 28.4080 74.28 76.90 8.09
12714 28.4100 90.28 78.13 8.89
12715 28.4120 96.41 79.73 9.12
12716 28.4140 81.03 81.46 8.41
12717 28.4160 78.82 82.93 8.33
12718 28.4180 98.50 83.81 9.31
12719 28.4200 95.11 84.10 9.14
12720 28.4220 87.71 84.13 8.71
12721 28.4240 82.71 84.19 8.42
12722 28.4260 82.84 84.37 8.56
12723 28.4280 87.92 84.64 8.80
12724 28.4300 86.18 84.91 8.66
12725 28.4320 95.01 85.08 9.01
12726 28.4340 102.97 85.07 9.48
12727 28.4360 102.49 84.86 9.44
12728 28.4380 99.01 84.45 9.37
12729 28.4400 107.13 83.88 9.64
12730 28.4420 88.83 83.19 8.74
12731 28.4440 91.43 82.45 8.89
12732 28.4460 78.50 81.72 8.37
12733 28.4480 84.73 80.99 8.60
12734 28.4500 71.80 80.40 7.91
12735 28.4520 92.07 79.91 8.91
12736 28.4540 74.85 79.54 8.06
12737 28.4560 75.54 79.29 8.17
12738 28.4580 75.98 79.17 8.17
12739 28.4600 81.47 79.15 8.42
12740 28.4620 82.44 79.22 8.44
12741 28.4640 83.45 79.36 8.55
12742 28.4660 74.65 79.55 8.11
12743 28.4680 85.98 79.75 8.77
12744 28.4700 83.53 79.93 8.51
12745 28.4720 69.38 80.08 7.76
12746 28.4740 83.23 80.16 8.53
12747 28.4760 87.07 80.17 8.77
12748 28.4780 80.15 80.09 8.38
12749 28.4800 92.18 79.92 8.99
12750 28.4820 78.99 79.66 8.26
12751 28.4840 89.58 79.30 8.86
12752 28.4860 87.96 78.87 8.81
12753 28.4880 89.30 78.38 8.90
12754 28.4900 88.34 77.86 8.79
12755 28.4920 81.40 77.37 8.41
12756 28.4940 72.14 76.93 7.95
12757 28.4960 84.18 76.60 8.62
12758 28.4980 86.71 76.40 8.79
12759 28.5000 81.63 76.35 8.42
12760 28.5020 74.43 76.50 8.06
12761 28.5040 86.60 76.85 8.70
12762 28.5060 80.79 77.45 8.44
12763 28.5080 71.28 78.32 7.93
12764 28.5100 83.74 79.49 8.56
12765 28.5120 80.98 80.97 8.41
12766 28.5140 96.11 82.73 9.21
12767 28.5160 80.17 84.74 8.42
12768 28.5180 99.11 86.92 9.42
12769 28.5200 88.39 89.18 8.80
12770 28.5220 75.00 91.53 8.08
12771 28.5240 86.26 94.02 8.74
12772 28.5260 108.08 96.80 9.79
12773 28.5280 112.51 99.99 10.06
12774 28.5300 117.47 103.56 10.15
12775 28.5320 100.49 107.34 9.40
12776 28.5340 113.61 111.10 10.07
12777 28.5360 97.50 114.75 9.36
12778 28.5380 93.74 118.39 9.12
12779 28.5400 118.90 122.19 10.22
12780 28.5420 110.83 126.26 9.88
12781 28.5440 112.77 130.55 10.02
12782 28.5460 123.51 134.96 10.46
12783 28.5480 112.66 139.34 10.01
12784 28.5500 115.07 143.47 10.11
12785 28.5520 132.45 147.17 10.79
12786 28.5540 115.66 150.25 10.17
12787 28.5560 139.94 152.56 11.20
12788 28.5580 144.49 153.96 11.43
12789 28.5600 142.22 154.37 11.14
12790 28.5620 161.62 153.74 11.94
12791 28.5640 162.94 152.09 12.08
12792 28.5660 155.34 149.52 11.76
12793 28.5680 162.77 146.11 12.05
12794 28.5700 151.94 142.04 11.60
12795 28.5720 138.98 137.47 11.04
12796 28.5740 134.43 132.58 10.95
12797 28.5760 124.04 127.55 10.56
12798 28.5780 116.80 122.53 10.22
12799 28.5800 111.75 117.64 9.93
12800 28.5820 91.48 112.98 8.98
12801 28.5840 111.20 108.60 10.00
12802 28.5860 100.67 104.55 9.49
12803 28.5880 99.29 100.85 9.44
12804 28.5900 87.53 97.48 8.81
12805 28.5920 88.61 94.83 8.79
12806 28.5940 67.74 92.04 7.77
12807 28.5960 91.57 89.46 9.05
12808 28.5980 93.78 87.05 9.15
12809 28.6000 90.62 84.80 8.97
12810 28.6020 76.56 82.69 8.16
12811 28.6040 81.14 80.75 8.49
12812 28.6060 79.33 79.00 8.43
12813 28.6080 84.82 77.45 8.72
12814 28.6100 66.62 76.11 7.68
12815 28.6120 65.19 74.96 7.55
12816 28.6140 67.64 74.02 7.74
12817 28.6160 59.93 73.24 7.31
12818 28.6180 70.46 72.66 7.93
12819 28.6200 79.21 72.24 8.35
12820 28.6220 72.24 71.99 7.91
12821 28.6240 69.31 71.89 7.82
12822 28.6260 78.95 71.95 8.35
12823 28.6280 66.17 72.16 7.68
12824 28.6300 79.51 72.53 8.38
12825 28.6320 75.02 73.05 8.07
12826 28.6340 71.28 73.75 7.94
12827 28.6360 81.55 74.64 8.54
12828 28.6380 84.54 75.75 8.64
12829 28.6400 67.54 77.10 7.74
12830 28.6420 84.91 78.72 8.58
12831 28.6440 86.83 80.64 8.74
12832 28.6460 75.97 82.90 8.18
12833 28.6480 102.45 85.52 9.60
12834 28.6500 96.65 88.51 9.22
12835 28.6520 101.79 91.93 9.39
12836 28.6540 85.51 95.67 8.70
12837 28.6560 109.68 99.70 9.90
12838 28.6580 99.82 103.80 9.35
12839 28.6600 125.58 107.45 10.55
12840 28.6620 117.04 109.84 10.06
12841 28.6640 115.35 110.53 10.02
12842 28.6660 135.33 109.72 10.94
12843 28.6680 117.52 108.00 10.21
12844 28.6700 102.14 106.14 9.46
12845 28.6720 87.33 104.17 8.72
12846 28.6740 91.82 102.02 9.02
12847 28.6760 98.06 99.59 9.32
12848 28.6780 97.66 96.88 9.29
12849 28.6800 99.32 93.98 9.38
12850 28.6820 84.46 91.05 8.52
12851 28.6840 94.75 88.24 9.11
12852 28.6860 86.58 85.70 8.76
12853 28.6880 99.30 83.48 9.38
12854 28.6900 84.49 81.63 8.59
12855 28.6920 84.37 80.14 8.56
12856 28.6940 72.67 79.01 7.98
12857 28.6960 79.19 78.21 8.35
12858 28.6980 81.40 77.73 8.50
12859 28.7000 85.04 77.56 8.64
12860 28.7020 79.82 77.65 8.33
12861 28.7040 70.12 77.96 7.81
12862 28.7060 77.69 78.46 8.31
12863 28.7080 86.35 79.06 8.72
12864 28.7100 74.18 79.63 8.10
12865 28.7120 64.88 80.13 7.53
12866 28.7140 76.24 80.43 8.20
12867 28.7160 90.14 80.92 8.92
12868 28.7180 82.19 80.90 8.52
12869 28.7200 75.84 80.89 8.21
12870 28.7220 72.09 81.00 7.90
12871 28.7240 72.60 81.29 7.95
12872 28.7260 86.12 81.78 8.70
12873 28.7280 82.15 82.49 8.55
12874 28.7300 81.75 83.39 8.46
12875 28.7320 98.10 84.42 9.25
12876 28.7340 87.17 85.45 8.75
12877 28.7360 77.14 86.60 8.23
12878 28.7380 87.56 87.83 8.79
12879 28.7400 88.65 89.21 8.86
12880 28.7420 84.74 90.85 8.57
12881 28.7440 100.67 92.86 9.40
12882 28.7460 96.20 95.29 9.23
12883 28.7480 105.70 98.21 9.68
12884 28.7500 80.07 101.63 8.40
12885 28.7520 95.09 105.52 9.11
12886 28.7540 101.96 109.85 9.47
12887 28.7560 104.97 114.50 9.63
12888 28.7580 121.60 119.31 10.42
12889 28.7600 133.96 124.04 10.87
12890 28.7620 125.76 128.33 10.45
12891 28.7640 154.41 131.84 11.64
12892 28.7660 127.09 134.20 10.54
12893 28.7680 137.32 135.30 11.07
12894 28.7700 113.71 135.16 10.00
12895 28.7720 133.90 134.04 10.77
12896 28.7740 116.46 132.26 10.16
12897 28.7760 115.49 130.14 10.14
12898 28.7780 103.28 127.95 9.54
12899 28.7800 122.54 125.85 10.37
12900 28.7820 142.09 124.23 11.07
12901 28.7840 109.04 122.67 9.78
12902 28.7860 131.00 121.51 10.70
12903 28.7880 108.47 120.86 9.86
12904 28.7900 98.68 120.81 9.33
12905 28.7920 101.42 121.46 9.36
12906 28.7940 116.49 122.90 10.13
12907 28.7960 122.36 125.21 10.44
12908 28.7980 129.10 128.49 10.67
12909 28.8000 118.25 133.05 10.18
12910 28.8020 123.10 138.37 10.35
12911 28.8040 154.19 144.70 11.59
12912 28.8060 148.71 151.96 11.48
12913 28.8080 148.61 159.86 11.46
12914 28.8100 143.88 168.04 11.23
12915 28.8120 179.78 175.93 12.52
12916 28.8140 174.91 182.93 12.39
12917 28.8160 192.94 188.53 13.00
12918 28.8180 200.85 192.52 13.31
12919 28.8200 192.69 195.10 13.00
12920 28.8220 187.68 196.72 12.73
12921 28.8240 174.01 197.96 12.30
12922 28.8260 178.38 199.28 12.54
12923 28.8280 212.22 200.95 13.63
12924 28.8300 232.64 203.00 14.28
12925 28.8320 244.99 205.25 14.63
12926 28.8340 227.90 207.37 14.05
12927 28.8360 198.30 208.90 13.22
12928 28.8380 203.90 209.39 13.48
12929 28.8400 194.06 208.49 13.00
12930 28.8420 182.83 206.07 12.52
12931 28.8440 185.83 202.26 12.76
12932 28.8460 158.81 197.38 11.83
12933 28.8480 179.51 191.93 12.61
12934 28.8500 161.92 186.45 11.88
12935 28.8520 152.14 181.44 11.50
12936 28.8540 150.12 177.36 11.43
12937 28.8560 183.11 174.57 12.64
12938 28.8580 177.51 173.34 12.50
12939 28.8600 172.17 173.87 12.31
12940 28.8620 166.54 176.14 12.00
12941 28.8640 204.07 179.99 13.28
12942 28.8660 185.84 184.99 12.79
12943 28.8680 200.49 190.60 13.35
12944 28.8700 219.32 196.35 13.84
12945 28.8720 201.92 201.93 13.27
12946 28.8740 240.41 206.98 14.49
12947 28.8760 267.56 210.86 15.31
12948 28.8780 252.90 212.70 14.91
12949 28.8800 231.94 211.72 14.29
12950 28.8820 213.96 207.65 13.61
12951 28.8840 205.24 200.86 13.32
12952 28.8860 181.87 192.24 12.58
12953 28.8880 163.38 182.86 12.07
12954 28.8900 157.49 173.66 11.79
12955 28.8920 147.99 165.36 11.30
12956 28.8940 144.59 158.43 11.22
12957 28.8960 130.17 153.11 10.70
12958 28.8980 146.12 149.55 11.31
12959 28.9000 127.29 147.78 10.54
12960 28.9020 145.47 147.77 11.23
12961 28.9040 139.78 149.41 10.98
12962 28.9060 139.42 152.50 11.06
12963 28.9080 142.36 156.70 11.20
12964 28.9100 142.19 161.60 11.17
12965 28.9120 173.72 166.57 12.22
12966 28.9140 162.41 170.84 11.90
12967 28.9160 171.89 173.65 12.30
12968 28.9180 162.32 174.43 11.98
12969 28.9200 181.17 172.96 12.56
12970 28.9220 190.75 169.33 12.80
12971 28.9240 168.59 163.89 12.14
12972 28.9260 159.80 157.15 11.82
12973 28.9280 163.33 149.63 12.02
12974 28.9300 137.26 141.85 10.99
12975 28.9320 128.32 134.27 10.56
12976 28.9340 121.98 127.17 10.30
12977 28.9360 114.35 120.78 10.07
12978 28.9380 138.93 115.18 11.14
12979 28.9400 115.76 110.43 10.07
12980 28.9420 115.27 106.50 9.98
12981 28.9440 114.85 103.36 10.09
12982 28.9460 109.74 100.97 9.83
12983 28.9480 105.28 99.24 9.68
12984 28.9500 111.58 98.13 9.90
12985 28.9520 117.20 97.60 10.14
12986 28.9540 106.33 97.60 9.65
12987 28.9560 90.60 98.06 8.95
12988 28.9580 111.11 98.91 9.98
12989 28.9600 106.76 100.01 9.68
12990 28.9620 83.53 101.20 8.47
12991 28.9640 99.13 102.32 9.37
12992 28.9660 100.61 103.26 9.42
12993 28.9680 99.49 104.00 9.43
12994 28.9700 100.10 104.71 9.38
12995 28.9720 117.62 105.62 10.15
12996 28.9740 145.27 106.99 11.27
12997 28.9760 109.24 109.06 9.86
12998 28.9780 122.29 112.09 10.42
12999 28.9800 124.89 116.32 10.45
13000 28.9820 133.35 122.00 10.73
13001 28.9840 135.44 129.45 10.84
13002 28.9860 124.08 138.99 10.49
13003 28.9880 140.90 150.86 11.20
13004 28.9900 166.52 165.24 12.05
13005 28.9920 196.76 181.87 13.05
13006 28.9940 199.76 200.19 13.20
13007 28.9960 219.13 219.36 13.91
13008 28.9980 247.68 238.65 14.78
13009 29.0000 273.90 257.18 15.52
13010 29.0020 291.68 272.27 15.92
13011 29.0040 291.33 278.92 15.87
13012 29.0060 273.25 272.57 15.53
13013 29.0080 267.20 254.21 15.41
13014 29.0100 227.28 229.96 14.12
13015 29.0120 197.32 206.10 13.08
13016 29.0140 182.92 185.94 12.59
13017 29.0160 173.58 170.33 12.41
13018 29.0180 171.24 158.83 12.33
13019 29.0200 151.70 150.78 11.48
13020 29.0220 150.55 145.51 11.46
13021 29.0240 156.41 142.53 11.64
13022 29.0260 155.89 141.46 11.69
13023 29.0280 149.37 142.04 11.54
13024 29.0300 145.40 144.11 11.32
13025 29.0320 159.65 147.54 11.74
13026 29.0340 114.48 152.23 10.00
13027 29.0360 157.98 158.10 11.83
13028 29.0380 159.55 165.35 11.92
13029 29.0400 157.20 173.32 11.65
13030 29.0420 189.22 182.11 12.80
13031 29.0440 186.36 191.56 12.70
13032 29.0460 205.15 201.43 13.44
13033 29.0480 214.78 211.48 13.81
13034 29.0500 228.57 221.61 14.17
13035 29.0520 226.20 231.84 14.00
13036 29.0540 258.64 242.45 14.98
13037 29.0560 272.81 254.10 15.46
13038 29.0580 303.57 267.61 16.43
13039 29.0600 320.57 283.82 16.71
13040 29.0620 317.83 302.64 16.55
13041 29.0640 367.60 321.84 17.96
13042 29.0660 346.94 336.05 17.41
13043 29.0680 371.61 338.48 18.15
13044 29.0700 315.17 326.83 16.60
13045 29.0720 272.53 305.79 15.38
13046 29.0740 258.61 282.69 14.89
13047 29.0760 237.42 262.37 14.49
13048 29.0780 225.47 246.62 14.13
13049 29.0800 221.04 235.32 13.89
13050 29.0820 225.98 227.32 13.93
13051 29.0840 220.97 221.08 13.84
13052 29.0860 208.01 215.04 13.55
13053 29.0880 205.50 208.41 13.49
13054 29.0900 196.62 201.39 13.09
13055 29.0920 193.46 194.62 12.88
13056 29.0940 162.92 188.43 11.89
13057 29.0960 195.67 182.85 13.16
13058 29.0980 157.00 177.68 11.77
13059 29.1000 171.51 172.69 12.23
13060 29.1020 190.04 167.71 12.78
13061 29.1040 149.46 162.65 11.41
13062 29.1060 173.54 157.49 12.39
13063 29.1080 156.21 152.28 11.75
13064 29.1100 159.24 147.09 11.77
13065 29.1120 139.65 142.01 11.00
13066 29.1140 111.00 137.12 9.81
13067 29.1160 144.97 132.45 11.35
13068 29.1180 133.98 128.07 10.80
13069 29.1200 116.20 123.99 10.06
13070 29.1220 104.53 120.21 9.49
13071 29.1240 113.04 116.74 9.86
13072 29.1260 103.62 113.54 9.56
13073 29.1280 109.46 110.61 9.88
13074 29.1300 107.13 107.91 9.63
13075 29.1320 84.61 105.41 8.57
13076 29.1340 98.79 103.06 9.22
13077 29.1360 99.20 100.83 9.40
13078 29.1380 102.48 98.68 9.48
13079 29.1400 95.42 96.60 9.11
13080 29.1420 98.47 94.57 9.20
13081 29.1440 92.88 92.59 8.92
13082 29.1460 87.89 90.67 8.82
13083 29.1480 84.34 88.85 8.63
13084 29.1500 91.02 87.13 8.87
13085 29.1520 85.59 85.54 8.57
13086 29.1540 77.78 84.07 8.19
13087 29.1560 73.27 82.73 8.05
13088 29.1580 71.99 81.54 7.93
13089 29.1600 81.03 80.47 8.36
13090 29.1620 77.02 79.51 8.16
13091 29.1640 75.26 78.67 8.04
13092 29.1660 69.92 77.94 7.87
13093 29.1680 76.54 77.32 8.20
13094 29.1700 81.11 76.81 8.40
13095 29.1720 70.32 76.47 7.85
13096 29.1740 84.33 76.19 8.52
13097 29.1760 79.37 76.05 8.38
13098 29.1780 87.75 76.04 8.77
13099 29.1800 81.17 76.20 8.38
13100 29.1820 75.34 76.53 8.05
13101 29.1840 69.32 77.06 7.74
13102 29.1860 75.20 77.79 8.17
13103 29.1880 68.55 78.73 7.76
13104 29.1900 91.37 79.85 8.93
13105 29.1920 74.08 81.09 8.01
13106 29.1940 76.96 82.37 8.18
13107 29.1960 88.67 83.56 8.85
13108 29.1980 94.20 84.62 9.09
13109 29.2000 80.68 85.55 8.35
13110 29.2020 84.49 86.42 8.53
13111 29.2040 79.73 87.32 8.35
13112 29.2060 97.75 88.26 9.30
13113 29.2080 90.84 89.15 8.90
13114 29.2100 90.44 89.88 8.87
13115 29.2120 81.15 90.34 8.38
13116 29.2140 94.85 90.52 9.12
13117 29.2160 99.48 90.46 9.36
13118 29.2180 86.01 90.37 8.66
13119 29.2200 92.38 90.39 8.95
13120 29.2220 85.97 90.65 8.65
13121 29.2240 97.63 91.25 9.27
13122 29.2260 101.50 92.40 9.50
13123 29.2280 90.83 93.78 8.95
13124 29.2300 88.04 95.51 8.74
13125 29.2320 88.27 97.52 8.82
13126 29.2340 87.94 99.63 8.78
13127 29.2360 90.35 101.66 8.93
13128 29.2380 89.39 103.42 8.91
13129 29.2400 123.46 104.78 10.35
13130 29.2420 117.59 105.67 10.16
13131 29.2440 119.58 106.05 10.23
13132 29.2460 125.76 105.86 10.59
13133 29.2480 106.61 105.10 9.66
13134 29.2500 109.41 103.90 9.79
13135 29.2520 97.84 102.57 9.20
13136 29.2540 104.10 101.55 9.57
13137 29.2560 94.13 101.12 9.18
13138 29.2580 92.78 101.33 9.06
13139 29.2600 101.20 101.94 9.40
13140 29.2620 117.61 102.21 10.15
13141 29.2640 109.98 101.28 9.84
13142 29.2660 99.99 98.76 9.42
13143 29.2680 103.06 95.01 9.56
13144 29.2700 98.48 90.84 9.28
13145 29.2720 85.79 86.87 8.67
13146 29.2740 101.15 83.42 9.44
13147 29.2760 99.22 80.52 9.42
13148 29.2780 94.63 78.09 9.12
13149 29.2800 78.25 76.05 8.29
13150 29.2820 72.94 74.32 7.98
13151 29.2840 83.48 72.85 8.57
13152 29.2860 61.38 71.59 7.37
13153 29.2880 87.03 70.54 8.81
13154 29.2900 70.10 69.65 7.81
13155 29.2920 60.41 68.92 7.27
13156 29.2940 76.29 68.31 8.23
13157 29.2960 72.64 67.63 8.04
13158 29.2980 70.81 67.21 7.93
13159 29.3000 73.75 66.91 8.01
13160 29.3020 81.06 66.71 8.42
13161 29.3040 59.91 66.58 7.29
13162 29.3060 62.29 66.53 7.47
13163 29.3080 77.74 66.56 8.34
13164 29.3100 75.87 66.68 8.15
13165 29.3120 59.33 66.90 7.20
13166 29.3140 66.72 67.24 7.69
13167 29.3160 64.39 67.70 7.56
13168 29.3180 66.85 68.31 7.68
13169 29.3200 66.17 69.06 7.60
13170 29.3220 81.55 69.89 8.43
13171 29.3240 76.71 70.70 8.23
13172 29.3260 72.04 71.29 7.96
13173 29.3280 85.27 71.51 8.71
13174 29.3300 56.29 71.32 7.00
13175 29.3320 68.76 71.17 7.75
13176 29.3340 68.32 70.70 7.77
13177 29.3360 58.85 70.31 7.21
13178 29.3380 62.65 70.03 7.46
13179 29.3400 77.66 69.89 8.23
13180 29.3420 65.59 69.82 7.55
13181 29.3440 67.51 69.87 7.71
13182 29.3460 84.77 70.02 8.71
13183 29.3480 69.44 70.25 7.84
13184 29.3500 74.74 70.56 8.11
13185 29.3520 63.88 70.98 7.47
13186 29.3540 75.41 71.52 8.20
13187 29.3560 65.28 71.94 7.60
13188 29.3580 72.88 72.76 8.03
13189 29.3600 72.55 73.73 7.95
13190 29.3620 67.41 74.89 7.70
13191 29.3640 91.38 76.25 8.97
13192 29.3660 86.20 77.83 8.74
13193 29.3680 89.73 79.63 8.91
13194 29.3700 89.02 81.66 8.84
13195 29.3720 99.91 83.91 9.31
13196 29.3740 90.57 86.34 8.95
13197 29.3760 81.85 88.89 8.55
13198 29.3780 90.61 91.50 8.99
13199 29.3800 87.53 94.09 8.79
13200 29.3820 96.52 96.63 9.19
13201 29.3840 102.94 99.19 9.60
13202 29.3860 106.50 101.89 9.73
13203 29.3880 88.22 104.92 8.84
13204 29.3900 101.50 108.48 9.45
13205 29.3920 119.41 112.69 10.24
13206 29.3940 131.37 117.73 10.80
13207 29.3960 117.32 123.57 10.21
13208 29.3980 129.87 130.28 10.75
13209 29.4000 130.31 137.69 10.68
13210 29.4020 169.35 145.52 12.22
13211 29.4040 143.87 153.40 11.27
13212 29.4060 154.96 160.94 11.76
13213 29.4080 177.59 167.87 12.60
13214 29.4100 172.42 174.13 12.33
13215 29.4120 225.31 179.67 14.02
13216 29.4140 223.22 184.36 14.10
13217 29.4160 218.17 187.97 13.96
13218 29.4180 183.97 190.14 12.72
13219 29.4200 196.44 190.68 13.18
13220 29.4220 179.89 189.42 12.51
13221 29.4240 197.66 186.44 13.22
13222 29.4260 151.13 181.94 11.62
13223 29.4280 134.00 176.38 10.94
13224 29.4300 143.44 169.68 11.24
13225 29.4320 146.41 162.31 11.35
13226 29.4340 129.80 154.56 10.69
13227 29.4360 110.19 146.70 9.89
13228 29.4380 139.91 138.96 11.14
13229 29.4400 127.79 131.56 10.56
13230 29.4420 116.05 124.54 10.05
13231 29.4440 111.85 118.15 9.94
13232 29.4460 111.78 112.43 9.94
13233 29.4480 98.63 107.27 9.35
13234 29.4500 105.97 102.71 9.68
13235 29.4520 94.45 98.74 9.08
13236 29.4540 97.29 95.33 9.30
13237 29.4560 102.02 92.45 9.49
13238 29.4580 90.65 90.04 8.96
13239 29.4600 100.75 88.09 9.41
13240 29.4620 89.22 86.53 8.83
13241 29.4640 91.47 85.34 8.97
13242 29.4660 89.70 84.48 8.91
13243 29.4680 73.41 83.94 8.08
13244 29.4700 95.02 83.70 9.12
13245 29.4720 92.79 83.75 8.99
13246 29.4740 100.64 84.09 9.42
13247 29.4760 99.43 84.74 9.42
13248 29.4780 88.14 85.72 8.81
13249 29.4800 102.11 87.05 9.48
13250 29.4820 101.01 88.75 9.40
13251 29.4840 90.87 90.84 8.95
13252 29.4860 106.68 93.29 9.76
13253 29.4880 96.26 96.07 9.25
13254 29.4900 115.13 99.03 10.05
13255 29.4920 119.30 101.97 10.21
13256 29.4940 122.16 104.63 10.39
13257 29.4960 102.15 106.75 9.51
13258 29.4980 98.81 108.23 9.37
13259 29.5000 117.11 109.20 10.14
13260 29.5020 110.72 110.01 9.82
13261 29.5040 128.01 111.11 10.57
13262 29.5060 109.49 112.91 9.87
13263 29.5080 113.46 115.75 10.04
13264 29.5100 138.31 119.78 11.05
13265 29.5120 125.89 124.93 10.50
13266 29.5140 145.49 130.70 11.29
13267 29.5160 159.25 135.88 11.89
13268 29.5180 139.96 138.74 11.10
13269 29.5200 157.33 137.77 11.74
13270 29.5220 148.28 132.81 11.35
13271 29.5240 129.82 125.20 10.75
13272 29.5260 120.12 116.76 10.33
13273 29.5280 113.29 108.76 10.02
13274 29.5300 119.60 101.84 10.24
13275 29.5320 117.13 96.12 10.16
13276 29.5340 106.83 91.53 9.68
13277 29.5360 96.99 87.93 9.29
13278 29.5380 89.81 85.14 8.91
13279 29.5400 111.43 83.01 9.89
13280 29.5420 79.06 81.43 8.30
13281 29.5440 82.18 80.28 8.50
13282 29.5460 97.48 79.51 9.30
13283 29.5480 86.78 79.06 8.76
13284 29.5500 75.46 78.89 8.14
13285 29.5520 83.54 79.00 8.57
13286 29.5540 95.24 79.36 9.18
13287 29.5560 80.24 79.97 8.44
13288 29.5580 96.13 80.84 9.27
13289 29.5600 81.43 81.98 8.46
13290 29.5620 79.39 83.39 8.32
13291 29.5640 74.90 85.06 8.12
13292 29.5660 96.50 87.01 9.27
13293 29.5680 89.53 89.23 8.89
13294 29.5700 121.11 91.86 10.28
13295 29.5720 97.84 94.60 9.28
13296 29.5740 96.61 97.56 9.21
13297 29.5760 104.41 100.70 9.62
13298 29.5780 103.13 103.94 9.58
13299 29.5800 103.35 107.20 9.59
13300 29.5820 107.03 110.36 9.69
13301 29.5840 112.48 113.27 9.95
13302 29.5860 127.12 115.86 10.59
13303 29.5880 124.80 118.01 10.58
13304 29.5900 92.64 119.67 9.06
13305 29.5920 157.39 120.87 11.77
13306 29.5940 142.32 121.72 11.20
13307 29.5960 138.71 122.37 11.09
13308 29.5980 128.24 122.97 10.67
13309 29.6000 105.46 123.70 9.63
13310 29.6020 124.60 124.68 10.42
13311 29.6040 112.07 126.02 9.94
13312 29.6060 114.62 127.77 10.12
13313 29.6080 121.26 129.95 10.36
13314 29.6100 126.68 132.55 10.60
13315 29.6120 135.08 135.44 10.87
13316 29.6140 127.70 138.58 10.57
13317 29.6160 121.97 141.72 10.42
13318 29.6180 123.47 144.60 10.45
13319 29.6200 147.58 146.94 11.40
13320 29.6220 159.07 148.46 11.74
13321 29.6240 151.98 148.97 11.56
13322 29.6260 155.55 148.38 11.79
13323 29.6280 160.26 146.76 11.89
13324 29.6300 150.72 144.32 11.53
13325 29.6320 151.98 141.29 11.56
13326 29.6340 137.49 137.96 10.93
13327 29.6360 116.82 134.53 10.23
13328 29.6380 125.01 131.25 10.48
13329 29.6400 118.26 128.24 10.19
13330 29.6420 113.50 125.64 9.94
13331 29.6440 118.02 123.51 10.18
13332 29.6460 126.88 121.90 10.59
13333 29.6480 87.36 120.83 8.81
13334 29.6500 103.87 120.28 9.58
13335 29.6520 121.03 120.21 10.26
13336 29.6540 125.65 120.57 10.47
13337 29.6560 115.54 121.28 10.12
13338 29.6580 111.21 122.25 9.90
13339 29.6600 115.68 123.36 10.05
13340 29.6620 96.24 124.47 9.20
13341 29.6640 135.24 125.45 10.85
13342 29.6660 118.30 126.16 10.29
13343 29.6680 120.83 126.46 10.38
13344 29.6700 108.25 126.29 9.78
13345 29.6720 123.65 125.60 10.34
13346 29.6740 134.38 124.41 10.87
13347 29.6760 121.05 122.78 10.34
13348 29.6780 118.10 120.79 10.26
13349 29.6800 115.31 118.55 10.08
13350 29.6820 122.47 116.18 10.28
13351 29.6840 115.51 113.76 10.05
13352 29.6860 93.20 111.36 9.10
13353 29.6880 99.89 109.06 9.42
13354 29.6900 112.71 106.87 9.93
13355 29.6920 109.78 104.87 9.81
13356 29.6940 99.64 103.06 9.28
13357 29.6960 79.81 101.46 8.44
13358 29.6980 94.76 100.10 9.14
13359 29.7000 98.98 98.98 9.31
13360 29.7020 94.13 98.15 9.06
13361 29.7040 90.45 97.65 8.90
13362 29.7060 99.88 97.52 9.41
13363 29.7080 99.36 97.83 9.35
13364 29.7100 113.02 98.66 9.99
13365 29.7120 109.07 100.24 9.72
13366 29.7140 108.61 102.35 9.78
13367 29.7160 103.94 105.05 9.57
13368 29.7180 115.38 108.13 10.13
13369 29.7200 109.29 111.14 9.77
13370 29.7220 107.03 113.46 9.66
13371 29.7240 120.05 114.49 10.22
13372 29.7260 126.04 113.77 10.58
13373 29.7280 113.91 111.46 10.06
13374 29.7300 126.05 108.28 10.50
13375 29.7320 114.56 105.07 10.01
13376 29.7340 102.95 102.30 9.49
13377 29.7360 97.78 100.07 9.31
13378 29.7380 98.61 98.27 9.33
13379 29.7400 91.58 96.70 8.93
13380 29.7420 103.22 95.17 9.47
13381 29.7440 78.07 93.55 8.24
13382 29.7460 79.61 91.76 8.35
13383 29.7480 78.71 89.84 8.37
13384 29.7500 81.68 87.82 8.46
13385 29.7520 77.73 85.78 8.22
13386 29.7540 88.72 83.78 8.78
13387 29.7560 90.04 81.90 8.94
13388 29.7580 72.83 80.15 8.02
13389 29.7600 76.26 78.57 8.19
13390 29.7620 66.87 77.17 7.62
13391 29.7640 65.42 75.95 7.55
13392 29.7660 67.32 74.91 7.74
13393 29.7680 66.71 74.00 7.71
13394 29.7700 76.19 73.28 8.18
13395 29.7720 75.10 72.69 8.09
13396 29.7740 68.78 72.24 7.79
13397 29.7760 63.14 71.92 7.47
13398 29.7780 70.36 71.72 7.90
13399 29.7800 71.08 71.90 7.89
13400 29.7820 62.85 71.95 7.42
13401 29.7840 78.97 72.13 8.32
13402 29.7860 64.38 72.43 7.58
13403 29.7880 65.34 72.87 7.63
13404 29.7900 74.20 73.40 8.07
13405 29.7920 76.31 74.01 8.15
13406 29.7940 90.21 74.62 8.90
13407 29.7960 87.84 75.16 8.86
13408 29.7980 71.25 75.53 7.91
13409 29.8000 83.48 75.67 8.58
13410 29.8020 82.04 75.57 8.44
13411 29.8040 76.35 75.28 8.19
13412 29.8060 74.93 74.88 8.18
13413 29.8080 74.82 74.47 8.17
13414 29.8100 61.91 74.11 7.40
13415 29.8120 87.25 73.86 8.74
13416 29.8140 75.67 73.74 8.16
13417 29.8160 71.69 73.78 7.97
13418 29.8180 75.11 73.99 8.19
13419 29.8200 83.59 74.39 8.58
13420 29.8220 82.76 74.97 8.48
13421 29.8240 93.53 75.77 9.05
13422 29.8260 77.61 76.78 8.35
13423 29.8280 71.03 77.99 7.94
13424 29.8300 68.96 79.49 7.81
13425 29.8320 90.60 81.25 8.92
13426 29.8340 80.35 83.30 8.41
13427 29.8360 86.20 85.66 8.76
13428 29.8380 83.73 88.33 8.66
13429 29.8400 92.42 91.33 9.00
13430 29.8420 87.63 94.66 8.73
13431 29.8440 93.98 98.31 9.07
13432 29.8460 74.39 102.25 8.18
13433 29.8480 116.35 106.46 10.16
13434 29.8500 94.74 110.85 9.12
13435 29.8520 98.96 115.31 9.28
13436 29.8540 94.62 119.71 9.11
13437 29.8560 112.13 123.89 9.99
13438 29.8580 122.51 127.65 10.46
13439 29.8600 130.31 130.78 10.66
13440 29.8620 125.25 133.16 10.51
13441 29.8640 138.75 134.72 11.02
13442 29.8660 128.01 135.48 10.72
13443 29.8680 144.17 135.52 11.32
13444 29.8700 136.80 135.13 11.05
13445 29.8720 125.96 134.46 10.43
13446 29.8740 122.05 133.71 10.40
13447 29.8760 120.75 133.07 10.33
13448 29.8780 124.50 132.67 10.56
13449 29.8800 126.54 132.59 10.53
13450 29.8820 125.33 132.91 10.48
13451 29.8840 115.99 133.65 10.08
13452 29.8860 126.74 134.84 10.65
13453 29.8880 127.54 136.49 10.66
13454 29.8900 122.20 138.59 10.40
13455 29.8920 136.00 141.16 10.88
13456 29.8940 119.23 144.19 10.17
13457 29.8960 150.06 147.68 11.56
13458 29.8980 158.55 151.57 11.88
13459 29.9000 154.64 155.75 11.66
13460 29.9020 148.88 160.01 11.40
13461 29.9040 186.54 164.01 12.78
13462 29.9060 183.64 167.32 12.73
13463 29.9080 158.46 169.43 11.85
13464 29.9100 156.12 169.98 11.68
13465 29.9120 159.71 168.78 11.80
13466 29.9140 138.00 165.97 10.95
13467 29.9160 152.81 161.92 11.63
13468 29.9180 149.71 157.11 11.58
13469 29.9200 130.44 151.95 10.76
13470 29.9220 140.25 146.79 11.04
13471 29.9240 153.25 141.86 11.58
13472 29.9260 129.06 137.41 10.78
13473 29.9280 135.44 133.36 10.95
13474 29.9300 132.48 129.94 10.85
13475 29.9320 116.61 127.26 10.14
13476 29.9340 124.52 125.42 10.42
13477 29.9360 111.51 124.51 9.95
13478 29.9380 124.18 124.57 10.53
13479 29.9400 106.32 125.62 9.63
13480 29.9420 123.69 127.57 10.39
13481 29.9440 123.48 130.21 10.35
13482 29.9460 141.72 133.14 11.28
13483 29.9480 142.76 135.85 11.27
13484 29.9500 149.43 137.80 11.42
13485 29.9520 147.46 138.62 11.38
13486 29.9540 155.89 138.20 11.66
13487 29.9560 151.63 136.66 11.58
13488 29.9580 149.49 134.21 11.54
13489 29.9600 160.19 131.16 11.83
13490 29.9620 140.12 127.85 11.12
13491 29.9640 133.77 124.64 10.76
13492 29.9660 114.81 121.81 10.05
13493 29.9680 105.84 119.56 9.68
13494 29.9700 117.10 118.00 10.17
13495 29.9720 127.18 116.95 10.51
13496 29.9740 130.38 116.27 10.68
13497 29.9760 105.93 115.70 9.70
13498 29.9780 120.93 114.93 10.36
13499 29.9800 119.39 113.75 10.24
13500 29.9820 100.23 112.14 9.40
13501 29.9840 112.98 110.26 9.90
13502 29.9860 111.33 108.36 9.96
13503 29.9880 109.56 106.76 9.90
13504 29.9900 112.96 105.69 9.96
13505 29.9920 96.63 105.33 9.19
13506 29.9940 95.06 105.94 9.10
13507 29.9960 91.60 107.24 9.01
13508 29.9980 110.75 109.43 9.90
13509 30.0000 116.47 112.41 10.15
13510 30.0020 116.79 116.11 10.11
13511 30.0040 106.93 120.33 9.64
13512 30.0060 118.56 124.75 10.26
13513 30.0080 118.51 128.91 10.26
13514 30.0100 116.94 132.21 10.15
13515 30.0120 132.15 134.06 10.76
13516 30.0140 129.38 134.03 10.64
13517 30.0160 145.77 132.03 11.41
13518 30.0180 143.33 128.32 11.28
13519 30.0200 102.01 123.44 9.50
13520 30.0220 109.55 117.97 9.76
13521 30.0240 107.57 112.39 9.72
13522 30.0260 104.75 107.07 9.63
13523 30.0280 101.43 102.19 9.49
13524 30.0300 81.53 97.87 8.50
13525 30.0320 101.19 94.05 9.41
13526 30.0340 84.56 90.89 8.59
13527 30.0360 82.78 88.29 8.59
13528 30.0380 80.89 86.18 8.50
13529 30.0400 91.76 84.52 8.97
13530 30.0420 75.63 83.25 8.14
13531 30.0440 77.14 82.33 8.24
13532 30.0460 75.16 81.70 8.20
13533 30.0480 98.71 81.32 9.38
13534 30.0500 70.93 81.15 7.90
13535 30.0520 76.52 81.16 8.18
13536 30.0540 86.49 81.33 8.71
13537 30.0560 92.67 81.63 9.08
13538 30.0580 86.93 82.05 8.78
13539 30.0600 80.59 82.58 8.41
13540 30.0620 83.37 83.23 8.51
13541 30.0640 100.55 84.00 9.41
13542 30.0660 94.14 84.91 9.16
13543 30.0680 65.69 85.96 7.64
13544 30.0700 76.67 87.18 8.22
13545 30.0720 97.99 88.59 9.26
13546 30.0740 96.38 90.19 9.18
13547 30.0760 115.11 92.01 10.11
13548 30.0780 102.93 94.06 9.59
13549 30.0800 96.77 96.37 9.24
13550 30.0820 99.36 98.91 9.30
13551 30.0840 108.76 101.74 9.75
13552 30.0860 98.94 104.87 9.35
13553 30.0880 116.16 108.34 10.19
13554 30.0900 126.85 112.22 10.57
13555 30.0920 120.43 116.62 10.27
13556 30.0940 128.35 121.63 10.58
13557 30.0960 137.50 127.42 11.01
13558 30.0980 139.27 134.22 11.13
13559 30.1000 145.04 142.22 11.23
13560 30.1020 156.36 151.60 11.65
13561 30.1040 144.77 162.51 11.23
13562 30.1060 160.84 174.96 11.91
13563 30.1080 195.74 188.38 13.15
13564 30.1100 199.26 201.96 13.30
13565 30.1120 233.27 214.37 14.28
13566 30.1140 245.46 224.01 14.59
13567 30.1160 237.77 229.80 14.53
13568 30.1180 229.63 231.83 14.24
13569 30.1200 226.51 231.41 14.03
13570 30.1220 214.45 230.40 13.65
13571 30.1240 224.75 230.40 13.94
13572 30.1260 193.27 232.24 13.05
13573 30.1280 240.18 235.80 14.54
13574 30.1300 226.79 239.82 14.11
13575 30.1320 227.29 242.00 14.07
13576 30.1340 236.85 239.74 14.25
13577 30.1360 245.64 231.62 14.77
13578 30.1380 189.77 218.33 13.02
13579 30.1400 155.11 202.03 11.66
13580 30.1420 169.31 185.08 12.13
13581 30.1440 138.13 169.10 10.94
13582 30.1460 152.85 154.79 11.63
13583 30.1480 133.56 142.47 10.86
13584 30.1500 134.54 131.95 10.91
13585 30.1520 106.96 123.12 9.63
13586 30.1540 109.34 115.76 9.73
13587 30.1560 118.71 109.64 10.29
13588 30.1580 118.76 104.57 10.25
13589 30.1600 105.08 100.38 9.55
13590 30.1620 105.85 96.94 9.56
13591 30.1640 85.18 94.13 8.59
13592 30.1660 101.95 91.86 9.46
13593 30.1680 105.80 90.06 9.68
13594 30.1700 89.13 88.67 8.83
13595 30.1720 97.38 87.65 9.21
13596 30.1740 88.78 86.96 8.81
13597 30.1760 78.82 86.58 8.38
13598 30.1780 80.27 86.50 8.46
13599 30.1800 99.89 86.70 9.36
13600 30.1820 99.47 87.18 9.32
13601 30.1840 90.91 87.92 8.87
13602 30.1860 84.29 88.94 8.63
13603 30.1880 97.72 90.17 9.33
13604 30.1900 84.73 91.67 8.59
13605 30.1920 89.46 93.40 8.84
13606 30.1940 117.22 95.33 10.12
13607 30.1960 108.40 97.49 9.80
13608 30.1980 89.41 99.89 8.95
13609 30.2000 81.12 102.59 8.43
13610 30.2020 99.46 105.64 9.26
13611 30.2040 108.27 109.06 9.73
13612 30.2060 130.04 112.84 10.76
13613 30.2080 111.13 116.92 9.88
13614 30.2100 136.13 121.14 10.90
13615 30.2120 142.00 125.38 11.11
13616 30.2140 151.31 129.52 11.54
13617 30.2160 130.06 133.60 10.73
13618 30.2180 117.01 137.79 10.15
13619 30.2200 134.29 142.37 10.85
13620 30.2220 129.11 147.63 10.59
13621 30.2240 122.55 153.69 10.31
13622 30.2260 134.70 160.60 10.96
13623 30.2280 151.61 168.18 11.60
13624 30.2300 140.07 176.05 11.10
13625 30.2320 181.53 183.72 12.58
13626 30.2340 226.69 190.68 14.12
13627 30.2360 213.76 196.53 13.73
13628 30.2380 211.17 200.95 13.71
13629 30.2400 232.44 203.71 14.24
13630 30.2420 228.25 204.56 14.02
13631 30.2440 208.95 203.30 13.55
13632 30.2460 204.48 199.99 13.52
13633 30.2480 185.07 195.04 12.76
13634 30.2500 165.41 189.18 12.07
13635 30.2520 187.99 183.32 12.76
13636 30.2540 178.35 178.32 12.57
13637 30.2560 178.43 174.88 12.56
13638 30.2580 170.46 173.49 12.35
13639 30.2600 190.39 174.44 12.88
13640 30.2620 172.12 177.82 12.23
13641 30.2640 182.63 183.39 12.65
13642 30.2660 192.60 190.48 13.09
13643 30.2680 198.82 197.88 13.31
13644 30.2700 236.50 203.82 14.42
13645 30.2720 247.30 206.39 14.67
13646 30.2740 221.64 204.32 13.98
13647 30.2760 208.19 197.45 13.58
13648 30.2780 195.73 187.20 13.25
13649 30.2800 199.90 175.67 13.22
13650 30.2820 158.27 164.56 11.76
13651 30.2840 156.77 154.94 11.69
13652 30.2860 145.78 147.26 11.38
13653 30.2880 130.95 141.50 10.84
13654 30.2900 148.47 137.41 11.41
13655 30.2920 135.40 134.69 10.90
13656 30.2940 151.55 133.10 11.49
13657 30.2960 154.61 132.60 11.68
13658 30.2980 136.66 133.19 11.05
13659 30.3000 158.15 134.62 11.70
13660 30.3020 138.06 136.12 10.97
13661 30.3040 148.49 136.43 11.40
13662 30.3060 143.96 134.34 11.30
13663 30.3080 135.05 129.61 10.98
13664 30.3100 118.17 123.04 10.15
13665 30.3120 122.39 115.95 10.34
13666 30.3140 115.14 109.32 10.00
13667 30.3160 112.99 103.65 9.98
13668 30.3180 100.35 99.07 9.45
13669 30.3200 109.02 95.53 9.75
13670 30.3220 87.70 92.93 8.73
13671 30.3240 103.51 91.10 9.49
13672 30.3260 94.70 89.91 9.16
13673 30.3280 96.29 89.19 9.28
13674 30.3300 96.14 88.78 9.17
13675 30.3320 104.54 88.51 9.57
13676 30.3340 86.95 88.30 8.70
13677 30.3360 84.21 88.15 8.66
13678 30.3380 97.27 88.05 9.30
13679 30.3400 82.27 87.99 8.46
13680 30.3420 98.73 87.99 9.28
13681 30.3440 98.26 88.03 9.22
13682 30.3460 96.40 88.11 9.24
13683 30.3480 94.25 88.25 9.13
13684 30.3500 84.46 88.48 8.63
13685 30.3520 117.97 88.87 10.08
13686 30.3540 87.63 89.49 8.71
13687 30.3560 96.37 90.40 9.25
13688 30.3580 98.48 91.67 9.35
13689 30.3600 99.78 93.37 9.34
13690 30.3620 105.70 95.55 9.58
13691 30.3640 107.66 98.25 9.67
13692 30.3660 100.38 101.48 9.43
13693 30.3680 95.84 105.22 9.19
13694 30.3700 111.14 109.39 9.81
13695 30.3720 119.18 113.85 10.20
13696 30.3740 120.59 118.39 10.16
13697 30.3760 126.62 122.76 10.62
13698 30.3780 115.69 126.74 10.06
13699 30.3800 136.08 130.15 10.88
13700 30.3820 151.10 132.94 11.41
13701 30.3840 154.72 135.12 11.58
13702 30.3860 128.00 136.68 10.62
13703 30.3880 130.64 137.61 10.78
13704 30.3900 131.01 137.83 10.63
13705 30.3920 149.04 137.33 11.40
13706 30.3940 137.73 136.07 10.93
13707 30.3960 130.18 134.22 10.72
13708 30.3980 142.88 131.85 11.24
13709 30.4000 136.40 129.07 10.91
13710 30.4020 113.51 126.01 9.94
13711 30.4040 132.56 122.76 10.70
13712 30.4060 118.68 119.40 10.25
13713 30.4080 133.45 116.01 10.84
13714 30.4100 116.05 112.68 10.07
13715 30.4120 106.91 109.47 9.63
13716 30.4140 107.35 106.37 9.63
13717 30.4160 94.60 103.50 9.14
13718 30.4180 106.94 100.87 9.73
13719 30.4200 97.44 98.49 9.19
13720 30.4220 99.07 96.37 9.27
13721 30.4240 103.30 94.52 9.42
13722 30.4260 103.30 93.35 9.53
13723 30.4280 78.96 91.98 8.34
13724 30.4300 86.86 90.80 8.66
13725 30.4320 92.40 89.74 8.95
13726 30.4340 91.90 88.79 8.91
13727 30.4360 77.75 87.90 8.30
13728 30.4380 90.34 87.07 8.90
13729 30.4400 91.92 86.32 8.97
13730 30.4420 74.88 85.65 8.04
13731 30.4440 82.86 85.14 8.47
13732 30.4460 82.71 84.80 8.54
13733 30.4480 89.42 84.64 8.88
13734 30.4500 79.37 84.67 8.30
13735 30.4520 77.95 84.84 8.24
13736 30.4540 102.84 85.12 9.43
13737 30.4560 95.50 85.39 9.18
13738 30.4580 78.66 85.49 8.32
13739 30.4600 91.58 85.27 8.92
13740 30.4620 89.18 84.64 8.79
13741 30.4640 86.29 83.63 8.65
13742 30.4660 85.57 82.38 8.70
13743 30.4680 97.45 81.06 9.26
13744 30.4700 83.91 79.80 8.57
13745 30.4720 63.48 78.66 7.45
13746 30.4740 71.76 77.68 7.92
13747 30.4760 93.72 76.87 9.13
13748 30.4780 88.83 76.23 8.90
13749 30.4800 78.78 75.76 8.31
13750 30.4820 74.37 75.45 8.04
13751 30.4840 75.43 75.31 8.12
13752 30.4860 82.95 75.33 8.62
13753 30.4880 79.59 75.52 8.40
13754 30.4900 74.54 75.81 8.10
13755 30.4920 71.58 76.34 7.93
13756 30.4940 65.69 77.14 7.61
13757 30.4960 71.12 78.16 7.97
13758 30.4980 77.19 79.50 8.25
13759 30.5000 83.73 81.17 8.59
13760 30.5020 86.60 83.19 8.69
13761 30.5040 107.13 85.62 9.66
13762 30.5060 86.22 88.48 8.71
13763 30.5080 87.47 91.80 8.83
13764 30.5100 114.17 95.58 9.99
13765 30.5120 116.82 99.75 10.11
13766 30.5140 111.81 104.21 9.92
13767 30.5160 124.37 108.73 10.53
13768 30.5180 134.11 113.03 10.87
13769 30.5200 134.81 116.74 10.91
13770 30.5220 116.13 119.90 10.07
13771 30.5240 112.05 122.50 9.95
13772 30.5260 118.01 124.86 10.22
13773 30.5280 125.20 127.40 10.56
13774 30.5300 127.05 130.52 10.56
13775 30.5320 133.87 134.46 10.85
13776 30.5340 126.16 139.32 10.60
13777 30.5360 125.33 145.03 10.63
13778 30.5380 146.93 151.27 11.41
13779 30.5400 173.02 157.52 12.30
13780 30.5420 168.86 163.08 12.15
13781 30.5440 189.89 167.17 12.98
13782 30.5460 197.64 169.22 13.28
13783 30.5480 170.24 169.03 12.30
13784 30.5500 183.33 166.90 12.77
13785 30.5520 158.50 163.52 11.82
13786 30.5540 176.67 159.59 12.52
13787 30.5560 168.44 155.84 12.32
13788 30.5580 152.50 152.81 11.66
13789 30.5600 148.06 150.88 11.42
13790 30.5620 151.99 150.24 11.59
13791 30.5640 135.42 150.96 10.97
13792 30.5660 164.00 152.99 12.12
13793 30.5680 151.66 156.16 11.64
13794 30.5700 167.85 160.21 12.22
13795 30.5720 183.07 164.78 12.71
13796 30.5740 176.61 169.47 12.46
13797 30.5760 204.81 173.80 13.60
13798 30.5780 225.20 177.14 14.24
13799 30.5800 193.88 178.62 13.04
13800 30.5820 188.46 177.20 12.82
13801 30.5840 179.30 172.14 12.61
13802 30.5860 143.12 163.78 11.37
13803 30.5880 164.41 153.49 12.10
13804 30.5900 150.81 142.87 11.57
13805 30.5920 121.61 132.95 10.40
13806 30.5940 133.45 124.17 10.86
13807 30.5960 110.14 116.53 9.92
13808 30.5980 98.63 109.95 9.39
13809 30.6000 90.99 104.32 8.99
13810 30.6020 98.42 99.51 9.30
13811 30.6040 82.19 95.45 8.47
13812 30.6060 84.73 92.05 8.75
13813 30.6080 97.43 89.25 9.28
13814 30.6100 105.36 86.98 9.66
13815 30.6120 92.99 85.17 9.05
13816 30.6140 94.92 83.78 9.17
13817 30.6160 96.10 82.77 9.27
13818 30.6180 92.54 82.08 9.08
13819 30.6200 87.22 81.69 8.77
13820 30.6220 88.01 81.57 8.78
13821 30.6240 94.47 81.69 9.09
13822 30.6260 112.31 82.03 9.97
13823 30.6280 98.88 82.58 9.42
13824 30.6300 99.64 83.33 9.35
13825 30.6320 91.81 84.22 8.95
13826 30.6340 84.78 85.26 8.62
13827 30.6360 76.70 86.39 8.30
13828 30.6380 105.90 87.93 9.68
13829 30.6400 107.62 89.14 9.73
13830 30.6420 92.79 90.34 9.01
13831 30.6440 108.91 91.39 9.75
13832 30.6460 104.93 92.37 9.63
13833 30.6480 92.47 93.19 9.07
13834 30.6500 97.01 93.86 9.26
13835 30.6520 109.65 94.38 9.79
13836 30.6540 94.84 94.79 9.05
13837 30.6560 103.08 95.14 9.55
13838 30.6580 94.66 95.50 9.17
13839 30.6600 106.87 95.94 9.66
13840 30.6620 92.03 96.53 8.93
13841 30.6640 91.01 97.27 8.91
13842 30.6660 92.66 98.39 9.06
13843 30.6680 90.17 99.82 8.94
13844 30.6700 112.32 101.56 9.95
13845 30.6720 109.00 103.53 9.77
13846 30.6740 99.67 105.56 9.26
13847 30.6760 127.04 107.43 10.60
13848 30.6780 123.66 108.90 10.47
13849 30.6800 133.59 109.75 10.83
13850 30.6820 116.20 109.90 10.07
13851 30.6840 110.79 109.39 9.79
13852 30.6860 96.47 108.33 9.22
13853 30.6880 119.04 106.83 10.23
13854 30.6900 107.03 105.03 9.70
13855 30.6920 92.12 103.07 8.98
13856 30.6940 104.59 101.06 9.53
13857 30.6960 105.86 99.11 9.69
13858 30.6980 99.71 97.36 9.41
13859 30.7000 99.15 95.85 9.32
13860 30.7020 92.70 94.65 9.03
13861 30.7040 101.36 93.80 9.36
13862 30.7060 100.88 93.37 9.47
13863 30.7080 87.24 93.39 8.77
13864 30.7100 99.97 93.92 9.36
13865 30.7120 105.62 95.00 9.65
13866 30.7140 90.28 96.66 8.81
13867 30.7160 99.34 98.94 9.39
13868 30.7180 102.01 101.86 9.50
13869 30.7200 98.14 105.44 9.32
13870 30.7220 124.40 109.69 10.43
13871 30.7240 99.52 114.53 9.26
13872 30.7260 103.28 120.06 9.58
13873 30.7280 99.20 126.03 9.38
13874 30.7300 134.30 132.22 10.87
13875 30.7320 144.84 138.08 11.24
13876 30.7340 142.72 142.91 11.11
13877 30.7360 177.49 145.85 12.57
13878 30.7380 155.08 146.41 11.73
13879 30.7400 135.98 144.75 10.90
13880 30.7420 170.55 141.49 12.22
13881 30.7440 146.20 137.29 11.24
13882 30.7460 132.22 132.72 10.80
13883 30.7480 130.30 128.14 10.74
13884 30.7500 123.25 123.82 10.44
13885 30.7520 126.15 119.92 10.51
13886 30.7540 108.03 116.54 9.68
13887 30.7560 121.10 113.76 10.38
13888 30.7580 123.65 111.60 10.46
13889 30.7600 120.31 110.06 10.28
13890 30.7620 106.51 109.14 9.65
13891 30.7640 106.38 108.82 9.59
13892 30.7660 121.60 109.04 10.36
13893 30.7680 99.02 109.78 9.38
13894 30.7700 108.40 110.96 9.80
13895 30.7720 108.07 112.53 9.71
13896 30.7740 114.74 114.40 10.00
13897 30.7760 120.51 116.49 10.33
13898 30.7780 128.72 118.73 10.69
13899 30.7800 111.27 121.02 9.88
13900 30.7820 134.10 123.32 10.83
13901 30.7840 129.44 125.58 10.58
13902 30.7860 136.17 127.79 11.00
13903 30.7880 127.12 130.00 10.62
13904 30.7900 105.90 132.22 9.67
13905 30.7920 133.71 134.52 10.78
13906 30.7940 129.20 137.04 10.58
13907 30.7960 118.84 139.64 10.30
13908 30.7980 149.82 142.43 11.51
13909 30.8000 136.38 145.42 10.92
13910 30.8020 128.12 148.73 10.58
13911 30.8040 145.58 152.01 11.22
13912 30.8060 142.22 155.32 11.24
13913 30.8080 138.76 158.55 11.12
13914 30.8100 142.17 161.55 11.16
13915 30.8120 141.43 164.14 11.10
13916 30.8140 146.26 166.15 11.29
13917 30.8160 150.95 167.43 11.57
13918 30.8180 167.44 167.82 12.15
13919 30.8200 158.39 167.29 11.79
13920 30.8220 173.72 165.80 12.27
13921 30.8240 180.45 163.39 12.50
13922 30.8260 186.16 160.13 12.86
13923 30.8280 181.04 156.09 12.64
13924 30.8300 152.07 151.35 11.55
13925 30.8320 158.91 145.97 11.80
13926 30.8340 132.83 140.09 10.69
13927 30.8360 121.93 133.90 10.40
13928 30.8380 128.87 127.63 10.67
13929 30.8400 109.30 121.44 9.73
13930 30.8420 103.64 115.55 9.49
13931 30.8440 96.14 110.05 9.10
13932 30.8460 111.05 105.01 9.91
13933 30.8480 91.53 100.45 9.02
13934 30.8500 76.99 96.36 8.24
13935 30.8520 96.92 92.74 9.18
13936 30.8540 88.20 89.54 8.74
13937 30.8560 84.50 86.74 8.66
13938 30.8580 77.21 84.30 8.30
13939 30.8600 75.16 82.18 8.09
13940 30.8620 81.43 80.36 8.44
13941 30.8640 71.57 78.78 7.89
13942 30.8660 68.51 77.43 7.73
13943 30.8680 79.66 76.27 8.41
13944 30.8700 76.34 75.28 8.19
13945 30.8720 77.47 74.44 8.24
13946 30.8740 69.46 73.73 7.72
13947 30.8760 68.11 73.13 7.81
13948 30.8780 73.56 72.62 8.06
13949 30.8800 71.05 72.21 7.91
13950 30.8820 73.22 72.30 8.00
13951 30.8840 57.25 72.04 7.07
13952 30.8860 60.32 71.84 7.27
13953 30.8880 62.01 71.70 7.40
13954 30.8900 59.08 71.63 7.21
13955 30.8920 63.51 71.61 7.45
13956 30.8940 62.78 71.64 7.39
13957 30.8960 78.04 71.71 8.31
13958 30.8980 60.46 71.86 7.35
13959 30.9000 75.90 72.08 8.15
13960 30.9020 79.23 72.37 8.30
13961 30.9040 65.67 72.74 7.54
13962 30.9060 71.11 73.20 7.95
13963 30.9080 73.49 73.77 8.02
13964 30.9100 74.57 74.46 8.09
13965 30.9120 64.12 75.28 7.49
13966 30.9140 87.16 76.29 8.69
13967 30.9160 87.43 77.50 8.81
13968 30.9180 83.18 78.96 8.57
13969 30.9200 98.50 80.72 9.26
13970 30.9220 66.44 82.80 7.58
13971 30.9240 92.04 85.27 8.95
13972 30.9260 82.55 88.14 8.52
13973 30.9280 78.99 91.40 8.36
13974 30.9300 86.10 94.97 8.66
13975 30.9320 113.49 98.63 10.02
13976 30.9340 104.64 102.03 9.53
13977 30.9360 121.93 104.80 10.43
13978 30.9380 102.19 106.68 9.46
13979 30.9400 105.24 107.73 9.66
13980 30.9420 105.12 108.37 9.54
13981 30.9440 109.29 109.10 9.75
13982 30.9460 106.56 110.37 9.71
13983 30.9480 106.42 112.48 9.73
13984 30.9500 117.72 115.61 10.15
13985 30.9520 120.92 119.78 10.33
13986 30.9540 124.96 124.90 10.45
13987 30.9560 137.43 130.74 11.04
13988 30.9580 125.32 136.94 10.55
13989 30.9600 151.10 143.19 11.56
13990 30.9620 167.94 149.29 12.06
13991 30.9640 156.26 154.90 11.66
13992 30.9660 155.09 159.61 11.79
13993 30.9680 177.94 163.19 12.59
13994 30.9700 156.68 165.88 11.75
13995 30.9720 169.20 168.20 12.16
13996 30.9740 173.73 170.57 12.34
13997 30.9760 169.07 173.07 12.24
13998 30.9780 174.65 175.60 12.46
13999 30.9800 180.53 178.09 12.63
14000 30.9820 179.68 180.42 12.50
14001 30.9840 190.64 182.45 12.89
14002 30.9860 192.92 184.02 13.03
14003 30.9880 178.68 185.03 12.63
14004 30.9900 231.97 185.49 14.26
14005 30.9920 196.31 185.53 13.10
14006 30.9940 184.01 185.23 12.62
14007 30.9960 156.87 184.63 11.84
14008 30.9980 187.91 183.73 12.87
14009 31.0000 168.56 182.46 12.14
14010 31.0020 173.28 180.80 12.30
14011 31.0040 146.12 178.68 11.25
14012 31.0060 154.19 176.04 11.67
14013 31.0080 129.13 172.83 10.76
14014 31.0100 138.39 168.97 11.06
14015 31.0120 133.04 164.46 10.73
14016 31.0140 167.41 159.37 12.03
14017 31.0160 162.71 153.89 11.99
14018 31.0180 118.71 148.34 10.27
14019 31.0200 119.60 142.96 10.18
14020 31.0220 122.64 138.07 10.35
14021 31.0240 122.93 133.78 10.32
14022 31.0260 131.32 130.16 10.75
14023 31.0280 118.78 127.22 10.24
14024 31.0300 108.57 124.97 9.80
14025 31.0320 123.93 123.42 10.44
14026 31.0340 131.71 122.55 10.68
14027 31.0360 146.55 122.24 11.36
14028 31.0380 122.34 122.08 10.38
14029 31.0400 130.86 121.37 10.75
14030 31.0420 132.32 119.39 10.69
14031 31.0440 100.05 115.86 9.34
14032 31.0460 111.02 111.22 9.90
14033 31.0480 113.65 106.26 10.04
14034 31.0500 131.37 101.63 10.68
14035 31.0520 100.80 97.68 9.41
14036 31.0540 113.76 94.46 9.92
14037 31.0560 81.30 91.90 8.48
14038 31.0580 101.18 89.92 9.44
14039 31.0600 97.20 88.43 9.18
14040 31.0620 106.59 87.35 9.65
14041 31.0640 87.06 86.70 8.64
14042 31.0660 100.59 86.31 9.45
14043 31.0680 90.55 86.20 8.89
14044 31.0700 86.26 86.30 8.69
14045 31.0720 91.50 86.54 8.93
14046 31.0740 93.71 86.84 9.02
14047 31.0760 92.11 87.09 8.94
14048 31.0780 93.94 87.20 9.10
14049 31.0800 88.46 87.11 8.80
14050 31.0820 92.42 86.82 8.98
14051 31.0840 92.31 86.36 8.90
14052 31.0860 74.45 85.83 8.11
14053 31.0880 86.69 85.32 8.78
14054 31.0900 88.38 84.88 8.81
14055 31.0920 82.23 84.57 8.46
14056 31.0940 77.77 84.36 8.19
14057 31.0960 82.68 84.31 8.59
14058 31.0980 101.03 84.39 9.40
14059 31.1000 92.79 84.57 8.97
14060 31.1020 72.56 84.82 7.93
14061 31.1040 80.39 85.09 8.34
14062 31.1060 107.56 85.35 9.74
14063 31.1080 87.22 85.57 8.80
14064 31.1100 99.30 85.71 9.32
14065 31.1120 100.11 85.77 9.31
14066 31.1140 78.07 85.74 8.22
14067 31.1160 81.22 85.64 8.48
14068 31.1180 81.07 85.51 8.46
14069 31.1200 85.98 85.38 8.62
14070 31.1220 91.63 85.29 8.93
14071 31.1240 90.52 85.26 8.81
14072 31.1260 68.22 85.30 7.76
14073 31.1280 82.02 85.42 8.53
14074 31.1300 86.51 85.60 8.71
14075 31.1320 77.07 85.83 8.15
14076 31.1340 75.38 86.08 8.06
14077 31.1360 96.43 86.33 9.23
14078 31.1380 92.33 86.61 9.02
14079 31.1400 100.37 86.95 9.34
14080 31.1420 96.32 87.38 9.14
14081 31.1440 107.63 87.95 9.62
14082 31.1460 94.45 88.71 9.12
14083 31.1480 96.45 89.66 9.20
14084 31.1500 96.86 90.89 9.21
14085 31.1520 92.06 92.38 8.94
14086 31.1540 120.52 94.14 10.14
14087 31.1560 92.30 96.16 9.06
14088 31.1580 102.55 98.41 9.50
14089 31.1600 110.24 100.85 9.73
14090 31.1620 108.96 103.43 9.68
14091 31.1640 94.07 106.12 8.98
14092 31.1660 107.79 108.92 9.74
14093 31.1680 106.83 111.73 9.73
14094 31.1700 102.32 114.57 9.45
14095 31.1720 118.52 117.79 10.12
14096 31.1740 104.63 120.72 9.49
14097 31.1760 129.77 123.85 10.67
14098 31.1780 126.55 127.45 10.54
14099 31.1800 145.78 131.79 11.24
14100 31.1820 142.80 137.14 11.09
14101 31.1840 121.53 143.71 10.27
14102 31.1860 172.81 151.62 12.37
14103 31.1880 154.32 160.95 11.59
14104 31.1900 185.59 171.65 12.76
14105 31.1920 187.87 183.61 12.73
14106 31.1940 215.69 196.51 13.67
14107 31.1960 231.97 209.90 14.35
14108 31.1980 223.13 223.40 13.99
14109 31.2000 217.77 236.42 13.76
14110 31.2020 237.05 248.78 14.28
14111 31.2040 218.95 260.50 13.80
14112 31.2060 263.23 271.51 15.24
14113 31.2080 295.97 281.47 16.03
14114 31.2100 300.54 289.51 16.08
14115 31.2120 299.98 294.36 16.20
14116 31.2140 309.51 294.78 16.44
14117 31.2160 287.79 290.19 15.94
14118 31.2180 257.11 281.04 15.04
14119 31.2200 206.59 268.64 13.49
14120 31.2220 220.69 254.45 13.84
14121 31.2240 222.27 239.77 14.02
14122 31.2260 218.79 225.51 13.92
14123 31.2280 191.09 212.41 12.99
14124 31.2300 206.74 200.96 13.47
14125 31.2320 216.48 191.49 13.67
14126 31.2340 198.68 184.02 13.30
14127 31.2360 195.94 178.39 13.16
14128 31.2380 195.44 174.23 13.15
14129 31.2400 188.33 171.16 12.82
14130 31.2420 186.56 168.76 12.71
14131 31.2440 186.27 166.71 12.84
14132 31.2460 175.53 164.91 12.47
14133 31.2480 177.11 163.42 12.54
14134 31.2500 175.67 162.29 12.38
14135 31.2520 173.87 161.48 12.31
14136 31.2540 181.75 160.69 12.64
14137 31.2560 187.10 159.60 12.94
14138 31.2580 180.27 157.93 12.63
14139 31.2600 166.66 155.58 12.07
14140 31.2620 172.50 152.65 12.22
14141 31.2640 175.93 149.38 12.55
14142 31.2660 130.08 146.06 10.69
14143 31.2680 148.90 142.95 11.53
14144 31.2700 144.12 140.45 11.27
14145 31.2720 131.12 138.24 10.67
14146 31.2740 146.87 136.61 11.40
14147 31.2760 128.93 135.56 10.74
14148 31.2780 131.97 135.11 10.80
14149 31.2800 132.58 135.19 10.73
14150 31.2820 115.07 135.79 9.99
14151 31.2840 133.24 136.81 10.85
14152 31.2860 141.80 138.18 11.24
14153 31.2880 151.03 139.82 11.54
14154 31.2900 129.66 141.63 10.67
14155 31.2920 148.79 143.52 11.40
14156 31.2940 145.65 145.39 11.36
14157 31.2960 121.17 147.13 10.37
14158 31.2980 130.85 148.68 10.74
14159 31.3000 152.92 149.95 11.58
14160 31.3020 144.74 150.86 11.18
14161 31.3040 164.64 151.36 12.07
14162 31.3060 162.55 151.41 12.03
14163 31.3080 143.52 150.94 11.28
14164 31.3100 157.98 150.05 11.70
14165 31.3120 178.77 148.71 12.51
14166 31.3140 143.15 146.98 11.23
14167 31.3160 148.01 144.91 11.49
14168 31.3180 133.06 142.58 10.82
14169 31.3200 150.73 140.05 11.51
14170 31.3220 150.34 137.41 11.43
14171 31.3240 135.60 134.69 10.96
14172 31.3260 134.02 132.03 10.91
14173 31.3280 135.24 129.42 10.95
14174 31.3300 118.62 126.93 10.18
14175 31.3320 118.29 124.58 10.13
14176 31.3340 109.32 122.41 9.84
14177 31.3360 113.42 120.43 10.00
14178 31.3380 110.10 118.66 9.84
14179 31.3400 90.30 117.12 8.88
14180 31.3420 115.84 115.81 10.06
14181 31.3440 101.31 114.75 9.45
14182 31.3460 104.51 113.98 9.63
14183 31.3480 106.19 113.49 9.70
14184 31.3500 98.24 113.32 9.27
14185 31.3520 95.24 113.45 9.12
14186 31.3540 102.09 113.83 9.52
14187 31.3560 94.42 114.39 9.17
14188 31.3580 104.56 115.09 9.57
14189 31.3600 113.42 115.84 9.99
14190 31.3620 120.05 116.63 10.19
14191 31.3640 121.37 117.46 10.43
14192 31.3660 115.76 118.28 10.15
14193 31.3680 97.88 119.08 9.31
14194 31.3700 103.20 119.86 9.53
14195 31.3720 104.68 120.64 9.54
14196 31.3740 131.09 121.49 10.80
14197 31.3760 136.65 122.45 11.03
14198 31.3780 141.60 123.62 11.21
14199 31.3800 128.35 125.00 10.59
14200 31.3820 124.28 126.62 10.44
14201 31.3840 134.11 128.43 10.90
14202 31.3860 159.39 130.38 11.95
14203 31.3880 124.95 132.40 10.50
14204 31.3900 139.46 134.47 11.08
14205 31.3920 153.39 136.40 11.58
14206 31.3940 124.50 138.17 10.56
14207 31.3960 146.77 139.73 11.47
14208 31.3980 122.78 141.06 10.42
14209 31.4000 152.08 142.15 11.58
14210 31.4020 136.34 143.03 10.89
14211 31.4040 139.82 143.70 11.09
14212 31.4060 148.53 144.20 11.55
14213 31.4080 132.34 144.52 10.87
14214 31.4100 151.67 144.65 11.49
14215 31.4120 167.68 144.57 12.08
14216 31.4140 156.08 144.25 11.81
14217 31.4160 158.19 143.65 11.85
14218 31.4180 118.45 142.84 10.20
14219 31.4200 136.36 141.71 10.95
14220 31.4220 121.14 140.40 10.27
14221 31.4240 131.36 139.00 10.77
14222 31.4260 139.75 137.70 11.20
14223 31.4280 128.47 136.62 10.71
14224 31.4300 135.40 135.88 10.89
14225 31.4320 137.78 135.59 10.99
14226 31.4340 140.13 135.72 11.15
14227 31.4360 136.54 136.13 11.05
14228 31.4380 128.31 136.53 10.65
14229 31.4400 140.60 136.51 11.10
14230 31.4420 130.28 135.80 10.67
14231 31.4440 127.03 134.41 10.57
14232 31.4460 130.31 132.62 10.79
14233 31.4480 105.30 130.79 9.69
14234 31.4500 131.38 129.18 10.74
14235 31.4520 115.48 127.91 10.00
14236 31.4540 117.80 126.97 10.16
14237 31.4560 148.59 126.30 11.60
14238 31.4580 107.15 125.89 9.73
14239 31.4600 119.88 125.67 10.27
14240 31.4620 130.49 125.66 10.66
14241 31.4640 102.04 125.86 9.53
14242 31.4660 132.82 126.25 10.87
14243 31.4680 136.08 126.85 11.01
14244 31.4700 120.72 128.06 10.31
14245 31.4720 134.65 129.32 10.83
14246 31.4740 132.45 131.12 10.76
14247 31.4760 134.90 133.64 11.01
14248 31.4780 141.97 137.06 11.24
14249 31.4800 141.71 141.52 11.10
14250 31.4820 135.99 147.08 10.91
14251 31.4840 163.77 153.70 12.00
14252 31.4860 165.77 161.18 12.18
14253 31.4880 163.05 169.01 12.00
14254 31.4900 190.38 176.31 12.98
14255 31.4920 186.80 181.95 12.76
14256 31.4940 202.17 185.00 13.29
14257 31.4960 205.82 185.15 13.59
14258 31.4980 189.01 182.68 12.97
14259 31.5000 180.70 178.24 12.54
14260 31.5020 151.42 172.41 11.47
14261 31.5040 161.20 165.75 11.94
14262 31.5060 126.95 158.81 10.63
14263 31.5080 134.48 151.96 10.90
14264 31.5100 127.97 145.53 10.63
14265 31.5120 123.66 139.70 10.44
14266 31.5140 131.71 134.62 10.74
14267 31.5160 129.93 130.36 10.82
14268 31.5180 142.72 126.94 11.22
14269 31.5200 126.78 124.35 10.58
14270 31.5220 140.82 122.52 11.06
14271 31.5240 139.33 121.41 11.02
14272 31.5260 119.36 120.93 10.37
14273 31.5280 119.20 121.07 10.31
14274 31.5300 129.68 121.84 10.65
14275 31.5320 135.57 123.30 10.90
14276 31.5340 141.32 125.51 11.16
14277 31.5360 164.15 128.49 12.08
14278 31.5380 130.77 132.24 10.79
14279 31.5400 158.57 136.72 11.77
14280 31.5420 156.59 141.79 11.67
14281 31.5440 137.91 147.24 10.96
14282 31.5460 162.33 152.79 12.12
14283 31.5480 143.28 158.03 11.27
14284 31.5500 198.72 162.47 13.24
14285 31.5520 182.22 165.65 12.64
14286 31.5540 148.61 167.18 11.39
14287 31.5560 196.07 166.99 13.24
14288 31.5580 178.64 165.19 12.54
14289 31.5600 145.99 162.17 11.33
14290 31.5620 150.81 158.39 11.46
14291 31.5640 158.30 154.32 11.77
14292 31.5660 149.03 150.32 11.57
14293 31.5680 133.40 146.66 10.91
14294 31.5700 124.17 143.55 10.44
14295 31.5720 117.07 141.10 10.12
14296 31.5740 132.57 139.44 10.80
14297 31.5760 142.04 138.64 11.28
14298 31.5780 147.19 138.76 11.44
14299 31.5800 139.13 139.85 11.03
14300 31.5820 120.14 141.96 10.27
14301 31.5840 158.14 145.13 11.76
14302 31.5860 152.76 149.43 11.71
14303 31.5880 161.14 154.91 11.94
14304 31.5900 185.97 161.63 12.79
14305 31.5920 173.82 169.56 12.29
14306 31.5940 169.13 178.61 12.11
14307 31.5960 191.69 188.55 13.08
14308 31.5980 236.61 199.09 14.48
14309 31.6000 221.16 209.88 13.91
14310 31.6020 252.41 220.58 14.90
14311 31.6040 227.59 230.94 14.09
14312 31.6060 258.45 240.50 15.20
14313 31.6080 264.74 248.62 15.37
14314 31.6100 274.40 254.59 15.54
14315 31.6120 249.26 257.86 14.71
14316 31.6140 257.65 258.38 15.04
14317 31.6160 266.98 256.03 15.53
14318 31.6180 254.50 250.24 15.01
14319 31.6200 230.76 240.25 14.22
14320 31.6220 226.95 226.06 14.08
14321 31.6240 192.68 209.12 12.91
14322 31.6260 187.64 191.53 12.92
14323 31.6280 180.48 175.12 12.66
14324 31.6300 158.85 160.87 11.86
14325 31.6320 133.14 149.08 10.72
14326 31.6340 145.77 139.61 11.24
14327 31.6360 148.35 132.24 11.52
14328 31.6380 140.82 126.70 11.22
14329 31.6400 134.04 122.74 10.79
14330 31.6420 142.65 120.14 11.18
14331 31.6440 133.84 118.73 10.78
14332 31.6460 140.37 118.33 11.19
14333 31.6480 113.68 119.00 10.05
14334 31.6500 105.27 120.60 9.62
14335 31.6520 116.98 123.07 10.08
14336 31.6540 120.10 126.36 10.26
14337 31.6560 149.85 130.38 11.57
14338 31.6580 152.94 134.98 11.65
14339 31.6600 125.58 139.95 10.49
14340 31.6620 143.80 144.96 11.16
14341 31.6640 171.37 149.66 12.19
14342 31.6660 153.94 153.80 11.68
14343 31.6680 167.24 156.78 12.22
14344 31.6700 176.21 158.63 12.44
14345 31.6720 169.92 159.42 12.16
14346 31.6740 171.39 159.26 12.24
14347 31.6760 158.41 158.26 11.88
14348 31.6780 156.67 156.45 11.80
14349 31.6800 145.73 153.79 11.31
14350 31.6820 135.94 150.26 10.84
14351 31.6840 169.90 145.94 12.17
14352 31.6860 134.85 141.07 10.99
14353 31.6880 143.73 135.90 11.22
14354 31.6900 134.21 130.74 10.84
14355 31.6920 102.28 125.82 9.47
14356 31.6940 132.78 121.31 10.73
14357 31.6960 109.09 117.33 9.83
14358 31.6980 113.07 113.91 10.01
14359 31.7000 115.74 111.07 10.11
14360 31.7020 113.84 108.76 9.93
14361 31.7040 82.88 106.86 8.49
14362 31.7060 104.35 105.50 9.67
14363 31.7080 110.81 104.52 9.95
14364 31.7100 100.34 103.85 9.37
14365 31.7120 109.09 103.43 9.79
14366 31.7140 134.98 103.19 10.84
14367 31.7160 136.88 103.09 11.04
14368 31.7180 111.92 103.07 9.91
14369 31.7200 103.86 103.08 9.60
14370 31.7220 94.91 103.08 9.07
14371 31.7240 110.61 103.03 9.79
14372 31.7260 111.14 102.91 9.95
14373 31.7280 104.97 102.72 9.67
14374 31.7300 100.87 102.48 9.40
14375 31.7320 127.63 102.21 10.53
14376 31.7340 99.53 101.94 9.35
14377 31.7360 103.15 101.72 9.54
14378 31.7380 116.13 101.60 10.12
14379 31.7400 103.04 101.63 9.53
14380 31.7420 106.05 101.84 9.63
14381 31.7440 119.62 102.29 10.21
14382 31.7460 118.35 103.02 10.24
14383 31.7480 105.42 104.07 9.67
14384 31.7500 118.89 105.49 10.21
14385 31.7520 109.03 107.30 9.73
14386 31.7540 119.42 109.52 10.21
14387 31.7560 124.72 112.19 10.55
14388 31.7580 121.53 115.25 10.35
14389 31.7600 103.96 118.71 9.56
14390 31.7620 124.71 122.54 10.44
14391 31.7640 144.20 126.74 11.27
14392 31.7660 128.38 131.31 10.63
14393 31.7680 147.64 136.29 11.42
14394 31.7700 142.15 141.88 11.15
14395 31.7720 166.84 148.21 12.11
14396 31.7740 166.36 155.51 12.03
14397 31.7760 161.21 163.90 12.03
14398 31.7780 151.65 173.28 11.58
14399 31.7800 186.67 183.22 12.78
14400 31.7820 180.84 192.95 12.56
14401 31.7840 216.57 201.50 13.80
14402 31.7860 223.02 208.12 14.08
14403 31.7880 213.82 212.41 13.76
14404 31.7900 203.41 214.23 13.44
14405 31.7920 233.07 213.09 14.25
14406 31.7940 214.10 208.49 13.68
14407 31.7960 210.38 200.53 13.62
14408 31.7980 189.28 190.57 12.98
14409 31.8000 171.96 179.58 12.26
14410 31.8020 168.65 169.20 12.12
14411 31.8040 166.12 160.30 12.10
14412 31.8060 143.29 153.21 11.29
14413 31.8080 117.36 147.97 10.22
14414 31.8100 132.92 144.50 10.86
14415 31.8120 129.76 142.63 10.66
14416 31.8140 128.80 142.17 10.61
14417 31.8160 144.21 142.90 11.32
14418 31.8180 137.66 144.57 11.01
14419 31.8200 148.97 146.74 11.49
14420 31.8220 142.55 148.89 11.12
14421 31.8240 142.26 150.47 11.16
14422 31.8260 138.76 151.04 11.15
14423 31.8280 143.49 150.58 11.32
14424 31.8300 148.05 149.42 11.42
14425 31.8320 143.73 147.96 11.26
14426 31.8340 143.95 146.50 11.21
14427 31.8360 144.09 145.17 11.39
14428 31.8380 125.09 144.01 10.55
14429 31.8400 128.68 142.99 10.65
14430 31.8420 139.10 142.04 11.05
14431 31.8440 123.12 141.11 10.35
14432 31.8460 138.56 140.15 11.14
14433 31.8480 133.55 139.12 10.93
14434 31.8500 142.93 137.98 11.24
14435 31.8520 126.40 136.70 10.49
14436 31.8540 149.31 135.27 11.42
14437 31.8560 138.30 133.68 11.10
14438 31.8580 137.87 131.94 11.10
14439 31.8600 126.26 130.09 10.55
14440 31.8620 122.70 128.16 10.35
14441 31.8640 122.44 126.22 10.38
14442 31.8660 113.08 124.30 10.05
14443 31.8680 119.16 122.46 10.33
14444 31.8700 105.39 120.74 9.67
14445 31.8720 114.00 119.16 9.98
14446 31.8740 109.01 117.76 9.72
14447 31.8760 110.78 116.57 9.92
14448 31.8780 119.53 115.61 10.31
14449 31.8800 115.06 114.92 10.08
14450 31.8820 110.84 114.48 9.79
14451 31.8840 104.69 114.31 9.56
14452 31.8860 103.10 114.41 9.55
14453 31.8880 110.17 114.76 9.94
14454 31.8900 99.51 115.33 9.36
14455 31.8920 103.68 116.08 9.52
14456 31.8940 118.98 116.95 10.17
14457 31.8960 128.06 117.86 10.69
14458 31.8980 117.01 118.70 10.26
14459 31.9000 130.08 119.39 10.69
14460 31.9020 126.41 119.82 10.46
14461 31.9040 143.48 119.91 11.16
14462 31.9060 104.44 119.64 9.60
14463 31.9080 122.93 119.04 10.45
14464 31.9100 113.77 118.15 10.01
14465 31.9120 141.14 117.00 11.07
14466 31.9140 119.18 115.60 10.15
14467 31.9160 99.18 113.90 9.38
14468 31.9180 122.91 111.87 10.48
14469 31.9200 115.60 109.54 10.09
14470 31.9220 108.11 107.00 9.68
14471 31.9240 105.62 104.41 9.56
14472 31.9260 96.91 101.93 9.23
14473 31.9280 107.79 99.68 9.84
14474 31.9300 98.71 97.78 9.29
14475 31.9320 92.07 96.26 8.96
14476 31.9340 92.45 95.27 8.92
14477 31.9360 93.80 94.56 9.12
14478 31.9380 104.90 94.22 9.68
14479 31.9400 92.24 94.24 9.02
14480 31.9420 104.12 94.57 9.57
14481 31.9440 86.59 95.17 8.93
14482 31.9460 86.74 95.98 9.03
14483 31.9480 93.09 96.95 9.72
14484 31.9500 93.29 98.03 9.59
14485 31.9520 99.55 99.13 9.90
14486 31.9540 100.51 100.21 9.92
14487 31.9560 119.53 101.20 10.98
14488 31.9580 121.68 102.05 11.08
14489 31.9600 104.91 102.74 10.16
14490 31.9620 116.28 103.25 10.58
14491 31.9640 102.74 103.60 10.02
14492 31.9660 112.39 103.82 10.65
14493 31.9680 118.43 103.90 10.94
14494 31.9700 107.01 103.71 10.29
14495 31.9720 105.57 103.27 10.14
14496 31.9740 92.27 102.30 9.47
14497 31.9760 112.75 100.68 10.66
14498 31.9780 92.22 98.49 9.62
14499 31.9800 98.87 96.01 9.83
14500 31.9820 102.61 93.54 10.02
14501 31.9840 86.55 91.28 9.22
14502 31.9860 96.39 89.33 9.86
14503 31.9880 89.66 87.72 9.46
14504 31.9900 90.78 86.43 9.44
14505 31.9920 73.51 85.46 8.47
14506 31.9940 87.54 84.77 9.24
14507 31.9960 77.72 84.58 8.86
14508 31.9980 78.87 84.40 8.90
14509 32.0000 84.89 84.44 9.12
loop_
_pd_proc_info_excluded_regions
'from 1.001 to 2.988'
'from 32.008 to 40.040'
loop_
_refln_index_h
_refln_index_k
_refln_index_l
_refln_F_squared_calc
_refln_F_squared_meas
_refln_observed_status
_refln_d_spacing
-1 1 1 29630.76 28105.88 o 6.051827
1 1 0 20686.23 19564.74 o 6.046992
0 2 0 4350.14 4657.17 o 5.719484
0 0 2 88223.05 85253.54 o 5.411171
0 2 1 48844.00 48869.88 o 5.056740
-1 1 2 854.34 869.59 o 4.749191
1 1 1 4.82 4.95 o 4.742189
0 2 2 1982.25 2316.08 o 3.930754
-1 1 3 69573.82 69063.70 o 3.570407
-2 0 2 58061.43 56546.78 o 3.565820
1 1 2 73661.72 71740.10 o 3.565448
2 0 0 32940.69 31871.60 o 3.561866
-1 3 1 13272.91 13121.00 o 3.362551
1 3 0 25026.79 24742.67 o 3.361721
-2 2 1 741772.88 728839.88 o 3.150243
-1 3 2 38.96 56.59 o 3.079108
1 3 1 4453.90 6475.95 o 3.077198
0 2 3 666548.75 641284.00 o 3.051226
-2 2 2 781.48 437.39 o 3.025913
2 2 0 186.03 113.17 o 3.023496
0 4 0 487752.44 515729.00 o 2.859742
-1 1 4 2226.75 1942.16 o 2.777463
1 1 3 6255.38 5530.24 o 2.774194
0 4 1 1430.01 1708.76 o 2.764843
-2 2 3 34009.48 33089.10 o 2.724251
2 2 1 55526.97 54125.29 o 2.720725
0 0 4 14697.35 12648.65 o 2.705585
-1 3 3 49019.71 47788.88 o 2.676596
1 3 2 42217.06 40899.02 o 2.674505
-2 0 4 371932.94 396599.22 o 2.610189
2 0 2 359871.75 369275.81 o 2.605541
0 4 2 35548.81 34344.96 o 2.528370
0 2 4 900.64 843.36 o 2.445742
-3 1 2 12269.19 11175.10 o 2.442276
-3 1 1 8727.17 7975.88 o 2.441323
-2 2 4 543.66 546.94 o 2.374596
2 2 2 8100.23 8166.53 o 2.371095
-3 1 3 3995.35 3993.73 o 2.327485
3 1 0 17890.40 18394.82 o 2.325011
-1 3 4 6704.55 6544.53 o 2.289534
1 3 3 278.14 271.98 o 2.287702
-2 4 1 7980.76 9240.00 o 2.279368
-1 1 5 30780.82 34190.94 o 2.247958
1 1 4 962.87 977.78 o 2.245729
0 4 3 66080.12 67168.31 o 2.241005
-2 4 2 46318.86 45611.86 o 2.230919
2 4 0 31718.12 31403.46 o 2.229950
-1 5 1 26868.27 28026.17 o 2.178447
1 5 0 10458.74 10909.46 o 2.178221
-3 1 4 36362.34 34790.57 o 2.138731
3 1 1 39179.73 36519.66 o 2.135534
-2 4 3 4996.61 5267.36 o 2.101420
2 4 1 3305.17 3461.93 o 2.099801
-1 5 2 2214.95 2350.29 o 2.095407
1 5 1 17958.03 19152.49 o 2.094804
-3 3 2 26460.22 23991.42 o 2.090644
-3 3 1 13613.46 12282.76 o 2.090046
-2 2 5 25079.66 26409.48 o 2.054014
2 2 3 7810.01 8735.14 o 2.050993
0 2 5 47146.09 41004.77 o 2.024358
-3 3 3 9365.14 8415.55 o 2.017276
3 3 0 626.24 600.45 o 2.015664
0 4 4 11874.35 11680.49 o 1.965377
-1 3 5 10.42 10.19 o 1.964835
1 3 4 35972.62 34725.23 o 1.963346
-1 5 3 39370.73 38135.73 o 1.954180
1 5 2 52377.43 50382.58 o 1.953366
-2 4 4 584445.50 618911.44 o 1.927882
2 4 2 560422.31 592708.63 o 1.926007
-3 1 5 2348.78 2484.07 o 1.925514
3 1 2 3610.19 3653.43 o 1.922249
0 6 0 11278.23 10764.42 o 1.906495
-3 3 4 52449.41 51402.79 o 1.890641
3 3 1 50409.40 49317.89 o 1.888431
-4 0 2 650494.94 641482.88 o 1.887180
-2 0 6 27347.03 27953.42 o 1.879081
-1 1 6 89965.09 93248.34 o 1.879027
0 6 1 30993.53 31610.13 o 1.877583
1 1 5 114143.41 116154.97 o 1.877435
2 0 4 29298.84 29682.10 o 1.876190
0 0 6 469463.25 425501.97 o 1.803724
0 6 2 17028.12 15279.43 o 1.798153
-4 2 2 2643.37 1065.70 o 1.792144
-1 5 4 580.03 518.32 o 1.787295
1 5 3 14707.11 13363.88 o 1.786423
-2 2 6 1089.31 1003.16 o 1.785204
-4 0 4 29109.59 28440.28 o 1.782910
2 2 4 2551.48 2475.69 o 1.782724
4 0 0 66527.02 65447.80 o 1.780933
-4 2 3 57822.56 52392.21 o 1.768548
-4 2 1 22850.45 20723.50 o 1.767583
-2 4 5 1220.41 1107.64 o 1.744129
2 4 3 0.73 0.66 < 1.742278
-3 3 5 1.09 1.04 o 1.738527
3 3 2 9302.09 7744.75 o 1.736122
0 4 5 13008.20 13111.58 o 1.725862
-3 1 6 3153.34 4159.51 o 1.720334
0 2 6 1136.47 1334.25 o 1.720209
3 1 3 8031.08 8586.14 o 1.717340
-1 3 6 96075.25 95420.32 o 1.704082
1 3 5 116122.05 117392.56 o 1.702894
-4 2 4 4388.88 4471.74 o 1.702127
-2 6 1 454988.03 473492.34 o 1.701723
4 2 0 5633.38 5979.67 o 1.700406
-3 5 2 8225.51 8342.64 o 1.687734
-3 5 1 33073.54 33856.11 o 1.687419
0 6 3 390707.03 392378.97 o 1.685580
-2 6 2 2584.29 1909.28 o 1.681275
2 6 0 609.68 440.72 o 1.680860
-3 5 3 1593.44 926.17 o 1.648420
3 5 0 3770.36 2193.51 o 1.647541
-2 6 3 29302.59 28303.29 o 1.623715
2 6 1 41041.70 39733.01 o 1.622968
-1 5 5 1208.76 1188.82 o 1.619434
1 5 4 19.96 17.38 o 1.618600
-1 1 7 10.16 8.19 o 1.610310
1 1 6 4008.03 3657.60 o 1.609126
-4 2 5 479055.09 465579.88 o 1.606082
4 2 1 350836.56 348380.19 o 1.603915
-1 7 1 4844.83 5968.28 o 1.592857
1 7 0 31769.34 38935.70 o 1.592769
-3 3 6 15101.74 18612.45 o 1.583064
3 3 3 11678.36 12489.20 o 1.580730
-3 5 4 29566.74 31032.32 o 1.577132
3 5 1 46266.31 45534.58 o 1.575849
-4 4 2 391644.66 392785.31 o 1.575122
-2 4 6 33261.38 44032.96 o 1.570404
2 4 4 50422.27 55548.92 o 1.568715
-2 2 7 281664.16 278698.59 o 1.566309
2 2 5 348138.53 331745.59 o 1.564299
-1 7 2 18726.77 18691.95 o 1.559516
1 7 1 2104.28 2094.33 o 1.559268
-4 4 3 1881.17 1811.79 o 1.559030
0 6 4 436.39 433.86 o 1.558448
-4 4 1 377.53 369.94 o 1.558368
-4 0 6 14886.20 18841.24 o 1.549142
4 0 2 5373.75 7200.23 o 1.546551
-2 6 4 12553.81 13515.28 o 1.539554
2 6 2 12347.61 13094.19 o 1.538599
-3 1 7 71160.28 74240.77 o 1.537301
3 1 4 83060.12 85458.02 o 1.534689
0 4 6 267369.72 249415.62 o 1.525613
-4 4 4 15125.29 13900.52 o 1.512957
4 4 0 39061.11 36369.40 o 1.511748
-1 7 3 42072.11 43933.07 o 1.498597
1 7 2 42887.44 44632.18 o 1.498230
-1 3 7 2455.80 2589.28 o 1.496078
-4 2 6 416.35 427.74 o 1.495265
1 3 6 946.28 908.68 o 1.495128
-5 1 3 13241.80 11164.83 o 1.493380
-5 1 2 6415.17 5377.53 o 1.493016
4 2 2 427.71 344.07 o 1.492934
0 2 7 734.19 614.31 o 1.492483
-3 5 5 15010.77 12115.34 o 1.485551
3 5 2 2384.74 1991.77 o 1.484050
-5 1 4 5706.20 5453.70 o 1.466075
-5 1 1 5325.46 5217.29 o 1.465044
-1 5 6 87753.58 85595.20 o 1.463888
1 5 5 62464.16 60337.46 o 1.463135
-4 4 5 13440.84 15021.57 o 1.444309
4 4 1 11024.25 11929.45 o 1.442732
-2 6 5 10163.00 11034.64 o 1.441007
2 6 3 5508.74 6401.30 o 1.439963
-3 3 7 79348.13 82182.95 o 1.436988
3 3 4 95382.50 96986.33 o 1.434854
-2 0 8 7342.05 7382.60 o 1.431572
0 6 5 26579.30 27051.67 o 1.430653
0 8 0 247070.48 255754.83 o 1.429871
2 0 6 233.89 234.31 o 1.429782
-1 7 4 16021.77 17378.38 o 1.419244
1 7 3 554.26 614.23 o 1.418808
0 8 1 2591.30 3088.74 o 1.417552
-5 1 5 34219.75 33009.78 o 1.415367
-2 4 7 287.87 277.26 o 1.415178
5 1 0 37093.72 34858.09 o 1.413822
2 4 5 116.98 110.81 o 1.413695
-1 1 8 12188.14 10984.75 o 1.407017
1 1 7 246.30 216.91 o 1.406106
-5 3 3 7901.08 6622.11 o 1.400923
-5 3 2 13675.33 11494.25 o 1.400623
-2 2 8 429.22 288.15 < 1.388732
2 2 6 2.66 2.28 o 1.387097
-3 5 6 3536.84 3040.83 o 1.385013
3 5 3 1335.60 1270.47 o 1.383450
0 8 2 24647.57 23144.71 o 1.382422
-4 2 7 25457.01 24548.03 o 1.381538
-3 1 8 4237.08 3943.60 o 1.379522
4 2 3 42719.14 40152.70 o 1.379241
-5 3 4 1516.04 1399.72 o 1.378308
-5 3 1 5398.59 4818.93 o 1.377451
3 1 5 310.58 276.12 o 1.377292
-3 7 2 19052.24 15900.49 o 1.367830
-3 7 1 3707.11 3111.11 o 1.367663
-4 4 6 23959.25 23564.41 o 1.362125
4 4 2 1192.23 1091.67 o 1.360363
0 4 7 0.52 0.52 o 1.360021
0 0 8 32240.65 24473.19 o 1.352793
-5 1 6 1248.60 961.84 o 1.348161
-3 7 3 602.18 464.14 o 1.346650
5 1 1 6569.91 5088.92 o 1.346292
3 7 0 1886.91 1507.21 o 1.346171
-4 6 2 7620.83 6422.64 o 1.341215
-2 6 6 9210.12 9873.80 o 1.338298
2 6 4 9059.52 9445.52 o 1.337252
-2 8 1 47979.52 50877.52 o 1.337135
-5 3 5 26888.29 26129.44 o 1.335920
5 3 0 30557.43 26806.48 o 1.334620
-4 6 3 19632.42 19266.48 o 1.331238
-4 6 1 4614.87 4518.37 o 1.330826
-1 7 5 1969.92 1925.24 o 1.330707
1 7 4 8177.02 7922.25 o 1.330245
0 8 3 899.66 869.23 o 1.329261
-1 3 8 14.46 14.81 o 1.328892
1 3 7 5347.10 5677.02 o 1.328123
-2 8 2 18654.52 21902.85 o 1.327147
2 8 0 7458.14 8799.77 o 1.326943
-1 5 7 187.93 223.09 o 1.325631
1 5 6 2252.70 2596.91 o 1.324971
0 2 8 361.35 209.28 < 1.316470
0 6 6 5487.31 4666.92 o 1.310251
-3 7 4 32219.68 33306.19 o 1.306937
3 7 1 44250.38 46383.35 o 1.306207
-3 3 8 490.13 521.37 o 1.305654
-4 0 8 290298.31 310434.03 o 1.305094
3 3 5 5.95 6.35 o 1.303762
4 0 4 255740.34 275649.72 o 1.302771
-4 6 4 7723.27 8219.34 o 1.302208
4 6 0 12166.42 12934.72 o 1.301437
-2 8 3 16259.58 18334.17 o 1.298282
2 8 1 22444.63 25504.86 o 1.297900
-3 5 7 65399.09 67088.37 o 1.284000
3 5 4 67978.64 70500.65 o 1.282477
-2 4 8 2291.31 2190.59 o 1.280132
-5 3 6 4701.97 3885.06 o 1.278972
2 4 6 2593.94 2196.51 o 1.278852
5 3 1 1811.65 1400.04 o 1.277376
-4 4 7 7429.36 6986.89 o 1.274491
4 4 3 8083.78 8189.33 o 1.272687
-4 2 8 13790.35 14063.11 o 1.272389
-5 1 7 4723.78 4832.12 o 1.271766
4 2 4 2207.71 2192.05 o 1.270236
5 1 2 83.24 85.01 o 1.269749
0 8 4 10373.85 9628.29 o 1.264185
-5 5 3 13293.66 13689.41 o 1.258076
-5 5 2 6991.55 7214.61 o 1.257859
-4 6 5 227870.58 234732.03 o 1.257661
4 6 1 325925.88 339952.47 o 1.256619
-2 8 4 325936.19 350579.28 o 1.254037
2 8 2 317405.28 339348.50 o 1.253521
-3 7 5 646.38 692.10 o 1.253385
3 7 2 8630.25 9303.87 o 1.252483
-1 9 1 26526.12 31360.84 o 1.251280
1 9 0 1939.91 2287.52 o 1.251237
-6 0 4 42910.96 43062.55 o 1.249960
-6 0 2 6315.18 6303.42 o 1.249448
-1 1 9 100010.99 100582.77 o 1.248350
1 1 8 130508.02 130137.34 o 1.247629
-3 1 9 159.78 171.80 o 1.245276
-2 2 9 17132.15 17111.41 o 1.243700
3 1 6 14569.45 14834.75 o 1.243383
2 2 7 24461.26 25072.51 o 1.242358
-5 5 4 3265.29 3416.20 o 1.241621
-5 5 1 12924.65 13893.01 o 1.240994
-1 7 6 56218.36 58892.34 o 1.240291
1 7 5 49290.67 49665.24 o 1.239833
-2 6 7 302383.59 306671.03 o 1.238287
2 6 5 182477.73 180478.61 o 1.237293
-1 9 2 356.74 298.17 o 1.234922
1 9 1 8308.29 6882.23 o 1.234799
-6 2 3 321239.06 295671.28 o 1.228744
0 4 8 12620.01 15620.21 o 1.222871
-6 2 4 730.74 818.64 o 1.221138
-6 2 2 581.39 719.34 o 1.220661
-5 3 7 1450.27 1672.47 o 1.213196
5 3 2 8615.76 9214.82 o 1.211445
-5 5 5 22524.97 21837.29 o 1.210365
5 5 0 37985.45 36419.58 o 1.209399
-1 5 8 11256.34 11482.30 o 1.205131
1 5 7 20775.46 21108.73 o 1.204558
-1 9 3 37785.60 38470.53 o 1.204005
1 9 2 30894.49 31345.56 o 1.203815
-4 6 6 437.66 443.09 o 1.202275
4 6 2 288.79 278.99 o 1.201063
0 6 7 5868.81 5930.73 o 1.200828
-2 8 5 292.37 369.97 o 1.199033
-6 2 5 7437.38 8054.12 o 1.198690
2 8 3 1181.70 1305.16 o 1.198431
-6 2 1 30953.68 33848.89 o 1.197789
0 8 5 9406.64 8892.63 o 1.193049
-1 3 9 86692.00 83597.65 o 1.192819
-5 1 8 64974.22 62529.95 o 1.192300
1 3 8 68153.66 65811.71 o 1.192189
-3 7 6 1611.40 1606.01 o 1.191218
5 1 3 75886.75 77562.02 o 1.190270
3 7 3 1134.92 1147.79 o 1.190223
-3 3 9 3801.04 3870.24 o 1.190136
-6 0 6 310649.59 314574.97 o 1.188607
3 3 6 1887.68 1917.09 o 1.188483
-3 5 8 3411.69 3499.01 o 1.187719
-4 4 8 227176.31 230794.58 o 1.187298
6 0 0 286766.91 294112.22 o 1.187289
3 5 5 600.47 621.90 o 1.186295
4 4 4 206880.17 213727.44 o 1.185547
0 2 9 164055.33 146428.75 o 1.176756
-4 2 9 3778.60 2950.45 o 1.171620
4 2 5 243.62 140.18 o 1.169659
-5 5 6 455.14 428.08 o 1.167527
5 5 1 12105.40 11355.91 o 1.166313
-2 4 9 1909.76 1613.35 o 1.163886
-6 2 6 424.33 382.01 o 1.163742
2 4 7 1023.80 1087.10 o 1.162786
6 2 0 3672.95 3925.78 o 1.162506
-1 9 4 1593.87 1768.40 o 1.161679
1 9 3 14061.54 15530.34 o 1.161439
-1 7 7 5284.52 4223.59 o 1.152803
1 7 6 6436.49 5295.54 o 1.152368
-6 4 3 4391.81 3705.42 o 1.151601
-2 0 10 175111.58 163147.34 o 1.146332
-6 4 4 30050.13 27389.49 o 1.145333
2 0 8 156228.52 142445.34 o 1.145150
-6 4 2 7249.95 6684.05 o 1.144939
-2 6 8 39.56 36.57 o 1.144767
0 10 0 17849.32 16087.01 o 1.143897
2 6 6 248.06 225.04 o 1.143851
-5 3 8 47839.36 43325.02 o 1.143637
5 3 3 62334.04 58239.59 o 1.141845
-4 6 7 8527.54 8270.69 o 1.140728
-4 8 2 220673.00 216298.58 o 1.139684
4 6 3 25195.14 24870.32 o 1.139433
-2 8 6 13651.22 14571.49 o 1.137893
0 10 1 6584.69 7705.96 o 1.137560
2 8 4 20581.47 24092.42 o 1.137250
-4 8 3 5379.06 5567.25 o 1.133544
-4 8 1 570.38 586.53 o 1.133289
-3 9 2 6566.78 6581.10 o 1.132975
-3 9 1 27332.03 26792.73 o 1.132879
-3 1 10 102797.75 98676.30 o 1.131304
3 1 7 79586.46 76342.97 o 1.129695
-6 4 5 1018.98 978.53 o 1.126750
-6 4 1 5361.59 5188.96 o 1.126001
-3 7 7 52122.77 51142.96 o 1.125109
3 7 4 40436.02 39097.85 o 1.124084
-2 2 10 1594.60 1565.27 o 1.123979
2 2 8 2070.18 1929.47 o 1.122864
-1 1 10 994.51 969.94 o 1.121309
-3 9 3 25193.29 24549.35 o 1.120850
1 1 9 1416.65 1382.34 o 1.120725
3 9 0 85.94 83.25 o 1.120574
0 8 6 181374.80 175884.77 o 1.120503
-6 2 7 16109.56 15497.90 o 1.119508
0 10 2 12513.79 12287.84 o 1.119164
6 2 1 97.75 88.99 o 1.118040
-5 5 7 7303.40 6555.88 o 1.116850
5 5 2 5125.13 4778.45 o 1.115484
-4 8 4 11641.16 10789.45 o 1.115460
4 8 0 24064.06 23221.46 o 1.114975
-5 1 9 250.93 237.22 o 1.114086
5 1 4 3407.14 2778.34 o 1.112128
-1 9 5 6964.60 5568.40 o 1.111607
1 9 4 4306.79 3502.61 o 1.111337
0 4 9 0.54 0.44 o 1.108475
-5 7 3 7461.03 6188.80 o 1.107544
-5 7 2 27058.35 22706.94 o 1.107396
-4 4 9 621.28 567.69 o 1.104179
0 6 8 7585.46 6539.00 o 1.103268
4 4 5 98.80 78.67 o 1.102536
-1 5 9 72615.99 64722.86 o 1.100891
-4 0 10 17721.71 15722.96 o 1.100417
1 5 8 99767.38 88373.28 o 1.100396
-3 5 9 10525.79 9889.28 o 1.098781
4 0 6 25121.65 24054.34 o 1.098559
-3 9 4 32087.83 31056.35 o 1.097639
-6 4 6 251576.73 241407.08 o 1.097577
3 5 6 8952.97 8596.88 o 1.097480
3 9 1 30553.21 29759.47 o 1.097206
6 4 0 221047.56 217427.19 o 1.096539
-5 7 4 16291.01 16085.42 o 1.096267
-5 7 1 2217.34 2266.52 o 1.095836
-2 10 1 199998.44 224400.70 o 1.094725
0 10 3 218497.45 222341.94 o 1.090391
-3 3 10 67326.05 66432.34 o 1.089482
-2 10 2 7315.96 6965.55 o 1.089223
2 10 0 5426.81 5108.78 o 1.089110
-6 0 8 6615.94 6370.58 o 1.088562
3 3 7 92721.62 88315.85 o 1.088044
-4 8 5 6978.11 6639.89 o 1.087077
6 0 2 39045.96 37598.16 o 1.086876
4 8 1 7086.46 6655.78 o 1.086404
0 0 10 1325.17 1124.28 o 1.082234
-4 2 10 1489.59 1237.04 o 1.080598
-1 3 10 854.06 719.36 o 1.080546
1 3 9 4304.42 3874.15 o 1.080023
4 2 6 0.42 0.39 o 1.078839
-4 6 8 5429.62 4587.97 o 1.076933
4 6 4 2528.22 2307.56 o 1.075626
-5 7 5 18902.51 17647.31 o 1.074575
-2 8 7 13892.39 12937.49 o 1.074492
-5 3 9 1882.82 1786.13 o 1.074078
5 7 0 29772.89 28443.67 o 1.073898
2 8 5 10163.43 9715.28 o 1.073843
-2 10 3 13194.00 12910.51 o 1.073095
2 10 1 20078.45 19778.50 o 1.072879
-7 1 4 9549.67 9110.75 o 1.072404
5 3 4 646.38 631.88 o 1.072323
-7 1 3 8214.75 7924.93 o 1.072216
-1 7 8 12676.34 12299.10 o 1.070907
1 7 7 18407.38 17407.97 o 1.070505
-6 2 8 8.07 8.49 o 1.069366
6 2 2 656.78 916.90 o 1.067767
-3 9 5 9565.52 9215.25 o 1.065336
3 9 2 320.83 318.03 o 1.064782
-2 4 10 141095.36 138979.81 o 1.064030
0 2 10 259.61 249.99 o 1.063365
2 4 8 132562.80 126543.74 o 1.063084
-7 1 5 8.55 8.23 o 1.062210
-5 5 8 45817.75 43565.98 o 1.061874
-7 1 2 4393.82 4087.10 o 1.061661
5 5 3 44663.92 39438.36 o 1.060438
-6 4 7 769.29 674.26 o 1.060234
-2 6 9 8574.94 7793.42 o 1.059370
6 4 1 0.37 0.34 o 1.058987
-3 7 8 3499.83 3223.88 o 1.058633
2 6 7 6781.29 6214.70 o 1.058540
3 7 5 4398.13 4165.57 o 1.057624
-1 9 6 47110.00 44593.11 o 1.057261
1 9 5 33572.26 31552.18 o 1.056977
0 10 4 1607.45 1205.57 o 1.053600
-4 8 6 12871.10 11426.41 o 1.050710
-6 6 3 244091.09 218059.11 o 1.050081
4 8 2 4317.04 3845.04 o 1.049900
0 8 7 441.47 396.05 o 1.049743
-2 10 4 25355.16 29032.29 o 1.047704
2 10 2 11381.95 12963.16 o 1.047402
-6 6 4 3229.44 3364.34 o 1.045322
-6 6 2 179.24 180.05 o 1.045023
-5 7 6 8797.71 8649.03 o 1.044261
5 7 1 0.03 0.03 o 1.043391
-7 1 6 16860.85 15537.50 o 1.042491
-7 1 1 25395.49 23724.63 o 1.041626
-5 1 10 1332.07 1408.24 o 1.039754
5 1 5 7916.83 6569.40 o 1.037917
-7 3 4 6558.85 4669.42 o 1.036581
-7 3 3 6338.18 4456.39 o 1.036411
-3 1 11 2743.85 1802.04 o 1.034233
3 1 8 1.68 1.88 o 1.032859
-6 6 5 14112.66 13611.17 o 1.031137
-6 6 1 42880.50 41617.67 o 1.030563
-1 11 1 4668.12 5034.22 o 1.029024
1 11 0 23559.21 25406.89 o 1.029000
-7 3 5 1755.66 1789.57 o 1.027366
-4 4 10 8473.29 8199.25 o 1.027007
-7 3 2 1838.16 1749.39 o 1.026869
-3 9 6 937.01 870.62 o 1.026369
3 9 3 15221.65 13422.73 o 1.025733
4 4 6 12454.18 11192.03 o 1.025496
-2 2 11 1194.66 1050.96 o 1.023989
2 2 9 22.54 20.65 o 1.023052
-1 11 2 14115.72 16430.15 o 1.019868
1 11 1 1.28 1.50 o 1.019799
-3 5 10 80949.11 76245.66 o 1.018101
-1 1 11 17253.72 16608.07 o 1.017420
-6 4 8 12459.55 11896.90 o 1.017350
0 6 9 121909.94 116864.83 o 1.017075
1 1 10 8627.79 8404.70 o 1.016937
3 5 7 56965.52 54525.73 o 1.016927
-6 2 9 162000.59 156004.61 o 1.016326
6 4 2 26264.24 26338.74 o 1.015973
-2 10 5 9506.07 9432.45 o 1.014986
-7 1 7 2135.70 2149.51 o 1.014789
6 2 3 188627.33 188894.33 o 1.014679
2 10 3 6748.23 6819.73 o 1.014621
-4 6 9 7510.86 7644.48 o 1.013754
7 1 0 3813.52 3908.49 o 1.013672
4 6 5 185.58 218.66 o 1.012482
0 4 10 199.70 214.55 o 1.012179
-2 8 8 5165.96 6062.86 o 1.011672
0 10 5 7170.96 8477.92 o 1.011348
2 8 6 3117.73 3801.23 o 1.011040
-1 5 10 4873.40 5892.24 o 1.010798
1 5 9 2926.84 3378.47 o 1.010369
-7 3 6 17545.72 20173.27 o 1.009492
-4 8 7 8227.32 9232.59 o 1.008881
-7 3 1 31395.73 35808.42 o 1.008707
-6 6 6 7231.47 8232.92 o 1.008638
4 8 3 8941.31 9967.22 o 1.007985
6 6 0 6827.50 7651.73 o 1.007832
-5 7 7 44.01 48.33 o 1.007528
-5 3 10 2263.07 2607.76 o 1.007006
5 7 2 13626.76 16018.04 o 1.006524
-5 5 9 54.59 61.90 o 1.005497
5 3 5 5266.94 5923.55 o 1.005338
5 5 4 1.64 1.98 o 1.004057
-1 11 3 19578.91 19510.49 o 1.002245
1 11 2 34795.83 34740.50 o 1.002135
-3 3 11 6089.45 6123.59 o 1.001989
-1 9 7 12114.26 12122.78 o 1.001490
1 9 6 1542.53 1502.92 o 1.001205
3 3 8 18.36 18.48 o 1.000739
-4 2 11 167741.52 164466.06 o 0.999320
4 2 7 97873.14 95778.48 o 0.997754
-1 7 9 110806.05 100232.07 o 0.995765
1 7 8 38758.05 34952.11 o 0.995398
-3 7 9 5886.93 5548.41 o 0.994202
3 7 6 7675.60 6328.34 o 0.993238
-1 3 11 10733.52 8970.00 o 0.986677
1 3 10 18742.71 16064.28 o 0.986236
-7 3 7 80.30 72.00 o 0.984276
7 3 0 3192.22 3067.88 o 0.983258
-3 9 7 32248.42 31161.48 o 0.983172
0 8 8 4272.59 4101.37 o 0.982688
3 9 4 54546.45 52132.23 o 0.982488
-2 6 10 437.94 418.63 o 0.982418
2 6 8 69.86 66.98 o 0.981673
-7 1 8 2230.95 2246.79 o 0.981022
7 1 1 1807.84 1582.62 o 0.979726
-6 6 7 22072.13 20539.90 o 0.979428
6 6 1 2848.26 2824.67 o 0.978445
-4 10 2 14480.56 14933.69 o 0.978223
-2 4 11 513.15 521.30 o 0.978044
-1 11 4 15690.10 16865.31 o 0.977433
1 11 3 398.21 418.02 o 0.977290
2 4 9 5364.40 5435.06 o 0.977227
-2 10 6 18667.29 19257.00 o 0.977090
-6 0 10 9443.12 9582.67 o 0.976694
2 10 4 17920.21 18262.93 o 0.976683
6 0 4 748.22 649.72 o 0.974989
-7 5 4 6289.81 5621.25 o 0.974535
-7 5 3 10530.47 9468.84 o 0.974394
-4 10 3 14779.22 13304.24 o 0.974332
-4 10 1 3014.38 2731.59 o 0.974171
-5 9 3 18150.12 18323.01 o 0.971386
-6 4 9 2988.48 2999.32 o 0.971359
-5 9 2 775.87 776.76 o 0.971286
-5 1 11 63351.03 64822.82 o 0.970652
6 4 3 1770.06 1821.51 o 0.969922
0 2 11 1452.31 1451.92 o 0.969609
5 1 6 73188.49 73350.50 o 0.968959
-7 5 5 109.88 111.32 o 0.966866
-5 7 8 33177.48 34221.05 o 0.966612
-7 5 2 675.75 707.30 o 0.966452
0 10 6 6308.58 6581.68 o 0.966013
5 7 3 47473.59 48517.08 o 0.965530
-4 8 8 158193.70 158904.06 o 0.963941
-5 9 4 11.45 11.52 o 0.963752
-5 9 1 1954.20 1967.88 o 0.963458
4 8 4 145972.64 148587.73 o 0.963004
-4 10 4 5037.00 5055.87 o 0.962776
-6 2 10 0.86 0.87 o 0.962757
4 10 0 9790.41 9919.61 o 0.962464
6 2 4 430.12 420.82 o 0.961124
-3 11 2 21844.37 21977.02 o 0.960149
-3 11 1 1404.73 1421.54 o 0.960091
-4 4 11 71.80 53.04 o 0.956480
4 4 7 9.21 7.73 o 0.955108
-7 3 8 445.28 406.02 o 0.953375
0 12 0 226335.30 206197.56 o 0.953247
-4 6 10 4986.19 4555.58 o 0.953053
-3 11 3 466.56 424.80 o 0.952736
3 11 0 26407.49 24251.29 o 0.952566
-2 0 12 2066.52 1854.44 o 0.952452
7 3 1 5702.63 5163.29 o 0.952185
-7 5 6 17079.90 15476.42 o 0.951924
4 6 6 6102.67 5455.40 o 0.951846
2 0 10 1199.66 1091.50 o 0.951622
-2 8 9 12309.45 11009.23 o 0.951285
-7 5 1 20141.20 17902.85 o 0.951265
-3 1 12 3182.07 2862.70 o 0.951077
2 8 7 15147.72 13665.21 o 0.950684
3 1 9 16905.09 15057.16 o 0.949896
-5 5 10 1832.05 1703.76 o 0.949838
0 12 1 9609.46 9020.34 o 0.949571
-5 9 5 29215.49 26478.16 o 0.948914
5 9 0 21287.10 18799.18 o 0.948447
5 5 5 6736.03 6067.82 o 0.948438
-1 11 5 3098.25 2755.62 o 0.947040
1 11 4 2894.43 2605.63 o 0.946873
-1 9 8 179.43 161.25 o 0.946385
1 9 7 6662.67 6264.20 o 0.946107
-3 5 11 1469.27 1444.80 o 0.945624
-6 6 8 6675.26 6586.48 o 0.945321
3 5 8 4122.10 4072.04 o 0.944573
-6 8 3 7251.58 7178.34 o 0.944542
-4 10 5 190662.25 189207.02 o 0.944348
6 6 2 6220.46 6173.45 o 0.944216
4 10 1 160578.28 159980.69 o 0.943907
-5 3 11 74874.88 74365.27 o 0.943849
-8 0 4 183078.27 182704.73 o 0.943590
-7 1 9 42275.23 42321.44 o 0.943170
5 3 6 51190.36 50326.03 o 0.942292
7 1 2 55633.39 56747.43 o 0.941762
0 6 10 3373.18 3461.44 o 0.941168
-6 8 4 18756.30 19868.82 o 0.941074
-6 8 2 1607.98 1675.49 o 0.940856
-4 0 12 3.09 3.21 o 0.939541
-2 2 12 946.11 972.32 o 0.939514
0 12 2 11456.69 11535.81 o 0.938792
2 2 10 2999.06 3203.00 o 0.938718
-3 11 4 31725.98 31975.05 o 0.938357
4 0 8 1497.89 1565.72 o 0.938095
3 11 1 16966.55 17270.07 o 0.938087
-3 9 8 1694.89 1786.58 o 0.937882
3 9 5 15924.58 16349.28 o 0.937180
-2 10 7 128286.63 125939.34 o 0.936063
2 10 5 148443.03 144527.67 o 0.935633
-3 7 10 38524.96 37665.65 o 0.933246
-1 5 11 1571.46 1428.68 o 0.932721
1 5 10 8447.71 7726.61 o 0.932349
3 7 7 105017.00 94062.55 o 0.932342
-8 2 4 793.89 738.16 o 0.931005
-1 1 12 72503.96 67084.45 o 0.930951
-7 5 7 4312.37 4009.93 o 0.930693
-6 8 5 7383.90 6779.87 o 0.930684
1 1 11 77217.31 72244.47 o 0.930546
0 4 11 3392.25 3173.88 o 0.930332
-6 8 1 9996.31 9296.23 o 0.930262
-8 0 6 7651.37 7078.53 o 0.929844
7 5 0 1076.00 1025.88 o 0.929832
-8 0 2 21394.24 22028.82 o 0.929282
-5 9 6 1092.30 1085.67 o 0.927844
-8 2 5 36435.65 35128.91 o 0.927719
-1 7 10 2510.93 2416.52 o 0.927611
-8 2 3 3596.13 3469.48 o 0.927440
1 7 9 2752.69 2655.82 o 0.927280
5 9 1 7978.47 7619.94 o 0.927234
-4 2 12 548.02 531.27 o 0.927115
-3 3 12 9392.16 8411.39 o 0.925821
4 2 8 116.88 106.42 o 0.925726
3 3 9 11933.09 11075.07 o 0.924731
-6 4 10 3818.97 3661.05 o 0.924275
-2 12 1 22472.83 21806.34 o 0.924227
-5 7 9 4350.75 4398.31 o 0.923509
6 4 4 216.29 190.15 o 0.922830
5 7 4 11138.55 9456.33 o 0.922393
0 12 3 15781.88 13128.31 o 0.921614
-2 12 2 6697.22 5824.77 o 0.920909
2 12 0 3234.08 2787.31 o 0.920841
0 8 9 725.36 662.65 o 0.920306
-4 10 6 1326.77 1234.11 o 0.920213
4 10 2 52.69 53.28 o 0.919669
0 10 7 4595.79 4539.65 o 0.919563
-7 3 9 28167.79 27764.20 o 0.918523
-3 11 5 625.86 590.10 o 0.917935
-4 8 9 670.19 603.59 o 0.917843
-8 2 6 1464.61 1327.10 o 0.917794
3 11 2 22238.32 19702.54 o 0.917580
-8 2 2 3357.63 2959.37 o 0.917254
7 3 2 41616.85 36739.32 o 0.917222
4 8 5 3348.67 2897.64 o 0.916899
-6 8 6 173491.64 165438.12 o 0.914040
-2 6 11 555.43 539.25 o 0.913537
6 8 0 162276.33 158027.97 o 0.913441
2 6 9 318.37 314.32 o 0.912872
-1 11 6 16465.02 16223.75 o 0.912754
1 11 5 49341.02 48191.19 o 0.912571
-2 12 3 7936.70 10083.63 o 0.911100
2 12 1 12037.95 15662.08 o 0.910968
-6 2 11 6533.30 8088.44 o 0.910344
6 2 5 18136.93 16597.87 o 0.908766
-6 6 9 211903.39 196263.00 o 0.908083
-5 1 12 1353.31 1281.26 o 0.907274
-1 3 12 73266.42 69776.49 o 0.907225
6 6 3 102411.23 96408.12 o 0.906908
1 3 11 117194.96 111672.48 o 0.906850
5 1 7 150.84 158.05 o 0.905729
-7 5 8 519.31 530.90 o 0.904438
-2 4 12 1433.85 1476.37 o 0.903650
7 5 1 4879.45 4824.42 o 0.903422
-7 1 10 1641.74 1635.23 o 0.903033
2 4 10 2356.72 2346.39 o 0.902942
0 0 12 42472.68 41917.94 o 0.901862
-8 2 7 208226.89 204162.16 o 0.901852
-5 9 7 2033.86 1990.42 o 0.901791
7 1 3 211.97 209.06 o 0.901573
-8 2 1 158681.25 158098.98 o 0.901084
5 9 2 1207.12 1174.20 o 0.901072
-7 7 4 10253.81 11638.34 o 0.899348
-7 7 3 345.17 415.05 o 0.899237
0 12 4 6246.81 8388.72 o 0.899077
-5 5 11 46320.33 47017.71 o 0.896293
-8 4 4 209909.72 211068.77 o 0.896072
-4 6 11 68309.44 68359.86 o 0.895892
-2 12 4 101467.35 99685.70 o 0.895404
2 12 2 105427.91 102905.01 o 0.895216
5 5 6 89617.62 87835.45 o 0.894960
4 6 7 124008.50 120271.49 o 0.894763
-2 8 10 90942.69 87528.43 o 0.894391
2 8 8 83814.72 80188.52 o 0.893830
-2 10 8 1204.37 1153.10 o 0.893648
-1 9 9 26135.14 24963.88 o 0.893327
-7 7 5 1097.83 1050.54 o 0.893310
2 10 6 1238.51 1165.93 o 0.893212
-8 4 5 868.11 831.77 o 0.893140
1 9 8 80966.95 76237.45 o 0.893063
-7 7 2 1719.63 1608.77 o 0.892983
-8 4 3 19.47 18.42 o 0.892892
-3 11 6 9014.42 8344.92 o 0.892654
-4 4 12 2832.18 2639.40 o 0.892602
3 11 3 1738.37 1687.00 o 0.892235
-3 9 9 6933.82 6561.48 o 0.892199
-6 8 7 481.32 449.37 o 0.892134
-4 10 7 6059.90 5613.15 o 0.891722
3 9 6 4015.53 3803.93 o 0.891502
-8 0 8 17943.64 17209.12 o 0.891455
6 8 1 224.29 214.90 o 0.891390
4 4 8 533.00 504.09 o 0.891362
4 10 3 8438.42 7842.67 o 0.891103
0 2 12 1.37 1.27 o 0.890855
8 0 0 1.27 1.20 o 0.890467
-5 3 12 1329.85 1347.90 o 0.885271
-8 4 6 3591.39 3493.79 o 0.884274
5 3 7 3536.98 3471.55 o 0.883836
-8 4 2 32347.19 31850.58 o 0.883791
-7 7 6 23543.64 24473.04 o 0.881485
-7 3 10 1.47 1.51 o 0.881330
-7 7 1 17936.01 17914.88 o 0.880962
-8 2 8 1142.31 1122.21 o 0.880820
-3 5 12 7124.35 6953.71 o 0.880812
7 3 3 459.20 454.17 o 0.879973
3 5 9 6045.81 5634.00 o 0.879874
8 2 0 153.20 144.24 o 0.879867
-5 7 10 4721.54 4531.67 o 0.879828
-3 1 13 73918.66 68625.17 o 0.879350
5 7 5 11205.03 10249.55 o 0.878715
3 1 10 82169.38 75508.77 o 0.878328
-6 4 11 493.91 435.19 o 0.877605
-3 7 11 4325.98 4220.12 o 0.876476
6 4 5 3226.67 3171.65 o 0.876191
-1 11 7 2453.17 2435.66 o 0.876142
1 11 6 12105.15 12538.38 o 0.875951
3 7 8 1937.46 1936.69 o 0.875639
-2 12 5 1375.47 1296.06 o 0.874722
-7 5 9 34498.60 34769.96 o 0.874521
2 12 3 1.54 1.42 o 0.874489
0 6 11 2559.93 2475.32 o 0.874296
0 10 8 15310.41 14684.38 o 0.873482
7 5 2 39622.55 37982.80 o 0.873398
-1 13 1 21786.24 21108.81 o 0.873299
1 13 0 3237.26 3136.60 o 0.873284
0 12 5 20208.71 18779.89 o 0.872391
-5 9 8 29637.38 27244.41 o 0.872098
-4 8 10 1755.36 1613.96 o 0.872064
5 9 3 18306.80 17117.22 o 0.871302
4 8 6 5208.16 5218.94 o 0.871139
-6 0 12 117090.57 126878.91 o 0.870063
-8 4 7 737.06 773.25 o 0.869990
-8 4 1 251.17 261.02 o 0.869300
-6 6 10 144.65 149.98 o 0.869263
6 0 6 91676.52 89920.59 o 0.868514
6 6 4 1044.26 1017.32 o 0.868061
-1 13 2 14.98 14.45 o 0.867681
1 13 1 14006.52 13544.60 o 0.867638
-2 2 13 50523.08 48957.86 o 0.867373
2 2 11 55967.55 49880.34 o 0.866690
-1 7 11 4827.56 4297.29 o 0.866172
-6 8 8 7513.68 6740.78 o 0.866129
1 7 10 3015.63 2777.93 o 0.865874
6 8 2 13071.69 11636.31 o 0.865279
-1 5 12 112368.23 103367.92 o 0.864753
-7 7 7 1173.49 1075.67 o 0.864547
1 5 11 46216.60 42316.74 o 0.864429
7 7 0 4898.34 4638.04 o 0.863856
-3 11 7 35845.03 36521.56 o 0.863798
3 11 4 12828.71 12370.82 o 0.863334
-4 2 13 1553.94 1507.19 o 0.863053
0 8 10 97.07 94.18 o 0.862931
-7 1 11 2364.48 2161.51 o 0.862096
4 2 9 408.96 373.73 o 0.861820
7 1 4 6315.27 5671.15 o 0.860630
-4 10 8 1232.48 1099.05 o 0.860236
-6 2 12 1984.58 1793.16 o 0.860167
0 4 12 60834.07 54791.52 o 0.860105
4 10 4 10381.29 9250.99 o 0.859570
-3 3 13 102690.15 92905.98 o 0.859273
6 2 6 1211.59 1082.13 o 0.858670
3 3 10 61008.77 55110.63 o 0.858319
-1 1 13 0.34 0.31 o 0.857899
1 1 12 1544.23 1418.97 o 0.857555
-1 13 3 29663.55 27486.67 o 0.856751
1 13 2 13634.38 12853.72 o 0.856682
-8 2 9 7634.94 7139.06 o 0.855792
-5 11 3 3850.99 3669.84 o 0.855772
-5 11 2 16515.80 15540.92 o 0.855704
8 2 1 25822.16 21538.23 o 0.854699
-2 6 12 5479.64 4972.93 o 0.852041
2 6 10 4611.18 4243.04 o 0.851447
-2 10 9 1548.93 1419.53 o 0.851206
-8 4 8 16065.04 14848.21 o 0.851063
-4 12 2 145561.00 134697.09 o 0.850862
2 10 7 4255.69 3957.86 o 0.850775
-5 11 4 4557.84 4262.65 o 0.850538
-5 11 1 485.65 457.51 o 0.850337
8 4 0 20.39 19.13 o 0.850203
-2 12 6 1884.44 1737.74 o 0.850116
2 12 4 2206.99 2043.50 o 0.849847
-5 1 13 2613.06 2365.97 o 0.849598
-4 12 3 7887.88 7620.64 o 0.848297
5 1 8 14638.12 13896.30 o 0.848195
-4 12 1 6664.60 6500.66 o 0.848191
-3 9 10 67967.90 67274.05 o 0.847357
3 9 7 29678.71 28519.80 o 0.846681
-6 10 3 129213.30 124997.98 o 0.846364
-8 6 4 3637.90 3565.29 o 0.845679
-5 5 12 6363.13 6398.49 o 0.845678
5 5 7 2862.93 3111.92 o 0.844426
-6 10 4 12191.53 11969.29 o 0.843867
-6 10 2 3622.12 3575.88 o 0.843709
-7 7 8 2556.11 2516.47 o 0.843380
-8 6 5 11396.38 11202.80 o 0.843214
-7 3 11 503.90 497.80 o 0.843153
-1 9 10 10288.72 10114.27 o 0.843133
-8 6 3 359.52 352.56 o 0.843004
1 9 9 3012.41 2947.19 o 0.842884
0 12 6 126859.91 123233.16 o 0.842790
-4 6 12 1919.53 1867.94 o 0.842760
7 7 1 501.67 483.96 o 0.842556
-7 5 10 2390.53 2283.70 o 0.842240
7 3 4 7168.76 6999.52 o 0.841782
4 6 8 2539.74 2405.79 o 0.841717
-2 8 11 3636.63 3530.14 o 0.841485
-1 13 4 6.47 6.05 o 0.841096
7 5 3 829.41 777.49 o 0.841055
1 13 3 19231.42 17790.20 o 0.841005
2 8 9 766.95 726.37 o 0.840965
-4 12 4 5017.44 4744.23 o 0.840638
4 12 0 12951.79 12157.18 o 0.840430
-5 11 5 13185.52 12379.85 o 0.840287
-5 9 9 8289.86 7925.97 o 0.840049
5 11 0 16698.92 15728.09 o 0.839963
-1 3 13 2730.13 2600.90 o 0.839225
5 9 4 1109.63 1041.60 o 0.839209
-2 4 13 834.64 793.66 o 0.838915
1 3 12 675.55 635.78 o 0.838903
-1 11 8 11601.68 10954.22 o 0.838529
1 11 7 1514.18 1448.59 o 0.838337
2 4 11 272.30 266.04 o 0.838297
-6 8 9 5839.92 5782.76 o 0.837217
-5 7 11 61187.61 61033.47 o 0.836764
-8 0 10 132768.03 134932.98 o 0.836707
-6 10 5 2424.74 2450.43 o 0.836351
6 8 3 1067.30 1080.67 o 0.836296
-6 10 1 13548.66 13732.92 o 0.836045
-9 1 5 4340.15 4386.76 o 0.835935
-9 1 4 1610.38 1626.03 o 0.835820
-8 6 6 1754.01 1775.90 o 0.835741
5 7 6 33849.43 34403.18 o 0.835679
8 0 2 98282.54 99881.55 o 0.835482
-8 6 2 6480.97 6589.24 o 0.835333
-4 4 13 2686.80 2827.69 o 0.835005
4 4 9 2591.21 2643.97 o 0.833888
-3 11 8 11025.84 11201.21 o 0.832598
-6 4 12 100332.42 103894.10 o 0.832390
3 11 5 2481.06 2544.79 o 0.832107
-5 3 13 6704.08 6981.64 o 0.831450
-9 1 6 689.01 720.81 o 0.831104
6 4 6 77721.86 81492.67 o 0.831033
-9 1 3 1234.68 1280.02 o 0.830766
5 3 8 9126.61 9238.06 o 0.830135
-6 6 11 6456.46 6639.02 o 0.830104
-3 13 2 2104.33 2167.20 o 0.830007
-3 13 1 17668.86 18180.91 o 0.829969
6 6 5 4215.65 4200.22 o 0.828907
0 10 9 75228.93 75269.08 o 0.828795
-8 4 9 5229.16 5186.30 o 0.828424
-4 12 5 13852.74 13823.65 o 0.828287
4 12 1 10324.65 10957.93 o 0.827989
-8 2 10 3506.31 3499.53 o 0.827895
-4 8 11 1355.10 1398.66 o 0.827634
8 4 1 220.36 221.80 o 0.827432
-4 10 9 7597.46 7413.94 o 0.826995
4 8 7 195.78 187.51 o 0.826744
8 2 2 70.24 67.52 o 0.826708
4 10 5 1291.63 1261.17 o 0.826304
-5 11 6 7662.42 7719.69 o 0.825552
-3 13 3 9976.45 10124.21 o 0.825204
5 11 1 4.34 4.44 o 0.825122
3 13 0 2206.75 2250.06 o 0.825094
-6 10 6 19391.40 20161.01 o 0.824210
-3 7 12 3999.80 4071.04 o 0.824125
0 2 13 31.63 31.01 o 0.823807
6 10 0 4693.85 4753.01 o 0.823770
-8 6 7 133036.20 129823.59 o 0.823650
3 7 9 10719.82 10490.49 o 0.823357
-8 6 1 149974.41 147390.58 o 0.823065
-3 5 13 36157.40 35860.38 o 0.822928
-2 12 7 6677.46 6417.57 o 0.822680
2 12 5 4757.02 4642.92 o 0.822388
3 5 10 93724.77 91804.60 o 0.822089
-7 9 4 4183.68 4070.39 o 0.821741
-7 9 3 19718.84 19253.60 o 0.821656
-9 1 7 7289.81 7145.47 o 0.821580
-1 13 5 15270.96 15904.09 o 0.821495
-7 1 12 45164.64 44840.98 o 0.821490
1 13 4 184.75 195.00 o 0.821386
-9 1 2 15502.08 15952.22 o 0.821036
7 1 5 45938.37 48156.51 o 0.820053
-7 7 9 30884.20 29840.04 o 0.818965
-9 3 5 3303.64 3176.00 o 0.818630
-9 3 4 12817.32 12087.46 o 0.818522
7 7 2 20818.91 18859.96 o 0.818043
-7 9 5 13561.31 12989.58 o 0.817128
0 14 0 26421.72 25655.33 o 0.817069
-3 1 14 3529.23 3383.51 o 0.817038
-7 9 2 0.66 0.64 o 0.816877
3 1 11 99.99 100.33 o 0.816146
-3 13 4 8803.75 8949.71 o 0.815808
3 13 1 17384.46 18049.21 o 0.815631
0 6 12 0.18 0.19 o 0.815247
0 14 1 5150.61 5536.52 o 0.814750
-4 0 14 45712.50 47946.57 o 0.814284
-9 3 6 1369.00 1459.26 o 0.814092
-9 3 3 9.67 10.63 o 0.813774
-2 0 14 0.24 0.26 o 0.813253
4 0 10 40523.32 43189.70 o 0.813154
-6 2 13 2225.88 2232.52 o 0.812842
2 0 12 2479.01 2166.16 o 0.812643
-4 12 6 5542.54 4667.01 o 0.811858
4 12 2 4207.01 3440.26 o 0.811484
6 2 7 289.91 258.94 o 0.811439
0 12 7 868.72 760.14 o 0.811411
-1 7 12 46698.03 41022.87 o 0.810927
1 7 11 82288.49 71795.12 o 0.810659
0 8 11 6284.44 5462.01 o 0.810518
-2 10 10 4857.01 4585.47 o 0.809717
2 10 8 16.38 14.70 o 0.809300
-7 5 11 777.09 743.07 o 0.808734
-7 9 6 10968.20 11052.86 o 0.808048
-6 10 7 6393.39 6489.86 o 0.808040
0 14 2 9870.46 10017.23 o 0.807911
-9 1 8 1.71 1.67 o 0.807837
-7 9 1 17026.06 17199.62 o 0.807645
-8 6 8 613.25 606.07 o 0.807536
7 5 4 5523.33 5471.42 o 0.807524
6 10 1 1739.19 1755.42 o 0.807488
-9 1 1 1171.04 1147.30 o 0.807113
-5 11 7 252.72 245.66 o 0.807039
8 6 0 15.52 14.90 o 0.806801
-5 9 10 737.82 670.80 o 0.806771
5 11 2 1769.54 1654.01 o 0.806523
-6 8 10 6093.11 5651.12 o 0.806503
-4 2 14 1508.77 1397.39 o 0.806155
5 9 5 5123.53 4683.29 o 0.805913
6 8 4 183.69 166.39 o 0.805543
-1 5 13 103.13 92.71 o 0.805267
-2 2 14 898.86 816.95 o 0.805155
-9 3 7 11796.42 10596.08 o 0.805135
4 2 10 911.98 826.24 o 0.805058
-7 3 12 41531.06 37152.82 o 0.805050
1 5 12 3755.15 3416.06 o 0.804982
-9 3 2 20431.14 18820.14 o 0.804623
2 2 12 1191.57 1099.17 o 0.804563
-3 9 11 1875.32 1774.04 o 0.804184
7 3 5 69014.68 62919.86 o 0.803698
3 9 8 5655.74 5239.05 o 0.803538
-8 4 10 133416.66 129781.77 o 0.803041
-3 13 5 12635.02 12034.15 o 0.802281
3 13 2 5.23 5.10 o 0.802044
8 4 2 114226.45 107713.08 o 0.801958
-1 11 9 64976.38 63088.38 o 0.800956
-3 3 14 81.26 80.71 o 0.800859
1 11 8 32529.27 30798.18 o 0.800765
-3 11 9 590.30 608.02 o 0.800142
3 3 11 634.76 627.37 o 0.800019
3 11 6 12208.21 12536.72 o 0.799639
0 4 13 40.55 41.17 o 0.799309
-1 13 6 37131.59 38392.11 o 0.798815
1 13 5 13569.82 14067.97 o 0.798693
-2 14 1 99257.78 102809.26 o 0.798572
-5 5 13 2148.17 2175.98 o 0.798390
-8 2 11 5487.29 5681.07 o 0.798182
-5 1 14 60782.57 60429.48 o 0.797323
5 5 8 13132.83 13062.83 o 0.797225
-2 6 13 63622.41 63383.13 o 0.797136
8 2 3 103.20 101.85 o 0.796941
0 14 3 102186.36 101978.24 o 0.796885
2 6 11 38161.43 37548.29 o 0.796606
-2 14 2 9248.96 9169.51 o 0.796428
2 14 0 7136.78 7028.99 o 0.796384
-1 9 11 5266.03 5200.43 o 0.796203
5 1 9 60972.22 60220.63 o 0.796053
1 9 10 18644.50 18368.65 o 0.795972
-1 1 14 15711.66 15230.19 o 0.795392
-5 7 12 766.87 724.75 o 0.795134
1 1 13 8738.06 8226.81 o 0.795095
-7 9 7 5351.20 5020.73 o 0.794940
7 9 0 441.86 397.58 o 0.794403
5 7 7 1072.63 970.82 o 0.794093
-4 6 13 566.35 533.54 o 0.793779
-2 12 8 7225.61 6844.89 o 0.793440
2 12 6 1198.30 1116.56 o 0.793134
-4 10 10 10271.62 9810.04 o 0.793038
4 6 9 5998.52 5870.28 o 0.792819
-2 8 12 729.70 712.66 o 0.792691
4 10 6 16159.35 16008.31 o 0.792342
-7 7 10 1857.85 1848.26 o 0.792274
2 8 10 1135.56 1122.87 o 0.792213
-9 3 8 3948.17 3907.05 o 0.792188
-4 12 7 13316.18 13439.26 o 0.792091
4 12 3 17619.20 18219.75 o 0.791657
-6 6 12 698.90 701.20 o 0.791532
-9 3 1 174.40 174.19 o 0.791505
7 7 3 1726.00 1830.43 o 0.791288
-9 1 9 2.70 2.66 o 0.790510
6 6 6 0.22 0.21 o 0.790365
-2 14 3 1192.09 972.19 o 0.790058
2 14 1 2969.07 2376.38 o 0.789972
9 1 0 2193.39 2092.98 o 0.789638
-6 4 13 0.16 0.15 o 0.789282
-6 10 8 13083.46 13557.49 o 0.788566
-8 6 9 1627.32 1515.16 o 0.788119
6 4 7 3289.60 3065.21 o 0.787996
6 10 2 13323.67 12383.23 o 0.787924
-8 8 4 136915.91 128094.59 o 0.787561
8 6 1 15578.23 14614.59 o 0.787265
-9 5 5 9098.88 8625.23 o 0.787019
-9 5 4 924.33 883.41 o 0.786923
0 10 10 1839.65 1704.51 o 0.786151
-8 8 5 5764.29 6421.36 o 0.785568
-5 11 8 22235.62 24997.00 o 0.785547
-8 8 3 249.88 283.49 o 0.785399
-3 13 6 992.00 1123.45 o 0.785238
-4 8 12 1916.32 2183.85 o 0.785202
5 11 3 41885.88 47060.95 o 0.784966
3 13 3 8211.25 9181.30 o 0.784952
4 8 8 155.54 169.10 o 0.784357
-4 4 14 53748.64 51750.25 o 0.783154
-9 5 6 2.54 2.38 o 0.782984
-9 5 3 4073.84 3799.34 o 0.782701
-5 3 14 55355.44 50566.07 o 0.782265
-2 4 14 7.90 7.31 o 0.782238
0 14 4 186.86 169.04 o 0.782180
4 4 10 40142.28 37136.64 o 0.782149
-7 1 13 2264.42 2051.24 o 0.782015
2 4 12 126.51 115.56 o 0.781695
5 3 9 73414.88 67441.59 o 0.781066
7 1 6 125.26 113.94 o 0.780629
-1 3 14 6234.63 5679.92 o 0.780442
1 3 13 18845.43 16971.55 o 0.780161
-2 14 4 8966.10 8623.42 o 0.779758
2 14 2 13009.31 12735.20 o 0.779634
-8 8 6 1993.87 1860.33 o 0.779515
0 12 8 1745.22 1670.04 o 0.779224
-8 8 2 21307.95 20112.66 o 0.779184
-7 9 8 792.69 681.88 o 0.778392
7 9 1 7937.24 7033.15 o 0.777744
-3 7 13 74298.53 66900.22 o 0.776136
-8 4 11 87.55 77.80 o 0.775839
-9 3 9 254.06 228.01 o 0.775828
-6 0 14 590.65 524.98 o 0.775687
3 7 10 39237.96 35190.03 o 0.775432
-9 5 7 17896.08 16716.82 o 0.775005
9 3 0 2777.11 2571.94 o 0.775004
-6 8 11 9366.03 8546.72 o 0.774935
-7 5 12 55340.04 50830.80 o 0.774930
8 4 3 324.22 304.40 o 0.774699
-8 0 12 10587.97 10011.76 o 0.774571
-9 5 2 19259.02 18251.67 o 0.774548
6 0 8 2151.38 2049.56 o 0.774345
6 8 5 5756.07 5571.69 o 0.773961
-1 13 7 18069.78 17779.30 o 0.773927
1 13 6 4528.21 4564.80 o 0.773795
7 5 5 29075.87 28540.76 o 0.773723
8 0 4 4736.18 4629.15 o 0.773275
-5 9 11 25205.46 25168.54 o 0.773182
0 0 14 1006.44 960.37 o 0.773024
5 9 6 67832.46 62101.43 o 0.772325
-3 5 14 5500.76 5328.03 o 0.771189
3 5 11 32.47 30.61 o 0.770439
-9 1 10 27320.38 25841.45 o 0.770319
-2 10 11 560.88 530.98 o 0.769832
-4 12 8 101076.69 95586.64 o 0.769777
-8 8 7 10870.07 10341.26 o 0.769677
2 10 9 77.89 73.98 o 0.769434
9 1 1 34938.18 33081.23 o 0.769333
4 12 4 85379.37 79663.20 o 0.769299
-8 8 1 10551.68 9958.29 o 0.769199
-6 2 14 122.66 111.45 o 0.768650
-7 3 13 5714.14 5247.84 o 0.767793
-8 2 12 1843.04 1776.96 o 0.767564
6 2 8 3745.15 3614.92 o 0.767345
-3 11 10 24610.83 23443.47 o 0.767321
3 11 7 60603.22 59821.61 o 0.766818
-6 10 9 86549.98 86614.56 o 0.766560
7 3 6 1195.96 1195.82 o 0.766482
8 2 4 4.70 4.67 o 0.766303
-8 6 10 3837.79 3864.93 o 0.766169
0 2 14 3.07 3.09 o 0.766059
-2 14 5 6700.34 7013.62 o 0.765985
6 10 3 95473.08 100395.91 o 0.765853
2 14 3 3100.60 3221.26 o 0.765828
-3 13 7 12804.70 13755.93 o 0.765379
8 6 2 536.19 577.18 o 0.765228
3 13 4 38588.48 41361.71 o 0.765056
0 14 5 2428.00 2667.50 o 0.764418
-7 7 11 4.41 4.76 o 0.764194
-1 11 10 7044.91 7635.70 o 0.764180
1 11 9 5583.20 5895.28 o 0.763995
-9 5 8 56.70 58.85 o 0.763438
-2 12 9 16234.62 16750.81 o 0.763286
-3 9 12 10922.50 11291.29 o 0.763178
7 7 4 3299.10 3385.66 o 0.763173
2 12 7 14882.62 15209.32 o 0.762975
0 6 13 158.11 160.37 o 0.762925
-9 5 1 8430.63 8526.82 o 0.762826
0 8 12 55477.13 56261.17 o 0.762807
3 9 9 3712.45 3745.88 o 0.762567
-3 1 15 9330.23 9445.19 o 0.762522
-5 11 9 2972.85 2993.42 o 0.761882
3 1 12 12937.02 12926.42 o 0.761739
-1 7 13 6754.04 6849.02 o 0.761267
5 11 4 7408.51 6913.07 o 0.761255
1 7 12 262.54 262.03 o 0.761026
-6 12 3 16183.65 16615.04 o 0.759789
-5 13 3 16153.74 16663.37 o 0.759780
-5 13 2 1385.35 1425.44 o 0.759732
-4 10 11 81696.98 85961.71 o 0.759184
-7 9 9 17954.09 18672.35 o 0.759075
4 10 7 49660.17 51063.33 o 0.758497
7 9 2 37012.72 38664.63 o 0.758340
-1 15 1 2130.43 2180.82 o 0.758275
1 15 0 22577.53 23111.58 o 0.758265
-6 12 4 8665.15 9004.00 o 0.757981
-6 12 2 773.32 803.65 o 0.757867
-9 3 10 27534.28 28422.02 o 0.756715
-8 8 8 8983.31 9750.33 o 0.756478
-5 13 4 1009.79 1057.96 o 0.756110
-5 13 1 12852.84 13492.09 o 0.755968
8 8 0 932.01 958.98 o 0.755874
9 3 1 30545.98 30043.62 o 0.755780
-4 2 15 20.71 20.88 o 0.755495
-5 7 13 3861.15 3844.66 o 0.755449
-1 15 2 12259.66 12166.78 o 0.754589
1 15 1 1.80 1.79 o 0.754561
-5 5 14 75132.59 75217.77 o 0.754545
4 2 11 87.98 86.01 o 0.754518
5 7 8 4928.07 4872.45 o 0.754462
-6 6 13 593.27 582.25 o 0.754192
5 5 9 45489.38 43876.41 o 0.753468
-10 0 6 25808.29 24387.17 o 0.753136
6 6 7 9.92 9.26 o 0.753070
-10 0 4 1282.47 1196.27 o 0.752949
-1 5 14 13505.04 12627.00 o 0.752908
-1 9 12 87888.04 80850.70 o 0.752661
1 5 13 9042.68 8399.13 o 0.752656
-6 12 5 4802.14 4395.32 o 0.752520
1 9 11 32644.60 29987.08 o 0.752447
-6 12 1 11828.53 10754.90 o 0.752297
-2 2 15 384.54 360.12 o 0.751011
2 2 13 93.48 87.70 o 0.750493
-5 1 15 427.73 414.35 o 0.750015
-4 14 2 21724.84 21399.87 o 0.749809
-3 3 15 7052.21 6647.65 o 0.749319
-2 14 6 14758.23 14957.25 o 0.749298
2 14 4 19844.30 19910.03 o 0.749115
-5 13 5 26488.56 24900.60 o 0.748880
5 1 10 192.31 178.89 o 0.748866
-4 6 14 2.96 2.75 o 0.748840
-9 5 9 4705.91 4368.00 o 0.748763
5 13 0 13540.17 12564.11 o 0.748651
-6 4 14 895.69 829.55 o 0.748636
3 3 12 8996.11 8447.36 o 0.748576
-10 2 5 138978.11 130163.02 o 0.748382
-7 11 4 17400.06 16113.12 o 0.748144
-7 11 3 954.90 882.55 o 0.748080
-4 14 3 6976.52 6328.10 o 0.748053
-2 6 14 885.83 832.29 o 0.748039
9 5 0 2376.92 2200.22 o 0.748022
-9 1 11 409.73 382.90 o 0.748001
-4 14 1 3594.33 3235.53 o 0.747979
4 6 10 3.45 3.24 o 0.747962
-2 8 13 410.19 381.79 o 0.747909
-1 13 8 5620.12 4962.65 o 0.747635
-8 4 12 2393.19 2185.64 o 0.747633
2 6 12 833.71 774.99 o 0.747564
1 13 7 3293.34 2892.22 o 0.747499
2 8 11 383.53 353.89 o 0.747471
6 4 8 992.50 898.92 o 0.747430
-1 15 3 8043.49 7457.20 o 0.747366
1 15 2 13044.21 12438.36 o 0.747321
0 12 9 2735.08 2635.29 o 0.747002
9 1 2 338.31 322.38 o 0.746934
-10 2 6 13.55 12.48 o 0.746690
-10 2 4 11.05 10.60 o 0.746508
8 4 4 12777.83 13308.58 o 0.746467
0 4 14 411.50 411.54 o 0.746242
0 10 11 140.10 143.92 o 0.745908
-9 7 5 8451.13 8703.65 o 0.745794
-9 7 4 10655.46 11085.45 o 0.745713
-4 12 9 479.62 473.85 o 0.745683
4 12 5 642.03 635.01 o 0.745176
-4 8 13 6618.03 6451.31 o 0.745134
-7 11 5 35.51 35.32 o 0.744658
-7 11 2 13127.77 12676.69 o 0.744468
4 8 9 4576.63 4396.81 o 0.744340
0 14 6 6928.09 6734.39 o 0.744268
-7 1 14 1671.69 1650.64 o 0.744188
-6 12 6 97132.84 93594.73 o 0.743640
-3 13 8 5862.31 5692.24 o 0.743422
6 12 0 104620.30 102401.18 o 0.743317
-6 8 12 69950.66 69048.20 o 0.743274
3 13 5 15921.87 15716.87 o 0.743073
7 1 7 7609.20 7566.97 o 0.742869
-4 14 4 9128.35 9015.06 o 0.742784
-6 10 10 10.80 10.64 o 0.742776
4 14 0 13202.39 13200.61 o 0.742641
-8 6 11 5467.71 5401.52 o 0.742437
-9 7 6 3209.76 3143.16 o 0.742358
6 8 6 54890.28 53574.48 o 0.742308
-9 7 3 224.39 220.96 o 0.742117
6 10 4 656.17 683.80 o 0.742025
-7 5 13 195.96 198.48 o 0.741532
-10 2 7 1880.52 1890.62 o 0.741504
8 6 3 168.46 167.90 o 0.741438
-1 1 15 66172.16 65887.27 o 0.741315
-10 2 3 20394.43 19665.42 o 0.741148
1 1 14 75822.16 74322.04 o 0.741057
-8 8 9 3453.23 3210.95 o 0.740446
7 5 6 2986.52 2794.00 o 0.740350
-5 9 12 9256.46 8436.40 o 0.739982
8 8 1 13135.16 11944.92 o 0.739738
5 9 7 1762.61 1667.47 o 0.739143
-10 0 8 154268.89 141724.75 o 0.739133
-10 0 2 133962.23 126974.16 o 0.738605
-5 13 6 107.19 100.37 o 0.738393
5 13 1 20050.66 18769.86 o 0.738086
-7 11 6 21656.41 21137.01 o 0.737767
-7 9 10 2600.82 2498.03 o 0.737676
-7 11 1 15065.84 14374.83 o 0.737460
-5 3 15 2681.31 2533.90 o 0.737441
-1 15 4 16383.80 15840.65 o 0.736907
7 9 3 14269.82 13800.88 o 0.736879
1 15 3 1.07 1.05 o 0.736846
-5 11 10 4883.72 4788.35 o 0.736794
-8 2 13 94175.95 93099.38 o 0.736781
-4 4 15 1600.19 1585.02 o 0.736466
5 3 10 355.22 346.61 o 0.736349
5 11 5 6255.00 6258.08 o 0.736140
4 4 11 84.96 85.60 o 0.735561
-9 7 7 11556.38 11489.58 o 0.735547
8 2 5 55619.92 55620.75 o 0.735526
-9 3 11 2223.08 2195.74 o 0.735527
-7 7 12 33396.43 33625.79 o 0.735483
-9 7 2 13987.42 14369.48 o 0.735157
-3 11 11 6958.19 7000.30 o 0.734822
9 3 2 484.33 486.13 o 0.734512
7 7 5 60002.06 60386.57 o 0.734451
3 11 8 8939.06 9009.71 o 0.734329
-4 14 5 92119.68 95144.89 o 0.734223
4 14 1 75829.16 78199.86 o 0.734016
-10 2 8 203.81 205.90 o 0.733038
-2 12 10 60785.41 61086.61 o 0.732943
2 12 8 59792.19 60793.76 o 0.732633
-10 2 2 656.32 669.18 o 0.732522
-2 4 15 1374.90 1418.45 o 0.732310
-3 7 14 150.07 153.24 o 0.732282
-2 10 12 6912.79 7115.55 o 0.731944
-7 3 14 560.99 572.76 o 0.731901
2 4 13 524.16 532.55 o 0.731830
-6 12 7 3112.19 3167.26 o 0.731699
3 7 11 3169.58 3228.69 o 0.731640
2 10 10 3639.37 3666.63 o 0.731567
-9 5 10 16109.77 16126.59 o 0.731538
6 12 1 607.69 659.09 o 0.731288
9 5 1 24024.79 24034.29 o 0.730693
7 3 7 12042.11 12000.09 o 0.730645
-2 14 7 63654.20 62682.37 o 0.730309
2 14 5 75147.93 73311.05 o 0.730105
-10 4 5 4255.60 4126.92 o 0.729872
-3 15 2 17936.58 16902.89 o 0.729415
-3 15 1 3173.87 2961.84 o 0.729389
-1 3 15 62754.40 59984.48 o 0.729167
1 3 14 56546.56 53654.61 o 0.728921
-1 11 11 12294.91 11210.49 o 0.728718
1 11 10 2278.35 2133.17 o 0.728541
-10 4 6 17513.85 16485.56 o 0.728303
-10 4 4 300.58 282.99 o 0.728134
-8 10 4 9307.86 8937.37 o 0.727899
-7 11 7 61.44 59.04 o 0.727750
-6 2 15 38308.86 36307.82 o 0.727650
7 11 0 20161.79 19592.59 o 0.727338
6 2 9 34659.56 34883.51 o 0.726441
-8 10 5 14153.83 14147.64 o 0.726325
-8 10 3 739.51 743.54 o 0.726191
-3 15 3 1429.29 1445.92 o 0.726149
3 15 0 9175.45 9182.32 o 0.726074
-4 10 12 520.80 524.74 o 0.726035
-9 7 8 4004.92 4025.64 o 0.725636
