#------------------------------------------------------------------------------
#$Date: 2016-02-14 06:40:26 +0200 (Sun, 14 Feb 2016) $
#$Revision: 176432 $
#$URL: svn://www.crystallography.net/cod/cif/4/00/20/4002088.cif $
#------------------------------------------------------------------------------
#
# This file is available in the Crystallography Open Database (COD),
# http://www.crystallography.net/
#
# All data on this site have been placed in the public domain by the
# contributors.
#
data_4002088
loop_
_publ_author_name
'Morozov, Vladimir A.'
'Raskina, Maria V.'
'Lazoryak, Bogdan I.'
'Meert, Katrien W.'
'Korthout, Katleen'
'Smet, Philippe F.'
'Poelman, Dirk'
'Gauquelin, Nicolas'
'Verbeeck, Johan'
'Abakumov, Artem M.'
'Hadermann, Joke'
_publ_section_title
;
 Crystal Structure and Luminescent Properties of R2--xEux(MoO4)3(R = Gd,
 Sm) Red Phosphors
;
_journal_issue                   24
_journal_name_full               'Chemistry of Materials'
_journal_page_first              7124
_journal_paper_doi               10.1021/cm503720s
_journal_volume                  26
_journal_year                    2014
_chemical_formula_analytical     'b'-Eu2 Mo3 O12'
_chemical_formula_iupac          'Eu2 Mo3 O12'
_chemical_formula_moiety         '(Eu3+)2, (MoO4 2-)3'
_chemical_formula_structural     'b'-Eu2 Mo3 O12'
_chemical_formula_sum            'Eu2 Mo3 O12'
_chemical_formula_weight         783.7
_chemical_name_common            'b'-Eu2 Mo3 O12'
_chemical_name_systematic        ' ?'
_space_group_IT_number           32
_symmetry_cell_setting           orthorhombic
_symmetry_Int_Tables_number      32
_symmetry_space_group_name_Hall  'P 2 -2ab'
_symmetry_space_group_name_H-M   'P b a 2'
_cell_angle_alpha                90
_cell_angle_beta                 90
_cell_angle_gamma                90
_cell_formula_units_Z            4
_cell_length_a                   10.41525(1)
_cell_length_b                   10.44871(1)
_cell_length_c                   10.73114(1)
_cell_measurement_temperature    300
_cell_volume                     1167.8263(19)
_diffrn_ambient_temperature      300
_diffrn_measurement_device       'ID31 beamline'
_diffrn_measurement_device_type  Synchrotron
_diffrn_radiation_probe          x-ray
_diffrn_radiation_type           'Synchrotron X-ray'
_diffrn_radiation_wavelength     0.39996
_diffrn_source                   'ID31 beamline'
_diffrn_source_type              X-ray
_exptl_absorpt_coefficient_mu    6.556
_exptl_crystal_density_diffrn    4.4561
_exptl_crystal_F_000             1392
_pd_calc_method                  'Rietveld Refinement'
_pd_char_colour                  White
_pd_instr_location               ' ?'
_pd_meas_2theta_range_inc        0.002
_pd_meas_2theta_range_max        40.000
_pd_meas_2theta_range_min        1.002
_pd_meas_number_of_points        19500
_pd_proc_2theta_range_inc        0.002
_pd_proc_2theta_range_max        33.726
_pd_proc_2theta_range_min        1.796
_pd_proc_ls_background_function  '18 Legendre polynoms'
_pd_proc_ls_pref_orient_corr     none
_pd_proc_ls_profile_function     Pseudo-Voigt
_pd_proc_ls_prof_R_factor        0.0713
_pd_proc_ls_prof_wR_expected     0.0661
_pd_proc_ls_prof_wR_factor       0.1022
_refine_diff_density_max         1.68
_refine_diff_density_min         -1.89
_refine_ls_goodness_of_fit_all   1.55
_refine_ls_number_constraints    2
_refine_ls_number_parameters     78
_refine_ls_number_restraints     0
_refine_ls_R_factor_all          0.0343
_refine_ls_R_factor_gt           0.0320
_refine_ls_shift/su_max          0.0463
_refine_ls_shift/su_mean         0.0013
_refine_ls_weighting_scheme      sigma
_refine_ls_wR_factor_all         0.0357
_refine_ls_wR_factor_gt          0.0350
_cod_data_source_file            cm503720s_si_003.cif
_cod_data_source_block           I
_cod_depositor_comments
;
The following automatic conversions were performed:

'_diffrn_radiation_probe' value 'X-ray' changed to 'x-ray' according
to
/home/saulius/struct/COD-crude-data--automatic-downloads/rss-feeds/ACS/lib/dictionaries/cif_core.dic
dictionary named 'cif_core.dic' version 2.4.2 from 2011-04-26.

Automatic conversion script
Id: cif_fix_values 2935 2014-11-11 08:27:57Z andrius 

 Adding full bibliography for 4002087--4002088.cif.
;
_cod_original_cell_volume        1167.827(2)
_cod_original_sg_symbol_Hall     'P -2xab;-2yab;2z'
_cod_database_code               4002088
loop_
_symmetry_equiv_pos_site_id
_symmetry_equiv_pos_as_xyz
1 x,y,z
2 -x,-y,z
3 x+1/2,-y+1/2,z
4 -x+1/2,y+1/2,z
loop_
_atom_site_label
_atom_site_type_symbol
_atom_site_fract_x
_atom_site_fract_y
_atom_site_fract_z
_atom_site_adp_type
_atom_site_U_iso_or_equiv
_atom_site_symmetry_multiplicity
_atom_site_occupancy
_atom_site_calc_flag
Eu1 Eu 0.18859(9) 0.49533(18) 0.73743(8) Uiso 0.0062(3) 4 1 d
Eu2 Eu 0.49316(16) 0.31168(9) 0.26321(8) Uiso 0.0071(3) 4 1 d
Mo1 Mo 0.20619(16) 0.4890(3) 0.35796(18) Uiso 0.0073(5) 4 1 d
Mo2 Mo 0.0030(3) 0.20729(16) 0.64220(17) Uiso 0.0051(4) 4 1 d
Mo3 Mo 0.2412(2) 0.2420(3) 0.000001 Uiso 0.0061(4) 4 1 d
O1 O 0.1973(12) 0.4844(15) 0.5237(17) Uiso 0.015(2) 4 1 d
O2 O 0.1580(14) 0.3380(15) 0.2990(16) Uiso 0.015(2) 4 1 d
O3 O 0.1286(12) 0.005(2) 0.3125(12) Uiso 0.015(2) 4 1 d
O4 O 0.3850(14) 0.1104(14) 0.2943(17) Uiso 0.015(2) 4 1 d
O5 O 0.1551(15) 0.1507(14) 0.6755(14) Uiso 0.008(2) 4 1 d
O6 O 0.4819(14) 0.3020(11) 0.4841(16) Uiso 0.008(2) 4 1 d
O7 O 0.3829(14) 0.3806(13) 0.7207(15) Uiso 0.008(2) 4 1 d
O8 O 0.495(2) 0.1297(12) 0.6900(11) Uiso 0.008(2) 4 1 d
O9 O 0.1172(15) 0.1796(16) 0.0943(15) Uiso 0.0149(18) 4 1 d
O10 O 0.3175(16) 0.1187(16) 0.9123(16) Uiso 0.0149(18) 4 1 d
O11 O 0.3507(15) 0.3244(16) 0.0977(15) Uiso 0.0149(18) 4 1 d
O12 O 0.1752(16) 0.3512(16) 0.8974(16) Uiso 0.0149(18) 4 1 d
loop_
_atom_type_symbol
_atom_type_scat_dispersion_real
_atom_type_scat_dispersion_imag
_atom_type_scat_source
Eu -0.8763 1.3592 'International Tables Vol C tables 4.2.6.8 and 6.1.1.1'
Mo 0.0717 1.7724 'International Tables Vol C tables 4.2.6.8 and 6.1.1.1'
O 0.0016 0.0017 'International Tables Vol C tables 4.2.6.8 and 6.1.1.1'
loop_
_geom_angle_atom_site_label_1
_geom_angle_atom_site_label_2
_geom_angle_atom_site_label_3
_geom_angle_site_symmetry_1
_geom_angle_site_symmetry_3
_geom_angle
O1 Mo1 O2 . . 108.5(7)
O1 Mo1 O2 . 4_555 101.7(6)
O1 Mo1 O3 . 4_555 108.8(6)
O1 Mo1 O4 . 3_455 97.7(5)
O1 Mo1 O4 . 4_555 112.7(8)
O1 Mo1 O6 . . 70.3(5)
O1 Mo1 O9 . 4_555 139.4(5)
O1 Mo1 O11 . . 141.4(5)
O2 Mo1 O2 . 4_555 149.7(6)
O2 Mo1 O3 . 4_555 104.8(8)
O2 Mo1 O4 . 3_455 53.6(5)
O2 Mo1 O4 . 4_555 110.9(7)
O2 Mo1 O6 . . 83.2(5)
O2 Mo1 O9 . 4_555 109.1(6)
O2 Mo1 O11 . . 54.4(6)
O2 Mo1 O3 4_555 4_555 62.1(7)
O2 Mo1 O4 4_555 3_455 124.9(3)
O2 Mo1 O4 4_555 4_555 57.1(5)
O2 Mo1 O6 4_555 . 105.4(3)
O2 Mo1 O9 4_555 4_555 41.4(3)
O2 Mo1 O11 4_555 . 99.6(4)
O3 Mo1 O4 4_555 3_455 150.8(6)
O3 Mo1 O4 4_555 4_555 110.7(8)
O3 Mo1 O6 4_555 . 53.7(6)
O3 Mo1 O9 4_555 4_555 46.2(6)
O3 Mo1 O11 4_555 . 55.5(6)
O4 Mo1 O4 3_455 4_555 67.8(6)
O4 Mo1 O6 3_455 . 129.7(3)
O4 Mo1 O9 3_455 4_555 116.7(4)
O4 Mo1 O11 3_455 . 96.0(4)
O4 Mo1 O6 4_555 . 162.4(5)
O4 Mo1 O9 4_555 4_555 66.4(6)
O4 Mo1 O11 4_555 . 105.9(6)
O5 Mo2 O5 . 3_455 162.8(5)
O5 Mo2 O6 . 3_455 107.6(7)
O5 Mo2 O7 . 3_455 111.9(7)
O5 Mo2 O7 . 4_545 49.1(5)
O5 Mo2 O8 . 3_455 108.0(9)
O5 Mo2 O10 . 3_455 117.2(6)
O5 Mo2 O12 . . 61.9(6)
O5 Mo2 O6 3_455 3_455 89.6(5)
O5 Mo2 O7 3_455 3_455 60.0(5)
O5 Mo2 O7 3_455 4_545 128.4(3)
O5 Mo2 O8 3_455 3_455 64.7(8)
O5 Mo2 O10 3_455 3_455 46.0(3)
O5 Mo2 O12 3_455 . 103.4(3)
O6 Mo2 O7 3_455 3_455 110.6(7)
O6 Mo2 O7 3_455 4_545 102.3(5)
O6 Mo2 O8 3_455 3_455 109.5(6)
O6 Mo2 O10 3_455 3_455 133.9(5)
O6 Mo2 O12 3_455 . 147.2(5)
O7 Mo2 O7 3_455 4_545 68.9(5)
O7 Mo2 O8 3_455 3_455 109.2(8)
O7 Mo2 O10 3_455 3_455 62.6(5)
O7 Mo2 O12 3_455 . 102.0(6)
O7 Mo2 O8 4_545 3_455 146.0(6)
O7 Mo2 O10 4_545 3_455 114.6(4)
O7 Mo2 O12 4_545 . 93.0(4)
O8 Mo2 O10 3_455 3_455 47.4(6)
O8 Mo2 O12 3_455 . 53.4(6)
O10 Mo2 O12 3_455 . 59.4(4)
O9 Mo3 O10 . 1_554 111.2(8)
O9 Mo3 O11 . . 108.1(7)
O9 Mo3 O12 . 1_554 108.6(8)
O10 Mo3 O11 1_554 . 112.1(8)
O10 Mo3 O12 1_554 1_554 108.5(8)
O11 Mo3 O12 . 1_554 108.2(8)
loop_
_geom_bond_atom_site_label_1
_geom_bond_atom_site_label_2
_geom_bond_site_symmetry_2
_geom_bond_distance
Eu1 Eu1 2_565 3.9296(14)
Eu1 O1 . 2.299(19)
Eu1 O5 4_555 2.393(15)
Eu1 O7 . 2.359(14)
Eu1 O8 3_455 2.45(2)
Eu1 O8 4_555 2.43(2)
Eu1 O10 4_555 2.277(17)
Eu1 O12 . 2.288(17)
Eu2 Eu2 2_665 3.9380(14)
Eu2 O2 3_555 2.355(15)
Eu2 O3 3_555 2.440(18)
Eu2 O3 4_555 2.440(19)
Eu2 O4 . 2.409(15)
Eu2 O6 . 2.376(18)
Eu2 O9 3_555 2.227(16)
Eu2 O11 . 2.318(16)
Mo1 O1 . 1.781(19)
Mo1 O2 . 1.772(16)
Mo1 O3 4_555 1.796(13)
Mo1 O4 4_555 1.726(16)
Mo2 O5 . 1.728(16)
Mo2 O6 3_455 1.713(18)
Mo2 O7 3_455 1.766(15)
Mo2 O8 3_455 1.780(13)
Mo3 O9 . 1.766(16)
Mo3 O10 1_554 1.783(17)
Mo3 O11 . 1.773(16)
Mo3 O12 1_554 1.728(17)
loop_
_pd_proc_point_id
_pd_proc_2theta_corrected
_pd_proc_intensity_net
_pd_calc_intensity_net
_pd_proc_ls_weight
1 1.7890 163.07 179.63 16.25
2 1.7910 161.72 179.32 15.77
3 1.7930 194.76 179.02 17.20
4 1.7950 198.67 178.71 17.24
5 1.7970 158.68 178.41 15.75
6 1.7990 183.93 178.10 17.06
7 1.8010 145.82 177.80 14.92
8 1.8030 199.31 177.50 17.60
9 1.8050 172.77 177.20 16.05
10 1.8070 177.96 176.90 16.48
11 1.8090 181.86 176.61 17.15
12 1.8110 164.68 176.31 16.04
13 1.8130 149.82 176.02 14.95
14 1.8150 178.72 175.72 16.36
15 1.8170 168.18 175.43 16.13
16 1.8190 136.01 175.14 14.68
17 1.8210 197.58 174.85 17.45
18 1.8230 156.56 174.57 15.60
19 1.8250 180.34 174.28 16.41
20 1.8270 208.81 174.00 17.94
21 1.8290 175.89 173.71 16.78
22 1.8310 183.22 173.43 16.78
23 1.8330 168.29 173.15 16.16
24 1.8350 162.00 172.87 15.52
25 1.8370 178.09 172.59 16.61
26 1.8390 178.60 172.32 16.97
27 1.8410 192.04 172.04 17.27
28 1.8430 158.37 171.77 15.57
29 1.8450 185.98 171.49 16.66
30 1.8470 145.01 171.22 14.98
31 1.8490 178.38 170.95 16.87
32 1.8510 179.27 170.68 16.66
33 1.8530 164.81 170.42 16.01
34 1.8550 165.75 170.15 15.74
35 1.8570 133.79 169.88 14.36
36 1.8590 132.73 169.62 14.61
37 1.8610 196.13 169.36 17.43
38 1.8630 134.10 169.10 14.36
39 1.8650 140.19 168.84 14.55
40 1.8670 150.41 168.58 15.27
41 1.8690 165.23 168.32 16.16
42 1.8710 156.19 168.06 15.56
43 1.8730 162.34 167.80 15.80
44 1.8750 160.16 167.55 15.47
45 1.8770 175.77 167.30 16.41
46 1.8790 160.51 167.04 16.00
47 1.8810 171.93 166.79 16.29
48 1.8830 138.47 166.54 14.52
49 1.8850 156.90 166.29 15.30
50 1.8870 150.26 166.05 15.17
51 1.8890 163.85 165.80 16.17
52 1.8910 165.83 165.56 16.12
53 1.8930 171.08 165.31 16.18
54 1.8950 180.87 165.07 16.48
55 1.8970 146.27 164.83 15.00
56 1.8990 172.28 164.59 16.57
57 1.9010 141.78 164.35 14.86
58 1.9030 156.12 164.11 15.41
59 1.9050 154.47 163.87 15.20
60 1.9070 166.82 163.63 15.91
61 1.9090 173.93 163.40 16.64
62 1.9110 165.98 163.16 10.51
63 1.9130 163.06 162.93 12.46
64 1.9150 168.37 162.70 13.14
65 1.9170 183.79 162.47 14.28
66 1.9190 152.25 162.24 13.52
67 1.9210 171.89 162.01 14.36
68 1.9230 169.47 161.78 14.33
69 1.9250 172.58 161.56 14.25
70 1.9270 157.37 161.33 13.93
71 1.9290 140.95 161.11 13.61
72 1.9310 156.55 160.88 14.19
73 1.9330 154.07 160.66 13.94
74 1.9350 171.69 160.44 14.65
75 1.9370 165.70 160.22 14.61
76 1.9390 173.22 160.00 15.29
77 1.9410 130.01 159.78 13.13
78 1.9430 142.75 159.56 13.63
79 1.9450 158.43 159.35 14.24
80 1.9470 162.31 159.13 14.62
81 1.9490 165.78 158.92 15.14
82 1.9510 165.00 158.70 14.97
83 1.9530 170.64 158.49 15.04
84 1.9550 149.20 158.28 13.86
85 1.9570 145.56 158.07 13.91
86 1.9590 162.27 157.86 15.07
87 1.9610 154.11 157.65 14.38
88 1.9630 126.40 157.44 12.95
89 1.9650 143.31 157.24 13.60
90 1.9670 161.45 157.03 14.66
91 1.9690 155.60 156.82 14.61
92 1.9710 157.69 156.62 14.61
93 1.9730 156.21 156.42 14.35
94 1.9750 168.99 156.22 14.80
95 1.9770 154.34 156.01 14.35
96 1.9790 165.71 155.82 15.15
97 1.9810 163.12 155.62 14.88
98 1.9830 167.30 155.42 14.91
99 1.9850 155.56 155.22 14.20
100 1.9870 149.10 155.02 14.16
101 1.9890 167.54 154.83 15.35
102 1.9910 155.92 154.63 14.55
103 1.9930 156.81 154.44 14.43
104 1.9950 137.45 154.25 13.37
105 1.9970 142.71 154.05 13.80
106 1.9990 168.43 153.86 15.30
107 2.0010 180.69 153.67 15.65
108 2.0030 137.55 153.48 13.55
109 2.0050 133.27 153.30 13.08
110 2.0070 149.66 153.11 14.15
111 2.0090 179.64 152.92 15.87
112 2.0110 148.24 152.74 14.11
113 2.0130 139.55 152.55 13.59
114 2.0150 172.24 152.37 14.94
115 2.0170 152.40 152.18 14.31
116 2.0190 169.88 152.00 15.32
117 2.0210 164.88 151.82 14.93
118 2.0230 169.83 151.64 15.12
119 2.0250 149.82 151.46 13.95
120 2.0270 160.77 151.28 14.62
121 2.0290 148.64 151.10 14.45
122 2.0310 183.35 150.92 15.72
123 2.0330 156.09 150.74 14.34
124 2.0350 174.39 150.57 15.00
125 2.0370 156.04 150.39 14.51
126 2.0390 183.82 150.22 15.98
127 2.0410 151.87 150.05 14.21
128 2.0430 153.94 149.87 14.31
129 2.0450 143.99 149.70 13.66
130 2.0470 166.76 149.53 14.84
131 2.0490 157.99 149.36 14.82
132 2.0510 180.43 149.19 15.64
133 2.0530 134.31 149.02 13.29
134 2.0550 159.64 148.85 14.33
135 2.0570 158.29 148.68 14.56
136 2.0590 154.68 148.52 14.74
137 2.0610 147.67 148.35 14.04
138 2.0630 140.17 148.19 13.70
139 2.0650 139.28 148.02 13.51
140 2.0670 169.50 147.86 15.00
141 2.0690 152.84 147.70 14.51
142 2.0710 155.74 147.53 14.51
143 2.0730 153.14 147.37 14.28
144 2.0750 144.00 147.21 13.59
145 2.0770 158.96 147.05 14.51
146 2.0790 144.49 146.89 14.18
147 2.0810 149.21 146.73 14.16
148 2.0830 155.52 146.57 14.28
149 2.0850 164.15 146.42 14.63
150 2.0870 180.33 146.26 15.41
151 2.0890 149.85 146.10 14.37
152 2.0910 148.04 151.39 14.07
153 2.0930 176.63 151.81 15.28
154 2.0950 129.70 152.33 12.96
155 2.0970 157.87 152.97 14.37
156 2.0990 143.39 153.77 14.11
157 2.1010 137.68 154.76 13.64
158 2.1030 148.28 156.01 14.03
159 2.1050 135.19 157.61 13.20
160 2.1070 144.87 159.68 13.86
161 2.1090 175.35 162.41 15.50
162 2.1110 170.32 166.13 15.11
163 2.1130 176.42 171.42 15.24
164 2.1150 191.45 179.41 15.73
165 2.1170 204.98 193.12 16.44
166 2.1190 208.80 229.60 16.91
167 2.1210 332.33 319.45 21.11
168 2.1230 512.12 480.86 26.00
169 2.1250 691.90 674.98 29.86
170 2.1270 1002.15 926.90 36.63
171 2.1290 1397.84 1298.08 44.30
172 2.1310 2205.28 1894.92 55.26
173 2.1330 3105.04 3014.13 65.40
174 2.1350 3915.47 4192.43 72.74
175 2.1370 1553.52 1590.14 46.02
176 2.1390 443.75 506.32 24.59
177 2.1410 251.06 317.33 18.36
178 2.1430 206.67 247.01 16.47
179 2.1450 161.38 212.10 14.50
180 2.1470 188.30 192.13 15.77
181 2.1490 164.89 179.60 15.15
182 2.1510 160.85 171.19 14.67
183 2.1530 139.59 165.24 13.55
184 2.1550 161.97 160.86 14.48
185 2.1570 137.87 157.53 13.62
186 2.1590 153.27 154.93 14.54
187 2.1610 151.86 152.86 14.18
188 2.1630 152.65 151.16 14.27
189 2.1650 154.59 149.76 14.15
190 2.1670 171.35 148.58 15.18
191 2.1690 138.93 147.57 13.81
192 2.1710 142.03 146.70 13.90
193 2.1730 155.38 145.94 14.28
194 2.1750 164.98 145.27 14.65
195 2.1770 151.96 144.67 14.34
196 2.1790 129.47 144.13 13.41
197 2.1810 155.54 139.63 14.47
198 2.1830 137.91 139.51 13.54
199 2.1850 154.40 139.38 14.15
200 2.1870 137.98 139.25 13.61
201 2.1890 136.55 139.13 13.72
202 2.1910 137.50 139.00 13.59
203 2.1930 133.91 138.88 13.31
204 2.1950 157.09 138.76 14.29
205 2.1970 161.49 138.63 14.77
206 2.1990 125.17 138.51 13.16
207 2.2010 135.98 138.39 13.52
208 2.2030 155.39 138.27 14.29
209 2.2050 153.87 138.14 14.14
210 2.2070 140.40 138.02 13.81
211 2.2090 151.63 137.90 14.47
212 2.2110 137.70 137.78 13.58
213 2.2130 140.78 137.66 13.68
214 2.2150 141.34 137.55 13.47
215 2.2170 126.34 137.43 13.04
216 2.2190 165.61 137.31 15.23
217 2.2210 169.85 137.19 15.06
218 2.2230 132.08 137.08 13.18
219 2.2250 135.36 136.96 13.18
220 2.2270 126.73 136.85 13.08
221 2.2290 142.06 136.73 14.02
222 2.2310 144.71 136.62 13.99
223 2.2330 173.93 136.50 15.08
224 2.2350 156.76 136.39 14.24
225 2.2370 134.61 136.27 13.48
226 2.2390 139.01 136.16 13.85
227 2.2410 149.27 136.05 14.16
228 2.2430 133.30 135.94 13.33
229 2.2450 142.25 135.82 13.57
230 2.2470 132.79 135.71 13.37
231 2.2490 131.58 135.60 13.54
232 2.2510 148.67 135.49 14.07
233 2.2530 133.38 135.38 13.25
234 2.2550 132.78 135.27 13.14
235 2.2570 129.27 135.17 13.20
236 2.2590 140.63 135.06 13.96
237 2.2610 160.14 134.95 14.67
238 2.2630 149.02 134.84 14.14
239 2.2650 164.38 134.74 14.62
240 2.2670 175.46 134.63 15.29
241 2.2690 128.76 134.52 13.40
242 2.2710 136.03 134.42 13.62
243 2.2730 145.54 134.31 13.81
244 2.2750 137.12 134.21 13.36
245 2.2770 161.33 134.10 14.70
246 2.2790 137.59 134.00 13.81
247 2.2810 170.57 133.89 15.06
248 2.2830 136.39 133.79 13.48
249 2.2850 146.88 133.69 13.82
250 2.2870 142.54 133.59 13.80
251 2.2890 139.65 133.48 13.89
252 2.2910 140.79 133.38 13.75
253 2.2930 129.43 133.28 13.11
254 2.2950 128.30 133.18 12.89
255 2.2970 146.22 133.08 14.06
256 2.2990 156.18 132.98 14.66
257 2.3010 113.82 132.88 12.34
258 2.3030 154.72 132.78 14.33
259 2.3050 132.92 132.68 13.18
260 2.3070 152.01 132.58 14.19
261 2.3090 148.53 132.48 14.26
262 2.3110 142.17 132.38 13.87
263 2.3130 134.85 132.29 13.30
264 2.3150 149.25 132.19 13.91
265 2.3170 114.29 132.09 12.35
266 2.3190 130.70 132.00 13.44
267 2.3210 140.59 131.90 13.72
268 2.3230 119.92 131.81 12.56
269 2.3250 135.17 131.71 13.29
270 2.3270 112.38 131.62 12.25
271 2.3290 135.30 131.52 13.61
272 2.3310 127.99 131.43 13.13
273 2.3330 124.21 131.33 12.75
274 2.3350 124.46 131.24 12.78
275 2.3370 133.66 131.15 13.33
276 2.3390 131.02 131.05 13.35
277 2.3410 147.88 130.96 14.13
278 2.3430 131.07 130.87 13.16
279 2.3450 126.94 130.78 12.77
280 2.3470 154.40 130.68 14.40
281 2.3490 143.32 130.59 14.08
282 2.3510 131.21 130.50 13.20
283 2.3530 142.15 130.41 13.69
284 2.3550 148.78 130.32 13.88
285 2.3570 131.32 130.23 13.27
286 2.3590 135.57 130.14 13.58
287 2.3610 147.05 130.05 14.13
288 2.3630 143.74 129.96 13.70
289 2.3650 163.44 129.88 14.54
290 2.3670 151.16 129.79 14.14
291 2.3690 166.63 129.70 15.19
292 2.3710 145.89 129.61 13.91
293 2.3730 126.87 129.53 12.89
294 2.3750 128.29 129.44 12.91
295 2.3770 132.80 129.35 13.29
296 2.3790 140.78 129.27 13.86
297 2.3810 120.88 129.18 12.69
298 2.3830 129.85 129.09 13.07
299 2.3850 136.43 129.01 13.28
300 2.3870 110.12 128.92 12.08
301 2.3890 129.39 128.84 13.33
302 2.3910 147.74 128.75 14.08
303 2.3930 118.66 128.67 12.36
304 2.3950 129.33 128.59 13.02
305 2.3970 135.55 128.50 13.47
306 2.3990 123.13 128.42 12.97
307 2.4010 116.68 128.34 12.45
308 2.4030 144.13 128.25 13.73
309 2.4050 129.74 128.17 13.00
310 2.4070 136.02 128.09 13.45
311 2.4090 118.21 128.01 12.76
312 2.4110 139.99 127.92 13.66
313 2.4130 150.81 127.84 14.01
314 2.4150 138.35 127.76 13.43
315 2.4170 125.85 127.68 12.96
316 2.4190 146.81 127.60 14.19
317 2.4210 135.43 127.52 13.43
318 2.4230 135.75 127.44 13.28
319 2.4250 118.63 127.36 12.43
320 2.4270 129.98 127.28 13.19
321 2.4290 135.41 127.20 13.61
322 2.4310 124.76 127.12 12.84
323 2.4330 141.66 127.04 13.56
324 2.4350 130.54 126.96 13.07
325 2.4370 119.43 126.88 12.57
326 2.4390 112.82 126.81 12.40
327 2.4410 128.12 126.73 13.01
328 2.4430 121.36 126.65 12.59
329 2.4450 135.72 126.57 13.27
330 2.4470 109.18 126.50 12.16
331 2.4490 133.59 126.42 13.49
332 2.4510 122.06 126.34 12.67
333 2.4530 141.20 126.27 13.50
334 2.4550 141.79 126.19 13.65
335 2.4570 140.01 126.11 13.72
336 2.4590 115.66 126.04 12.51
337 2.4610 129.90 125.96 13.14
338 2.4630 124.13 125.89 12.67
339 2.4650 121.02 125.81 12.58
340 2.4670 137.29 125.74 13.59
341 2.4690 112.82 125.66 12.46
342 2.4710 122.71 125.59 12.71
343 2.4730 146.82 125.51 13.81
344 2.4750 129.49 125.44 13.02
345 2.4770 127.46 125.37 13.12
346 2.4790 123.48 125.29 12.96
347 2.4810 136.92 125.22 13.51
348 2.4830 116.42 125.15 12.35
349 2.4850 116.70 125.07 12.36
350 2.4870 117.85 125.00 12.72
351 2.4890 116.80 124.93 12.61
352 2.4910 112.07 124.86 12.18
353 2.4930 128.54 124.79 12.91
354 2.4950 130.55 124.71 13.10
355 2.4970 104.66 124.64 12.00
356 2.4990 106.17 124.57 12.12
357 2.5010 129.70 124.50 13.12
358 2.5030 126.78 124.43 12.91
359 2.5050 135.17 124.36 13.32
360 2.5070 114.61 124.29 12.62
361 2.5090 114.89 124.22 12.54
362 2.5110 134.23 124.15 13.32
363 2.5130 111.73 124.08 12.02
364 2.5150 129.96 124.01 13.17
365 2.5170 125.97 123.94 13.17
366 2.5190 124.33 123.87 13.06
367 2.5210 128.98 123.80 13.10
368 2.5230 151.25 123.73 14.07
369 2.5250 133.26 123.66 13.35
370 2.5270 133.95 123.59 13.59
371 2.5290 130.57 123.53 13.41
372 2.5310 145.56 123.46 13.94
373 2.5330 128.38 123.39 12.99
374 2.5350 126.00 123.32 12.91
375 2.5370 103.80 123.25 12.02
376 2.5390 132.94 123.19 13.46
377 2.5410 137.94 123.12 13.60
378 2.5430 120.98 123.05 12.62
379 2.5450 143.82 122.99 13.74
380 2.5470 124.06 122.92 13.25
381 2.5490 127.90 122.85 13.17
382 2.5510 103.90 122.79 11.83
383 2.5530 125.55 122.72 12.88
384 2.5550 121.29 122.65 12.67
385 2.5570 105.81 122.59 12.17
386 2.5590 131.78 122.52 13.47
387 2.5610 105.87 122.46 11.91
388 2.5630 116.82 122.39 12.53
389 2.5650 141.97 122.32 13.65
390 2.5670 136.96 122.26 13.77
391 2.5690 137.67 122.19 13.83
392 2.5710 128.36 122.13 13.10
393 2.5730 141.76 122.07 13.65
394 2.5750 125.92 122.00 12.90
395 2.5770 120.10 121.94 12.92
396 2.5790 90.68 121.87 11.16
397 2.5810 131.51 121.81 13.34
398 2.5830 125.82 121.75 12.94
399 2.5850 120.19 121.68 12.54
400 2.5870 124.35 121.62 13.15
401 2.5890 134.60 121.55 13.64
402 2.5910 116.73 121.49 12.55
403 2.5930 115.83 121.43 12.41
404 2.5950 114.66 121.36 12.30
405 2.5970 130.11 121.30 13.38
406 2.5990 135.40 121.24 13.58
407 2.6010 123.29 121.18 12.87
408 2.6030 117.50 121.11 12.59
409 2.6050 136.60 121.05 13.34
410 2.6070 136.02 120.99 13.62
411 2.6090 131.01 120.93 13.46
412 2.6110 109.98 120.87 12.19
413 2.6130 124.80 120.81 12.85
414 2.6150 126.66 120.74 12.92
415 2.6170 109.08 120.68 12.19
416 2.6190 130.87 120.62 13.40
417 2.6210 110.89 120.56 12.17
418 2.6230 108.38 120.50 11.96
419 2.6250 107.98 120.44 11.93
420 2.6270 128.88 120.38 13.30
421 2.6290 105.50 120.32 12.04
422 2.6310 110.22 120.26 12.20
423 2.6330 131.03 120.20 13.16
424 2.6350 120.46 120.14 12.60
425 2.6370 104.69 120.08 11.90
426 2.6390 116.74 120.02 12.65
427 2.6410 124.18 119.96 12.95
428 2.6430 110.61 119.90 12.16
429 2.6450 116.39 119.84 12.32
430 2.6470 137.36 119.78 13.70
431 2.6490 103.93 119.72 11.97
432 2.6510 104.12 119.66 11.79
433 2.6530 95.04 119.60 11.21
434 2.6550 101.77 119.54 11.56
435 2.6570 121.21 119.48 12.83
436 2.6590 129.94 119.42 13.28
437 2.6610 124.86 119.36 13.05
438 2.6630 114.87 119.31 12.33
439 2.6650 114.00 119.25 12.22
440 2.6670 136.52 119.19 13.55
441 2.6690 118.97 119.13 12.78
442 2.6710 140.77 119.07 13.78
443 2.6730 119.62 119.02 12.52
444 2.6750 105.79 118.96 11.85
445 2.6770 144.39 118.90 13.95
446 2.6790 104.08 118.84 11.87
447 2.6810 133.17 118.79 13.38
448 2.6830 109.91 118.73 12.13
449 2.6850 125.17 118.67 12.81
450 2.6870 146.61 118.61 14.00
451 2.6890 121.53 118.56 12.91
452 2.6910 124.13 118.50 12.88
453 2.6930 112.56 118.44 12.16
454 2.6950 115.75 118.39 12.26
455 2.6970 133.00 118.33 13.42
456 2.6990 116.30 118.27 12.54
457 2.7010 125.83 118.22 12.99
458 2.7030 102.43 118.16 11.68
459 2.7050 103.61 118.10 11.59
460 2.7070 110.97 118.05 12.25
461 2.7090 120.63 117.99 12.87
462 2.7110 117.40 117.94 12.53
463 2.7130 106.65 117.88 11.83
464 2.7150 125.05 117.82 12.79
465 2.7170 127.97 117.77 13.18
466 2.7190 127.04 117.71 13.11
467 2.7210 148.15 117.66 14.17
468 2.7230 108.32 117.60 11.99
469 2.7250 124.93 117.55 12.82
470 2.7270 132.03 117.49 13.38
471 2.7290 125.52 117.44 13.09
472 2.7310 126.11 117.38 12.99
473 2.7330 137.49 117.33 13.43
474 2.7350 149.73 117.27 14.04
475 2.7370 120.99 117.22 12.76
476 2.7390 114.61 117.16 12.55
477 2.7410 120.05 117.11 12.68
478 2.7430 124.91 117.05 12.90
479 2.7450 105.13 117.00 11.65
480 2.7470 100.52 116.94 11.74
481 2.7490 121.64 116.89 12.91
482 2.7510 109.11 116.84 12.11
483 2.7530 108.13 116.78 11.92
484 2.7550 122.12 116.73 12.67
485 2.7570 103.59 116.68 11.89
486 2.7590 111.00 116.62 12.39
487 2.7610 121.43 116.57 12.76
488 2.7630 110.47 116.51 12.17
489 2.7650 132.10 116.46 13.05
490 2.7670 127.31 116.41 13.10
491 2.7690 134.43 116.35 13.60
492 2.7710 119.26 116.30 12.68
493 2.7730 116.18 116.25 12.41
494 2.7750 110.86 116.19 12.07
495 2.7770 104.14 116.14 11.90
496 2.7790 135.56 116.09 13.66
497 2.7810 123.61 116.04 12.88
498 2.7830 114.91 115.98 12.32
499 2.7850 100.95 115.93 11.45
500 2.7870 98.60 115.88 11.60
501 2.7890 124.99 115.82 13.14
502 2.7910 146.06 115.77 14.05
503 2.7930 109.67 115.72 12.04
504 2.7950 122.57 115.67 12.70
505 2.7970 130.64 115.61 13.30
506 2.7990 128.63 115.56 13.26
507 2.8010 109.52 115.51 12.13
508 2.8030 121.11 115.46 12.67
509 2.8050 131.58 115.41 13.18
510 2.8070 149.64 115.35 14.16
511 2.8090 127.70 115.30 13.26
512 2.8110 128.47 115.25 13.20
513 2.8130 124.05 115.20 12.81
514 2.8150 97.26 115.15 11.31
515 2.8170 105.73 115.10 11.96
516 2.8190 119.36 115.04 12.81
517 2.8210 107.79 114.99 12.02
518 2.8230 124.99 114.94 12.89
519 2.8250 95.10 114.89 11.17
520 2.8270 113.85 114.84 12.47
521 2.8290 97.18 114.79 11.57
522 2.8310 124.42 114.74 12.88
523 2.8330 129.84 114.68 13.04
524 2.8350 125.30 114.63 12.81
525 2.8370 127.30 114.58 13.09
526 2.8390 99.79 114.53 11.67
527 2.8410 111.13 114.48 12.25
528 2.8430 119.56 114.43 12.60
529 2.8450 98.84 114.38 11.38
530 2.8470 140.10 114.33 13.80
531 2.8490 135.53 114.28 13.63
532 2.8510 106.00 114.23 11.98
533 2.8530 91.59 114.18 10.96
534 2.8550 100.55 114.13 11.52
535 2.8570 117.86 114.08 12.57
536 2.8590 102.91 114.03 11.88
537 2.8610 96.02 113.98 11.33
538 2.8630 115.21 113.93 12.39
539 2.8650 106.13 113.88 11.73
540 2.8670 107.14 113.83 12.08
541 2.8690 106.97 113.78 12.10
542 2.8710 110.35 113.73 12.12
543 2.8730 135.83 113.68 13.36
544 2.8750 121.69 113.63 12.64
545 2.8770 112.18 113.58 12.32
546 2.8790 126.04 113.53 13.15
547 2.8810 112.57 113.48 12.33
548 2.8830 102.52 113.43 11.64
549 2.8850 107.71 113.38 11.84
550 2.8870 122.41 113.33 12.92
551 2.8890 121.09 113.28 12.89
552 2.8910 99.12 113.23 11.48
553 2.8930 113.40 113.18 12.25
554 2.8950 114.27 113.13 12.25
555 2.8970 123.90 113.08 12.96
556 2.8990 99.93 113.03 11.68
557 2.9010 111.95 112.99 12.23
558 2.9030 102.06 112.94 11.63
559 2.9050 117.28 112.89 12.32
560 2.9070 98.89 112.84 11.63
561 2.9090 110.57 112.79 12.35
562 2.9110 131.85 112.74 13.14
563 2.9130 119.98 112.69 12.59
564 2.9150 98.92 112.64 11.40
565 2.9170 116.60 112.59 12.61
566 2.9190 115.07 112.54 12.53
567 2.9210 105.53 112.50 11.94
568 2.9230 104.24 112.45 11.73
569 2.9250 107.57 112.40 11.72
570 2.9270 126.49 112.35 13.21
571 2.9290 97.36 112.30 11.52
572 2.9310 100.84 112.25 11.62
573 2.9330 114.12 112.21 12.19
574 2.9350 95.61 112.16 11.23
575 2.9370 93.44 112.11 11.32
576 2.9390 111.30 112.06 12.33
577 2.9410 105.77 112.01 11.94
578 2.9430 118.99 111.96 12.55
579 2.9450 101.03 111.92 11.48
580 2.9470 112.54 111.87 12.47
581 2.9490 104.76 111.82 12.02
582 2.9510 128.52 111.77 13.12
583 2.9530 116.43 111.73 12.35
584 2.9550 134.45 111.68 13.31
585 2.9570 133.88 111.63 13.57
586 2.9590 116.89 111.58 12.68
587 2.9610 100.00 111.54 11.59
588 2.9630 119.56 111.49 12.53
589 2.9650 109.64 111.44 11.98
590 2.9670 111.24 111.39 12.41
591 2.9690 112.35 111.35 12.43
592 2.9710 117.84 111.30 12.55
593 2.9730 111.48 111.25 12.10
594 2.9750 113.40 111.20 12.17
595 2.9770 105.66 111.16 12.03
596 2.9790 106.78 111.11 12.10
597 2.9810 117.19 111.06 12.52
598 2.9830 114.94 111.01 12.29
599 2.9850 107.21 110.97 11.83
600 2.9870 93.78 110.92 11.37
601 2.9890 109.80 110.87 12.30
602 2.9910 123.93 110.83 12.83
603 2.9930 105.41 110.78 11.75
604 2.9950 113.21 110.73 12.14
605 2.9970 110.01 110.69 12.27
606 2.9990 88.53 110.64 10.99
607 3.0010 120.47 110.59 12.73
608 3.0030 114.37 110.54 12.28
609 3.0050 91.95 110.50 11.03
610 3.0070 111.11 110.45 12.27
611 3.0090 104.45 110.41 11.99
612 3.0110 92.57 110.36 11.12
613 3.0130 104.18 110.31 11.66
614 3.0150 112.71 110.27 12.08
615 3.0170 102.69 110.22 11.91
616 3.0190 111.42 110.17 12.29
617 3.0210 114.97 110.13 12.36
618 3.0230 108.31 110.08 11.98
619 3.0250 104.26 110.04 11.66
620 3.0270 116.58 109.99 12.67
621 3.0290 120.26 109.94 12.89
622 3.0310 126.42 109.90 13.01
623 3.0330 95.31 109.85 11.13
624 3.0350 88.38 109.80 10.79
625 3.0370 90.21 109.76 11.19
626 3.0390 112.07 109.71 12.33
627 3.0410 128.11 109.67 13.13
628 3.0430 110.44 109.62 12.04
629 3.0450 134.38 109.57 13.24
630 3.0470 105.33 109.53 12.04
631 3.0490 99.57 109.48 11.63
632 3.0510 102.62 109.44 11.70
633 3.0530 107.19 109.39 11.86
634 3.0550 104.71 109.35 11.69
635 3.0570 114.31 109.30 12.48
636 3.0590 85.36 109.25 10.86
637 3.0610 99.50 109.21 11.49
638 3.0630 111.26 109.16 12.05
639 3.0650 132.02 109.12 13.13
640 3.0670 104.25 109.07 12.03
641 3.0690 90.50 109.03 11.07
642 3.0710 124.11 108.98 12.81
643 3.0730 87.87 108.94 10.72
644 3.0750 121.81 108.89 12.66
645 3.0770 108.01 108.85 12.11
646 3.0790 117.92 108.80 12.70
647 3.0810 107.08 108.76 11.87
648 3.0830 114.22 108.71 12.22
649 3.0850 99.89 108.67 11.45
650 3.0870 82.09 108.62 10.60
651 3.0890 108.72 108.58 12.15
652 3.0910 118.36 108.53 12.56
653 3.0930 98.79 108.49 11.27
654 3.0950 103.49 108.44 11.64
655 3.0970 102.87 108.40 11.86
656 3.0990 108.29 108.36 12.09
657 3.1010 107.69 108.33 11.95
658 3.1030 107.76 108.30 11.86
659 3.1050 100.06 108.28 11.46
660 3.1070 95.34 108.24 11.37
661 3.1090 107.85 108.15 12.12
662 3.1110 112.02 108.09 12.10
663 3.1130 103.67 108.04 11.65
664 3.1150 109.55 108.00 11.94
665 3.1170 90.31 107.95 11.10
666 3.1190 90.47 107.91 11.06
667 3.1210 107.57 107.86 11.89
668 3.1230 115.76 107.82 12.28
669 3.1250 105.49 107.78 11.75
670 3.1270 95.49 107.73 11.41
671 3.1290 100.74 107.69 11.74
672 3.1310 119.16 107.64 12.54
673 3.1330 97.25 107.60 11.25
674 3.1350 99.10 107.55 11.39
675 3.1370 107.72 107.51 12.04
676 3.1390 126.32 107.47 13.09
677 3.1410 93.47 107.42 11.13
678 3.1430 93.08 107.38 10.97
679 3.1450 98.21 107.33 11.38
680 3.1470 90.58 107.29 11.09
681 3.1490 117.34 107.25 12.68
682 3.1510 106.65 107.20 11.77
683 3.1530 102.92 107.16 11.63
684 3.1550 115.07 107.11 12.26
685 3.1570 116.45 107.07 12.57
686 3.1590 102.47 107.03 11.79
687 3.1610 115.96 106.98 12.34
688 3.1630 97.41 106.94 11.30
689 3.1650 100.76 106.90 11.57
690 3.1670 97.51 106.85 11.55
691 3.1690 112.30 106.81 12.36
692 3.1710 105.14 106.77 11.75
693 3.1730 103.92 106.72 11.63
694 3.1750 116.85 106.68 12.45
695 3.1770 100.65 106.64 11.71
696 3.1790 112.32 106.59 12.45
697 3.1810 100.81 106.55 11.46
698 3.1830 114.21 106.51 12.21
699 3.1850 119.40 106.46 12.59
700 3.1870 85.24 106.42 10.82
701 3.1890 108.72 106.38 12.14
702 3.1910 107.83 106.34 11.87
703 3.1930 78.27 106.29 10.10
704 3.1950 107.00 106.25 11.86
705 3.1970 117.13 106.21 12.67
706 3.1990 109.42 106.17 12.20
707 3.2010 96.15 106.12 11.23
708 3.2030 86.65 106.08 10.61
709 3.2050 101.25 106.04 11.61
710 3.2070 108.81 105.99 12.27
711 3.2090 99.93 105.95 11.60
712 3.2110 117.44 105.91 12.34
713 3.2130 105.84 105.87 11.76
714 3.2150 112.57 105.82 12.27
715 3.2170 93.74 105.78 11.31
716 3.2190 93.43 105.74 11.29
717 3.2210 90.44 105.70 10.88
718 3.2230 93.60 105.65 11.03
719 3.2250 91.58 105.61 11.08
720 3.2270 100.05 105.57 11.83
721 3.2290 118.43 105.53 12.62
722 3.2310 112.51 105.49 12.11
723 3.2330 104.42 105.44 11.65
724 3.2350 97.14 105.40 11.44
725 3.2370 100.75 105.36 11.86
726 3.2390 93.25 105.32 11.25
727 3.2410 108.85 105.28 11.98
728 3.2430 108.29 105.23 11.88
729 3.2450 106.63 105.19 11.99
730 3.2470 98.45 105.15 11.71
731 3.2490 78.76 105.11 10.36
732 3.2510 94.03 105.07 11.17
733 3.2530 96.75 105.03 11.27
734 3.2550 98.32 104.98 11.53
735 3.2570 97.55 104.94 11.68
736 3.2590 84.19 104.90 10.73
737 3.2610 91.51 104.86 11.06
738 3.2630 102.73 104.82 11.60
739 3.2650 120.34 104.78 12.81
740 3.2670 105.20 104.74 12.14
741 3.2690 117.87 104.69 12.76
742 3.2710 93.55 104.65 11.02
743 3.2730 106.81 104.61 11.88
744 3.2750 95.39 104.57 11.24
745 3.2770 103.70 104.53 12.04
746 3.2790 109.86 104.49 12.28
747 3.2810 100.34 104.45 11.49
748 3.2830 113.15 104.41 12.19
749 3.2850 117.92 104.36 12.55
750 3.2870 105.48 104.32 12.14
751 3.2890 118.90 104.28 12.71
752 3.2910 98.69 104.24 11.42
753 3.2930 114.83 104.20 12.21
754 3.2950 111.25 104.16 12.24
755 3.2970 103.99 104.12 11.99
756 3.2990 104.57 104.08 11.96
757 3.3010 87.98 104.04 10.77
758 3.3030 98.81 104.00 11.38
759 3.3050 137.53 103.96 13.55
760 3.3070 106.11 103.92 12.20
761 3.3090 103.38 103.88 11.92
762 3.3110 80.45 103.84 10.23
763 3.3130 106.45 103.80 11.86
764 3.3150 111.04 103.76 12.24
765 3.3170 110.50 103.72 12.42
766 3.3190 101.51 103.68 11.80
767 3.3210 107.57 103.64 11.99
768 3.3230 112.11 103.60 12.09
769 3.3250 93.69 103.56 11.22
770 3.3270 106.52 103.51 12.23
771 3.3290 105.86 103.47 11.96
772 3.3310 92.42 103.43 11.01
773 3.3330 100.49 103.40 11.52
774 3.3350 113.78 103.36 12.34
775 3.3370 117.44 103.32 12.79
776 3.3390 101.96 103.28 11.78
777 3.3410 103.89 103.24 11.69
778 3.3430 106.09 103.20 11.79
779 3.3450 90.10 103.16 11.02
780 3.3470 106.44 103.12 12.18
781 3.3490 121.15 103.08 12.81
782 3.3510 107.57 103.04 11.96
783 3.3530 92.46 103.00 11.02
784 3.3550 111.10 102.96 12.21
785 3.3570 110.68 102.92 12.50
786 3.3590 93.83 102.88 11.28
787 3.3610 70.87 102.84 9.67
788 3.3630 112.07 102.80 12.15
789 3.3650 92.55 102.76 11.11
790 3.3670 83.37 102.72 10.84
791 3.3690 80.85 102.69 10.50
792 3.3710 107.85 102.65 11.96
793 3.3730 86.25 102.61 10.60
794 3.3750 104.15 102.57 11.84
795 3.3770 97.18 102.53 11.68
796 3.3790 96.40 102.49 11.51
797 3.3810 114.95 102.45 12.37
798 3.3830 104.54 102.42 11.76
799 3.3850 108.49 102.38 12.14
800 3.3870 93.81 102.34 11.44
801 3.3890 107.61 102.30 12.09
802 3.3910 107.84 102.26 11.95
803 3.3930 91.86 102.22 10.94
804 3.3950 82.18 102.18 10.52
805 3.3970 107.27 102.15 12.25
806 3.3990 83.74 102.11 10.76
807 3.4010 99.79 102.07 11.51
808 3.4030 115.44 102.03 12.38
809 3.4050 82.50 101.99 10.49
810 3.4070 90.54 101.96 11.27
811 3.4090 125.85 101.92 13.11
812 3.4110 117.70 101.88 12.47
813 3.4130 115.49 101.84 12.33
814 3.4150 93.66 101.80 11.16
815 3.4170 104.91 101.77 12.10
816 3.4190 91.00 101.73 11.14
817 3.4210 97.48 101.69 11.36
818 3.4230 94.65 101.65 11.15
819 3.4250 99.43 101.62 11.49
820 3.4270 111.45 101.58 12.46
821 3.4290 103.92 101.54 11.93
822 3.4310 109.55 101.50 11.97
823 3.4330 100.60 101.47 11.56
824 3.4350 81.01 101.43 10.38
825 3.4370 113.79 101.39 12.56
826 3.4390 103.92 101.36 11.90
827 3.4410 99.24 101.32 11.53
828 3.4430 106.89 101.28 11.88
829 3.4450 116.40 101.24 12.31
830 3.4470 87.96 101.21 11.13
831 3.4490 107.40 101.17 12.13
832 3.4510 101.55 101.13 11.55
833 3.4530 100.26 101.10 11.51
834 3.4550 68.98 101.06 9.61
835 3.4570 95.70 101.02 11.48
836 3.4590 72.02 100.99 9.91
837 3.4610 90.18 100.95 10.96
838 3.4630 93.55 100.91 11.16
839 3.4650 92.26 100.88 11.01
840 3.4670 113.43 100.84 12.57
841 3.4690 109.84 100.80 12.27
842 3.4710 104.47 100.77 11.75
843 3.4730 89.04 100.73 10.85
844 3.4750 93.81 100.70 11.15
845 3.4770 97.39 100.66 11.58
846 3.4790 93.27 100.62 11.31
847 3.4810 97.73 100.59 11.44
848 3.4830 93.60 100.55 11.11
849 3.4850 95.36 100.52 11.21
850 3.4870 96.29 100.48 11.54
851 3.4890 81.82 100.44 10.54
852 3.4910 84.92 100.41 10.64
853 3.4930 77.25 100.37 10.09
854 3.4950 97.33 100.34 11.33
855 3.4970 92.43 100.30 11.26
856 3.4990 94.02 100.27 11.42
857 3.5010 81.07 100.23 10.34
858 3.5030 87.66 100.20 10.76
859 3.5050 105.24 100.16 11.79
860 3.5070 111.48 100.13 12.49
861 3.5090 97.17 100.09 11.55
862 3.5110 87.12 100.06 10.78
863 3.5130 91.98 100.02 10.99
864 3.5150 103.81 99.99 11.72
865 3.5170 91.28 99.95 11.19
866 3.5190 97.48 99.92 11.54
867 3.5210 69.77 99.88 9.68
868 3.5230 101.86 99.85 11.59
869 3.5250 101.14 99.81 11.59
870 3.5270 92.41 99.78 11.26
871 3.5290 96.94 99.74 11.57
872 3.5310 122.23 99.71 12.76
873 3.5330 100.30 99.67 11.44
874 3.5350 91.64 99.64 11.02
875 3.5370 91.63 99.61 11.26
876 3.5390 99.95 99.57 11.67
877 3.5410 100.37 99.54 11.49
878 3.5430 81.48 99.50 10.39
879 3.5450 100.52 99.47 11.48
880 3.5470 97.43 99.44 11.60
881 3.5490 103.47 99.40 11.88
882 3.5510 108.53 99.37 11.95
883 3.5530 104.36 99.33 11.73
884 3.5550 105.81 99.30 11.87
885 3.5570 92.78 99.27 11.30
886 3.5590 92.30 99.23 11.25
887 3.5610 84.83 99.20 10.67
888 3.5630 100.27 99.17 11.54
889 3.5650 79.12 99.13 10.25
890 3.5670 99.85 99.10 11.69
891 3.5690 94.14 99.07 11.43
892 3.5710 68.06 99.03 9.48
893 3.5730 85.78 99.00 10.68
894 3.5750 91.35 98.97 11.02
895 3.5770 94.67 98.93 11.38
896 3.5790 88.60 98.90 11.01
897 3.5810 88.11 98.87 10.87
898 3.5830 101.22 98.84 11.59
899 3.5850 97.08 98.80 11.33
900 3.5870 89.84 98.77 11.11
901 3.5890 99.81 98.74 11.68
902 3.5910 83.33 98.71 10.53
903 3.5930 95.13 98.67 11.25
904 3.5950 100.27 98.64 11.46
905 3.5970 106.66 98.61 12.12
906 3.5990 97.68 98.58 11.50
907 3.6010 98.80 98.54 11.49
908 3.6030 104.02 98.51 11.68
909 3.6050 105.50 98.48 11.79
910 3.6070 95.84 98.45 11.56
911 3.6090 108.19 98.42 12.15
912 3.6110 94.23 98.39 11.21
913 3.6130 92.46 98.35 11.06
914 3.6150 80.08 98.32 10.33
915 3.6170 74.28 98.29 10.09
916 3.6190 80.05 98.26 10.49
917 3.6210 97.21 98.23 11.33
918 3.6230 92.62 98.20 11.10
919 3.6250 90.25 98.16 10.91
920 3.6270 98.34 98.13 11.62
921 3.6290 93.68 98.10 11.34
922 3.6310 107.26 98.07 11.93
923 3.6330 102.03 98.04 11.57
924 3.6350 117.97 98.01 12.45
925 3.6370 95.78 97.98 11.39
926 3.6390 93.69 97.95 11.29
927 3.6410 96.16 97.92 11.34
928 3.6430 110.51 97.89 12.05
929 3.6450 111.77 97.86 12.17
930 3.6470 90.68 97.83 11.15
931 3.6490 115.83 97.79 12.59
932 3.6510 97.04 97.76 11.38
933 3.6530 95.66 97.73 11.21
934 3.6550 85.91 97.70 10.70
935 3.6570 92.24 97.67 11.20
936 3.6590 89.16 97.64 11.04
937 3.6610 92.97 97.61 11.12
938 3.6630 107.68 97.58 11.92
939 3.6650 99.88 97.55 11.49
940 3.6670 106.93 97.52 12.07
941 3.6690 99.83 97.49 11.69
942 3.6710 108.99 97.47 12.04
943 3.6730 83.20 97.44 10.45
944 3.6750 94.59 97.41 11.23
945 3.6770 94.62 97.38 11.37
946 3.6790 88.60 97.35 11.07
947 3.6810 101.62 97.32 11.65
948 3.6830 92.44 97.29 11.09
949 3.6850 124.22 97.26 12.80
950 3.6870 87.78 97.23 10.93
951 3.6890 105.30 97.20 12.04
952 3.6910 108.76 97.17 12.05
953 3.6930 102.87 97.14 11.61
954 3.6950 106.87 97.12 11.87
955 3.6970 89.32 97.09 11.04
956 3.6990 94.07 97.06 11.39
957 3.7010 101.92 97.03 11.68
958 3.7030 100.28 97.00 11.55
959 3.7050 112.09 96.97 12.23
960 3.7070 95.73 96.94 11.43
961 3.7090 133.88 96.92 13.56
962 3.7110 92.06 96.89 11.09
963 3.7130 109.38 96.86 12.08
964 3.7150 110.63 96.83 12.08
965 3.7170 96.13 96.80 11.47
966 3.7190 99.82 96.78 11.65
967 3.7210 101.60 96.75 11.69
968 3.7230 116.36 106.66 12.32
969 3.7250 102.36 107.56 11.60
970 3.7270 106.85 108.61 12.04
971 3.7290 118.10 109.82 12.68
972 3.7310 109.43 111.23 12.10
973 3.7330 107.13 112.89 11.86
974 3.7350 122.89 114.87 12.81
975 3.7370 135.86 117.25 13.55
976 3.7390 120.52 120.13 12.83
977 3.7410 147.50 123.67 14.07
978 3.7430 152.19 128.09 14.13
979 3.7450 143.97 133.72 13.76
980 3.7470 116.95 141.02 12.63
981 3.7490 146.42 150.75 14.14
982 3.7510 184.30 164.14 15.56
983 3.7530 166.28 183.34 14.85
984 3.7550 208.51 212.44 16.53
985 3.7570 237.95 260.26 17.97
986 3.7590 349.22 351.11 21.83
987 3.7610 573.60 598.76 27.83
988 3.7630 1113.38 1203.80 38.54
989 3.7650 2508.26 2392.61 58.24
990 3.7670 4865.10 4279.41 84.16
991 3.7690 7929.13 7610.14 109.74
992 3.7710 6116.01 5909.88 94.23
993 3.7730 1534.76 1631.39 45.31
994 3.7750 591.69 697.78 28.07
995 3.7770 360.62 427.15 22.20
996 3.7790 272.93 305.61 19.39
997 3.7810 203.71 240.60 16.40
998 3.7830 188.67 201.80 15.83
999 3.7850 149.79 176.76 14.00
1000 3.7870 132.65 159.68 13.46
1001 3.7890 134.13 147.48 13.53
1002 3.7910 130.48 138.47 13.27
1003 3.7930 132.40 131.62 13.12
1004 3.7950 121.54 126.29 12.69
1005 3.7970 102.66 122.06 11.83
1006 3.7990 137.93 118.64 13.73
1007 3.8010 109.55 115.84 12.06
1008 3.8030 101.41 113.52 11.59
1009 3.8050 98.32 111.57 11.43
1010 3.8070 105.35 109.92 11.90
1011 3.8090 117.25 108.50 12.71
1012 3.8110 112.67 107.28 12.31
1013 3.8130 95.93 106.22 11.24
1014 3.8150 106.19 105.29 11.82
1015 3.8170 122.87 104.47 12.93
1016 3.8190 98.52 103.75 11.68
1017 3.8210 102.42 95.47 11.71
1018 3.8230 114.17 95.44 12.24
1019 3.8250 113.74 95.42 12.18
1020 3.8270 92.87 95.40 11.23
1021 3.8290 108.85 95.37 12.19
1022 3.8310 110.47 95.35 12.17
1023 3.8330 103.22 95.33 11.67
1024 3.8350 86.84 95.30 10.64
1025 3.8370 90.83 95.28 11.08
1026 3.8390 114.89 95.26 12.66
1027 3.8410 76.50 95.23 10.13
1028 3.8430 110.86 95.21 12.08
1029 3.8450 104.02 95.19 11.67
1030 3.8470 103.26 95.17 11.83
1031 3.8490 93.14 95.14 11.33
1032 3.8510 84.44 95.12 10.61
1033 3.8530 97.17 95.10 11.32
1034 3.8550 82.62 95.08 10.44
1035 3.8570 105.21 95.06 11.93
1036 3.8590 74.25 95.03 10.15
1037 3.8610 72.12 95.01 9.83
1038 3.8630 100.44 94.99 11.51
1039 3.8650 99.78 94.97 11.44
1040 3.8670 101.30 94.95 11.69
1041 3.8690 98.66 94.92 11.64
1042 3.8710 89.44 94.90 10.96
1043 3.8730 112.84 94.88 12.18
1044 3.8750 94.75 94.86 11.17
1045 3.8770 98.19 94.84 11.56
1046 3.8790 104.36 94.82 11.91
1047 3.8810 106.50 94.80 11.95
1048 3.8830 100.18 94.78 11.49
1049 3.8850 103.47 94.75 11.63
1050 3.8870 108.40 94.73 12.18
1051 3.8890 88.10 94.71 10.98
1052 3.8910 111.38 94.69 12.20
1053 3.8930 93.28 94.67 11.11
1054 3.8950 93.86 94.65 11.09
1055 3.8970 91.08 94.63 11.11
1056 3.8990 83.55 94.61 10.73
1057 3.9010 81.09 94.59 10.38
1058 3.9030 102.48 94.57 11.62
1059 3.9050 97.97 94.55 11.38
1060 3.9070 105.14 94.53 11.93
1061 3.9090 78.33 94.51 10.36
1062 3.9110 101.20 94.49 11.66
1063 3.9130 94.34 94.47 11.16
1064 3.9150 98.79 94.45 11.46
1065 3.9170 92.83 94.43 11.21
1066 3.9190 106.71 94.41 12.12
1067 3.9210 94.67 94.39 11.24
1068 3.9230 107.75 94.37 11.90
1069 3.9250 101.83 94.36 11.65
1070 3.9270 95.54 94.34 11.36
1071 3.9290 91.27 94.32 11.16
1072 3.9310 74.98 94.30 10.09
1073 3.9330 95.41 94.28 11.25
1074 3.9350 104.97 94.26 11.77
1075 3.9370 95.31 94.24 11.33
1076 3.9390 97.89 94.22 11.65
1077 3.9410 102.24 94.21 11.69
1078 3.9430 83.39 94.19 10.50
1079 3.9450 102.92 94.17 11.68
1080 3.9470 85.70 94.15 10.75
1081 3.9490 99.83 94.13 11.66
1082 3.9510 109.88 94.12 12.17
1083 3.9530 78.50 94.10 10.10
1084 3.9550 82.43 94.08 10.39
1085 3.9570 96.32 94.06 11.43
1086 3.9590 85.76 94.04 10.83
1087 3.9610 94.61 94.03 11.27
1088 3.9630 110.85 94.01 12.10
1089 3.9650 90.80 93.99 11.00
1090 3.9670 85.06 93.98 10.72
1091 3.9690 96.13 93.96 11.50
1092 3.9710 102.11 93.94 11.69
1093 3.9730 101.30 93.92 11.60
1094 3.9750 103.48 93.91 11.68
1095 3.9770 92.79 93.89 11.23
1096 3.9790 108.44 93.87 12.28
1097 3.9810 100.96 93.86 11.65
1098 3.9830 94.90 93.84 11.25
1099 3.9850 104.95 93.82 11.75
1100 3.9870 93.02 93.81 11.29
1101 3.9890 100.94 93.79 11.83
1102 3.9910 102.18 93.78 11.74
1103 3.9930 113.65 93.76 12.25
1104 3.9950 74.57 93.74 9.93
1105 3.9970 108.44 93.73 12.17
1106 3.9990 114.17 93.71 12.51
1107 4.0010 98.29 93.70 11.52
1108 4.0030 95.28 93.68 11.26
1109 4.0050 90.68 93.67 10.94
1110 4.0070 103.84 93.65 11.89
1111 4.0090 96.95 93.64 11.60
1112 4.0110 108.31 93.62 12.02
1113 4.0130 83.50 93.61 10.49
1114 4.0150 101.28 93.59 11.57
1115 4.0170 105.79 93.58 11.99
1116 4.0190 95.05 93.56 11.42
1117 4.0210 114.70 93.55 12.34
1118 4.0230 88.22 93.53 10.84
1119 4.0250 102.96 93.52 11.61
1120 4.0270 97.06 93.50 11.47
1121 4.0290 109.78 93.49 12.30
1122 4.0310 101.40 93.47 9.00
1123 4.0330 112.31 93.46 8.57
1124 4.0350 95.80 93.45 8.85
1125 4.0370 86.75 93.43 8.86
1126 4.0390 84.65 93.42 9.12
1127 4.0410 102.67 93.40 10.12
1128 4.0430 105.06 93.39 10.27
1129 4.0450 101.75 93.38 10.17
1130 4.0470 97.93 93.36 10.07
1131 4.0490 97.94 93.35 10.36
1132 4.0510 107.19 93.34 10.77
1133 4.0530 89.52 93.32 9.79
1134 4.0550 96.08 93.31 10.11
1135 4.0570 96.85 93.30 10.37
1136 4.0590 120.01 93.28 11.61
1137 4.0610 104.49 93.27 10.81
1138 4.0630 120.59 93.26 11.58
1139 4.0650 98.05 93.25 10.42
1140 4.0670 99.20 93.23 10.53
1141 4.0690 101.52 93.22 10.91
1142 4.0710 87.41 93.21 10.08
1143 4.0730 115.80 93.20 11.44
1144 4.0750 111.40 93.18 11.16
1145 4.0770 118.44 93.17 11.62
1146 4.0790 96.96 93.16 10.69
1147 4.0810 92.09 93.15 10.33
1148 4.0830 103.16 93.14 10.84
1149 4.0850 108.88 93.13 11.07
1150 4.0870 96.05 93.11 10.49
1151 4.0890 93.50 93.10 10.46
1152 4.0910 108.49 93.09 11.20
1153 4.0930 97.45 93.08 10.47
1154 4.0950 98.78 93.07 10.59
1155 4.0970 112.94 93.06 11.27
1156 4.0990 91.35 93.05 10.35
1157 4.1010 102.56 93.04 10.88
1158 4.1030 101.40 93.02 10.71
1159 4.1050 98.19 93.01 10.49
1160 4.1070 106.58 93.00 10.97
1161 4.1090 99.30 92.99 10.80
1162 4.1110 113.27 92.98 11.44
1163 4.1130 94.70 92.97 10.35
1164 4.1150 71.83 92.96 8.95
1165 4.1170 95.78 92.95 10.47
1166 4.1190 99.39 92.94 10.79
1167 4.1210 123.51 92.93 11.91
1168 4.1230 98.48 92.92 10.50
1169 4.1250 78.13 92.91 9.38
1170 4.1270 87.72 92.90 9.92
1171 4.1290 100.44 92.89 10.89
1172 4.1310 97.92 92.88 10.55
1173 4.1330 79.00 92.87 9.45
1174 4.1350 107.38 92.86 10.98
1175 4.1370 110.11 92.86 11.23
1176 4.1390 99.14 92.85 10.80
1177 4.1410 82.86 92.84 9.72
1178 4.1430 126.16 92.83 11.94
1179 4.1450 95.71 92.82 10.37
1180 4.1470 109.79 92.81 11.17
1181 4.1490 100.05 92.80 10.81
1182 4.1510 88.44 92.79 10.09
1183 4.1530 106.31 92.78 10.93
1184 4.1550 109.21 92.78 11.03
1185 4.1570 95.79 92.77 10.51
1186 4.1590 106.03 92.76 11.14
1187 4.1610 90.86 92.75 10.21
1188 4.1630 101.64 92.74 10.64
1189 4.1650 105.24 92.74 10.90
1190 4.1670 89.47 92.73 10.11
1191 4.1690 102.62 92.72 10.96
1192 4.1710 95.91 92.71 10.43
1193 4.1730 93.92 92.71 10.28
1194 4.1750 102.30 92.70 10.70
1195 4.1770 106.29 92.69 11.06
1196 4.1790 99.74 92.68 10.78
1197 4.1810 96.82 92.68 10.55
1198 4.1830 96.10 92.67 10.38
1199 4.1850 95.81 92.66 10.36
1200 4.1870 106.32 92.66 11.10
1201 4.1890 87.19 92.65 10.08
1202 4.1910 109.22 92.64 11.15
1203 4.1930 92.55 92.64 10.23
1204 4.1950 121.51 92.63 11.70
1205 4.1970 105.32 92.62 11.01
1206 4.1990 87.85 92.62 10.17
1207 4.2010 105.55 92.61 10.96
1208 4.2030 88.13 92.60 9.98
1209 4.2050 91.44 92.60 10.12
1210 4.2070 107.33 92.59 11.11
1211 4.2090 106.82 92.59 11.23
1212 4.2110 108.52 92.58 11.11
1213 4.2130 106.52 92.57 10.95
1214 4.2150 115.76 92.57 11.43
1215 4.2170 96.95 92.56 10.61
1216 4.2190 102.49 92.56 10.90
1217 4.2210 102.57 113.54 10.87
1218 4.2230 92.31 115.34 10.25
1219 4.2250 102.12 117.39 10.70
1220 4.2270 93.95 119.74 10.44
1221 4.2290 105.35 122.43 11.17
1222 4.2310 135.00 125.55 12.42
1223 4.2330 130.32 129.18 12.11
1224 4.2350 139.54 133.46 12.58
1225 4.2370 152.25 138.53 13.31
1226 4.2390 161.08 144.60 13.68
1227 4.2410 151.21 151.98 13.14
1228 4.2430 173.01 161.04 14.09
1229 4.2450 183.56 172.36 14.34
1230 4.2470 182.77 186.76 16.35
1231 4.2490 218.56 205.46 19.41
1232 4.2510 203.01 230.39 22.89
1233 4.2530 258.57 264.73 27.29
1234 4.2550 333.74 313.97 30.71
1235 4.2570 463.52 388.44 32.43
1236 4.2590 645.57 509.90 33.44
1237 4.2610 918.42 734.39 34.18
1238 4.2630 1430.08 1278.54 40.77
1239 4.2650 2627.76 2733.48 55.42
1240 4.2670 5584.69 5669.02 83.24
1241 4.2690 11105.70 10886.90 122.97
1242 4.2710 17326.60 17462.80 157.86
1243 4.2730 9181.22 9525.31 108.58
1244 4.2750 2812.85 2911.57 57.21
1245 4.2770 1331.80 1354.15 39.43
1246 4.2790 773.58 819.97 30.29
1247 4.2810 522.64 565.20 24.42
1248 4.2830 369.01 424.21 20.48
1249 4.2850 303.05 338.10 18.56
1250 4.2870 234.60 281.67 16.40
1251 4.2890 174.93 242.70 14.25
1252 4.2910 199.38 214.65 15.20
1253 4.2930 153.77 193.78 13.12
1254 4.2950 129.60 177.84 12.06
1255 4.2970 141.61 165.39 12.75
1256 4.2990 144.58 155.48 13.09
1257 4.3010 124.93 147.46 11.91
1258 4.3030 119.13 140.88 11.57
1259 4.3050 113.89 135.41 11.34
1260 4.3070 119.28 130.82 11.71
1261 4.3090 124.21 126.93 12.00
1262 4.3110 123.76 123.60 11.91
1263 4.3130 116.11 120.73 11.42
1264 4.3150 120.05 118.24 11.58
1265 4.3170 111.85 116.06 11.39
1266 4.3190 114.64 114.15 11.52
1267 4.3210 106.54 112.46 11.09
1268 4.3230 95.12 110.96 10.35
1269 4.3250 110.43 92.41 11.15
1270 4.3270 96.69 92.41 10.51
1271 4.3290 126.76 92.41 12.22
1272 4.3310 130.71 92.41 12.14
1273 4.3330 107.79 92.41 11.04
1274 4.3350 110.43 93.43 11.17
1275 4.3370 93.24 93.51 10.37
1276 4.3390 108.13 93.61 11.21
1277 4.3410 100.91 93.72 10.74
1278 4.3430 101.93 93.84 10.79
1279 4.3450 143.46 93.98 12.69
1280 4.3470 109.26 94.15 11.17
1281 4.3490 126.89 95.33 12.15
1282 4.3510 128.41 95.64 12.09
1283 4.3530 105.45 96.00 10.88
1284 4.3550 101.70 96.44 10.69
1285 4.3570 131.02 96.95 12.29
1286 4.3590 113.73 97.58 11.49
1287 4.3610 102.46 98.36 10.78
1288 4.3630 103.57 99.32 10.81
1289 4.3650 104.57 100.57 10.88
1290 4.3670 116.13 102.19 11.48
1291 4.3690 100.15 104.40 10.79
1292 4.3710 87.20 107.52 10.05
1293 4.3730 111.33 112.18 11.14
1294 4.3750 114.86 119.71 11.34
1295 4.3770 120.01 133.64 11.73
1296 4.3790 162.78 167.73 13.71
1297 4.3810 246.59 253.33 16.70
1298 4.3830 443.99 425.40 22.45
1299 4.3850 798.10 728.03 30.16
1300 4.3870 960.21 966.83 33.14
1301 4.3890 502.86 473.05 24.14
1302 4.3910 259.45 243.07 17.15
1303 4.3930 228.84 213.36 15.97
1304 4.3950 332.41 269.00 19.29
1305 4.3970 479.29 415.78 23.39
1306 4.3990 768.40 690.60 29.96
1307 4.4010 941.74 938.23 32.83
1308 4.4030 471.13 473.76 23.05
1309 4.4050 230.74 219.04 16.11
1310 4.4070 153.52 155.40 13.26
1311 4.4090 155.47 131.20 13.37
1312 4.4110 141.42 118.98 12.69
1313 4.4130 119.99 111.91 11.64
1314 4.4150 110.74 107.42 11.11
1315 4.4170 105.04 104.38 10.94
1316 4.4190 100.20 102.21 10.79
1317 4.4210 114.41 100.60 11.30
1318 4.4230 113.43 99.38 11.29
1319 4.4250 107.25 98.42 11.02
1320 4.4270 112.25 97.66 11.34
1321 4.4290 101.93 97.04 10.86
1322 4.4310 94.68 96.53 10.38
1323 4.4330 112.27 96.11 11.17
1324 4.4350 104.61 95.75 10.85
1325 4.4370 88.97 95.44 10.07
1326 4.4390 115.63 95.18 11.53
1327 4.4410 102.62 94.96 10.71
1328 4.4430 109.19 93.95 11.07
1329 4.4450 102.81 93.83 10.72
1330 4.4470 118.36 93.73 11.67
1331 4.4490 98.86 93.64 10.66
1332 4.4510 109.09 93.56 11.07
1333 4.4530 111.25 93.50 11.14
1334 4.4550 117.54 93.44 11.48
1335 4.4570 96.53 92.59 10.54
1336 4.4590 111.36 92.59 11.33
1337 4.4610 109.32 92.60 11.15
1338 4.4630 92.50 92.60 10.15
1339 4.4650 112.67 92.61 11.22
1340 4.4670 101.13 92.62 10.85
1341 4.4690 96.65 92.62 10.58
1342 4.4710 112.45 92.63 11.20
1343 4.4730 116.79 92.63 11.44
1344 4.4750 120.78 92.64 11.70
1345 4.4770 106.66 92.65 11.11
1346 4.4790 99.27 92.65 10.71
1347 4.4810 104.34 92.66 10.87
1348 4.4830 99.70 92.67 10.60
1349 4.4850 105.28 92.67 10.95
1350 4.4870 109.96 92.68 11.33
1351 4.4890 101.15 92.69 10.83
1352 4.4910 90.47 92.69 10.13
1353 4.4930 125.61 92.70 11.87
1354 4.4950 97.55 92.71 10.59
1355 4.4970 111.01 92.72 11.42
1356 4.4990 105.49 92.72 11.00
1357 4.5010 113.44 92.73 11.36
1358 4.5030 90.12 92.74 10.04
1359 4.5050 96.70 92.75 10.53
1360 4.5070 102.14 92.75 10.91
1361 4.5090 107.57 92.76 11.13
1362 4.5110 95.94 92.77 10.37
1363 4.5130 97.69 92.78 10.44
1364 4.5150 93.78 92.79 10.40
1365 4.5170 90.56 92.79 10.28
1366 4.5190 87.13 92.80 9.98
1367 4.5210 106.25 92.81 10.99
1368 4.5230 86.38 92.82 9.81
1369 4.5250 102.68 92.83 10.87
1370 4.5270 73.52 92.84 9.34
1371 4.5290 91.72 92.84 10.27
1372 4.5310 104.97 92.85 10.92
1373 4.5330 93.56 92.86 10.24
1374 4.5350 105.37 92.87 10.99
1375 4.5370 85.35 92.88 10.07
1376 4.5390 94.88 92.89 10.42
1377 4.5410 88.45 92.90 10.05
1378 4.5430 85.57 92.91 9.79
1379 4.5450 95.24 92.92 10.52
1380 4.5470 94.83 92.92 10.60
1381 4.5490 97.40 92.93 10.58
1382 4.5510 93.26 92.94 10.33
1383 4.5530 100.12 92.95 10.62
1384 4.5550 98.85 92.96 10.71
1385 4.5570 89.84 92.97 10.33
1386 4.5590 88.51 92.98 10.08
1387 4.5610 110.54 92.99 11.21
1388 4.5630 89.21 93.00 10.08
1389 4.5650 107.13 93.01 11.14
1390 4.5670 79.85 93.02 9.77
1391 4.5690 90.15 93.03 10.15
1392 4.5710 93.96 93.04 10.41
1393 4.5730 70.22 93.05 8.90
1394 4.5750 90.99 93.06 10.27
1395 4.5770 105.47 93.07 11.18
1396 4.5790 87.83 93.09 10.10
1397 4.5810 94.12 93.10 10.39
1398 4.5830 86.93 93.11 9.96
1399 4.5850 91.89 93.12 10.30
1400 4.5870 107.96 93.13 11.33
1401 4.5890 102.28 93.14 10.85
1402 4.5910 108.59 93.15 11.18
1403 4.5930 91.15 93.16 10.17
1404 4.5950 95.11 93.17 10.41
1405 4.5970 84.30 93.18 10.02
1406 4.5990 87.03 93.20 10.08
1407 4.6010 82.30 93.21 9.68
1408 4.6030 94.51 93.22 10.35
1409 4.6050 84.56 93.23 9.82
1410 4.6070 106.53 93.24 11.26
1411 4.6090 82.75 93.25 9.81
1412 4.6110 81.99 93.27 9.71
1413 4.6130 84.28 93.28 9.74
1414 4.6150 87.58 93.29 10.06
1415 4.6170 82.35 93.30 9.87
1416 4.6190 87.27 93.31 10.00
1417 4.6210 106.45 93.33 11.06
1418 4.6230 89.99 93.34 10.10
1419 4.6250 92.82 93.35 10.24
1420 4.6270 83.69 93.36 9.94
1421 4.6290 92.44 93.38 10.35
1422 4.6310 109.77 93.39 11.21
1423 4.6330 85.79 93.40 9.85
1424 4.6350 87.81 93.41 10.02
1425 4.6370 93.55 93.43 10.45
1426 4.6390 95.07 93.44 10.49
1427 4.6410 93.26 93.45 10.38
1428 4.6430 87.86 93.47 10.00
1429 4.6450 93.53 93.48 10.31
1430 4.6470 94.15 93.49 10.53
1431 4.6490 93.07 93.50 10.38
1432 4.6510 84.93 93.52 9.85
1433 4.6530 103.50 93.53 10.82
1434 4.6550 89.43 93.54 10.12
1435 4.6570 91.42 93.56 10.33
1436 4.6590 89.37 93.57 10.16
1437 4.6610 120.65 93.59 11.74
1438 4.6630 102.61 93.60 10.84
1439 4.6650 99.03 93.61 10.65
1440 4.6670 79.28 93.63 9.57
1441 4.6690 96.66 93.64 10.53
1442 4.6710 95.53 93.66 10.45
1443 4.6730 116.10 93.67 11.43
1444 4.6750 86.32 93.68 9.94
1445 4.6770 83.64 93.70 9.91
1446 4.6790 92.79 93.71 10.34
1447 4.6810 87.75 93.73 10.01
1448 4.6830 92.18 93.74 10.20
1449 4.6850 71.51 93.76 9.04
1450 4.6870 100.71 93.77 10.77
1451 4.6890 99.20 93.79 10.71
1452 4.6910 87.65 93.80 9.98
1453 4.6930 77.00 93.81 9.32
1454 4.6950 96.86 93.83 10.54
1455 4.6970 103.70 93.84 11.00
1456 4.6990 110.86 93.86 11.26
1457 4.7010 99.34 93.87 10.69
1458 4.7030 89.68 93.89 10.05
1459 4.7050 91.74 93.91 10.23
1460 4.7070 94.57 93.92 10.51
1461 4.7090 100.73 93.94 10.78
1462 4.7110 102.50 93.95 10.82
1463 4.7130 97.35 93.97 10.50
1464 4.7150 110.96 93.98 11.26
1465 4.7170 101.97 94.00 10.89
1466 4.7190 93.63 94.01 10.39
1467 4.7210 106.87 94.03 11.06
1468 4.7230 122.69 94.05 11.78
1469 4.7250 108.90 94.06 11.10
1470 4.7270 92.29 94.08 10.37
1471 4.7290 100.06 94.09 10.78
1472 4.7310 102.53 94.11 10.78
1473 4.7330 112.32 94.13 11.25
1474 4.7350 98.47 94.14 10.59
1475 4.7370 102.31 94.16 10.89
1476 4.7390 95.62 94.17 10.53
1477 4.7410 94.69 94.19 10.39
1478 4.7430 105.84 94.21 10.97
1479 4.7450 102.65 94.22 10.78
1480 4.7470 114.95 94.24 11.55
1481 4.7490 103.91 94.26 10.96
1482 4.7510 80.04 94.27 9.52
1483 4.7530 96.44 94.29 10.44
1484 4.7550 93.81 94.31 10.30
1485 4.7570 96.27 94.32 10.62
1486 4.7590 109.08 94.34 11.21
1487 4.7610 109.73 94.36 11.21
1488 4.7630 113.71 94.38 11.34
1489 4.7650 81.38 94.39 9.65
1490 4.7670 111.94 94.41 11.40
1491 4.7690 89.12 94.43 10.18
1492 4.7710 101.15 94.45 10.82
1493 4.7730 113.87 94.46 11.28
1494 4.7750 89.90 94.48 10.12
1495 4.7770 104.61 94.50 11.10
1496 4.7790 131.38 94.52 12.35
1497 4.7810 107.90 94.53 11.07
1498 4.7830 104.63 94.55 10.88
1499 4.7850 113.57 94.57 11.38
1500 4.7870 114.87 94.59 11.52
1501 4.7890 77.82 94.60 9.50
1502 4.7910 102.01 94.62 10.88
1503 4.7930 116.53 94.64 11.49
1504 4.7950 104.49 94.66 10.90
1505 4.7970 108.94 94.68 11.34
1506 4.7990 124.19 94.70 12.00
1507 4.8010 107.32 94.71 11.10
1508 4.8030 131.02 94.73 12.16
1509 4.8050 103.84 94.75 10.90
1510 4.8070 118.13 94.77 11.75
1511 4.8090 127.47 94.79 12.10
1512 4.8110 114.49 94.81 11.40
1513 4.8130 113.63 94.82 11.37
1514 4.8150 112.97 94.84 11.29
1515 4.8170 123.89 94.86 12.02
1516 4.8190 115.46 94.88 11.53
1517 4.8210 112.68 94.90 11.31
1518 4.8230 113.67 94.92 11.33
1519 4.8250 131.19 94.94 12.28
1520 4.8270 130.58 108.76 12.28
1521 4.8290 119.92 109.91 11.78
1522 4.8310 109.89 111.22 11.21
1523 4.8330 126.46 112.69 11.94
1524 4.8350 130.84 114.37 12.20
1525 4.8370 134.95 116.30 12.56
1526 4.8390 150.08 132.22 13.14
1527 4.8410 138.61 135.92 12.48
1528 4.8430 132.01 140.21 12.30
1529 4.8450 144.12 145.23 12.76
1530 4.8470 168.70 151.14 13.96
1531 4.8490 186.68 158.19 14.75
1532 4.8510 210.08 166.70 15.52
1533 4.8530 237.01 177.11 16.29
1534 4.8550 239.45 190.23 16.60
1535 4.8570 254.72 206.68 17.23
1536 4.8590 288.90 228.04 18.22
1537 4.8610 297.75 256.59 18.42
1538 4.8630 336.19 296.15 19.57
1539 4.8650 343.90 353.74 19.67
1540 4.8670 432.35 442.96 22.45
1541 4.8690 535.91 595.23 24.92
1542 4.8710 821.00 905.24 30.63
1543 4.8730 1482.29 1777.65 41.40
1544 4.8750 3280.58 3706.56 62.37
1545 4.8770 7207.98 7456.46 95.83
1546 4.8790 11828.70 11745.80 126.33
1547 4.8810 7533.60 7072.42 97.55
1548 4.8830 3013.03 2758.96 59.78
1549 4.8850 2344.43 2194.65 52.28
1550 4.8870 3324.67 3420.85 63.45
1551 4.8890 6201.49 5792.29 88.28
1552 4.8910 10576.80 10713.00 117.83
1553 4.8930 9578.61 9716.44 111.29
1554 4.8950 3309.39 3302.37 62.64
1555 4.8970 1216.29 1409.93 37.81
1556 4.8990 707.52 840.58 28.69
1557 4.9010 475.20 589.81 23.30
1558 4.9030 392.59 469.23 21.01
1559 4.9050 392.05 414.52 21.01
1560 4.9070 382.51 420.02 21.13
1561 4.9090 387.66 373.90 21.15
1562 4.9110 256.77 273.38 17.03
1563 4.9130 264.03 241.45 17.27
1564 4.9150 241.02 239.21 16.44
1565 4.9170 281.78 251.72 18.20
1566 4.9190 250.96 216.38 16.97
1567 4.9210 205.22 175.60 17.51
1568 4.9230 165.74 159.94 17.26
1569 4.9250 139.75 151.00 17.54
1570 4.9270 135.19 144.50 16.59
1571 4.9290 127.26 139.37 15.83
1572 4.9310 145.76 135.14 15.66
1573 4.9330 105.84 131.57 14.78
1574 4.9350 121.79 116.97 14.37
1575 4.9370 110.00 115.10 13.66
1576 4.9390 125.12 113.49 12.98
1577 4.9410 130.92 112.08 13.09
1578 4.9430 127.09 110.85 12.45
1579 4.9450 109.12 109.77 13.04
1580 4.9470 124.02 108.80 13.46
1581 4.9490 125.23 96.69 13.37
1582 4.9510 121.67 96.67 12.67
1583 4.9530 99.08 96.65 13.33
1584 4.9550 123.14 96.63 12.77
1585 4.9570 98.39 96.63 10.74
1586 4.9590 117.15 96.62 11.60
1587 4.9610 118.45 96.62 11.64
1588 4.9630 122.13 96.62 11.74
1589 4.9650 117.88 96.49 11.60
1590 4.9670 114.35 96.51 11.65
1591 4.9690 121.63 96.53 11.91
1592 4.9710 107.14 96.54 11.01
1593 4.9730 108.41 96.56 11.11
1594 4.9750 110.17 96.51 11.21
1595 4.9770 103.16 96.53 11.00
1596 4.9790 114.29 96.55 11.46
1597 4.9810 105.22 96.58 10.99
1598 4.9830 107.06 96.60 11.00
1599 4.9850 104.76 96.62 10.89
1600 4.9870 117.99 96.64 11.77
1601 4.9890 112.04 96.67 11.41
1602 4.9910 101.85 96.69 10.73
1603 4.9930 125.80 96.71 11.93
1604 4.9950 128.24 96.74 12.11
1605 4.9970 124.73 96.76 12.13
1606 4.9990 104.44 96.78 10.99
1607 5.0010 112.70 96.81 11.31
1608 5.0030 108.08 96.83 11.07
1609 5.0050 103.03 96.85 10.80
1610 5.0070 94.95 96.88 10.57
1611 5.0090 98.61 96.90 10.69
1612 5.0110 123.80 96.92 11.84
1613 5.0130 101.25 96.95 10.72
1614 5.0150 82.26 96.97 9.63
1615 5.0170 92.27 96.99 10.44
1616 5.0190 97.28 97.02 10.61
1617 5.0210 145.43 97.04 12.80
1618 5.0230 98.54 97.06 10.56
1619 5.0250 121.99 97.09 11.81
1620 5.0270 96.34 97.11 10.65
1621 5.0290 112.63 97.13 11.45
1622 5.0310 101.56 97.16 10.78
1623 5.0330 131.50 97.18 12.16
1624 5.0350 116.28 97.20 11.52
1625 5.0370 101.28 97.23 10.93
1626 5.0390 87.01 97.25 10.06
1627 5.0410 121.59 97.28 11.73
1628 5.0430 99.72 97.30 10.64
1629 5.0450 104.20 97.32 10.88
1630 5.0470 80.79 97.35 9.81
1631 5.0490 100.62 97.37 10.81
1632 5.0510 110.84 97.40 11.20
1633 5.0530 78.78 97.42 9.42
1634 5.0550 106.06 97.44 11.01
1635 5.0570 83.08 97.47 9.86
1636 5.0590 90.75 97.49 10.24
1637 5.0610 94.44 97.52 10.39
1638 5.0630 92.79 97.54 10.22
1639 5.0650 94.81 97.56 10.39
1640 5.0670 122.58 97.59 12.00
1641 5.0690 111.31 97.61 11.31
1642 5.0710 91.94 97.64 10.18
1643 5.0730 74.43 97.66 9.16
1644 5.0750 96.50 97.69 10.51
1645 5.0770 100.38 97.71 10.81
1646 5.0790 102.46 97.73 10.89
1647 5.0810 99.28 97.76 10.59
1648 5.0830 119.73 97.78 11.56
1649 5.0850 94.99 97.81 10.37
1650 5.0870 97.58 97.83 10.71
1651 5.0890 76.07 97.86 9.36
1652 5.0910 96.64 97.88 10.41
1653 5.0930 90.40 97.91 10.07
1654 5.0950 110.91 97.93 11.20
1655 5.0970 111.70 97.96 11.43
1656 5.0990 89.87 97.98 10.10
1657 5.1010 81.22 98.00 9.58
1658 5.1030 107.92 98.03 11.03
1659 5.1050 93.00 98.05 10.22
1660 5.1070 88.22 98.08 10.12
1661 5.1090 121.53 98.10 11.86
1662 5.1110 96.22 98.13 10.42
1663 5.1130 93.89 98.15 10.27
1664 5.1150 106.57 98.18 10.98
1665 5.1170 108.03 98.20 11.27
1666 5.1190 110.51 98.23 11.26
1667 5.1210 100.18 98.25 10.67
1668 5.1230 90.92 98.28 10.12
1669 5.1250 99.33 98.30 10.63
1670 5.1270 97.98 98.33 10.68
1671 5.1290 95.28 98.35 10.48
1672 5.1310 89.51 98.38 10.05
1673 5.1330 98.35 98.40 10.52
1674 5.1350 92.47 98.43 10.20
1675 5.1370 82.30 98.45 9.82
1676 5.1390 100.86 98.48 10.79
1677 5.1410 88.45 98.50 10.00
1678 5.1430 103.28 98.53 10.68
1679 5.1450 85.54 98.55 9.90
1680 5.1470 121.17 98.58 11.85
1681 5.1490 95.86 98.60 10.48
1682 5.1510 91.87 98.63 10.16
1683 5.1530 98.18 98.66 10.48
1684 5.1550 103.46 98.68 10.84
1685 5.1570 94.21 98.71 10.45
1686 5.1590 82.51 98.73 9.74
1687 5.1610 90.03 98.76 10.08
1688 5.1630 85.52 98.78 9.77
1689 5.1650 92.18 98.81 10.30
1690 5.1670 92.88 98.83 10.46
1691 5.1690 92.51 98.86 10.28
1692 5.1710 79.60 98.88 9.46
1693 5.1730 92.24 98.91 10.21
1694 5.1750 99.76 98.93 10.64
1695 5.1770 111.88 98.96 11.45
1696 5.1790 72.75 98.99 9.14
1697 5.1810 87.18 99.01 9.91
1698 5.1830 75.90 99.04 9.20
1699 5.1850 80.66 99.06 9.64
1700 5.1870 73.46 99.09 9.29
1701 5.1890 95.66 99.11 10.48
1702 5.1910 100.67 99.14 10.52
1703 5.1930 92.18 99.16 10.14
1704 5.1950 92.31 99.19 10.30
1705 5.1970 103.14 99.22 10.99
1706 5.1990 99.72 99.24 10.65
1707 5.2010 97.41 99.27 10.46
1708 5.2030 87.12 99.29 9.86
1709 5.2050 93.15 99.32 10.38
1710 5.2070 112.86 99.34 11.56
1711 5.2090 110.30 99.37 11.17
1712 5.2110 79.66 99.40 9.44
1713 5.2130 89.70 99.42 10.01
1714 5.2150 113.39 99.45 11.50
1715 5.2170 85.28 99.47 10.01
1716 5.2190 89.00 99.50 10.05
1717 5.2210 98.85 99.52 10.54
1718 5.2230 94.16 99.55 10.25
1719 5.2250 80.61 99.58 9.66
1720 5.2270 93.97 99.60 10.54
1721 5.2290 83.37 99.63 9.67
1722 5.2310 101.73 101.62 10.65
1723 5.2330 91.63 101.81 10.10
1724 5.2350 96.88 102.03 10.67
1725 5.2370 110.35 102.26 11.41
1726 5.2390 83.47 102.53 9.74
1727 5.2410 105.34 102.84 10.85
1728 5.2430 91.24 103.18 10.08
1729 5.2450 90.99 103.59 10.33
1730 5.2470 97.55 104.06 10.73
1731 5.2490 104.40 104.61 10.92
1732 5.2510 99.26 105.28 10.51
1733 5.2530 93.18 106.07 10.21
1734 5.2550 88.74 107.05 10.27
1735 5.2570 110.59 108.27 11.40
1736 5.2590 96.21 109.82 10.49
1737 5.2610 107.40 111.84 11.03
1738 5.2630 91.23 114.53 10.13
1739 5.2650 136.99 118.25 12.70
1740 5.2670 119.86 123.61 11.93
1741 5.2690 134.46 131.74 12.38
1742 5.2710 115.88 145.02 11.44
1743 5.2730 130.27 169.24 12.08
1744 5.2750 211.94 223.60 15.80
1745 5.2770 326.88 387.92 19.70
1746 5.2790 707.60 711.81 28.40
1747 5.2810 1422.94 1425.74 40.33
1748 5.2830 1656.72 1649.32 43.52
1749 5.2850 682.04 648.48 28.25
1750 5.2870 321.67 296.85 19.47
1751 5.2890 174.09 201.28 14.19
1752 5.2910 153.67 161.85 13.12
1753 5.2930 147.85 141.70 12.86
1754 5.2950 128.81 130.07 12.34
1755 5.2970 129.88 122.77 12.40
1756 5.2990 104.48 118.22 10.91
1757 5.3010 104.88 114.82 10.89
1758 5.3030 102.32 112.36 10.69
1759 5.3050 105.69 110.54 11.18
1760 5.3070 100.86 109.32 10.92
1761 5.3090 94.58 108.26 10.43
1762 5.3110 101.78 107.43 10.73
1763 5.3130 86.86 106.79 9.81
1764 5.3150 110.33 106.28 11.44
1765 5.3170 91.85 105.90 10.40
1766 5.3190 96.88 105.61 10.54
1767 5.3210 95.73 105.41 10.37
1768 5.3230 116.91 105.29 11.45
1769 5.3250 115.22 105.25 11.62
1770 5.3270 104.36 105.29 11.11
1771 5.3290 109.84 105.43 11.20
1772 5.3310 89.19 105.68 10.04
1773 5.3330 93.18 106.07 10.18
1774 5.3350 114.05 106.68 11.58
1775 5.3370 107.96 107.58 11.27
1776 5.3390 122.13 107.42 11.78
1777 5.3410 100.28 109.76 10.62
1778 5.3430 118.26 113.75 11.51
1779 5.3450 108.99 121.77 11.28
1780 5.3470 127.41 143.48 12.24
1781 5.3490 190.61 196.84 14.72
1782 5.3510 299.81 301.61 18.37
1783 5.3530 457.02 402.06 22.57
1784 5.3550 269.65 257.85 17.84
1785 5.3570 175.22 185.69 14.41
1786 5.3590 220.06 200.82 15.87
1787 5.3610 275.33 258.82 17.58
1788 5.3630 220.43 218.90 15.78
1789 5.3650 133.52 142.48 12.47
1790 5.3670 98.95 120.65 10.87
1791 5.3690 105.15 113.10 10.96
1792 5.3710 103.62 109.43 10.84
1793 5.3730 106.21 107.33 10.85
1794 5.3750 95.95 106.01 10.64
1795 5.3770 95.79 105.12 10.71
1796 5.3790 97.88 104.49 10.57
1797 5.3810 101.49 104.04 10.77
1798 5.3830 96.30 103.69 10.42
1799 5.3850 102.41 103.43 10.97
1800 5.3870 95.32 103.22 10.62
1801 5.3890 87.37 103.06 10.04
1802 5.3910 94.25 102.93 10.32
1803 5.3930 82.97 102.82 9.68
1804 5.3950 113.74 102.74 11.58
1805 5.3970 84.92 102.67 10.06
1806 5.3990 99.16 102.62 10.64
1807 5.4010 96.15 102.57 10.43
1808 5.4030 89.34 102.54 10.04
1809 5.4050 83.30 102.51 9.84
1810 5.4070 99.03 102.49 10.83
1811 5.4090 83.57 102.18 9.84
1812 5.4110 107.94 102.19 11.05
1813 5.4130 107.86 102.20 11.02
1814 5.4150 98.33 102.21 10.69
1815 5.4170 109.47 102.23 11.38
1816 5.4190 82.67 102.09 9.76
1817 5.4210 89.41 102.12 10.02
1818 5.4230 107.09 102.14 11.00
1819 5.4250 83.28 102.17 9.87
1820 5.4270 117.90 102.19 11.88
1821 5.4290 112.28 102.22 11.34
1822 5.4310 101.05 102.24 10.70
1823 5.4330 96.24 102.27 10.37
1824 5.4350 77.72 102.29 9.50
1825 5.4370 101.12 102.32 10.96
1826 5.4390 81.05 102.35 9.63
1827 5.4410 97.23 102.37 10.51
1828 5.4430 85.10 102.40 9.82
1829 5.4450 102.15 102.42 10.90
1830 5.4470 86.80 102.45 10.12
1831 5.4490 95.25 102.47 10.52
1832 5.4510 89.05 102.50 10.01
1833 5.4530 80.85 102.52 9.55
1834 5.4550 89.76 102.55 10.18
1835 5.4570 102.39 102.57 11.05
1836 5.4590 96.13 102.60 10.50
1837 5.4610 102.17 102.63 10.81
1838 5.4630 104.07 102.65 10.82
1839 5.4650 95.17 102.68 10.50
1840 5.4670 77.37 102.70 9.58
1841 5.4690 82.56 102.73 9.76
1842 5.4710 81.68 102.75 9.66
1843 5.4730 108.38 102.78 11.00
1844 5.4750 100.09 102.80 10.80
1845 5.4770 95.82 102.83 10.65
1846 5.4790 108.82 102.85 11.22
1847 5.4810 108.45 102.88 11.07
1848 5.4830 74.59 102.90 9.23
1849 5.4850 95.24 102.93 10.48
1850 5.4870 97.83 102.95 10.75
1851 5.4890 90.27 102.98 10.25
1852 5.4910 106.35 103.00 11.01
1853 5.4930 102.16 103.03 10.66
1854 5.4950 96.65 103.05 10.55
1855 5.4970 87.12 103.08 10.14
1856 5.4990 105.35 103.10 11.03
1857 5.5010 96.50 103.13 10.47
1858 5.5030 99.68 103.15 10.63
1859 5.5050 88.17 103.18 10.06
1860 5.5070 107.77 103.20 11.27
1861 5.5090 88.22 103.23 10.11
1862 5.5110 110.09 103.25 11.14
1863 5.5130 85.07 103.28 9.80
1864 5.5150 93.20 103.30 10.37
1865 5.5170 96.45 103.33 10.60
1866 5.5190 78.94 103.35 9.54
1867 5.5210 88.01 103.38 10.01
1868 5.5230 91.77 103.40 10.12
1869 5.5250 87.81 103.43 10.08
1870 5.5270 90.35 103.45 10.32
1871 5.5290 101.53 103.47 10.83
1872 5.5310 89.03 103.50 10.06
1873 5.5330 85.67 103.52 9.81
1874 5.5350 96.78 103.55 10.62
1875 5.5370 94.57 103.57 10.49
1876 5.5390 94.01 103.60 10.39
1877 5.5410 88.12 103.62 10.01
1878 5.5430 87.49 103.65 9.90
1879 5.5450 109.97 103.67 11.23
1880 5.5470 107.62 103.69 11.23
1881 5.5490 93.65 103.72 10.42
1882 5.5510 87.57 103.74 9.93
1883 5.5530 83.91 103.77 9.78
1884 5.5550 96.27 103.79 10.53
1885 5.5570 102.08 103.82 10.96
1886 5.5590 119.76 103.84 11.76
1887 5.5610 105.23 103.86 10.95
1888 5.5630 95.32 103.89 10.36
1889 5.5650 109.02 103.91 11.20
1890 5.5670 103.00 103.94 10.96
1891 5.5690 88.01 103.96 10.08
1892 5.5710 92.34 103.99 10.27
1893 5.5730 88.76 104.01 9.95
1894 5.5750 107.52 104.03 11.12
1895 5.5770 112.68 104.06 11.53
1896 5.5790 120.19 104.08 11.77
1897 5.5810 125.20 104.11 11.93
1898 5.5830 133.52 104.13 12.26
1899 5.5850 102.43 104.15 10.85
1900 5.5870 104.91 104.18 11.05
1901 5.5890 105.08 104.20 11.06
1902 5.5910 103.08 104.22 10.81
1903 5.5930 94.63 104.25 10.36
1904 5.5950 91.36 104.27 10.24
1905 5.5970 93.32 104.29 10.43
1906 5.5990 87.19 104.32 10.02
1907 5.6010 91.84 104.34 10.20
1908 5.6030 116.37 104.36 11.52
1909 5.6050 94.01 104.39 10.35
1910 5.6070 115.12 104.41 11.62
1911 5.6090 84.38 104.43 9.94
1912 5.6110 102.80 104.46 10.81
1913 5.6130 104.89 104.48 10.80
1914 5.6150 90.45 104.50 10.22
1915 5.6170 101.55 104.53 10.88
1916 5.6190 101.00 104.55 10.79
1917 5.6210 97.87 104.57 10.58
1918 5.6230 81.75 104.60 9.65
1919 5.6250 90.62 104.62 10.20
1920 5.6270 90.59 104.64 10.29
1921 5.6290 101.55 104.67 10.89
1922 5.6310 99.86 104.69 10.64
1923 5.6330 103.12 104.71 10.77
1924 5.6350 106.27 104.74 11.04
1925 5.6370 81.88 104.76 9.83
1926 5.6390 103.72 104.78 10.95
1927 5.6410 93.92 104.81 10.39
1928 5.6430 101.51 104.83 10.69
1929 5.6450 85.45 104.85 9.88
1930 5.6470 112.44 104.87 11.46
1931 5.6490 114.25 104.90 11.52
1932 5.6510 93.15 104.92 10.31
1933 5.6530 103.16 104.94 10.81
1934 5.6550 115.81 104.96 11.51
1935 5.6570 82.96 104.99 9.87
1936 5.6590 88.07 105.01 10.11
1937 5.6610 103.35 105.03 10.88
1938 5.6630 106.79 105.05 10.94
1939 5.6650 98.60 105.08 10.65
1940 5.6670 121.22 105.10 11.87
1941 5.6690 85.71 105.12 9.96
1942 5.6710 94.05 105.14 10.35
1943 5.6730 94.40 105.17 10.35
1944 5.6750 113.55 105.19 11.36
1945 5.6770 101.82 105.21 10.87
1946 5.6790 95.84 105.23 10.55
1947 5.6810 104.80 105.25 10.95
1948 5.6830 101.10 105.28 10.65
1949 5.6850 95.82 105.30 10.47
1950 5.6870 105.49 105.32 11.08
1951 5.6890 87.36 105.34 10.10
1952 5.6910 87.78 105.36 9.99
1953 5.6930 102.76 105.38 10.77
1954 5.6950 95.25 105.41 10.44
1955 5.6970 108.52 105.43 11.27
1956 5.6990 103.27 105.45 10.92
1957 5.7010 97.15 105.47 10.60
1958 5.7030 83.99 105.49 9.68
1959 5.7050 91.74 105.51 10.26
1960 5.7070 117.31 105.54 11.66
1961 5.7090 71.07 105.56 9.13
1962 5.7110 94.32 105.58 10.34
1963 5.7130 108.16 105.60 11.03
1964 5.7150 92.50 105.62 10.33
1965 5.7170 88.42 105.64 10.14
1966 5.7190 95.89 105.66 10.50
1967 5.7210 119.63 105.68 11.72
1968 5.7230 114.92 105.71 11.33
1969 5.7250 99.36 105.73 10.63
1970 5.7270 84.70 105.75 10.00
1971 5.7290 94.05 105.77 10.43
1972 5.7310 103.00 105.79 10.78
1973 5.7330 88.19 105.81 9.96
1974 5.7350 97.42 105.83 10.58
1975 5.7370 88.75 105.85 10.12
1976 5.7390 99.51 105.87 10.73
1977 5.7410 88.29 105.89 10.01
1978 5.7430 87.89 105.91 9.94
1979 5.7450 74.46 105.93 9.22
1980 5.7470 74.54 105.96 9.36
1981 5.7490 95.03 105.98 10.45
1982 5.7510 101.85 106.00 10.74
1983 5.7530 86.62 106.02 9.86
1984 5.7550 87.44 106.04 10.01
1985 5.7570 77.17 106.06 9.53
1986 5.7590 87.67 106.08 10.08
1987 5.7610 101.85 106.10 10.76
1988 5.7630 106.18 106.12 10.94
1989 5.7650 102.33 106.14 10.78
1990 5.7670 99.67 106.16 10.79
1991 5.7690 88.15 106.18 10.13
1992 5.7710 102.79 106.20 10.85
1993 5.7730 106.08 106.22 10.90
1994 5.7750 99.99 106.24 10.69
1995 5.7770 91.40 106.26 10.35
1996 5.7790 88.38 106.28 10.14
1997 5.7810 77.37 106.30 9.38
1998 5.7830 98.14 106.32 10.55
1999 5.7850 89.85 106.34 10.10
2000 5.7870 103.48 106.36 10.99
2001 5.7890 102.11 106.38 10.90
2002 5.7910 92.28 106.39 10.28
2003 5.7930 91.57 106.41 10.16
2004 5.7950 116.74 106.43 11.53
2005 5.7970 95.51 106.45 10.59
2006 5.7990 102.24 106.47 10.86
2007 5.8010 88.98 106.49 10.09
2008 5.8030 79.17 106.51 9.44
2009 5.8050 87.48 106.53 10.01
2010 5.8070 93.20 106.55 10.41
2011 5.8090 102.56 106.57 10.89
2012 5.8110 88.37 106.59 10.08
2013 5.8130 90.69 106.61 10.09
2014 5.8150 88.63 106.62 10.06
2015 5.8170 96.25 106.64 10.60
2016 5.8190 86.83 106.66 10.07
2017 5.8210 107.71 106.68 11.11
2018 5.8230 97.20 106.70 10.50
2019 5.8250 113.16 106.72 11.28
2020 5.8270 78.80 106.74 9.59
2021 5.8290 94.99 106.75 10.50
2022 5.8310 106.67 106.77 11.04
2023 5.8330 92.75 106.79 10.18
2024 5.8350 100.58 106.81 10.72
2025 5.8370 92.92 106.83 10.43
2026 5.8390 82.83 106.84 9.78
2027 5.8410 87.26 106.86 10.03
2028 5.8430 86.78 106.88 9.89
2029 5.8450 83.19 106.90 9.73
2030 5.8470 91.36 106.92 10.36
2031 5.8490 105.33 106.93 11.04
2032 5.8510 93.10 106.95 10.35
2033 5.8530 95.33 106.97 10.32
2034 5.8550 87.20 106.99 9.98
2035 5.8570 104.10 107.00 11.00
2036 5.8590 112.59 107.02 11.40
2037 5.8610 95.02 107.04 10.46
2038 5.8630 89.28 107.06 10.01
2039 5.8650 111.42 107.07 11.23
2040 5.8670 88.03 107.09 10.17
2041 5.8690 92.40 107.11 10.36
2042 5.8710 116.63 107.13 11.53
2043 5.8730 103.33 107.14 10.78
2044 5.8750 109.62 107.16 11.16
2045 5.8770 79.08 107.18 9.60
2046 5.8790 88.81 107.19 10.15
2047 5.8810 78.18 107.21 9.46
2048 5.8830 96.19 107.23 10.44
2049 5.8850 89.55 107.25 10.02
2050 5.8870 106.06 107.26 11.06
2051 5.8890 104.40 107.28 11.07
2052 5.8910 96.26 107.29 10.48
2053 5.8930 98.21 107.31 10.52
2054 5.8950 101.34 107.33 10.72
2055 5.8970 84.50 107.34 9.93
2056 5.8990 98.39 107.36 10.69
2057 5.9010 90.18 107.38 10.14
2058 5.9030 99.56 107.39 10.60
2059 5.9050 87.72 107.41 9.99
2060 5.9070 90.94 107.43 10.27
2061 5.9090 111.18 107.44 11.42
2062 5.9110 79.06 107.46 9.49
2063 5.9130 124.00 107.47 11.85
2064 5.9150 112.56 107.49 11.30
2065 5.9170 102.24 107.50 10.96
2066 5.9190 93.38 107.52 10.37
2067 5.9210 99.75 107.54 10.71
2068 5.9230 102.06 107.55 10.68
2069 5.9250 102.56 107.57 10.79
2070 5.9270 88.80 107.58 10.21
2071 5.9290 105.79 107.60 11.04
2072 5.9310 101.62 107.61 10.81
2073 5.9330 117.91 107.63 11.54
2074 5.9350 101.03 107.64 10.67
2075 5.9370 96.17 107.66 10.60
2076 5.9390 106.64 107.67 11.15
2077 5.9410 95.72 107.69 10.46
2078 5.9430 93.53 107.70 10.24
2079 5.9450 101.34 107.72 10.76
2080 5.9470 107.31 107.73 11.17
2081 5.9490 97.14 107.75 10.59
2082 5.9510 91.22 107.76 10.26
2083 5.9530 106.12 107.78 10.93
2084 5.9550 105.75 107.79 10.91
2085 5.9570 105.24 107.81 11.09
2086 5.9590 78.77 107.82 9.60
2087 5.9610 92.59 107.84 10.26
2088 5.9630 97.41 107.85 10.50
2089 5.9650 91.39 107.86 10.18
2090 5.9670 102.08 107.88 8.67
2091 5.9690 104.54 107.89 8.09
2092 5.9710 110.30 107.91 9.14
2093 5.9730 108.84 107.92 9.29
2094 5.9750 100.24 107.93 9.32
2095 5.9770 112.11 107.95 10.10
2096 5.9790 99.88 107.96 9.50
2097 5.9810 95.32 107.98 9.38
2098 5.9830 109.85 107.99 10.00
2099 5.9850 97.16 108.00 9.56
2100 5.9870 120.62 108.02 10.87
2101 5.9890 90.16 108.03 9.37
2102 5.9910 98.29 108.04 9.68
2103 5.9930 102.15 108.06 9.85
2104 5.9950 105.39 108.07 10.12
2105 5.9970 126.06 108.08 11.32
2106 5.9990 121.87 108.10 11.04
2107 6.0010 100.11 108.11 9.90
2108 6.0030 111.78 108.12 10.39
2109 6.0050 108.74 108.14 10.40
2110 6.0070 110.19 108.15 10.63
2111 6.0090 112.53 108.16 10.73
2112 6.0110 104.86 108.17 10.24
2113 6.0130 108.81 108.18 10.29
2114 6.0150 105.00 108.20 10.23
2115 6.0170 89.93 108.21 9.68
2116 6.0190 112.86 108.22 10.66
2117 6.0210 114.05 108.24 10.67
2118 6.0230 116.06 108.25 10.65
2119 6.0250 113.33 108.26 10.68
2120 6.0270 108.52 108.27 10.52
2121 6.0290 121.08 108.28 11.16
2122 6.0310 122.86 108.29 11.06
2123 6.0330 100.16 108.31 9.90
2124 6.0350 106.33 108.32 10.25
2125 6.0370 133.99 108.33 11.77
2126 6.0390 128.41 108.34 11.38
2127 6.0410 132.41 108.35 11.44
2128 6.0430 122.89 108.36 10.97
2129 6.0450 127.78 108.38 11.32
2130 6.0470 124.28 108.39 11.32
2131 6.0490 147.16 108.40 12.27
2132 6.0510 142.07 108.41 11.88
2133 6.0530 154.51 108.42 12.30
2134 6.0550 151.43 108.43 12.27
2135 6.0570 138.91 108.44 11.96
2136 6.0590 152.33 108.46 12.49
2137 6.0610 162.13 108.47 12.71
2138 6.0630 170.71 108.48 12.89
2139 6.0650 155.40 108.49 14.74
2140 6.0670 191.71 108.50 14.05
2141 6.0690 181.41 121.42 14.25
2142 6.0710 184.30 122.42 14.98
2143 6.0730 194.56 123.54 13.84
2144 6.0750 192.99 124.81 13.85
2145 6.0770 202.35 138.37 14.37
2146 6.0790 202.65 140.89 14.30
2147 6.0810 180.53 143.74 13.42
2148 6.0830 216.41 146.99 14.62
2149 6.0850 202.16 150.70 14.17
2150 6.0870 211.13 155.00 14.68
2151 6.0890 194.72 159.99 14.09
2152 6.0910 190.23 165.84 13.75
2153 6.0930 178.28 172.77 13.21
2154 6.0950 221.04 181.07 14.88
2155 6.0970 214.05 191.12 14.85
2156 6.0990 228.58 203.47 15.21
2157 6.1010 221.94 218.90 14.90
2158 6.1030 239.49 238.58 15.31
2159 6.1050 260.61 264.25 16.08
2160 6.1070 300.77 298.74 17.56
2161 6.1090 323.57 346.82 18.06
2162 6.1110 401.36 417.05 20.02
2163 6.1130 507.19 526.56 22.25
2164 6.1150 676.97 713.89 26.07
2165 6.1170 973.15 1088.07 31.59
2166 6.1190 1908.28 2064.59 44.32
2167 6.1210 4301.80 4554.18 67.08
2168 6.1230 9303.70 9426.65 102.26
2169 6.1250 11056.90 11238.50 112.95
2170 6.1270 5179.29 4972.57 75.18
2171 6.1290 3433.20 3319.38 59.96
2172 6.1310 4841.14 4851.88 71.87
2173 6.1330 8702.18 8910.94 97.34
2174 6.1350 10519.90 10776.30 109.82
2175 6.1370 4442.81 4614.70 69.33
2176 6.1390 1842.91 1890.39 43.57
2177 6.1410 964.12 1062.54 30.99
2178 6.1430 682.52 712.74 25.87
2179 6.1450 485.43 528.90 22.02
2180 6.1470 420.51 419.67 20.62
2181 6.1490 321.32 349.08 18.01
2182 6.1510 287.30 300.64 16.85
2183 6.1530 267.93 265.83 16.19
2184 6.1550 235.36 239.90 15.18
2185 6.1570 237.72 220.04 15.69
2186 6.1590 225.04 226.79 15.03
2187 6.1610 227.09 216.01 14.97
2188 6.1630 187.30 207.75 13.61
2189 6.1650 203.51 201.50 14.16
2190 6.1670 210.66 196.89 14.65
2191 6.1690 202.47 193.69 14.33
2192 6.1710 238.97 191.73 15.40
2193 6.1730 227.95 190.93 14.92
2194 6.1750 223.00 191.24 14.83
2195 6.1770 235.62 192.68 15.55
2196 6.1790 250.75 195.33 15.93
2197 6.1810 253.95 199.30 15.84
2198 6.1830 246.76 193.62 15.55
2199 6.1850 287.82 201.69 16.96
2200 6.1870 262.08 211.96 16.45
2201 6.1890 258.57 225.07 16.16
2202 6.1910 252.20 241.94 15.82
2203 6.1930 317.02 263.94 17.61
2204 6.1950 315.61 282.50 17.77
2205 6.1970 410.08 322.94 20.60
2206 6.1990 495.24 379.40 22.30
2207 6.2010 547.81 461.68 23.31
2208 6.2030 741.89 588.35 27.09
2209 6.2050 969.37 798.74 31.20
2210 6.2070 1374.48 1189.19 37.89
2211 6.2090 2306.98 2071.19 49.12
2212 6.2110 4582.10 4599.70 69.55
2213 6.2130 10548.00 10123.50 108.93
2214 6.2150 19207.10 18968.80 157.38
2215 6.2170 14690.30 13874.70 135.33
2216 6.2190 4750.90 4812.33 71.52
2217 6.2210 1947.51 2155.19 44.56
2218 6.2230 1120.31 1253.63 33.45
2219 6.2250 713.90 838.02 26.74
2220 6.2270 547.87 612.99 23.78
2221 6.2290 482.51 477.97 22.17
2222 6.2310 397.35 390.68 19.82
2223 6.2330 327.02 331.05 17.87
2224 6.2350 347.77 288.53 18.78
2225 6.2370 310.65 257.16 17.86
2226 6.2390 281.07 233.34 16.81
2227 6.2410 314.70 214.84 17.66
2228 6.2430 286.18 200.19 16.89
2229 6.2450 217.21 188.39 17.82
2230 6.2470 237.63 178.74 17.51
2231 6.2490 229.32 170.76 18.29
2232 6.2510 206.38 164.07 16.84
2233 6.2530 193.41 158.41 16.45
2234 6.2550 159.26 153.59 16.68
2235 6.2570 175.85 149.45 15.97
2236 6.2590 155.53 145.86 15.13
2237 6.2610 173.76 142.73 14.57
2238 6.2630 153.23 139.98 13.79
2239 6.2650 122.79 137.56 11.16
2240 6.2670 167.32 135.41 13.06
2241 6.2690 159.05 133.50 12.76
2242 6.2710 150.91 131.79 12.31
2243 6.2730 142.95 130.26 11.86
2244 6.2750 146.95 109.18 12.10
2245 6.2770 124.85 109.18 11.34
2246 6.2790 109.29 109.19 10.55
2247 6.2810 131.41 109.19 11.37
2248 6.2830 122.41 109.19 10.97
2249 6.2850 139.39 109.19 11.77
2250 6.2870 129.98 109.19 11.52
2251 6.2890 108.95 109.20 10.48
2252 6.2910 125.98 109.20 11.19
2253 6.2930 113.53 109.20 10.57
2254 6.2950 114.72 109.20 10.71
2255 6.2970 115.73 109.20 10.87
2256 6.2990 124.63 109.21 11.22
2257 6.3010 104.35 109.21 10.21
2258 6.3030 111.34 109.21 10.47
2259 6.3050 126.28 109.21 11.23
2260 6.3070 113.66 109.21 10.80
2261 6.3090 114.27 109.21 10.78
2262 6.3110 96.24 109.21 9.74
2263 6.3130 117.87 109.21 10.79
2264 6.3150 120.10 109.21 10.99
2265 6.3170 121.70 109.21 11.14
2266 6.3190 119.75 109.21 11.03
2267 6.3210 129.33 109.21 11.33
2268 6.3230 130.17 109.21 11.36
2269 6.3250 103.93 109.22 10.16
2270 6.3270 123.99 109.22 11.21
2271 6.3290 120.24 109.22 11.02
2272 6.3310 125.74 109.22 11.18
2273 6.3330 128.81 109.22 11.20
2274 6.3350 136.36 109.22 11.73
2275 6.3370 120.92 109.22 11.14
2276 6.3390 120.75 109.21 11.05
2277 6.3410 128.07 109.21 11.25
2278 6.3430 124.22 109.21 11.12
2279 6.3450 129.56 109.21 11.31
2280 6.3470 136.69 109.21 11.79
2281 6.3490 118.29 125.21 10.94
2282 6.3510 121.89 126.33 10.97
2283 6.3530 117.02 127.59 10.73
2284 6.3550 122.61 128.98 11.08
2285 6.3570 113.17 130.54 10.75
2286 6.3590 115.64 132.29 10.74
2287 6.3610 124.91 134.27 11.17
2288 6.3630 139.20 136.51 11.69
2289 6.3650 159.25 139.07 12.62
2290 6.3670 145.20 142.01 12.12
2291 6.3690 130.47 145.40 11.52
2292 6.3710 171.43 149.34 13.00
2293 6.3730 149.78 153.97 12.15
2294 6.3750 179.25 159.45 14.05
2295 6.3770 163.04 165.99 15.05
2296 6.3790 153.17 173.91 17.06
2297 6.3810 181.16 183.61 19.39
2298 6.3830 177.70 195.66 21.69
2299 6.3850 193.54 210.91 24.29
2300 6.3870 216.35 230.58 25.04
2301 6.3890 240.21 256.55 24.29
2302 6.3910 337.61 291.87 23.02
2303 6.3930 407.65 341.63 22.75
2304 6.3950 507.60 414.92 23.86
2305 6.3970 638.99 529.41 25.87
2306 6.3990 787.99 723.25 28.18
2307 6.4010 1123.37 1094.04 33.47
2308 6.4030 1866.50 1971.03 43.29
2309 6.4050 4032.92 4391.13 65.07
2310 6.4070 9385.61 9302.21 103.98
2311 6.4090 14587.00 14365.80 133.14
2312 6.4110 7921.51 7974.44 93.51
2313 6.4130 2937.83 3002.62 54.85
2314 6.4150 1573.30 1487.95 39.78
2315 6.4170 880.61 916.78 29.98
2316 6.4190 644.02 637.85 25.45
2317 6.4210 475.71 481.45 21.68
2318 6.4230 401.21 385.27 19.90
2319 6.4250 320.71 321.98 17.82
2320 6.4270 228.23 278.19 15.21
2321 6.4290 206.24 246.62 14.39
2322 6.4310 196.07 223.12 13.90
2323 6.4330 179.98 205.16 13.31
2324 6.4350 188.57 191.14 13.66
2325 6.4370 153.71 179.97 12.45
2326 6.4390 125.24 170.93 11.10
2327 6.4410 144.88 163.52 11.99
2328 6.4430 134.40 157.36 11.48
2329 6.4450 128.42 152.19 11.24
2330 6.4470 111.02 147.80 10.60
2331 6.4490 108.17 144.05 10.40
2332 6.4510 122.94 141.27 10.97
2333 6.4530 122.63 138.50 10.94
2334 6.4550 111.31 136.08 10.52
2335 6.4570 114.15 133.97 10.69
2336 6.4590 122.08 132.25 11.03
2337 6.4610 126.27 130.63 11.21
2338 6.4630 130.48 129.19 11.33
2339 6.4650 129.15 127.92 11.35
2340 6.4670 117.65 126.80 10.96
2341 6.4690 116.05 125.81 10.80
2342 6.4710 117.70 124.94 10.79
2343 6.4730 125.46 110.43 11.16
2344 6.4750 134.22 110.60 11.57
2345 6.4770 122.91 110.80 11.17
2346 6.4790 111.95 111.05 10.60
2347 6.4810 123.20 111.35 11.08
2348 6.4830 145.29 111.72 11.95
2349 6.4850 101.11 112.20 10.05
2350 6.4870 120.01 112.81 11.16
2351 6.4890 133.31 113.63 11.54
2352 6.4910 134.54 114.74 11.56
2353 6.4930 121.44 116.32 10.92
2354 6.4950 127.23 118.67 11.37
2355 6.4970 119.42 122.38 11.03
2356 6.4990 123.05 128.82 11.06
2357 6.5010 136.25 141.70 11.70
2358 6.5030 170.12 174.66 12.97
2359 6.5050 232.48 263.54 15.21
2360 6.5070 416.04 435.72 20.86
2361 6.5090 449.01 495.07 21.22
2362 6.5110 301.42 281.63 17.19
2363 6.5130 221.79 227.51 14.84
2364 6.5150 237.16 280.22 15.46
2365 6.5170 202.70 235.60 14.41
2366 6.5190 161.89 178.93 12.65
2367 6.5210 132.02 162.22 11.47
2368 6.5230 141.98 157.28 11.83
2369 6.5250 164.97 156.31 12.92
2370 6.5270 136.54 157.33 11.88
2371 6.5290 158.22 159.65 12.63
2372 6.5310 152.35 163.03 12.27
2373 6.5330 182.13 167.39 13.41
2374 6.5350 187.83 172.79 13.87
2375 6.5370 206.40 179.38 14.60
2376 6.5390 221.20 187.36 14.83
2377 6.5410 207.72 197.05 14.38
2378 6.5430 270.04 208.90 16.51
2379 6.5450 283.80 223.51 16.94
2380 6.5470 353.49 241.78 19.23
2381 6.5490 404.87 264.99 20.19
2382 6.5510 468.27 295.03 21.60
2383 6.5530 528.84 334.83 23.03
2384 6.5550 648.48 389.13 25.80
2385 6.5570 732.76 465.90 27.62
2386 6.5590 872.12 579.43 29.70
2387 6.5610 1104.97 757.70 33.49
2388 6.5630 1398.72 1061.60 37.45
2389 6.5650 1837.16 1648.35 43.61
2390 6.5670 3192.03 3057.83 58.53
2391 6.5690 6907.42 7115.52 87.86
2392 6.5710 15937.00 15555.80 139.91
2393 6.5730 23940.30 23690.40 180.11
2394 6.5750 12165.30 11625.90 120.24
2395 6.5770 3904.48 4256.98 65.29
2396 6.5790 1844.93 2121.14 43.75
2397 6.5810 996.67 1295.49 31.76
2398 6.5830 676.91 888.61 26.11
2399 6.5850 505.38 659.49 22.52
2400 6.5870 463.39 518.08 21.91
2401 6.5890 360.23 424.77 19.20
2402 6.5910 297.15 360.06 17.18
2403 6.5930 288.38 313.32 17.00
2404 6.5950 239.63 278.48 15.50
2405 6.5970 228.89 251.82 15.35
2406 6.5990 196.76 230.97 14.10
2407 6.6010 196.77 214.35 14.06
2408 6.6030 197.18 200.88 14.09
2409 6.6050 196.30 189.83 13.98
2410 6.6070 153.17 180.65 12.57
2411 6.6090 180.20 172.93 13.52
2412 6.6110 169.78 166.38 13.01
2413 6.6130 154.62 160.77 12.47
2414 6.6150 153.75 155.94 12.44
2415 6.6170 175.44 151.74 13.34
2416 6.6190 161.52 148.07 12.78
2417 6.6210 150.74 144.85 12.32
2418 6.6230 167.60 141.99 12.85
2419 6.6250 166.33 139.46 12.88
2420 6.6270 164.47 137.20 12.98
2421 6.6290 150.40 135.17 12.35
2422 6.6310 146.32 133.35 12.03
2423 6.6330 179.16 108.23 13.42
2424 6.6350 156.09 108.21 12.51
2425 6.6370 144.49 108.20 12.17
2426 6.6390 143.05 108.19 12.04
2427 6.6410 149.47 108.17 12.21
2428 6.6430 140.02 108.16 11.81
2429 6.6450 151.61 108.15 12.31
2430 6.6470 136.78 108.13 11.79
2431 6.6490 152.51 108.12 12.39
2432 6.6510 164.13 108.11 12.82
2433 6.6530 137.80 108.09 11.69
2434 6.6550 132.61 108.08 11.55
2435 6.6570 132.59 108.06 11.64
2436 6.6590 153.69 108.05 12.47
2437 6.6610 160.42 108.03 12.63
2438 6.6630 126.26 108.02 11.22
2439 6.6650 147.70 108.00 12.13
2440 6.6670 135.28 107.99 11.75
2441 6.6690 139.05 107.97 11.86
2442 6.6710 121.02 107.96 10.97
2443 6.6730 144.17 107.95 11.94
2444 6.6750 142.45 107.93 11.96
2445 6.6770 109.41 107.92 10.54
2446 6.6790 130.28 107.90 11.41
2447 6.6810 99.08 107.89 10.00
2448 6.6830 105.97 107.87 10.25
2449 6.6850 120.49 107.86 10.96
2450 6.6870 125.09 107.84 11.25
2451 6.6890 96.43 107.82 9.90
2452 6.6910 119.09 107.81 10.87
2453 6.6930 109.78 107.79 10.45
2454 6.6950 113.01 107.78 10.65
2455 6.6970 87.39 107.76 9.42
2456 6.6990 108.44 107.74 10.44
2457 6.7010 111.61 107.73 10.56
2458 6.7030 99.99 107.71 10.00
2459 6.7050 123.07 107.70 11.06
2460 6.7070 95.79 107.68 9.91
2461 6.7090 102.45 107.66 10.24
2462 6.7110 100.96 107.65 10.07
2463 6.7130 95.12 107.63 9.73
2464 6.7150 107.56 107.61 10.43
2465 6.7170 117.13 107.60 10.92
2466 6.7190 94.88 107.58 9.78
2467 6.7210 97.04 107.56 9.84
2468 6.7230 106.94 107.54 10.40
2469 6.7250 104.99 107.53 10.23
2470 6.7270 109.17 107.51 10.55
2471 6.7290 111.49 107.49 10.69
2472 6.7310 102.44 107.48 10.06
2473 6.7330 110.18 107.46 10.50
2474 6.7350 94.22 107.44 9.73
2475 6.7370 96.49 107.42 9.93
2476 6.7390 104.27 107.41 10.26
2477 6.7410 121.56 107.39 11.00
2478 6.7430 107.63 107.37 10.37
2479 6.7450 110.04 107.35 10.50
2480 6.7470 92.35 107.33 9.73
2481 6.7490 81.34 107.32 9.08
2482 6.7510 101.22 107.30 10.04
2483 6.7530 88.44 107.28 9.36
2484 6.7550 84.09 107.26 9.21
2485 6.7570 107.62 107.24 10.40
2486 6.7590 108.24 107.22 10.45
2487 6.7610 91.62 107.21 9.58
2488 6.7630 90.27 107.19 9.49
2489 6.7650 79.00 107.17 8.87
2490 6.7670 102.01 107.15 10.22
2491 6.7690 88.09 107.13 9.45
2492 6.7710 104.11 107.11 10.24
2493 6.7730 104.97 107.09 10.20
2494 6.7750 94.48 107.07 9.77
2495 6.7770 100.13 107.05 10.06
2496 6.7790 110.67 107.03 10.57
2497 6.7810 108.49 107.01 10.42
2498 6.7830 101.93 106.99 10.07
2499 6.7850 94.04 106.97 9.73
2500 6.7870 97.98 106.95 10.00
2501 6.7890 77.45 106.93 8.87
2502 6.7910 97.55 106.91 9.89
2503 6.7930 105.64 106.89 10.28
2504 6.7950 107.02 106.87 10.34
2505 6.7970 105.33 106.85 10.39
2506 6.7990 98.44 106.83 9.98
2507 6.8010 84.67 106.81 9.19
2508 6.8030 91.06 106.79 9.55
2509 6.8050 85.98 106.77 9.28
2510 6.8070 94.15 106.75 9.81
2511 6.8090 80.07 106.73 8.99
2512 6.8110 98.71 106.71 9.89
2513 6.8130 104.85 106.69 10.22
2514 6.8150 109.60 106.67 10.50
2515 6.8170 102.45 106.65 10.24
2516 6.8190 99.12 106.62 9.99
2517 6.8210 100.04 106.60 10.02
2518 6.8230 111.61 106.58 10.50
2519 6.8250 107.72 106.56 10.37
2520 6.8270 99.71 106.54 10.07
2521 6.8290 95.33 106.52 9.83
2522 6.8310 109.42 106.50 10.42
2523 6.8330 108.44 106.47 10.34
2524 6.8350 99.41 106.45 9.99
2525 6.8370 106.46 106.43 10.41
2526 6.8390 89.22 106.41 9.49
2527 6.8410 107.47 106.39 10.34
2528 6.8430 99.65 106.36 9.95
2529 6.8450 90.33 106.34 9.48
2530 6.8470 113.36 106.32 10.77
2531 6.8490 100.85 106.30 10.07
2532 6.8510 88.69 106.28 9.41
2533 6.8530 112.92 106.25 10.56
2534 6.8550 119.96 106.23 11.02
2535 6.8570 112.84 106.21 10.65
2536 6.8590 96.46 106.18 9.86
2537 6.8610 101.31 106.16 10.02
2538 6.8630 101.19 106.14 10.07
2539 6.8650 109.84 106.12 10.48
2540 6.8670 96.36 106.09 9.87
2541 6.8690 91.54 106.07 9.60
2542 6.8710 111.47 106.05 10.53
2543 6.8730 73.53 106.02 8.53
2544 6.8750 119.43 106.00 10.92
2545 6.8770 91.55 105.98 9.66
2546 6.8790 100.15 121.33 10.03
2547 6.8810 108.50 122.35 10.39
2548 6.8830 105.14 123.48 10.24
2549 6.8850 104.65 124.73 10.26
2550 6.8870 128.20 126.13 11.37
2551 6.8890 114.14 127.70 10.78
2552 6.8910 114.14 129.46 10.65
2553 6.8930 106.33 131.45 10.33
2554 6.8950 104.38 147.87 10.19
2555 6.8970 107.26 151.38 10.44
2556 6.8990 117.83 155.36 10.85
2557 6.9010 104.36 159.91 10.18
2558 6.9030 98.30 165.14 9.86
2559 6.9050 114.32 171.20 10.76
2560 6.9070 128.09 178.27 11.41
2561 6.9090 136.33 186.60 11.74
2562 6.9110 149.43 196.53 12.17
2563 6.9130 155.77 208.49 12.47
2564 6.9150 151.93 223.10 12.34
2565 6.9170 163.84 241.23 12.82
2566 6.9190 190.39 264.16 13.83
2567 6.9210 219.61 293.80 14.77
2568 6.9230 286.22 333.17 16.90
2569 6.9250 285.83 387.25 16.91
2570 6.9270 368.63 464.72 19.49
2571 6.9290 466.23 582.00 21.59
2572 6.9310 677.77 773.32 26.12
2573 6.9330 1079.21 1121.07 32.86
2574 6.9350 1749.87 1879.17 42.53
2575 6.9370 3553.25 3907.31 61.24
2576 6.9390 8452.52 8415.52 97.56
2577 6.9410 13833.50 13914.40 129.26
2578 6.9430 8743.24 9016.11 98.57
2579 6.9450 3860.45 3701.65 64.03
2580 6.9470 2392.41 2055.64 50.25
2581 6.9490 1978.14 1587.65 45.30
2582 6.9510 1970.10 1617.76 44.72
2583 6.9530 2841.36 2211.80 54.26
2584 6.9550 4575.21 4179.25 70.15
2585 6.9570 8939.05 8606.19 101.15
2586 6.9590 13813.90 13474.70 129.23
2587 6.9610 8543.41 8151.05 98.05
2588 6.9630 3003.68 3257.77 55.64
2589 6.9650 1437.13 1648.44 38.25
2590 6.9670 928.45 1031.86 31.03
2591 6.9690 727.99 728.03 27.12
2592 6.9710 567.46 555.13 23.95
2593 6.9730 533.31 447.13 23.06
2594 6.9750 471.08 374.88 21.91
2595 6.9770 468.83 323.98 21.89
2596 6.9790 374.88 286.68 19.49
2597 6.9810 355.32 258.43 18.83
2598 6.9830 326.22 236.48 18.06
2599 6.9850 287.50 219.04 16.93
2600 6.9870 244.65 204.95 15.77
2601 6.9890 241.29 193.37 15.62
2602 6.9910 180.81 183.72 13.47
2603 6.9930 197.38 175.60 13.96
2604 6.9950 156.92 168.70 12.57
2605 6.9970 135.87 162.76 11.79
2606 6.9990 139.63 157.62 11.82
2607 7.0010 139.47 153.14 11.79
2608 7.0030 146.43 149.21 12.10
2609 7.0050 136.66 145.74 11.72
2610 7.0070 137.56 129.12 11.77
2611 7.0090 146.03 127.15 12.23
2612 7.0110 124.87 125.40 11.16
2613 7.0130 97.29 123.84 9.81
2614 7.0150 109.08 122.43 10.52
2615 7.0170 148.03 121.17 12.21
2616 7.0190 95.42 120.03 9.78
2617 7.0210 102.42 118.99 10.14
2618 7.0230 109.43 118.05 10.41
2619 7.0250 115.67 117.18 10.80
2620 7.0270 117.80 103.98 10.98
2621 7.0290 121.00 103.95 10.99
2622 7.0310 107.88 103.92 10.41
2623 7.0330 122.73 103.89 11.00
2624 7.0350 119.62 103.86 11.02
2625 7.0370 142.65 103.83 11.98
2626 7.0390 115.73 103.80 10.84
2627 7.0410 107.35 103.77 10.31
2628 7.0430 104.65 103.74 10.20
2629 7.0450 100.81 103.71 10.04
2630 7.0470 104.56 103.68 10.34
2631 7.0490 125.69 103.65 11.26
2632 7.0510 110.98 103.62 10.52
2633 7.0530 105.75 103.59 10.21
2634 7.0550 102.66 103.56 10.13
2635 7.0570 113.78 103.53 10.77
2636 7.0590 99.67 103.50 9.97
2637 7.0610 103.82 106.64 10.17
2638 7.0630 111.20 106.82 10.47
2639 7.0650 104.11 107.03 10.24
2640 7.0670 110.50 107.26 10.59
2641 7.0690 121.69 107.52 11.09
2642 7.0710 127.08 107.81 11.23
2643 7.0730 124.22 108.14 11.06
2644 7.0750 127.56 108.52 11.34
2645 7.0770 120.77 108.95 11.00
2646 7.0790 150.48 109.44 12.23
2647 7.0810 135.46 110.01 11.65
2648 7.0830 143.03 110.68 11.91
2649 7.0850 142.17 111.45 11.90
2650 7.0870 156.45 112.36 12.57
2651 7.0890 132.59 113.43 11.53
2652 7.0910 130.86 114.71 11.39
2653 7.0930 146.58 116.27 12.05
2654 7.0950 130.38 118.16 11.44
2655 7.0970 133.22 120.51 11.60
2656 7.0990 147.20 123.46 12.10
2657 7.1010 161.32 127.25 12.69
2658 7.1030 151.31 132.20 12.22
2659 7.1050 162.13 138.84 12.72
2660 7.1070 167.20 148.04 12.97
2661 7.1090 154.93 161.31 12.45
2662 7.1110 203.87 181.42 14.27
2663 7.1130 243.06 214.01 15.45
2664 7.1150 253.88 272.12 15.92
2665 7.1170 379.20 392.43 19.51
2666 7.1190 666.40 703.16 25.84
2667 7.1210 1422.93 1495.46 37.87
2668 7.1230 2773.22 2811.17 53.23
2669 7.1250 2378.79 2455.08 49.56
2670 7.1270 938.68 1005.72 30.81
2671 7.1290 497.17 494.52 22.34
2672 7.1310 346.95 318.13 18.64
2673 7.1330 246.62 238.32 15.55
2674 7.1350 222.65 195.57 14.87
2675 7.1370 177.62 170.12 13.32
2676 7.1390 148.88 153.78 12.26
2677 7.1410 156.26 142.67 12.45
2678 7.1430 144.83 134.77 11.96
2679 7.1450 125.38 128.96 11.16
2680 7.1470 108.78 124.56 10.47
2681 7.1490 122.29 121.14 11.07
2682 7.1510 125.71 118.43 11.18
2683 7.1530 105.69 116.25 10.20
2684 7.1550 102.59 114.46 10.13
2685 7.1570 112.09 112.98 10.62
2686 7.1590 114.50 111.73 10.70
2687 7.1610 100.26 110.67 9.99
2688 7.1630 109.84 109.77 10.40
2689 7.1650 101.60 108.98 10.06
2690 7.1670 108.06 108.30 10.38
2691 7.1690 107.88 107.70 10.44
2692 7.1710 94.79 107.17 9.70
2693 7.1730 112.12 106.70 10.51
2694 7.1750 106.26 106.28 10.30
2695 7.1770 99.99 105.90 10.07
2696 7.1790 98.51 105.56 9.88
2697 7.1810 109.38 105.25 10.45
2698 7.1830 112.72 104.97 10.53
2699 7.1850 110.34 104.71 10.55
2700 7.1870 105.62 104.47 10.35
2701 7.1890 100.60 101.36 10.04
2702 7.1910 90.36 101.32 9.46
2703 7.1930 96.06 101.28 9.69
2704 7.1950 95.88 101.25 9.83
2705 7.1970 92.02 101.21 9.63
2706 7.1990 98.35 103.38 9.95
2707 7.2010 108.58 103.49 10.38
2708 7.2030 93.65 103.61 9.62
2709 7.2050 111.60 103.75 10.62
2710 7.2070 96.57 103.91 9.86
2711 7.2090 103.55 104.09 10.17
2712 7.2110 107.19 104.30 10.33
2713 7.2130 113.04 104.54 10.53
2714 7.2150 113.67 106.92 10.70
2715 7.2170 96.09 107.37 9.85
2716 7.2190 101.78 107.88 10.08
2717 7.2210 104.70 108.46 10.20
2718 7.2230 109.68 109.14 10.38
2719 7.2250 110.02 109.92 10.54
2720 7.2270 101.19 110.82 10.18
2721 7.2290 100.21 111.89 9.98
2722 7.2310 102.49 113.15 10.11
2723 7.2330 111.15 114.66 10.49
2724 7.2350 116.84 116.49 10.86
2725 7.2370 145.10 118.72 12.13
2726 7.2390 117.64 121.51 10.82
2727 7.2410 133.75 125.05 11.54
2728 7.2430 134.70 129.63 11.57
2729 7.2450 157.31 135.72 12.68
2730 7.2470 173.02 144.12 13.28
2731 7.2490 179.22 156.16 13.39
2732 7.2510 208.66 174.43 14.41
2733 7.2530 250.90 204.30 15.81
2734 7.2550 302.60 258.68 17.53
2735 7.2570 397.29 376.94 20.12
2736 7.2590 696.92 691.74 26.49
2737 7.2610 1439.05 1396.10 38.24
2738 7.2630 2234.21 2176.73 47.94
2739 7.2650 1454.64 1353.14 38.62
2740 7.2670 647.20 621.08 25.94
2741 7.2690 481.72 398.12 21.95
2742 7.2710 388.81 341.04 19.76
2743 7.2730 408.47 367.89 20.17
2744 7.2750 568.37 519.00 24.08
2745 7.2770 981.19 969.10 31.81
2746 7.2790 1854.09 1804.31 43.64
2747 7.2810 1966.84 1913.01 44.72
2748 7.2830 930.14 881.77 30.47
2749 7.2850 401.01 436.99 20.31
2750 7.2870 230.94 284.71 15.37
2751 7.2890 185.51 217.72 13.65
2752 7.2910 158.38 181.99 12.54
2753 7.2930 138.69 160.64 11.77
2754 7.2950 123.74 146.81 11.21
2755 7.2970 143.45 137.30 12.11
2756 7.2990 131.15 130.46 11.48
2757 7.3010 136.49 125.35 11.71
2758 7.3030 118.76 121.43 10.89
2759 7.3050 128.83 118.33 11.42
2760 7.3070 105.82 115.85 10.42
2761 7.4950 211.66 139.58 14.61
2762 7.4970 204.94 143.38 14.50
2763 7.4990 196.32 147.69 13.99
2764 7.5010 213.56 152.63 14.64
2765 7.5030 201.44 158.31 14.14
2766 7.5050 192.41 164.88 13.90
2767 7.5070 223.30 172.56 15.09
2768 7.5090 223.20 181.59 15.04
2769 7.5110 254.30 192.31 15.93
2770 7.5130 270.51 205.16 16.42
2771 7.5150 319.63 220.76 18.00
2772 7.5170 370.82 239.95 19.46
2773 7.5190 396.50 263.90 19.93
2774 7.5210 428.29 294.31 20.75
2775 7.5230 517.45 333.78 22.69
2776 7.5250 571.79 386.21 24.07
2777 7.5270 667.79 458.05 26.22
2778 7.5290 715.30 560.08 26.91
2779 7.5310 908.09 712.06 30.23
2780 7.5330 1073.11 952.48 32.80
2781 7.5350 1483.01 1366.35 38.97
2782 7.5370 2244.55 2172.84 48.50
2783 7.5390 3948.79 4092.77 64.64
2784 7.5410 8844.42 9456.08 100.04
2785 7.5430 19747.50 20307.50 158.94
2786 7.5450 24227.60 24382.50 181.93
2787 7.5470 10372.60 10394.30 110.15
2788 7.5490 4071.59 4269.68 65.75
2789 7.5510 2011.94 2270.76 45.56
2790 7.5530 1262.78 1422.53 35.72
2791 7.5550 788.44 986.07 28.20
2792 7.5570 651.09 733.13 25.83
2793 7.5590 498.73 573.97 22.41
2794 7.5610 427.76 467.51 20.73
2795 7.5630 357.63 392.79 18.90
2796 7.5650 313.43 338.40 17.72
2797 7.5670 298.41 297.56 17.41
2798 7.5690 227.17 266.12 15.10
2799 7.5710 216.65 241.41 14.72
2800 7.5730 187.26 221.64 13.69
2801 7.5750 193.51 205.56 13.89
2802 7.5770 190.91 192.31 13.99
2803 7.5790 197.99 181.27 14.07
2804 7.5810 182.34 171.96 13.57
2805 7.5830 156.14 164.05 12.44
2806 7.5850 167.37 157.25 13.01
2807 7.5870 145.82 151.39 12.21
2808 7.5890 133.47 146.28 11.61
2809 7.5910 161.00 141.80 12.75
2810 7.5930 153.73 137.86 12.36
2811 7.5950 133.65 134.36 11.61
2812 7.5970 152.85 131.25 12.50
2813 7.5990 140.76 128.47 11.91
2814 7.6010 138.91 125.98 11.78
2815 7.6030 131.82 123.72 11.49
2816 7.6050 128.23 121.68 11.34
2817 7.6070 135.53 119.83 11.77
2818 7.6090 135.15 92.74 11.69
2819 7.6110 146.91 92.70 12.11
2820 7.6130 107.62 92.65 10.36
2821 7.6150 135.12 92.60 11.64
2822 7.6170 121.35 92.56 11.10
2823 7.6190 147.78 92.51 12.23
2824 7.6210 126.42 92.47 11.25
2825 7.6230 123.20 92.42 11.07
2826 7.6250 160.68 92.38 12.71
2827 7.6270 152.81 92.33 12.47
2828 7.6290 130.62 92.28 11.49
2829 7.6310 154.77 92.24 12.44
2830 7.6330 156.72 92.19 12.47
2831 7.6350 156.66 92.14 12.58
2832 7.6370 156.12 92.10 12.63
2833 7.7310 186.22 144.57 13.70
2834 7.7330 207.64 150.26 14.35
2835 7.7350 186.73 156.91 13.69
2836 7.7370 227.85 164.75 15.27
2837 7.7390 186.61 174.09 13.74
2838 7.7410 234.32 185.34 15.28
2839 7.7430 244.26 199.05 15.63
2840 7.7450 245.16 216.02 15.68
2841 7.7470 267.49 237.38 16.45
2842 7.7490 292.58 264.80 17.19
2843 7.7510 327.38 300.88 18.08
2844 7.7530 371.99 349.83 19.22
2845 7.7550 442.28 418.75 21.01
2846 7.7570 567.63 520.56 24.15
2847 7.7590 695.21 681.22 26.60
2848 7.7610 921.95 959.53 30.44
2849 7.7630 1418.56 1517.41 38.10
2850 7.7650 2699.87 2901.86 52.71
2851 7.7670 6021.11 6344.47 81.58
2852 7.7690 10915.40 11370.00 112.71
2853 7.7710 8822.12 8848.21 99.91
2854 7.7730 5345.76 5445.74 75.65
2855 7.7750 6682.31 6996.06 85.12
2856 7.7770 10347.90 10798.40 110.20
2857 7.7790 7694.28 7745.38 92.80
2858 7.7810 3101.97 3257.31 56.42
2859 7.7830 1600.61 1652.11 40.33
2860 7.7850 1050.03 1027.38 32.74
2861 7.7870 676.07 719.56 26.31
2862 7.7890 535.28 543.99 23.30
2863 7.7910 434.22 433.95 20.79
2864 7.7930 351.63 360.10 18.73
2865 7.7950 305.81 308.01 17.49
2866 7.7970 242.64 269.78 15.75
2867 7.7990 276.30 240.85 16.70
2868 7.8010 221.95 218.40 14.87
2869 7.8030 218.85 200.60 14.75
2870 7.8050 207.41 186.24 14.45
2871 7.8070 194.30 174.48 14.13
2872 7.8590 104.32 86.85 10.25
2873 7.8610 98.89 86.80 9.91
2874 7.8630 107.60 86.76 10.39
2875 7.8650 94.02 86.71 9.68
2876 7.8670 103.75 86.66 10.29
2877 7.8690 103.06 86.62 10.26
2878 7.8710 85.96 86.57 9.25
2879 7.8730 95.35 86.52 9.73
2880 7.8750 106.96 86.48 10.37
2881 7.8770 71.89 86.43 8.60
2882 7.8790 97.85 86.39 9.91
2883 7.8810 102.92 86.34 10.13
2884 7.8830 88.78 86.30 9.41
2885 7.8850 83.68 86.26 9.16
2886 7.8870 90.57 86.21 9.61
2887 7.8890 90.54 86.17 9.55
2888 7.8910 94.04 86.13 9.71
2889 7.8930 91.17 86.09 9.56
2890 7.8950 74.65 86.06 8.65
2891 7.8970 81.86 86.03 9.18
2892 7.8990 86.57 86.00 9.34
2893 7.9010 89.26 85.98 9.38
2894 7.9030 95.29 85.97 9.77
2895 7.9050 103.71 85.97 10.19
2896 7.9070 89.77 86.00 9.57
2897 7.9090 97.25 86.07 9.86
2898 7.9110 85.26 86.21 9.25
2899 7.9130 97.02 86.51 9.81
2900 7.9150 88.73 87.21 9.41
2901 7.9170 82.37 89.10 9.14
2902 7.9190 83.48 93.68 9.19
2903 7.9210 95.53 98.94 9.76
2904 7.9230 89.97 93.64 9.50
2905 7.9950 101.03 83.53 8.44
2906 7.9970 99.84 83.48 8.68
2907 7.9990 95.85 83.43 8.70
2908 8.0010 104.16 83.39 9.06
2909 8.0030 97.43 83.34 8.91
2910 8.0050 97.99 83.29 8.94
2911 8.0070 103.90 83.24 9.34
2912 8.0090 86.54 83.19 8.59
2913 8.0110 97.57 83.14 9.10
2914 8.0130 93.54 83.22 8.91
2915 8.0150 88.59 83.18 8.69
2916 8.0170 106.26 83.28 9.67
2917 8.0190 81.64 83.25 8.46
2918 8.0210 79.63 83.22 8.28
2919 8.0230 90.24 83.20 8.88
2920 8.0250 81.21 83.17 8.43
2921 8.0270 90.76 83.15 9.03
2922 8.0290 78.22 83.14 8.38
2923 8.0310 103.91 83.13 9.59
2924 8.0330 73.96 83.12 8.11
2925 8.0350 92.16 83.12 9.08
2926 8.0370 88.47 83.13 8.96
2927 8.0390 91.50 83.14 9.08
2928 8.0410 81.56 83.17 8.47
2929 8.0430 75.33 83.21 8.18
2930 8.0450 96.61 83.27 9.26
2931 8.0470 88.21 83.35 8.93
2932 8.0490 73.97 83.45 8.17
2933 8.0510 78.68 83.59 8.34
2934 8.0530 70.84 83.78 7.93
2935 8.0550 79.17 84.03 8.41
2936 8.0570 80.98 84.38 8.54
2937 8.0590 85.18 84.86 8.76
2938 8.0610 78.34 85.54 8.31
2939 8.0630 94.96 86.56 9.22
2940 8.0650 97.42 88.15 9.27
2941 8.0670 88.50 90.83 8.89
2942 8.0690 94.19 95.91 9.20
2943 8.0710 93.09 107.53 9.09
2944 8.0730 123.63 137.74 10.44
2945 8.0750 184.48 193.18 12.80
2946 8.0770 183.62 201.39 12.83
2947 8.0790 166.12 179.24 12.27
2948 8.0810 212.46 212.85 13.67
2949 8.0830 200.66 186.04 13.32
2950 8.0850 152.41 125.43 11.60
2951 8.0870 128.24 110.19 10.72
2952 8.0890 134.23 101.86 10.96
2953 8.0910 116.15 98.12 10.12
2954 8.0930 103.38 96.27 9.55
2955 8.0950 114.23 95.40 10.00
2956 8.0970 128.98 95.09 10.72
2957 8.0990 132.00 95.16 10.92
2958 8.1010 137.80 103.22 10.96
2959 8.1030 135.22 104.28 10.92
2960 8.1050 140.49 105.60 11.17
2961 8.1070 143.62 107.18 11.27
2962 8.1090 146.64 109.05 11.49
2963 8.1110 131.12 111.23 10.76
2964 8.1130 122.85 113.77 10.38
2965 8.1150 132.10 116.73 10.78
2966 8.1170 127.25 120.20 10.63
2967 8.1190 146.80 124.28 11.49
2968 8.1210 138.28 129.10 11.03
2969 8.1230 152.61 134.87 11.65
2970 8.1250 138.89 141.83 11.04
2971 8.1270 160.60 150.33 11.96
2972 8.1290 161.64 160.87 11.95
2973 8.1310 171.35 174.19 12.34
2974 8.1330 193.30 191.36 12.99
2975 8.1350 236.28 214.08 14.44
2976 8.1370 260.76 245.10 15.21
2977 8.1390 305.14 289.37 16.59
2978 8.1410 366.03 355.58 17.91
2979 8.1430 466.20 461.93 20.21
2980 8.1450 618.41 651.33 23.38
2981 8.1470 964.34 1043.61 29.56
2982 8.1490 2059.76 2041.23 43.36
2983 8.1510 4404.06 4451.96 64.25
2984 8.1530 7493.29 7347.77 85.66
2985 8.1550 4840.57 4723.20 67.54
2986 8.1570 2217.65 2122.97 45.10
2987 8.1590 1483.77 1334.96 36.70
2988 8.1610 1339.57 1221.46 34.61
2989 8.1630 1760.37 1603.02 39.72
2990 8.1650 3041.14 2975.91 52.62
2991 8.1670 5692.59 5874.88 74.05
2992 8.1690 7012.51 7006.18 83.41
2993 8.1710 3221.90 3364.97 54.23
2994 8.1730 1361.59 1516.72 35.07
2995 8.1750 726.89 859.83 25.38
2996 8.1770 496.42 572.90 21.12
2997 8.1790 358.15 421.81 17.81
2998 8.1810 260.98 332.32 15.18
2999 8.1830 223.29 274.88 14.08
3000 8.1850 182.81 235.74 12.64
3001 8.1870 165.85 207.90 12.25
3002 8.1890 186.09 187.50 13.00
3003 8.1910 183.32 172.27 12.64
3004 8.1930 143.53 160.95 11.29
3005 8.1950 152.03 152.95 11.64
3006 8.1970 146.85 148.49 11.49
3007 8.1990 153.78 149.70 11.69
3008 8.2010 160.75 164.74 11.86
3009 8.2030 168.97 207.06 12.27
3010 8.2050 209.78 245.34 13.55
3011 8.2070 159.41 186.29 12.06
3012 8.2090 150.27 149.05 11.64
3013 8.2110 160.96 147.82 11.85
3014 8.2130 192.96 169.82 12.99
3015 8.2150 199.83 174.11 13.32
3016 8.2170 152.23 134.51 11.77
3017 8.2190 134.98 114.81 10.97
3018 8.2210 136.16 99.51 10.90
3019 8.2230 114.91 95.52 10.12
3020 8.2250 105.70 93.00 9.65
3021 8.2270 109.97 91.20 9.97
3022 8.2290 117.20 89.82 10.27
3023 8.2310 128.38 88.71 10.61
3024 8.2330 106.11 87.77 9.70
3025 8.2350 110.40 86.97 9.87
3026 8.2370 129.99 86.28 10.84
3027 8.2390 97.89 78.70 9.39
3028 8.2410 123.61 78.53 10.40
3029 8.2430 108.01 78.37 9.76
3030 8.2450 99.24 78.24 9.40
3031 8.2470 108.34 78.11 9.92
3032 8.2490 103.88 78.00 9.64
3033 8.2510 102.67 77.90 9.56
3034 8.2530 99.54 77.81 9.37
3035 8.2550 107.52 77.72 9.75
3036 8.2570 102.70 77.64 9.67
3037 8.2590 104.14 77.56 9.70
3038 8.2610 98.48 77.49 9.31
3039 8.2630 89.16 77.41 8.91
3040 8.2650 95.08 77.35 9.16
3041 8.2670 84.47 77.28 8.75
3042 8.2690 82.00 77.21 8.58
3043 8.2710 86.58 77.15 8.71
3044 8.2730 85.41 76.97 8.73
3045 8.2750 93.53 76.91 9.10
3046 8.2770 98.33 76.86 9.44
3047 8.2790 81.43 76.81 8.54
3048 8.2810 83.43 76.76 8.59
3049 8.2830 82.71 76.71 8.58
3050 8.2850 85.53 76.59 8.70
3051 8.2870 75.01 76.54 8.24
3052 8.2890 88.31 76.50 8.94
3053 8.2910 80.79 76.45 8.43
3054 8.2930 80.33 76.40 8.44
3055 8.2950 71.56 76.36 8.00
3056 8.2970 68.68 76.31 7.87
3057 8.2990 61.49 76.26 7.45
3058 8.3010 66.31 76.22 7.67
3059 8.3030 72.16 76.17 8.01
3060 8.3050 77.47 76.12 8.22
3061 8.3070 73.14 76.08 8.11
3062 8.3090 76.70 76.03 8.31
3063 8.3110 77.26 75.99 8.23
3064 8.3130 76.81 75.94 8.26
3065 8.3150 93.01 75.89 9.05
3066 8.3170 63.91 75.85 7.59
3067 8.3190 75.09 75.80 8.18
3068 8.3210 75.98 75.76 8.19
3069 8.3230 69.27 75.71 7.81
3070 8.3250 76.31 75.66 8.20
3071 8.3270 72.07 75.62 8.03
3072 8.3290 66.29 75.57 7.68
3073 8.3310 67.56 75.53 7.76
3074 8.3330 74.00 75.48 8.09
3075 8.3350 69.04 75.43 7.79
3076 8.3370 69.97 75.39 7.95
3077 8.3390 76.58 75.34 8.27
3078 8.3410 74.76 75.30 8.10
3079 8.3430 69.72 75.25 7.88
3080 8.3450 64.75 75.21 7.57
3081 8.3470 65.79 75.16 7.71
3082 8.3490 69.00 75.11 7.85
3083 8.3510 47.10 75.07 6.49
3084 8.3530 69.21 75.02 7.82
3085 8.3550 69.99 74.98 7.85
3086 8.3570 73.47 74.93 8.10
3087 8.3590 65.17 74.89 7.61
3088 8.3610 62.55 74.84 7.41
3089 8.3630 66.66 74.80 7.69
3090 8.3650 59.82 74.75 7.26
3091 8.3670 62.03 74.71 7.46
3092 8.3690 58.99 74.66 7.23
3093 8.3710 64.52 74.62 7.53
3094 8.3730 73.90 74.57 8.08
3095 8.3750 60.78 74.52 7.29
3096 8.3770 79.05 74.48 8.42
3097 8.3790 62.63 74.43 7.44
3098 8.3810 64.74 74.39 7.55
3099 8.3830 67.44 74.34 7.70
3100 8.3850 73.89 74.30 8.08
3101 8.3870 66.39 74.25 7.72
3102 8.3890 53.69 74.21 6.89
3103 8.3910 61.88 74.16 7.40
3104 8.3930 71.93 74.12 7.96
3105 8.3950 71.38 74.08 7.92
3106 8.3970 71.25 74.03 7.98
3107 8.3990 70.30 73.99 7.91
3108 8.4010 70.21 73.94 7.87
3109 8.4030 71.82 73.90 7.97
3110 8.4050 79.29 73.85 8.33
3111 8.4070 73.61 73.81 8.12
3112 8.4090 57.80 73.76 7.16
3113 8.4110 64.88 73.72 7.57
3114 8.4130 82.40 73.67 8.48
3115 8.4150 62.79 73.63 7.43
3116 8.4170 60.47 73.58 7.37
3117 8.4190 57.84 73.54 7.13
3118 8.4210 60.83 73.50 7.34
3119 8.4230 60.94 73.45 7.32
3120 8.4250 67.17 73.41 7.71
3121 8.4270 58.26 73.36 7.21
3122 8.4290 64.37 73.32 7.53
3123 8.4310 64.39 73.27 7.55
3124 8.4330 74.33 73.23 8.06
3125 8.4350 68.86 73.19 7.76
3126 8.4370 61.29 73.14 7.39
3127 8.4390 69.38 73.10 7.83
3128 8.4410 61.54 73.05 7.33
3129 8.4430 61.65 73.01 7.36
3130 8.4450 84.94 72.97 8.65
3131 8.4470 66.74 72.92 7.71
3132 8.4490 56.81 72.88 7.07
3133 8.4510 74.21 72.84 8.13
3134 8.4530 67.79 72.79 7.68
3135 8.4550 67.61 72.75 7.74
3136 8.4570 72.63 72.70 8.09
3137 8.4590 70.78 72.66 7.89
3138 8.4610 63.30 72.62 7.49
3139 8.4630 46.35 72.57 6.38
3140 8.4650 57.74 72.53 7.17
3141 8.4670 59.27 72.49 7.28
3142 8.4690 78.47 72.44 8.34
3143 8.4710 46.30 72.40 6.43
3144 8.4730 60.68 72.36 7.30
3145 8.4750 59.91 72.31 7.31
3146 8.4770 59.10 74.13 7.29
3147 8.4790 64.96 74.20 7.53
3148 8.4810 53.20 74.27 6.88
3149 8.4830 67.81 74.36 7.72
3150 8.4850 59.29 74.45 7.32
3151 8.4870 56.29 74.57 7.11
3152 8.4890 70.40 74.69 7.89
3153 8.4910 55.08 74.84 6.97
3154 8.4930 66.95 75.00 7.70
3155 8.4950 67.09 75.19 7.77
3156 8.4970 80.04 75.41 8.48
3157 8.4990 88.02 75.66 8.83
3158 8.5010 69.42 75.94 7.83
3159 8.5030 80.18 76.27 8.37
3160 8.5050 65.20 76.65 7.68
3161 8.5070 66.30 77.09 7.75
3162 8.5090 73.38 77.61 8.02
3163 8.5110 91.26 78.22 8.98
3164 8.5130 86.40 78.93 8.72
3165 8.5150 106.96 79.79 9.84
3166 8.5170 96.78 80.82 9.30
3167 8.5190 100.44 82.07 9.45
3168 8.5210 102.90 83.60 9.54
3169 8.5230 109.64 85.51 9.85
3170 8.5250 103.34 87.92 9.68
3171 8.5270 106.54 91.03 9.83
3172 8.5290 99.14 95.12 9.33
3173 8.5310 102.84 100.65 9.54
3174 8.5330 123.77 108.36 10.47
3175 8.5350 128.38 119.55 10.83
3176 8.5370 139.10 136.67 11.28
3177 8.5390 157.32 164.67 11.77
3178 8.5410 190.43 215.11 12.98
3179 8.5430 280.37 319.95 15.77
3180 8.5450 504.42 580.21 21.34
3181 8.5470 1093.14 1184.61 31.75
3182 8.5490 1917.88 1846.21 41.86
3183 8.5510 1266.38 1237.27 33.66
3184 8.5530 552.74 567.90 22.24
3185 8.5550 306.58 314.82 16.67
3186 8.5570 219.21 213.42 14.12
3187 8.5590 142.23 163.84 11.25
3188 8.5610 121.69 136.00 10.37
3189 8.5630 100.62 118.90 9.48
3190 8.5650 107.40 107.66 9.84
3191 8.5670 101.57 99.88 9.64
3192 8.5690 87.66 94.28 8.85
3193 8.5710 80.87 90.11 8.48
3194 8.5730 70.10 86.92 7.93
3195 8.5750 63.03 84.43 7.55
3196 8.5770 65.98 82.44 7.78
3197 8.5790 71.27 80.82 7.99
3198 8.5810 64.67 79.49 7.58
3199 8.5830 59.72 78.38 7.32
3200 8.5850 59.44 77.44 7.32
3201 8.5870 63.27 76.64 7.60
3202 8.5890 63.27 75.95 7.53
3203 8.5910 69.35 75.35 7.85
3204 8.5930 59.06 74.82 7.27
3205 8.5950 71.38 74.36 8.04
3206 8.5970 63.10 73.95 7.60
3207 8.5990 64.10 73.58 7.55
3208 8.6010 64.92 73.25 7.59
3209 8.6030 55.65 72.95 7.07
3210 8.6050 69.19 72.67 7.88
3211 8.6070 62.91 72.43 7.57
3212 8.6090 59.05 72.20 7.30
3213 8.6110 69.01 71.99 7.78
3214 8.6130 60.39 71.79 7.39
3215 8.6150 54.56 71.61 7.01
3216 8.6170 53.26 71.44 6.97
3217 8.6190 68.52 71.29 7.82
3218 8.6210 67.83 71.14 7.78
3219 8.6230 71.53 71.00 8.00
3220 8.6250 76.09 69.20 8.23
3221 8.6270 69.44 69.16 7.91
3222 8.6290 59.96 69.12 7.37
3223 8.6310 52.89 69.08 6.85
3224 8.6330 63.38 69.04 7.55
3225 8.6350 67.65 69.00 7.76
3226 8.6370 62.29 68.96 7.52
3227 8.6390 71.48 68.92 8.01
3228 8.6410 70.47 68.88 7.87
3229 8.6430 74.18 68.84 8.16
3230 8.6450 69.44 68.80 7.86
3231 8.6470 70.04 68.76 7.97
3232 8.6490 64.47 68.72 7.59
3233 8.6510 48.92 68.69 6.60
3234 8.6530 61.75 68.65 7.41
3235 8.6550 58.07 68.61 7.19
3236 8.6570 68.70 68.57 7.88
3237 8.6590 51.78 68.53 6.80
3238 8.6610 66.19 68.49 7.64
3239 8.6630 70.91 68.45 7.95
3240 8.6650 60.63 68.41 7.36
3241 8.6670 66.62 68.37 7.73
3242 8.6690 59.93 68.34 7.31
3243 8.6710 71.37 68.30 7.93
3244 8.6730 61.84 68.26 7.42
3245 8.6750 68.39 68.22 7.79
3246 8.6770 59.69 68.18 7.34
3247 8.6790 56.99 68.14 7.13
3248 8.6810 61.89 68.11 7.40
3249 8.6830 63.77 68.07 7.53
3250 8.6850 65.95 68.03 7.65
3251 8.6870 71.09 67.99 7.99
3252 8.6890 68.04 67.95 7.81
3253 8.6910 79.78 67.92 8.37
3254 8.6930 65.49 67.88 7.65
3255 8.6950 60.97 67.84 7.34
3256 8.6970 74.61 67.80 8.21
3257 8.6990 67.91 67.76 7.75
3258 8.7010 56.12 67.73 7.01
3259 8.7030 63.92 67.69 7.55
3260 8.7050 75.62 71.51 8.23
3261 8.7070 60.96 71.68 7.42
3262 8.7090 65.08 71.87 7.61
3263 8.7110 62.79 72.09 7.44
3264 8.7130 66.85 72.32 7.72
3265 8.7150 70.35 72.58 7.94
3266 8.7170 74.51 72.87 8.18
3267 8.7190 59.88 73.19 7.30
3268 8.7210 78.00 73.55 8.29
3269 8.7230 71.63 73.95 7.99
3270 8.7250 78.99 74.40 8.39
3271 8.7270 91.83 74.91 9.10
3272 8.7290 84.75 75.48 8.70
3273 8.7310 86.22 76.12 8.74
3274 8.7330 93.23 80.72 9.12
3275 8.7350 95.31 81.76 9.20
3276 8.7370 100.30 82.95 10.44
3277 8.7390 111.76 84.30 10.42
3278 8.7410 99.08 85.85 10.67
3279 8.7430 122.78 87.64 10.46
3280 8.7450 105.95 89.73 11.39
3281 8.7470 109.67 92.17 12.76
3282 8.7490 100.08 95.06 13.37
3283 8.7510 131.26 98.53 14.29
3284 8.7530 105.11 102.73 15.65
3285 8.7550 154.10 107.89 15.70
3286 8.7570 139.56 114.34 16.71
3287 8.7590 153.28 122.56 16.13
3288 8.7610 159.69 133.27 16.56
3289 8.7630 191.19 147.64 16.39
3290 8.7650 203.15 167.56 16.71
3291 8.7670 252.59 196.41 18.13
3292 8.7690 356.80 240.50 17.89
3293 8.7710 455.22 312.99 20.05
3294 8.7730 533.43 445.22 21.85
3295 8.7750 764.17 727.05 26.14
3296 8.7770 1401.81 1427.15 35.82
3297 8.7790 3010.69 2883.01 52.93
3298 8.7810 3704.32 3863.72 58.68
3299 8.7830 2041.86 2239.82 43.18
3300 8.7850 1036.70 1049.17 30.62
3301 8.7870 679.18 598.95 24.80
3302 8.7890 513.86 415.62 21.53
3303 8.7910 416.20 330.67 19.18
3304 8.7930 402.52 292.51 18.96
3305 8.7950 389.50 283.74 18.71
3306 8.7970 400.55 300.79 19.05
3307 8.7990 500.70 350.79 21.20
3308 8.8010 565.73 458.62 22.37
3309 8.8030 905.05 700.38 28.49
3310 8.8050 1434.84 1307.50 35.98
3311 8.8070 2523.10 2643.46 48.29
3312 8.8090 3728.84 3858.61 59.15
3313 8.8110 2606.67 2481.84 48.88
3314 8.8130 1141.44 1145.05 31.99
3315 8.8150 706.49 616.35 25.12
3316 8.8170 466.33 397.70 20.56
3317 8.8190 370.90 288.45 18.15
3318 8.8210 279.24 225.97 15.65
3319 8.8230 245.19 186.89 14.71
3320 8.8250 207.21 160.83 13.55
3321 8.8270 171.39 142.55 12.40
3322 8.8290 150.02 129.19 11.57
3323 8.8310 148.98 119.13 11.51
3324 8.8330 110.83 111.34 9.88
3325 8.8350 113.13 105.18 10.05
3326 8.8370 110.07 100.21 9.92
3327 8.8390 111.17 96.13 9.95
3328 8.8410 79.87 92.75 8.39
3329 8.8430 76.54 89.90 8.30
3330 8.8450 96.87 87.48 9.28
3331 8.8470 97.49 85.40 9.35
3332 8.8490 80.06 83.60 8.45
3333 8.8510 86.87 82.03 8.79
3334 8.8530 78.09 80.64 8.32
3335 8.8550 86.57 79.42 8.74
3336 8.8570 72.30 78.34 8.07
3337 8.8590 68.41 73.78 7.78
3338 8.8610 68.75 73.09 7.80
3339 8.8630 81.54 72.46 8.53
3340 8.8650 71.28 72.95 7.99
3341 8.8670 66.68 72.51 7.75
3342 8.8690 75.98 72.12 8.24
3343 8.8710 83.26 71.77 8.60
3344 8.8730 65.58 71.47 7.62
3345 8.8750 58.59 71.21 7.23
3346 8.8770 82.43 70.99 8.58
3347 8.8790 88.03 70.81 8.83
3348 8.8810 75.05 70.66 8.15
3349 8.8830 51.85 70.55 6.79
3350 8.8850 71.84 70.48 8.04
3351 8.8870 63.76 70.44 7.58
3352 8.8890 66.67 66.98 7.72
3353 8.8910 64.52 67.19 7.53
3354 8.8930 74.39 67.44 8.12
3355 8.8950 79.24 67.75 8.40
3356 8.8970 84.16 68.10 8.70
3357 8.8990 80.18 68.53 8.40
3358 8.9010 76.00 69.05 8.21
3359 8.9030 77.05 69.68 8.26
3360 8.9050 83.24 70.46 8.65
3361 8.9070 83.24 71.43 8.63
3362 8.9090 73.59 72.67 8.10
3363 8.9110 62.55 74.27 7.43
3364 8.9130 80.37 76.38 8.41
3365 8.9150 71.43 79.26 8.04
3366 8.9170 91.02 83.28 9.03
3367 8.9190 74.55 89.17 8.12
3368 8.9210 97.63 98.27 9.26
3369 8.9230 103.61 113.30 9.56
3370 8.9250 151.81 140.77 11.69
3371 8.9270 193.25 198.96 13.21
3372 8.9290 350.75 347.35 17.72
3373 8.9310 671.01 700.98 24.37
3374 8.9330 1001.39 1040.78 29.82
3375 8.9350 627.95 616.32 23.78
3376 8.9370 287.38 293.36 16.15
3377 8.9390 200.04 179.11 13.25
3378 8.9410 130.23 132.10 10.69
3379 8.9430 122.26 108.66 10.38
3380 8.9450 93.05 95.39 9.15
3381 8.9470 86.74 87.18 8.84
3382 8.9490 91.68 81.75 9.04
3383 8.9510 96.41 77.98 9.22
3384 8.9530 71.92 75.25 7.95
3385 8.9550 68.07 73.21 7.84
3386 8.9570 77.45 71.65 8.36
3387 8.9590 72.52 70.42 8.01
3388 8.9610 79.79 69.44 8.38
3389 8.9630 65.96 69.06 7.69
3390 8.9650 65.98 68.42 7.72
3391 8.9670 60.88 67.89 7.42
3392 8.9690 71.56 67.45 7.97
3393 8.9710 69.46 67.08 7.84
3394 8.9730 56.54 66.77 7.09
3395 8.9750 65.07 66.51 7.67
3396 8.9770 68.24 66.29 7.85
3397 8.9790 71.89 66.25 7.99
3398 8.9810 58.23 66.11 7.19
3399 8.9830 57.23 66.00 7.12
3400 8.9850 62.12 65.92 7.49
3401 8.9870 59.42 65.88 7.34
3402 8.9890 57.00 66.24 7.13
3403 8.9910 68.39 66.31 7.77
3404 8.9930 66.96 66.46 7.72
3405 8.9950 55.24 66.74 7.03
3406 8.9970 69.04 67.32 7.88
3407 8.9990 70.21 68.70 7.87
3408 9.0010 72.55 71.85 8.03
3409 9.0030 62.61 74.17 7.45
3410 9.0050 61.03 70.99 7.43
3411 9.0070 69.87 69.05 7.94
3412 9.0090 63.38 69.34 7.51
3413 9.0110 79.14 70.64 8.38
3414 9.0130 82.43 70.46 8.52
3415 9.0150 62.14 70.07 7.47
3416 9.0170 65.68 70.64 7.67
3417 9.0190 69.55 71.83 7.86
3418 9.0210 67.18 73.61 7.71
3419 9.0230 85.12 76.19 8.67
3420 9.0250 76.42 80.12 8.24
3421 9.0270 102.37 86.23 9.60
3422 9.0290 109.91 96.70 9.87
3423 9.0310 125.77 117.02 10.60
3424 9.0330 161.71 163.84 11.95
3425 9.0350 271.44 276.93 15.70
3426 9.0370 458.73 443.44 20.34
3427 9.0390 326.59 388.83 17.03
3428 9.0410 205.75 217.13 13.49
3429 9.0430 122.75 144.10 10.40
3430 9.0450 124.90 118.88 10.62
3431 9.0470 133.09 113.59 10.95
3432 9.0490 122.49 125.43 10.44
3433 9.0510 155.89 164.37 11.73
3434 9.0530 228.07 212.76 14.16
3435 9.0550 180.43 180.79 12.74
3436 9.0570 134.64 142.39 10.98
3437 9.0590 133.69 144.71 10.86
3438 9.0610 204.47 190.15 13.37
3439 9.0630 273.14 306.72 15.55
3440 9.0650 411.15 431.53 19.23
3441 9.0670 326.97 321.55 17.11
3442 9.0690 191.83 195.42 13.00
3443 9.0710 133.10 152.92 10.84
3444 9.0730 163.08 154.67 11.94
3445 9.0750 210.40 202.40 13.75
3446 9.0770 311.09 325.43 16.68
3447 9.0790 503.68 438.61 21.11
3448 9.0810 324.92 302.87 16.83
3449 9.0830 187.55 173.93 12.88
3450 9.0850 112.71 122.38 10.09
3451 9.0870 95.52 100.97 9.23
3452 9.0890 80.27 90.83 8.41
3453 9.0910 68.14 86.47 7.74
3454 9.0930 71.86 87.30 7.98
3455 9.0950 95.09 97.24 9.25
3456 9.0970 108.04 119.39 9.84
3457 9.0990 112.35 122.42 9.96
3458 9.1010 100.86 93.79 9.39
3459 9.1030 59.25 78.96 7.22
3460 9.1050 57.52 72.92 7.21
3461 9.1070 74.05 69.94 8.15
3462 9.1090 52.31 68.17 6.78
3463 9.1110 58.73 66.99 7.19
3464 9.1130 43.50 66.14 6.21
3465 9.1150 74.31 65.50 8.18
3466 9.1170 67.19 64.62 7.72
3467 9.1190 65.76 64.22 7.65
3468 9.1210 72.01 63.89 7.96
3469 9.1230 55.46 63.61 6.99
3470 9.1250 44.62 63.37 6.34
3471 9.1270 64.17 63.16 7.57
3472 9.1290 57.24 62.97 7.07
3473 9.1310 67.00 62.69 7.71
3474 9.1330 61.85 62.54 7.39
3475 9.1350 46.62 62.41 6.47
3476 9.1370 58.28 62.30 7.20
3477 9.1390 53.72 62.19 6.86
3478 9.1410 58.18 62.09 7.16
3479 9.1430 58.30 62.00 7.16
3480 9.1450 49.59 61.58 6.69
3481 9.1470 60.42 61.52 7.33
3482 9.1490 58.33 61.46 7.13
3483 9.1510 50.95 61.40 6.73
3484 9.1530 59.32 61.35 7.21
3485 9.1550 50.73 61.30 6.79
3486 9.1570 53.85 61.25 6.91
3487 9.1590 64.48 60.87 7.51
3488 9.1610 66.63 60.84 7.67
3489 9.1630 57.84 60.81 7.15
3490 9.1650 47.14 60.79 6.52
3491 9.1670 58.66 60.76 7.24
3492 9.1690 67.92 60.73 7.73
3493 9.1710 53.33 60.71 6.84
3494 9.1730 73.72 60.68 8.10
3495 9.1750 51.23 60.60 6.79
3496 9.1770 58.77 60.58 7.25
3497 9.1790 52.62 60.56 6.79
3498 9.1810 62.57 60.54 7.41
3499 9.1830 54.80 60.52 6.98
3500 9.1850 56.25 60.50 7.14
3501 9.1870 60.52 60.48 7.35
3502 9.1890 52.37 60.45 6.76
3503 9.1910 74.68 60.43 8.11
3504 9.1930 60.69 60.41 7.32
3505 9.1950 61.18 60.39 7.45
3506 9.1970 46.04 60.37 6.39
3507 9.1990 44.52 60.35 6.25
3508 9.2010 64.22 60.33 7.49
3509 9.2030 53.15 60.31 6.87
3510 9.2050 44.78 60.29 6.40
3511 9.2070 61.03 60.27 7.37
3512 9.2090 54.15 60.25 6.85
3513 9.2110 50.20 60.23 6.63
3514 9.2130 54.85 60.21 7.03
3515 9.2150 57.83 60.19 7.25
3516 9.2170 69.71 60.17 7.87
3517 9.2190 61.99 60.15 7.36
3518 9.2210 67.09 60.13 7.65
3519 9.2230 53.75 60.11 6.96
3520 9.2250 57.22 60.09 7.25
3521 9.2270 53.56 60.16 6.91
3522 9.2290 55.97 60.15 7.00
3523 9.2310 56.83 60.14 7.06
3524 9.2330 51.68 60.12 6.83
3525 9.2350 67.21 60.11 7.85
3526 9.2370 48.56 60.10 6.59
3527 9.2390 64.32 60.09 7.52
3528 9.2410 59.38 60.08 7.21
3529 9.2430 57.95 60.07 7.21
3530 9.2450 57.82 60.06 7.28
3531 9.2470 57.83 60.05 7.20
3532 9.2490 54.20 60.05 6.88
3533 9.2510 47.18 60.11 6.47
3534 9.2530 58.62 60.12 7.28
3535 9.2550 57.80 60.12 7.30
3536 9.2570 66.79 60.13 7.75
3537 9.2590 58.56 60.14 7.18
3538 9.2610 59.95 60.16 7.28
3539 9.2630 66.74 60.18 7.74
3540 9.2650 62.32 60.20 7.59
3541 9.2670 67.32 60.24 7.78
3542 9.2690 66.08 60.28 7.61
3543 9.2710 60.64 60.33 7.34
3544 9.2730 49.76 60.40 6.72
3545 9.2750 63.26 60.49 7.60
3546 9.2770 52.10 60.60 6.84
3547 9.2790 60.23 60.74 7.29
3548 9.2810 57.93 60.93 7.14
3549 9.2830 57.63 61.18 7.20
3550 9.2850 50.00 61.51 6.78
3551 9.2870 57.75 61.99 7.22
3552 9.2890 73.60 62.68 8.04
3553 9.2910 61.21 63.75 7.35
3554 9.2930 52.42 65.51 6.87
3555 9.2950 65.99 68.71 7.79
3556 9.2970 79.03 75.41 8.39
3557 9.2990 92.87 91.77 9.02
3558 9.3010 142.87 126.69 11.18
3559 9.3030 152.62 151.71 11.74
3560 9.3050 115.78 113.16 10.27
3561 9.3070 85.21 84.03 8.74
3562 9.3090 71.49 72.83 7.95
3563 9.3110 71.95 68.24 7.94
3564 9.3130 62.86 66.17 7.49
3565 9.3150 57.01 65.36 7.26
3566 9.3170 64.65 65.47 7.61
3567 9.3190 61.89 66.61 7.34
3568 9.3210 68.60 69.57 7.80
3569 9.3230 80.76 76.95 8.50
3570 9.3250 113.31 95.34 10.19
3571 9.3270 147.59 124.17 11.46
3572 9.3290 131.50 118.38 10.75
3573 9.3310 92.24 87.65 8.97
3574 9.3330 77.28 72.93 8.32
3575 9.3350 67.20 67.03 7.86
3576 9.3370 68.21 64.26 7.82
3577 9.3390 73.03 62.73 8.01
3578 9.3410 56.32 61.80 7.04
3579 9.3430 63.80 61.18 7.60
3580 9.3450 71.01 60.75 8.09
3581 9.3470 55.19 60.44 7.06
3582 9.3490 52.84 60.20 6.81
3583 9.3510 55.50 60.01 7.00
3584 9.3530 66.29 59.86 7.72
3585 9.3550 75.77 59.74 8.35
3586 9.3570 72.91 59.63 8.09
3587 9.3590 60.69 59.54 7.32
3588 9.3610 59.73 59.47 7.24
3589 9.3630 83.47 59.40 8.65
3590 9.3650 82.00 59.34 8.70
3591 9.3670 83.40 59.29 8.69
3592 9.3690 74.78 59.24 8.10
3593 9.3710 78.14 59.20 8.30
3594 9.3730 78.01 59.16 8.37
3595 9.3750 63.15 59.12 7.60
3596 9.3770 67.51 59.08 7.80
3597 9.3790 63.51 59.05 7.51
3598 9.3810 71.25 58.93 7.91
3599 9.3830 75.57 60.55 8.24
3600 9.3850 71.61 60.62 8.13
3601 9.3870 64.71 60.71 7.66
3602 9.3890 63.26 60.80 7.47
3603 9.3910 62.35 60.91 7.39
3604 9.3930 74.91 62.47 8.18
3605 9.3950 66.45 62.69 7.82
3606 9.3970 64.53 62.93 7.62
3607 9.3990 64.81 63.20 7.57
3608 9.4010 73.69 63.50 8.05
3609 9.4030 68.53 63.84 7.85
3610 9.4050 71.41 64.22 8.09
3611 9.4070 68.09 64.66 7.86
3612 9.4090 81.23 65.08 8.48
3613 9.4110 76.72 65.64 8.20
3614 9.4130 73.74 66.28 8.10
3615 9.4150 63.76 67.02 7.69
3616 9.4170 71.07 67.88 8.03
3617 9.4190 71.37 68.88 7.92
3618 9.4210 66.60 70.06 7.66
3619 9.4230 63.51 71.46 7.52
3620 9.4250 76.34 73.15 8.37
3621 9.4270 69.78 75.20 7.96
3622 9.4290 69.52 77.74 7.86
3623 9.4310 88.95 80.94 8.83
3624 9.4330 80.73 85.05 8.47
3625 9.4350 86.34 90.47 8.87
3626 9.4370 80.88 97.82 8.57
3627 9.4390 108.28 108.19 9.77
3628 9.4410 122.38 123.57 10.40
3629 9.4430 137.73 147.90 11.09
3630 9.4450 200.65 190.05 13.53
3631 9.4470 236.52 273.23 14.61
3632 9.4490 435.77 469.44 19.66
3633 9.4510 871.48 954.66 27.78
3634 9.4530 1497.44 1599.05 36.73
3635 9.4550 1062.44 1157.52 31.27
3636 9.4570 582.06 584.89 22.98
3637 9.4590 422.08 408.75 19.33
3638 9.4610 410.23 424.41 18.96
3639 9.4630 620.10 647.06 23.54
3640 9.4650 1124.88 1180.16 32.20
3641 9.4670 1360.71 1422.39 35.38
3642 9.4690 732.25 763.91 25.50
3643 9.4710 332.57 384.72 17.11
3644 9.4730 232.35 238.95 14.39
3645 9.4750 163.32 173.30 12.15
3646 9.4770 111.75 138.36 10.06
3647 9.4790 99.00 117.52 9.32
3648 9.4810 101.12 104.05 9.43
3649 9.4830 86.34 94.81 8.72
3650 9.4850 70.60 88.17 8.03
3651 9.4870 84.43 83.22 8.73
3652 9.4890 73.13 79.43 8.09
3653 9.4910 81.21 76.46 8.43
3654 9.4930 62.12 74.08 7.44
3655 9.4950 69.02 72.14 7.93
3656 9.4970 64.38 70.54 7.64
3657 9.4990 63.25 69.20 7.49
3658 9.5010 70.03 73.49 7.82
3659 9.5030 68.71 72.84 7.80
3660 9.5050 64.68 72.35 7.67
3661 9.5070 77.89 72.01 8.36
3662 9.5090 66.85 71.80 7.69
3663 9.5110 71.06 71.70 7.91
3664 9.5130 64.43 71.72 7.52
3665 9.5150 65.89 71.84 7.76
3666 9.5170 67.59 72.07 7.81
3667 9.5190 59.97 72.42 7.28
3668 9.5210 81.33 72.88 8.48
3669 9.5230 63.40 73.47 7.52
3670 9.5250 66.01 74.21 7.73
3671 9.5270 72.25 73.61 8.10
3672 9.5290 67.31 74.76 7.74
3673 9.5310 63.77 76.12 7.50
3674 9.5330 70.77 77.72 7.92
3675 9.5350 83.45 79.62 8.74
3676 9.5370 91.88 81.87 9.11
3677 9.5390 92.27 84.74 8.99
3678 9.5410 96.08 88.02 9.19
3679 9.5430 98.78 90.72 9.38
3680 9.5450 130.44 95.90 10.85
3681 9.5470 124.56 102.19 10.60
3682 9.5490 141.09 110.18 11.18
3683 9.5510 166.15 120.56 12.08
3684 9.5530 174.19 134.39 12.38
3685 9.5550 208.05 153.34 13.72
3686 9.5570 245.39 180.30 14.93
3687 9.5590 292.20 220.52 16.12
3688 9.5610 364.71 284.16 17.90
3689 9.5630 489.53 393.44 20.81
3690 9.5650 732.89 603.57 25.86
3691 9.5670 1100.60 1079.41 31.59
3692 9.5690 2336.86 2301.02 46.27
3693 9.5710 4634.54 4530.25 65.95
3694 9.5730 4603.11 4368.10 65.87
3695 9.5750 2133.00 1978.13 44.54
3696 9.5770 913.94 946.58 28.94
3697 9.5790 499.08 550.72 21.10
3698 9.5810 325.29 368.54 16.90
3699 9.5830 234.07 270.99 14.40
3700 9.5850 186.90 213.12 13.00
3701 9.5870 160.72 176.21 12.12
3702 9.5890 125.59 151.35 10.57
3703 9.5910 124.71 133.94 10.48
3704 9.5930 117.66 121.39 10.20
3705 9.5950 107.19 112.23 9.86
3706 9.5970 94.52 105.57 9.21
3707 9.5990 102.25 100.93 9.55
3708 9.6010 94.71 98.13 9.12
3709 9.6030 92.74 97.40 9.07
3710 9.6050 92.72 99.68 9.16
3711 9.6070 111.89 107.82 10.06
3712 9.6090 121.43 130.56 10.45
3713 9.6110 176.36 184.74 12.42
3714 9.6130 232.67 240.62 14.39
3715 9.6150 186.07 201.53 12.99
3716 9.6170 170.65 195.32 12.41
3717 9.6190 213.93 235.62 13.75
3718 9.6210 193.96 191.67 13.12
3719 9.6230 102.09 125.74 9.49
3720 9.6250 91.72 97.37 9.08
3721 9.6270 100.93 84.93 9.52
3722 9.6290 87.77 78.36 8.87
3723 9.6310 76.30 74.38 8.17
3724 9.6330 75.27 71.71 8.16
3725 9.6350 76.67 69.80 8.35
3726 9.6370 80.30 68.36 8.52
3727 9.6390 62.21 67.23 7.46
3728 9.6410 76.50 66.31 8.19
3729 9.6430 61.78 65.56 7.40
3730 9.6450 59.95 59.84 7.35
3731 9.6470 72.53 59.55 8.12
3732 9.6490 71.20 59.32 7.95
3733 9.6510 84.54 59.13 8.63
3734 9.6530 81.93 58.97 8.53
3735 9.6550 53.74 58.83 6.96
3736 9.6570 65.03 58.71 7.70
3737 9.6590 78.25 58.61 8.36
3738 9.6610 70.23 58.52 7.83
3739 9.6630 86.25 58.45 8.75
3740 9.6650 77.72 58.38 8.36
3741 9.6670 72.56 58.32 8.13
3742 9.6690 73.47 58.26 8.08
3743 9.6710 76.24 58.22 8.21
3744 9.6730 83.71 58.17 8.59
3745 9.6750 62.36 58.13 7.52
3746 9.6770 72.26 58.10 8.06
3747 9.6790 85.84 58.07 8.77
3748 9.6810 63.04 58.04 7.46
3749 9.6830 63.06 58.01 7.46
3750 9.6850 63.66 57.99 7.59
3751 9.6870 60.32 57.96 7.37
3752 9.6890 60.39 57.94 7.35
3753 9.6910 58.90 57.90 7.16
3754 9.6930 80.25 57.90 8.48
3755 9.6950 69.15 57.89 7.86
3756 9.6970 60.04 57.74 7.36
3757 9.6990 68.15 57.75 7.79
3758 9.7010 68.75 57.76 7.77
3759 9.7030 73.03 57.77 8.02
3760 9.7050 59.33 57.77 7.33
3761 9.7070 54.40 57.79 7.02
3762 9.7090 61.45 57.80 7.41
3763 9.7110 55.58 57.81 7.01
3764 9.7130 67.26 57.82 7.68
3765 9.7150 52.24 57.96 6.89
3766 9.7170 59.46 57.99 7.28
3767 9.7190 74.83 58.01 8.16
3768 9.7210 54.77 58.05 6.95
3769 9.7230 58.28 58.08 7.21
3770 9.7250 59.47 58.12 7.28
3771 9.7270 68.72 58.17 7.88
3772 9.7290 59.52 58.22 7.30
3773 9.7310 68.63 58.28 7.74
3774 9.7330 68.85 58.35 7.78
3775 9.7350 57.20 58.43 7.21
3776 9.7370 65.45 58.53 7.68
3777 9.7390 73.38 58.64 8.08
3778 9.7410 64.19 58.78 7.50
3779 9.7430 65.22 58.96 7.62
3780 9.7450 62.83 59.17 7.53
3781 9.7470 61.69 59.44 7.47
3782 9.7490 77.62 62.92 8.32
3783 9.7510 75.97 63.57 8.17
3784 9.7530 54.96 64.42 6.94
3785 9.7550 65.98 65.57 7.71
3786 9.7570 61.00 67.26 7.44
3787 9.7590 64.05 69.93 7.53
3788 9.7610 76.84 74.64 8.17
3789 9.7630 84.49 84.38 8.68
3790 9.7650 122.06 107.61 10.45
3791 9.7670 162.93 156.35 12.14
3792 9.7690 172.40 174.17 12.37
3793 9.7710 133.40 124.59 10.88
3794 9.7730 98.80 95.47 9.31
3795 9.7750 78.03 84.70 8.40
3796 9.7770 73.77 80.74 8.15
3797 9.7790 89.74 79.63 9.00
3798 9.7810 82.05 80.15 8.47
3799 9.7830 77.23 82.04 8.29
3800 9.7850 73.99 85.67 8.17
3801 9.7870 85.58 92.41 8.80
3802 9.7890 107.38 106.55 9.75
3803 9.7910 142.38 138.78 11.19
3804 9.7930 202.11 189.27 13.37
3805 9.7950 193.18 184.52 13.19
3806 9.7970 150.07 136.75 11.57
3807 9.7990 95.33 116.07 9.24
3808 9.8010 101.88 111.04 9.48
3809 9.8030 109.41 112.61 9.84
3810 9.8050 107.17 118.08 9.83
3811 9.8070 128.10 127.05 10.75
3812 9.8090 152.45 140.19 11.70
3813 9.8110 171.00 159.22 12.22
3814 9.8130 194.59 187.46 13.15
3815 9.8150 252.35 231.51 15.06
3816 9.8170 327.36 305.46 17.14
3817 9.8190 461.43 443.75 20.28
3818 9.8210 750.02 745.31 25.72
3819 9.8230 1483.09 1475.18 36.50
3820 9.8250 2910.98 2748.16 51.90
3821 9.8270 2883.49 2756.59 52.07
3822 9.8290 1478.52 1410.49 36.58
3823 9.8310 797.83 761.60 26.53
3824 9.8330 629.04 528.40 23.64
3825 9.8350 547.47 461.01 22.23
3826 9.8370 565.51 495.78 22.63
3827 9.8390 704.66 662.71 25.10
3828 9.8410 1177.48 1126.13 32.25
3829 9.8430 2176.36 2196.29 44.34
3830 9.8450 3239.36 3191.05 55.22
3831 9.8470 2287.13 2074.02 46.03
3832 9.8490 877.57 994.05 28.26
3833 9.8510 462.52 552.58 20.15
3834 9.8530 299.66 362.88 16.23
3835 9.8550 221.98 267.37 14.10
3836 9.8570 194.03 214.52 13.26
3837 9.8590 169.09 186.59 12.27
3838 9.8610 153.10 178.88 11.59
3839 9.8630 181.78 178.41 12.69
3840 9.8650 159.39 167.49 11.97
3841 9.8670 171.20 169.88 12.39
3842 9.8690 161.92 146.41 12.03
3843 9.8710 130.72 116.56 10.72
3844 9.8730 116.70 101.68 10.12
3845 9.8750 128.93 93.42 10.80
3846 9.8770 110.14 88.07 9.96
3847 9.8790 118.08 84.17 10.28
3848 9.8810 113.12 81.14 9.94
3849 9.8830 95.25 78.69 9.19
3850 9.8850 112.33 76.66 10.07
3851 9.8870 106.71 74.94 9.80
3852 9.8890 102.54 73.47 9.58
3853 9.8910 106.34 72.20 9.67
3854 9.8930 102.68 71.09 9.55
3855 9.8950 89.00 70.11 8.97
3856 9.8970 84.12 69.24 8.71
3857 9.8990 79.87 68.46 8.49
3858 9.9010 74.29 67.77 8.09
3859 9.9030 75.18 67.14 8.17
3860 9.9050 81.33 66.58 8.52
3861 9.9070 67.95 63.26 7.82
3862 9.9090 63.95 62.92 7.55
3863 9.9110 65.03 62.62 7.56
3864 9.9130 58.72 62.35 7.20
3865 9.9150 66.12 62.10 7.72
3866 9.9170 58.07 61.88 7.22
3867 9.9190 58.69 61.67 7.26
3868 9.9210 56.36 61.48 7.06
3869 9.9230 54.37 61.30 6.92
3870 9.9250 52.16 61.14 6.83
3871 9.9270 54.55 58.10 7.03
3872 9.9290 49.01 58.10 6.62
3873 9.9310 61.49 58.10 7.37
3874 9.9330 62.89 58.10 7.45
3875 9.9350 63.96 58.10 7.61
3876 9.9370 69.80 58.12 7.89
3877 9.9390 56.61 58.12 7.12
3878 9.9410 53.75 58.09 6.86
3879 9.9430 56.41 58.10 7.08
3880 9.9450 58.20 58.10 7.24
3881 9.9470 61.42 58.06 7.45
3882 9.9490 57.86 58.07 7.16
3883 9.9510 57.42 58.08 7.13
3884 9.9530 61.36 58.09 7.35
3885 9.9550 60.34 58.10 7.38
3886 9.9570 59.26 58.11 7.30
3887 9.9590 58.51 58.25 7.23
3888 9.9610 56.62 58.27 7.06
3889 9.9630 66.30 58.29 7.67
3890 9.9650 61.85 58.31 7.48
3891 9.9670 63.71 58.33 7.55
3892 9.9690 59.05 58.35 7.27
3893 9.9710 57.39 58.37 7.12
3894 9.9730 72.68 58.40 8.01
3895 9.9750 59.15 58.43 7.34
3896 9.9770 58.40 58.46 7.24
3897 9.9790 63.84 58.69 7.56
3898 9.9810 70.39 58.74 7.86
3899 9.9830 74.59 58.79 8.16
3900 9.9850 68.26 58.85 7.87
3901 9.9870 66.34 58.92 7.73
3902 9.9890 66.72 58.99 7.76
3903 9.9910 77.79 59.07 8.29
3904 9.9930 69.38 59.17 7.82
3905 9.9950 72.71 59.29 8.12
3906 9.9970 73.92 59.58 8.16
3907 9.9990 59.94 59.77 7.32
3908 10.0010 74.88 60.01 8.13
3909 10.0030 64.91 60.33 7.58
3910 10.0050 70.83 60.82 8.03
3911 10.0070 73.63 61.62 8.15
3912 10.0090 60.66 63.17 7.37
3913 10.0110 68.22 66.70 7.78
3914 10.0130 69.98 73.42 7.87
3915 10.0150 75.48 75.75 8.29
3916 10.0170 78.53 69.01 8.41
3917 10.0190 77.35 65.46 8.32
3918 10.0210 67.91 64.54 7.74
3919 10.0230 62.99 64.79 7.48
3920 10.0250 70.42 65.84 8.02
3921 10.0270 59.53 67.82 7.34
3922 10.0290 66.91 71.37 7.74
3923 10.0310 89.41 78.25 8.89
3924 10.0330 98.46 93.57 9.32
3925 10.0350 112.19 129.35 10.10
3926 10.0370 173.90 180.59 12.46
3927 10.0390 169.47 162.18 12.29
3928 10.0410 110.88 111.21 9.88
3929 10.0430 86.16 89.23 8.79
3930 10.0450 94.90 82.03 9.29
3931 10.0470 77.44 81.56 8.36
3932 10.0490 98.62 86.65 9.41
3933 10.0510 99.43 101.05 9.36
3934 10.0530 132.44 138.30 10.85
3935 10.0550 198.98 216.00 13.52
3936 10.0570 218.95 255.11 14.03
3937 10.0590 173.89 168.19 12.42
3938 10.0610 132.86 112.94 10.84
3939 10.0630 116.22 92.07 10.21
3940 10.0650 82.86 84.65 8.64
3941 10.0670 103.59 84.13 9.63
3942 10.0690 105.35 90.65 9.73
3943 10.0710 126.91 111.17 10.58
3944 10.0730 168.02 160.48 12.17
3945 10.0750 190.78 210.21 13.13
3946 10.0770 189.48 159.83 13.01
3947 10.0790 113.63 106.47 10.03
3948 10.0810 88.18 84.26 8.84
3949 10.0830 93.84 74.60 9.13
3950 10.0850 85.12 69.66 8.76
3951 10.0870 94.41 66.79 9.17
3952 10.0890 69.07 64.98 7.86
3953 10.0910 61.75 63.76 7.42
3954 10.0930 79.27 62.89 8.35
3955 10.0950 63.03 62.24 7.53
3956 10.0970 53.19 61.75 6.91
3957 10.0990 63.08 61.37 7.48
3958 10.1010 65.37 61.07 7.58
3959 10.1030 58.37 60.83 7.22
3960 10.1050 66.72 60.63 7.75
3961 10.1070 61.76 60.47 7.40
3962 10.1090 61.04 60.33 7.34
3963 10.1110 66.59 60.22 7.69
3964 10.1130 54.08 60.12 6.92
3965 10.1150 72.56 60.04 8.09
3966 10.1170 67.46 59.97 7.73
3967 10.1190 60.84 59.78 7.32
3968 10.1210 69.09 59.74 7.82
3969 10.1230 64.04 59.74 7.52
3970 10.1250 52.62 59.71 6.90
3971 10.1270 64.34 59.68 7.56
3972 10.1290 67.06 59.67 7.69
3973 10.1310 68.05 59.65 7.76
3974 10.1330 55.66 59.64 7.02
3975 10.1350 64.74 59.62 7.63
3976 10.1370 66.96 59.43 7.71
3977 10.1390 52.45 59.43 6.80
3978 10.1410 53.84 59.44 6.90
3979 10.1430 51.37 59.45 6.74
3980 10.1450 56.88 59.46 7.15
3981 10.1470 76.10 59.47 8.21
3982 10.1490 64.32 59.48 7.50
3983 10.1510 71.69 59.50 7.94
3984 10.1530 49.01 59.52 6.60
3985 10.1550 54.92 59.54 7.03
3986 10.1570 64.59 59.42 7.58
3987 10.1590 52.52 59.45 6.82
3988 10.1610 47.62 59.49 6.48
3989 10.1630 49.44 59.53 6.63
3990 10.1650 60.58 59.58 7.39
3991 10.1670 69.32 59.63 7.87
3992 10.1690 44.58 59.69 6.32
3993 10.1710 53.33 59.76 6.86
3994 10.1730 59.08 59.84 7.22
3995 10.1750 50.75 59.95 6.80
3996 10.1770 53.31 60.08 6.90
3997 10.1790 56.04 60.26 7.04
3998 10.1810 53.99 60.50 6.88
3999 10.1830 44.22 60.85 6.28
4000 10.1850 63.56 61.38 7.57
4001 10.1870 46.58 62.26 6.46
4002 10.1890 58.36 63.90 7.21
4003 10.1910 76.10 67.43 8.20
4004 10.1930 78.34 76.13 8.30
4005 10.1950 85.07 92.51 8.80
4006 10.1970 103.09 93.72 9.63
4007 10.1990 82.02 77.31 8.52
4008 10.2010 81.89 71.63 8.51
4009 10.2030 64.56 72.54 7.56
4010 10.2050 66.72 69.73 7.83
4011 10.2070 66.31 64.79 7.69
4012 10.2090 63.94 62.57 7.56
4013 10.2110 45.32 61.57 6.33
4014 10.2130 53.07 61.04 6.86
4015 10.2150 49.36 60.73 6.67
4016 10.2170 54.53 60.53 7.02
4017 10.2190 61.29 60.40 7.41
4018 10.2210 63.80 60.30 7.51
4019 10.2230 39.24 60.24 5.93
4020 10.2250 52.45 60.19 6.91
4021 10.2270 45.68 60.16 6.43
4022 10.2290 47.81 60.14 6.54
4023 10.2310 47.28 60.12 6.50
4024 10.2330 65.09 60.12 7.58
4025 10.2350 51.17 60.11 6.84
4026 10.2370 44.91 60.12 6.36
4027 10.2390 43.87 60.12 6.27
4028 10.2410 55.82 60.13 7.01
4029 10.2430 43.61 60.15 6.24
4030 10.2450 45.81 60.17 6.48
4031 10.2470 64.04 60.19 7.57
4032 10.2490 48.25 60.23 6.56
4033 10.2510 54.81 60.27 6.94
4034 10.2530 55.27 60.33 7.05
4035 10.2550 51.41 60.43 6.83
4036 10.2570 55.17 60.60 7.06
4037 10.2590 46.04 60.93 6.40
4038 10.2610 64.00 61.68 7.56
4039 10.2630 53.96 63.45 6.90
4040 10.2650 62.76 65.30 7.54
4041 10.2670 60.07 63.44 7.36
4042 10.2690 65.79 61.67 7.68
4043 10.2710 57.32 60.99 7.12
4044 10.2730 47.12 60.67 6.47
4045 10.2750 47.65 60.54 6.60
4046 10.2770 52.02 60.47 6.80
4047 10.2790 54.86 60.44 7.01
4048 10.2810 46.56 60.41 6.42
4049 10.2830 68.35 60.41 7.80
4050 10.2850 48.77 60.41 6.65
4051 10.2870 42.51 60.41 6.20
4052 10.2890 50.26 60.42 6.68
4053 10.2910 51.71 60.43 6.79
4054 10.2930 46.38 60.45 6.40
4055 10.2950 56.37 60.46 7.18
4056 10.2970 63.59 60.48 7.53
4057 10.2990 42.81 60.49 6.16
4058 10.3010 53.91 60.51 6.94
4059 10.3030 57.33 60.53 7.12
4060 10.3050 57.79 60.54 7.26
4061 10.3070 53.84 60.56 6.91
4062 10.3090 50.98 60.58 6.72
4063 10.3110 54.01 60.60 6.91
4064 10.3130 51.48 60.62 6.76
4065 10.3150 54.25 60.63 6.98
4066 10.3170 40.39 60.65 6.02
4067 10.3190 51.06 60.67 6.71
4068 10.3210 43.92 60.69 6.23
4069 10.3230 69.38 60.71 7.86
4070 10.3250 52.29 60.73 6.90
4071 10.3270 45.75 60.75 6.36
4072 10.3290 56.22 60.77 7.07
4073 10.3310 62.44 60.79 7.48
4074 10.3330 44.52 60.81 6.27
4075 10.3350 46.29 60.83 6.50
4076 10.3370 50.47 60.85 6.71
4077 10.3390 36.74 60.87 5.73
4078 10.3410 58.02 60.89 7.18
4079 10.3430 60.97 60.90 7.33
4080 10.3450 53.66 60.92 7.01
4081 10.3470 50.58 60.94 6.70
4082 10.3490 64.73 60.96 7.59
4083 10.3510 49.82 60.98 6.64
4084 10.3530 58.58 61.00 7.20
4085 10.3550 54.98 61.02 7.03
4086 10.3570 55.98 61.05 7.04
4087 10.3590 49.78 61.07 6.64
4088 10.3610 54.45 61.09 6.92
4089 10.3630 56.14 61.11 7.02
4090 10.3650 49.40 61.13 6.70
4091 10.3670 58.89 61.15 7.23
4092 10.3690 41.02 61.17 6.01
4093 10.3710 41.94 61.19 6.11
4094 10.3730 50.45 61.21 6.68
4095 10.3750 43.77 61.23 6.32
4096 10.3770 61.40 61.25 7.34
4097 10.3790 49.06 61.28 6.61
4098 10.3810 47.25 61.30 6.42
4099 10.3830 62.76 61.32 7.46
4100 10.3850 50.57 61.34 6.75
4101 10.3870 61.84 61.36 7.44
4102 10.3890 60.69 61.38 7.28
4103 10.3910 51.31 61.40 6.72
4104 10.3930 50.50 61.43 6.68
4105 10.3950 65.23 61.45 7.66
4106 10.3970 47.24 61.47 6.46
4107 10.3990 49.88 61.49 6.63
4108 10.4010 52.85 61.51 6.83
4109 10.4030 57.54 61.54 7.12
4110 10.4050 67.43 61.56 7.85
4111 10.4070 58.88 61.58 7.19
4112 10.4090 58.44 61.60 7.18
4113 10.4110 51.74 61.62 6.74
4114 10.4130 58.62 61.65 7.16
4115 10.4150 49.77 61.67 6.70
4116 10.4170 50.51 61.69 6.66
4117 10.4190 44.15 61.71 6.23
4118 10.4210 46.85 61.73 6.42
4119 10.4230 54.46 61.76 6.94
4120 10.4250 45.68 61.78 6.45
4121 10.4270 51.41 61.80 6.70
4122 10.4290 55.83 61.82 7.01
4123 10.4310 56.21 61.85 7.06
4124 10.4330 65.04 61.87 7.56
4125 10.4350 58.26 61.89 7.27
4126 10.4370 66.13 61.91 7.63
4127 10.4390 57.12 61.94 7.08
4128 10.4410 60.79 61.96 7.32
4129 10.4430 49.88 61.98 6.65
4130 10.4450 55.71 62.01 7.11
4131 10.4470 53.03 62.03 6.83
4132 10.4490 53.45 62.05 6.87
4133 10.4510 59.30 62.07 7.24
4134 10.4530 57.23 62.10 7.09
4135 10.4550 51.88 62.12 6.85
4136 10.4570 54.20 62.14 6.90
4137 10.4590 54.59 62.17 6.93
4138 10.4610 44.58 62.19 6.26
4139 10.4630 52.03 62.21 6.80
4140 10.4650 40.20 62.24 6.04
4141 10.4670 65.42 62.26 7.57
4142 10.4690 39.74 62.28 5.95
4143 10.4710 49.72 62.31 6.60
4144 10.4730 43.78 62.33 6.25
4145 10.4750 56.62 62.35 7.16
4146 10.4770 51.78 62.38 6.75
4147 10.4790 52.90 62.40 6.86
4148 10.4810 60.84 62.43 7.28
4149 10.4830 46.44 62.45 6.45
4150 10.4850 53.90 62.47 6.99
4151 10.4870 55.51 62.50 7.01
4152 10.4890 61.43 62.52 7.39
4153 10.4910 49.72 62.54 6.62
4154 10.4930 51.39 62.57 6.75
4155 10.4950 52.15 62.59 6.90
4156 10.4970 49.61 62.62 6.63
4157 10.4990 55.15 62.64 7.01
4158 10.5010 51.72 62.71 6.72
4159 10.5030 61.59 62.74 7.43
4160 10.5050 48.25 62.77 6.63
4161 10.5070 52.27 62.79 6.84
4162 10.5090 58.60 62.82 7.22
4163 10.5110 75.04 62.85 8.10
4164 10.5130 51.23 62.88 6.77
4165 10.5150 57.94 62.91 7.21
4166 10.5170 50.54 62.94 6.72
4167 10.5190 67.20 62.97 7.74
4168 10.5210 51.84 63.00 6.74
4169 10.5230 55.82 63.03 7.08
4170 10.5250 60.68 63.06 7.45
4171 10.5270 58.27 63.10 7.21
4172 10.5290 55.34 63.13 7.03
4173 10.5310 51.68 63.16 6.75
4174 10.5330 56.52 63.20 7.11
4175 10.5350 57.01 63.24 7.19
4176 10.5370 61.54 63.28 7.41
4177 10.5390 62.54 63.33 7.49
4178 10.5410 41.20 63.37 6.03
4179 10.5430 56.84 63.42 7.13
4180 10.5450 40.72 63.48 6.12
4181 10.5470 64.66 63.54 7.65
4182 10.5490 52.16 63.61 6.88
4183 10.5510 59.89 63.70 7.29
4184 10.5530 55.29 63.79 7.04
4185 10.5550 49.98 63.91 6.76
4186 10.5570 56.47 64.05 7.16
4187 10.5590 54.04 64.24 6.93
4188 10.5610 51.15 64.49 6.76
4189 10.5630 57.50 64.84 7.18
4190 10.5650 59.89 65.36 7.40
4191 10.5670 65.04 66.18 7.65
4192 10.5690 42.94 67.63 6.26
4193 10.5710 57.18 70.52 7.13
4194 10.5730 64.60 77.23 7.62
4195 10.5750 81.05 92.88 8.61
4196 10.5770 103.83 109.13 9.68
4197 10.5790 83.94 92.74 8.67
4198 10.5810 67.65 76.80 7.75
4199 10.5830 46.37 70.46 6.47
4200 10.5850 66.47 67.75 7.83
4201 10.5870 55.85 66.39 7.08
4202 10.5890 44.74 65.64 6.35
4203 10.5910 50.55 65.18 6.72
4204 10.5930 58.47 64.89 7.20
4205 10.5950 54.91 64.70 7.09
4206 10.5970 52.95 64.56 6.89
4207 10.5990 49.19 64.47 6.67
4208 10.6010 68.50 64.41 7.82
4209 10.6030 50.92 64.36 6.76
4210 10.6050 47.47 64.33 6.56
4211 10.6070 58.13 64.31 7.22
4212 10.6090 56.82 64.72 7.18
4213 10.6110 60.40 64.73 7.35
4214 10.6130 45.36 64.76 6.36
4215 10.6150 59.90 64.79 7.38
4216 10.6170 68.23 64.82 7.86
4217 10.6190 61.60 64.86 7.43
4218 10.6210 45.15 64.90 6.33
4219 10.6230 58.39 64.95 7.23
4220 10.6250 51.07 65.00 6.80
4221 10.6270 61.72 65.06 7.43
4222 10.6290 53.14 65.12 6.93
4223 10.6310 49.08 65.19 6.62
4224 10.6330 50.97 65.26 6.73
4225 10.6350 59.99 65.34 7.37
4226 10.6370 61.83 65.42 7.42
4227 10.6390 69.59 65.52 7.89
4228 10.6410 57.93 66.26 7.20
4229 10.6430 61.45 66.40 7.40
4230 10.6450 77.16 66.56 8.36
4231 10.6470 58.60 66.74 7.25
4232 10.6490 57.02 66.94 7.14
4233 10.6510 59.90 67.17 7.30
4234 10.6530 73.21 67.42 8.03
4235 10.6550 75.68 68.22 8.30
4236 10.6570 70.83 68.58 7.95
4237 10.6590 69.43 68.99 7.86
4238 10.6610 73.86 69.47 8.12
4239 10.6630 65.07 70.03 7.58
4240 10.6650 68.53 70.69 7.89
4241 10.6670 55.14 71.50 7.02
4242 10.6690 64.61 72.49 7.64
4243 10.6710 66.36 73.72 7.64
4244 10.6730 79.49 75.31 8.41
4245 10.6750 92.90 77.42 9.14
4246 10.6770 88.46 80.30 8.89
4247 10.6790 77.33 84.44 8.31
4248 10.6810 71.55 90.71 7.98
4249 10.6830 110.79 100.93 9.90
4250 10.6850 108.05 119.41 9.90
4251 10.6870 176.41 157.67 12.56
4252 10.6890 275.95 245.35 15.72
4253 10.6910 458.14 403.94 20.20
4254 10.6930 527.43 446.73 21.56
4255 10.6950 320.36 280.07 17.08
4256 10.6970 166.90 175.97 12.23
4257 10.6990 149.81 133.14 11.56
4258 10.7010 128.80 115.07 10.68
4259 10.7030 109.07 107.68 9.84
4260 10.7050 111.85 106.39 10.05
4261 10.7070 112.56 110.13 10.03
4262 10.7090 123.75 120.09 10.51
4263 10.7110 145.82 140.80 11.41
4264 10.7130 178.97 185.24 12.50
4265 10.7150 260.88 291.05 15.37
4266 10.7170 460.82 517.19 20.25
4267 10.7190 623.64 660.45 23.55
4268 10.7210 402.93 414.39 18.91
4269 10.7230 250.72 243.44 14.94
4270 10.7250 171.21 179.87 12.37
4271 10.7270 170.90 161.23 12.36
4272 10.7290 177.03 169.78 12.59
4273 10.7310 228.33 214.13 14.25
4274 10.7330 348.89 335.77 17.55
4275 10.7350 516.15 558.37 21.65
4276 10.7370 599.82 568.66 23.17
4277 10.7390 302.99 325.02 16.43
4278 10.7410 157.28 195.42 11.79
4279 10.7430 127.86 141.08 10.63
4280 10.7450 102.23 115.09 9.61
4281 10.7470 115.38 100.83 10.16
4282 10.7490 99.16 92.16 9.40
4283 10.7510 78.69 86.49 8.34
4284 10.7530 84.98 82.58 8.66
4285 10.7550 67.98 79.75 7.84
4286 10.7570 72.61 77.63 8.03
4287 10.7590 71.46 76.01 7.98
4288 10.7610 79.00 74.73 8.37
4289 10.7630 68.28 73.71 7.79
4290 10.7650 77.71 72.88 8.37
4291 10.7670 79.40 72.19 8.42
4292 10.7690 68.87 71.62 7.83
4293 10.7710 73.31 71.14 8.07
4294 10.7730 81.26 70.73 8.49
4295 10.7750 82.79 70.38 8.65
4296 10.7770 77.09 70.08 8.28
4297 10.7790 73.20 69.44 8.10
4298 10.7810 77.02 69.23 8.25
4299 10.7830 83.62 69.05 8.62
4300 10.7850 90.25 68.89 9.04
4301 10.7870 81.19 68.75 8.48
4302 10.7890 87.47 68.63 8.86
4303 10.7910 98.74 68.52 9.37
4304 10.7930 81.19 68.43 8.48
4305 10.7950 83.95 68.35 8.68
4306 10.7970 90.47 68.28 9.00
4307 10.7990 93.19 71.29 9.09
4308 10.8010 90.87 70.83 8.99
4309 10.8030 76.64 70.99 8.26
4310 10.8050 88.65 71.16 8.95
4311 10.8070 88.90 71.35 8.86
4312 10.8090 97.49 71.56 9.34
4313 10.8110 88.46 71.79 8.86
4314 10.8130 96.14 72.05 9.20
4315 10.8150 93.82 72.34 9.19
4316 10.8170 89.35 72.66 8.91
4317 10.8190 81.38 75.48 8.48
4318 10.8210 106.48 76.05 9.64
4319 10.8230 78.54 76.67 8.40
4320 10.8250 89.86 77.36 8.94
4321 10.8270 76.80 78.11 8.27
4322 10.8290 84.72 78.95 8.68
4323 10.8310 75.61 79.88 8.20
4324 10.8330 69.47 80.92 7.82
4325 10.8350 106.39 82.09 9.79
4326 10.8370 92.16 83.41 9.04
4327 10.8390 90.67 84.92 8.94
4328 10.8410 78.82 86.65 8.37
4329 10.8430 83.90 88.64 8.59
4330 10.8450 85.73 90.97 8.81
4331 10.8470 97.71 93.70 9.31
4332 10.8490 101.44 96.96 9.46
4333 10.8510 98.06 100.87 9.37
4334 10.8530 95.65 105.66 9.20
4335 10.8550 114.11 111.59 10.11
4336 10.8570 119.25 119.10 10.28
4337 10.8590 119.55 128.82 10.31
4338 10.8610 148.33 141.74 11.47
4339 10.8630 174.31 159.51 12.39
4340 10.8650 168.00 184.96 12.33
4341 10.8670 227.40 223.38 14.24
4342 10.8690 282.73 285.58 15.77
4343 10.8710 367.99 395.81 18.09
4344 10.8730 561.51 617.60 22.28
4345 10.8750 1011.45 1128.27 30.26
4346 10.8770 2164.41 2213.70 44.33
4347 10.8790 3040.80 2968.96 52.81
4348 10.8810 1765.55 1812.01 40.05
4349 10.8830 950.09 924.95 28.97
4350 10.8850 637.44 568.65 24.06
4351 10.8870 459.32 422.94 20.21
4352 10.8890 401.74 367.95 18.82
4353 10.8910 426.55 367.77 19.53
4354 10.8930 454.81 421.70 20.04
4355 10.8950 587.77 563.71 23.05
4356 10.8970 897.47 904.71 28.25
4357 10.8990 1541.07 1707.50 37.18
4358 10.9010 2697.12 2847.79 49.79
4359 10.9030 2538.04 2421.40 48.06
4360 10.9050 1255.13 1236.62 33.87
4361 10.9070 620.87 668.59 23.44
4362 10.9090 371.05 423.24 18.20
4363 10.9110 274.10 302.45 15.55
4364 10.9130 201.29 234.76 13.34
4365 10.9150 175.81 193.26 12.58
4366 10.9170 151.71 165.85 11.59
4367 10.9190 128.07 146.82 10.61
4368 10.9210 123.81 133.04 10.51
4369 10.9230 126.36 122.75 10.55
4370 10.9250 100.11 114.84 9.49
4371 10.9270 119.52 108.62 10.34
4372 10.9290 98.94 103.64 9.37
4373 10.9310 114.44 99.58 10.07
4374 10.9330 113.90 96.23 10.05
4375 10.9350 105.40 93.44 9.79
4376 10.9370 94.24 91.08 9.13
4377 10.9390 103.68 89.08 9.63
4378 10.9410 71.97 87.36 8.00
4379 10.9430 87.66 86.78 8.86
4380 10.9450 82.72 85.54 8.60
4381 10.9470 94.50 84.47 9.24
4382 10.9490 79.19 83.54 8.39
4383 10.9510 103.32 83.66 9.58
4384 10.9530 91.73 83.02 9.02
4385 10.9550 91.46 82.49 9.09
4386 10.9570 72.65 82.04 8.02
4387 10.9590 95.14 81.69 9.17
4388 10.9610 101.79 78.54 9.53
4389 10.9630 107.29 78.49 9.74
4390 10.9650 102.31 78.51 9.63
4391 10.9670 83.64 78.62 8.63
4392 10.9690 87.02 78.81 8.83
4393 10.9710 102.57 79.11 9.56
4394 10.9730 94.91 79.54 9.17
4395 10.9750 94.62 80.12 9.26
4396 10.9770 102.13 80.91 9.48
4397 10.9790 93.94 81.99 9.11
4398 10.9810 112.39 83.50 9.99
4399 10.9830 109.05 85.70 9.85
4400 10.9850 117.26 89.10 10.30
4401 10.9870 114.47 92.00 10.10
4402 10.9890 129.77 102.97 10.70
4403 10.9910 152.69 126.97 11.67
4404 10.9930 208.26 179.03 13.57
4405 10.9950 237.60 227.80 14.62
4406 10.9970 204.52 178.68 13.52
4407 10.9990 162.82 131.73 12.05
4408 11.0010 123.98 114.77 10.52
4409 11.0030 146.69 111.47 11.45
4410 11.0050 131.74 113.89 10.88
4411 11.0070 138.64 117.29 11.12
4412 11.0090 125.68 125.75 10.62
4413 11.0110 172.13 142.67 12.37
4414 11.0130 162.25 174.14 12.04
4415 11.0150 226.14 237.42 14.29
4416 11.0170 387.06 382.52 18.50
4417 11.0190 760.83 700.49 26.01
4418 11.0210 998.62 953.33 30.04
4419 11.0230 710.15 634.62 25.16
4420 11.0250 432.09 410.50 19.77
4421 11.0270 442.56 388.93 19.87
4422 11.0290 531.17 542.44 21.86
4423 11.0310 878.40 878.40 27.98
4424 11.0330 950.24 891.90 29.18
4425 11.0350 536.41 499.59 22.09
4426 11.0370 292.90 288.03 16.05
4427 11.0390 176.31 197.99 12.45
4428 11.0410 169.49 154.33 12.29
4429 11.0430 137.90 130.17 11.06
4430 11.0450 125.55 115.44 10.61
4431 11.0470 93.38 105.80 9.10
4432 11.0490 105.33 99.13 9.71
4433 11.0510 97.31 96.04 9.25
4434 11.0530 80.89 92.57 8.50
4435 11.0550 85.79 89.97 8.80
4436 11.0570 88.34 87.99 8.89
4437 11.0590 86.92 86.47 8.69
4438 11.0610 90.76 85.31 8.96
4439 11.0630 97.45 84.43 9.29
4440 11.0650 76.82 83.79 8.34
4441 11.0670 77.55 83.36 8.26
4442 11.0690 62.87 83.10 7.51
4443 11.0710 74.12 83.02 8.09
4444 11.0730 74.43 83.12 8.11
4445 11.0750 77.58 83.40 8.36
4446 11.0770 82.41 83.89 8.56
4447 11.0790 72.17 84.50 7.97
4448 11.0810 90.23 85.58 8.92
4449 11.0830 72.81 87.11 8.05
4450 11.0850 86.68 89.29 8.87
4451 11.0870 99.13 92.48 9.36
4452 11.0890 111.72 97.36 9.92
4453 11.0910 114.94 105.33 10.12
4454 11.0930 128.72 119.64 10.66
4455 11.0950 147.89 148.90 11.53
4456 11.0970 210.51 216.71 13.62
4457 11.0990 376.32 349.51 18.22
4458 11.1010 404.12 392.95 18.92
4459 11.1030 253.54 251.01 14.93
4460 11.1050 166.30 167.71 12.21
4461 11.1070 171.68 135.24 12.35
4462 11.1090 132.65 122.69 10.78
4463 11.1110 122.82 119.42 10.38
4464 11.1130 129.25 122.55 10.68
4465 11.1150 137.62 133.21 11.11
4466 11.1170 175.23 157.26 12.47
4467 11.1190 209.44 211.85 13.56
4468 11.1210 286.10 282.78 15.97
4469 11.1230 239.46 259.69 14.52
4470 11.1250 222.26 218.66 14.17
4471 11.1270 243.29 224.34 14.66
4472 11.1290 265.28 271.87 15.30
4473 11.1310 371.18 383.38 18.18
4474 11.1330 620.73 642.15 23.49
4475 11.1350 1238.35 1201.79 33.52
4476 11.1370 1781.10 1747.67 39.98
4477 11.1390 1255.34 1246.21 33.54
4478 11.1410 627.44 648.49 23.71
4479 11.1430 398.97 379.07 18.77
4480 11.1450 280.93 260.28 15.89
4481 11.1470 211.17 199.33 13.59
4482 11.1490 175.22 164.64 12.40
4483 11.1510 151.75 143.23 11.60
4484 11.1530 129.42 129.26 10.67
4485 11.1550 111.17 119.75 9.97
4486 11.1570 115.86 113.10 10.04
4487 11.1590 114.18 108.38 9.98
4488 11.1610 111.68 105.04 9.97
4489 11.1630 102.84 102.72 9.51
4490 11.1650 92.57 101.20 9.11
4491 11.1670 107.81 100.35 9.74
4492 11.1690 97.69 100.09 9.27
4493 11.1710 115.40 100.40 10.10
4494 11.1730 101.05 101.29 9.42
4495 11.1750 97.70 102.81 9.42
4496 11.1770 105.77 105.07 9.64
4497 11.1790 125.26 108.26 10.49
4498 11.1810 106.68 112.66 9.69
4499 11.1830 124.76 118.40 10.46
4500 11.1850 133.02 126.89 10.96
4501 11.1870 155.95 139.05 11.69
4502 11.1890 158.55 157.13 11.82
4503 11.1910 188.88 185.45 12.89
4504 11.1930 213.74 233.17 13.74
4505 11.1950 302.25 322.31 16.52
4506 11.1970 522.28 511.70 21.41
4507 11.1990 897.03 929.91 28.17
4508 11.2010 1669.05 1541.07 38.62
4509 11.2030 1449.75 1435.33 36.12
4510 11.2050 801.63 811.07 27.06
4511 11.2070 489.87 488.41 20.74
4512 11.2090 406.40 384.31 18.91
4513 11.2110 367.34 373.40 18.00
4514 11.2130 355.92 304.76 17.80
4515 11.2150 280.60 225.11 15.95
4516 11.2170 264.12 188.52 15.28
4517 11.2190 247.51 174.70 14.72
4518 11.2210 266.50 173.74 15.34
4519 11.2230 290.16 183.79 16.09
4520 11.2250 311.84 206.33 16.83
4521 11.2270 377.87 254.82 18.21
4522 11.2290 525.49 355.30 21.65
4523 11.2310 655.12 580.35 24.00
4524 11.2330 1066.39 1045.23 31.11
4525 11.2350 1568.06 1484.64 38.07
4526 11.2370 1268.16 1104.34 33.75
4527 11.2390 650.19 598.79 24.02
4528 11.2410 375.59 355.52 18.25
4529 11.2430 271.19 245.35 15.53
4530 11.2450 225.00 189.25 14.29
4531 11.2470 218.59 168.53 13.95
4532 11.2490 186.83 148.90 12.85
4533 11.2510 161.34 136.06 11.89
4534 11.2530 158.29 127.30 11.91
4535 11.2550 139.60 121.18 11.30
4536 11.2570 182.36 116.82 12.68
4537 11.2590 163.03 113.73 12.06
4538 11.2610 145.31 111.56 11.39
4539 11.2630 134.05 110.10 10.96
4540 11.2650 125.50 109.22 10.70
4541 11.2670 131.19 108.81 10.82
4542 11.2690 129.89 108.81 10.75
4543 11.2710 135.17 109.19 10.91
4544 11.2730 141.11 109.92 11.27
4545 11.2750 130.63 111.00 10.92
4546 11.2770 123.88 112.44 10.48
4547 11.2790 125.70 114.26 10.54
4548 11.2810 145.26 116.49 11.37
4549 11.2830 135.51 119.18 11.03
4550 11.2850 159.30 122.28 12.07
4551 11.2870 158.18 126.10 11.84
4552 11.2890 177.35 130.64 12.57
4553 11.2910 180.18 136.05 12.61
4554 11.2930 204.03 141.15 13.52
4555 11.2950 199.40 148.99 13.50
4556 11.2970 236.61 158.35 14.50
4557 11.2990 232.44 169.98 14.32
4558 11.3010 291.52 184.40 16.08
4559 11.3030 274.16 202.55 15.73
4560 11.3050 309.13 225.79 16.84
4561 11.3070 339.48 256.16 17.31
4562 11.3090 378.17 296.90 18.38
4563 11.3110 412.62 353.28 19.20
4564 11.3130 541.16 434.25 21.98
4565 11.3150 631.47 557.51 24.02
4566 11.3170 791.66 753.53 26.63
4567 11.3190 1147.72 1094.61 31.98
4568 11.3210 1797.63 1758.61 40.23
4569 11.3230 3137.31 3239.62 54.33
4570 11.3250 6392.30 6680.02 79.51
4571 11.3270 11024.70 10972.00 106.47
4572 11.3290 8315.17 8025.03 90.77
4573 11.3310 3741.25 3805.94 58.85
4574 11.3330 1867.37 1994.89 41.37
4575 11.3350 1104.04 1209.01 31.97
4576 11.3370 745.83 815.98 25.75
4577 11.3390 577.74 595.16 22.64
4578 11.3410 414.86 459.67 19.23
4579 11.3430 336.17 370.97 17.40
4580 11.3450 286.49 309.92 16.25
4581 11.3470 252.01 267.36 14.96
4582 11.3490 202.80 235.07 13.41
4583 11.3510 172.99 210.56 12.33
4584 11.3530 186.47 191.60 12.95
4585 11.3550 148.67 176.64 11.65
4586 11.3570 156.88 164.70 11.79
4587 11.3590 148.73 155.05 11.54
4588 11.3610 129.09 147.20 10.68
4589 11.3630 140.91 140.79 11.27
4590 11.3650 128.17 135.53 10.83
4591 11.3670 140.98 131.25 11.20
4592 11.3690 110.59 127.80 9.90
4593 11.3710 128.79 125.09 10.71
4594 11.3730 129.50 123.05 10.78
4595 11.3750 121.42 121.65 10.57
4596 11.3770 134.56 120.91 10.94
4597 11.3790 138.51 120.85 11.11
4598 11.3810 127.24 121.58 10.61
4599 11.3830 124.18 123.26 10.55
4600 11.3850 167.11 126.14 12.34
4601 11.3870 156.31 130.69 11.80
4602 11.3890 158.47 137.63 11.87
4603 11.3910 191.54 148.26 13.01
4604 11.3930 212.45 165.00 13.85
4605 11.3950 218.50 192.65 14.11
4606 11.3970 277.46 242.03 15.70
4607 11.3990 368.02 340.60 18.08
4608 11.4010 529.11 558.82 21.72
4609 11.4030 1068.15 992.18 31.09
4610 11.4050 1380.43 1303.96 35.90
4611 11.4070 925.45 892.49 28.98
4612 11.4090 480.80 495.45 20.71
4613 11.4110 357.66 304.17 17.80
4614 11.4130 268.20 223.08 15.49
4615 11.4150 235.76 182.78 14.66
4616 11.4170 209.35 161.53 13.58
4617 11.4190 225.89 150.87 14.21
4618 11.4210 196.79 147.36 13.14
4619 11.4230 200.07 149.96 13.37
4620 11.4250 210.91 159.41 13.87
4621 11.4270 220.60 178.68 14.05
4622 11.4290 275.41 215.20 15.62
4623 11.4310 349.92 287.72 17.64
4624 11.4330 485.59 445.80 20.94
4625 11.4350 755.36 787.34 26.29
4626 11.4370 1221.81 1224.92 33.30
4627 11.4390 1147.72 1060.32 32.11
4628 11.4410 620.17 594.91 23.44
4629 11.4430 348.24 348.71 17.59
4630 11.4450 254.77 237.96 15.27
4631 11.4470 217.40 183.04 13.93
4632 11.4490 172.82 152.21 12.40
4633 11.4510 162.53 133.23 12.02
4634 11.4530 176.01 120.75 12.60
4635 11.4550 171.79 112.09 12.49
4636 11.4570 178.45 105.86 12.63
4637 11.4590 173.59 101.20 12.39
4638 11.4610 181.26 97.64 12.70
4639 11.4630 189.35 94.85 12.98
4640 11.4650 186.73 92.63 13.06
4641 11.4670 184.70 90.82 12.80
4642 11.4690 165.82 89.33 12.16
4643 11.4710 163.81 88.10 12.02
4644 11.4730 177.55 87.05 12.62
4645 11.4750 177.92 86.17 12.73
4646 11.4770 182.97 92.24 12.76
4647 11.4790 146.76 91.92 11.44
4648 11.4810 142.58 98.15 11.25
4649 11.4830 149.42 98.34 11.52
4650 11.4850 157.18 98.65 11.95
4651 11.4870 160.26 99.07 11.92
4652 11.4890 154.92 99.60 11.72
4653 11.4910 165.25 100.23 12.17
4654 11.4930 186.15 100.98 12.84
4655 11.4950 175.61 101.85 12.65
4656 11.4970 180.64 101.69 12.74
4657 11.4990 171.85 102.87 12.31
4658 11.5010 153.83 104.18 11.65
4659 11.5030 165.62 105.66 12.13
4660 11.5050 149.77 107.30 11.71
4661 11.5070 159.89 109.15 11.94
4662 11.5090 177.30 111.21 12.57
4663 11.5110 159.73 113.54 11.92
4664 11.5130 178.05 116.15 12.58
4665 11.5150 161.25 119.10 12.06
4666 11.5170 161.83 122.45 12.02
4667 11.5190 192.37 126.26 12.99
4668 11.5210 157.85 130.62 11.82
4669 11.5230 206.08 135.63 13.54
4670 11.5250 172.67 141.43 12.50
4671 11.5270 190.41 148.21 13.06
4672 11.5290 224.66 156.16 14.12
4673 11.5310 208.68 164.49 13.60
4674 11.5330 229.68 175.84 14.32
4675 11.5350 252.14 189.58 15.14
4676 11.5370 243.55 206.46 14.77
4677 11.5390 260.50 227.48 15.13
4678 11.5410 265.37 254.19 15.33
4679 11.5430 349.08 288.77 17.56
4680 11.5450 371.43 334.75 18.35
4681 11.5470 413.06 397.82 19.19
4682 11.5490 509.19 487.64 21.32
4683 11.5510 659.26 622.03 24.28
4684 11.5530 809.63 836.66 26.98
4685 11.5550 1212.35 1210.11 33.42
4686 11.5570 1907.65 1941.29 41.77
4687 11.5590 3418.78 3527.22 56.37
4688 11.5610 6336.29 6442.32 78.30
4689 11.5630 7744.39 7924.27 87.67
4690 11.5650 6335.55 6926.31 79.05
4691 11.5670 7387.53 7625.70 85.23
4692 11.5690 6114.92 6215.60 76.62
4693 11.5710 3171.95 3345.68 54.26
4694 11.5730 1788.64 1855.38 40.22
4695 11.5750 1157.76 1168.98 32.61
4696 11.5770 804.32 814.54 26.86
4697 11.5790 643.26 608.96 23.98
4698 11.5810 466.82 479.38 20.39
4699 11.5830 454.05 392.34 20.12
4700 11.5850 389.10 331.06 18.83
4701 11.5870 347.06 286.26 17.62
4702 11.5890 303.20 252.48 16.41
4703 11.5910 259.79 226.52 15.15
4704 11.5930 249.87 205.93 14.92
4705 11.5950 255.44 189.42 15.22
4706 11.5970 224.40 175.97 14.13
4707 11.5990 208.82 164.85 13.56
4708 11.6010 216.51 155.57 13.88
4709 11.6030 214.49 147.74 13.76
4710 11.6050 197.19 141.07 13.32
4711 11.6070 173.79 135.35 12.50
4712 11.6090 197.66 130.40 13.18
4713 11.6110 166.48 126.10 12.16
4714 11.6130 145.23 122.33 11.37
4715 11.6150 187.25 119.02 13.03
4716 11.6170 131.91 116.09 10.85
4717 11.6190 136.84 113.49 11.04
4718 11.6210 141.69 111.18 11.18
4719 11.6230 136.08 109.11 11.00
4720 11.6250 117.76 107.26 10.34
4721 11.6270 134.29 105.59 10.96
4722 11.6290 138.97 104.09 11.10
4723 11.6310 125.15 102.74 10.57
4724 11.6330 121.57 101.53 10.37
4725 11.6350 119.80 100.43 10.37
4726 11.6370 134.31 99.45 10.98
4727 11.6390 139.46 98.57 11.07
4728 11.6410 119.71 97.80 10.34
4729 11.6430 136.74 97.12 11.02
4730 11.6450 141.60 96.55 11.31
4731 11.6470 129.79 96.08 10.76
4732 11.6490 127.24 95.74 10.61
4733 11.6510 140.46 89.25 11.20
4734 11.6530 144.33 89.53 11.28
4735 11.6550 133.83 90.08 11.00
4736 11.6570 112.92 85.01 10.04
4737 11.6590 141.22 90.94 11.15
4738 11.6610 143.85 94.83 11.29
4739 11.6630 140.84 102.26 11.18
4740 11.6650 161.10 113.05 12.06
4741 11.6670 152.74 123.13 11.63
4742 11.6690 146.26 150.26 11.39
4743 11.6710 235.34 200.40 14.46
4744 11.6730 205.55 196.13 13.47
4745 11.6750 148.67 143.30 11.59
4746 11.6770 141.43 117.56 11.24
4747 11.6790 129.23 106.95 10.66
4748 11.6810 139.68 102.18 11.11
4749 11.6830 121.49 99.95 10.40
4750 11.6850 129.44 99.07 10.82
4751 11.6870 123.40 98.87 10.53
4752 11.6890 112.87 99.14 9.97
4753 11.6910 106.89 99.76 9.76
4754 11.6930 135.16 100.67 10.89
4755 11.6950 129.40 101.85 10.84
4756 11.6970 113.00 103.29 10.01
4757 11.6990 127.08 105.00 10.63
4758 11.7010 138.13 107.03 11.07
4759 11.7030 111.34 109.40 9.96
4760 11.7050 131.37 112.19 10.92
4761 11.7070 137.29 115.48 11.05
4762 11.7090 147.69 119.39 11.48
4763 11.7110 137.19 124.07 11.03
4764 11.7130 136.59 129.72 10.96
4765 11.7150 140.13 136.64 11.25
4766 11.7170 181.10 145.25 12.72
4767 11.7190 184.42 156.24 12.73
4768 11.7210 186.97 170.36 12.88
4769 11.7230 192.33 189.13 13.04
4770 11.7250 236.79 214.93 14.63
4771 11.7270 290.24 251.99 16.07
4772 11.7290 315.51 307.79 16.70
4773 11.7310 397.40 398.12 18.84
4774 11.7330 538.63 558.76 21.90
4775 11.7350 892.85 881.68 28.63
4776 11.7370 1551.66 1617.08 37.45
4777 11.7390 3112.33 3073.59 53.63
4778 11.7410 3683.71 3658.60 58.63
4779 11.7430 2263.66 2137.69 45.40
4780 11.7450 1257.47 1208.65 34.02
4781 11.7470 984.02 883.59 29.88
4782 11.7490 875.60 852.07 27.90
4783 11.7510 1136.91 1079.92 32.05
4784 11.7530 1732.79 1771.58 39.58
4785 11.7550 3083.02 3164.67 53.75
4786 11.7570 3691.08 3584.46 58.69
4787 11.7590 2055.64 2042.99 43.32
4788 11.7610 994.36 1075.84 29.92
4789 11.7630 613.71 657.73 23.27
4790 11.7650 432.99 460.83 19.90
4791 11.7670 351.17 360.98 17.73
4792 11.7690 314.77 316.49 16.66
4793 11.7710 292.80 297.89 16.14
4794 11.7730 271.61 254.86 15.51
4795 11.7750 226.84 213.43 14.34
4796 11.7770 185.61 183.95 12.90
4797 11.7790 149.66 163.35 11.49
4798 11.7810 159.80 149.93 11.92
4799 11.7830 151.79 140.60 11.56
4800 11.7850 183.13 133.83 12.96
4801 11.7870 142.28 128.91 11.25
4802 11.7890 133.03 125.56 10.89
4803 11.7910 131.46 123.88 10.80
4804 11.7930 147.03 124.51 11.41
4805 11.7950 159.95 129.40 12.04
4806 11.7970 168.90 144.06 12.32
4807 11.7990 203.54 175.98 13.39
4808 11.8010 213.73 191.68 13.80
4809 11.8030 169.36 160.64 12.21
4810 11.8050 181.17 147.74 12.81
4811 11.8070 194.32 163.44 13.14
4812 11.8090 202.15 199.43 13.37
4813 11.8110 237.40 185.38 14.58
4814 11.8130 187.58 141.03 12.83
4815 11.9390 95.33 87.13 9.16
4816 11.9410 81.75 87.39 8.57
4817 11.9430 97.93 87.66 9.33
4818 11.9450 90.54 87.97 9.08
4819 11.9470 94.91 88.32 9.18
4820 11.9490 105.26 88.70 9.69
4821 11.9510 87.68 89.13 8.85
4822 11.9530 86.81 89.61 8.75
4823 11.9550 87.04 90.16 8.88
4824 11.9570 99.92 90.80 9.44
4825 11.9590 90.52 91.53 8.93
4826 11.9610 85.25 92.39 8.72
4827 11.9630 96.42 93.41 9.27
4828 11.9650 95.21 94.67 9.28
4829 11.9670 89.89 96.15 8.93
4830 11.9690 89.11 97.96 8.91
4831 11.9710 90.52 100.24 9.01
4832 11.9730 103.84 103.15 9.58
4833 11.9750 110.48 106.98 10.03
4834 11.9770 108.48 112.15 9.83
4835 11.9790 133.51 119.43 10.89
4836 11.9810 125.98 130.13 10.60
4837 11.9830 158.29 146.81 11.87
4838 11.9850 170.05 174.85 12.44
4839 11.9870 227.53 227.12 14.23
4840 11.9890 322.05 336.66 16.95
4841 11.9910 623.73 571.88 23.65
4842 11.9930 920.22 883.31 28.70
4843 11.9950 767.19 774.04 26.43
4844 11.9970 446.16 451.30 20.03
4845 11.9990 286.72 282.89 15.96
4846 12.0010 216.13 208.01 13.86
4847 12.0030 170.62 172.19 12.28
4848 12.0050 156.26 154.05 11.96
4849 12.0070 142.43 145.45 11.22
4850 12.0090 158.77 143.18 11.89
4851 12.0110 151.70 146.43 11.62
4852 12.0130 152.70 156.07 11.64
4853 12.0150 181.54 175.37 12.86
4854 12.0170 228.92 212.41 14.29
4855 12.0190 276.04 288.14 15.65
4856 12.0210 450.54 454.09 20.06
4857 12.0230 786.12 772.56 26.47
4858 12.0250 1032.07 979.86 30.96
4859 12.0270 672.66 678.53 24.51
4860 12.0290 378.82 392.46 18.39
4861 12.0310 217.89 256.55 13.96
4862 12.0330 184.67 192.30 12.82
4863 12.0350 124.99 158.51 10.66
4864 12.0370 123.03 138.83 10.50
4865 12.0390 119.76 126.51 10.30
4866 12.0410 91.13 118.43 9.01
4867 12.0430 108.01 113.06 9.79
4868 12.0450 85.69 109.64 8.81
4869 12.0470 100.32 107.91 9.43
4870 12.0490 91.62 108.22 9.05
4871 12.0510 94.16 112.04 9.17
4872 12.0530 98.17 123.11 9.30
4873 12.0550 129.76 142.46 10.82
4874 12.0570 144.76 143.65 11.36
4875 12.0590 129.03 121.42 10.63
4876 12.0610 103.64 107.01 9.62
4877 12.0630 87.86 100.15 8.86
4878 12.0650 83.40 96.58 8.71
4879 12.0670 77.49 94.45 8.28
4880 12.0690 71.17 93.04 7.93
4881 12.0710 85.72 92.03 8.79
4882 12.0730 86.31 91.27 8.73
4883 12.0750 84.50 90.68 8.76
4884 12.0770 81.73 90.20 8.51
4885 12.0790 71.32 89.80 7.96
4886 12.0810 66.44 89.47 7.70
4887 12.0830 81.80 89.18 8.50
4888 12.0850 79.38 88.94 8.51
4889 12.0870 86.99 87.93 8.79
4890 12.0890 79.65 87.78 8.42
4891 12.0910 81.28 87.64 8.52
4892 12.0930 77.89 87.52 8.30
4893 12.0950 80.61 87.42 8.53
4894 12.0970 84.07 87.32 8.63
4895 12.0990 84.10 87.24 8.60
4896 12.1010 70.28 87.17 7.92
4897 12.1030 74.84 87.10 8.12
4898 12.1050 71.70 87.04 8.05
4899 12.1070 85.45 86.99 8.71
4900 12.1090 81.20 86.95 8.45
4901 12.1110 81.03 86.91 8.52
4902 12.1130 91.37 86.87 9.01
4903 12.1150 85.43 86.84 8.76
4904 12.1170 66.62 86.81 7.69
4905 12.1190 83.64 86.78 8.54
4906 12.1210 75.02 85.93 8.19
4907 12.1230 74.11 85.94 8.05
4908 12.1250 81.82 85.96 8.58
4909 12.1270 61.06 85.97 7.36
4910 12.1290 72.71 85.99 7.99
4911 12.1310 77.89 86.00 8.31
4912 12.1330 72.52 86.02 8.03
4913 12.1350 73.76 86.04 8.15
4914 12.1370 70.49 86.05 7.93
4915 12.1390 67.95 86.07 7.70
4916 12.1410 79.89 86.09 8.47
4917 12.1430 78.62 86.10 8.32
4918 12.1450 66.18 86.12 7.72
4919 12.1470 71.39 86.14 7.97
4920 12.1490 70.46 86.16 7.87
4921 12.1510 64.83 86.12 7.57
4922 12.1530 76.06 86.14 8.20
4923 12.1550 91.13 86.16 9.09
4924 12.1570 74.30 86.18 8.07
4925 12.1590 62.80 86.20 7.45
4926 12.1610 80.27 86.22 8.45
4927 12.1630 81.47 86.24 8.48
4928 12.1650 83.87 86.26 8.72
4929 12.1670 89.46 86.28 8.89
4930 12.1690 73.52 86.30 8.08
4931 12.1710 73.17 86.32 8.09
4932 12.1730 57.57 86.34 7.14
4933 12.1750 79.36 86.36 8.50
4934 12.1770 88.86 86.38 8.90
4935 12.1790 76.46 86.40 8.21
4936 12.1810 67.42 86.93 7.76
4937 12.1830 74.32 86.97 8.12
4938 12.1850 76.24 87.02 8.36
4939 12.1870 66.99 87.07 7.69
4940 12.1890 59.76 87.12 7.28
4941 12.1910 61.31 87.17 7.42
4942 12.1930 68.07 87.22 7.77
4943 12.1950 75.40 87.28 8.25
4944 12.1970 83.61 87.34 8.62
4945 12.1990 65.85 87.90 7.62
4946 12.2010 69.33 88.00 7.86
4947 12.2030 72.59 88.10 8.05
4948 12.2050 78.84 88.20 8.46
4949 12.2070 75.89 88.32 8.23
4950 12.2090 79.69 88.44 8.33
4951 12.2110 75.86 88.57 8.28
4952 12.2130 71.96 88.72 7.97
4953 12.2150 77.02 88.87 8.41
4954 12.2170 65.15 89.05 7.60
4955 12.2190 60.92 89.24 7.40
4956 12.2210 70.13 89.45 7.88
4957 12.2230 77.80 89.69 8.31
4958 12.2250 69.44 89.96 8.00
4959 12.2270 84.15 90.26 8.63
4960 12.2290 82.26 90.60 8.54
4961 12.2310 87.74 91.00 8.90
4962 12.2330 76.36 91.45 8.24
4963 12.2350 76.83 91.98 8.33
4964 12.2370 61.31 92.61 7.39
4965 12.2390 71.32 93.36 7.94
4966 12.2410 70.94 94.26 8.00
4967 12.2430 76.62 95.38 8.20
4968 12.2450 77.21 96.78 8.41
4969 12.2470 83.24 98.56 8.61
4970 12.2490 75.58 100.91 8.18
4971 12.2510 71.04 104.09 7.98
4972 12.2530 82.77 108.56 8.57
4973 12.2550 87.37 115.16 8.95
4974 12.2570 105.85 125.50 9.64
4975 12.2590 145.65 143.08 11.39
4976 12.2610 162.10 176.34 12.04
4977 12.2630 239.88 247.74 14.61
4978 12.2650 418.73 405.11 19.44
4979 12.2670 572.93 592.69 22.69
4980 12.2690 458.68 472.70 20.21
4981 12.2710 283.32 285.69 15.98
4982 12.2730 198.86 201.94 13.24
4983 12.2750 152.45 168.54 11.82
4984 12.2770 126.63 157.82 10.62
4985 12.2790 155.16 162.08 11.69
4986 12.2810 173.00 184.05 12.47
4987 12.2830 219.73 239.85 13.92
4988 12.2850 331.71 367.76 17.45
4989 12.2870 497.94 545.98 20.94
4990 12.2890 472.40 487.44 20.52
4991 12.2910 251.34 299.71 14.97
4992 12.2930 186.61 201.53 12.86
4993 12.2950 139.40 156.78 11.18
4994 12.2970 114.27 134.13 10.08
4995 12.2990 97.04 121.33 9.20
4996 12.3010 90.60 113.43 8.99
4997 12.3030 82.89 108.24 8.56
4998 12.3050 86.76 104.67 8.86
4999 12.3070 81.50 102.11 8.51
5000 12.3090 85.91 100.23 8.70
5001 12.3110 76.74 98.82 8.36
5002 12.3130 72.30 97.75 7.93
5003 12.3150 74.16 96.94 8.19
5004 12.3170 77.68 96.32 8.31
5005 12.3190 70.19 95.86 7.85
5006 12.3210 69.58 95.52 7.86
5007 12.3230 76.18 95.29 8.20
5008 12.3250 83.79 95.16 8.71
5009 12.3270 76.71 95.12 8.24
5010 12.3290 86.02 95.16 8.69
5011 12.3310 89.86 95.27 8.99
5012 12.3330 83.05 95.48 8.59
5013 12.3350 89.46 95.77 8.98
5014 12.3370 68.70 96.15 7.81
5015 12.3390 76.11 96.65 8.17
5016 12.3410 85.00 97.27 8.78
5017 12.3430 88.73 98.04 8.79
5018 12.3450 88.50 98.99 8.94
5019 12.3470 81.67 100.17 8.53
5020 12.3490 85.66 101.64 8.65
5021 12.3510 92.36 103.48 9.13
5022 12.3530 94.51 105.82 9.13
5023 12.3550 76.95 108.34 8.32
5024 12.3570 114.31 112.33 9.99
5025 12.3590 124.98 117.70 10.54
5026 12.3610 124.24 125.13 10.50
5027 12.3630 129.45 137.11 10.64
5028 12.3650 170.38 153.30 12.43
5029 12.3670 183.24 179.20 12.73
5030 12.3690 225.56 224.09 14.06
5031 12.3710 305.66 310.16 16.50
5032 12.3730 517.48 494.85 21.40
5033 12.3750 882.28 884.47 28.22
5034 12.3770 1285.85 1267.97 34.13
5035 12.3790 967.88 931.33 29.14
5036 12.3810 530.41 513.59 21.92
5037 12.3830 325.16 318.50 16.90
5038 12.3850 263.09 228.57 15.35
5039 12.3870 227.07 182.13 14.13
5040 12.3890 215.01 155.53 13.80
5041 12.3910 205.86 139.07 13.52
5042 12.3930 186.02 128.47 12.73
5043 12.3950 191.71 121.06 13.20
5044 12.3970 148.30 115.81 11.42
5045 12.3990 182.13 112.00 12.61
5046 12.4010 178.18 109.19 12.66
5047 12.4030 196.96 107.11 13.07
5048 12.4050 168.68 105.58 12.33
5049 12.4070 179.98 104.47 12.60
5050 12.4090 183.18 103.72 12.65
5051 12.4110 169.55 103.27 12.34
5052 12.4130 162.61 103.09 11.90
5053 12.4150 164.00 103.17 12.16
5054 12.4170 176.04 103.50 12.38
5055 12.4190 175.02 104.11 12.37
5056 12.4210 153.34 105.04 11.65
5057 12.4230 152.14 106.34 11.54
5058 12.4250 167.02 108.10 12.29
5059 12.4270 168.30 110.45 12.11
5060 12.4290 171.87 113.60 12.29
5061 12.4310 155.09 117.86 11.83
5062 12.4330 166.26 123.71 12.01
5063 12.4350 180.37 132.01 12.74
5064 12.4370 185.28 144.16 12.77
5065 12.4390 191.73 162.87 12.89
5066 12.4410 190.51 193.60 12.99
5067 12.4430 255.83 248.48 14.95
5068 12.4450 344.75 357.99 17.62
5069 12.4470 588.39 600.21 22.63
5070 12.4490 1033.98 1065.80 30.24
5071 12.4510 1243.14 1278.60 33.35
5072 12.4530 819.96 797.37 27.04
5073 12.4550 421.62 446.62 19.49
5074 12.4570 249.48 290.83 14.76
5075 12.4590 171.86 217.80 12.27
5076 12.4610 151.22 180.51 11.60
5077 12.4630 145.46 161.63 11.30
5078 12.4650 118.52 149.69 10.36
5079 12.4670 125.30 136.85 10.46
5080 12.4690 98.47 127.35 9.32
5081 12.4710 98.45 123.49 9.37
5082 12.4730 96.73 123.13 9.26
5083 12.4750 115.22 126.86 10.21
5084 12.4770 136.26 137.59 10.89
5085 12.4790 156.61 163.55 11.77
5086 12.4810 202.42 221.48 13.40
5087 12.4830 259.57 289.20 15.17
5088 12.4850 247.33 246.09 14.96
5089 12.4870 156.88 172.61 11.75
5090 12.4890 126.69 136.28 10.61
5091 12.4910 109.28 119.30 9.84
5092 12.4930 91.99 110.38 9.06
5093 12.4950 101.70 105.14 9.62
5094 12.4970 91.11 101.80 8.91
5095 12.4990 94.26 99.50 9.17
5096 12.5010 96.10 97.85 9.21
5097 12.5030 93.26 96.61 9.10
5098 12.5050 104.13 95.65 9.72
5099 12.5070 99.83 94.88 9.36
5100 12.5090 80.77 94.26 8.52
5101 12.5110 79.72 93.75 8.38
5102 12.5130 86.31 93.32 8.79
5103 12.5150 84.62 92.95 8.77
5104 12.5170 83.55 92.64 8.55
5105 12.5190 86.42 92.37 8.76
5106 12.5210 102.04 92.15 9.53
5107 12.5230 88.26 91.94 8.87
5108 12.5250 83.13 91.76 8.73
5109 12.5270 83.20 91.60 8.58
5110 12.5290 83.24 91.45 8.63
5111 12.5310 87.40 91.32 8.84
5112 12.5330 75.84 91.20 8.19
5113 12.5350 94.84 91.10 9.31
5114 12.5370 65.00 91.01 7.57
5115 12.5390 84.60 90.92 8.73
5116 12.5410 76.68 89.65 8.25
5117 12.5430 86.00 89.63 8.77
5118 12.5450 67.81 89.61 7.87
5119 12.5470 77.95 89.68 8.34
5120 12.5490 69.21 89.68 7.93
5121 12.5510 72.68 89.68 8.05
5122 12.5530 74.50 89.68 8.17
5123 12.5550 77.78 89.67 8.45
5124 12.5570 89.42 89.68 8.93
5125 12.5590 91.62 89.69 9.09
5126 12.5610 93.74 89.71 9.15
5127 12.5630 70.84 89.73 7.98
5128 12.5650 87.96 89.75 9.01
5129 12.5670 80.10 89.78 8.42
5130 12.5690 65.96 89.82 7.73
5131 12.5710 70.84 89.87 7.97
5132 12.5730 81.03 89.94 8.54
5133 12.5750 66.96 90.03 7.82
5134 12.5770 76.73 89.97 8.29
5135 12.5790 68.90 90.27 7.86
5136 12.5810 78.43 90.61 8.40
5137 12.5830 82.73 91.21 8.60
5138 12.5850 94.00 92.44 9.29
5139 12.5870 86.03 94.87 8.75
5140 12.5890 99.89 96.88 9.46
5141 12.5910 91.13 94.83 9.04
5142 12.5930 78.14 92.63 8.36
5143 12.5950 85.03 91.66 8.84
5144 12.5970 79.73 91.31 8.42
5145 12.5990 82.42 91.25 8.58
5146 12.6010 82.50 91.37 8.60
5147 12.6030 77.79 91.67 8.32
5148 12.6050 81.81 92.20 8.70
5149 12.6070 81.08 93.13 8.51
5150 12.6090 79.83 94.88 8.49
5151 12.6110 75.67 98.49 8.23
5152 12.6130 98.21 105.46 9.36
5153 12.6150 81.27 111.19 8.63
5154 12.6170 71.78 105.72 7.99
5155 12.6190 93.08 99.70 9.04
5156 12.6210 93.26 97.38 9.19
5157 12.6230 79.97 97.26 8.45
5158 12.6250 85.27 98.81 8.84
5159 12.6270 80.56 102.68 8.45
5160 12.6290 83.03 111.42 8.59
5161 12.6310 108.28 131.24 9.88
5162 12.6330 169.15 161.29 12.25
5163 12.6350 142.38 154.90 11.41
5164 12.6370 116.24 124.12 10.13
5165 12.6390 103.94 108.04 9.59
5166 12.6410 86.48 100.96 8.80
5167 12.6430 82.20 97.56 8.54
5168 12.6450 77.59 95.80 8.38
5169 12.6470 84.94 94.90 8.70
5170 12.6490 82.19 94.59 8.49
5171 12.6510 79.40 94.63 8.45
5172 12.6530 90.00 95.06 8.89
5173 12.6550 68.41 96.01 7.88
5174 12.6570 92.87 97.80 9.08
5175 12.6590 79.89 100.97 8.40
5176 12.6610 94.07 107.13 9.18
5177 12.6630 101.72 120.39 9.47
5178 12.6650 141.75 149.57 11.33
5179 12.6670 167.72 186.81 12.17
5180 12.6690 157.22 168.78 11.81
5181 12.6710 106.50 130.56 9.78
5182 12.6730 104.39 111.92 9.60
5183 12.6750 77.88 103.54 8.40
5184 12.6770 87.51 100.25 8.83
5185 12.6790 68.86 97.94 7.80
5186 12.6810 81.56 96.56 8.55
5187 12.6830 71.97 95.70 7.98
5188 12.6850 80.41 95.16 8.54
5189 12.6870 76.68 94.83 8.26
5190 12.6890 85.06 94.63 8.67
5191 12.6910 68.91 94.53 7.89
5192 12.6930 62.02 94.51 7.41
5193 12.6950 78.50 94.55 8.45
5194 12.6970 80.52 94.65 8.42
5195 12.6990 77.43 94.80 8.30
5196 12.7010 73.81 95.00 8.14
5197 12.7030 75.71 95.24 8.18
5198 12.7050 71.30 95.54 8.07
5199 12.7070 72.14 95.89 8.01
5200 12.7090 74.52 96.31 8.12
5201 12.7110 93.70 96.78 9.18
5202 12.7130 90.46 97.37 8.93
5203 12.7150 74.13 98.05 8.19
5204 12.7170 99.24 98.88 9.38
5205 12.7190 78.78 99.87 8.32
5206 12.7210 77.54 101.10 8.35
5207 12.7230 88.92 102.66 8.83
5208 12.7250 86.14 104.64 8.87
5209 12.7270 103.40 107.47 9.54
5210 12.7290 110.15 111.70 9.91
5211 12.7310 104.96 118.75 9.68
5212 12.7330 105.70 136.51 9.64
5213 12.7350 154.63 162.43 11.83
5214 12.7370 195.80 184.81 13.13
5215 12.7390 153.86 171.29 11.67
5216 12.7410 157.72 164.13 11.84
5217 12.7430 177.78 179.22 12.51
5218 12.7450 167.00 206.55 12.30
5219 12.7470 196.73 207.48 13.23
5220 12.7490 172.46 205.82 12.32
5221 12.7510 205.18 234.66 13.56
5222 12.7530 280.03 296.20 15.66
5223 12.7550 434.40 431.28 19.96
5224 12.7570 716.95 714.01 25.22
5225 12.7590 1056.85 1016.35 30.77
5226 12.7610 828.32 835.40 27.34
5227 12.7630 595.42 603.38 22.98
5228 12.7650 542.93 609.13 22.30
5229 12.7670 852.60 846.37 27.51
5230 12.7690 1037.04 1068.31 30.53
5231 12.7710 761.54 778.14 26.10
5232 12.7730 451.88 465.56 20.01
5233 12.7750 252.35 315.03 15.10
5234 12.7770 216.33 243.13 13.89
5235 12.7790 195.65 205.21 13.09
5236 12.7810 163.68 183.55 12.14
5237 12.7830 161.13 170.60 11.85
5238 12.7850 143.85 162.82 11.46
5239 12.7870 165.40 158.43 12.06
5240 12.7890 131.56 156.44 10.81
5241 12.7910 158.99 156.35 11.98
5242 12.7930 153.50 157.90 11.61
5243 12.7950 167.63 161.01 12.41
5244 12.7970 174.77 165.76 12.44
5245 12.7990 164.16 172.34 12.07
5246 12.8010 190.55 181.16 13.02
5247 12.8030 227.80 192.79 14.19
5248 12.8050 267.25 208.19 15.59
5249 12.8070 258.10 228.81 15.09
5250 12.8090 292.77 257.02 16.03
5251 12.8110 358.87 296.86 18.03
5252 12.8130 428.82 355.42 19.32
5253 12.8150 514.72 446.33 21.64
5254 12.8170 664.40 598.21 24.34
5255 12.8190 946.51 876.63 28.94
5256 12.8210 1401.62 1446.03 35.72
5257 12.8230 2640.67 2644.58 49.11
5258 12.8250 4292.52 4190.15 64.33
5259 12.8270 3684.69 3624.25 58.30
5260 12.8290 2112.01 2056.03 43.85
5261 12.8310 1370.70 1250.37 35.19
5262 12.8330 1090.96 921.53 31.27
5263 12.8350 937.06 824.62 29.19
5264 12.8370 968.54 890.67 29.33
5265 12.8390 1261.05 1154.90 33.50
5266 12.8410 1810.24 1788.16 40.63
5267 12.8430 3002.58 3109.43 52.41
5268 12.8450 4404.60 4257.10 65.05
5269 12.8470 3336.66 3085.01 55.47
5270 12.8490 1656.84 1684.45 38.61
5271 12.8510 897.00 992.17 28.42
5272 12.8530 563.92 660.14 22.25
5273 12.8550 420.63 484.37 19.61
5274 12.8570 366.91 381.23 17.93
5275 12.8590 282.40 315.87 15.78
5276 12.8610 246.22 271.95 14.80
5277 12.8630 221.07 240.22 13.96
5278 12.8650 208.42 217.87 13.75
5279 12.8670 186.34 201.22 12.81
5280 12.8690 192.42 188.62 13.02
5281 12.8710 159.46 178.99 11.91
5282 12.8730 173.34 171.61 12.38
5283 12.8750 204.96 166.00 13.69
5284 12.8770 187.66 161.85 12.83
5285 12.8790 179.82 158.93 12.58
5286 12.8810 178.34 157.12 12.63
5287 12.8830 173.92 156.36 12.37
5288 12.8850 190.38 156.63 13.21
5289 12.8870 200.99 158.00 13.26
5290 12.8890 202.00 160.59 13.42
5291 12.8910 215.40 164.63 13.77
5292 12.8930 214.70 170.46 13.80
5293 12.8950 219.78 178.64 14.13
5294 12.8970 286.82 190.00 15.86
5295 12.8990 273.20 205.94 15.52
5296 12.9010 313.36 228.74 16.65
5297 12.9030 325.58 262.43 16.93
5298 12.9050 399.67 314.53 19.09
5299 12.9070 445.46 400.37 19.73
5300 12.9090 562.89 554.38 22.37
5301 12.9110 844.30 861.90 27.56
5302 12.9130 1450.55 1517.15 35.97
5303 12.9150 2799.56 2622.31 51.44
5304 12.9170 2928.67 2825.96 51.69
5305 12.9190 1633.37 1701.11 38.35
5306 12.9210 974.40 955.09 29.45
5307 12.9230 657.39 617.27 24.21
5308 12.9250 514.81 457.35 21.65
5309 12.9270 420.45 377.87 19.25
5310 12.9290 387.65 342.33 18.59
5311 12.9310 399.63 333.96 18.85
5312 12.9330 403.73 350.96 18.91
5313 12.9350 486.13 399.49 21.09
5314 12.9370 567.13 499.52 22.29
5315 12.9390 749.80 702.91 25.83
5316 12.9410 1145.47 1133.84 32.09
5317 12.9430 1872.66 2007.13 41.23
5318 12.9450 2865.07 2851.12 52.30
5319 12.9470 2364.60 2190.78 46.35
5320 12.9490 1257.50 1220.61 33.56
5321 12.9510 668.04 721.77 24.47
5322 12.9530 439.25 484.14 19.78
5323 12.9550 328.26 359.81 17.27
5324 12.9570 275.25 287.96 15.48
5325 12.9590 222.09 243.08 14.06
5326 12.9610 201.24 213.39 13.35
5327 12.9630 170.98 194.30 12.34
5328 12.9650 175.05 179.84 12.64
5329 12.9670 158.65 169.42 11.81
5330 12.9690 147.57 161.88 11.41
5331 12.9710 157.24 156.49 11.86
5332 12.9730 151.58 152.84 11.61
5333 12.9750 138.01 150.62 11.21
5334 12.9770 147.53 149.73 11.32
5335 12.9790 140.43 150.13 11.14
5336 12.9810 176.61 151.91 12.52
5337 12.9830 158.46 155.31 11.85
5338 12.9850 160.76 160.75 12.10
5339 12.9870 193.23 168.97 13.03
5340 12.9890 194.07 181.25 13.10
5341 12.9910 217.99 199.92 13.94
5342 12.9930 270.27 229.40 15.57
5343 12.9950 293.74 278.97 16.31
5344 12.9970 348.91 369.91 17.51
5345 12.9990 566.67 554.81 22.36
5346 13.0010 893.94 944.16 28.25
5347 13.0030 1486.89 1463.17 36.78
5348 13.0050 1307.70 1301.12 34.77
5349 13.0070 803.21 777.49 26.58
5350 13.0090 564.60 504.07 22.34
5351 13.0110 401.44 391.77 19.02
5352 13.0130 378.89 354.77 18.35
5353 13.0150 424.74 374.12 19.61
5354 13.0170 536.62 459.40 21.77
5355 13.0190 705.74 669.55 24.93
5356 13.0210 1101.81 1088.97 31.41
5357 13.0230 1431.64 1386.53 36.11
5358 13.0250 1106.58 1009.09 32.02
5359 13.0270 603.33 640.84 22.98
5360 13.0290 462.70 488.88 20.26
5361 13.0310 420.29 462.84 19.28
5362 13.0330 567.42 540.65 22.60
5363 13.0350 725.70 784.08 25.70
5364 13.0370 1337.48 1305.62 34.64
5365 13.0390 1618.93 1668.05 37.90
5366 13.0410 1117.47 1158.73 31.71
5367 13.0430 700.03 711.29 25.08
5368 13.0450 581.84 537.61 23.12
5369 13.0470 487.62 528.37 20.70
5370 13.0490 643.36 677.06 23.92
5371 13.0510 1055.92 1069.97 30.81
5372 13.0530 1525.73 1467.36 37.25
5373 13.0550 1115.67 1098.39 31.94
5374 13.0570 600.59 625.49 23.01
5375 13.0590 383.87 394.94 18.41
5376 13.0610 286.04 285.31 15.93
5377 13.0630 221.53 226.80 14.04
5378 13.0650 212.82 192.07 13.88
5379 13.0670 178.27 169.68 12.46
5380 13.0690 145.61 154.35 11.34
5381 13.0710 156.82 143.32 11.79
5382 13.0730 142.66 135.08 11.30
5383 13.0750 147.59 128.74 11.51
5384 13.0770 118.72 123.92 10.19
5385 13.0790 131.94 119.89 10.77
5386 13.0810 119.55 116.60 10.31
5387 13.0830 106.90 113.86 9.70
5388 13.0850 109.32 112.56 9.96
5389 13.0870 101.73 110.64 9.41
5390 13.0890 104.43 109.00 9.58
5391 13.0910 100.33 107.58 9.43
5392 13.0930 102.24 106.36 9.55
5393 13.0950 91.51 105.29 9.11
5394 13.0970 100.84 104.36 9.37
5395 13.0990 98.41 102.18 9.29
5396 13.1010 110.49 101.52 9.90
5397 13.1030 77.40 100.94 8.33
5398 13.1050 92.28 100.43 9.11
5399 13.1070 104.55 99.99 9.55
5400 13.1090 113.12 99.61 9.96
5401 13.1110 95.74 99.28 9.21
5402 13.1130 104.30 99.00 9.62
5403 13.1150 93.39 99.17 9.21
5404 13.1170 109.21 99.00 9.75
5405 13.1190 93.58 98.87 9.05
5406 13.1210 102.43 97.64 9.49
5407 13.1230 104.72 97.64 9.75
5408 13.1250 97.11 97.68 9.36
5409 13.1270 76.59 98.82 8.13
5410 13.1290 93.05 99.00 9.05
5411 13.1310 84.71 99.22 8.67
5412 13.1330 98.89 98.11 9.37
5413 13.1350 89.58 98.52 8.99
5414 13.1370 74.50 99.00 8.04
5415 13.1390 102.60 99.56 9.41
5416 13.1410 99.27 100.23 9.40
5417 13.1430 91.61 101.03 9.09
5418 13.1450 109.31 101.98 9.90
5419 13.1470 108.69 101.86 9.71
5420 13.1490 105.25 103.34 9.58
5421 13.1510 89.62 105.17 8.93
5422 13.1530 84.28 107.50 8.74
5423 13.1550 95.59 110.61 9.29
5424 13.1570 88.28 114.92 8.72
5425 13.1590 109.71 121.30 9.78
5426 13.1610 129.21 131.66 10.63
5427 13.1630 124.03 150.55 10.60
5428 13.1650 177.83 189.18 12.68
5429 13.1670 269.59 259.18 15.20
5430 13.1690 303.81 292.78 16.30
5431 13.1710 240.21 233.69 14.69
5432 13.1730 201.95 194.41 13.47
5433 13.1750 173.51 187.04 12.57
5434 13.1770 201.73 199.84 13.17
5435 13.1790 219.42 233.18 13.84
5436 13.1810 280.79 301.03 15.68
5437 13.1830 416.72 440.92 19.47
5438 13.1850 755.67 719.97 26.11
5439 13.1870 1189.11 1075.41 32.06
5440 13.1890 962.44 1009.50 29.25
5441 13.1910 576.57 635.33 22.67
5442 13.1930 367.51 397.99 18.20
5443 13.1950 273.36 283.55 15.69
5444 13.1970 258.94 227.76 14.94
5445 13.1990 190.55 199.79 12.93
5446 13.2010 213.76 187.33 13.72
5447 13.2030 186.82 186.38 12.98
5448 13.2050 194.21 197.98 13.28
5449 13.2070 250.93 229.82 14.67
5450 13.2090 324.89 302.28 16.99
5451 13.2110 468.43 439.97 20.40
5452 13.2130 588.49 537.54 23.09
5453 13.2150 452.82 425.65 20.20
5454 13.2170 318.85 309.66 16.56
5455 13.2190 272.06 265.00 15.50
5456 13.2210 325.20 267.23 16.98
5457 13.2230 345.67 311.46 17.69
5458 13.2250 481.04 422.07 20.91
5459 13.2270 666.46 658.46 24.18
5460 13.2290 1014.22 1028.27 30.07
5461 13.2310 1180.42 1125.34 32.58
5462 13.2330 827.89 762.03 27.56
5463 13.2350 471.15 462.00 20.75
5464 13.2370 324.00 308.51 16.76
5465 13.2390 231.42 231.43 14.31
5466 13.2410 204.52 189.05 13.60
5467 13.2430 167.66 163.37 12.30
5468 13.2450 153.97 146.64 11.82
5469 13.2470 130.11 135.14 10.61
5470 13.2490 124.61 126.89 10.53
5471 13.2510 108.76 120.75 9.83
5472 13.2530 106.65 116.07 9.87
5473 13.2550 99.75 112.40 9.50
5474 13.2570 110.35 109.48 9.84
5475 13.2590 87.91 107.67 8.80
5476 13.2610 95.13 105.73 9.27
5477 13.2630 77.71 103.95 8.42
5478 13.2650 82.23 102.60 8.71
5479 13.2670 89.24 101.46 8.78
5480 13.2690 85.08 100.52 8.71
5481 13.2710 83.69 99.67 8.68
5482 13.2730 78.81 98.94 8.44
5483 13.2750 85.03 98.31 8.80
5484 13.2770 98.16 97.75 9.21
5485 13.2790 94.02 97.26 9.17
5486 13.2810 71.70 96.84 8.00
5487 13.2830 79.24 96.46 8.55
5488 13.2850 84.88 96.13 8.81
5489 13.2870 91.59 95.85 8.91
5490 13.2890 72.87 95.60 8.06
5491 13.2910 77.97 95.38 8.39
5492 13.2930 79.93 94.24 8.53
5493 13.2950 79.42 94.12 8.47
5494 13.2970 92.49 94.04 9.00
5495 13.2990 90.54 94.59 8.95
5496 13.3010 78.19 94.58 8.36
5497 13.3030 81.29 94.61 8.63
5498 13.3050 67.80 94.66 7.88
5499 13.3070 70.94 94.77 7.87
5500 13.3090 71.86 94.91 8.01
5501 13.3110 78.10 95.13 8.32
5502 13.3130 82.66 95.45 8.68
5503 13.3150 72.44 95.58 8.11
5504 13.3170 87.72 96.45 8.70
5505 13.3190 83.40 97.96 8.59
5506 13.3210 79.40 99.60 8.40
5507 13.3230 86.87 100.31 8.95
5508 13.3250 91.15 102.18 9.10
5509 13.3270 78.44 103.82 8.29
5510 13.3290 86.29 102.11 8.76
5511 13.3310 81.29 100.79 8.50
5512 13.3330 83.07 100.77 8.73
5513 13.3350 87.05 101.51 8.88
5514 13.3370 91.23 101.80 8.90
5515 13.3390 93.81 103.66 9.10
5516 13.3410 97.46 106.17 9.37
5517 13.3430 71.44 109.56 8.06
5518 13.3450 106.07 114.25 9.86
5519 13.3470 119.71 120.93 10.23
5520 13.3490 128.16 130.86 10.65
5521 13.3510 132.33 146.53 10.88
5522 13.3530 144.66 173.20 11.46
5523 13.3550 212.52 223.32 13.92
5524 13.3570 311.46 324.45 16.55
5525 13.3590 509.10 510.02 21.18
5526 13.3610 684.31 663.79 24.85
5527 13.3630 504.92 530.08 21.50
5528 13.3650 304.08 341.01 16.63
5529 13.3670 253.37 242.79 14.89
5530 13.3690 196.54 204.22 13.19
5531 13.3710 223.34 192.92 14.18
5532 13.3730 187.04 174.08 13.02
5533 13.3750 148.90 149.01 11.65
5534 13.3770 136.62 133.65 10.91
5535 13.3790 138.86 125.73 11.10
5536 13.3810 127.71 121.94 10.67
5537 13.3830 127.51 120.74 10.80
5538 13.3850 115.57 121.61 10.27
5539 13.3870 114.93 124.57 10.07
5540 13.3890 147.81 130.18 11.45
5541 13.3910 152.95 139.68 11.71
5542 13.3930 171.31 155.69 12.44
5543 13.3950 218.26 183.98 14.11
5544 13.3970 220.53 238.13 13.90
5545 13.3990 327.40 347.80 17.00
5546 13.4010 488.33 547.04 20.90
5547 13.4030 677.30 712.21 24.81
5548 13.4050 626.07 571.69 23.98
5549 13.4070 406.20 361.15 18.88
5550 13.4090 236.33 243.52 14.47
5551 13.4110 169.64 185.70 12.31
5552 13.4130 128.27 155.10 10.78
5553 13.4150 106.55 136.54 9.88
5554 13.4170 118.22 124.65 10.20
5555 13.4190 113.07 116.77 10.00
5556 13.4210 120.82 111.29 10.39
5557 13.4230 125.68 107.32 10.68
5558 13.4250 106.76 104.36 9.92
5559 13.4270 112.21 102.08 9.90
5560 13.4290 131.50 103.81 10.79
5561 13.4310 155.32 102.54 11.74
5562 13.4330 121.19 101.55 10.48
5563 13.4350 149.65 100.78 11.69
5564 13.4370 124.32 100.18 10.41
5565 13.4390 143.37 99.73 11.22
5566 13.4410 132.27 99.41 10.89
5567 13.4430 157.66 99.19 11.89
5568 13.4450 154.31 99.08 11.85
5569 13.4470 164.41 102.34 12.01
5570 13.4490 166.05 102.56 12.08
5571 13.4510 199.57 102.88 13.36
5572 13.4530 202.95 103.33 13.50
5573 13.4550 190.45 103.94 13.16
5574 13.4570 191.39 104.74 12.91
5575 13.4590 231.17 105.82 14.30
5576 13.4610 204.68 107.33 13.48
5577 13.4630 224.24 109.62 14.24
5578 13.4650 212.20 113.42 13.92
5579 13.4670 184.73 120.04 12.69
5580 13.4690 202.51 134.14 13.38
5581 13.4710 239.56 151.08 14.58
5582 13.4730 212.63 144.93 13.81
5583 13.4750 232.59 131.11 14.50
5584 13.4770 219.42 123.76 13.91
5585 13.4790 197.28 123.02 13.16
5586 13.4810 222.87 123.12 14.09
5587 13.4830 201.28 124.54 13.46
5588 13.4850 202.25 126.96 13.59
5589 13.4870 256.83 130.39 15.01
5590 13.4890 236.08 135.17 14.42
5591 13.4910 266.52 142.21 15.41
5592 13.4930 240.71 153.40 14.71
5593 13.4950 267.63 168.22 15.58
5594 13.4970 265.14 173.78 15.30
5595 13.4990 283.67 172.96 15.83
5596 13.5010 255.98 178.06 15.06
5597 13.5030 276.42 189.02 15.69
5598 13.5050 285.92 205.38 16.18
5599 13.5070 317.37 228.29 16.78
5600 13.5090 335.05 260.55 17.13
5601 13.5110 375.63 306.82 18.33
5602 13.5130 473.47 378.34 20.69
5603 13.5150 552.86 495.04 22.42
5604 13.5170 693.20 703.09 24.76
5605 13.5190 1074.55 1115.67 31.03
5606 13.5210 1888.00 1979.68 41.37
5607 13.5230 3361.41 3300.95 56.08
5608 13.5250 3352.77 3296.87 56.82
5609 13.5270 2055.83 1982.33 43.25
5610 13.5290 1271.12 1193.05 33.51
5611 13.5310 884.42 863.21 28.28
5612 13.5330 875.43 762.28 28.24
5613 13.5350 934.35 817.68 29.24
5614 13.5370 1135.16 1068.11 31.81
5615 13.5390 1664.22 1684.71 38.67
5616 13.5410 2744.44 2813.26 50.45
5617 13.5430 3475.97 3243.27 56.68
5618 13.5450 2269.99 2095.20 46.34
5619 13.5470 1117.12 1191.63 31.54
5620 13.5490 706.84 757.71 24.96
5621 13.5510 470.43 544.86 20.54
5622 13.5530 382.21 432.01 18.50
5623 13.5550 347.25 369.71 17.89
5624 13.5570 299.07 336.94 16.22
5625 13.5590 257.37 324.79 14.99
5626 13.5610 338.22 330.79 17.41
5627 13.5630 327.76 357.48 17.10
5628 13.5650 375.79 414.27 18.60
5629 13.5670 488.45 524.47 20.80
5630 13.5690 701.82 743.65 24.90
5631 13.5710 1104.73 1191.19 31.51
5632 13.5730 1869.47 1910.52 41.34
5633 13.5750 2123.22 2249.72 44.67
5634 13.5770 2004.15 2171.62 42.58
5635 13.5790 2052.87 2072.29 42.96
5636 13.5810 1367.00 1439.19 35.13
5637 13.5830 861.35 906.66 27.79
5638 13.5850 567.55 600.48 22.87
5639 13.5870 431.35 424.46 19.56
5640 13.5890 309.17 324.92 16.50
5641 13.5910 295.83 265.06 16.28
5642 13.5930 222.94 226.28 14.09
5643 13.5950 198.15 199.62 13.45
5644 13.5970 164.55 180.40 12.01
5645 13.5990 169.46 166.04 12.17
5646 13.6010 173.33 154.99 12.42
5647 13.6030 169.13 146.27 12.31
5648 13.6050 167.29 139.24 12.34
5649 13.6070 163.29 133.50 12.05
5650 13.6090 154.72 128.72 11.60
5651 13.6110 129.98 124.70 10.77
5652 13.6130 133.13 121.28 10.91
5653 13.6150 143.22 118.34 11.40
5654 13.6170 128.21 115.79 10.64
5655 13.6190 116.03 113.56 10.12
5656 13.6210 120.42 108.24 10.39
5657 13.6230 127.31 106.63 10.62
5658 13.6250 109.27 105.21 10.00
5659 13.6270 120.50 103.94 10.33
5660 13.6290 105.14 102.81 9.57
5661 13.6310 119.05 101.79 10.33
5662 13.6330 104.01 100.86 9.67
5663 13.6350 93.99 100.03 9.26
5664 13.6370 107.30 99.26 9.75
5665 13.6390 99.22 98.57 9.32
5666 13.6410 92.22 94.99 9.10
5667 13.6430 117.45 94.52 10.22
5668 13.6450 93.97 94.09 9.25
5669 13.6470 90.97 93.69 8.98
5670 13.6490 85.59 93.20 8.67
5671 13.6510 96.11 92.87 9.29
5672 13.6530 104.96 92.60 9.65
5673 13.6550 109.11 92.31 9.96
5674 13.6570 103.60 92.09 9.56
5675 13.6590 96.89 91.85 9.19
5676 13.6610 99.69 91.62 9.43
5677 13.6630 89.02 91.40 8.93
5678 13.6650 99.66 91.20 9.54
5679 13.6670 91.60 91.02 9.00
5680 13.6690 95.00 90.84 9.13
5681 13.6710 107.27 90.68 9.77
5682 13.6730 79.65 90.52 8.40
5683 13.6750 88.54 90.38 8.99
5684 13.6770 89.04 88.75 8.87
5685 13.6790 96.97 88.68 9.18
5686 13.6810 84.45 87.20 8.71
5687 13.6830 101.81 87.19 9.53
5688 13.6850 97.06 87.18 9.41
5689 13.6870 101.13 87.17 9.45
5690 13.6890 111.72 87.16 9.91
5691 13.6910 91.83 87.07 9.04
5692 13.6930 97.50 87.07 9.36
5693 13.6950 89.67 87.07 9.02
5694 13.6970 85.13 87.07 8.73
5695 13.6990 75.36 87.07 8.09
5696 13.7010 90.98 87.07 9.00
5697 13.7030 76.69 87.08 8.24
5698 13.7050 109.08 87.09 10.03
5699 13.7070 98.66 87.10 9.33
5700 13.7090 84.06 87.11 8.55
5701 13.7110 93.08 87.13 9.15
5702 13.7130 91.94 87.15 9.06
5703 13.7150 113.01 87.18 10.12
5704 13.7170 89.06 87.22 8.87
5705 13.7190 107.41 87.27 9.68
5706 13.7210 83.30 87.32 8.63
5707 13.7230 101.24 87.39 9.51
5708 13.7250 87.81 87.48 8.96
5709 13.7270 100.58 87.60 9.42
5710 13.7290 98.06 87.74 9.27
5711 13.7310 91.56 87.93 9.03
5712 13.7330 107.16 88.17 9.80
5713 13.7350 100.31 88.50 9.55
5714 13.7370 89.98 88.95 8.94
5715 13.7390 98.97 89.58 9.25
5716 13.7410 84.75 90.50 8.71
5717 13.7430 85.59 91.93 8.72
5718 13.7450 104.36 94.29 9.78
5719 13.7470 98.03 98.53 9.31
5720 13.7490 110.44 106.80 9.81
5721 13.7510 127.14 122.48 10.67
5722 13.7530 130.63 140.60 10.82
5723 13.7550 134.65 147.66 11.05
5724 13.7570 139.79 142.62 11.09
5725 13.7590 113.39 121.34 9.95
5726 13.7610 100.80 106.28 9.48
5727 13.7630 80.12 98.76 8.44
5728 13.7650 94.21 96.97 9.29
5729 13.7670 96.96 94.87 9.26
5730 13.7690 84.88 93.63 8.63
5731 13.7710 75.58 93.74 8.22
5732 13.7730 78.91 93.30 8.40
5733 13.7750 89.07 93.05 9.01
5734 13.7770 93.07 92.93 9.06
5735 13.7790 87.22 92.91 8.75
5736 13.7810 89.28 92.96 8.93
5737 13.7830 86.03 93.07 8.80
5738 13.7850 92.17 93.24 9.17
5739 13.7870 82.22 93.45 8.50
5740 13.7890 75.12 93.71 8.14
5741 13.7910 96.30 94.01 9.26
5742 13.7930 63.46 94.36 7.51
5743 13.7950 83.26 94.75 8.72
5744 13.7970 84.73 95.20 8.69
5745 13.7990 84.10 95.70 8.59
5746 13.8010 104.05 96.26 9.64
5747 13.8030 95.75 98.91 9.28
5748 13.8050 89.40 99.69 9.04
5749 13.8070 97.12 100.57 9.27
5750 13.8090 101.79 101.56 9.47
5751 13.8110 99.96 102.67 9.48
5752 13.8130 106.52 103.92 9.75
5753 13.8150 106.97 105.34 9.87
5754 13.8170 111.43 106.96 9.98
5755 13.8190 104.14 108.82 9.54
5756 13.8210 100.78 110.97 9.50
5757 13.8230 106.25 113.48 9.71
5758 13.8250 124.86 116.44 10.68
5759 13.8270 134.25 119.96 10.92
5760 13.8290 142.04 124.23 11.15
5761 13.8310 137.45 129.46 11.05
5762 13.8330 138.20 136.01 11.12
5763 13.8350 158.43 144.41 12.00
5764 13.8370 159.95 155.51 11.87
5765 13.8390 185.10 170.73 12.75
5766 13.8410 218.92 192.64 13.94
5767 13.8430 239.51 226.32 14.55
5768 13.8450 287.05 282.73 16.15
5769 13.8470 435.90 388.20 19.75
5770 13.8490 601.69 603.38 23.02
5771 13.8510 948.63 970.30 29.31
5772 13.8530 1114.19 1100.95 31.76
5773 13.8550 768.88 787.27 26.55
5774 13.8570 554.72 585.15 22.15
5775 13.8590 534.67 550.83 21.66
5776 13.8610 620.72 642.05 23.57
5777 13.8630 861.44 895.85 27.78
5778 13.8650 1434.04 1445.01 36.36
5779 13.8670 2543.15 2351.41 48.28
5780 13.8690 2844.44 2817.73 50.88
5781 13.8710 2124.45 2201.41 44.15
5782 13.8730 1299.22 1327.14 34.29
5783 13.8750 718.80 800.50 25.72
5784 13.8770 550.52 539.18 22.17
5785 13.8790 353.67 401.82 17.56
5786 13.8810 322.14 323.55 17.03
5787 13.8830 295.75 276.40 16.18
5788 13.8850 287.45 247.52 16.15
5789 13.8870 253.38 230.58 14.98
5790 13.8890 243.48 222.51 14.56
5791 13.8910 221.66 222.13 14.06
5792 13.8930 243.77 229.75 14.79
5793 13.8950 267.39 247.34 15.60
5794 13.8970 309.86 279.42 16.57
5795 13.8990 400.79 335.64 18.70
5796 13.9010 477.02 437.49 20.57
5797 13.9030 589.32 634.56 23.06
5798 13.9050 954.80 1030.57 29.59
5799 13.9070 1559.65 1705.95 37.55
5800 13.9090 2175.32 2110.21 44.10
5801 13.9110 1650.60 1543.01 38.71
5802 13.9130 927.76 907.71 28.90
5803 13.9150 516.88 563.66 21.68
5804 13.9170 316.63 390.27 16.72
5805 13.9190 221.92 297.35 13.89
5806 13.9210 190.60 241.65 13.07
5807 13.9230 196.75 206.14 13.25
5808 13.9250 154.51 182.25 11.91
5809 13.9270 128.50 165.58 10.64
5810 13.9290 157.87 153.70 11.75
5811 13.9310 125.98 145.35 10.60
5812 13.9330 127.18 139.65 10.71
5813 13.9350 116.96 136.57 10.31
5814 13.9370 131.37 136.78 10.74
5815 13.9390 151.34 142.67 11.51
5816 13.9410 145.01 159.53 11.36
5817 13.9430 189.38 189.68 13.03
5818 13.9450 190.51 194.87 13.15
5819 13.9470 147.51 166.12 11.47
5820 13.9490 157.10 153.41 11.71
5821 13.9510 152.09 157.30 11.66
5822 13.9530 164.73 151.47 12.15
5823 13.9550 128.66 130.91 10.87
5824 13.9570 132.94 117.70 10.81
5825 13.9590 119.38 110.86 10.23
5826 13.9610 137.94 107.00 11.06
5827 13.9630 103.99 104.58 9.66
5828 13.9650 108.94 102.95 9.97
5829 13.9670 120.77 101.81 10.36
5830 13.9690 119.38 102.21 10.24
5831 13.9710 122.12 100.86 10.46
5832 13.9730 134.34 100.60 10.98
5833 13.9750 133.97 98.62 11.03
5834 13.9770 138.10 98.79 11.07
5835 13.9790 151.81 99.13 11.50
5836 13.9810 134.45 99.65 11.01
5837 13.9830 134.60 100.38 11.00
5838 13.9850 143.48 101.36 11.47
5839 13.9870 151.76 102.63 11.58
5840 13.9890 154.45 104.28 11.65
5841 13.9910 132.37 106.41 10.88
5842 13.9930 144.88 109.18 11.37
5843 13.9950 159.16 112.85 12.07
5844 13.9970 132.36 117.81 10.79
5845 13.9990 153.25 124.63 11.59
5846 14.0010 158.54 134.37 11.95
5847 14.0030 167.16 148.92 12.24
5848 14.0050 161.06 171.90 12.11
5849 14.0070 224.25 211.00 14.17
5850 14.0090 322.33 284.33 16.80
5851 14.0110 426.90 436.91 19.59
5852 14.0130 739.03 738.68 25.87
5853 14.0150 1007.50 1033.38 30.47
5854 14.0170 843.67 810.94 27.29
5855 14.0190 462.25 482.25 20.18
5856 14.0210 312.79 319.83 16.78
5857 14.0230 261.84 253.52 15.37
5858 14.0250 246.26 241.04 14.95
5859 14.0270 233.39 257.07 14.40
5860 14.0290 227.85 234.65 14.15
5861 14.0310 183.39 187.12 12.83
5862 14.0330 163.64 161.09 12.15
5863 14.0350 159.08 151.76 12.04
5864 14.0370 157.53 154.06 11.83
5865 14.0390 171.78 170.26 12.23
5866 14.0410 211.74 207.60 13.76
5867 14.0430 255.63 250.02 15.20
5868 14.0450 209.42 231.34 13.80
5869 14.0470 154.19 183.59 11.67
5870 14.0490 155.03 156.14 11.70
5871 14.0510 130.30 144.54 10.77
5872 14.0530 146.11 141.31 11.45
5873 14.0550 155.57 143.15 11.87
5874 14.0570 144.95 149.25 11.33
5875 14.0590 174.55 160.16 12.34
5876 14.0610 187.84 177.81 12.97
5877 14.0630 210.02 206.32 13.72
5878 14.0650 239.91 254.50 14.76
5879 14.0670 316.66 342.19 16.70
5880 14.0690 512.18 514.88 21.19
5881 14.0710 891.60 850.74 28.58
5882 14.0730 1337.21 1264.80 34.79
5883 14.0750 1128.85 1168.25 32.15
5884 14.0770 686.95 737.37 24.77
5885 14.0790 478.16 474.74 20.57
5886 14.0810 395.64 357.98 18.77
5887 14.0830 326.15 294.41 17.10
5888 14.0850 271.95 239.73 15.69
5889 14.0870 235.40 204.68 14.51
5890 14.0890 223.38 187.51 13.94
5891 14.0910 211.64 182.99 13.80
5892 14.0930 231.91 190.33 14.39
5893 14.0950 229.73 208.70 14.40
5894 14.0970 265.63 223.27 15.34
5895 14.0990 267.76 238.26 15.28
5896 14.1010 330.39 280.62 17.20
5897 14.1030 401.65 373.62 18.91
5898 14.1050 507.47 567.01 21.52
5899 14.1070 833.46 924.54 27.34
5900 14.1090 1204.98 1242.62 32.59
5901 14.1110 1070.26 1010.85 31.07
5902 14.1130 623.61 617.83 23.71
5903 14.1150 358.24 391.51 17.99
5904 14.1170 259.04 278.27 15.07
5905 14.1190 184.86 218.01 12.72
5906 14.1210 165.99 182.99 12.18
5907 14.1230 157.07 161.17 11.84
5908 14.1250 145.74 146.98 11.45
5909 14.1270 135.12 137.60 10.96
5910 14.1290 124.74 132.14 10.41
5911 14.1310 129.92 130.62 10.72
5912 14.1330 145.79 133.93 11.33
5913 14.1350 136.13 136.83 11.09
5914 14.1370 139.29 128.51 11.06
5915 14.1390 129.38 119.06 10.65
5916 14.1410 131.56 113.64 10.81
5917 14.1430 116.86 110.61 10.20
5918 14.1450 119.23 108.80 10.31
5919 14.1470 94.97 107.68 9.17
5920 14.1490 114.16 107.04 10.00
5921 14.1510 112.05 106.62 10.03
5922 14.1530 118.96 106.61 10.28
5923 14.1550 115.42 106.86 10.21
5924 14.1570 118.67 107.34 10.23
5925 14.1590 132.89 108.06 10.77
5926 14.1610 119.96 109.03 10.34
5927 14.1630 146.87 110.26 11.44
5928 14.1650 136.91 111.79 11.11
5929 14.1670 139.13 113.65 11.06
5930 14.1690 135.50 115.93 10.86
5931 14.1710 141.62 118.63 11.29
5932 14.1730 143.84 121.89 11.29
5933 14.1750 151.96 126.69 11.69
5934 14.1770 162.82 131.49 12.00
5935 14.1790 155.82 137.35 11.70
5936 14.1810 158.94 143.42 11.92
5937 14.1830 179.83 152.47 12.68
5938 14.1850 190.17 163.90 13.12
5939 14.1870 189.96 178.62 12.94
5940 14.1890 206.61 197.96 13.45
5941 14.1910 221.58 224.03 14.10
5942 14.1930 269.82 260.27 15.55
5943 14.1950 327.09 312.68 17.27
5944 14.1970 422.81 392.20 19.27
5945 14.1990 537.84 520.33 21.80
5946 14.2010 765.60 744.03 26.33
5947 14.2030 1073.95 1175.30 31.05
5948 14.2050 1876.98 2073.82 41.80
5949 14.2070 3644.65 3714.38 58.18
5950 14.2090 4699.56 4627.35 66.34
5951 14.2110 2956.77 3086.12 52.48
5952 14.2130 1528.92 1676.57 37.30
5953 14.2150 872.97 986.32 28.15
5954 14.2170 604.66 649.26 23.13
5955 14.2190 470.18 466.73 20.38
5956 14.2210 391.39 359.61 18.74
5957 14.2230 294.19 291.62 16.19
5958 14.2250 251.87 245.98 15.15
5959 14.2270 248.53 214.05 14.85
5960 14.2290 205.97 190.89 13.47
5961 14.2310 180.01 173.66 12.66
5962 14.2330 175.30 160.55 12.50
5963 14.2350 158.92 150.41 12.04
5964 14.2370 161.31 142.48 11.91
5965 14.2390 128.22 136.24 10.63
5966 14.2410 146.64 131.36 11.48
5967 14.2430 119.01 127.58 10.31
5968 14.2450 107.92 124.75 9.85
5969 14.2470 120.81 122.77 10.38
5970 14.2490 119.22 121.61 10.29
5971 14.2510 118.62 122.40 10.28
5972 14.2530 120.36 123.11 10.40
5973 14.2550 117.80 125.06 10.38
5974 14.2570 128.12 128.63 10.63
5975 14.2590 129.68 133.93 10.69
5976 14.2610 128.38 141.70 10.74
5977 14.2630 167.37 154.80 12.22
5978 14.2650 181.58 177.56 12.82
5979 14.2670 221.79 216.79 14.05
5980 14.2690 310.25 268.77 16.53
5981 14.2710 363.27 353.16 18.11
5982 14.2730 529.39 538.15 21.74
5983 14.2750 807.26 845.51 27.09
5984 14.2770 981.23 920.09 29.64
5985 14.2790 555.74 611.75 22.09
5986 14.2810 360.66 376.17 17.98
5987 14.2830 234.58 259.17 14.46
5988 14.2850 197.89 199.56 13.40
5989 14.2870 154.40 166.36 11.64
5990 14.2890 144.76 146.29 11.31
5991 14.2910 139.38 133.34 11.22
5992 14.2930 122.61 124.58 10.43
5993 14.2950 114.84 118.41 10.21
5994 14.2970 131.44 113.96 10.81
5995 14.2990 121.52 110.69 10.32
5996 14.3010 120.31 108.26 10.35
5997 14.3030 116.51 106.47 10.19
5998 14.3050 111.33 105.18 10.08
5999 14.3070 124.92 104.30 10.49
6000 14.3090 109.55 99.36 9.79
6001 14.3110 99.24 99.31 9.46
6002 14.3130 116.47 99.54 10.21
6003 14.3150 130.87 100.05 10.81
6004 14.3170 108.99 100.87 9.86
6005 14.3190 107.59 102.02 9.73
6006 14.3210 107.80 103.55 9.77
6007 14.3230 122.82 105.55 10.43
6008 14.3250 107.49 108.14 9.87
6009 14.3270 106.38 111.47 9.66
6010 14.3290 130.24 115.82 10.68
6011 14.3310 143.09 121.56 11.35
6012 14.3330 145.02 129.30 11.37
6013 14.3350 156.20 140.06 11.86
6014 14.3370 161.29 155.57 11.91
6015 14.3390 185.90 179.07 12.71
6016 14.3410 241.30 217.05 14.69
6017 14.3430 298.75 284.01 16.40
6018 14.3450 437.01 414.34 19.89
6019 14.3470 687.43 681.86 24.65
6020 14.3490 1177.37 1098.82 32.39
6021 14.3510 1257.00 1146.13 33.66
6022 14.3530 789.89 742.64 26.62
6023 14.3550 478.97 478.42 20.82
6024 14.3570 411.92 370.58 19.04
6025 14.3590 359.30 348.58 17.67
6026 14.3610 440.28 394.98 19.91
6027 14.3630 592.10 540.58 22.96
6028 14.3650 879.56 861.82 28.26
6029 14.3670 1292.85 1251.47 34.05
6030 14.3690 1142.15 1087.70 31.71
6031 14.3710 675.41 653.64 24.56
6032 14.3730 412.01 403.23 19.21
6033 14.3750 292.18 280.46 16.18
6034 14.3770 203.88 215.77 13.40
6035 14.3790 182.97 178.20 12.55
6036 14.5150 140.42 116.07 11.23
6037 14.5170 129.00 121.32 10.63
6038 14.5190 150.47 127.89 11.58
6039 14.5210 153.01 136.19 11.68
6040 14.5230 181.50 146.97 12.83
6041 14.5250 194.76 161.38 13.27
6042 14.5270 183.68 181.30 12.70
6043 14.5290 250.02 210.04 14.95
6044 14.5310 293.90 253.87 16.19
6045 14.5330 342.76 325.73 17.70
6046 14.5350 454.12 455.19 20.25
6047 14.5370 652.94 711.26 24.07
6048 14.5390 1136.10 1211.37 31.91
6049 14.5410 1727.33 1760.35 39.73
6050 14.5430 1489.22 1504.15 37.11
6051 14.5450 940.85 982.84 29.40
6052 14.5470 767.41 763.04 26.11
6053 14.5490 795.51 796.55 26.75
6054 14.5510 969.66 1094.97 29.66
6055 14.5530 1625.56 1672.99 38.83
6056 14.5550 1886.96 1908.99 41.90
6057 14.5570 1334.82 1416.83 34.57
6058 14.5590 826.93 875.52 27.33
6059 14.5610 521.28 551.76 21.63
6060 14.5630 345.56 385.05 17.72
6061 14.5650 293.60 294.69 16.33
6062 14.5670 243.95 241.73 14.76
6063 14.5690 217.44 208.82 13.93
6064 14.5710 199.47 187.48 13.45
6065 14.5730 177.14 173.78 12.69
6066 14.5750 167.07 165.61 12.31
6067 14.5770 188.64 162.14 12.92
6068 14.5790 174.87 163.51 12.47
6069 14.5810 185.52 171.13 12.88
6070 14.5830 203.84 188.79 13.58
6071 14.5850 207.11 225.53 13.75
6072 14.5870 308.80 300.82 16.60
6073 14.5890 451.77 432.87 20.00
6074 14.5910 499.90 524.66 21.20
6075 14.5930 501.43 424.59 21.41
6076 14.5950 295.62 301.52 16.39
6077 14.5970 237.39 239.24 14.52
6078 14.5990 206.65 217.38 13.47
6079 14.6010 213.88 221.72 13.87
6080 14.6030 231.08 252.90 14.45
6081 14.6050 334.24 328.15 17.47
6082 14.6070 493.30 482.89 21.00
6083 14.6090 690.76 680.63 24.75
6084 14.6110 676.48 658.94 24.68
6085 14.6130 496.04 530.27 21.24
6086 14.6150 501.85 545.11 21.40
6087 14.6170 649.46 692.87 24.16
6088 14.6190 683.50 703.87 24.63
6089 14.6210 479.87 483.04 20.68
6090 14.6230 287.59 314.06 16.11
6091 14.6250 222.83 226.61 14.26
6092 14.6270 153.58 180.26 11.65
6093 14.6290 178.38 153.42 12.51
6094 14.6310 129.96 136.61 10.77
6095 14.6330 126.88 125.44 10.73
6096 14.6350 112.37 117.78 10.06
6097 14.6370 120.44 112.54 10.38
6098 14.6390 112.70 109.33 9.92
6099 14.6410 116.69 107.51 10.16
6100 14.6430 114.84 103.10 10.15
6101 14.6450 83.01 99.42 8.69
6102 14.6470 92.86 96.78 9.07
6103 14.6490 108.12 95.04 9.71
6104 14.6510 92.25 93.86 9.06
6105 14.6530 89.20 93.09 8.92
6106 14.6550 99.92 92.68 9.49
6107 14.6570 94.27 92.64 9.13
6108 14.6590 108.04 91.65 9.71
6109 14.6610 84.91 92.68 8.64
6110 14.6630 93.47 94.57 9.18
6111 14.6650 94.34 97.50 9.20
6112 14.6670 112.17 103.39 10.01
6113 14.6690 99.42 114.43 9.32
6114 14.6710 129.79 136.36 10.73
6115 14.6730 181.07 177.82 12.75
6116 14.6750 209.84 220.85 13.76
6117 14.6770 215.44 198.80 13.71
6118 14.6790 154.43 149.78 11.59
6119 14.6810 107.78 120.68 9.81
6120 14.6830 104.01 106.09 9.64
6121 14.6850 98.82 98.41 9.50
6122 14.6870 115.65 94.10 10.08
6123 14.6890 100.59 91.60 9.40
6124 14.6910 99.78 90.20 9.40
6125 14.6930 94.62 89.56 9.24
6126 14.6950 100.59 89.56 9.55
6127 14.6970 109.16 90.18 9.79
6128 14.6990 110.57 91.56 9.83
6129 14.7010 95.47 93.60 9.22
6130 14.7030 110.84 97.72 9.94
6131 14.7050 123.67 104.84 10.55
6132 14.7070 133.92 117.86 10.86
6133 14.7090 159.00 143.19 11.78
6134 14.7110 197.08 191.16 13.24
6135 14.7130 262.55 249.21 15.36
6136 14.7150 258.77 237.73 15.37
6137 14.7170 184.06 176.08 12.70
6138 14.7190 157.99 134.46 11.73
6139 14.7210 138.32 113.25 11.10
6140 14.7230 139.53 102.33 11.21
6141 14.7250 131.09 96.01 10.84
6142 14.7270 125.43 93.18 10.51
6143 14.7290 145.64 92.64 11.32
6144 14.7310 128.98 94.82 10.70
6145 14.7330 116.97 101.16 10.23
6146 14.7350 153.41 108.98 11.82
6147 14.7370 148.03 106.85 11.45
6148 14.7390 153.71 102.99 11.49
6149 14.7410 160.83 107.81 12.00
6150 14.7430 163.60 123.46 12.13
6151 14.7450 196.47 135.86 13.38
6152 14.7470 197.92 119.92 13.20
6153 14.7490 152.52 101.29 11.57
6154 14.7510 135.42 91.43 10.96
6155 14.7530 146.67 86.47 11.53
6156 14.7550 142.00 83.74 11.33
6157 14.7570 135.00 82.11 10.93
6158 14.7590 132.41 81.11 10.79
6159 14.7610 126.03 80.50 10.59
6160 14.7630 133.45 79.97 10.93
6161 14.7650 121.18 79.39 10.53
6162 14.7670 111.83 78.95 9.92
6163 14.7690 122.10 78.72 10.35
6164 14.7710 132.67 78.50 10.92
6165 14.7730 109.10 78.35 9.94
6166 14.7750 101.81 78.25 9.62
6167 14.7770 116.74 78.22 10.18
6168 14.7790 120.15 78.26 10.30
6169 14.7810 122.86 78.43 10.42
6170 14.7830 122.42 78.80 10.51
6171 14.7850 122.51 79.45 10.56
6172 14.7870 92.89 81.10 9.04
6173 14.7890 101.61 83.97 9.46
6174 14.7910 98.72 85.73 9.40
6175 14.7930 112.50 83.27 10.04
6176 14.7950 97.31 80.45 9.39
6177 14.7970 100.13 78.89 9.44
6178 14.7990 66.30 78.08 7.59
6179 14.8010 103.59 77.62 9.59
6180 14.8030 86.37 77.34 8.82
6181 14.8050 85.33 77.16 8.83
6182 14.8070 70.78 77.03 7.87
6183 14.8090 82.50 76.94 8.49
6184 14.8110 78.76 76.93 8.39
6185 14.8130 70.33 76.89 7.95
6186 14.8150 91.90 76.86 9.12
6187 14.8170 76.78 76.85 8.23
6188 14.8190 82.82 76.86 8.51
6189 14.8210 80.29 76.89 8.44
6190 14.8230 77.41 76.94 8.34
6191 14.8250 78.76 76.85 8.46
6192 14.8270 69.46 76.99 7.81
6193 14.8290 74.92 77.20 8.12
6194 14.8310 62.70 77.53 7.45
6195 14.8330 70.57 78.09 7.95
6196 14.8350 65.38 79.11 7.69
6197 14.8370 63.77 81.18 7.52
6198 14.8390 80.60 84.79 8.37
6199 14.8410 85.77 88.18 8.70
6200 14.8430 84.65 85.98 8.75
6201 14.8450 85.97 82.08 8.86
6202 14.8470 72.01 79.89 7.93
6203 14.8490 77.10 78.80 8.25
6204 14.8510 79.33 78.33 8.41
6205 14.8530 67.22 78.17 7.78
6206 14.8550 76.43 78.20 8.35
6207 14.8570 60.32 78.38 7.29
6208 14.8590 74.15 78.72 8.03
6209 14.8610 74.66 79.24 8.15
6210 14.8630 72.90 80.03 8.07
6211 14.8650 62.85 81.21 7.55
6212 14.8670 76.37 83.04 8.19
6213 14.8690 75.73 86.05 8.15
6214 14.8710 77.16 91.35 8.23
6215 14.8730 88.03 101.44 8.89
6216 14.8750 102.71 120.80 9.67
6217 14.8770 126.86 147.93 10.54
6218 14.8790 143.47 150.83 11.21
6219 14.8810 123.28 124.05 10.44
6220 14.8830 99.46 103.26 9.43
6221 14.8850 66.75 92.42 7.79
6222 14.8870 67.28 86.81 7.69
6223 14.8890 73.11 83.69 8.03
6224 14.8910 70.86 81.86 7.94
6225 14.8930 70.06 80.74 7.94
6226 14.8950 70.39 80.06 7.96
6227 14.8970 66.95 79.70 7.67
6228 14.8990 72.43 79.59 7.95
6229 14.9010 58.77 79.71 7.20
6230 14.9030 66.89 80.10 7.74
6231 14.9050 60.12 80.86 7.40
6232 14.9070 55.32 82.19 6.95
6233 14.9090 70.09 84.51 7.88
6234 14.9110 82.34 88.77 8.54
6235 14.9130 78.87 97.10 8.41
6236 14.9150 101.06 113.02 9.52
6237 14.9170 140.90 131.54 11.08
6238 14.9190 110.30 125.62 9.83
6239 14.9210 91.81 105.80 9.01
6240 14.9230 85.93 93.61 8.76
6241 14.9250 73.35 87.66 8.17
6242 14.9270 70.07 84.80 7.83
6243 14.9290 63.10 83.55 7.49
6244 14.9310 56.01 83.31 7.05
6245 14.9330 74.01 83.95 8.15
6246 14.9350 72.43 85.63 8.10
6247 14.9370 81.92 88.90 8.49
6248 14.9390 86.87 95.11 8.76
6249 14.9410 101.62 107.38 9.48
6250 14.9430 107.55 131.15 9.84
6251 14.9450 150.60 162.48 11.65
6252 14.9470 144.18 160.27 11.24
6253 14.9490 117.60 127.76 10.22
6254 14.9510 94.95 104.98 9.20
6255 14.9530 71.75 93.26 8.04
6256 14.9550 65.41 87.07 7.71
6257 14.9570 80.74 83.54 8.39
6258 14.9590 70.50 81.36 7.93
6259 14.9610 62.71 79.94 7.49
6260 14.9630 53.49 78.97 6.95
6261 14.9650 68.65 78.30 7.88
6262 14.9670 71.24 77.84 7.94
6263 14.9690 79.38 77.52 8.40
6264 14.9710 50.95 77.33 6.76
6265 14.9730 63.50 77.25 7.54
6266 14.9750 65.69 77.30 7.74
6267 14.9770 56.98 77.51 7.06
6268 14.9790 63.94 77.95 7.52
6269 14.9810 74.71 78.77 8.15
6270 14.9830 57.38 80.30 7.19
6271 14.9850 55.88 83.28 7.13
6272 14.9870 76.25 89.12 8.15
6273 14.9890 99.80 98.37 9.41
6274 14.9910 75.65 102.31 8.18
6275 14.9930 85.07 94.08 8.74
6276 14.9950 64.41 85.78 7.66
6277 14.9970 70.39 81.21 7.88
6278 14.9990 60.34 78.81 7.26
6279 15.0010 71.78 77.46 8.00
6280 15.0030 53.42 76.64 6.95
6281 15.0050 58.76 76.09 7.29
6282 15.0070 58.23 75.71 7.14
6283 15.0090 74.98 75.43 8.16
6284 15.0110 70.11 75.22 7.88
6285 15.0130 68.12 75.05 7.88
6286 15.0150 71.54 74.91 8.05
6287 15.0170 46.02 74.80 6.36
6288 15.0190 52.84 74.73 6.82
6289 15.0210 70.97 74.65 7.92
6290 15.0230 56.28 74.58 7.12
6291 15.0250 65.91 74.51 7.75
6292 15.0270 64.66 74.40 7.56
6293 15.0290 64.40 74.36 7.53
6294 15.0310 45.22 74.31 6.33
6295 15.0330 63.16 74.27 7.53
6296 15.0350 67.90 74.23 7.87
6297 15.0370 60.19 74.20 7.25
6298 15.0390 59.99 74.17 7.24
6299 15.0410 46.85 74.14 6.45
6300 15.0430 61.65 74.11 7.43
6301 15.0450 62.36 74.08 7.51
6302 15.0470 56.79 74.06 7.07
6303 15.0490 68.09 74.04 7.78
6304 15.0510 54.45 74.01 6.98
6305 15.0530 54.50 73.99 7.01
6306 15.0550 57.78 73.97 7.24
6307 15.0570 71.56 73.87 7.88
6308 15.0590 68.33 73.85 7.77
6309 15.0610 65.88 73.84 7.67
6310 15.0630 60.39 73.83 7.34
6311 15.0650 50.30 73.82 6.76
6312 15.0670 55.69 73.81 7.01
6313 15.0690 49.80 73.80 6.62
6314 15.0710 72.25 73.80 8.02
6315 15.0730 59.85 73.80 7.35
6316 15.0750 71.37 73.80 8.04
6317 15.0770 62.05 73.81 7.36
6318 15.0790 72.80 73.82 7.98
6319 15.0810 59.04 73.83 7.29
6320 15.0830 66.85 73.86 7.75
6321 15.0850 65.27 73.89 7.70
6322 15.0870 61.08 73.95 7.31
6323 15.0890 73.52 74.02 8.05
6324 15.0910 59.37 74.13 7.28
6325 15.0930 50.48 74.30 6.75
6326 15.0950 67.81 74.56 7.82
6327 15.0970 61.99 75.01 7.36
6328 15.0990 68.14 75.85 7.75
6329 15.1010 69.91 77.44 7.87
6330 15.1030 75.73 79.70 8.26
6331 15.1050 70.69 80.26 7.97
6332 15.1070 56.68 79.50 7.05
6333 15.1090 62.59 79.29 7.45
6334 15.1110 64.88 78.31 7.59
6335 15.1130 67.95 77.54 7.81
6336 15.1150 71.98 77.87 8.06
6337 15.1170 79.96 79.61 8.34
6338 15.1190 73.40 83.73 7.99
6339 15.1210 71.09 91.12 7.94
6340 15.1230 90.45 94.83 9.02
6341 15.1250 68.25 87.87 7.81
6342 15.1270 74.00 81.28 8.05
6343 15.1290 81.75 77.87 8.49
6344 15.1310 66.66 76.14 7.72
6345 15.1330 53.19 75.19 6.91
6346 15.1350 58.34 74.61 7.25
6347 15.1370 49.87 74.23 6.62
6348 15.1390 69.58 73.97 7.76
6349 15.1410 76.10 73.78 8.25
6350 15.1430 65.47 73.63 7.69
6351 15.1450 59.92 73.52 7.35
6352 15.1470 68.66 73.43 7.74
6353 15.1490 49.88 73.35 6.60
6354 15.1510 62.06 73.29 7.44
6355 15.1530 55.11 73.24 7.05
6356 15.1550 59.71 73.19 7.32
6357 15.1570 63.96 73.14 7.40
6358 15.1590 72.05 73.11 7.93
6359 15.1610 70.35 73.07 7.90
6360 15.1630 60.88 73.04 7.40
6361 15.1650 74.58 73.01 8.16
6362 15.1670 60.55 72.98 7.28
6363 15.1690 65.61 72.96 7.56
6364 15.1710 65.46 72.93 7.61
6365 15.1730 66.28 72.91 7.76
6366 15.1750 66.97 72.88 7.72
6367 15.1770 74.53 72.86 8.04
6368 15.1790 65.03 72.84 7.57
6369 15.1810 66.76 72.82 7.71
6370 15.1830 68.52 72.80 7.86
6371 15.1850 59.88 72.78 7.36
6372 15.1870 55.57 72.76 6.98
6373 15.1890 73.50 72.75 8.03
6374 15.1910 73.59 72.73 8.04
6375 15.1930 79.41 72.71 8.50
6376 15.1950 60.74 72.69 7.35
6377 15.1970 64.54 72.67 7.46
6378 15.1990 69.08 72.66 7.77
6379 15.2010 57.66 72.82 7.18
6380 15.2030 62.29 72.81 7.51
6381 15.2050 76.88 72.80 8.25
6382 15.2070 71.91 72.79 7.91
6383 15.2090 75.73 72.78 8.20
6384 15.2110 66.02 72.78 7.62
6385 15.2130 62.17 72.77 7.53
6386 15.2150 63.77 72.76 7.52
6387 15.2170 62.35 72.75 7.33
6388 15.2190 72.36 72.75 8.01
6389 15.2210 61.69 73.95 7.44
6390 15.2230 75.20 74.00 8.25
6391 15.2250 68.66 74.04 7.82
6392 15.2270 77.39 74.09 8.24
6393 15.2290 65.57 74.13 7.69
6394 15.2310 70.06 74.19 7.86
6395 15.2330 77.55 74.26 8.43
6396 15.2350 86.69 74.33 8.78
6397 15.2370 73.69 74.40 8.00
6398 15.2390 81.01 74.49 8.48
6399 15.2410 72.16 74.58 8.04
6400 15.2430 70.20 74.68 8.02
6401 15.2450 67.36 74.78 7.80
6402 15.2470 89.83 74.90 8.85
6403 15.2490 73.72 75.03 8.09
6404 15.2510 65.93 75.16 7.70
6405 15.2530 68.64 75.32 7.91
6406 15.2550 84.79 76.83 8.72
6407 15.2570 80.23 77.06 8.35
6408 15.2590 87.24 77.32 8.85
6409 15.2610 98.28 77.60 9.40
6410 15.2630 95.25 77.94 9.36
6411 15.2650 92.67 78.28 9.11
6412 15.2670 91.78 78.68 8.97
6413 15.2690 80.41 79.10 8.44
6414 15.2710 109.84 79.56 9.97
6415 15.2730 95.91 80.08 9.37
6416 15.2750 107.89 80.66 9.83
6417 15.2770 84.94 81.32 8.59
6418 15.2790 93.04 82.06 9.10
6419 15.2810 92.66 82.91 9.13
6420 15.2830 88.14 83.88 8.98
6421 15.2850 98.33 85.01 9.41
6422 15.2870 94.73 86.33 9.07
6423 15.2890 87.54 87.89 8.86
6424 15.2910 87.41 89.77 8.83
6425 15.2930 118.31 92.16 10.41
6426 15.2950 110.99 95.00 9.97
6427 15.2970 102.18 98.61 9.43
6428 15.2990 89.26 103.34 8.92
6429 15.3010 127.40 109.79 10.65
6430 15.3030 131.92 119.05 10.98
6431 15.3050 129.68 133.30 10.81
6432 15.3070 150.75 157.16 11.47
6433 15.3090 206.87 199.66 13.58
6434 15.3110 294.32 267.46 16.27
6435 15.3130 314.32 315.01 16.96
6436 15.3150 293.57 286.46 16.26
6437 15.3170 236.85 258.09 14.30
6438 15.3190 242.30 270.38 14.71
6439 15.3210 343.74 329.78 17.55
6440 15.3230 438.22 462.99 20.00
6441 15.3250 685.63 733.65 24.94
6442 15.3270 1235.74 1142.82 33.08
6443 15.3290 1202.84 1222.38 33.02
6444 15.3310 790.45 823.00 26.70
6445 15.3330 501.52 506.72 21.49
6446 15.3350 354.37 344.00 17.74
6447 15.3370 303.84 261.10 16.31
6448 15.3390 234.29 216.92 14.43
6449 15.3410 207.37 193.31 13.61
6450 15.3430 197.56 182.35 13.46
6451 15.3450 203.14 181.31 13.53
6452 15.3470 228.73 188.64 14.11
6453 15.3490 227.06 206.75 14.26
6454 15.3510 251.23 241.02 14.98
6455 15.3530 339.90 303.78 17.69
6456 15.3550 432.82 422.86 19.79
6457 15.3570 639.42 655.70 23.67
6458 15.3590 895.34 1053.47 28.44
6459 15.3610 1351.55 1322.95 34.98
6460 15.3630 1110.85 1021.34 32.12
6461 15.3650 668.64 641.86 24.60
6462 15.3670 425.69 431.83 19.34
6463 15.3690 314.53 313.04 16.70
6464 15.3710 241.70 243.18 14.75
6465 15.3730 213.79 206.86 13.97
6466 15.3750 194.23 182.80 13.18
6467 15.3770 164.37 157.66 11.99
6468 15.3790 141.30 138.70 11.24
6469 15.3810 132.11 126.54 10.93
6470 15.3830 132.25 118.59 10.99
6471 15.3850 127.21 113.31 10.70
6472 15.3870 130.02 109.95 10.67
6473 15.3890 114.54 108.23 10.09
6474 15.3910 116.21 108.23 10.20
6475 15.3930 128.46 110.60 10.85
6476 15.3950 125.79 116.65 10.65
6477 15.3970 126.82 129.89 10.60
6478 15.3990 170.51 156.58 12.27
6479 15.4010 211.07 193.42 13.77
6480 15.4030 207.30 194.03 13.79
6481 15.4050 171.40 158.69 12.41
6482 15.4070 159.24 131.41 11.82
6483 15.4090 136.54 117.83 11.01
6484 15.4110 118.08 111.58 10.33
6485 15.4130 111.25 109.22 10.06
6486 15.4150 127.07 109.36 10.75
6487 15.4170 127.43 111.57 10.54
6488 15.4190 150.64 115.99 11.56
6489 15.4210 139.04 123.37 11.18
6490 15.4230 156.57 135.30 11.92
6491 15.4250 172.03 157.33 12.51
6492 15.4270 181.04 192.43 12.56
6493 15.4290 233.80 260.20 14.42
6494 15.4310 353.18 393.15 17.76
6495 15.4330 577.34 584.10 23.03
6496 15.4350 603.63 597.76 23.43
6497 15.4370 428.48 416.36 19.36
6498 15.4390 282.10 292.55 15.78
6499 15.4410 248.16 242.91 14.89
6500 15.4430 250.74 239.68 15.15
6501 15.4450 245.27 280.59 14.95
6502 15.4470 346.66 388.69 17.35
6503 15.4490 516.86 567.27 21.44
6504 15.4510 566.09 605.95 22.61
6505 15.4530 400.50 422.48 19.07
6506 15.4550 255.29 277.25 15.18
6507 15.4570 182.48 202.96 12.63
6508 15.4590 182.71 164.90 12.72
6509 15.4610 140.81 143.90 11.19
6510 15.4630 117.96 131.49 10.38
6511 15.4650 135.22 123.89 11.07
6512 15.4670 100.17 119.22 9.37
6513 15.4690 121.52 116.66 10.39
6514 15.4710 112.66 115.38 10.07
6515 15.4730 129.93 115.22 10.88
6516 15.4750 112.80 114.85 10.07
6517 15.4770 124.66 116.64 10.44
6518 15.4790 118.92 119.39 10.21
6519 15.4810 137.66 123.25 11.06
6520 15.4830 128.84 128.56 10.81
6521 15.4850 129.89 136.04 10.88
6522 15.4870 152.82 145.28 11.52
6523 15.4890 175.48 157.89 12.47
6524 15.4910 167.20 175.80 12.22
6525 15.4930 183.72 202.76 12.97
6526 15.4950 227.90 245.91 14.37
6527 15.4970 308.80 311.08 16.41
6528 15.4990 356.86 375.56 17.71
6529 15.5010 418.50 439.57 19.34
6530 15.5030 537.76 579.67 22.10
6531 15.5050 772.75 883.43 26.59
6532 15.5070 1491.46 1483.00 36.34
6533 15.5090 2269.24 2230.39 45.29
6534 15.5110 2024.44 2071.79 43.07
6535 15.5130 1253.78 1290.21 34.03
6536 15.5150 802.89 795.27 27.07
6537 15.5170 562.68 558.50 22.23
6538 15.5190 503.28 449.50 21.06
6539 15.5210 424.61 408.65 19.46
6540 15.5230 472.27 415.45 20.68
6541 15.5250 501.79 471.91 21.47
6542 15.5270 617.27 603.65 23.21
6543 15.5290 830.38 877.57 27.15
6544 15.5310 1283.62 1419.69 34.20
6545 15.5330 1951.55 2155.12 42.44
6546 15.5350 2134.95 2138.55 44.55
6547 15.5370 1370.32 1382.77 34.81
6548 15.5390 799.25 842.34 26.67
6549 15.5410 538.86 565.14 21.96
6550 15.5430 405.14 424.51 19.09
6551 15.5450 324.43 352.84 17.20
6552 15.5470 278.30 323.01 15.65
6553 15.5490 314.13 328.67 16.65
6554 15.5510 351.88 379.67 17.83
6555 15.5530 471.96 501.88 20.55
6556 15.5550 765.83 693.76 26.50
6557 15.5570 770.02 763.57 26.07
6558 15.5590 531.19 580.95 21.71
6559 15.5610 338.40 393.88 17.39
6560 15.5630 258.76 286.29 15.34
6561 15.5650 237.31 230.15 14.70
6562 15.5670 230.17 201.74 14.21
6563 15.5690 197.21 190.85 13.18
6564 15.5710 200.36 196.43 13.43
6565 15.5730 245.14 224.08 14.88
6566 15.5750 273.95 266.07 15.69
6567 15.5770 276.16 258.74 15.48
6568 15.5790 246.12 209.55 14.72
6569 15.5810 183.61 178.29 12.81
6570 15.5830 181.84 166.49 12.78
6571 15.5850 194.59 168.28 13.32
6572 15.5870 182.64 184.28 12.65
6573 15.5890 247.73 220.43 14.78
6574 15.5910 342.01 272.31 17.50
6575 15.5930 369.67 283.79 18.19
6576 15.5950 309.98 259.39 16.80
6577 15.5970 319.34 264.34 16.67
6578 15.5990 357.89 317.27 17.75
6579 15.6010 428.30 437.82 19.61
6580 15.6030 600.78 631.74 23.32
6581 15.6050 770.83 743.34 26.42
6582 15.6070 677.40 598.14 24.50
6583 15.6090 434.72 411.42 19.63
6584 15.6110 301.77 302.02 16.40
6585 15.6130 243.24 250.12 14.81
6586 15.6150 263.42 231.92 15.49
6587 15.6170 215.21 237.52 13.72
6588 15.6190 301.44 266.46 16.29
6589 15.6210 334.64 337.16 17.41
6590 15.6230 483.52 479.10 20.88
6591 15.6250 720.46 713.88 25.66
6592 15.6270 962.51 896.00 29.07
6593 15.6290 867.36 906.05 27.76
6594 15.6310 800.43 817.16 26.79
6595 15.6330 578.05 577.17 22.81
6596 15.6350 349.23 377.62 17.80
6597 15.6370 245.93 266.25 14.70
6598 15.6390 224.16 205.02 13.96
6599 15.6410 208.90 169.07 13.66
6600 15.6430 179.43 146.35 12.66
6601 15.6450 155.70 128.95 11.91
6602 15.6470 154.55 118.28 11.64
6603 15.6490 145.46 110.49 11.29
6604 15.6510 117.86 104.63 10.29
6605 15.6530 145.22 100.12 11.39
6606 15.6550 120.86 96.58 10.51
6607 15.6570 125.14 93.76 10.47
6608 15.6590 100.04 91.52 9.41
6609 15.6610 113.67 89.68 10.10
6610 15.6630 87.56 88.18 8.88
6611 15.6650 93.27 86.96 9.20
6612 15.6670 105.87 85.97 9.65
6613 15.6690 126.76 85.20 10.54
6614 15.6710 102.24 84.61 9.56
6615 15.6730 97.57 84.19 9.37
6616 15.6750 95.61 83.94 9.26
6617 15.6770 107.12 83.27 9.69
6618 15.6790 109.44 83.41 9.82
6619 15.6810 91.86 83.77 9.03
6620 15.6830 101.52 84.40 9.51
6621 15.6850 99.66 85.39 9.55
6622 15.6870 104.15 86.73 9.55
6623 15.6890 106.82 88.90 9.70
6624 15.6910 109.30 92.15 9.88
6625 15.6930 97.30 97.16 9.35
6626 15.6950 118.57 105.28 10.33
6627 15.6970 128.73 119.37 10.61
6628 15.6990 160.23 145.33 11.83
6629 15.7010 204.05 192.71 13.53
6630 15.7030 281.62 256.58 15.89
6631 15.7050 263.10 268.71 15.41
6632 15.7070 203.80 209.82 13.36
6633 15.7090 161.26 157.85 11.92
6634 15.7110 133.39 129.68 10.94
6635 15.7130 125.54 116.04 10.61
6636 15.7150 131.34 110.34 10.90
6637 15.7170 124.00 109.84 10.43
6638 15.7190 118.83 114.20 10.20
6639 15.7210 165.30 125.29 12.16
6640 15.7230 154.06 148.56 11.74
6641 15.7250 195.20 195.11 13.29
6642 15.7270 277.53 265.43 15.58
6643 15.7290 318.71 292.45 16.78
6644 15.7310 267.57 259.97 15.41
6645 15.7330 226.18 228.57 14.26
6646 15.7350 186.24 195.29 12.95
6647 15.7370 190.69 177.80 12.92
6648 15.7390 144.60 157.37 11.28
6649 15.7410 128.29 137.84 10.74
6650 15.7430 143.93 131.08 11.33
6651 15.7450 151.88 138.41 11.74
6652 15.7470 149.37 160.64 11.45
6653 15.7490 189.07 202.79 12.89
6654 15.7510 252.87 256.68 15.02
6655 15.7530 289.34 258.07 16.14
6656 15.7550 214.17 198.99 13.94
6657 15.7570 139.07 149.15 11.02
6658 15.7590 128.92 121.07 10.64
6659 15.7610 88.60 106.10 8.90
6660 15.7630 92.27 98.06 9.11
6661 15.7650 88.47 94.11 8.92
6662 15.7670 89.76 93.43 8.90
6663 15.7690 95.33 96.67 9.17
6664 15.7710 108.82 105.07 9.87
6665 15.7730 113.16 112.97 10.10
6666 15.7750 88.79 106.42 9.00
6667 15.7770 81.19 94.89 8.48
6668 15.7790 94.98 88.40 9.13
6669 15.7810 73.33 86.14 8.09
6670 15.7830 57.63 84.86 7.22
6671 15.7850 87.45 82.18 8.90
6672 15.7870 87.01 80.80 8.74
6673 15.7890 86.98 78.64 8.77
6674 15.7910 62.80 77.26 7.50
6675 15.7930 74.44 76.38 8.17
6676 15.7950 69.56 75.78 7.95
6677 15.7970 77.66 75.36 8.28
6678 15.7990 72.27 75.05 7.97
6679 15.8010 77.38 74.82 8.32
6680 15.8030 67.50 74.64 7.79
6681 15.8050 93.38 74.51 9.20
6682 15.8070 66.05 74.42 7.64
6683 15.8090 68.43 74.37 7.75
6684 15.8110 85.24 74.33 8.77
6685 15.8130 64.70 74.33 7.63
6686 15.8150 73.17 74.35 8.15
6687 15.8170 66.28 74.39 7.63
6688 15.8190 56.22 74.45 7.06
6689 15.8210 82.94 74.53 8.62
6690 15.8230 78.52 74.64 8.41
6691 15.8250 75.53 74.59 8.26
6692 15.8270 77.93 74.74 8.31
6693 15.8290 77.65 74.93 8.26
6694 15.8310 62.64 75.14 7.52
6695 15.8330 75.85 75.38 8.25
6696 15.8350 78.17 75.66 8.43
6697 15.8370 79.43 75.97 8.32
6698 15.8390 87.48 76.16 8.80
6699 15.8410 84.55 76.56 8.74
6700 15.8430 79.63 76.96 8.42
6701 15.8450 77.93 77.48 8.40
6702 15.8470 94.95 78.08 9.14
6703 15.8490 84.37 78.77 8.63
6704 15.8510 91.15 79.51 9.03
6705 15.8530 76.80 80.42 8.33
6706 15.8550 82.47 81.47 8.64
6707 15.8570 92.18 82.70 9.02
6708 15.8590 97.14 84.15 9.24
6709 15.8610 97.00 85.86 9.35
6710 15.8630 93.89 87.92 9.15
6711 15.8650 104.85 90.42 9.76
6712 15.8670 93.82 93.49 9.06
6713 15.8690 84.58 97.37 8.65
6714 15.8710 91.93 102.24 9.10
6715 15.8730 104.62 108.58 9.71
6716 15.8750 124.86 116.91 10.63
6717 15.8770 124.31 128.71 10.49
6718 15.8790 148.48 145.62 11.45
6719 15.8810 192.45 169.13 13.10
6720 15.8830 188.11 200.56 13.00
6721 15.8850 249.94 250.63 15.00
6722 15.8870 313.23 340.42 16.68
6723 15.8890 475.72 511.96 20.52
6724 15.8910 759.80 846.99 26.25
6725 15.8930 1327.40 1362.72 34.80
6726 15.8950 1562.10 1520.47 37.89
6727 15.8970 981.71 1035.07 29.57
6728 15.8990 513.18 617.89 21.29
6729 15.9010 356.26 399.99 17.90
6730 15.9030 261.27 283.65 15.33
6731 15.9050 194.65 216.26 13.27
6732 15.9070 181.52 175.60 12.66
6733 15.9090 172.55 149.63 12.28
6734 15.9110 143.07 132.15 11.28
6735 15.9130 129.89 119.86 10.79
6736 15.9150 122.08 111.52 10.47
6737 15.9170 111.19 104.87 9.88
6738 15.9190 104.82 99.84 9.57
6739 15.9210 102.68 96.06 9.60
6740 15.9230 86.83 93.37 8.82
6741 15.9250 113.88 91.66 10.15
6742 15.9270 83.67 90.15 8.61
6743 15.9290 85.91 87.70 8.68
6744 15.9310 87.69 85.29 8.88
6745 15.9330 83.57 84.11 8.67
6746 15.9350 86.53 82.79 8.82
6747 15.9370 84.69 81.76 8.63
6748 15.9390 94.17 80.93 9.11
6749 15.9410 91.48 80.25 9.00
6750 15.9430 88.46 79.69 8.92
6751 15.9450 80.96 79.27 8.55
6752 15.9470 78.16 78.90 8.31
6753 15.9490 73.92 78.62 8.08
6754 15.9510 94.65 78.42 9.21
6755 15.9530 79.05 78.29 8.44
6756 15.9550 74.82 78.25 8.21
6757 15.9570 83.68 78.30 8.59
6758 15.9590 81.51 78.47 8.45
6759 15.9610 81.32 78.78 8.54
6760 15.9630 83.96 79.29 8.67
6761 15.9650 85.27 80.12 8.77
6762 15.9670 74.88 81.48 8.15
6763 15.9690 82.15 83.80 8.55
6764 15.9710 79.60 88.07 8.44
6765 15.9730 100.83 96.35 9.53
6766 15.9750 121.47 110.50 10.48
6767 15.9770 122.57 119.65 10.38
6768 15.9790 104.92 108.74 9.63
6769 15.9810 88.11 96.01 8.91
6770 15.9830 99.97 89.36 9.47
6771 15.9850 98.72 86.43 9.44
6772 15.9870 81.45 85.44 8.47
6773 15.9890 77.75 85.69 8.28
6774 15.9910 87.72 87.13 8.89
6775 15.9930 86.89 90.25 8.83
6776 15.9950 119.81 95.93 10.39
6777 15.9970 118.49 102.10 10.19
6778 15.9990 119.44 101.28 10.27
6779 16.0010 98.80 97.52 9.38
6780 16.0030 117.00 96.49 10.26
6781 16.0050 103.46 96.55 9.68
6782 16.0070 117.60 99.98 10.15
6783 16.0090 130.57 105.40 10.74
6784 16.0110 140.31 113.42 11.28
6785 16.0130 149.68 125.38 11.55
6786 16.0150 166.33 143.93 12.28
6787 16.0170 177.72 174.44 12.56
6788 16.0190 233.49 227.56 14.39
6789 16.0210 296.40 320.87 16.29
6790 16.0230 467.99 469.57 20.58
6791 16.0250 679.77 659.06 24.90
6792 16.0270 719.98 676.26 25.23
6793 16.0290 485.74 477.15 20.75
6794 16.0310 336.73 322.96 17.40
6795 16.0330 280.68 247.73 15.87
6796 16.0350 226.17 218.59 14.27
6797 16.0370 233.10 219.47 14.31
6798 16.0390 267.50 250.81 15.40
6799 16.0410 331.75 329.61 17.21
6800 16.0430 492.27 487.13 21.02
6801 16.0450 675.95 676.93 24.88
6802 16.0470 647.01 632.79 23.90
6803 16.0490 455.41 422.69 20.09
6804 16.0510 275.40 278.87 15.76
6805 16.0530 196.77 203.53 13.26
6806 16.0550 157.89 162.81 11.89
6807 16.0570 125.77 139.76 10.52
6808 16.0590 123.94 126.66 10.49
6809 16.0610 115.16 120.60 10.16
6810 16.0630 106.69 121.06 9.78
6811 16.0650 124.87 126.51 10.65
6812 16.0670 117.45 124.97 10.17
6813 16.0690 104.82 112.44 9.62
6814 16.0710 96.69 101.11 9.30
6815 16.0730 91.67 94.08 9.10
6816 16.0750 93.94 89.80 9.17
6817 16.0770 95.13 87.03 9.16
6818 16.0790 83.98 85.11 8.62
6819 16.0810 89.69 83.73 8.96
6820 16.0830 81.42 83.24 8.53
6821 16.0850 79.38 82.52 8.46
6822 16.0870 95.71 82.04 9.20
6823 16.0890 80.78 81.72 8.44
6824 16.0910 80.64 81.64 8.48
6825 16.0930 77.45 82.41 8.36
6826 16.0950 86.54 82.86 8.83
6827 16.0970 88.81 83.71 8.83
6828 16.0990 103.20 85.22 9.52
6829 16.1010 96.02 87.91 9.29
6830 16.1030 108.21 92.97 9.84
6831 16.1050 96.19 102.41 9.25
6832 16.1070 104.33 114.88 9.59
6833 16.1090 102.03 115.33 9.46
6834 16.1110 111.50 103.90 9.93
6835 16.1130 97.75 95.91 9.35
6836 16.1150 95.43 92.44 9.26
6837 16.1170 107.68 91.53 9.72
6838 16.1190 98.35 92.16 9.33
6839 16.1210 109.36 94.01 9.82
6840 16.1230 97.81 97.12 9.35
6841 16.1250 110.45 101.89 9.93
6842 16.1270 118.83 109.60 10.18
6843 16.1290 116.02 121.03 10.10
6844 16.1310 124.26 140.03 10.55
6845 16.1330 154.44 172.88 11.72
6846 16.1350 225.26 229.53 14.20
6847 16.1370 333.09 322.93 17.08
6848 16.1390 425.20 411.98 19.36
6849 16.1410 373.96 371.30 18.24
6850 16.1430 256.07 266.63 15.20
6851 16.1450 209.27 197.23 13.69
6852 16.1470 173.45 161.99 12.29
6853 16.1490 158.50 145.87 11.86
6854 16.1510 174.44 141.12 12.43
6855 16.1530 155.58 145.33 11.82
6856 16.1550 174.91 160.22 12.44
6857 16.1570 196.13 193.06 13.17
6858 16.1590 292.08 260.34 16.01
6859 16.1610 395.11 374.15 18.76
6860 16.1630 482.00 444.52 20.86
6861 16.1650 380.28 359.47 18.49
6862 16.1670 292.93 258.96 16.08
6863 16.1690 225.18 200.41 14.03
6864 16.1710 209.62 172.75 13.74
6865 16.1730 184.27 163.14 12.86
6866 16.1750 185.69 165.55 12.91
6867 16.1770 208.99 179.40 13.53
6868 16.1790 208.59 209.09 13.67
6869 16.1810 265.65 265.66 15.38
6870 16.1830 342.77 366.36 17.53
6871 16.1850 502.97 497.46 21.37
6872 16.1870 552.94 549.92 22.21
6873 16.1890 541.42 539.70 21.84
6874 16.1910 604.15 621.09 23.33
6875 16.1930 756.09 732.96 26.17
6876 16.1950 615.13 628.03 23.55
6877 16.1970 453.02 462.98 20.01
6878 16.1990 376.73 401.37 18.25
6879 16.2010 459.21 445.21 20.33
6880 16.2030 594.12 588.45 23.01
6881 16.2050 694.03 695.27 25.14
6882 16.2070 569.28 578.98 22.35
6883 16.2090 443.63 430.25 19.83
6884 16.2110 306.00 319.79 16.56
6885 16.2130 233.85 237.39 14.54
6886 16.2150 195.46 187.02 13.28
6887 16.2170 145.58 157.90 11.35
6888 16.2190 155.46 140.64 11.76
6889 16.2210 133.47 130.19 10.94
6890 16.2230 124.61 124.13 10.57
6891 16.2250 122.40 121.41 10.51
6892 16.2270 124.63 121.70 10.52
6893 16.2290 138.16 125.39 11.07
6894 16.2310 131.04 133.74 10.85
6895 16.2330 173.52 149.58 12.47
6896 16.2350 169.38 179.20 12.33
6897 16.2370 244.32 236.43 14.71
6898 16.2390 315.43 343.30 16.67
6899 16.2410 496.94 486.28 21.14
6900 16.2430 523.61 495.30 21.71
6901 16.2450 343.13 351.59 17.68
6902 16.2470 235.56 237.48 14.36
6903 16.2490 190.29 175.32 13.04
6904 16.2510 144.73 141.68 11.38
6905 16.2530 133.77 122.15 10.94
6906 16.2550 133.57 109.95 10.98
6907 16.2570 120.30 101.85 10.29
6908 16.2590 96.49 96.20 9.22
6909 16.2610 94.18 91.79 9.18
6910 16.2630 113.62 88.72 10.12
6911 16.2650 91.43 86.82 9.09
6912 16.2670 81.60 84.97 8.47
6913 16.2690 99.22 83.50 9.40
6914 16.2710 117.86 82.30 10.31
6915 16.2730 83.83 81.32 8.68
6916 16.2750 79.38 80.18 8.46
6917 16.2770 84.37 79.52 8.67
6918 16.2790 83.95 78.96 8.63
6919 16.2810 92.60 78.49 9.11
6920 16.2830 81.04 78.10 8.54
6921 16.2850 88.52 77.78 8.94
6922 16.2870 78.76 77.50 8.33
6923 16.2890 81.77 77.28 8.51
6924 16.2910 90.06 77.12 8.98
6925 16.2930 91.11 77.00 9.08
6926 16.2950 83.05 76.92 8.62
6927 16.2970 91.00 76.88 8.94
6928 16.2990 85.53 76.88 8.73
6929 16.3010 87.23 76.93 8.81
6930 16.3030 85.88 77.02 8.74
6931 16.3050 87.36 76.64 8.87
6932 16.3070 79.88 76.84 8.41
6933 16.3090 94.65 77.11 9.13
6934 16.3110 74.17 77.12 8.17
6935 16.3130 87.14 77.53 8.87
6936 16.3150 86.56 78.03 8.81
6937 16.3170 80.93 78.64 8.44
6938 16.3190 69.80 78.88 7.88
6939 16.3210 77.12 79.82 8.29
6940 16.3230 75.41 80.97 8.22
6941 16.3250 89.69 82.42 8.97
6942 16.3270 89.45 84.26 8.89
6943 16.3290 88.70 86.79 8.81
6944 16.3310 97.57 89.96 9.33
6945 16.3330 99.19 94.21 9.39
6946 16.3350 110.45 100.34 9.94
6947 16.3370 109.85 109.41 9.85
6948 16.3390 141.36 124.29 11.13
6949 16.3410 134.87 148.07 10.99
6950 16.3430 200.02 191.16 13.37
6951 16.3450 264.90 272.93 15.47
6952 16.3470 424.66 410.09 19.29
6953 16.3490 531.33 502.57 21.81
6954 16.3510 400.54 400.84 18.85
6955 16.3530 271.12 267.82 15.62
6956 16.3550 198.35 191.91 13.30
6957 16.3570 145.53 153.91 11.31
6958 16.3590 153.24 133.44 11.55
6959 16.3610 118.42 123.15 10.30
6960 16.3630 117.32 118.76 10.23
6961 16.3650 124.65 118.80 10.56
6962 16.3670 130.51 123.18 10.69
6963 16.3690 130.12 133.14 10.73
6964 16.3710 141.77 151.95 11.25
6965 16.3730 203.33 187.06 13.43
6966 16.3750 227.45 254.43 14.22
6967 16.3770 397.13 376.79 18.66
6968 16.3790 471.16 510.44 20.34
6969 16.3810 487.22 468.74 20.78
6970 16.3830 338.50 320.08 17.36
6971 16.3850 229.01 219.44 14.34
6972 16.3870 160.26 165.88 11.84
6973 16.3890 111.31 136.60 9.90
6974 16.3910 120.52 119.48 10.40
6975 16.3930 100.77 108.80 9.49
6976 16.3950 104.91 101.79 9.65
6977 16.3970 108.61 97.03 9.74
6978 16.3990 95.19 93.70 9.14
6979 16.4010 102.48 91.35 9.55
6980 16.4030 86.17 89.71 8.76
6981 16.4050 100.87 88.61 9.48
6982 16.4070 86.78 87.91 8.74
6983 16.4090 95.06 87.55 9.17
6984 16.4110 87.10 87.51 8.81
6985 16.4130 83.21 87.76 8.66
6986 16.4150 90.33 88.30 8.93
6987 16.4170 97.58 89.18 9.23
6988 16.4190 101.09 90.43 9.43
6989 16.4210 109.07 92.28 9.79
6990 16.4230 99.88 94.60 9.43
6991 16.4250 105.10 97.75 9.68
6992 16.4270 121.51 102.25 10.36
6993 16.4290 129.02 108.50 10.62
6994 16.4310 125.14 117.95 10.57
6995 16.4330 144.86 133.36 11.37
6996 16.4350 170.54 160.41 12.30
6997 16.4370 216.22 207.85 13.71
6998 16.4390 294.06 263.08 16.05
6999 16.4410 303.95 264.14 16.38
7000 16.4430 249.21 238.59 14.92
7001 16.4450 287.64 245.47 15.95
7002 16.4470 308.28 298.58 16.46
7003 16.4490 389.83 421.15 18.52
7004 16.4510 692.89 640.49 24.82
7005 16.4530 818.52 811.78 27.08
7006 16.4550 670.98 664.53 24.52
7007 16.4570 483.88 442.44 20.57
7008 16.4590 320.06 317.40 16.70
7009 16.4610 264.96 262.92 15.33
7010 16.4630 277.63 251.11 15.75
7011 16.4650 294.20 275.08 16.19
7012 16.4670 355.59 348.96 17.73
7013 16.4690 507.32 504.30 21.21
7014 16.4710 717.91 723.69 25.30
7015 16.4730 776.78 744.89 26.57
7016 16.4750 583.67 520.11 22.82
7017 16.4770 309.00 337.51 16.38
7018 16.4790 248.02 237.86 14.84
7019 16.4810 141.96 183.95 11.20
7020 16.4830 126.48 152.74 10.67
7021 16.4850 125.55 133.23 10.59
7022 16.4870 99.62 120.34 9.40
7023 16.4890 104.85 111.39 9.62
7024 16.4910 103.75 104.98 9.63
7025 16.4930 101.87 100.25 9.54
7026 16.4950 80.86 96.73 8.52
7027 16.4970 104.63 93.68 9.58
7028 16.4990 97.01 91.80 9.25
7029 16.5010 65.55 90.58 7.63
7030 16.5030 75.88 90.08 8.26
7031 16.5050 83.90 90.53 8.68
7032 16.5070 77.61 92.19 8.27
7033 16.5090 100.29 93.98 9.45
7034 16.5110 85.82 94.80 8.74
7035 16.5130 100.33 97.86 9.54
7036 16.5150 100.31 105.55 9.48
7037 16.5170 126.37 113.74 10.52
7038 16.5190 99.56 110.08 9.45
7039 16.5210 103.32 102.01 9.63
7040 16.5230 101.11 98.42 9.53
7041 16.5250 85.97 98.97 8.82
7042 16.5270 97.48 103.09 9.27
7043 16.5290 99.07 111.77 9.42
7044 16.5310 137.58 128.30 11.16
7045 16.5330 163.23 159.49 12.10
7046 16.5350 224.67 209.50 14.30
7047 16.5370 286.54 242.66 15.85
7048 16.5390 221.54 223.03 14.17
7049 16.5410 204.32 212.60 13.49
7050 16.5430 235.73 233.28 14.61
7051 16.5450 219.59 231.44 14.04
7052 16.5470 180.22 182.42 12.66
7053 16.5490 133.16 140.08 10.96
7054 16.5510 114.13 116.01 10.16
7055 16.5530 116.60 102.51 10.30
7056 16.5550 96.38 94.58 9.37
7057 16.5570 94.20 89.56 9.11
7058 16.5590 80.76 86.20 8.54
7059 16.5610 76.81 83.86 8.38
7060 16.5630 90.46 82.19 9.02
7061 16.5650 75.99 80.99 8.32
7062 16.5670 72.21 80.13 7.99
7063 16.5690 76.09 78.88 8.32
7064 16.5710 86.13 78.57 8.82
7065 16.5730 78.48 78.52 8.46
7066 16.5750 77.76 78.76 8.44
7067 16.5770 69.75 79.40 7.87
7068 16.5790 78.81 80.66 8.39
7069 16.5810 90.25 83.00 9.03
7070 16.5830 87.38 87.39 8.93
7071 16.5850 93.31 95.70 9.19
7072 16.5870 116.00 109.72 10.16
7073 16.5890 111.71 120.99 9.98
7074 16.5910 104.08 113.35 9.74
7075 16.5930 86.74 97.92 8.83
7076 16.5950 79.11 87.79 8.49
7077 16.5970 73.24 82.26 8.05
7078 16.5990 69.10 79.17 7.84
7079 16.6010 79.04 77.34 8.42
7080 16.6030 81.21 76.17 8.57
7081 16.6050 65.58 75.39 7.71
7082 16.6070 55.64 74.86 7.03
7083 16.6090 77.72 74.49 8.34
7084 16.6110 75.08 74.25 8.23
7085 16.6130 67.68 74.11 7.82
7086 16.6150 77.76 74.16 8.35
7087 16.6170 64.66 74.21 7.60
7088 16.6190 75.50 74.39 8.19
7089 16.6210 74.20 74.76 8.18
7090 16.6230 62.97 75.45 7.51
7091 16.6250 69.94 76.72 7.94
7092 16.6270 74.15 79.12 8.11
7093 16.6290 88.26 83.38 8.86
7094 16.6310 83.29 88.05 8.66
7095 16.6330 84.88 87.40 8.71
7096 16.6350 73.59 82.33 8.15
7097 16.6370 76.25 78.39 8.20
7098 16.6390 73.65 76.17 8.07
7099 16.6410 75.98 74.94 8.23
7100 16.6430 65.61 74.22 7.67
7101 16.6450 62.27 73.77 7.49
7102 16.6470 73.83 73.48 8.11
7103 16.6490 68.08 73.27 7.74
7104 16.6510 65.90 73.14 7.68
7105 16.6530 72.60 73.04 8.08
7106 16.6550 59.29 72.83 7.32
7107 16.6570 73.72 72.78 8.08
7108 16.6590 62.79 72.75 7.47
7109 16.6610 61.68 72.73 7.42
7110 16.6630 61.11 72.72 7.40
7111 16.6650 77.50 72.59 8.39
7112 16.6670 71.19 72.60 7.94
7113 16.6690 72.34 72.61 7.99
7114 16.6710 77.50 72.64 8.31
7115 16.6730 74.43 72.67 8.19
7116 16.6750 86.61 72.71 8.81
7117 16.6770 72.27 72.75 8.00
7118 16.6790 67.41 72.80 7.70
7119 16.6810 78.45 72.86 8.36
7120 16.6830 56.53 72.93 7.11
7121 16.6850 66.65 73.02 7.72
7122 16.6870 61.97 73.10 7.42
7123 16.6890 65.67 73.21 7.60
7124 16.6910 81.21 73.33 8.54
7125 16.6930 55.45 73.47 7.04
7126 16.6950 60.13 73.63 7.39
7127 16.6970 65.99 73.82 7.62
7128 16.6990 66.52 74.05 7.67
7129 16.7010 87.73 74.34 8.82
7130 16.7030 69.68 74.68 7.92
7131 16.7050 62.37 75.12 7.47
7132 16.7070 78.95 75.67 8.34
7133 16.7090 90.82 76.40 8.99
7134 16.7110 59.68 77.38 7.29
7135 16.7130 76.54 78.70 8.28
7136 16.7150 70.24 80.70 7.97
7137 16.7170 80.20 83.77 8.43
7138 16.7190 74.77 89.08 8.10
7139 16.7210 89.48 98.16 8.92
7140 16.7230 98.19 115.30 9.36
7141 16.7250 135.22 144.79 11.03
7142 16.7270 173.56 168.84 12.34
7143 16.7290 133.64 150.76 10.89
7144 16.7310 107.62 121.91 9.78
7145 16.7330 95.39 106.25 9.27
7146 16.7350 101.17 101.04 9.54
7147 16.7370 101.33 103.80 9.43
7148 16.7390 96.41 115.66 9.22
7149 16.7410 123.02 134.33 10.46
7150 16.7430 147.88 135.44 11.48
7151 16.7450 110.91 114.46 9.98
7152 16.7470 92.74 97.75 9.05
7153 16.7490 85.49 90.48 8.69
7154 16.7510 75.11 85.69 8.18
7155 16.7530 74.27 82.98 8.17
7156 16.7550 77.37 81.37 8.36
7157 16.7570 94.28 80.41 9.14
7158 16.7590 72.90 79.92 8.04
7159 16.7610 90.07 80.04 8.97
7160 16.7630 82.17 80.38 8.60
7161 16.7650 77.82 81.37 8.40
7162 16.7670 101.45 83.44 9.50
7163 16.7690 111.16 86.64 9.90
7164 16.7710 99.77 88.06 9.46
7165 16.7730 89.25 85.40 8.95
7166 16.7750 101.76 82.50 9.55
7167 16.7770 83.30 80.86 8.58
7168 16.7790 111.62 80.06 9.97
7169 16.7810 90.72 79.71 9.04
7170 16.7830 87.80 79.61 8.85
7171 16.7850 97.41 79.68 9.39
7172 16.7870 77.33 79.94 8.29
7173 16.7890 78.43 80.22 8.30
7174 16.7910 81.00 80.60 8.54
7175 16.7930 81.94 81.09 8.60
7176 16.7950 97.37 81.71 9.35
7177 16.7970 91.04 82.52 8.97
7178 16.7990 77.28 83.61 8.28
7179 16.8010 108.84 85.21 9.82
7180 16.8030 84.94 87.73 8.72
7181 16.8050 100.30 91.76 9.47
7182 16.8070 110.96 96.62 9.89
7183 16.8090 105.97 97.73 9.68
7184 16.8110 111.22 94.87 9.96
7185 16.8130 94.62 92.83 9.18
7186 16.8150 101.54 92.47 9.53
7187 16.8170 106.52 93.27 9.66
7188 16.8190 120.19 94.89 10.26
7189 16.8210 108.20 97.27 9.77
7190 16.8230 100.30 100.48 9.48
7191 16.8250 104.55 104.78 9.67
7192 16.8270 139.92 110.71 11.11
7193 16.8290 152.36 118.99 11.60
7194 16.8310 150.51 131.29 11.58
7195 16.8330 177.38 150.90 12.60
7196 16.8350 194.46 184.36 13.20
7197 16.8370 273.22 242.86 15.50
7198 16.8390 376.71 324.80 18.18
7199 16.8410 409.30 357.02 19.12
7200 16.8430 359.51 300.21 17.97
7201 16.8450 288.83 246.38 16.10
7202 16.8470 240.41 225.58 14.47
7203 16.8490 241.93 230.29 14.59
7204 16.8510 275.21 256.84 15.65
7205 16.8530 336.22 310.46 17.37
7206 16.8550 427.53 408.64 19.51
7207 16.8570 568.69 593.48 22.36
7208 16.8590 911.72 948.47 28.38
7209 16.8610 1580.08 1531.39 37.72
7210 16.8630 1928.02 1882.82 42.10
7211 16.8650 1458.30 1424.23 36.56
7212 16.8670 883.74 868.85 28.04
7213 16.8690 499.77 552.14 21.02
7214 16.8710 365.99 387.70 18.01
7215 16.8730 274.98 299.95 15.70
7216 16.8750 254.97 252.60 15.02
7217 16.8770 218.14 230.87 13.86
7218 16.8790 212.06 231.51 13.62
7219 16.8810 241.73 259.33 14.62
7220 16.8830 290.28 318.07 16.10
7221 16.8850 387.17 362.66 18.68
7222 16.8870 341.21 315.36 17.37
7223 16.8890 241.75 236.17 14.61
7224 16.8910 158.81 183.72 11.88
7225 16.8930 131.59 153.91 10.85
7226 16.8950 134.98 137.20 10.95
7227 16.8970 124.36 128.00 10.44
7228 16.8990 125.59 124.02 10.53
7229 16.9010 124.19 125.12 10.50
7230 16.9030 126.50 133.21 10.63
7231 16.9050 157.16 151.88 11.91
7232 16.9070 176.90 176.13 12.44
7233 16.9090 179.43 174.20 12.55
7234 16.9110 150.51 145.50 11.55
7235 16.9130 108.93 122.18 9.87
7236 16.9150 124.81 108.77 10.55
7237 16.9170 127.80 101.14 10.59
7238 16.9190 107.49 96.53 9.72
7239 16.9210 98.39 94.11 9.38
7240 16.9230 95.66 92.25 9.25
7241 16.9250 87.46 91.15 8.89
7242 16.9270 84.55 90.71 8.64
7243 16.9290 100.85 91.02 9.40
7244 16.9310 104.03 92.35 9.66
7245 16.9330 96.16 94.87 9.31
7246 16.9350 100.94 97.64 9.48
7247 16.9370 91.95 101.30 9.00
7248 16.9390 119.20 109.01 10.31
7249 16.9410 115.64 120.62 10.17
7250 16.9430 142.37 134.63 11.28
7251 16.9450 165.46 143.93 12.20
7252 16.9470 126.21 131.63 10.57
7253 16.9490 114.51 112.84 10.08
7254 16.9510 100.37 100.71 9.51
7255 16.9530 90.29 94.05 9.05
7256 16.9550 92.07 91.01 9.08
7257 16.9570 89.25 88.89 8.86
7258 16.9590 72.26 87.66 7.97
7259 16.9610 102.10 86.99 9.59
7260 16.9630 79.91 86.75 8.47
7261 16.9650 93.94 86.64 9.16
7262 16.9670 78.92 87.16 8.35
7263 16.9690 87.67 88.26 8.79
7264 16.9710 89.68 90.17 9.01
7265 16.9730 79.46 94.20 8.48
7266 16.9750 93.05 99.22 9.13
7267 16.9770 98.86 103.03 9.32
7268 16.9790 97.32 102.93 9.24
7269 16.9810 100.47 103.93 9.50
7270 16.9830 116.11 101.44 10.20
7271 16.9850 104.57 99.02 9.69
7272 16.9870 98.56 98.94 9.35
7273 16.9890 90.63 100.85 8.95
7274 16.9910 89.46 104.52 8.98
7275 16.9930 91.40 110.22 9.09
7276 16.9950 118.33 118.83 10.27
7277 16.9970 124.38 132.05 10.47
7278 16.9990 154.37 153.39 11.62
7279 17.0010 171.07 190.19 12.35
7280 17.0030 256.11 257.92 15.17
7281 17.0050 362.51 381.38 18.03
7282 17.0070 573.61 542.67 22.61
7283 17.0090 562.44 553.11 22.19
7284 17.0110 346.48 395.42 17.67
7285 17.0130 302.73 268.61 16.49
7286 17.0150 193.21 200.13 13.10
7287 17.0170 187.49 164.25 12.86
7288 17.0190 134.78 144.97 10.84
7289 17.0210 136.90 134.68 11.04
7290 17.0230 134.42 129.99 10.96
7291 17.0250 133.64 129.47 10.93
7292 17.0270 131.25 133.65 10.77
7293 17.0290 150.48 141.63 11.48
7294 17.0310 164.58 156.16 12.17
7295 17.0330 181.02 181.90 12.69
7296 17.0350 212.50 228.47 13.78
7297 17.0370 274.06 314.90 15.56
7298 17.0390 429.48 460.27 19.40
7299 17.0410 577.23 586.96 22.76
7300 17.0430 498.83 512.41 21.25
7301 17.0450 360.49 356.38 17.95
7302 17.0470 247.14 255.48 14.73
7303 17.0490 182.68 202.52 12.65
7304 17.0510 162.53 175.42 12.02
7305 17.0530 143.79 162.52 11.31
7306 17.0550 142.02 158.71 11.25
7307 17.0570 165.80 162.31 12.07
7308 17.0590 166.51 174.06 12.09
7309 17.0610 201.16 197.42 13.38
7310 17.0630 244.72 240.98 14.83
7311 17.0650 296.67 323.61 16.26
7312 17.0670 427.80 479.99 19.40
7313 17.0690 759.68 710.40 25.90
7314 17.0710 804.41 780.88 26.95
7315 17.0730 524.34 576.65 21.64
7316 17.0750 389.44 391.48 18.61
7317 17.0770 299.89 297.13 16.14
7318 17.0790 293.98 260.47 16.04
7319 17.0810 278.65 261.07 15.81
7320 17.0830 315.59 282.80 16.82
7321 17.0850 304.72 306.85 16.50
7322 17.0870 361.95 362.77 17.79
7323 17.0890 462.77 496.86 20.27
7324 17.0910 685.98 706.42 24.91
7325 17.0930 813.99 775.25 27.11
7326 17.0950 597.24 576.79 23.03
7327 17.0970 343.99 381.37 17.36
7328 17.0990 273.76 269.39 15.47
7329 17.1010 231.58 208.76 14.44
7330 17.1030 175.03 174.49 12.50
7331 17.1050 146.59 154.59 11.40
7332 17.1070 131.74 142.88 10.69
7333 17.1090 121.17 133.82 10.32
7334 17.1110 130.38 125.43 10.78
7335 17.1130 98.05 119.44 9.35
7336 17.1150 133.76 115.74 10.86
7337 17.1170 110.37 113.70 9.81
7338 17.1190 111.49 112.94 9.94
7339 17.1210 119.17 113.33 10.29
7340 17.1230 112.08 114.88 10.02
7341 17.1250 147.16 117.77 11.39
7342 17.1270 122.44 121.88 10.33
7343 17.1290 154.32 128.80 11.64
7344 17.1310 159.47 139.20 11.93
7345 17.1330 170.94 155.19 12.33
7346 17.1350 153.86 180.95 11.64
7347 17.1370 214.75 224.65 13.68
7348 17.1390 279.78 299.87 15.63
7349 17.1410 407.63 406.20 19.06
7350 17.1430 500.90 510.66 21.29
7351 17.1450 671.21 653.83 24.40
7352 17.1470 858.22 785.79 27.49
7353 17.1490 706.12 701.59 24.97
7354 17.1510 449.43 524.05 20.05
7355 17.1530 365.85 392.76 18.06
7356 17.1550 266.23 311.66 15.35
7357 17.1570 266.92 285.55 15.30
7358 17.1590 270.12 292.84 15.34
7359 17.1610 290.25 269.30 16.08
7360 17.1630 241.80 210.71 14.72
7361 17.1650 169.50 167.23 12.23
7362 17.1670 125.22 142.09 10.46
7363 17.1690 136.80 127.49 10.96
7364 17.1710 120.67 118.77 10.40
7365 17.1730 108.63 113.77 9.82
7366 17.1750 118.51 111.78 10.24
7367 17.1770 114.75 113.12 10.03
7368 17.1790 109.97 119.44 9.80
7369 17.1810 140.96 133.52 11.24
7370 17.1830 127.73 151.58 10.66
7371 17.1850 152.41 149.50 11.58
7372 17.1870 138.11 127.99 10.95
7373 17.1890 119.31 110.35 10.26
7374 17.1910 104.60 100.92 9.70
7375 17.1930 105.59 95.33 9.71
7376 17.1950 93.09 91.92 9.04
7377 17.1970 65.08 89.69 7.55
7378 17.1990 85.52 88.18 8.65
7379 17.2010 78.59 87.09 8.41
7380 17.2030 77.31 86.40 8.32
7381 17.2050 72.80 85.98 8.03
7382 17.2070 73.79 85.84 8.01
7383 17.2090 84.30 85.98 8.67
7384 17.2110 76.74 86.50 8.35
7385 17.2130 73.90 86.89 8.10
7386 17.2150 77.40 88.72 8.28
7387 17.2170 91.67 91.41 8.96
7388 17.2190 103.67 95.81 9.58
7389 17.2210 101.86 104.29 9.56
7390 17.2230 121.05 120.31 10.42
7391 17.2250 131.13 143.29 10.78
7392 17.2270 151.18 148.76 11.51
7393 17.2290 128.94 127.61 10.72
7394 17.2310 92.30 108.14 9.17
7395 17.2330 88.31 97.12 8.90
7396 17.2350 100.75 91.15 9.46
7397 17.2370 83.28 87.73 8.54
7398 17.2390 77.64 85.64 8.33
7399 17.2410 75.77 84.31 8.25
7400 17.2430 76.22 83.43 8.30
7401 17.2450 75.23 82.84 8.15
7402 17.2470 68.18 82.46 7.75
7403 17.2490 78.89 82.23 8.43
7404 17.2510 75.23 82.12 8.26
7405 17.2530 73.34 82.14 8.15
7406 17.2550 82.01 82.27 8.53
7407 17.2570 70.94 82.55 7.92
7408 17.2590 68.60 82.88 7.86
7409 17.2610 83.27 83.63 8.69
7410 17.2630 65.14 84.83 7.69
7411 17.2650 74.07 86.84 8.14
7412 17.2670 87.73 90.39 8.79
7413 17.2690 92.51 96.75 9.11
7414 17.2710 128.93 105.83 10.81
7415 17.2730 111.15 109.54 10.02
7416 17.2750 95.16 101.71 9.18
7417 17.2770 99.55 94.01 9.37
7418 17.2790 81.31 89.81 8.54
7419 17.2810 79.57 87.61 8.50
7420 17.2830 78.56 86.77 8.45
7421 17.2850 73.57 86.64 8.10
7422 17.2870 97.59 87.01 9.21
7423 17.2890 94.58 87.79 9.22
7424 17.2910 90.51 89.10 9.02
7425 17.2930 83.96 90.80 8.75
7426 17.2950 86.65 93.14 8.78
7427 17.2970 86.48 96.37 8.71
7428 17.2990 102.70 100.93 9.59
7429 17.3010 105.92 107.57 9.79
7430 17.3030 112.13 117.68 10.09
7431 17.3050 118.90 134.05 10.26
7432 17.3070 147.83 161.93 11.38
7433 17.3090 189.36 212.56 13.05
7434 17.3110 336.42 300.23 17.44
7435 17.3130 390.25 396.52 18.76
7436 17.3150 378.12 379.71 18.41
7437 17.3170 260.91 276.81 15.08
7438 17.3190 181.51 199.63 12.77
7439 17.3210 164.01 157.11 12.16
7440 17.3230 135.71 133.98 11.07
7441 17.3250 117.24 120.99 10.21
7442 17.3270 102.79 113.61 9.51
7443 17.3290 111.14 109.66 9.96
7444 17.3310 102.16 108.14 9.62
7445 17.3330 119.06 108.67 10.33
7446 17.3350 117.15 111.31 10.21
7447 17.3370 115.44 116.61 10.02
7448 17.3390 125.41 125.84 10.61
7449 17.3410 149.62 141.60 11.63
7450 17.3430 177.99 169.45 12.70
7451 17.3450 212.42 220.25 13.77
7452 17.3470 281.02 309.70 15.74
7453 17.3490 422.60 420.01 19.53
7454 17.3510 455.49 426.36 20.37
7455 17.3530 361.20 317.76 18.03
7456 17.3550 232.16 224.99 14.34
7457 17.3570 186.22 172.58 12.76
7458 17.3590 133.31 144.61 10.91
7459 17.3610 127.27 127.54 10.73
7460 17.3630 98.58 115.14 9.44
7461 17.3650 82.07 106.68 8.58
7462 17.3670 97.10 101.09 9.24
7463 17.3690 84.12 97.31 8.72
7464 17.3710 75.61 94.71 8.28
7465 17.3730 67.04 92.91 7.80
7466 17.3750 75.87 91.70 8.24
7467 17.3770 83.20 90.98 8.58
7468 17.3790 84.82 90.71 8.72
7469 17.3810 86.57 90.86 8.87
7470 17.3830 79.30 91.53 8.48
7471 17.3850 77.81 92.84 8.31
7472 17.3870 90.85 95.12 8.92
7473 17.3890 74.51 98.95 8.18
7474 17.3910 102.66 105.54 9.63
7475 17.3930 99.86 117.35 9.51
7476 17.3950 125.14 139.06 10.58
7477 17.3970 177.49 172.89 12.46
7478 17.3990 196.04 193.43 13.23
7479 17.4010 154.86 170.90 11.83
7480 17.4030 126.92 142.70 10.72
7481 17.4050 129.98 129.35 10.82
7482 17.4070 126.32 129.04 10.55
7483 17.4090 113.55 141.49 10.08
7484 17.4110 166.49 168.24 12.27
7485 17.4130 193.95 192.01 13.26
7486 17.4150 155.08 175.69 11.76
7487 17.4170 131.91 143.63 10.73
7488 17.4190 124.12 123.52 10.48
7489 17.4210 92.05 114.40 9.15
7490 17.4230 117.78 112.72 10.29
7491 17.4250 109.68 117.93 9.97
7492 17.4270 118.21 132.08 10.21
7493 17.4290 158.66 154.57 11.89
7494 17.4310 156.28 164.79 11.91
7495 17.4330 127.43 144.95 10.70
7496 17.4350 99.65 120.95 9.42
7497 17.4370 101.97 105.82 9.42
7498 17.4390 98.97 96.95 9.39
7499 17.4410 93.91 91.90 9.20
7500 17.4430 69.78 88.74 7.97
7501 17.4450 76.92 86.63 8.28
7502 17.4470 80.29 85.15 8.39
7503 17.4490 74.27 84.07 8.12
7504 17.4510 76.13 83.26 8.30
7505 17.4530 76.63 82.63 8.34
7506 17.4550 82.91 82.13 8.62
7507 17.4570 84.46 81.73 8.59
7508 17.4590 65.63 82.48 7.65
7509 17.4610 78.72 82.25 8.44
7510 17.4630 85.35 82.07 8.80
7511 17.4650 79.07 81.92 8.41
7512 17.4670 71.77 81.82 7.97
7513 17.4690 73.70 81.74 8.07
7514 17.4710 74.70 81.64 8.21
7515 17.4730 70.91 81.61 8.00
7516 17.4750 86.77 81.61 8.83
7517 17.4770 82.32 81.32 8.50
7518 17.4790 86.87 81.38 8.78
7519 17.4810 82.84 81.46 8.61
7520 17.4830 73.54 82.80 8.20
7521 17.4850 84.55 83.03 8.69
7522 17.4870 83.75 83.35 8.58
7523 17.4890 84.51 83.85 8.65
7524 17.4910 87.82 84.66 8.88
7525 17.4930 95.84 86.07 9.31
7526 17.4950 99.62 88.31 9.44
7527 17.4970 89.81 89.90 8.89
7528 17.4990 76.26 88.64 8.20
7529 17.5010 83.59 86.80 8.69
7530 17.5030 98.56 85.81 9.42
7531 17.5050 69.19 85.45 7.87
7532 17.5070 90.40 85.45 8.88
7533 17.5090 83.56 85.71 8.63
7534 17.5110 87.96 86.25 8.89
7535 17.5130 75.87 87.15 8.27
7536 17.5150 91.00 88.21 8.99
7537 17.5170 82.42 88.49 8.50
7538 17.5190 87.06 88.10 8.76
7539 17.5210 81.29 87.87 8.55
7540 17.5230 92.50 88.07 9.12
7541 17.5250 68.88 88.51 7.84
7542 17.5270 75.75 89.12 8.18
7543 17.5290 95.13 89.87 9.15
7544 17.5310 67.98 90.79 7.80
7545 17.5330 89.64 91.92 8.99
7546 17.5350 87.30 93.34 8.86
7547 17.5370 85.12 95.12 8.61
7548 17.5390 82.94 97.25 8.58
7549 17.5410 101.74 99.31 9.54
7550 17.5430 112.12 101.70 10.03
7551 17.5450 95.69 105.26 9.28
7552 17.5470 118.02 110.78 10.17
7553 17.5490 110.27 119.55 9.88
7554 17.5510 115.92 132.56 10.18
7555 17.5530 133.19 143.38 10.97
7556 17.5550 143.80 142.45 11.32
7557 17.5570 134.87 139.85 10.85
7558 17.5590 163.32 143.05 12.05
7559 17.5610 176.26 152.47 12.58
7560 17.5630 169.70 168.59 12.35
7561 17.5650 200.82 194.46 13.39
7562 17.5670 204.56 235.63 13.40
7563 17.5690 281.58 305.64 15.81
7564 17.5710 431.44 432.48 19.67
7565 17.5730 658.52 666.89 24.42
7566 17.5750 1020.49 1017.60 30.41
7567 17.5770 1135.50 1165.03 31.67
7568 17.5790 849.16 871.20 27.54
7569 17.5810 565.68 563.62 22.54
7570 17.5830 412.73 389.31 19.35
7571 17.5850 316.40 299.65 16.83
7572 17.5870 275.84 254.23 15.61
7573 17.5890 246.64 233.67 14.81
7574 17.5910 251.07 230.02 15.03
7575 17.5930 255.02 241.59 15.18
7576 17.5950 290.94 271.64 16.17
7577 17.5970 325.23 330.42 16.90
7578 17.5990 488.68 440.89 20.78
7579 17.6010 595.26 647.57 23.21
7580 17.6030 955.11 989.42 29.55
7581 17.6050 1221.79 1260.76 33.36
7582 17.6070 1070.48 1065.31 30.72
7583 17.6090 714.62 711.29 25.32
7584 17.6110 469.52 490.28 20.52
7585 17.6130 364.84 379.71 18.10
7586 17.6150 280.83 312.55 15.93
7587 17.6170 237.44 252.06 14.37
7588 17.6190 210.44 205.57 13.60
7589 17.6210 187.83 174.87 12.95
7590 17.6230 162.88 154.77 12.09
7591 17.6250 137.00 141.08 11.05
7592 17.6270 138.58 131.49 11.05
7593 17.6290 119.44 124.33 10.26
7594 17.6310 137.11 118.90 11.06
7595 17.6330 117.12 114.72 10.28
7596 17.6350 91.86 111.46 9.10
7597 17.6370 113.10 108.91 9.95
7598 17.6390 97.37 106.90 9.31
7599 17.6410 108.78 105.36 9.86
7600 17.6430 106.06 104.25 9.76
7601 17.6450 98.74 103.44 9.41
7602 17.6470 99.74 102.94 9.41
7603 17.6490 103.84 102.76 9.58
7604 17.6510 112.74 102.89 10.09
7605 17.6530 107.75 103.41 9.91
7606 17.6550 96.78 104.33 9.30
7607 17.6570 121.26 105.81 10.31
7608 17.6590 106.24 108.05 9.71
7609 17.6610 134.01 111.44 10.97
7610 17.6630 114.06 116.77 10.10
7611 17.6650 123.25 125.43 10.58
7612 17.6670 154.92 139.72 11.67
7613 17.6690 140.70 161.31 11.10
7614 17.6710 161.57 181.97 12.04
7615 17.6730 172.91 183.12 12.50
7616 17.6750 176.45 174.29 12.54
7617 17.6770 179.78 175.69 12.55
7618 17.6790 178.53 195.40 12.54
7619 17.6810 227.77 241.30 14.25
7620 17.6830 325.41 323.78 17.07
7621 17.6850 401.05 402.56 18.99
7622 17.6870 373.10 369.57 18.08
7623 17.6890 269.38 281.45 15.44
7624 17.6910 225.06 224.64 14.21
7625 17.6930 192.12 199.24 13.11
7626 17.6950 179.53 193.45 12.72
7627 17.6970 196.36 201.26 13.13
7628 17.6990 226.88 225.80 14.12
7629 17.7010 249.70 273.67 14.99
7630 17.7030 365.68 361.85 18.12
7631 17.7050 504.79 515.69 21.35
7632 17.7070 736.11 717.20 25.53
7633 17.7090 809.30 827.28 26.95
7634 17.7110 781.87 799.44 26.49
7635 17.7130 651.13 645.41 24.26
7636 17.7150 392.47 454.97 18.80
7637 17.7170 321.67 329.22 16.79
7638 17.7190 242.36 261.93 14.61
7639 17.7210 219.31 231.59 14.01
7640 17.7230 225.83 227.73 14.21
7641 17.7250 232.48 236.24 14.49
7642 17.7270 214.20 223.35 13.65
7643 17.7290 175.96 195.26 12.48
7644 17.7310 192.22 181.47 13.13
7645 17.7330 199.49 180.52 13.40
7646 17.7350 200.72 182.46 13.41
7647 17.7370 191.21 190.23 12.94
7648 17.7390 190.12 215.49 12.97
7649 17.7410 245.94 268.84 14.78
7650 17.7430 384.51 357.99 18.63
7651 17.7450 473.95 443.11 20.71
7652 17.7470 423.09 426.23 19.26
7653 17.7490 298.01 348.76 16.17
7654 17.7510 266.89 304.76 15.42
7655 17.7530 254.64 289.88 15.10
7656 17.7550 218.69 257.34 13.96
7657 17.7570 200.71 210.40 13.25
7658 17.7590 159.08 175.86 11.85
7659 17.7610 140.45 157.97 11.17
7660 17.7630 168.00 153.70 12.29
7661 17.7650 160.22 159.83 12.06
7662 17.7670 181.94 162.84 12.61
7663 17.7690 149.57 149.13 11.52
7664 17.7710 143.61 134.23 11.30
7665 17.7730 133.16 127.41 10.97
7666 17.7750 124.04 127.09 10.52
7667 17.7770 135.82 126.71 10.90
7668 17.7790 124.75 120.61 10.47
7669 17.7810 140.23 114.58 11.22
7670 17.7830 133.22 111.78 10.92
7671 17.7850 109.75 111.70 9.96
7672 17.7870 130.05 114.00 10.72
7673 17.7890 131.21 119.10 10.75
7674 17.7910 137.28 128.40 11.09
7675 17.7930 145.49 144.73 11.46
7676 17.7950 165.52 171.51 12.16
7677 17.7970 200.02 208.83 13.25
7678 17.7990 231.96 256.36 14.37
7679 17.8010 297.35 307.29 16.27
7680 17.8030 344.05 310.17 17.58
7681 17.8050 242.34 257.06 14.80
7682 17.8070 212.39 209.41 13.68
7683 17.8090 182.60 180.58 12.69
7684 17.8110 148.50 156.82 11.52
7685 17.8130 119.67 136.99 10.39
7686 17.8150 110.98 125.08 9.98
7687 17.8170 115.81 119.89 10.10
7688 17.8190 96.96 117.00 9.26
7689 17.8210 114.29 110.99 10.18
7690 17.8230 97.33 104.16 9.33
7691 17.8250 86.15 99.36 8.86
7692 17.8270 91.92 96.29 8.95
7693 17.8290 78.51 94.29 8.37
7694 17.8310 91.22 92.96 9.04
7695 17.8330 103.25 92.35 9.64
7696 17.8350 73.25 91.92 8.13
7697 17.8370 73.92 91.51 8.12
7698 17.8390 90.45 92.17 8.91
7699 17.8410 95.02 93.45 9.24
7700 17.8430 105.82 97.00 9.73
7701 17.8450 100.82 101.51 9.55
7702 17.8470 93.69 102.99 9.04
7703 17.8490 81.52 98.68 8.52
7704 17.8510 87.02 94.32 8.83
7705 17.8530 74.60 91.61 8.22
7706 17.8550 75.91 90.06 8.30
7707 17.8570 102.07 89.20 9.45
7708 17.8590 88.92 88.70 8.88
7709 17.8610 89.57 88.43 8.94
7710 17.8630 78.21 88.30 8.40
7711 17.8650 88.24 88.29 8.94
7712 17.8670 89.18 88.36 8.84
7713 17.8690 79.19 88.54 8.38
7714 17.8710 83.99 88.83 8.68
7715 17.8730 71.10 89.26 8.02
7716 17.8750 66.58 89.87 7.73
7717 17.8770 78.04 90.80 8.28
7718 17.8790 97.19 92.81 9.25
7719 17.8810 81.54 94.64 8.54
7720 17.8830 90.01 96.89 8.97
7721 17.8850 101.80 97.90 9.60
7722 17.8870 96.82 98.47 9.22
7723 17.8890 103.52 100.33 9.53
7724 17.8910 103.20 104.85 9.64
7725 17.8930 99.34 113.37 9.46
7726 17.8950 141.59 126.38 11.28
7727 17.8970 138.59 133.91 10.98
7728 17.8990 124.26 125.82 10.50
7729 17.9010 123.55 115.54 10.49
7730 17.9030 117.19 110.26 10.26
7731 17.9050 106.95 108.87 9.86
7732 17.9070 110.27 110.14 9.83
7733 17.9090 121.74 113.76 10.34
7734 17.9110 131.35 120.26 10.85
7735 17.9130 138.84 131.26 11.14
7736 17.9150 168.63 150.38 12.27
7737 17.9170 189.47 184.85 12.88
7738 17.9190 243.60 244.47 14.65
7739 17.9210 316.59 311.79 16.79
7740 17.9230 333.51 316.79 17.25
7741 17.9250 277.23 279.08 15.82
7742 17.9270 233.34 235.69 14.36
7743 17.9290 195.13 194.25 13.18
7744 17.9310 188.69 170.81 12.92
7745 17.9330 165.83 164.67 12.21
7746 17.9350 191.08 172.93 13.11
7747 17.9370 179.61 192.28 12.52
7748 17.9390 191.89 205.24 13.02
7749 17.9410 208.95 193.57 13.73
7750 17.9430 174.19 176.79 12.51
7751 17.9450 155.13 170.92 11.80
7752 17.9470 175.24 178.08 12.46
7753 17.9490 182.05 200.75 12.73
7754 17.9510 218.97 247.06 13.99
7755 17.9530 336.91 325.96 17.40
7756 17.9550 407.70 401.22 19.25
7757 17.9570 378.85 386.10 18.25
7758 17.9590 320.99 340.21 16.79
7759 17.9610 338.27 343.02 17.49
7760 17.9630 420.18 409.34 19.45
7761 17.9650 525.20 531.36 21.77
7762 17.9670 652.23 660.57 24.06
7763 17.9690 810.03 787.58 26.90
7764 17.9710 792.65 780.66 26.81
7765 17.9730 502.66 576.60 21.25
7766 17.9750 369.59 393.17 18.25
7767 17.9770 268.67 286.08 15.41
7768 17.9790 233.36 226.53 14.38
7769 17.9810 205.59 192.33 13.59
7770 17.9830 158.79 172.16 11.93
7771 17.9850 175.83 160.46 12.61
7772 17.9870 133.46 154.62 10.85
7773 17.9890 149.34 153.53 11.50
7774 17.9910 169.51 157.17 12.32
7775 17.9930 179.79 166.62 12.73
7776 17.9950 213.00 184.53 13.82
7777 17.9970 249.80 216.65 14.86
7778 17.9990 301.09 274.88 16.41
7779 18.0010 354.49 380.66 17.86
7780 18.0030 525.73 551.90 21.74
7781 18.0050 672.87 693.97 24.87
7782 18.0070 632.09 609.64 23.66
7783 18.0090 422.78 423.69 19.39
7784 18.0110 251.08 294.50 15.05
7785 18.0130 213.36 221.26 13.86
7786 18.0150 138.98 179.40 11.20
7787 18.0170 136.58 153.95 10.95
7788 18.0190 114.19 137.55 10.10
7789 18.0210 129.00 126.41 10.74
7790 18.0230 112.69 118.46 10.03
7791 18.0250 96.62 112.66 9.35
7792 18.0270 103.83 108.27 9.56
7793 18.0290 116.30 104.86 10.17
7794 18.0310 103.78 103.33 9.64
7795 18.0330 99.98 101.20 9.51
7796 18.0350 72.75 99.47 8.09
7797 18.0370 88.50 98.05 8.83
7798 18.0390 99.23 96.87 9.40
7799 18.0410 90.46 95.90 9.01
7800 18.0430 86.80 95.09 8.83
7801 18.0450 87.23 94.26 8.87
7802 18.0470 88.62 93.74 8.82
7803 18.0490 83.86 93.35 8.63
7804 18.0510 98.34 93.11 9.44
7805 18.0530 93.49 93.06 9.20
7806 18.0550 91.75 93.22 9.09
7807 18.0570 86.53 93.94 8.71
7808 18.0590 85.86 95.54 8.72
7809 18.0610 80.95 98.15 8.52
7810 18.0630 103.08 99.58 9.57
7811 18.0650 69.45 97.68 7.93
7812 18.0670 93.93 95.06 9.09
7813 18.0690 93.81 93.57 9.13
7814 18.0710 80.71 92.97 8.49
7815 18.0730 71.15 93.02 8.01
7816 18.0750 103.07 93.75 9.65
7817 18.0770 87.72 95.37 8.80
7818 18.0790 116.12 97.89 10.12
7819 18.0810 87.54 99.23 8.87
7820 18.0830 89.97 96.94 8.96
7821 18.0850 84.56 94.96 8.75
7822 18.0870 81.24 93.92 8.45
7823 18.0890 68.79 93.45 7.81
7824 18.0910 75.74 93.30 8.25
7825 18.0930 108.45 93.15 9.82
7826 18.0950 76.76 93.32 8.34
7827 18.0970 96.23 93.02 9.21
7828 18.0990 87.54 93.38 8.82
7829 18.1010 81.74 93.81 8.51
7830 18.1030 86.04 94.33 8.79
7831 18.1050 92.65 94.93 9.14
7832 18.1070 89.71 95.63 8.86
7833 18.1090 94.47 96.45 9.13
7834 18.1110 101.27 97.42 9.51
7835 18.1130 111.51 98.57 9.95
7836 18.1150 104.17 99.97 9.68
7837 18.1170 103.75 101.70 9.53
7838 18.1190 110.30 103.91 9.87
7839 18.1210 107.39 106.84 9.74
7840 18.1230 119.21 110.93 10.30
7841 18.1250 134.74 117.03 11.01
7842 18.1270 128.41 127.15 10.64
7843 18.1290 144.30 143.03 11.26
7844 18.1310 178.30 165.80 12.56
7845 18.1330 196.39 182.25 13.23
7846 18.1350 159.25 173.28 11.93
7847 18.1370 173.36 156.10 12.35
7848 18.1390 135.46 145.88 10.95
7849 18.1410 145.83 143.05 11.35
7850 18.1430 189.11 145.29 12.93
7851 18.1450 141.84 151.59 11.33
7852 18.1470 158.14 161.98 11.74
7853 18.1490 174.01 177.49 12.36
7854 18.1510 207.04 200.32 13.58
7855 18.1530 255.13 234.64 15.13
7856 18.1550 271.31 288.86 15.55
7857 18.1570 351.94 378.82 17.56
7858 18.1590 485.88 534.72 20.72
7859 18.1610 783.36 798.74 26.53
7860 18.1630 1352.65 1147.15 34.88
7861 18.1650 1296.83 1279.89 34.33
7862 18.1670 975.17 1008.72 29.55
7863 18.1690 607.36 682.49 23.23
7864 18.1710 438.57 473.61 19.72
7865 18.1730 390.21 356.44 18.66
7866 18.1750 303.58 292.68 16.55
7867 18.1770 309.08 260.19 16.47
7868 18.1790 299.89 249.87 16.32
7869 18.1810 300.19 261.47 16.39
7870 18.1830 312.39 301.87 16.70
7871 18.1850 422.29 370.63 19.55
7872 18.1870 427.40 412.42 19.38
7873 18.1890 413.30 377.35 19.19
7874 18.1910 362.27 314.16 17.95
7875 18.1930 321.14 270.99 16.96
7876 18.1950 298.92 259.19 16.43
7877 18.1970 331.20 277.50 17.10
7878 18.1990 371.49 317.13 18.11
7879 18.2010 421.09 333.14 19.45
7880 18.2030 384.74 313.69 18.54
7881 18.2050 364.26 311.25 18.07
7882 18.2070 420.90 345.55 19.28
7883 18.2090 522.56 427.54 21.58
7884 18.2110 586.99 583.86 22.93
7885 18.2130 803.28 852.64 26.88
7886 18.2150 1205.15 1197.86 33.21
7887 18.2170 1397.26 1313.32 35.51
7888 18.2190 1103.18 1035.32 31.31
7889 18.2210 738.39 710.03 25.77
7890 18.2230 534.25 504.69 21.92
7891 18.2250 412.11 393.02 19.29
7892 18.2270 305.64 321.82 16.42
7893 18.2290 278.20 263.61 15.71
7894 18.2310 203.78 222.22 13.55
7895 18.2330 192.69 195.71 13.10
7896 18.2350 203.24 178.99 13.53
7897 18.2370 165.15 168.81 12.07
7898 18.2390 183.53 163.50 12.80
7899 18.2410 176.60 162.53 12.54
7900 18.2430 188.52 166.29 13.05
7901 18.2450 216.13 176.41 13.99
7902 18.2470 227.80 196.56 14.20
7903 18.2490 216.51 234.46 13.83
7904 18.2510 288.58 303.90 16.16
7905 18.2530 451.99 415.56 20.12
7906 18.2550 518.59 508.63 21.65
7907 18.2570 446.27 460.35 19.91
7908 18.2590 326.39 349.95 17.02
7909 18.2610 273.76 280.60 15.66
7910 18.2630 283.39 246.78 15.93
7911 18.2650 253.96 221.28 15.17
7912 18.2670 253.90 204.55 14.97
7913 18.2690 219.62 190.57 13.93
7914 18.2710 202.48 172.48 13.44
7915 18.2730 184.56 160.15 12.91
7916 18.2750 199.15 158.49 13.38
7917 18.2770 216.44 169.11 13.78
7918 18.2790 223.03 193.71 14.12
7919 18.2810 257.37 217.84 15.14
7920 18.2830 249.19 212.46 14.94
7921 18.2850 190.38 197.24 13.09
7922 18.2870 201.36 185.21 13.33
7923 18.2890 207.69 172.01 13.57
7924 18.2910 183.71 164.08 12.74
7925 18.2930 169.60 151.91 12.36
7926 18.2950 135.32 134.71 11.07
7927 18.2970 137.17 121.50 10.92
7928 18.2990 136.06 113.24 10.99
7929 18.3010 140.00 107.04 11.18
7930 18.3030 125.01 103.88 10.58
7931 18.3050 123.47 101.96 10.56
7932 18.3070 122.54 100.99 10.38
7933 18.3090 130.43 100.53 10.74
7934 18.3110 134.43 99.50 10.96
7935 18.3130 125.12 98.43 10.59
7936 18.3150 125.48 98.00 10.60
7937 18.3170 129.57 98.49 10.66
7938 18.3190 122.99 100.08 10.41
7939 18.3210 137.82 102.47 11.02
7940 18.3230 148.52 103.82 11.51
7941 18.3250 155.75 101.89 11.84
7942 18.3270 133.14 99.87 10.83
7943 18.3290 145.30 98.99 11.33
7944 18.3310 156.68 99.45 11.85
7945 18.3330 153.74 101.25 11.72
7946 18.3350 186.43 104.90 12.98
7947 18.3370 172.06 111.67 12.29
7948 18.3390 207.15 123.64 13.54
7949 18.3410 185.24 141.81 12.81
7950 18.3430 207.43 156.46 13.64
7951 18.3450 215.68 149.01 13.95
7952 18.3470 188.34 129.57 12.85
7953 18.3490 163.52 114.97 12.02
7954 18.3510 155.77 106.05 11.77
7955 18.3530 137.36 100.87 11.08
7956 18.3550 117.88 96.63 10.27
7957 18.3570 149.43 94.65 11.44
7958 18.3590 142.09 93.38 11.18
7959 18.3610 144.24 92.53 11.30
7960 18.3630 125.83 91.97 10.63
7961 18.3650 134.11 91.61 11.00
7962 18.3670 124.80 91.42 10.47
7963 18.3690 140.50 91.36 11.15
7964 18.3710 148.39 91.44 11.43
7965 18.3730 123.86 91.67 10.57
7966 18.3750 137.28 92.09 11.04
7967 18.3770 128.80 92.77 10.62
7968 18.3790 116.85 93.87 10.12
7969 18.3810 118.56 95.68 10.19
7970 18.3830 102.81 98.78 9.59
7971 18.3850 139.26 103.99 11.19
7972 18.3870 141.10 109.89 11.11
7973 18.3890 135.10 112.80 10.87
7974 18.3910 124.66 113.09 10.48
7975 18.3930 139.85 118.60 11.19
7976 18.3950 156.37 132.03 11.85
7977 18.3970 175.29 142.99 12.35
7978 18.3990 161.84 134.46 11.98
7979 18.4010 113.86 118.68 10.05
7980 18.4030 126.30 108.39 10.65
7981 18.4050 109.60 102.84 9.86
7982 18.4070 118.91 99.94 10.22
7983 18.4090 106.49 98.33 9.63
7984 18.4110 109.76 97.63 9.82
7985 18.4130 121.74 97.40 10.46
7986 18.4150 95.87 97.59 9.22
7987 18.4170 102.27 98.10 9.42
7988 18.4190 108.70 98.93 9.72
7989 18.4210 112.06 100.09 9.99
7990 18.4230 119.12 101.66 10.29
7991 18.4250 114.21 103.75 10.07
7992 18.4270 118.91 106.53 10.17
7993 18.4290 113.49 110.28 9.99
7994 18.4310 139.55 115.54 11.05
7995 18.4330 116.48 123.14 10.25
7996 18.4350 121.37 134.63 10.35
7997 18.4370 135.45 153.07 10.87
7998 18.4390 153.05 184.59 11.53
7999 18.4410 234.65 241.50 14.39
8000 18.4430 315.43 339.69 16.79
8001 18.4450 445.69 449.42 19.90
8002 18.4470 380.69 435.47 18.25
8003 18.4490 314.72 320.95 16.62
8004 18.4510 212.45 232.74 13.68
8005 18.4530 179.27 184.03 12.70
8006 18.4550 151.96 158.08 11.61
8007 18.4570 134.28 144.22 10.82
8008 18.4590 144.65 137.30 11.25
8009 18.4610 132.07 135.02 10.87
8010 18.4630 137.50 136.65 11.12
8011 18.4650 149.82 142.60 11.54
8012 18.4670 168.93 154.52 12.19
8013 18.4690 200.43 176.32 13.25
8014 18.4710 207.55 216.07 13.60
8015 18.4730 269.27 286.63 15.55
8016 18.4750 385.60 384.53 18.58
8017 18.4770 436.75 420.14 19.57
8018 18.4790 330.75 338.92 17.05
8019 18.4810 224.35 249.40 14.11
8020 18.4830 171.60 194.99 12.45
8021 18.4850 154.47 165.02 11.75
8022 18.4870 137.54 148.31 10.98
8023 18.4890 142.70 138.85 11.25
8024 18.4910 112.97 133.76 10.01
8025 18.4930 131.65 131.56 10.87
8026 18.4950 120.46 131.55 10.38
8027 18.4970 107.66 133.48 9.76
8028 18.4990 139.24 137.38 11.05
8029 18.5010 132.92 143.61 10.92
8030 18.5030 139.94 152.88 11.18
8031 18.5050 176.11 166.46 12.50
8032 18.5070 173.32 186.66 12.31
8033 18.5090 200.21 217.69 13.34
8034 18.5110 252.04 267.57 15.02
8035 18.5130 343.96 351.96 17.49
8036 18.5150 515.11 497.44 21.53
8037 18.5170 682.51 714.85 24.52
8038 18.5190 877.97 876.13 28.23
8039 18.5210 806.97 843.11 26.93
8040 18.5230 746.95 813.03 25.95
8041 18.5250 797.58 847.12 26.72
8042 18.5270 795.36 745.39 26.50
8043 18.5290 516.51 534.46 21.55
8044 18.5310 341.97 374.11 17.57
8045 18.5330 247.39 278.87 14.92
8046 18.5350 218.28 222.57 13.97
8047 18.5370 178.93 187.62 12.55
8048 18.5390 162.73 164.72 12.07
8049 18.5410 144.68 148.91 11.43
8050 18.5430 130.29 137.57 10.81
8051 18.5450 130.58 129.16 10.85
8052 18.5470 132.14 122.76 10.76
8053 18.5490 127.90 117.79 10.77
8054 18.5510 127.73 113.85 10.80
8055 18.5530 107.81 110.69 9.88
8056 18.5550 96.95 108.13 9.37
8057 18.5570 108.99 106.03 9.78
8058 18.5590 104.65 104.32 9.71
8059 18.5610 95.11 102.93 9.30
8060 18.5630 104.10 101.83 9.73
8061 18.5650 98.77 101.01 9.44
8062 18.5670 98.51 100.50 9.32
8063 18.5690 97.39 100.36 9.37
8064 18.5710 109.62 100.44 9.97
8065 18.5730 99.15 101.87 9.46
8066 18.5750 103.51 105.02 9.67
8067 18.5770 118.66 110.15 10.25
8068 18.5790 125.38 113.03 10.56
8069 18.5810 120.68 109.00 10.49
8070 18.5830 98.47 103.38 9.49
8071 18.5850 103.68 99.88 9.68
8072 18.5870 109.97 97.97 9.86
8073 18.5890 95.01 96.98 9.25
8074 18.5910 92.42 96.54 9.11
8075 18.5930 100.49 96.52 9.54
8076 18.5950 108.02 97.45 9.91
8077 18.5970 79.79 98.35 8.41
8078 18.5990 92.48 100.02 9.09
8079 18.6010 92.32 102.98 9.18
8080 18.6030 115.82 108.35 10.23
8081 18.6050 127.81 117.85 10.81
8082 18.6070 128.82 130.65 10.63
8083 18.6090 141.94 135.40 11.28
8084 18.6110 118.78 124.57 10.31
8085 18.6130 110.19 112.64 10.01
8086 18.6150 102.73 105.46 9.63
8087 18.6170 105.13 101.62 9.62
8088 18.6190 92.76 99.67 9.07
8089 18.6210 113.63 98.92 10.10
8090 18.6230 111.85 99.17 10.00
8091 18.6250 101.60 100.55 9.56
8092 18.6270 122.38 103.82 10.41
8093 18.6290 102.26 105.80 9.51
8094 18.6310 108.92 106.98 9.89
8095 18.6330 111.58 109.14 10.04
8096 18.6350 108.77 109.26 9.94
8097 18.6370 105.23 105.93 9.58
8098 18.6390 92.66 103.10 9.05
8099 18.6410 105.41 101.83 9.69
8100 18.6430 92.30 101.90 9.14
8101 18.6450 93.77 102.47 9.20
8102 18.6470 107.18 103.65 9.71
8103 18.6490 121.67 105.47 10.35
8104 18.6510 124.17 107.47 10.57
8105 18.6530 130.46 111.16 10.88
8106 18.6550 121.23 116.48 10.44
8107 18.6570 120.93 124.40 10.26
8108 18.6590 140.09 136.24 11.10
8109 18.6610 143.63 156.73 11.35
8110 18.6630 177.99 191.95 12.56
8111 18.6650 264.12 250.87 15.47
8112 18.6670 378.37 325.37 18.23
8113 18.6690 336.81 347.75 17.25
8114 18.6710 271.16 286.19 15.61
8115 18.6730 205.93 217.11 13.58
8116 18.6750 158.55 173.18 11.94
8117 18.6770 126.65 148.61 10.50
8118 18.6790 137.46 134.21 11.02
8119 18.6810 131.91 125.71 10.84
8120 18.6830 119.28 120.58 10.33
8121 18.6850 131.93 117.56 10.89
8122 18.6870 118.26 115.96 10.23
8123 18.6890 113.05 115.41 9.99
8124 18.6910 118.27 115.74 10.29
8125 18.6930 121.04 116.88 10.40
8126 18.6950 127.25 118.86 10.72
8127 18.6970 139.18 121.73 11.03
8128 18.6990 130.20 125.72 10.70
8129 18.7010 146.92 131.17 11.42
8130 18.7030 149.43 138.63 11.56
8131 18.7050 152.26 149.02 11.72
8132 18.7070 184.89 163.91 12.67
8133 18.7090 188.77 186.04 12.96
8134 18.7110 240.63 220.71 14.63
8135 18.7130 290.29 277.55 16.18
8136 18.7150 392.61 372.80 18.73
8137 18.7170 496.78 521.10 20.88
8138 18.7190 687.45 693.49 24.60
8139 18.7210 845.73 824.77 27.56
8140 18.7230 910.66 823.19 28.65
8141 18.7250 646.82 629.16 24.26
8142 18.7270 421.50 434.17 19.14
8143 18.7290 286.03 315.78 15.86
8144 18.7310 234.18 249.99 14.47
8145 18.7330 185.24 213.03 12.88
8146 18.7350 177.10 192.11 12.61
8147 18.7370 163.69 181.09 11.97
8148 18.7390 170.11 177.17 12.23
8149 18.7410 164.51 179.66 12.10
8150 18.7430 180.13 189.41 12.71
8151 18.7450 207.58 209.61 13.68
8152 18.7470 218.32 247.23 13.83
8153 18.7490 299.59 314.53 16.19
8154 18.7510 393.72 413.34 18.80
8155 18.7530 484.58 477.68 20.88
8156 18.7550 475.07 464.94 20.68
8157 18.7570 442.78 482.10 19.77
8158 18.7590 614.81 584.59 23.31
8159 18.7610 760.26 717.85 26.23
8160 18.7630 744.50 705.48 25.84
8161 18.7650 504.93 555.48 21.41
8162 18.7670 434.59 438.27 19.54
8163 18.7690 346.89 399.33 17.51
8164 18.7710 399.78 420.36 18.97
8165 18.7730 463.71 426.04 20.48
8166 18.7750 350.67 351.84 17.71
8167 18.7770 272.87 267.69 15.51
8168 18.7790 233.93 213.41 14.36
8169 18.7810 195.10 181.47 13.28
8170 18.7830 158.37 162.13 11.93
8171 18.7850 160.59 150.04 12.00
8172 18.7870 154.54 142.24 11.68
8173 18.7890 149.86 137.34 11.48
8174 18.7910 152.26 134.57 11.68
8175 18.7930 150.67 133.57 11.56
8176 18.7950 135.98 134.25 11.08
8177 18.7970 133.32 136.73 10.74
8178 18.7990 158.16 141.41 11.82
8179 18.8010 160.66 149.09 11.97
8180 18.8030 183.85 161.25 12.91
8181 18.8050 175.28 180.64 12.55
8182 18.8070 195.54 212.34 13.08
8183 18.8090 240.31 268.84 14.61
8184 18.8110 356.92 362.66 17.88
8185 18.8130 471.65 505.91 20.56
8186 18.8150 661.16 635.27 24.41
8187 18.8170 671.28 599.46 24.36
8188 18.8190 494.52 448.60 20.84
8189 18.8210 322.38 324.48 16.95
8190 18.8230 255.43 250.31 15.14
8191 18.8250 209.80 210.53 13.74
8192 18.8270 189.40 192.33 12.86
8193 18.8290 172.07 186.27 12.28
8194 18.8310 164.03 178.15 12.07
8195 18.8330 156.57 161.93 11.86
8196 18.8350 158.23 147.75 11.95
8197 18.8370 136.32 139.61 10.92
8198 18.8390 155.91 136.79 11.74
8199 18.8410 144.89 139.07 11.36
8200 18.8430 146.78 147.53 11.53
8201 18.8450 138.88 161.70 11.19
8202 18.8470 164.70 174.71 12.04
8203 18.8490 159.35 185.23 11.91
8204 18.8510 207.53 202.89 13.62
8205 18.8530 213.86 202.78 13.81
8206 18.8550 173.64 174.97 12.48
8207 18.8570 160.32 148.70 11.87
8208 18.8590 131.41 132.70 10.75
8209 18.8610 124.33 123.93 10.51
8210 18.8630 116.03 119.81 10.20
8211 18.8650 118.94 117.21 10.36
8212 18.8670 117.74 116.14 10.14
8213 18.8690 113.29 116.68 9.99
8214 18.8710 117.02 118.36 10.18
8215 18.8730 113.30 121.81 10.07
8216 18.8750 142.53 126.68 11.30
8217 18.8770 159.52 130.33 11.83
8218 18.8790 150.30 132.34 11.54
8219 18.8810 154.17 137.10 11.68
8220 18.8830 144.34 148.10 11.36
8221 18.8850 169.03 162.20 12.35
8222 18.8870 195.85 168.68 13.11
8223 18.8890 197.02 172.16 13.18
8224 18.8910 211.93 183.27 13.78
8225 18.8930 223.11 189.50 14.11
8226 18.8950 214.21 176.36 13.85
8227 18.8970 204.80 159.52 13.42
8228 18.8990 167.30 149.93 12.14
8229 18.9010 169.99 146.50 12.27
8230 18.9030 183.33 148.48 12.77
8231 18.9050 169.29 153.59 12.30
8232 18.9070 184.44 161.21 12.75
8233 18.9090 197.49 173.62 13.21
8234 18.9110 198.09 194.93 13.28
8235 18.9130 249.63 225.48 14.94
8236 18.9150 256.59 247.97 15.17
8237 18.9170 257.99 248.77 15.03
8238 18.9190 277.74 251.25 15.63
8239 18.9210 288.57 270.23 16.07
8240 18.9230 335.14 310.89 17.24
8241 18.9250 356.12 382.33 17.92
8242 18.9270 474.50 506.31 20.44
8243 18.9290 684.47 727.82 24.73
8244 18.9310 1062.89 1120.88 31.06
8245 18.9330 1660.56 1687.15 38.98
8246 18.9350 2000.09 1953.23 42.89
8247 18.9370 1517.87 1515.42 36.81
8248 18.9390 969.93 983.64 29.44
8249 18.9410 614.84 655.48 23.47
8250 18.9430 438.86 476.12 19.86
8251 18.9450 355.22 377.07 17.90
8252 18.9470 324.54 320.64 16.88
8253 18.9490 270.23 291.16 15.41
8254 18.9510 303.82 283.06 16.55
8255 18.9530 299.85 290.83 16.43
8256 18.9550 348.81 294.91 17.63
8257 18.9570 321.63 281.69 16.81
8258 18.9590 323.18 273.53 16.86
8259 18.9610 275.61 283.46 15.71
8260 18.9630 334.94 315.78 17.36
8261 18.9650 367.89 380.42 18.28
8262 18.9670 458.45 499.57 20.12
8263 18.9690 694.05 714.54 24.87
8264 18.9710 1086.62 1045.91 31.31
8265 18.9730 1294.29 1282.65 34.48
8266 18.9750 1106.62 1101.23 31.72
8267 18.9770 782.89 770.79 26.32
8268 18.9790 572.21 551.26 22.38
8269 18.9810 479.51 438.66 20.80
8270 18.9830 423.38 393.28 19.48
8271 18.9850 405.88 397.22 19.12
8272 18.9870 480.06 452.42 20.54
8273 18.9890 586.54 580.52 22.75
8274 18.9910 730.46 797.43 25.60
8275 18.9930 969.07 984.91 29.75
8276 18.9950 963.06 930.48 29.65
8277 18.9970 791.01 798.44 26.44
8278 18.9990 689.54 709.48 24.80
8279 19.0010 576.44 565.22 22.62
8280 19.0030 375.47 410.96 18.46
8281 19.0050 326.35 307.72 17.16
8282 19.0070 207.77 245.51 13.54
8283 19.0090 183.55 206.96 12.73
8284 19.0110 165.69 181.73 12.22
8285 19.0130 142.70 164.26 11.31
8286 19.0150 158.19 151.65 11.95
8287 19.0170 142.56 142.21 11.21
8288 19.0190 109.45 134.90 9.81
8289 19.0210 127.87 129.17 10.66
8290 19.0230 114.10 124.56 10.16
8291 19.0250 126.23 120.79 10.66
8292 19.0270 133.89 117.67 10.86
8293 19.0290 113.60 115.07 9.96
8294 19.0310 125.13 112.80 10.57
8295 19.0330 89.65 110.92 9.01
8296 19.0350 115.58 109.31 10.19
8297 19.0370 116.02 107.92 10.10
8298 19.0390 121.06 106.72 10.34
8299 19.0410 117.80 105.69 10.23
8300 19.0430 126.01 104.80 10.61
8301 19.0450 110.22 104.03 9.98
8302 19.0470 106.42 103.31 9.71
8303 19.0490 108.42 102.77 9.75
8304 19.0510 123.45 102.32 10.49
8305 19.0530 109.77 101.96 9.94
8306 19.0550 106.80 101.69 9.80
8307 19.0570 103.40 101.62 9.48
8308 19.0590 116.90 101.55 10.16
8309 19.0610 121.65 101.58 10.38
8310 19.0630 130.82 99.97 10.87
8311 19.0650 128.92 100.28 10.73
8312 19.0670 115.04 100.76 10.05
8313 19.0690 136.18 101.42 10.93
8314 19.0710 144.99 102.32 11.35
8315 19.0730 169.43 103.63 12.31
8316 19.0750 145.92 105.24 11.43
8317 19.0770 149.80 107.42 11.46
8318 19.0790 158.96 110.40 11.78
8319 19.0810 151.69 114.60 11.67
8320 19.0830 178.76 120.72 12.66
8321 19.0850 160.78 130.15 12.00
8322 19.0870 195.69 145.07 13.03
8323 19.0890 206.51 170.37 13.46
8324 19.0910 238.19 214.41 14.52
8325 19.0930 307.17 283.49 16.68
8326 19.0950 379.48 340.59 18.42
8327 19.0970 319.13 311.70 16.73
8328 19.0990 267.11 243.18 15.32
8329 19.1010 224.18 196.57 14.12
8330 19.1030 204.67 174.41 13.55
8331 19.1050 222.48 168.09 14.12
8332 19.1070 197.95 176.68 13.11
8333 19.1090 212.53 201.94 13.59
8334 19.1110 280.62 248.89 15.85
8335 19.1130 338.41 316.65 17.46
8336 19.1150 392.55 364.24 18.68
8337 19.1170 346.45 325.15 17.36
8338 19.1190 286.17 251.57 15.83
8339 19.1210 202.80 194.83 13.33
8340 19.1230 169.94 159.30 12.39
8341 19.1250 135.12 138.26 10.97
8342 19.1270 128.74 124.73 10.64
8343 19.1290 115.70 116.53 10.05
8344 19.1310 127.89 110.70 10.67
8345 19.1330 120.10 106.86 10.45
8346 19.1350 92.35 104.10 9.07
8347 19.1370 105.96 102.13 9.56
8348 19.1390 85.53 100.74 8.68
8349 19.1410 119.26 99.87 10.25
8350 19.1430 105.48 99.65 9.77
8351 19.1450 107.45 98.86 9.79
8352 19.1470 106.33 98.22 9.69
8353 19.1490 110.36 97.93 9.84
8354 19.1510 109.01 98.03 9.79
8355 19.1530 97.79 98.61 9.40
8356 19.1550 107.57 99.94 9.78
8357 19.1570 107.30 102.39 9.66
8358 19.1590 119.32 105.53 10.21
8359 19.1610 111.17 106.35 9.92
8360 19.1630 101.97 104.71 9.58
8361 19.1650 96.77 102.88 9.30
8362 19.1670 108.32 102.40 9.74
8363 19.1690 107.10 103.07 9.72
8364 19.1710 119.73 104.85 10.28
8365 19.1730 108.18 108.39 9.89
8366 19.1750 111.34 113.41 9.95
8367 19.1770 128.88 121.90 10.56
8368 19.1790 130.13 136.82 10.69
8369 19.1810 172.92 162.56 12.36
8370 19.1830 195.29 196.39 13.20
8371 19.1850 208.16 206.04 13.60
8372 19.1870 198.18 179.29 13.13
8373 19.1890 149.25 154.05 11.50
8374 19.1910 139.66 141.67 11.16
8375 19.1930 136.94 140.11 11.10
8376 19.1950 154.13 148.46 11.62
8377 19.1970 180.58 169.30 12.55
8378 19.1990 177.64 202.45 12.44
8379 19.2010 210.51 221.91 13.69
8380 19.2030 191.50 202.49 13.16
8381 19.2050 192.20 179.70 13.04
8382 19.2070 184.52 176.17 12.67
8383 19.2090 181.04 194.36 12.62
8384 19.2110 234.22 227.08 14.50
8385 19.2130 238.00 233.49 14.60
8386 19.2150 207.80 196.14 13.56
8387 19.2170 177.88 159.02 12.41
8388 19.2190 151.45 136.54 11.58
8389 19.2210 128.72 123.79 10.71
8390 19.2230 124.02 116.34 10.56
8391 19.2250 117.99 111.76 10.23
8392 19.2270 109.29 108.85 9.77
8393 19.2290 110.31 106.75 9.89
8394 19.2310 115.41 105.56 10.24
8395 19.2330 111.91 104.86 10.01
8396 19.2350 106.24 104.54 9.70
8397 19.2370 101.98 104.52 9.43
8398 19.2390 118.79 104.78 10.26
8399 19.2410 108.80 105.29 9.93
8400 19.2430 109.84 106.10 9.95
8401 19.2450 105.02 107.28 9.68
8402 19.2470 96.04 108.92 9.17
8403 19.2490 92.61 110.93 9.09
8404 19.2510 116.57 113.51 10.31
8405 19.2530 115.59 115.74 10.19
8406 19.2550 123.11 118.39 10.43
8407 19.2570 120.80 122.56 10.33
8408 19.2590 121.60 128.24 10.41
8409 19.2610 137.63 133.63 11.18
8410 19.2630 154.84 138.27 11.83
8411 19.2650 134.21 145.12 10.94
8412 19.2670 147.09 156.09 11.36
8413 19.2690 175.09 172.88 12.43
8414 19.2710 203.59 198.91 13.61
8415 19.2730 225.42 241.00 14.28
8416 19.2750 317.24 311.57 16.78
8417 19.2770 435.80 427.13 19.56
8418 19.2790 654.66 571.33 24.21
8419 19.2810 600.16 620.21 23.28
8420 19.2830 456.86 521.17 20.39
8421 19.2850 387.18 417.21 18.60
8422 19.2870 384.17 372.17 18.40
8423 19.2890 396.46 386.09 18.76
8424 19.2910 444.34 463.15 20.09
8425 19.2930 632.81 607.94 23.98
8426 19.2950 744.15 734.51 25.80
8427 19.2970 663.73 681.45 24.17
8428 19.2990 518.55 554.43 21.54
8429 19.3010 479.66 491.12 20.89
8430 19.3030 493.92 493.25 21.16
8431 19.3050 598.08 560.63 23.13
8432 19.3070 697.64 678.86 24.83
8433 19.3090 697.01 701.86 24.92
8434 19.3110 561.08 563.25 22.60
8435 19.3130 413.68 419.49 19.39
8436 19.3150 328.48 333.83 17.10
8437 19.3170 301.58 292.09 16.30
8438 19.3190 293.46 275.84 16.13
8439 19.3210 310.54 282.13 16.81
8440 19.3230 339.57 318.85 17.52
8441 19.3250 376.13 399.58 18.30
8442 19.3270 520.42 529.07 21.31
8443 19.3290 654.47 636.46 24.25
8444 19.3310 598.52 583.40 23.34
8445 19.3330 475.93 435.65 20.67
8446 19.3350 293.52 318.76 16.17
8447 19.3370 277.65 248.13 15.58
8448 19.3390 193.24 205.44 13.14
8449 19.3410 189.84 176.56 13.06
8450 19.3430 142.33 156.89 11.32
8451 19.3450 136.25 143.23 11.05
8452 19.3470 128.79 133.61 10.64
8453 19.3490 116.47 126.60 10.19
8454 19.3510 119.34 121.37 10.45
8455 19.3530 114.10 117.40 10.15
8456 19.3550 103.81 114.44 9.60
8457 19.3570 107.37 112.37 9.74
8458 19.3590 108.77 111.17 9.84
8459 19.3610 100.92 110.54 9.61
8460 19.3630 93.40 109.28 9.17
8461 19.3650 110.57 106.91 9.97
8462 19.3670 104.03 104.61 9.54
8463 19.3690 101.48 102.89 9.51
8464 19.3710 103.02 101.60 9.68
8465 19.3730 88.96 100.61 8.93
8466 19.3750 112.65 99.81 10.00
8467 19.3770 111.50 99.16 9.95
8468 19.3790 103.36 98.62 9.60
8469 19.3810 93.45 98.16 9.21
8470 19.3830 89.82 97.78 9.03
8471 19.3850 96.43 97.47 9.33
8472 19.3870 104.38 97.21 9.58
8473 19.3890 83.86 97.02 8.67
8474 19.3910 98.36 96.87 9.53
8475 19.3930 98.59 96.78 9.41
8476 19.3950 90.21 96.75 9.00
8477 19.3970 99.61 96.77 9.35
8478 19.3990 83.10 96.87 8.63
8479 19.4010 104.20 97.03 9.74
8480 19.4030 101.78 97.29 9.59
8481 19.4050 103.48 97.67 9.62
8482 19.4070 99.15 98.19 9.33
8483 19.4090 110.02 98.93 9.91
8484 19.4110 98.53 99.98 9.49
8485 19.4130 111.08 101.54 9.99
8486 19.4150 107.27 103.96 9.76
8487 19.4170 109.69 107.91 9.83
8488 19.4190 115.01 114.00 10.10
8489 19.4210 124.02 123.79 10.59
8490 19.4230 118.49 128.98 10.36
8491 19.4250 140.55 124.52 11.24
8492 19.4270 130.42 118.60 10.68
8493 19.4290 120.85 116.35 10.38
8494 19.4310 121.78 117.24 10.59
8495 19.4330 128.38 121.50 10.73
8496 19.4350 145.14 125.29 11.41
8497 19.4370 115.79 125.36 10.09
8498 19.4390 131.75 125.24 10.82
8499 19.4410 125.04 128.01 10.59
8500 19.4430 128.66 134.29 10.77
8501 19.4450 164.96 144.40 12.16
8502 19.4470 177.54 161.57 12.49
8503 19.4490 189.98 189.84 13.02
8504 19.4510 241.48 238.54 14.83
8505 19.4530 299.00 322.84 16.41
8506 19.4550 480.51 446.72 20.77
8507 19.4570 527.47 524.75 21.63
8508 19.4590 452.88 451.29 20.07
8509 19.4610 337.92 336.08 17.41
8510 19.4630 274.64 263.69 15.72
8511 19.4650 234.23 230.32 14.53
8512 19.4670 250.61 224.04 14.79
8513 19.4690 245.81 241.82 14.82
8514 19.4710 267.51 290.63 15.55
8515 19.4730 397.64 383.94 18.89
8516 19.4750 512.07 509.45 21.45
8517 19.4770 563.57 543.73 22.33
8518 19.4790 467.12 429.59 20.36
8519 19.4810 301.36 306.91 16.50
8520 19.4830 222.73 229.76 14.10
8521 19.4850 162.25 185.11 12.04
8522 19.4870 148.72 158.52 11.44
8523 19.4890 123.54 141.73 10.45
8524 19.4910 131.30 130.59 10.91
8525 19.4930 112.15 122.86 9.98
8526 19.4950 124.12 117.33 10.57
8527 19.4970 111.20 113.26 9.84
8528 19.4990 92.08 110.21 9.08
8529 19.5010 99.35 107.90 9.44
8530 19.5030 95.61 106.16 9.30
8531 19.5050 104.35 104.82 9.68
8532 19.5070 98.45 103.84 9.34
8533 19.5090 84.67 103.14 8.68
8534 19.5110 88.64 102.69 8.93
8535 19.5130 82.26 102.46 8.60
8536 19.5150 98.97 102.46 9.42
8537 19.5170 95.14 102.66 9.15
8538 19.5190 94.48 103.11 9.13
8539 19.5210 104.47 103.80 9.70
8540 19.5230 98.27 104.78 9.41
8541 19.5250 82.19 106.12 8.62
8542 19.5270 81.65 107.93 8.47
8543 19.5290 91.41 110.36 9.00
8544 19.5310 103.57 113.60 9.65
8545 19.5330 108.02 117.51 9.87
8546 19.5350 107.43 121.95 9.80
8547 19.5370 112.23 127.86 9.97
8548 19.5390 135.01 136.35 10.95
8549 19.5410 131.50 148.69 10.85
8550 19.5430 154.04 167.03 11.77
8551 19.5450 187.59 195.40 12.95
8552 19.5470 252.19 241.46 14.92
8553 19.5490 302.42 320.01 16.34
8554 19.5510 431.62 455.73 19.80
8555 19.5530 659.73 655.81 24.33
8556 19.5550 845.29 788.23 27.62
8557 19.5570 701.70 671.12 24.94
8558 19.5590 432.01 469.02 19.55
8559 19.5610 298.61 330.10 16.38
8560 19.5630 231.45 249.65 14.40
8561 19.5650 179.40 201.21 12.68
8562 19.5670 175.72 170.33 12.39
8563 19.5690 131.61 150.08 10.81
8564 19.5710 133.61 136.40 10.94
8565 19.5730 92.59 126.81 9.10
8566 19.5750 125.46 119.86 10.62
8567 19.5770 123.56 114.69 10.43
8568 19.5790 97.16 110.76 9.27
8569 19.5810 110.60 107.72 9.97
8570 19.5830 105.39 105.34 9.71
8571 19.5850 89.44 103.49 8.97
8572 19.5870 105.30 102.07 9.65
8573 19.5890 103.57 100.99 9.61
8574 19.5910 71.23 99.84 7.98
8575 19.5930 106.79 99.42 9.77
8576 19.5950 88.35 99.37 8.92
8577 19.5970 82.65 99.79 8.51
8578 19.5990 78.40 100.86 8.33
8579 19.6010 91.36 103.00 9.03
8580 19.6030 115.97 106.96 10.18
8581 19.6050 102.80 114.08 9.68
8582 19.6070 121.50 125.67 10.35
8583 19.6090 148.37 138.26 11.49
8584 19.6110 128.89 140.32 10.80
8585 19.6130 120.89 130.33 10.42
8586 19.6150 103.75 117.03 9.63
8587 19.6170 107.49 107.63 9.73
8588 19.6190 105.33 102.20 9.61
8589 19.6210 104.32 99.18 9.69
8590 19.6230 88.85 97.65 8.90
8591 19.6250 99.60 97.24 9.47
8592 19.6270 113.93 97.96 10.03
8593 19.6290 106.07 100.24 9.72
8594 19.6310 107.80 104.62 9.79
8595 19.6330 116.25 109.12 10.20
8596 19.6350 123.29 107.72 10.50
8597 19.6370 101.44 101.99 9.45
8598 19.6390 111.93 97.49 9.96
8599 19.6410 94.46 94.83 9.19
8600 19.6430 107.19 93.34 9.81
8601 19.6450 92.47 92.52 9.16
8602 19.6470 101.29 92.22 9.41
8603 19.6490 104.79 92.21 9.62
8604 19.6510 116.39 92.59 10.19
8605 19.6530 107.38 93.51 9.80
8606 19.6550 85.16 95.32 8.74
8607 19.6570 112.49 98.52 9.92
8608 19.6590 109.07 103.04 9.82
8609 19.6610 135.58 105.79 11.00
8610 19.6630 125.68 103.08 10.57
8611 19.6650 105.05 98.75 9.73
8612 19.6670 100.29 95.19 9.35
8613 19.6690 118.12 93.02 10.23
8614 19.6710 110.34 91.72 9.91
8615 19.6730 129.28 90.90 10.78
8616 19.6750 96.84 90.37 9.31
8617 19.6770 101.55 90.86 9.46
8618 19.6790 104.01 90.62 9.58
8619 19.6810 101.34 90.47 9.55
8620 19.6830 106.02 90.37 9.70
8621 19.6850 101.08 90.31 9.56
8622 19.6870 92.27 90.28 9.00
8623 19.6890 105.25 90.28 9.65
8624 19.6910 105.17 89.63 9.65
8625 19.6930 103.31 89.70 9.59
8626 19.6950 85.23 89.80 8.76
8627 19.6970 101.31 89.92 9.43
8628 19.6990 124.52 90.07 10.49
8629 19.7010 84.07 90.25 8.66
8630 19.7030 93.79 90.47 9.15
8631 19.7050 100.92 90.92 9.53
8632 19.7070 112.06 91.27 9.95
8633 19.7090 83.42 91.71 8.57
8634 19.7110 92.88 92.28 9.09
8635 19.7130 86.44 93.06 8.80
8636 19.7150 98.42 94.16 9.41
8637 19.7170 92.85 95.81 9.00
8638 19.7190 103.63 98.41 9.60
8639 19.7210 113.26 102.69 10.06
8640 19.7230 120.09 109.49 10.28
8641 19.7250 119.73 117.20 10.40
8642 19.7270 107.72 118.63 9.71
8643 19.7290 111.29 113.25 9.95
8644 19.7310 107.55 108.94 9.81
8645 19.7330 103.16 107.93 9.63
8646 19.7350 95.47 107.71 9.26
8647 19.7370 94.86 105.19 9.11
8648 19.7390 101.27 102.01 9.48
8649 19.7410 87.61 100.18 8.85
8650 19.7430 88.29 99.31 8.85
8651 19.7450 105.60 99.18 9.77
8652 19.7470 106.61 99.53 9.69
8653 19.7490 84.35 100.09 8.64
8654 19.7510 94.92 100.94 9.22
8655 19.7530 98.40 102.35 9.37
8656 19.7550 107.98 104.46 9.85
8657 19.7570 106.36 107.61 9.66
8658 19.7590 98.91 112.47 9.34
8659 19.7610 123.98 119.89 10.51
8660 19.7630 144.79 129.24 11.36
8661 19.7650 154.02 134.95 11.82
8662 19.7670 128.45 134.67 10.62
8663 19.7690 146.09 136.09 11.41
8664 19.7710 155.51 143.34 11.80
8665 19.7730 163.89 152.47 12.11
8666 19.7750 174.97 154.68 12.57
8667 19.7770 144.23 154.09 11.26
8668 19.7790 142.69 158.95 11.23
8669 19.7810 176.57 172.71 12.57
8670 19.7830 195.73 196.03 13.17
8671 19.7850 221.68 219.84 14.17
8672 19.7870 228.65 227.87 14.23
8673 19.7890 220.39 230.26 13.97
8674 19.7910 243.00 245.70 14.74
8675 19.7930 288.57 284.31 16.06
8676 19.7950 344.14 359.41 17.56
8677 19.7970 495.76 489.52 20.97
8678 19.7990 720.15 661.00 25.43
8679 19.8010 774.64 741.93 26.43
8680 19.8030 671.09 694.00 24.55
8681 19.8050 646.37 693.12 24.30
8682 19.8070 774.18 805.69 26.14
8683 19.8090 938.90 924.04 29.08
8684 19.8110 875.34 867.95 28.20
8685 19.8130 635.17 679.53 23.82
8686 19.8150 466.27 508.60 20.49
8687 19.8170 371.86 381.02 18.20
8688 19.8190 290.27 292.76 16.01
8689 19.8210 232.88 236.97 14.48
8690 19.8230 219.25 202.00 14.02
8691 19.8250 194.44 179.71 13.26
8692 19.8270 177.98 166.32 12.50
8693 19.8290 171.20 157.57 12.33
8694 19.8310 164.63 153.27 12.19
8695 19.8330 159.32 153.33 11.88
8696 19.8350 155.71 158.82 11.83
8697 19.8370 174.42 172.51 12.41
8698 19.8390 203.39 199.51 13.44
8699 19.8410 240.10 243.73 14.59
8700 19.8430 280.77 285.40 15.78
8701 19.8450 304.49 273.05 16.58
8702 19.8470 195.45 221.62 13.14
8703 19.8490 176.11 179.08 12.48
8704 19.8510 143.87 153.05 11.34
8705 19.8530 135.57 137.70 11.02
8706 19.8550 132.95 128.45 10.93
8707 19.8570 115.08 122.71 10.07
8708 19.8590 128.44 119.17 10.69
8709 19.8610 130.69 117.16 10.82
8710 19.8630 118.71 116.35 10.26
8711 19.8650 129.77 116.67 10.87
8712 19.8670 124.23 118.18 10.48
8713 19.8690 120.72 121.29 10.33
8714 19.8710 138.05 126.72 11.15
8715 19.8730 130.29 135.91 10.81
8716 19.8750 137.23 151.65 11.10
8717 19.8770 180.24 178.66 12.60
8718 19.8790 230.33 220.87 14.33
8719 19.8810 254.98 262.85 15.10
8720 19.8830 275.45 258.59 15.66
8721 19.8850 209.78 214.30 13.76
8722 19.8870 156.90 174.94 11.75
8723 19.8890 139.85 150.74 11.12
8724 19.8910 124.17 137.02 10.58
8725 19.8930 121.04 129.41 10.41
8726 19.8950 120.48 125.41 10.42
8727 19.8970 125.83 123.80 10.55
8728 19.8990 119.16 124.05 10.27
8729 19.9010 122.36 126.11 10.50
8730 19.9030 132.31 130.34 10.81
8731 19.9050 133.17 137.69 11.01
8732 19.9070 139.45 149.39 11.07
8733 19.9090 152.71 163.90 11.65
8734 19.9110 171.04 171.77 12.34
8735 19.9130 165.90 171.52 12.13
8736 19.9150 171.50 173.85 12.40
8737 19.9170 165.12 184.46 12.08
8738 19.9190 195.78 205.35 13.12
8739 19.9210 200.51 240.71 13.41
8740 19.9230 273.49 300.40 15.57
8741 19.9250 334.12 404.00 17.36
8742 19.9270 530.86 584.69 21.62
8743 19.9290 791.23 854.90 26.56
8744 19.9310 1022.47 1036.23 30.44
8745 19.9330 879.88 881.96 27.99
8746 19.9350 567.96 616.85 22.67
8747 19.9370 392.42 436.67 18.68
8748 19.9390 313.68 333.43 16.75
8749 19.9410 281.07 272.72 15.80
8750 19.9430 235.83 237.84 14.45
8751 19.9450 237.44 220.43 14.69
8752 19.9470 213.35 215.62 13.67
8753 19.9490 192.12 221.57 13.05
8754 19.9510 233.41 240.71 14.49
8755 19.9530 268.22 276.63 15.41
8756 19.9550 327.42 338.03 17.21
8757 19.9570 439.53 445.88 19.76
8758 19.9590 606.82 632.41 23.16
8759 19.9610 850.22 888.50 27.69
8760 19.9630 993.61 1005.75 29.85
8761 19.9650 821.89 814.40 27.39
8762 19.9670 536.59 560.87 21.78
8763 19.9690 327.50 391.55 17.10
8764 19.9710 261.18 292.34 15.25
8765 19.9730 209.96 233.33 13.69
8766 19.9750 175.29 196.30 12.62
8767 19.9770 176.27 171.90 12.48
8768 19.9790 150.61 155.07 11.57
8769 19.9810 150.82 143.01 11.62
8770 19.9830 133.58 134.12 10.96
8771 19.9850 136.62 127.23 11.06
8772 19.9870 120.34 122.07 10.39
8773 19.9890 108.37 118.03 9.78
8774 19.9910 110.34 114.85 10.01
8775 19.9930 132.10 112.34 10.81
8776 19.9950 104.08 110.37 9.73
8777 19.9970 115.16 108.85 10.06
8778 19.9990 113.26 107.72 10.05
8779 20.0010 118.36 106.97 10.30
8780 20.0030 123.10 106.59 10.45
8781 20.0050 117.13 106.64 10.30
8782 20.0070 121.02 107.28 10.35
8783 20.0090 116.10 108.66 10.19
8784 20.0110 106.71 111.57 9.81
8785 20.0130 129.34 116.17 10.79
8786 20.0150 151.14 122.58 11.71
8787 20.0170 142.28 126.75 11.26
8788 20.0190 140.19 126.73 11.11
8789 20.0210 141.65 128.22 11.32
8790 20.0230 129.47 132.81 10.74
8791 20.0250 147.32 135.82 11.56
8792 20.0270 160.34 134.49 11.93
8793 20.0290 148.32 133.10 11.49
8794 20.0310 142.36 135.25 11.33
8795 20.0330 174.55 142.04 12.47
8796 20.0350 157.23 154.78 11.95
8797 20.0370 178.86 176.66 12.59
8798 20.0390 226.24 214.38 14.11
8799 20.0410 291.95 280.44 16.22
8800 20.0430 368.27 386.57 18.24
8801 20.0450 488.67 492.29 21.01
8802 20.0470 468.19 474.05 20.32
8803 20.0490 400.48 362.67 18.87
8804 20.0510 290.31 274.76 16.18
8805 20.0530 250.69 228.49 14.95
8806 20.0550 228.95 210.51 14.36
8807 20.0570 227.36 214.36 14.23
8808 20.0590 260.23 241.67 15.11
8809 20.0610 307.52 300.49 16.68
8810 20.0630 397.49 385.38 18.89
8811 20.0650 432.61 420.74 19.80
8812 20.0670 389.59 351.92 18.45
8813 20.0690 280.36 265.64 15.79
8814 20.0710 196.93 210.94 13.25
8815 20.0730 180.59 182.58 12.69
8816 20.0750 133.15 170.60 10.98
8817 20.0770 131.92 165.46 10.82
8818 20.0790 129.49 156.44 10.69
8819 20.0810 123.77 143.70 10.51
8820 20.0830 113.79 133.64 10.09
8821 20.0850 108.44 127.74 9.90
8822 20.0870 121.54 125.54 10.37
8823 20.0890 108.73 125.46 9.81
8824 20.0910 107.95 127.72 9.82
8825 20.0930 129.99 132.68 10.76
8826 20.0950 139.40 141.29 11.18
8827 20.0970 138.73 155.58 11.06
8828 20.0990 155.62 179.53 11.77
8829 20.1010 189.00 219.69 12.96
8830 20.1030 268.99 289.28 15.49
8831 20.1050 390.65 388.27 18.75
8832 20.1070 479.84 451.35 20.51
8833 20.1090 358.19 394.86 17.76
8834 20.1110 261.55 294.62 15.20
8835 20.1130 223.87 222.62 14.12
8836 20.1150 175.28 179.99 12.55
8837 20.1170 169.88 154.97 12.16
8838 20.1190 150.34 139.87 11.45
8839 20.1210 123.20 130.49 10.44
8840 20.1230 112.35 124.71 10.01
8841 20.1250 115.64 121.40 10.15
8842 20.1270 114.15 120.03 10.01
8843 20.1290 125.17 120.50 10.52
8844 20.1310 116.29 123.09 10.21
8845 20.1330 122.98 128.63 10.44
8846 20.1350 126.88 138.74 10.68
8847 20.1370 146.90 154.93 11.36
8848 20.1390 162.62 173.25 12.00
8849 20.1410 180.25 180.04 12.62
8850 20.1430 191.68 176.59 13.03
8851 20.1450 184.32 178.93 12.85
8852 20.1470 181.61 196.23 12.63
8853 20.1490 235.08 235.10 14.38
8854 20.1510 254.64 301.72 15.11
8855 20.1530 347.22 376.72 17.54
8856 20.1550 391.94 384.76 18.76
8857 20.1570 298.05 313.51 16.13
8858 20.1590 221.91 240.44 14.02
8859 20.1610 175.99 194.21 12.48
8860 20.1630 167.97 168.35 12.22
8861 20.1650 157.56 155.13 11.89
8862 20.1670 156.35 147.53 11.73
8863 20.1690 145.28 140.27 11.33
8864 20.1710 120.04 134.59 10.38
8865 20.1730 118.81 132.17 10.28
8866 20.1750 123.63 132.88 10.52
8867 20.1770 140.19 136.60 11.11
8868 20.1790 136.74 143.86 10.97
8869 20.1810 145.75 155.76 11.44
8870 20.1830 189.44 175.95 12.94
8871 20.1850 208.57 209.79 13.73
8872 20.1870 282.42 267.79 15.75
8873 20.1890 402.88 363.23 18.93
8874 20.1910 485.77 481.28 20.79
8875 20.1930 549.73 514.51 22.22
8876 20.1950 417.60 416.71 19.40
8877 20.1970 304.63 305.89 16.36
8878 20.1990 259.48 234.22 15.19
8879 20.2010 206.61 192.82 13.65
8880 20.2030 191.20 168.77 13.00
8881 20.2050 160.25 155.12 12.04
8882 20.2070 175.42 147.76 12.43
8883 20.2090 154.54 144.79 11.70
8884 20.2110 159.32 145.44 11.99
8885 20.2130 162.64 149.75 12.04
8886 20.2150 187.54 158.56 12.98
8887 20.2170 224.19 173.77 14.08
8888 20.2190 216.85 198.20 13.80
8889 20.2210 267.01 232.68 15.49
8890 20.2230 284.36 275.20 15.98
8891 20.2250 339.40 340.22 17.53
8892 20.2270 452.81 447.97 19.95
8893 20.2290 564.66 567.71 22.46
8894 20.2310 625.06 585.35 23.87
8895 20.2330 514.36 508.39 21.45
8896 20.2350 472.47 465.04 20.65
8897 20.2370 511.91 504.71 21.39
8898 20.2390 599.85 604.77 23.09
8899 20.2410 664.97 626.48 24.52
8900 20.2430 485.04 495.13 20.81
8901 20.2450 330.73 353.67 17.31
8902 20.2470 277.88 263.52 15.67
8903 20.2490 220.43 210.81 13.96
8904 20.2510 187.65 180.33 12.98
8905 20.2530 163.95 162.81 12.15
8906 20.2550 169.31 154.27 12.36
8907 20.2570 142.97 152.30 11.25
8908 20.2590 146.30 150.83 11.36
8909 20.2610 127.91 141.79 10.78
8910 20.2630 129.86 129.71 10.79
8911 20.2650 121.12 120.60 10.44
8912 20.2670 98.07 114.63 9.36
8913 20.2690 108.16 110.71 9.77
8914 20.2710 108.42 108.10 9.87
8915 20.2730 109.42 106.37 9.90
8916 20.2750 108.87 105.29 9.94
8917 20.2770 119.28 104.82 10.24
8918 20.2790 121.61 104.85 10.42
8919 20.2810 106.92 105.44 9.79
8920 20.2830 132.05 106.75 10.83
8921 20.2850 118.93 108.75 10.33
8922 20.2870 135.58 111.81 11.01
8923 20.2890 131.53 116.34 10.76
8924 20.2910 137.25 123.12 11.10
8925 20.2930 183.74 133.44 12.78
8926 20.2950 182.61 149.76 12.83
8927 20.2970 183.07 176.66 12.68
8928 20.2990 224.83 221.94 14.05
8929 20.3010 332.30 294.33 17.27
8930 20.3030 381.22 380.37 18.48
8931 20.3050 441.00 402.90 20.05
8932 20.3070 316.81 333.96 16.72
8933 20.3090 253.48 255.21 15.00
8934 20.3110 210.29 200.77 13.78
8935 20.3130 175.01 166.50 12.51
8936 20.3150 157.23 146.73 11.92
8937 20.3170 144.91 136.02 11.28
8938 20.3190 136.13 128.38 11.00
8939 20.3210 132.19 121.41 10.81
8940 20.3230 124.71 117.41 10.56
8941 20.3250 137.68 117.44 11.14
8942 20.3270 146.27 120.94 11.36
8943 20.3290 127.13 123.85 10.57
8944 20.3310 126.32 119.77 10.63
8945 20.3330 140.11 111.29 11.14
8946 20.3350 101.43 103.78 9.54
8947 20.3370 107.38 99.09 9.76
8948 20.3390 99.69 96.25 9.41
8949 20.3410 106.95 94.42 9.76
8950 20.3430 86.90 93.18 8.83
8951 20.3450 94.13 92.40 9.21
8952 20.3470 93.09 92.02 9.06
8953 20.3490 96.97 92.01 9.27
8954 20.3510 103.95 92.44 9.65
8955 20.3530 88.35 93.41 8.86
8956 20.3550 92.75 95.20 9.11
8957 20.3570 98.40 97.98 9.28
8958 20.3590 111.53 103.04 9.97
8959 20.3610 113.48 111.89 10.03
8960 20.3630 115.82 123.13 10.14
8961 20.3650 114.35 126.22 10.16
8962 20.3670 131.66 116.43 10.75
8963 20.3690 113.01 105.83 9.96
8964 20.3710 99.58 98.74 9.38
8965 20.3730 93.07 94.58 9.11
8966 20.3750 95.39 91.69 9.27
8967 20.3770 92.86 89.69 9.02
8968 20.3790 87.30 88.73 8.80
8969 20.3810 82.58 88.11 8.55
8970 20.3830 95.29 87.74 9.18
8971 20.3850 92.94 87.56 9.14
8972 20.3870 96.87 87.53 9.21
8973 20.3890 90.00 87.57 8.91
8974 20.3910 84.59 88.33 8.66
8975 20.3930 84.51 88.45 8.71
8976 20.3950 101.67 88.70 9.52
8977 20.3970 90.95 89.11 8.97
8978 20.3990 82.28 89.81 8.53
8979 20.4010 87.19 90.64 8.82
8980 20.4030 82.98 91.86 8.53
8981 20.4050 95.69 93.60 9.28
8982 20.4070 104.15 96.64 9.55
8983 20.4090 94.23 100.67 9.10
8984 20.4110 104.26 107.02 9.60
8985 20.4130 108.59 116.24 9.86
8986 20.4150 125.91 125.84 10.57
8987 20.4170 132.90 134.41 10.72
8988 20.4190 144.91 147.99 11.38
8989 20.4210 176.19 165.70 12.42
8990 20.4230 184.93 171.00 12.83
8991 20.4250 152.27 154.51 11.67
8992 20.4270 116.02 133.19 10.07
8993 20.4290 105.32 118.07 9.60
8994 20.4310 87.31 108.93 8.82
8995 20.4330 112.56 103.57 10.02
8996 20.4350 94.88 100.50 9.21
8997 20.4370 91.41 98.87 8.92
8998 20.4390 100.02 98.26 9.38
8999 20.4410 78.89 98.45 8.29
9000 20.4430 85.77 98.97 8.74
9001 20.4450 99.69 99.05 9.42
9002 20.4470 79.78 98.81 8.32
9003 20.4490 86.69 98.99 8.74
9004 20.4510 92.92 99.47 9.07
9005 20.4530 89.53 100.89 8.95
9006 20.4550 91.50 102.98 9.02
9007 20.4570 92.22 105.96 9.03
9008 20.4590 96.59 110.19 9.16
9009 20.4610 115.47 116.37 10.16
9010 20.4630 123.10 125.70 10.43
9011 20.4650 136.91 140.18 11.10
9012 20.4670 156.56 160.95 11.71
9013 20.4690 173.86 184.92 12.40
9014 20.4710 191.25 214.72 13.00
9015 20.4730 227.33 257.95 14.27
9016 20.4750 284.68 284.79 15.94
9017 20.4770 276.44 263.07 15.52
9018 20.4790 201.07 235.20 13.38
9019 20.4810 238.12 229.62 14.50
9020 20.4830 223.56 244.25 14.09
9021 20.4850 263.97 263.43 15.43
9022 20.4870 291.45 282.35 16.05
9023 20.4890 313.77 308.44 16.75
9024 20.4910 328.01 309.25 17.10
9025 20.4930 238.45 274.07 14.61
9026 20.4950 234.51 248.76 14.54
9027 20.4970 247.69 252.35 14.74
9028 20.4990 267.06 289.46 15.41
9029 20.5010 381.87 367.73 18.49
9030 20.5030 495.90 472.51 20.99
9031 20.5050 517.99 504.53 21.56
9032 20.5070 429.75 414.92 19.46
9033 20.5090 315.44 315.92 16.78
9034 20.5110 266.23 255.77 15.44
9035 20.5130 221.87 226.54 14.06
9036 20.5150 218.94 217.55 13.95
9037 20.5170 232.44 224.06 14.29
9038 20.5190 225.24 246.83 14.20
9039 20.5210 279.39 292.37 15.87
9040 20.5230 381.68 375.11 18.47
9041 20.5250 492.48 517.72 21.11
9042 20.5270 707.00 716.78 24.93
9043 20.5290 849.54 829.57 27.66
9044 20.5310 691.19 711.28 24.99
9045 20.5330 498.83 526.06 21.19
9046 20.5350 355.49 406.06 17.91
9047 20.5370 322.91 352.64 16.84
9048 20.5390 355.73 349.98 17.86
9049 20.5410 388.03 389.24 18.77
9050 20.5430 447.53 456.67 20.05
9051 20.5450 544.20 540.65 22.20
9052 20.5470 578.76 597.70 22.68
9053 20.5490 548.57 537.84 22.31
9054 20.5510 408.65 409.42 19.25
9055 20.5530 287.14 303.36 16.11
9056 20.5550 216.78 235.36 14.01
9057 20.5570 166.19 193.76 12.16
9058 20.5590 156.56 167.47 11.79
9059 20.5610 145.66 150.10 11.48
9060 20.5630 147.73 138.13 11.51
9061 20.5650 115.56 129.56 10.22
9062 20.5670 110.90 123.29 9.91
9063 20.5690 152.67 118.61 11.71
9064 20.5710 127.79 115.12 10.80
9065 20.5730 130.72 112.56 10.82
9066 20.5750 121.61 110.69 10.53
9067 20.5770 119.43 109.63 10.28
9068 20.5790 89.48 109.38 8.96
9069 20.5810 124.02 110.12 10.62
9070 20.5830 106.21 111.96 9.80
9071 20.5850 119.50 113.71 10.45
9072 20.5870 133.10 113.31 10.80
9073 20.5890 104.07 112.19 9.67
9074 20.5910 99.78 112.24 9.50
9075 20.5930 123.98 113.67 10.55
9076 20.5950 103.01 116.46 9.66
9077 20.5970 127.78 120.81 10.67
9078 20.5990 131.53 127.24 10.79
9079 20.6010 126.45 136.69 10.74
9080 20.6030 147.14 150.96 11.49
9081 20.6050 174.85 173.35 12.63
9082 20.6070 187.04 210.29 12.92
9083 20.6090 264.77 273.50 15.40
9084 20.6110 346.60 379.46 17.67
9085 20.6130 505.42 515.63 21.32
9086 20.6150 579.93 561.66 23.00
9087 20.6170 416.61 454.77 19.16
9088 20.6190 303.15 331.70 16.46
9089 20.6210 245.09 251.39 14.83
9090 20.6230 179.57 203.12 12.69
9091 20.6250 139.91 175.06 11.27
9092 20.6270 156.60 159.36 11.77
9093 20.6290 139.68 151.24 11.18
9094 20.6310 139.73 148.76 11.23
9095 20.6330 141.79 150.46 11.24
9096 20.6350 130.68 155.75 10.90
9097 20.6370 151.85 166.21 11.54
9098 20.6390 175.03 184.21 12.51
9099 20.6410 161.98 212.15 12.03
9100 20.6430 221.70 257.58 14.01
9101 20.6450 314.89 337.32 16.85
9102 20.6470 447.16 467.96 19.93
9103 20.6490 577.59 622.73 22.80
9104 20.6510 626.11 654.83 23.64
9105 20.6530 459.14 518.70 20.22
9106 20.6550 303.32 369.84 16.55
9107 20.6570 236.73 272.53 14.40
9108 20.6590 184.42 214.73 12.84
9109 20.6610 173.39 179.99 12.48
9110 20.6630 149.91 158.21 11.54
9111 20.6650 140.40 144.08 11.22
9112 20.6670 133.36 134.77 10.88
9113 20.6690 107.11 128.27 9.76
9114 20.6710 95.93 124.04 9.25
9115 20.6730 142.38 121.92 11.21
9116 20.6750 117.46 121.29 10.34
9117 20.6770 99.50 122.10 9.36
9118 20.6790 104.51 124.46 9.65
9119 20.6810 124.09 128.65 10.54
9120 20.6830 138.78 135.28 11.11
9121 20.6850 143.08 145.35 11.35
9122 20.6870 164.01 160.70 12.04
9123 20.6890 178.15 184.56 12.61
9124 20.6910 226.57 222.94 14.24
9125 20.6930 277.18 287.27 15.71
9126 20.6950 371.73 392.96 18.32
9127 20.6970 502.79 541.43 21.08
9128 20.6990 631.11 648.26 23.67
9129 20.7010 607.62 586.06 23.39
9130 20.7030 414.44 434.61 19.18
9131 20.7050 274.40 313.36 15.73
9132 20.7070 211.53 238.01 13.61
9133 20.7090 169.33 193.09 12.27
9134 20.7110 151.83 165.81 11.67
9135 20.7130 132.90 147.94 10.81
9136 20.7150 134.35 134.62 11.03
9137 20.7170 103.61 124.69 9.54
9138 20.7190 92.75 117.60 9.07
9139 20.7210 82.48 112.50 8.55
9140 20.7230 103.80 108.80 9.61
9141 20.7250 92.62 106.14 9.16
9142 20.7270 91.87 104.25 8.99
9143 20.7290 79.78 102.98 8.40
9144 20.7310 96.62 102.26 9.32
9145 20.7330 79.86 102.06 8.42
9146 20.7350 90.57 102.39 9.02
9147 20.7370 101.90 103.29 9.47
9148 20.7390 88.59 104.89 8.89
9149 20.7410 109.58 107.40 9.89
9150 20.7430 108.03 111.17 9.77
9151 20.7450 104.73 116.83 9.71
9152 20.7470 130.18 125.45 10.72
9153 20.7490 138.10 138.97 11.08
9154 20.7510 159.60 160.18 12.00
9155 20.7530 178.53 190.57 12.59
9156 20.7550 230.29 226.50 14.42
9157 20.7570 274.21 268.35 15.57
9158 20.7590 360.11 329.02 17.97
9159 20.7610 378.48 373.78 18.44
9160 20.7630 338.39 339.14 17.26
9161 20.7650 255.36 271.56 15.21
9162 20.7670 211.70 227.67 13.63
9163 20.7690 192.67 206.25 13.09
9164 20.7710 187.65 186.56 13.00
9165 20.7730 165.95 165.37 12.12
9166 20.7750 128.37 152.16 10.74
9167 20.7770 145.26 149.07 11.29
9168 20.7790 152.17 154.77 11.64
9169 20.7810 171.41 162.37 12.43
9170 20.7830 178.80 161.28 12.58
9171 20.7850 144.72 155.68 11.43
9172 20.7870 128.64 155.80 10.66
9173 20.7890 148.52 166.42 11.44
9174 20.7910 167.07 191.53 12.24
9175 20.7930 238.65 238.31 14.57
9176 20.7950 268.49 311.62 15.58
9177 20.7970 360.19 382.62 17.76
9178 20.7990 365.05 372.68 17.98
9179 20.8010 267.28 297.24 15.48
9180 20.8030 191.73 233.12 13.02
9181 20.8050 178.38 196.65 12.69
9182 20.8070 170.48 172.78 12.25
9183 20.8090 120.62 150.24 10.36
9184 20.8110 87.75 132.64 8.87
9185 20.8130 105.81 121.90 9.68
9186 20.8150 120.20 116.32 10.43
9187 20.8170 115.84 112.99 10.07
9188 20.8190 106.23 108.61 9.69
9189 20.8210 87.38 103.78 8.83
9190 20.8230 89.62 100.02 8.89
9191 20.8250 82.43 96.93 8.60
9192 20.8270 86.29 94.49 8.70
9193 20.8290 93.44 93.07 9.11
9194 20.8310 88.15 92.39 8.90
9195 20.8330 91.98 92.57 9.04
9196 20.8350 95.89 93.84 9.31
9197 20.8370 88.55 96.70 8.81
9198 20.8390 94.22 101.88 9.12
9199 20.8410 101.61 109.01 9.52
9200 20.8430 109.84 113.51 9.86
9201 20.8450 110.12 109.93 9.97
9202 20.8470 84.21 103.60 8.61
9203 20.8490 101.17 99.89 9.49
9204 20.8510 89.49 100.02 8.97
9205 20.8530 93.73 100.28 9.14
9206 20.8550 97.14 97.70 9.32
9207 20.8570 103.89 94.76 9.57
9208 20.8590 98.01 93.77 9.34
9209 20.8610 92.99 93.66 9.08
9210 20.8630 89.84 91.73 8.92
9211 20.8650 84.55 88.70 8.76
9212 20.8670 77.56 86.45 8.25
9213 20.8690 81.52 85.13 8.50
9214 20.8710 79.35 84.45 8.41
9215 20.8730 87.50 84.21 8.82
9216 20.8750 71.75 84.36 8.05
9217 20.8770 80.49 84.95 8.37
9218 20.8790 90.93 86.18 9.02
9219 20.8810 70.58 88.47 7.90
9220 20.8830 74.32 92.50 8.13
9221 20.8850 107.76 98.34 9.82
9222 20.8870 103.82 102.13 9.53
9223 20.8890 85.98 99.17 8.75
9224 20.8910 101.39 93.50 9.53
9225 20.8930 81.15 89.62 8.50
9226 20.8950 74.44 87.66 8.17
9227 20.8970 93.74 87.04 9.09
9228 20.8990 83.51 87.42 8.59
9229 20.9010 83.72 88.48 8.64
9230 20.9030 86.98 89.42 8.78
9231 20.9050 77.93 89.14 8.35
9232 20.9070 100.66 88.43 9.42
9233 20.9090 89.35 88.09 8.92
9234 20.9110 85.80 88.55 8.75
9235 20.9130 104.71 89.87 9.65
9236 20.9150 85.64 92.11 8.74
9237 20.9170 110.57 95.74 9.85
9238 20.9190 95.36 101.48 9.17
9239 20.9210 114.11 110.75 10.10
9240 20.9230 116.19 126.09 10.14
9241 20.9250 157.76 150.59 11.92
9242 20.9270 194.06 182.57 13.07
9243 20.9290 206.91 200.94 13.57
9244 20.9310 174.51 183.95 12.50
9245 20.9330 141.39 152.74 11.22
9246 20.9350 120.51 128.57 10.41
9247 20.9370 106.39 112.79 9.67
9248 20.9390 123.91 102.82 10.50
9249 20.9410 105.62 96.74 9.74
9250 20.9430 90.49 92.75 8.99
9251 20.9450 104.37 89.85 9.68
9252 20.9470 100.77 88.08 9.40
9253 20.9490 103.42 86.93 9.61
9254 20.9510 109.45 86.21 9.86
9255 20.9530 83.42 85.83 8.62
9256 20.9550 100.14 85.75 9.45
9257 20.9570 87.44 85.97 8.79
9258 20.9590 91.02 86.52 8.97
9259 20.9610 103.27 87.50 9.64
9260 20.9630 113.74 88.86 10.04
9261 20.9650 93.73 90.40 9.20
9262 20.9670 96.44 92.13 9.15
9263 20.9690 104.93 94.69 9.71
9264 20.9710 92.38 98.77 9.12
9265 20.9730 105.07 105.21 9.66
9266 20.9750 116.61 115.58 10.25
9267 20.9770 130.34 132.55 10.75
9268 20.9790 162.60 159.81 11.97
9269 20.9810 178.04 197.46 12.63
9270 20.9830 219.82 227.02 13.99
9271 20.9850 194.66 217.98 13.27
9272 20.9870 176.89 181.81 12.50
9273 20.9890 137.83 147.92 11.09
9274 20.9910 123.41 125.17 10.52
9275 20.9930 108.15 111.16 9.79
9276 20.9950 94.34 102.55 9.20
9277 20.9970 83.28 97.08 8.57
9278 20.9990 80.82 93.49 8.48
9279 21.0010 81.48 91.08 8.54
9280 21.0030 84.51 89.47 8.65
9281 21.0050 94.31 88.42 9.23
9282 21.0070 99.95 87.79 9.35
9283 21.0090 91.11 87.52 9.02
9284 21.0110 96.51 87.55 9.27
9285 21.0130 89.35 87.90 8.91
9286 21.0150 91.54 88.56 9.04
9287 21.0170 79.12 89.60 8.40
9288 21.0190 101.01 91.10 9.46
9289 21.0210 94.73 93.22 9.16
9290 21.0230 76.05 96.18 8.23
9291 21.0250 122.29 100.36 10.46
9292 21.0270 97.38 106.41 9.29
9293 21.0290 101.72 115.46 9.55
9294 21.0310 117.77 129.65 10.22
9295 21.0330 144.08 152.63 11.30
9296 21.0350 194.85 190.15 13.25
9297 21.0370 260.90 246.87 15.18
9298 21.0390 338.82 306.44 17.37
9299 21.0410 292.75 313.74 16.12
9300 21.0430 227.83 262.18 14.23
9301 21.0450 181.94 206.32 12.75
9302 21.0470 157.72 166.34 11.84
9303 21.0490 133.05 139.39 10.90
9304 21.0510 116.64 121.94 10.22
9305 21.0530 95.30 110.81 9.16
9306 21.0550 111.17 103.53 10.00
9307 21.0570 92.42 98.64 9.04
9308 21.0590 95.95 95.28 9.23
9309 21.0610 91.76 92.95 9.04
9310 21.0630 85.30 91.37 8.71
9311 21.0650 85.59 90.67 8.76
9312 21.0670 95.98 90.13 9.17
9313 21.0690 83.27 90.01 8.61
9314 21.0710 75.01 90.30 8.20
9315 21.0730 94.15 91.05 9.09
9316 21.0750 104.19 92.35 9.63
9317 21.0770 92.05 94.35 8.99
9318 21.0790 106.49 97.33 9.70
9319 21.0810 98.08 101.79 9.35
9320 21.0830 115.11 108.46 10.06
9321 21.0850 119.95 119.11 10.36
9322 21.0870 130.10 136.39 10.69
9323 21.0890 140.79 164.52 11.18
9324 21.0910 179.23 206.87 12.63
9325 21.0930 223.36 252.84 14.04
9326 21.0950 257.74 264.65 15.22
9327 21.0970 260.87 233.41 15.10
9328 21.0990 204.26 194.66 13.44
9329 21.1010 140.84 160.76 11.20
9330 21.1030 122.78 134.52 10.44
9331 21.1050 106.61 117.41 9.76
9332 21.1070 97.94 106.93 9.26
9333 21.1090 103.07 100.15 9.54
9334 21.1110 86.47 95.73 8.77
9335 21.1130 89.72 92.80 8.95
9336 21.1150 84.53 90.98 8.69
9337 21.1170 85.35 90.04 8.62
9338 21.1190 78.56 89.67 8.29
9339 21.1210 74.23 89.33 8.11
9340 21.1230 67.79 88.99 7.77
9341 21.1250 84.13 88.20 8.68
9342 21.1270 71.80 86.76 7.96
9343 21.1290 74.07 85.48 8.10
9344 21.1310 74.88 84.68 8.11
9345 21.1330 72.73 84.24 8.07
9346 21.1350 82.01 84.04 8.56
9347 21.1370 76.97 84.02 8.19
9348 21.1390 80.90 84.02 8.49
9349 21.1410 72.11 84.29 7.98
9350 21.1430 67.49 84.71 7.77
9351 21.1450 74.35 85.28 8.12
9352 21.1470 80.39 86.02 8.41
9353 21.1490 81.24 86.97 8.50
9354 21.1510 88.23 88.18 8.82
9355 21.1530 81.09 89.72 8.48
9356 21.1550 93.04 91.68 9.09
9357 21.1570 87.33 94.24 8.75
9358 21.1590 96.67 97.62 9.20
9359 21.1610 112.40 102.21 9.96
9360 21.1630 105.06 108.62 9.66
9361 21.1650 113.40 117.87 10.03
9362 21.1670 135.06 131.59 10.95
9363 21.1690 147.48 152.28 11.45
9364 21.1710 178.48 184.82 12.52
9365 21.1730 214.50 239.77 13.86
9366 21.1750 337.55 327.20 17.31
9367 21.1770 416.46 417.79 19.35
9368 21.1790 424.98 412.38 19.41
9369 21.1810 308.98 319.26 16.51
9370 21.1830 206.14 235.89 13.58
9371 21.1850 213.37 185.11 13.76
9372 21.1870 166.92 156.46 12.14
9373 21.1890 147.94 140.76 11.46
9374 21.1910 142.32 132.93 11.18
9375 21.1930 156.78 130.42 11.81
9376 21.1950 134.58 133.05 10.96
9377 21.1970 152.44 141.31 11.59
9378 21.1990 163.75 157.57 12.00
9379 21.2010 158.73 186.92 11.84
9380 21.2030 246.54 238.02 14.79
9381 21.2050 281.31 318.00 15.77
9382 21.2070 432.94 395.55 19.62
9383 21.2090 410.83 383.82 19.08
9384 21.2110 325.55 297.85 17.03
9385 21.2130 238.73 221.55 14.56
9386 21.2150 170.42 173.66 12.29
9387 21.2170 148.00 145.24 11.45
9388 21.2190 144.87 127.99 11.32
9389 21.2210 131.16 117.18 10.76
9390 21.2230 127.16 110.27 10.65
9391 21.2250 127.25 105.90 10.67
9392 21.2270 116.53 103.39 10.16
9393 21.2290 130.40 102.49 10.82
9394 21.2310 110.82 102.99 9.94
9395 21.2330 114.46 105.19 10.09
9396 21.2350 131.94 109.68 10.85
9397 21.2370 124.12 117.72 10.46
9398 21.2390 152.46 131.74 11.67
9399 21.2410 180.68 156.16 12.70
9400 21.2430 217.72 196.85 13.93
9401 21.2450 257.11 248.35 15.11
9402 21.2470 288.18 267.20 15.99
9403 21.2490 244.81 229.68 14.79
9404 21.2510 178.40 181.36 12.60
9405 21.2530 153.77 149.14 11.76
9406 21.2550 130.44 132.35 10.76
9407 21.2570 129.05 125.99 10.68
9408 21.2590 165.11 124.57 12.18
9409 21.2610 150.25 120.50 11.57
9410 21.2630 148.38 113.22 11.52
9411 21.2650 121.99 107.70 10.48
9412 21.2670 113.50 103.07 10.09
9413 21.2690 121.58 97.17 10.41
9414 21.2710 115.89 91.78 10.18
9415 21.2730 118.37 88.04 10.35
9416 21.2750 104.09 85.57 9.60
9417 21.2770 97.44 83.90 9.33
9418 21.2790 91.10 82.77 8.99
9419 21.2810 97.28 82.03 9.33
9420 21.2830 89.03 81.61 8.94
9421 21.2850 108.20 81.53 9.85
9422 21.2870 95.04 81.88 9.18
9423 21.2890 77.32 82.86 8.34
9424 21.2910 100.00 84.85 9.43
9425 21.2930 105.46 88.04 9.68
9426 21.2950 79.82 90.91 8.46
9427 21.2970 96.11 89.95 9.30
9428 21.2990 93.04 86.12 9.07
9429 21.3010 86.18 82.80 8.81
9430 21.3030 77.34 80.66 8.34
9431 21.3050 68.85 79.35 7.84
9432 21.3070 79.48 78.52 8.43
9433 21.3090 80.52 77.97 8.47
9434 21.3110 81.30 77.61 8.56
9435 21.3130 97.98 77.37 9.31
9436 21.3150 71.95 77.23 8.05
9437 21.3170 69.95 77.16 7.90
9438 21.3190 62.37 76.84 7.47
9439 21.3210 66.57 76.96 7.73
9440 21.3230 68.47 77.19 7.85
9441 21.3250 69.18 77.58 7.89
9442 21.3270 79.54 78.21 8.43
9443 21.3290 82.42 79.26 8.62
9444 21.3310 69.44 81.62 7.91
9445 21.3330 86.39 84.28 8.77
9446 21.3350 87.53 87.40 8.84
9447 21.3370 115.24 88.60 10.12
9448 21.3390 81.71 87.29 8.54
9449 21.3410 90.28 84.76 9.00
9450 21.3430 84.10 83.17 8.66
9451 21.3450 89.79 82.55 8.96
9452 21.3470 93.24 82.68 9.14
9453 21.3490 89.91 83.47 8.98
9454 21.3510 103.45 85.03 9.69
9455 21.3530 86.72 87.36 8.76
9456 21.3550 88.91 91.76 8.91
9457 21.3570 100.93 98.77 9.44
9458 21.3590 84.39 107.72 8.72
9459 21.3610 102.92 113.46 9.60
9460 21.3630 119.10 115.18 10.31
9461 21.3650 124.01 120.13 10.55
9462 21.3670 142.73 131.95 11.26
9463 21.3690 141.22 146.27 11.25
9464 21.3710 140.46 147.24 11.25
9465 21.3730 110.82 132.19 9.96
9466 21.3750 121.95 116.12 10.43
9467 21.3770 105.81 104.37 9.72
9468 21.3790 97.70 96.45 9.34
9469 21.3810 101.82 91.58 9.64
9470 21.3830 93.38 88.84 9.08
9471 21.3850 83.67 87.62 8.73
9472 21.3870 80.49 87.72 8.46
9473 21.3890 95.03 89.05 9.26
9474 21.3910 95.17 91.82 9.26
9475 21.3930 106.68 94.25 9.76
9476 21.3950 95.80 93.37 9.25
9477 21.3970 84.36 89.93 8.69
9478 21.3990 82.04 86.86 8.59
9479 21.4010 92.43 84.97 9.13
9480 21.4030 76.47 84.01 8.26
9481 21.4050 78.64 83.69 8.43
9482 21.4070 82.46 83.85 8.61
9483 21.4090 77.39 84.46 8.33
9484 21.4110 92.14 85.55 9.14
9485 21.4130 94.53 87.34 9.17
9486 21.4150 89.56 90.23 8.97
9487 21.4170 78.82 94.86 8.36
9488 21.4190 89.56 102.17 8.97
9489 21.4210 105.10 112.22 9.75
9490 21.4230 124.56 120.25 10.52
9491 21.4250 131.29 118.22 10.87
9492 21.4270 117.52 109.36 10.22
9493 21.4290 100.24 101.62 9.47
9494 21.4310 84.66 96.92 8.74
9495 21.4330 81.03 94.53 8.50
9496 21.4350 85.13 93.63 8.71
9497 21.4370 84.92 93.71 8.71
9498 21.4390 119.45 94.52 10.29
9499 21.4410 97.99 95.93 9.40
9500 21.4430 102.84 97.93 9.55
9501 21.4450 88.91 100.58 8.93
9502 21.4470 101.59 104.01 9.48
9503 21.4490 107.73 108.38 9.83
9504 21.4510 107.75 114.02 9.85
9505 21.4530 131.31 121.34 10.78
9506 21.4550 145.34 131.08 11.40
9507 21.4570 162.12 144.35 11.94
9508 21.4590 188.92 162.99 13.02
9509 21.4610 177.97 190.35 12.61
9510 21.4630 239.59 232.41 14.62
9511 21.4650 275.37 300.37 15.63
9512 21.4670 407.85 412.70 19.07
9513 21.4690 554.02 584.33 22.29
9514 21.4710 767.93 753.82 26.38
9515 21.4730 766.30 755.25 26.10
9516 21.4750 588.47 636.66 23.01
9517 21.4770 533.38 571.70 21.80
9518 21.4790 553.53 604.90 22.36
9519 21.4810 693.63 716.10 25.03
9520 21.4830 780.31 813.04 26.34
9521 21.4850 718.01 737.08 25.48
9522 21.4870 477.02 545.98 20.56
9523 21.4890 328.06 387.06 17.15
9524 21.4910 262.45 286.43 15.32
9525 21.4930 202.05 224.78 13.41
9526 21.4950 187.60 185.86 12.95
9527 21.4970 142.50 160.10 11.26
9528 21.4990 142.21 142.27 11.27
9529 21.5010 116.50 129.44 10.23
9530 21.5030 121.04 119.89 10.35
9531 21.5050 125.41 112.65 10.61
9532 21.5070 100.36 107.01 9.42
9533 21.5090 86.20 102.57 8.81
9534 21.5110 88.24 99.03 8.87
9535 21.5130 81.80 96.18 8.53
9536 21.5150 86.48 93.92 8.78
9537 21.5170 87.23 92.15 8.82
9538 21.5190 91.62 90.84 9.06
9539 21.5210 87.88 89.99 8.89
9540 21.5230 91.94 89.69 9.04
9541 21.5250 89.81 90.08 8.97
9542 21.5270 97.14 91.68 9.32
9543 21.5290 97.15 95.06 9.35
9544 21.5310 95.45 100.69 9.23
9545 21.5330 105.39 106.31 9.69
9546 21.5350 95.09 106.61 9.20
9547 21.5370 93.53 101.60 9.09
9548 21.5390 89.12 96.43 8.93
9549 21.5410 71.99 94.02 8.04
9550 21.5430 87.89 93.19 8.84
9551 21.5450 100.53 91.03 9.46
9552 21.5470 63.86 87.33 7.54
9553 21.5490 86.74 84.46 8.81
9554 21.5510 81.66 82.78 8.54
9555 21.5530 71.16 81.80 7.99
9556 21.5550 79.86 81.42 8.44
9557 21.5570 68.41 81.62 7.82
9558 21.5590 60.14 82.39 7.34
9559 21.5610 74.91 84.06 8.18
9560 21.5630 63.43 87.19 7.54
9561 21.5650 91.51 92.47 9.05
9562 21.5670 91.42 99.22 9.03
9563 21.5690 105.16 101.92 9.68
9564 21.5710 104.45 96.83 9.64
9565 21.5730 91.18 89.72 9.03
9566 21.5750 75.58 84.64 8.21
9567 21.5770 80.64 81.50 8.45
9568 21.5790 65.08 79.54 7.66
9569 21.5810 72.12 78.22 8.04
9570 21.5830 65.25 77.36 7.61
9571 21.5850 65.61 76.74 7.70
9572 21.5870 84.92 76.28 8.68
9573 21.5890 66.28 75.97 7.69
9574 21.5910 79.15 75.72 8.44
9575 21.5930 75.97 75.54 8.24
9576 21.5950 70.43 75.41 7.92
9577 21.5970 84.89 75.42 8.68
9578 21.5990 60.77 75.43 7.39
9579 21.6010 66.25 75.53 7.72
9580 21.6030 76.39 75.79 8.22
9581 21.6050 79.48 76.28 8.41
9582 21.6070 66.31 76.98 7.69
9583 21.6090 93.27 77.35 9.13
9584 21.6110 75.43 76.85 8.21
9585 21.6130 76.30 76.11 8.22
9586 21.6150 68.11 75.00 7.84
9587 21.6170 78.77 74.72 8.38
9588 21.6190 75.87 74.59 8.25
9589 21.6210 72.72 74.53 8.08
9590 21.6230 65.54 74.53 7.65
9591 21.6250 77.65 74.57 8.35
9592 21.6270 60.01 74.64 7.30
9593 21.6290 72.82 74.15 8.08
9594 21.6310 86.19 74.29 8.80
9595 21.6330 67.29 74.47 7.75
9596 21.6350 66.21 74.65 7.72
9597 21.6370 63.52 74.83 7.50
9598 21.6390 67.76 75.10 7.77
9599 21.6410 85.62 75.41 8.72
9600 21.6430 81.59 75.78 8.53
9601 21.6450 76.85 76.20 8.30
9602 21.6470 67.29 76.70 7.73
9603 21.6490 74.94 77.30 8.19
9604 21.6510 72.91 78.02 8.08
9605 21.6530 80.00 78.90 8.43
9606 21.6550 82.06 80.00 8.59
9607 21.6570 72.75 81.41 8.04
9608 21.6590 93.31 83.30 9.11
9609 21.6610 75.48 85.92 8.22
9610 21.6630 87.37 89.74 8.80
9611 21.6650 86.17 95.57 8.76
9612 21.6670 119.15 103.25 10.24
9613 21.6690 106.94 109.59 9.79
9614 21.6710 103.86 111.04 9.60
9615 21.6730 103.40 112.16 9.56
9616 21.6750 122.68 117.51 10.47
9617 21.6770 121.79 129.03 10.37
9618 21.6790 152.79 149.61 11.65
9619 21.6810 179.14 184.96 12.60
9620 21.6830 236.33 242.97 14.51
9621 21.6850 356.15 316.78 17.77
9622 21.6870 411.91 349.93 19.23
9623 21.6890 315.77 313.46 16.78
9624 21.6910 286.65 272.36 16.01
9625 21.6930 233.06 248.01 14.40
9626 21.6950 217.47 216.22 13.93
9627 21.6970 202.90 182.96 13.30
9628 21.6990 130.48 164.25 10.83
9629 21.7010 148.09 160.04 11.47
9630 21.7030 172.71 161.52 12.31
9631 21.7050 165.54 157.65 12.24
9632 21.7070 157.69 150.90 11.80
9633 21.7090 162.65 146.30 12.07
9634 21.7110 141.95 142.49 11.25
9635 21.7130 116.44 142.97 10.13
9636 21.7150 126.52 153.82 10.61
9637 21.7170 143.49 175.62 11.29
9638 21.7190 179.26 194.03 12.65
9639 21.7210 167.34 184.14 12.20
9640 21.7230 147.49 155.18 11.43
9641 21.7250 113.16 130.75 10.08
9642 21.7270 105.02 115.61 9.61
9643 21.7290 107.37 107.05 9.80
9644 21.7310 85.04 102.77 8.71
9645 21.7330 88.45 101.68 8.86
9646 21.7350 105.53 103.59 9.71
9647 21.7370 93.16 109.09 9.09
9648 21.7390 112.02 118.84 9.99
9649 21.7410 124.42 130.47 10.52
9650 21.7430 148.84 137.78 11.55
9651 21.7450 151.28 142.55 11.59
9652 21.7470 149.40 153.45 11.50
9653 21.7490 181.71 166.81 12.73
9654 21.7510 164.91 163.68 12.10
9655 21.7530 146.82 142.16 11.46
9656 21.7550 111.62 120.72 10.00
9657 21.7570 102.39 106.10 9.50
9658 21.7590 94.73 96.96 9.20
9659 21.7610 100.22 91.23 9.45
9660 21.7630 79.08 87.78 8.39
9661 21.7650 69.26 85.30 7.86
9662 21.7670 77.11 83.60 8.30
9663 21.7690 66.74 82.46 7.71
9664 21.7710 80.03 81.71 8.49
9665 21.7730 100.75 81.29 9.51
9666 21.7750 76.92 81.18 8.30
9667 21.7770 70.10 81.54 7.87
9668 21.7790 82.56 82.19 8.61
9669 21.7810 73.01 83.29 8.10
9670 21.7830 81.56 85.18 8.52
9671 21.7850 77.13 88.18 8.30
9672 21.7870 83.43 92.19 8.61
9673 21.7890 100.99 95.27 9.50
9674 21.7910 93.09 95.09 9.16
9675 21.7930 98.45 93.59 9.38
9676 21.7950 99.53 93.47 9.39
9677 21.7970 93.15 95.59 9.11
9678 21.7990 106.87 100.48 9.79
9679 21.8010 110.09 109.32 9.90
9680 21.8030 122.65 124.12 10.44
9681 21.8050 158.74 146.78 11.92
9682 21.8070 163.93 170.99 12.03
9683 21.8090 173.59 176.50 12.47
9684 21.8110 169.95 157.13 12.37
9685 21.8130 131.72 134.01 10.84
9686 21.8150 120.14 118.32 10.31
9687 21.8170 99.43 109.84 9.40
9688 21.8190 79.39 106.63 8.40
9689 21.8210 88.93 107.83 8.90
9690 21.8230 88.41 113.79 8.85
9691 21.8250 103.05 124.98 9.64
9692 21.8270 124.50 136.83 10.53
9693 21.8290 123.42 138.15 10.44
9694 21.8310 128.80 132.01 10.77
9695 21.8330 109.00 130.10 9.84
9696 21.8350 128.35 133.95 10.69
9697 21.8370 124.69 138.91 10.54
9698 21.8390 125.61 140.52 10.61
9699 21.8410 134.76 145.52 11.00
9700 21.8430 160.98 159.01 12.00
9701 21.8450 163.24 172.24 12.11
9702 21.8470 151.13 172.32 11.57
9703 21.8490 168.29 169.45 12.20
9704 21.8510 169.09 177.10 12.32
9705 21.8530 191.14 202.82 13.07
9706 21.8550 266.29 250.48 15.40
9707 21.8570 282.24 300.04 15.87
9708 21.8590 299.74 295.03 16.35
9709 21.8610 208.71 238.45 13.66
9710 21.8630 175.64 185.11 12.54
9711 21.8650 146.59 150.80 11.48
9712 21.8670 131.00 130.22 10.77
9713 21.8690 114.93 117.86 10.13
9714 21.8710 106.17 110.20 9.76
9715 21.8730 94.71 105.65 9.23
9716 21.8750 96.48 103.12 9.31
9717 21.8770 101.23 102.08 9.48
9718 21.8790 118.46 102.26 10.26
9719 21.8810 119.80 103.60 10.37
9720 21.8830 119.35 106.22 10.30
9721 21.8850 115.97 110.44 10.15
9722 21.8870 110.72 116.84 9.95
9723 21.8890 122.10 126.47 10.42
9724 21.8910 117.50 140.95 10.25
9725 21.8930 161.35 162.24 12.00
9726 21.8950 167.03 190.23 12.25
9727 21.8970 202.83 221.31 13.43
9728 21.8990 232.32 261.68 14.41
9729 21.9010 271.70 327.38 15.57
9730 21.9030 395.24 413.95 18.80
9731 21.9050 465.12 472.09 20.53
9732 21.9070 499.16 474.05 21.10
9733 21.9090 453.90 449.33 20.07
9734 21.9110 355.42 392.83 17.84
9735 21.9130 286.14 316.67 15.98
9736 21.9150 262.37 260.96 15.35
9737 21.9170 218.38 235.88 13.92
9738 21.9190 243.87 232.22 14.71
9739 21.9210 230.35 225.80 14.34
9740 21.9230 181.08 202.89 12.72
9741 21.9250 167.66 182.38 12.23
9742 21.9270 166.40 175.91 12.15
9743 21.9290 194.12 184.96 13.16
9744 21.9310 220.35 209.35 14.05
9745 21.9330 238.19 241.02 14.59
9746 21.9350 277.36 256.62 15.72
9747 21.9370 244.29 242.40 14.73
9748 21.9390 220.94 207.31 13.97
9749 21.9410 172.90 172.33 12.37
9750 21.9430 138.09 148.41 11.12
9751 21.9450 127.79 134.71 10.74
9752 21.9470 125.83 128.13 10.56
9753 21.9490 118.94 127.10 10.26
9754 21.9510 115.37 131.35 10.14
9755 21.9530 140.50 142.16 11.26
9756 21.9550 166.73 162.63 12.15
9757 21.9570 183.52 197.47 12.79
9758 21.9590 231.84 248.42 14.37
9759 21.9610 273.04 294.85 15.61
9760 21.9630 299.30 290.44 16.30
9761 21.9650 259.22 240.80 15.20
9762 21.9670 196.92 192.73 13.28
9763 21.9690 153.62 161.79 11.66
9764 21.9710 139.35 142.76 11.16
9765 21.9730 115.53 127.78 10.16
9766 21.9750 103.87 116.40 9.60
9767 21.9770 104.94 110.11 9.68
9768 21.9790 92.21 108.10 9.11
9769 21.9810 96.24 108.26 9.31
9770 21.9830 112.27 105.72 10.00
9771 21.9850 90.02 99.84 8.99
9772 21.9870 84.13 93.89 8.67
9773 21.9890 93.07 89.33 9.10
9774 21.9910 78.56 86.24 8.41
9775 21.9930 58.52 84.34 7.27
9776 21.9950 80.30 83.28 8.47
9777 21.9970 81.72 82.93 8.57
9778 21.9990 81.34 83.40 8.53
9779 22.0010 77.30 85.11 8.35
9780 22.0030 74.30 88.08 8.13
9781 22.0050 96.83 91.52 9.32
9782 22.0070 93.63 92.49 9.15
9783 22.0090 106.67 91.19 9.74
9784 22.0110 84.44 88.21 8.73
9785 22.0130 81.19 84.73 8.55
9786 22.0150 81.47 82.28 8.53
9787 22.0170 77.91 80.63 8.33
9788 22.0190 88.49 79.54 8.89
9789 22.0210 71.66 78.50 8.04
9790 22.0230 74.67 77.84 8.19
9791 22.0250 77.88 77.48 8.33
9792 22.0270 65.07 77.35 7.65
9793 22.0290 85.23 77.42 8.70
9794 22.0310 76.54 77.68 8.29
9795 22.0330 67.07 78.17 7.76
9796 22.0350 69.98 78.99 7.92
9797 22.0370 63.88 80.30 7.58
9798 22.0390 71.81 82.28 8.00
9799 22.0410 76.41 84.60 8.28
9800 22.0430 98.34 86.03 9.39
9801 22.0450 83.51 86.41 8.68
9802 22.0470 81.54 86.69 8.51
9803 22.0490 79.20 87.01 8.37
9804 22.0510 83.44 88.01 8.65
9805 22.0530 82.45 89.81 8.59
9806 22.0550 87.11 93.19 8.80
9807 22.0570 95.19 98.86 9.21
9808 22.0590 97.20 107.72 9.30
9809 22.0610 113.83 122.29 10.10
9810 22.0630 136.41 144.88 11.06
9811 22.0650 212.62 175.42 13.77
9812 22.0670 210.31 201.38 13.69
9813 22.0690 204.67 198.66 13.50
9814 22.0710 168.57 170.66 12.25
9815 22.0730 115.38 142.12 10.13
9816 22.0750 134.31 122.42 10.98
9817 22.0770 102.83 110.60 9.59
9818 22.0790 105.90 103.99 9.67
9819 22.0810 92.28 101.00 9.08
9820 22.0830 94.57 100.86 9.21
9821 22.0850 94.66 103.61 9.22
9822 22.0870 111.13 110.04 9.95
9823 22.0890 129.46 121.43 10.69
9824 22.0910 146.31 138.07 11.35
9825 22.0930 161.37 152.73 12.01
9826 22.0950 163.28 149.75 12.10
9827 22.0970 134.81 133.74 10.93
9828 22.0990 118.35 120.81 10.25
9829 22.1010 96.08 114.74 9.24
9830 22.1030 121.73 114.55 10.40
9831 22.1050 122.99 119.94 10.48
9832 22.1070 139.27 132.29 11.13
9833 22.1090 145.35 154.35 11.34
9834 22.1110 187.88 185.68 12.87
9835 22.1130 226.04 208.87 14.18
9836 22.1150 212.66 201.22 13.76
9837 22.1170 179.63 178.06 12.60
9838 22.1190 160.84 163.77 11.88
9839 22.1210 151.30 158.92 11.54
9840 22.1230 156.16 151.47 11.74
9841 22.1250 166.45 140.21 12.18
9842 22.1270 122.19 133.74 10.43
9843 22.1290 148.12 134.55 11.43
9844 22.1310 135.57 143.09 10.91
9845 22.1330 136.13 160.83 11.04
9846 22.1350 179.29 190.52 12.65
9847 22.1370 212.87 232.03 13.76
9848 22.1390 263.64 272.15 15.31
9849 22.1410 262.20 290.49 15.18
9850 22.1430 307.06 297.98 16.58
9851 22.1450 342.62 306.60 17.45
9852 22.1470 297.31 285.22 16.22
9853 22.1490 245.94 233.28 14.77
9854 22.1510 182.83 188.69 12.78
9855 22.1530 183.37 161.87 12.73
9856 22.1550 173.39 148.32 12.44
9857 22.1570 167.74 144.13 12.17
9858 22.1590 141.87 147.65 11.17
9859 22.1610 187.72 159.84 12.92
9860 22.1630 189.89 184.26 13.00
9861 22.1650 199.59 226.39 13.34
9862 22.1670 271.27 284.93 15.57
9863 22.1690 347.63 329.07 17.59
9864 22.1710 349.67 326.34 17.53
9865 22.1730 289.56 298.23 16.12
9866 22.1750 259.18 256.76 15.22
9867 22.1770 215.61 211.61 13.85
9868 22.1790 162.39 177.13 11.97
9869 22.1810 172.97 154.88 12.44
9870 22.1830 159.46 141.59 11.94
9871 22.1850 149.33 135.21 11.54
9872 22.1870 143.84 134.70 11.28
9873 22.1890 144.94 140.13 11.35
9874 22.1910 155.37 153.16 11.76
9875 22.1930 191.17 177.67 13.10
9876 22.1950 233.37 219.67 14.44
9877 22.1970 329.17 279.15 17.14
9878 22.1990 304.61 321.00 16.40
9879 22.2010 331.15 296.62 17.22
9880 22.2030 284.61 240.33 15.94
9881 22.2050 237.98 198.79 14.61
9882 22.2070 210.25 178.52 13.63
9883 22.2090 204.01 175.46 13.45
9884 22.2110 226.13 187.48 14.23
9885 22.2130 236.38 213.16 14.56
9886 22.2150 277.32 249.48 15.73
9887 22.2170 317.38 294.77 16.80
9888 22.2190 364.11 323.10 17.97
9889 22.2210 303.32 290.98 16.47
9890 22.2230 268.81 229.25 15.57
9891 22.2250 226.68 180.99 14.27
9892 22.2270 159.14 151.14 11.91
9893 22.2290 142.61 134.37 11.22
9894 22.2310 128.25 124.71 10.72
9895 22.2330 140.51 120.49 11.23
9896 22.2350 130.07 120.81 10.81
9897 22.2370 116.71 126.42 10.17
9898 22.2390 123.81 138.65 10.50
9899 22.2410 156.80 158.93 11.83
9900 22.2430 209.40 183.56 13.70
9901 22.2450 188.38 195.51 13.03
9902 22.2470 181.98 180.81 12.77
9903 22.2490 172.34 153.93 12.32
9904 22.2510 163.25 131.45 12.14
9905 22.2530 119.61 116.50 10.37
9906 22.2550 95.34 107.54 9.26
9907 22.2570 125.76 102.86 10.55
9908 22.2590 119.84 101.57 10.36
9909 22.2610 117.36 103.71 10.22
9910 22.2630 127.93 109.27 10.67
9911 22.2650 99.34 114.79 9.48
9912 22.2670 131.62 113.11 10.82
9913 22.2690 106.30 106.32 9.71
9914 22.2710 105.26 101.50 9.69
9915 22.2730 100.50 99.63 9.51
9916 22.2750 105.07 99.29 9.69
9917 22.2770 106.03 100.60 9.72
9918 22.2790 132.55 104.34 10.86
9919 22.2810 116.70 110.96 10.21
9920 22.2830 149.85 120.00 11.60
9921 22.2850 136.39 125.84 11.05
9922 22.2870 114.82 122.37 10.09
9923 22.2890 111.89 114.60 9.98
9924 22.2910 120.69 109.60 10.39
9925 22.2930 119.08 109.46 10.30
9926 22.2950 113.56 115.35 10.09
9927 22.2970 142.31 128.99 11.24
9928 22.2990 169.50 152.36 12.23
9929 22.3010 203.17 178.61 13.45
9930 22.3030 191.68 182.79 13.08
9931 22.3050 180.30 162.56 12.69
9932 22.3070 141.71 141.10 11.22
9933 22.3090 131.21 122.91 10.78
9934 22.3110 98.19 108.27 9.37
9935 22.3130 116.78 98.31 10.24
9936 22.3150 90.84 92.00 9.01
9937 22.3170 102.29 88.00 9.56
9938 22.3190 87.64 85.39 8.77
9939 22.3210 83.58 83.50 8.65
9940 22.3230 93.20 82.62 9.09
9941 22.3250 93.74 81.93 9.14
9942 22.3270 74.18 81.56 8.11
9943 22.3290 75.99 81.47 8.24
9944 22.3310 85.69 81.62 8.72
9945 22.3330 91.03 82.02 9.00
9946 22.3350 82.05 82.69 8.56
9947 22.3370 93.07 83.68 9.10
9948 22.3390 98.55 85.09 9.36
9949 22.3410 105.80 86.99 9.67
9950 22.3430 78.81 90.21 8.40
9951 22.3450 107.71 94.52 9.78
9952 22.3470 100.81 100.78 9.47
9953 22.3490 113.53 108.63 9.97
9954 22.3510 114.82 115.75 10.11
9955 22.3530 118.80 122.20 10.29
9956 22.3550 121.96 127.24 10.43
9957 22.3570 105.42 127.04 9.65
9958 22.3590 118.47 123.35 10.24
9959 22.3610 124.03 121.44 10.50
9960 22.3630 120.18 123.45 10.30
9961 22.3650 140.38 129.64 11.24
9962 22.3670 147.53 140.61 11.39
9963 22.3690 152.22 157.86 11.58
9964 22.3710 193.66 184.74 13.12
9965 22.3730 228.06 226.82 14.26
9966 22.3750 316.04 294.39 16.77
9967 22.3770 409.61 401.43 18.93
9968 22.3790 561.58 553.08 22.32
9969 22.3810 720.85 695.06 25.22
9970 22.3830 764.47 693.41 26.18
9971 22.3850 500.21 548.46 21.09
9972 22.3870 398.79 396.72 18.84
9973 22.3890 258.60 292.11 15.06
9974 22.3910 240.01 227.49 14.57
9975 22.3930 214.58 188.39 13.86
9976 22.3950 159.00 163.31 11.94
9977 22.3970 146.87 144.17 11.37
9978 22.3990 126.41 128.89 10.61
9979 22.4010 123.94 117.24 10.49
9980 22.4030 125.53 108.79 10.53
9981 22.4050 112.75 102.55 10.03
9982 22.4070 111.70 97.85 9.94
9983 22.4090 89.79 94.21 8.89
9984 22.4110 116.30 91.35 10.13
9985 22.4130 108.34 89.03 9.82
9986 22.4150 102.07 87.09 9.52
9987 22.4170 99.58 85.60 9.37
9988 22.4190 86.48 84.54 8.71
9989 22.4210 98.30 83.56 9.31
9990 22.4230 98.54 82.79 9.33
9991 22.4250 101.44 82.15 9.53
9992 22.4270 90.00 81.65 8.89
9993 22.4290 103.76 81.28 9.61
9994 22.4310 91.80 81.01 8.98
9995 22.4330 87.49 80.84 8.84
9996 22.4350 80.28 80.77 8.46
9997 22.4370 98.09 80.79 9.34
9998 22.4390 91.41 80.91 8.93
9999 22.4410 95.72 81.12 9.18
10000 22.4430 88.39 81.43 8.83
10001 22.4450 98.00 82.44 9.32
10002 22.4470 107.19 82.99 9.75
10003 22.4490 91.51 83.69 8.93
10004 22.4510 110.99 84.49 9.92
10005 22.4530 92.84 85.50 9.07
10006 22.4550 84.01 86.76 8.63
10007 22.4570 88.31 88.29 8.82
10008 22.4590 103.69 90.15 9.58
10009 22.4610 100.97 92.44 9.45
10010 22.4630 102.19 95.29 9.49
10011 22.4650 111.32 98.87 9.96
10012 22.4670 106.22 103.43 9.69
10013 22.4690 94.56 109.34 9.15
10014 22.4710 130.57 117.20 10.79
10015 22.4730 137.17 127.91 11.02
10016 22.4750 135.33 143.03 10.94
10017 22.4770 153.66 165.22 11.65
10018 22.4790 198.80 199.17 13.30
10019 22.4810 236.36 252.66 14.54
10020 22.4830 356.22 337.27 17.79
10021 22.4850 496.84 461.27 21.08
10022 22.4870 666.23 594.59 24.33
10023 22.4890 656.92 634.76 24.23
10024 22.4910 520.71 531.39 21.69
10025 22.4930 392.31 391.35 18.73
10026 22.4950 281.14 289.83 15.81
10027 22.4970 248.99 227.51 14.84
10028 22.4990 221.66 190.57 14.07
10029 22.5010 208.96 169.07 13.69
10030 22.5030 204.79 157.49 13.47
10031 22.5050 159.86 153.32 11.89
10032 22.5070 172.07 155.87 12.38
10033 22.5090 192.73 165.68 13.10
10034 22.5110 206.52 182.79 13.66
10035 22.5130 236.27 203.26 14.45
10036 22.5150 256.54 223.74 15.15
10037 22.5170 275.15 255.71 15.66
10038 22.5190 289.13 315.30 16.06
10039 22.5210 397.34 398.19 19.10
10040 22.5230 421.79 441.00 19.41
10041 22.5250 423.34 385.12 19.37
10042 22.5270 273.00 294.88 15.70
10043 22.5290 247.83 227.97 14.86
10044 22.5310 202.48 187.25 13.58
10045 22.5330 150.45 162.77 11.59
10046 22.5350 148.28 146.87 11.51
10047 22.5370 139.03 136.74 11.11
10048 22.5390 155.21 131.28 11.79
10049 22.5410 158.23 129.61 12.01
10050 22.5430 135.48 130.71 11.02
10051 22.5450 150.80 136.08 11.65
10052 22.5470 150.77 146.01 11.65
10053 22.5490 175.64 162.59 12.57
10054 22.5510 216.70 189.73 14.06
10055 22.5530 228.57 232.42 14.34
10056 22.5550 281.77 292.94 15.90
10057 22.5570 383.74 354.79 18.60
10058 22.5590 449.47 375.84 20.06
10059 22.5610 370.13 350.86 18.38
10060 22.5630 356.25 327.95 17.88
10061 22.5650 340.92 327.62 17.57
10062 22.5670 308.60 316.62 16.60
10063 22.5690 258.07 269.10 15.27
10064 22.5710 222.61 218.53 14.27
10065 22.5730 164.03 185.70 12.15
10066 22.5750 174.65 168.73 12.50
10067 22.5770 187.98 162.94 12.96
10068 22.5790 165.00 164.40 12.16
10069 22.5810 182.25 167.72 12.84
10070 22.5830 176.43 169.36 12.66
10071 22.5850 187.14 173.74 12.95
10072 22.5870 195.05 187.17 13.23
10073 22.5890 223.37 215.01 14.20
10074 22.5910 273.53 263.27 15.70
10075 22.5930 309.18 333.57 16.71
10076 22.5950 422.97 406.20 19.51
10077 22.5970 459.26 459.01 20.28
10078 22.5990 510.35 486.93 21.44
10079 22.6010 491.68 475.12 21.09
10080 22.6030 433.25 449.13 19.73
10081 22.6050 447.24 415.69 20.04
10082 22.6070 359.03 350.54 17.94
10083 22.6090 275.90 279.13 15.71
10084 22.6110 228.32 229.12 14.32
10085 22.6130 213.87 202.13 13.92
10086 22.6150 196.93 190.34 13.29
10087 22.6170 181.28 180.80 12.68
10088 22.6190 151.76 163.32 11.66
10089 22.6210 149.48 142.89 11.62
10090 22.6230 137.09 126.58 11.08
10091 22.6250 126.88 115.23 10.58
10092 22.6270 99.75 107.66 9.51
10093 22.6290 112.39 102.46 10.02
10094 22.6310 107.70 99.00 9.85
10095 22.6330 100.70 96.88 9.51
10096 22.6350 108.24 95.99 9.85
10097 22.6370 87.60 96.49 8.84
10098 22.6390 111.15 98.54 9.95
10099 22.6410 138.54 103.24 11.14
10100 22.6430 117.93 109.19 10.30
10101 22.6450 128.01 111.17 10.63
10102 22.6470 101.64 106.19 9.53
10103 22.6490 124.64 99.63 10.52
10104 22.6510 117.52 95.21 10.28
10105 22.6530 103.68 93.10 9.60
10106 22.6550 104.23 92.64 9.63
10107 22.6570 98.17 94.20 9.35
10108 22.6590 96.88 97.88 9.29
10109 22.6610 122.18 104.46 10.44
10110 22.6630 119.74 114.85 10.37
10111 22.6650 138.35 128.23 11.05
10112 22.6670 144.85 137.85 11.38
10113 22.6690 133.33 134.99 10.92
10114 22.6710 118.35 124.35 10.30
10115 22.6730 135.89 115.23 11.00
10116 22.6750 109.69 111.12 9.86
10117 22.6770 118.53 111.87 10.25
10118 22.6790 101.70 118.34 9.50
10119 22.6810 138.72 130.41 11.06
10120 22.6830 138.64 146.11 11.13
10121 22.6850 180.57 158.90 12.62
10122 22.6870 182.87 166.19 12.76
10123 22.6890 191.20 168.62 12.98
10124 22.6910 175.63 163.58 12.51
10125 22.6930 160.29 159.15 11.98
10126 22.6950 163.85 159.93 11.97
10127 22.6970 155.16 156.74 11.76
10128 22.6990 125.98 142.88 10.61
10129 22.7010 119.36 124.99 10.29
10130 22.7030 89.07 110.25 8.88
10131 22.7050 114.13 100.40 10.12
10132 22.7070 86.77 94.34 8.79
10133 22.7090 103.55 90.55 9.61
10134 22.7110 81.76 87.91 8.51
10135 22.7130 92.50 86.27 9.13
10136 22.7150 77.57 85.69 8.26
10137 22.7170 82.75 85.93 8.59
10138 22.7190 74.22 86.85 8.14
10139 22.7210 91.79 87.95 9.06
10140 22.7230 100.87 88.92 9.50
10141 22.7250 102.12 88.45 9.49
10142 22.7270 90.42 87.01 9.01
10143 22.7290 106.36 86.06 9.73
10144 22.7310 100.91 86.60 9.45
10145 22.7330 105.45 88.39 9.73
10146 22.7350 104.06 91.36 9.61
10147 22.7370 112.14 95.93 9.99
10148 22.7390 113.12 103.50 10.04
10149 22.7410 123.21 116.05 10.50
10150 22.7430 143.15 135.12 11.29
10151 22.7450 161.12 156.14 11.93
10152 22.7470 170.14 163.25 12.39
10153 22.7490 145.24 153.83 11.33
10154 22.7510 153.40 143.43 11.71
10155 22.7530 151.20 134.90 11.66
10156 22.7550 131.17 123.19 10.79
10157 22.7570 131.75 111.32 10.83
10158 22.7590 124.42 103.34 10.50
10159 22.7610 97.28 99.50 9.33
10160 22.7630 112.83 99.59 10.03
10161 22.7650 118.81 103.17 10.27
10162 22.7670 131.45 107.89 10.83
10163 22.7690 126.44 108.57 10.65
10164 22.7710 105.16 104.84 9.72
10165 22.7730 121.06 102.51 10.42
10166 22.7750 105.03 104.10 9.63
10167 22.7770 121.22 110.43 10.44
10168 22.7790 130.06 123.00 10.68
10169 22.7810 157.90 144.11 11.85
10170 22.7830 181.18 172.71 12.75
10171 22.7850 213.32 192.64 13.75
10172 22.7870 218.06 181.84 13.94
10173 22.7890 172.96 152.78 12.39
10174 22.7910 153.08 127.63 11.72
10175 22.7930 149.39 111.19 11.55
10176 22.7950 117.73 101.17 10.22
10177 22.7970 112.57 95.17 10.00
10178 22.7990 117.95 91.70 10.24
10179 22.8010 110.38 89.96 9.92
10180 22.8030 120.96 89.54 10.40
10181 22.8050 108.62 90.41 9.80
10182 22.8070 107.16 92.71 9.78
10183 22.8090 126.27 96.96 10.62
10184 22.8110 129.70 104.17 10.77
10185 22.8130 138.39 116.29 11.14
10186 22.8150 178.57 136.71 12.54
10187 22.8170 192.14 169.58 13.05
10188 22.8190 229.33 210.77 14.25
10189 22.8210 261.76 228.09 15.20
10190 22.8230 212.21 199.00 13.70
10191 22.8250 186.26 157.80 12.84
10192 22.8270 140.11 128.32 11.17
10193 22.8290 142.94 110.14 11.25
10194 22.8310 116.80 99.06 10.19
10195 22.8330 96.61 92.10 9.29
10196 22.8350 106.87 87.60 9.69
10197 22.8370 99.41 84.65 9.40
10198 22.8390 100.59 82.75 9.49
10199 22.8410 91.10 81.78 8.96
10200 22.8430 105.21 81.73 9.67
10201 22.8450 101.40 82.57 9.52
10202 22.8470 116.49 84.19 10.20
10203 22.8490 96.15 85.62 9.21
10204 22.8510 75.40 85.99 8.23
10205 22.8530 95.01 86.92 9.20
10206 22.8550 93.69 89.59 9.10
10207 22.8570 109.91 91.91 9.88
10208 22.8590 108.87 89.72 9.85
10209 22.8610 102.33 84.65 9.51
10210 22.8630 106.95 80.45 9.73
10211 22.8650 89.69 77.76 8.90
10212 22.8670 85.92 76.11 8.78
10213 22.8690 71.02 75.09 7.95
10214 22.8710 85.53 74.46 8.73
10215 22.8730 95.34 74.10 9.24
10216 22.8750 74.52 73.95 8.14
10217 22.8770 82.39 74.33 8.54
10218 22.8790 93.79 74.66 9.15
10219 22.8810 74.26 75.32 8.12
10220 22.8830 88.06 76.50 8.90
10221 22.8850 73.15 78.23 8.03
10222 22.8870 88.39 79.91 8.88
10223 22.8890 91.48 80.15 9.02
10224 22.8910 85.92 79.05 8.75
10225 22.8930 73.69 78.14 8.12
10226 22.8950 70.80 78.10 7.90
10227 22.8970 85.13 77.76 8.71
10228 22.8990 83.60 77.47 8.63
10229 22.9010 89.31 77.61 8.89
10230 22.9030 69.07 78.07 7.84
10231 22.9050 90.40 78.33 8.98
10232 22.9070 69.46 78.60 7.90
10233 22.9090 83.72 79.34 8.59
10234 22.9110 80.94 80.70 8.54
10235 22.9130 95.38 82.76 9.25
10236 22.9150 89.19 85.96 8.87
10237 22.9170 86.49 91.10 8.79
10238 22.9190 96.21 99.39 9.21
10239 22.9210 115.64 112.14 10.16
10240 22.9230 119.88 128.86 10.33
10241 22.9250 154.72 141.46 11.72
10242 22.9270 134.52 137.84 10.95
10243 22.9290 108.77 122.12 9.81
10244 22.9310 112.10 106.72 10.01
10245 22.9330 90.23 95.89 9.02
10246 22.9350 83.31 88.96 8.55
10247 22.9370 88.82 84.58 8.90
10248 22.9390 90.70 81.78 8.98
10249 22.9410 78.36 79.93 8.40
10250 22.9430 85.27 78.71 8.69
10251 22.9450 98.19 77.88 9.42
10252 22.9470 78.72 77.23 8.37
10253 22.9490 69.13 76.91 7.84
10254 22.9510 66.54 76.76 7.74
10255 22.9530 91.74 76.76 9.09
10256 22.9550 88.55 76.89 8.88
10257 22.9570 91.30 77.16 9.01
10258 22.9590 100.19 77.58 9.44
10259 22.9610 83.44 78.17 8.65
10260 22.9630 104.05 79.00 9.67
10261 22.9650 89.94 80.14 9.01
10262 22.9670 98.92 81.75 9.40
10263 22.9690 100.14 84.11 9.38
10264 22.9710 103.15 87.67 9.61
10265 22.9730 95.99 92.75 9.30
10266 22.9750 130.97 98.94 10.77
10267 22.9770 126.15 102.43 10.65
10268 22.9790 117.46 102.16 10.17
10269 22.9810 115.31 102.70 10.15
10270 22.9830 101.77 106.96 9.57
10271 22.9850 133.17 116.20 10.90
10272 22.9870 138.56 131.93 11.13
10273 22.9890 165.07 154.72 12.09
10274 22.9910 169.29 177.69 12.25
10275 22.9930 190.61 183.28 13.12
10276 22.9950 175.99 167.23 12.53
10277 22.9970 166.29 148.23 12.13
10278 22.9990 156.52 136.88 11.77
10279 23.0010 133.69 132.18 10.92
10280 23.0030 142.76 128.05 11.29
10281 23.0050 142.93 121.79 11.27
10282 23.0070 116.11 116.62 10.21
10283 23.0090 123.76 114.66 10.45
10284 23.0110 124.39 116.18 10.61
10285 23.0130 140.03 121.22 11.14
10286 23.0150 124.97 130.50 10.59
10287 23.0170 147.78 145.83 11.39
10288 23.0190 181.71 170.67 12.69
10289 23.0210 214.08 211.19 13.76
10290 23.0230 292.92 275.07 16.20
10291 23.0250 379.07 360.37 18.31
10292 23.0270 407.97 418.94 19.11
10293 23.0290 413.83 385.13 19.19
10294 23.0310 300.81 307.37 16.36
10295 23.0330 245.64 250.60 14.85
10296 23.0350 238.81 224.36 14.53
10297 23.0370 227.99 223.78 14.22
10298 23.0390 258.63 246.57 15.13
10299 23.0410 303.40 291.58 16.46
10300 23.0430 349.92 356.78 17.60
10301 23.0450 403.28 427.96 18.96
10302 23.0470 455.68 439.82 20.15
10303 23.0490 404.14 364.90 18.94
10304 23.0510 281.74 275.72 15.89
10305 23.0530 213.47 213.00 13.78
10306 23.0550 189.23 173.88 12.93
10307 23.0570 146.67 149.00 11.33
10308 23.0590 134.72 132.98 10.88
10309 23.0610 125.36 122.80 10.58
10310 23.0630 127.27 117.01 10.62
10311 23.0650 105.77 115.07 9.73
10312 23.0670 127.43 116.88 10.63
10313 23.0690 119.74 121.58 10.29
10314 23.0710 136.75 125.20 11.04
10315 23.0730 137.40 122.82 11.04
10316 23.0750 116.08 116.21 10.18
10317 23.0770 109.14 108.64 9.83
10318 23.0790 98.78 101.01 9.31
10319 23.0810 86.99 94.90 8.79
10320 23.0830 104.71 90.51 9.66
10321 23.0850 101.18 87.62 9.51
10322 23.0870 93.37 85.63 9.03
10323 23.0890 81.64 84.28 8.50
10324 23.0910 74.65 83.40 8.16
10325 23.0930 90.21 82.90 8.97
10326 23.0950 96.95 82.68 9.26
10327 23.0970 87.19 83.53 8.80
10328 23.0990 83.17 84.25 8.54
10329 23.1010 94.52 85.65 9.17
10330 23.1030 91.79 88.09 9.02
10331 23.1050 106.57 92.15 9.76
10332 23.1070 100.61 97.98 9.47
10333 23.1090 123.05 103.65 10.40
10334 23.1110 117.96 104.69 10.26
10335 23.1130 121.85 100.29 10.45
10336 23.1150 108.11 95.14 9.82
10337 23.1170 85.73 91.85 8.66
10338 23.1190 88.69 90.39 8.83
10339 23.1210 86.67 89.74 8.77
10340 23.1230 104.26 88.85 9.64
10341 23.1250 81.72 87.80 8.54
10342 23.1270 88.08 87.24 8.83
10343 23.1290 91.32 87.33 8.93
10344 23.1310 92.22 88.07 9.09
10345 23.1330 104.46 89.42 9.62
10346 23.1350 109.46 91.47 9.86
10347 23.1370 98.85 94.37 9.32
10348 23.1390 102.81 98.46 9.51
10349 23.1410 90.14 104.26 8.92
10350 23.1430 102.90 112.72 9.56
10351 23.1450 108.93 125.50 9.87
10352 23.1470 153.46 145.50 11.64
10353 23.1490 168.09 177.30 12.15
10354 23.1510 252.28 225.18 14.93
10355 23.1530 266.74 279.45 15.44
10356 23.1550 290.49 299.43 16.00
10357 23.1570 270.75 267.91 15.46
10358 23.1590 226.60 224.44 14.13
10359 23.1610 183.97 188.71 12.78
10360 23.1630 170.91 159.94 12.33
10361 23.1650 141.78 139.20 11.23
10362 23.1670 120.25 126.16 10.31
10363 23.1690 128.79 118.81 10.63
10364 23.1710 119.35 115.64 10.33
10365 23.1730 111.48 115.94 9.87
10366 23.1750 129.01 119.25 10.69
10367 23.1770 127.91 124.23 10.63
10368 23.1790 151.27 127.76 11.51
10369 23.1810 162.09 130.34 12.05
10370 23.1830 130.98 135.77 10.74
10371 23.1850 142.78 147.97 11.25
10372 23.1870 171.38 170.54 12.33
10373 23.1890 176.32 206.85 12.43
10374 23.1910 233.23 252.28 14.51
10375 23.1930 274.82 276.97 15.47
10376 23.1950 261.00 255.63 15.13
10377 23.1970 188.55 216.93 12.91
10378 23.1990 181.20 190.43 12.62
10379 23.2010 177.50 181.79 12.61
10380 23.2030 194.05 190.18 13.06
10381 23.2050 219.37 215.00 13.95
10382 23.2070 247.13 242.24 14.81
10383 23.2090 236.71 239.31 14.41
10384 23.2110 187.10 206.51 13.04
10385 23.2130 177.79 175.22 12.46
10386 23.2150 143.23 156.44 11.25
10387 23.2170 145.74 148.31 11.36
10388 23.2190 148.90 148.05 11.48
10389 23.2210 145.92 153.35 11.44
10390 23.2230 157.64 161.44 11.83
10391 23.2250 166.76 172.56 12.19
10392 23.2270 198.38 192.51 13.30
10393 23.2290 224.33 226.34 14.05
10394 23.2310 261.85 265.44 15.45
10395 23.2330 283.00 278.35 15.79
10396 23.2350 259.70 261.72 15.22
10397 23.2370 248.41 250.70 14.84
10398 23.2390 251.46 263.04 14.95
10399 23.2410 282.23 304.23 15.96
10400 23.2430 363.94 380.68 18.03
10401 23.2450 442.51 493.80 19.91
10402 23.2470 615.27 623.64 23.43
10403 23.2490 721.59 702.42 25.26
10404 23.2510 684.09 666.65 24.96
10405 23.2530 542.07 566.08 22.10
10406 23.2550 450.78 474.49 20.08
10407 23.2570 410.63 416.13 19.22
10408 23.2590 351.30 386.50 17.64
10409 23.2610 359.50 373.17 18.14
10410 23.2630 344.84 355.89 17.55
10411 23.2650 304.58 324.91 16.54
10412 23.2670 260.84 273.60 15.26
10413 23.2690 226.79 219.75 14.23
10414 23.2710 163.34 179.60 12.15
10415 23.2730 138.81 152.83 11.10
10416 23.2750 135.54 134.93 11.00
10417 23.2770 123.68 122.55 10.49
10418 23.2790 113.18 113.65 9.96
10419 23.2810 86.31 107.03 8.85
10420 23.2830 90.85 101.98 9.02
10421 23.2850 93.31 98.01 9.12
10422 23.2870 104.88 94.84 9.70
10423 23.2890 96.35 92.26 9.24
10424 23.2910 96.13 90.14 9.29
10425 23.2930 82.67 88.38 8.58
10426 23.2950 91.82 86.92 9.05
10427 23.2970 96.50 85.71 9.30
10428 23.2990 72.07 84.71 7.98
10429 23.3010 78.06 84.03 8.44
10430 23.3030 100.02 83.43 9.45
10431 23.3050 94.17 83.06 9.21
10432 23.3070 91.56 82.96 9.07
10433 23.3090 92.23 83.27 9.07
10434 23.3110 100.16 84.19 9.50
10435 23.3130 89.25 85.50 8.96
10436 23.3150 80.48 86.05 8.45
10437 23.3170 75.50 85.30 8.21
10438 23.3190 79.64 84.32 8.38
10439 23.3210 77.38 84.11 8.38
10440 23.3230 72.38 84.78 8.02
10441 23.3250 86.17 85.24 8.77
10442 23.3270 96.24 84.19 9.28
10443 23.3290 104.48 82.45 9.60
10444 23.3310 73.24 81.23 8.18
10445 23.3330 85.66 80.62 8.74
10446 23.3350 91.36 80.84 9.04
10447 23.3370 93.42 81.23 9.13
10448 23.3390 66.88 82.16 7.70
10449 23.3410 77.70 83.89 8.35
10450 23.3430 93.54 86.82 9.17
10451 23.3450 95.11 91.17 9.17
10452 23.3470 94.00 95.51 9.19
10453 23.3490 110.39 96.66 9.88
10454 23.3510 93.41 95.64 9.22
10455 23.3530 103.91 95.72 9.64
10456 23.3550 88.09 97.88 8.87
10457 23.3570 87.88 100.49 8.85
10458 23.3590 99.99 99.96 9.39
10459 23.3610 119.22 95.91 10.41
10460 23.3630 82.90 91.25 8.59
10461 23.3650 98.34 87.02 9.36
10462 23.3670 93.58 83.94 9.19
10463 23.3690 75.01 81.92 8.19
10464 23.3710 89.99 80.65 9.05
10465 23.3730 94.38 79.86 9.18
10466 23.3750 84.75 79.39 8.66
10467 23.3770 82.99 79.13 8.63
10468 23.3790 76.48 79.02 8.25
10469 23.3810 79.11 79.03 8.49
10470 23.3830 81.23 79.15 8.54
10471 23.3850 94.59 79.23 9.20
10472 23.3870 97.69 79.54 9.39
10473 23.3890 83.49 79.95 8.61
10474 23.3910 87.76 80.48 8.93
10475 23.3930 95.12 81.15 9.25
10476 23.3950 116.04 82.01 10.16
10477 23.3970 88.50 83.13 8.91
10478 23.3990 82.08 84.57 8.52
10479 23.4010 89.54 85.87 8.99
10480 23.4030 100.33 86.67 9.52
10481 23.4050 106.69 87.82 9.76
10482 23.4070 106.10 89.60 9.77
10483 23.4090 95.13 91.95 9.18
10484 23.4110 105.70 95.16 9.76
10485 23.4130 108.99 99.44 9.88
10486 23.4150 110.83 105.09 9.95
10487 23.4170 115.28 113.07 10.17
10488 23.4190 119.15 124.43 10.27
10489 23.4210 151.24 141.40 11.69
10490 23.4230 146.06 167.60 11.49
10491 23.4250 226.52 208.08 14.19
10492 23.4270 287.35 268.17 16.08
10493 23.4290 384.81 339.49 18.51
10494 23.4310 428.55 377.69 19.70
10495 23.4330 328.23 343.76 17.27
10496 23.4350 271.84 276.07 15.57
10497 23.4370 225.61 219.96 14.20
10498 23.4390 149.32 184.54 11.53
10499 23.4410 147.08 165.58 11.46
10500 23.4430 162.42 157.57 12.06
10501 23.4450 180.38 154.88 12.67
10502 23.4470 156.26 154.10 11.83
10503 23.4490 170.93 158.50 12.32
10504 23.4510 198.93 172.82 13.35
10505 23.4530 204.59 198.17 13.57
10506 23.4550 239.43 223.54 14.59
10507 23.4570 231.82 230.65 14.42
10508 23.4590 220.60 227.52 13.97
10509 23.4610 244.44 230.52 14.73
10510 23.4630 240.46 229.64 14.77
10511 23.4650 221.86 212.07 14.05
10512 23.4670 180.99 188.83 12.71
10513 23.4690 196.21 169.91 13.26
10514 23.4710 175.72 157.70 12.53
10515 23.4730 166.84 154.69 12.22
10516 23.4750 157.34 161.87 11.83
10517 23.4770 193.69 179.01 13.16
10518 23.4790 210.47 199.28 13.64
10519 23.4810 230.53 204.99 14.34
10520 23.4830 214.61 194.71 13.93
10521 23.4850 213.80 187.16 13.78
10522 23.4870 197.78 193.29 13.28
10523 23.4890 229.86 214.89 14.30
10524 23.4910 245.56 252.38 14.75
10525 23.4930 307.53 306.45 16.67
10526 23.4950 370.62 358.21 18.18
10527 23.4970 375.90 360.52 18.35
10528 23.4990 364.10 305.74 17.96
10529 23.5010 276.44 240.79 15.68
10530 23.5030 219.56 191.72 14.07
10531 23.5050 146.82 159.42 11.46
10532 23.5070 129.56 138.92 10.76
10533 23.5090 109.09 125.95 9.84
10534 23.5110 107.70 117.36 9.77
10535 23.5130 111.78 111.27 10.06
10536 23.5150 114.72 107.36 10.10
10537 23.5170 105.99 105.73 9.72
10538 23.5190 114.36 106.20 10.04
10539 23.5210 109.44 107.64 9.86
10540 23.5230 101.48 108.13 9.56
10541 23.5250 101.16 106.83 9.44
10542 23.5270 108.10 104.79 9.82
10543 23.5290 91.01 102.03 8.98
10544 23.5310 108.55 98.15 9.78
10545 23.5330 97.63 94.55 9.37
10546 23.5350 88.10 92.26 8.84
10547 23.5370 93.16 91.12 9.18
10548 23.5390 83.48 90.88 8.62
10549 23.5410 97.29 91.43 9.26
10550 23.5430 91.19 92.83 9.08
10551 23.5450 100.04 95.34 9.42
10552 23.5470 100.16 99.46 9.47
10553 23.5490 95.62 106.04 9.21
10554 23.5510 120.60 116.33 10.32
10555 23.5530 137.29 131.95 11.09
10556 23.5550 157.98 153.11 11.89
10557 23.5570 160.01 169.83 11.93
10558 23.5590 162.30 165.53 12.03
10559 23.5610 148.42 146.66 11.43
10560 23.5630 127.69 128.23 10.75
10561 23.5650 129.91 114.65 10.78
10562 23.5670 101.84 105.98 9.55
10563 23.5690 105.82 100.89 9.71
10564 23.5710 109.95 98.19 9.89
10565 23.5730 104.82 97.20 9.71
10566 23.5750 111.65 97.72 9.96
10567 23.5770 113.36 99.72 10.09
10568 23.5790 111.21 103.44 9.91
10569 23.5810 115.47 108.42 10.09
10570 23.5830 111.53 113.02 10.02
10571 23.5850 116.12 115.63 10.19
10572 23.5870 129.78 115.48 10.81
10573 23.5890 108.22 114.89 9.78
10574 23.5910 116.46 116.72 10.14
10575 23.5930 117.47 122.08 10.28
10576 23.5950 136.26 131.71 11.02
10577 23.5970 148.59 147.51 11.50
10578 23.5990 162.74 173.01 12.02
10579 23.6010 209.64 213.70 13.59
10580 23.6030 277.08 276.52 15.84
10581 23.6050 377.64 352.79 18.39
10582 23.6070 369.13 392.55 18.16
10583 23.6090 378.34 353.34 18.40
10584 23.6110 285.12 281.74 15.81
10585 23.6130 229.57 225.55 14.38
10586 23.6150 213.42 192.72 13.85
10587 23.6170 195.70 177.99 13.15
10588 23.6190 203.52 174.10 13.41
10589 23.6210 172.49 170.30 12.34
10590 23.6230 142.46 161.64 11.32
10591 23.6250 161.20 155.26 11.93
10592 23.6270 167.37 156.29 12.27
10593 23.6290 166.24 166.37 12.11
10594 23.6310 167.21 186.47 12.11
10595 23.6330 202.49 215.78 13.48
10596 23.6350 260.82 255.01 15.28
10597 23.6370 276.20 308.55 15.65
10598 23.6390 346.99 352.54 17.54
10599 23.6410 346.72 338.17 17.47
10600 23.6430 303.74 284.51 16.48
10601 23.6450 231.84 241.39 14.35
10602 23.6470 223.67 222.39 14.18
10603 23.6490 223.19 226.33 14.08
10604 23.6510 235.82 253.38 14.39
10605 23.6530 310.43 303.69 16.69
10606 23.6550 387.08 362.72 18.67
10607 23.6570 371.37 389.53 18.21
10608 23.6590 373.17 355.68 18.18
10609 23.6610 269.94 288.29 15.35
10610 23.6630 208.36 228.10 13.72
10611 23.6650 159.14 187.07 11.92
10612 23.6670 169.15 161.88 12.27
10613 23.6690 143.80 147.47 11.28
10614 23.6710 127.57 139.63 10.60
10615 23.6730 145.51 134.77 11.41
10616 23.6750 138.51 128.62 11.12
10617 23.6770 125.96 121.81 10.59
10618 23.6790 118.82 116.99 10.24
10619 23.6810 130.14 115.08 10.68
10620 23.6830 116.64 116.53 10.25
10621 23.6850 116.97 122.14 10.24
10622 23.6870 124.98 133.62 10.56
10623 23.6890 142.53 152.80 11.23
10624 23.6910 151.58 177.49 11.56
10625 23.6930 196.37 191.34 13.23
10626 23.6950 162.06 177.76 12.05
10627 23.6970 159.27 151.17 11.86
10628 23.6990 133.39 129.25 10.89
10629 23.7010 93.53 114.87 9.03
10630 23.7030 98.81 105.93 9.43
10631 23.7050 94.34 100.17 9.22
10632 23.7070 89.93 96.07 8.94
10633 23.7090 101.24 93.13 9.49
10634 23.7110 92.76 91.18 9.04
10635 23.7130 98.21 90.10 9.37
10636 23.7150 73.73 89.79 8.12
10637 23.7170 90.13 90.29 8.96
10638 23.7190 78.47 91.72 8.36
10639 23.7210 97.25 94.79 9.25
10640 23.7230 89.70 100.19 8.95
10641 23.7250 95.62 109.15 9.23
10642 23.7270 104.53 121.47 9.68
10643 23.7290 113.94 130.06 10.06
10644 23.7310 111.37 125.25 9.87
10645 23.7330 96.63 113.49 9.29
10646 23.7350 89.28 104.31 8.96
10647 23.7370 100.34 99.63 9.47
10648 23.7390 92.62 98.40 9.08
10649 23.7410 97.05 100.49 9.24
10650 23.7430 95.28 106.44 9.21
10651 23.7450 101.53 116.72 9.52
10652 23.7470 132.11 127.38 10.87
10653 23.7490 127.72 127.25 10.66
10654 23.7510 111.66 115.60 9.88
10655 23.7530 104.96 103.44 9.70
10656 23.7550 98.64 95.13 9.41
10657 23.7570 88.62 89.95 8.86
10658 23.7590 96.38 86.76 9.28
10659 23.7610 85.35 84.68 8.66
10660 23.7630 73.33 83.10 8.09
10661 23.7650 78.88 82.20 8.42
10662 23.7670 69.76 81.62 7.91
10663 23.7690 84.12 81.28 8.66
10664 23.7710 76.51 81.12 8.22
10665 23.7730 86.09 80.99 8.79
10666 23.7750 82.75 81.03 8.60
10667 23.7770 91.22 81.20 9.06
10668 23.7790 80.13 81.51 8.44
10669 23.7810 74.93 82.05 8.11
10670 23.7830 82.92 82.84 8.65
10671 23.7850 84.52 83.94 8.68
10672 23.7870 118.91 85.59 10.30
10673 23.7890 85.75 87.71 8.76
10674 23.7910 105.98 90.78 9.70
10675 23.7930 110.57 95.30 9.96
10676 23.7950 83.08 102.16 8.63
10677 23.7970 106.25 112.70 9.76
10678 23.7990 126.83 128.20 10.64
10679 23.8010 179.93 148.70 12.51
10680 23.8030 150.57 168.24 11.68
10681 23.8050 189.95 178.46 13.04
10682 23.8070 159.15 171.21 11.94
10683 23.8090 180.02 150.85 12.62
10684 23.8110 146.71 130.42 11.43
10685 23.8130 130.46 114.68 10.81
10686 23.8150 98.78 103.83 9.42
10687 23.8170 101.39 96.69 9.53
10688 23.8190 105.84 92.08 9.73
10689 23.8210 93.40 89.05 9.06
10690 23.8230 84.17 87.02 8.73
10691 23.8250 89.63 85.67 8.94
10692 23.8270 98.97 84.80 9.41
10693 23.8290 94.15 84.29 9.15
10694 23.8310 85.07 83.89 8.66
10695 23.8330 81.14 83.96 8.55
10696 23.8350 97.26 84.29 9.33
10697 23.8370 88.28 84.91 8.89
10698 23.8390 86.32 85.87 8.77
10699 23.8410 95.05 87.26 9.18
10700 23.8430 91.99 89.22 9.10
10701 23.8450 96.05 92.04 9.29
10702 23.8470 91.92 96.12 9.06
10703 23.8490 108.62 102.22 9.85
10704 23.8510 106.15 111.56 9.67
10705 23.8530 134.32 125.98 10.98
10706 23.8550 133.91 147.16 10.98
10707 23.8570 166.11 172.41 12.19
10708 23.8590 187.37 187.20 12.98
10709 23.8610 180.35 178.13 12.59
10710 23.8630 146.78 156.89 11.47
10711 23.8650 144.90 139.42 11.38
10712 23.8670 105.72 128.81 9.77
10713 23.8690 118.51 123.69 10.28
10714 23.8710 119.51 124.22 10.26
10715 23.8730 144.00 131.04 11.32
10716 23.8750 136.59 141.55 11.10
10717 23.8770 139.99 145.20 11.20
10718 23.8790 109.85 135.57 9.91
10719 23.8810 118.36 122.79 10.21
10720 23.8830 94.22 114.34 9.20
10721 23.8850 94.08 110.56 9.21
10722 23.8870 95.63 110.70 9.23
10723 23.8890 105.98 114.51 9.72
10724 23.8910 119.39 122.75 10.22
10725 23.8930 141.21 137.18 11.26
10726 23.8950 149.08 159.99 11.61
10727 23.8970 194.91 190.03 13.21
10728 23.8990 211.40 216.49 13.71
10729 23.9010 217.54 222.47 13.79
10730 23.9030 185.44 203.63 12.89
10731 23.9050 169.03 177.83 12.35
10732 23.9070 148.73 157.32 11.52
10733 23.9090 126.46 142.32 10.56
10734 23.9110 105.15 134.23 9.63
10735 23.9130 127.55 134.30 10.63
10736 23.9150 144.67 140.91 11.40
10737 23.9170 150.32 148.18 11.56
10738 23.9190 167.18 148.11 12.21
10739 23.9210 142.83 137.48 11.17
10740 23.9230 120.95 122.46 10.41
10741 23.9250 122.90 110.32 10.52
10742 23.9270 100.14 102.31 9.47
10743 23.9290 85.08 97.32 8.74
10744 23.9310 85.78 94.28 8.71
10745 23.9330 92.91 92.55 9.16
10746 23.9350 80.53 91.78 8.48
10747 23.9370 88.72 91.83 8.93
10748 23.9390 85.69 92.70 8.72
10749 23.9410 105.91 94.70 9.64
10750 23.9430 91.94 97.85 9.03
10751 23.9450 115.89 102.90 10.25
10752 23.9470 109.30 110.70 9.90
10753 23.9490 118.56 122.12 10.28
10754 23.9510 128.78 138.37 10.67
10755 23.9530 151.57 161.25 11.65
10756 23.9550 193.25 186.98 13.20
10757 23.9570 184.58 197.63 12.85
10758 23.9590 168.51 180.95 12.28
10759 23.9610 145.38 153.09 11.30
10760 23.9630 139.53 129.92 11.19
10761 23.9650 119.74 114.16 10.35
10762 23.9670 102.97 103.97 9.63
10763 23.9690 95.10 97.28 9.16
10764 23.9710 78.15 92.87 8.27
10765 23.9730 78.44 89.81 8.41
10766 23.9750 86.34 87.70 8.82
10767 23.9770 80.84 86.23 8.52
10768 23.9790 70.14 85.25 7.93
10769 23.9810 84.32 84.67 8.65
10770 23.9830 83.54 84.52 8.66
10771 23.9850 86.35 84.81 8.82
10772 23.9870 83.01 85.69 8.65
10773 23.9890 80.02 87.30 8.44
10774 23.9910 96.92 89.82 9.24
10775 23.9930 89.22 92.46 8.98
10776 23.9950 84.15 92.68 8.69
10777 23.9970 90.31 90.10 8.97
10778 23.9990 82.79 87.37 8.58
10779 24.0010 82.75 85.68 8.56
10780 24.0030 68.36 84.96 7.85
10781 24.0050 72.20 85.02 8.04
10782 24.0070 75.83 85.83 8.28
10783 24.0090 76.90 87.55 8.27
10784 24.0110 76.20 90.57 8.23
10785 24.0130 84.49 95.24 8.69
10786 24.0150 99.73 101.15 9.48
10787 24.0170 90.92 105.05 9.05
10788 24.0190 87.87 102.98 8.85
10789 24.0210 96.96 97.29 9.27
10790 24.0230 86.96 92.21 8.83
10791 24.0250 85.30 88.86 8.74
10792 24.0270 74.14 86.87 8.15
10793 24.0290 88.89 85.88 8.89
10794 24.0310 65.32 85.42 7.62
10795 24.0330 78.94 85.37 8.44
10796 24.0350 79.19 85.69 8.40
10797 24.0370 81.22 86.46 8.56
10798 24.0390 81.53 87.70 8.56
10799 24.0410 79.49 89.60 8.40
10800 24.0430 80.15 92.38 8.50
10801 24.0450 93.39 96.00 9.14
10802 24.0470 85.14 99.21 8.75
10803 24.0490 105.08 100.33 9.69
10804 24.0510 95.78 100.45 9.22
10805 24.0530 107.90 101.61 9.86
10806 24.0550 99.50 104.62 9.48
10807 24.0570 100.61 109.87 9.49
10808 24.0590 129.60 118.08 10.76
10809 24.0610 131.13 130.73 10.67
10810 24.0630 147.30 150.57 11.51
10811 24.0650 180.86 181.81 12.73
10812 24.0670 211.48 227.81 13.79
10813 24.0690 275.79 280.36 15.65
10814 24.0710 303.77 317.10 16.40
10815 24.0730 343.63 334.36 17.52
10816 24.0750 325.66 322.05 17.15
10817 24.0770 231.34 270.79 14.40
10818 24.0790 202.95 214.68 13.45
10819 24.0810 139.96 174.88 11.10
10820 24.0830 140.13 150.36 11.17
10821 24.0850 118.89 136.20 10.35
10822 24.0870 108.13 128.87 9.86
10823 24.0890 113.83 126.72 10.08
10824 24.0910 128.81 129.46 10.61
10825 24.0930 127.47 138.10 10.68
10826 24.0950 151.47 155.10 11.64
10827 24.0970 167.12 183.64 12.21
10828 24.0990 186.31 220.61 12.84
10829 24.1010 231.36 241.08 14.26
10830 24.1030 219.51 220.21 13.92
10831 24.1050 176.23 181.10 12.54
10832 24.1070 136.81 149.65 11.09
10833 24.1090 122.63 129.49 10.39
10834 24.1110 123.06 117.34 10.43
10835 24.1130 95.19 110.34 9.17
10836 24.1150 92.39 106.95 9.10
10837 24.1170 109.61 106.10 9.92
10838 24.1190 106.95 106.53 9.77
10839 24.1210 101.77 106.69 9.41
10840 24.1230 89.50 104.48 8.92
10841 24.1250 98.68 100.17 9.37
10842 24.1270 81.74 96.25 8.54
10843 24.1290 94.51 93.73 9.19
10844 24.1310 80.52 92.63 8.38
10845 24.1330 93.42 93.18 9.13
10846 24.1350 85.79 95.48 8.78
10847 24.1370 95.79 99.05 9.28
10848 24.1390 100.15 101.35 9.43
10849 24.1410 96.94 99.44 9.22
10850 24.1430 77.95 95.82 8.34
10851 24.1450 78.85 93.44 8.38
10852 24.1470 78.96 92.23 8.42
10853 24.1490 96.02 90.86 9.22
10854 24.1510 84.33 89.24 8.60
10855 24.1530 76.76 88.14 8.26
10856 24.1550 72.41 87.66 8.05
10857 24.1570 78.48 87.72 8.39
10858 24.1590 84.79 88.36 8.69
10859 24.1610 72.68 89.72 7.99
10860 24.1630 76.89 92.05 8.28
10861 24.1650 72.90 95.55 8.09
10862 24.1670 75.43 99.81 8.27
10863 24.1690 94.44 102.77 9.16
10864 24.1710 101.40 103.05 9.46
10865 24.1730 98.44 102.81 9.40
10866 24.1750 100.86 104.14 9.49
10867 24.1770 85.71 107.54 8.75
10868 24.1790 116.87 113.64 10.20
10869 24.1810 107.84 123.37 9.72
10870 24.1830 135.49 137.36 11.02
10871 24.1850 157.81 153.64 11.89
10872 24.1870 174.02 170.39 12.53
10873 24.1890 180.11 191.65 12.68
10874 24.1910 208.38 218.19 13.55
10875 24.1930 233.33 236.29 14.41
10876 24.1950 217.75 226.06 13.96
10877 24.1970 178.91 192.51 12.64
10878 24.1990 149.63 158.87 11.49
10879 24.2010 132.05 134.72 10.81
10880 24.2030 111.62 119.00 9.97
10881 24.2050 84.74 108.82 8.71
10882 24.2070 96.56 102.11 9.36
10883 24.2090 91.25 97.57 9.00
10884 24.2110 80.16 94.47 8.43
10885 24.2130 81.25 92.25 8.54
10886 24.2150 93.75 90.70 9.17
10887 24.2170 90.13 89.65 9.03
10888 24.2190 92.23 89.00 9.04
10889 24.2210 105.22 88.68 9.65
10890 24.2230 96.14 88.67 9.27
10891 24.2250 92.37 88.97 9.12
10892 24.2270 101.82 89.61 9.55
10893 24.2290 96.72 90.54 9.26
10894 24.2310 104.14 92.09 9.61
10895 24.2330 94.75 94.18 9.23
10896 24.2350 107.50 97.43 9.84
10897 24.2370 116.00 102.18 10.18
10898 24.2390 101.42 109.34 9.48
10899 24.2410 114.80 120.35 10.08
10900 24.2430 119.05 137.27 10.32
10901 24.2450 155.19 162.06 11.78
10902 24.2470 194.53 191.49 13.27
10903 24.2490 211.19 208.62 13.70
10904 24.2510 186.35 196.81 12.87
10905 24.2530 185.46 169.38 12.90
10906 24.2550 148.79 145.08 11.61
10907 24.2570 117.34 129.12 10.26
10908 24.2590 119.61 120.29 10.29
10909 24.2610 97.66 116.97 9.29
10910 24.2630 100.60 118.26 9.49
10911 24.2650 121.59 123.59 10.46
10912 24.2670 124.05 128.57 10.60
10913 24.2690 119.35 126.77 10.35
10914 24.2710 127.98 120.86 10.69
10915 24.2730 105.00 117.37 9.71
10916 24.2750 115.03 118.44 10.18
10917 24.2770 113.56 124.71 10.15
10918 24.2790 118.30 137.39 10.24
10919 24.2810 124.70 157.38 10.50
10920 24.2830 174.85 180.47 12.44
10921 24.2850 209.37 197.68 13.66
10922 24.2870 218.02 201.77 13.99
10923 24.2890 198.92 186.20 13.27
10924 24.2910 169.96 161.90 12.26
10925 24.2930 137.46 143.58 11.08
10926 24.2950 127.61 134.50 10.67
10927 24.2970 129.21 133.80 10.80
10928 24.2990 137.51 140.81 11.05
10929 24.3010 139.18 153.48 11.10
10930 24.3030 162.17 162.68 12.03
10931 24.3050 161.66 157.79 12.08
10932 24.3070 115.75 144.62 10.24
10933 24.3090 122.12 132.08 10.40
10934 24.3110 122.05 120.70 10.43
10935 24.3130 119.67 110.97 10.32
10936 24.3150 96.88 104.22 9.34
10937 24.3170 87.49 100.07 8.88
10938 24.3190 89.71 97.83 8.94
10939 24.3210 92.41 97.08 9.01
10940 24.3230 94.63 97.70 9.18
10941 24.3250 81.97 99.89 8.60
10942 24.3270 111.65 103.48 10.00
10943 24.3290 99.94 107.75 9.41
10944 24.3310 110.19 111.69 9.87
10945 24.3330 112.94 117.19 10.08
10946 24.3350 118.30 127.63 10.33
10947 24.3370 172.28 144.63 12.47
10948 24.3390 194.52 162.82 13.12
10949 24.3410 156.58 165.72 11.74
10950 24.3430 155.26 148.87 11.75
10951 24.3450 118.05 128.71 10.28
10952 24.3470 118.36 114.17 10.21
10953 24.3490 105.11 105.00 9.64
10954 24.3510 106.96 99.34 9.72
10955 24.3530 107.14 95.85 9.76
10956 24.3550 109.75 93.74 9.92
10957 24.3570 95.26 92.60 9.21
10958 24.3590 105.12 92.22 9.62
10959 24.3610 102.27 92.53 9.51
10960 24.3630 95.50 93.53 9.22
10961 24.3650 110.77 95.49 9.94
10962 24.3670 103.18 98.64 9.63
10963 24.3690 107.83 103.93 9.72
10964 24.3710 119.93 112.40 10.30
10965 24.3730 133.58 125.22 10.83
10966 24.3750 144.31 140.95 11.40
10967 24.3770 148.56 149.89 11.46
10968 24.3790 182.54 143.01 12.66
10969 24.3810 138.93 128.92 11.01
10970 24.3830 103.26 117.73 9.56
10971 24.3850 87.85 111.32 8.84
10972 24.3870 100.02 108.77 9.48
10973 24.3890 133.21 109.23 10.81
10974 24.3910 110.39 112.25 9.80
10975 24.3930 121.67 117.21 10.39
10976 24.3950 114.60 123.97 10.15
10977 24.3970 146.97 133.57 11.42
10978 24.3990 143.19 145.45 11.23
10979 24.4010 147.36 159.06 11.39
10980 24.4030 167.70 180.42 12.11
10981 24.4050 226.39 218.11 14.26
10982 24.4070 247.14 276.56 14.83
10983 24.4090 349.94 338.14 17.51
10984 24.4110 377.91 346.35 18.24
10985 24.4130 257.04 289.52 15.07
10986 24.4150 213.69 223.79 13.79
10987 24.4170 165.59 177.03 12.12
10988 24.4190 143.67 147.42 11.23
10989 24.4210 129.26 128.73 10.64
10990 24.4230 106.76 116.54 9.71
10991 24.4250 106.47 108.20 9.77
10992 24.4270 108.99 102.39 9.83
10993 24.4290 94.08 98.23 9.10
10994 24.4310 85.50 95.15 8.64
10995 24.4330 75.69 92.84 8.17
10996 24.4350 100.47 91.07 9.50
10997 24.4370 111.71 89.71 9.91
10998 24.4390 87.24 88.67 8.76
10999 24.4410 82.17 87.88 8.48
11000 24.4430 87.00 87.26 8.74
11001 24.4450 83.42 87.11 8.65
11002 24.4470 78.08 86.86 8.33
11003 24.4490 100.91 86.76 9.37
11004 24.4510 86.36 86.78 8.71
11005 24.4530 91.61 86.97 9.01
11006 24.4550 93.76 87.26 9.15
11007 24.4570 82.89 87.79 8.55
11008 24.4590 103.08 88.54 9.50
11009 24.4610 95.65 89.56 9.19
11010 24.4630 88.82 91.19 8.85
11011 24.4650 83.32 93.04 8.65
11012 24.4670 93.75 95.58 9.14
11013 24.4690 102.73 99.09 9.51
11014 24.4710 108.64 104.05 9.80
11015 24.4730 122.18 111.24 10.42
11016 24.4750 123.32 122.22 10.52
11017 24.4770 135.61 139.04 10.97
11018 24.4790 150.40 164.10 11.53
11019 24.4810 167.82 196.35 12.17
11020 24.4830 203.85 221.66 13.42
11021 24.4850 197.87 218.63 13.36
11022 24.4870 196.26 192.96 13.20
11023 24.4890 158.83 165.77 11.83
11024 24.4910 135.80 146.05 11.02
11025 24.4930 123.16 134.49 10.43
11026 24.4950 118.96 130.01 10.31
11027 24.4970 116.38 131.88 10.20
11028 24.4990 143.37 140.31 11.20
11029 24.5010 162.81 155.70 12.01
11030 24.5030 182.65 175.08 12.74
11031 24.5050 199.41 186.48 13.33
11032 24.5070 175.01 177.56 12.50
11033 24.5090 139.24 155.70 11.09
11034 24.5110 113.93 134.89 10.08
11035 24.5130 103.45 119.73 9.59
11036 24.5150 105.40 109.60 9.74
11037 24.5170 102.96 102.92 9.57
11038 24.5190 101.44 99.01 9.49
11039 24.5210 106.40 96.04 9.77
11040 24.5230 99.72 94.05 9.40
11041 24.5250 97.71 92.78 9.40
11042 24.5270 78.98 92.09 8.43
11043 24.5290 81.46 91.97 8.50
11044 24.5310 85.11 92.51 8.74
11045 24.5330 97.91 93.93 9.38
11046 24.5350 100.35 96.56 9.43
11047 24.5370 102.95 100.27 9.65
11048 24.5390 97.72 102.90 9.29
11049 24.5410 89.92 101.54 8.99
11050 24.5430 83.12 97.98 8.59
11051 24.5450 87.37 95.06 8.94
11052 24.5470 94.34 93.49 9.20
11053 24.5490 78.96 92.95 8.40
11054 24.5510 81.27 93.28 8.58
11055 24.5530 108.04 94.20 9.88
11056 24.5550 95.09 95.97 9.31
11057 24.5570 117.02 98.74 10.25
11058 24.5590 109.84 103.06 9.93
11059 24.5610 117.59 109.49 10.27
11060 24.5630 127.78 117.20 10.75
11061 24.5650 110.43 121.86 9.96
11062 24.5670 108.16 120.96 9.92
11063 24.5690 110.88 119.40 9.94
11064 24.5710 122.97 120.88 10.54
11065 24.5730 116.45 127.13 10.27
11066 24.5750 137.47 138.91 11.20
11067 24.5770 157.41 157.49 11.94
11068 24.5790 179.19 182.21 12.61
11069 24.5810 218.18 205.44 14.02
11070 24.5830 202.90 214.32 13.49
11071 24.5850 197.59 203.71 13.37
11072 24.5870 175.64 184.13 12.61
11073 24.5890 157.72 168.51 11.90
11074 24.5910 126.74 161.46 10.66
11075 24.5930 173.18 163.08 12.54
11076 24.5950 154.50 173.44 11.82
11077 24.5970 178.07 195.18 12.61
11078 24.5990 237.68 233.87 14.60
11079 24.6010 313.91 292.92 16.82
11080 24.6030 325.23 353.70 17.04
11081 24.6050 376.70 362.70 18.47
11082 24.6070 309.53 312.87 16.80
11083 24.6090 273.96 257.90 15.61
11084 24.6110 225.57 223.39 14.18
11085 24.6130 200.78 210.32 13.38
11086 24.6150 203.23 216.72 13.59
11087 24.6170 269.80 243.97 15.51
11088 24.6190 306.18 293.86 16.52
11089 24.6210 329.43 349.79 17.14
11090 24.6230 370.69 359.58 18.19
11091 24.6250 340.50 309.41 17.49
11092 24.6270 219.69 251.40 14.01
11093 24.6290 199.21 211.47 13.33
11094 24.6310 162.34 184.93 12.02
11095 24.6330 162.77 165.59 12.06
11096 24.6350 153.84 151.07 11.73
11097 24.6370 121.76 140.67 10.47
11098 24.6390 121.89 134.91 10.45
11099 24.6410 128.84 133.71 10.64
11100 24.6430 126.34 135.95 10.64
11101 24.6450 122.10 138.05 10.48
11102 24.6470 114.08 135.24 10.05
11103 24.6490 127.98 128.55 10.71
11104 24.6510 113.56 122.46 10.03
11105 24.6530 98.38 118.70 9.40
11106 24.6550 109.13 117.24 9.90
11107 24.6570 117.16 117.70 10.30
11108 24.6590 123.35 119.81 10.47
11109 24.6610 127.53 123.90 10.60
11110 24.6630 126.89 130.30 10.59
11111 24.6650 122.54 139.85 10.52
11112 24.6670 144.67 154.04 11.33
11113 24.6690 155.11 175.31 11.73
11114 24.6710 203.07 206.98 13.39
11115 24.6730 256.06 251.32 15.13
11116 24.6750 266.31 304.56 15.44
11117 24.6770 374.83 359.12 18.28
11118 24.6790 405.21 406.91 18.99
11119 24.6810 402.11 441.52 18.89
11120 24.6830 416.10 460.46 19.23
11121 24.6850 429.13 452.96 19.60
11122 24.6870 395.75 428.71 18.81
11123 24.6890 356.98 389.07 17.89
11124 24.6910 284.91 326.92 15.84
11125 24.6930 221.74 263.02 14.09
11126 24.6950 215.76 214.12 13.88
11127 24.6970 178.82 180.68 12.63
11128 24.6990 150.61 158.68 11.57
11129 24.7010 147.59 144.28 11.45
11130 24.7030 151.07 135.03 11.52
11131 24.7050 131.31 129.44 10.84
11132 24.7070 118.96 126.91 10.30
11133 24.7090 111.23 127.22 9.99
11134 24.7110 115.13 130.90 10.09
11135 24.7130 123.23 139.07 10.49
11136 24.7150 146.96 153.46 11.48
11137 24.7170 131.96 175.04 10.87
11138 24.7190 193.28 197.64 13.10
11139 24.7210 197.08 204.37 13.21
11140 24.7230 181.34 192.19 12.70
11141 24.7250 180.29 178.93 12.68
11142 24.7270 172.14 172.81 12.41
11143 24.7290 163.06 167.17 12.06
11144 24.7310 146.98 154.51 11.36
11145 24.7330 142.86 138.83 11.21
11146 24.7350 117.18 126.47 10.26
11147 24.7370 110.62 118.91 9.92
11148 24.7390 94.21 115.58 9.15
11149 24.7410 127.03 115.94 10.58
11150 24.7430 104.45 119.25 9.65
11151 24.7450 129.65 122.78 10.76
11152 24.7470 113.15 121.49 10.07
11153 24.7490 112.55 114.79 10.07
11154 24.7510 99.36 107.26 9.38
11155 24.7530 95.85 101.53 9.24
11156 24.7550 83.23 97.64 8.60
11157 24.7570 92.38 95.21 9.14
11158 24.7590 94.11 93.76 9.10
11159 24.7610 85.60 93.05 8.75
11160 24.7630 85.46 92.99 8.68
11161 24.7650 95.40 93.33 9.23
11162 24.7670 85.67 94.72 8.74
11163 24.7690 115.90 97.22 10.19
11164 24.7710 105.90 101.26 9.67
11165 24.7730 106.27 107.54 9.72
11166 24.7750 111.44 115.93 10.01
11167 24.7770 127.81 125.03 10.68
11168 24.7790 115.78 131.87 10.18
11169 24.7810 134.26 131.79 10.87
11170 24.7830 122.58 127.05 10.46
11171 24.7850 100.36 124.88 9.48
11172 24.7870 124.52 127.00 10.54
11173 24.7890 128.57 128.19 10.68
11174 24.7910 127.47 124.19 10.67
11175 24.7930 124.92 116.34 10.49
11176 24.7950 125.79 108.12 10.60
11177 24.7970 105.67 101.88 9.71
11178 24.7990 98.90 97.96 9.38
11179 24.8010 78.63 95.95 8.34
11180 24.8030 109.66 95.51 9.83
11181 24.8050 101.81 96.54 9.58
11182 24.8070 103.50 98.99 9.67
11183 24.8090 83.45 102.51 8.62
11184 24.8110 97.58 106.74 9.31
11185 24.8130 110.50 111.46 9.94
11186 24.8150 97.63 118.22 9.34
11187 24.8170 121.75 124.93 10.46
11188 24.8190 104.93 127.34 9.63
11189 24.8210 111.27 123.97 9.91
11190 24.8230 122.94 115.79 10.43
11191 24.8250 97.68 106.52 9.34
11192 24.8270 94.27 99.16 9.18
11193 24.8290 73.06 94.12 8.09
11194 24.8310 88.02 90.80 8.79
11195 24.8330 73.32 88.61 8.07
11196 24.8350 85.89 87.14 8.77
11197 24.8370 94.19 86.14 9.16
11198 24.8390 98.48 85.47 9.37
11199 24.8410 81.27 84.94 8.46
11200 24.8430 77.66 84.70 8.30
11201 24.8450 94.37 84.63 9.14
11202 24.8470 83.15 84.73 8.64
11203 24.8490 99.46 84.94 9.41
11204 24.8510 90.80 85.43 8.93
11205 24.8530 83.28 86.22 8.59
11206 24.8550 106.66 87.42 9.79
11207 24.8570 94.37 89.21 9.15
11208 24.8590 79.50 91.85 8.38
11209 24.8610 92.85 96.24 9.04
11210 24.8630 112.34 102.98 9.91
11211 24.8650 118.36 111.96 10.29
11212 24.8670 127.01 120.54 10.62
11213 24.8690 142.32 121.68 11.29
11214 24.8710 130.41 115.68 10.72
11215 24.8730 116.90 107.65 10.13
11216 24.8750 105.27 101.10 9.73
11217 24.8770 96.04 96.96 9.26
11218 24.8790 104.94 94.94 9.67
11219 24.8810 114.46 94.58 10.03
11220 24.8830 96.16 95.52 9.24
11221 24.8850 102.00 97.48 9.56
11222 24.8870 109.23 100.88 9.89
11223 24.8890 119.51 105.89 10.32
11224 24.8910 107.42 110.95 9.74
11225 24.8930 111.63 113.33 9.93
11226 24.8950 100.79 114.75 9.47
11227 24.8970 136.61 117.06 11.02
11228 24.8990 120.13 116.36 10.32
11229 24.9010 121.03 111.42 10.31
11230 24.9030 121.94 106.82 10.37
11231 24.9050 109.15 104.57 9.86
11232 24.9070 99.45 102.68 9.43
11233 24.9090 95.52 99.16 9.20
11234 24.9110 106.75 95.41 9.70
11235 24.9130 87.61 92.98 8.76
11236 24.9150 90.33 92.07 8.99
11237 24.9170 96.02 92.58 9.28
11238 24.9190 99.06 94.74 9.37
11239 24.9210 98.77 96.80 9.32
11240 24.9230 92.02 96.90 9.04
11241 24.9250 100.38 94.45 9.47
11242 24.9270 96.65 91.51 9.31
11243 24.9290 85.97 89.68 8.75
11244 24.9310 83.34 88.37 8.59
11245 24.9330 94.37 87.62 9.16
11246 24.9350 101.46 87.23 9.54
11247 24.9370 81.95 87.54 8.60
11248 24.9390 103.25 87.62 9.56
11249 24.9410 98.63 87.84 9.34
11250 24.9430 89.44 88.16 8.93
11251 24.9450 85.06 88.65 8.71
11252 24.9470 88.98 89.28 8.97
11253 24.9490 84.50 90.05 8.62
11254 24.9510 105.06 91.52 9.65
11255 24.9530 95.39 92.66 9.19
11256 24.9550 106.02 94.08 9.75
11257 24.9570 97.13 95.82 9.34
11258 24.9590 98.97 97.97 9.33
11259 24.9610 95.53 100.67 9.23
11260 24.9630 100.68 104.09 9.43
11261 24.9650 98.84 108.54 9.47
11262 24.9670 107.87 114.43 9.87
11263 24.9690 126.10 122.45 10.58
11264 24.9710 126.91 133.74 10.59
11265 24.9730 147.22 150.14 11.45
11266 24.9750 173.98 174.84 12.55
11267 24.9770 207.28 212.69 13.62
11268 24.9790 269.43 269.87 15.47
11269 24.9810 356.19 346.03 17.78
11270 24.9830 396.31 410.96 18.75
11271 24.9850 375.68 407.88 18.38
11272 24.9870 329.41 340.54 17.25
11273 24.9890 262.11 266.38 15.25
11274 24.9910 160.95 211.71 11.94
11275 24.9930 170.00 175.72 12.29
11276 24.9950 168.19 152.53 12.28
11277 24.9970 143.65 137.38 11.36
11278 24.9990 120.67 127.22 10.39
11279 25.0010 127.90 120.28 10.63
11280 25.0030 126.41 115.48 10.60
11281 25.0050 111.70 112.18 10.01
11282 25.0070 116.22 109.97 10.20
11283 25.0090 111.21 108.62 9.91
11284 25.0110 114.17 107.96 10.05
11285 25.0130 127.88 107.90 10.63
11286 25.0150 119.33 108.41 10.36
11287 25.0170 131.95 109.49 10.86
11288 25.0190 113.69 111.18 10.08
11289 25.0210 110.46 113.58 9.88
11290 25.0230 128.04 116.83 10.59
11291 25.0250 111.36 121.16 10.01
11292 25.0270 146.60 126.95 11.44
11293 25.0290 136.91 134.74 11.02
11294 25.0310 162.15 145.46 12.00
11295 25.0330 172.04 160.90 12.36
11296 25.0350 182.59 182.99 12.79
11297 25.0370 196.12 216.02 13.22
11298 25.0390 254.87 265.68 15.07
11299 25.0410 309.10 337.32 16.48
11300 25.0430 390.12 423.76 18.57
11301 25.0450 496.32 485.19 21.11
11302 25.0470 487.45 480.20 20.88
11303 25.0490 461.22 438.76 20.27
11304 25.0510 418.32 400.11 19.23
11305 25.0530 376.54 356.52 18.25
11306 25.0550 300.29 306.34 16.36
11307 25.0570 265.31 264.14 15.37
11308 25.0590 223.14 232.13 13.99
11309 25.0610 213.07 209.74 13.74
11310 25.0630 184.43 197.28 12.70
11311 25.0650 184.46 193.64 12.85
11312 25.0670 165.54 197.94 12.16
11313 25.0690 209.75 209.61 13.61
11314 25.0710 213.05 230.35 13.67
11315 25.0730 261.34 266.03 15.22
11316 25.0750 303.18 325.24 16.51
11317 25.0770 450.89 415.12 20.00
11318 25.0790 545.18 517.15 22.06
11319 25.0810 587.99 556.06 22.74
11320 25.0830 487.25 497.21 20.84
11321 25.0850 399.53 417.54 18.95
11322 25.0870 378.87 370.88 18.43
11323 25.0890 378.17 364.18 18.26
11324 25.0910 397.55 396.32 18.85
11325 25.0930 484.37 467.64 20.65
11326 25.0950 565.18 563.99 22.67
11327 25.0970 712.18 632.51 25.24
11328 25.0990 661.27 636.08 24.31
11329 25.1010 603.84 608.20 23.02
11330 25.1030 548.62 598.94 22.06
11331 25.1050 599.92 626.79 23.30
11332 25.1070 646.15 648.00 24.00
11333 25.1090 603.75 625.18 23.05
11334 25.1110 541.16 595.90 21.90
11335 25.1130 539.82 584.43 21.94
11336 25.1150 546.09 591.23 22.23
11337 25.1170 623.97 617.79 23.68
11338 25.1190 611.68 609.51 23.20
11339 25.1210 516.69 521.92 21.24
11340 25.1230 399.73 408.05 18.82
11341 25.1250 320.99 318.05 17.04
11342 25.1270 264.80 257.36 15.31
11343 25.1290 238.59 217.57 14.51
11344 25.1310 205.97 191.25 13.44
11345 25.1330 170.06 173.81 12.26
11346 25.1350 162.11 162.62 12.06
11347 25.1370 170.95 156.65 12.30
11348 25.1390 175.06 155.55 12.40
11349 25.1410 180.79 160.04 12.60
11350 25.1430 178.65 169.70 12.54
11351 25.1450 178.93 177.77 12.74
11352 25.1470 177.39 172.37 12.56
11353 25.1490 165.19 156.20 12.03
11354 25.1510 185.96 140.88 12.81
11355 25.1530 131.15 129.99 10.72
11356 25.1550 135.58 122.36 11.07
11357 25.1570 116.61 116.99 10.19
11358 25.1590 123.48 113.09 10.42
11359 25.1610 118.64 110.94 10.16
11360 25.1630 129.43 109.90 10.66
11361 25.1650 120.31 109.49 10.36
11362 25.1670 110.89 109.11 9.88
11363 25.1690 100.35 108.07 9.40
11364 25.1710 117.05 107.11 10.16
11365 25.1730 122.48 106.77 10.35
11366 25.1750 120.05 107.21 10.40
11367 25.1770 110.23 108.52 9.87
11368 25.1790 138.72 110.85 11.03
11369 25.1810 116.16 114.52 10.07
11370 25.1830 122.41 120.15 10.34
11371 25.1850 134.11 128.70 10.94
11372 25.1870 139.13 142.03 11.08
11373 25.1890 140.38 162.94 11.10
11374 25.1910 179.52 194.71 12.66
11375 25.1930 239.73 235.18 14.46
11376 25.1950 262.06 262.15 15.35
11377 25.1970 253.75 248.04 14.97
11378 25.1990 196.20 211.35 13.18
11379 25.2010 172.16 181.11 12.27
11380 25.2030 164.17 163.95 12.02
11381 25.2050 164.26 157.72 12.13
11382 25.2070 181.44 160.63 12.73
11383 25.2090 180.46 172.37 12.56
11384 25.2110 213.82 192.37 13.74
11385 25.2130 238.89 213.96 14.46
11386 25.2150 213.25 221.51 13.80
11387 25.2170 230.85 208.56 14.31
11388 25.2190 203.17 189.59 13.34
11389 25.2210 150.84 177.55 11.59
11390 25.2230 170.21 176.40 12.26
11391 25.2250 179.41 187.48 12.74
11392 25.2270 207.06 211.29 13.60
11393 25.2290 227.77 242.11 14.22
11394 25.2310 271.24 255.61 15.44
11395 25.2330 237.73 235.90 14.57
11396 25.2350 203.94 204.78 13.61
11397 25.2370 194.19 182.32 13.15
11398 25.2390 181.14 169.03 12.64
11399 25.2410 174.63 157.72 12.53
11400 25.2430 153.61 146.25 11.66
11401 25.2450 152.70 137.37 11.77
11402 25.2470 144.55 133.07 11.37
11403 25.2490 147.90 132.68 11.43
11404 25.2510 132.67 136.12 10.95
11405 25.2530 171.17 144.07 12.36
11406 25.2550 173.56 157.87 12.59
11407 25.2570 181.97 178.67 12.80
11408 25.2590 222.83 203.34 14.04
11409 25.2610 247.20 219.64 14.91
11410 25.2630 219.14 216.16 13.98
11411 25.2650 215.49 200.38 14.04
11412 25.2670 196.70 187.61 13.25
11413 25.2690 179.46 184.13 12.66
11414 25.2710 210.23 191.50 13.63
11415 25.2730 226.71 211.16 14.18
11416 25.2750 278.12 245.13 15.92
11417 25.2770 296.77 291.34 16.36
11418 25.2790 348.12 335.10 17.50
11419 25.2810 364.73 363.25 18.06
11420 25.2830 383.37 390.80 18.51
11421 25.2850 425.56 430.44 19.71
11422 25.2870 486.27 463.11 20.88
11423 25.2890 471.85 452.90 20.52
11424 25.2910 397.15 390.34 18.91
11425 25.2930 307.97 314.01 16.52
11426 25.2950 234.96 254.22 14.58
11427 25.2970 213.13 215.49 13.83
11428 25.2990 203.45 193.17 13.48
11429 25.3010 170.66 183.20 12.26
11430 25.3030 168.36 183.81 12.23
11431 25.3050 175.13 194.99 12.62
11432 25.3070 219.04 216.08 14.04
11433 25.3090 259.88 240.23 15.25
11434 25.3110 265.45 248.30 15.46
11435 25.3130 254.88 227.94 15.03
11436 25.3150 209.22 196.43 13.74
11437 25.3170 168.40 171.28 12.31
11438 25.3190 170.59 155.73 12.31
11439 25.3210 160.51 148.23 11.94
11440 25.3230 142.00 147.40 11.22
11441 25.3250 171.92 153.21 12.50
11442 25.3270 166.84 166.65 12.25
11443 25.3290 202.90 188.00 13.46
11444 25.3310 211.53 212.54 13.70
11445 25.3330 213.52 230.88 13.81
11446 25.3350 239.13 234.23 14.66
11447 25.3370 240.22 224.96 14.66
11448 25.3390 205.59 205.53 13.56
11449 25.3410 196.91 180.41 13.19
11450 25.3430 164.31 158.45 12.10
11451 25.3450 154.40 143.54 11.80
11452 25.3470 134.26 135.47 11.01
11453 25.3490 137.84 133.21 11.05
11454 25.3510 145.57 134.96 11.38
11455 25.3530 145.18 136.02 11.32
11456 25.3550 152.85 131.27 11.76
11457 25.3570 137.23 123.33 11.09
11458 25.3590 127.01 116.99 10.68
11459 25.3610 116.53 113.44 10.19
11460 25.3630 133.05 112.83 10.91
11461 25.3650 140.63 114.94 11.25
11462 25.3670 111.42 120.15 10.05
11463 25.3690 176.80 128.77 12.55
11464 25.3710 163.92 139.88 12.08
11465 25.3730 149.46 150.82 11.56
11466 25.3750 155.28 157.76 11.86
11467 25.3770 171.39 158.60 12.45
11468 25.3790 186.88 155.41 12.84
11469 25.3810 160.98 150.86 12.00
11470 25.3830 150.93 148.27 11.63
11471 25.3850 154.96 147.95 11.86
11472 25.3870 153.84 145.29 11.78
11473 25.3890 158.41 136.33 11.91
11474 25.3910 166.14 125.27 12.14
11475 25.3930 117.49 116.77 10.24
11476 25.3950 124.63 111.56 10.67
11477 25.3970 134.51 108.98 10.99
11478 25.3990 123.10 108.32 10.50
11479 25.4010 116.82 109.35 10.20
11480 25.4030 128.87 111.30 10.76
11481 25.4050 119.01 114.19 10.38
11482 25.4070 122.12 118.18 10.49
11483 25.4090 165.67 123.10 12.14
11484 25.4110 151.03 128.53 11.59
11485 25.4130 147.98 136.63 11.49
11486 25.4150 163.17 150.22 12.15
11487 25.4170 179.02 172.68 12.67
11488 25.4190 227.47 209.15 14.25
11489 25.4210 274.06 265.46 15.64
11490 25.4230 371.90 337.30 18.21
11491 25.4250 433.55 382.49 19.78
11492 25.4270 397.93 352.70 18.94
11493 25.4290 328.94 282.59 17.13
11494 25.4310 241.31 223.00 14.61
11495 25.4330 196.75 184.30 13.28
11496 25.4350 159.91 161.55 11.96
11497 25.4370 151.25 149.53 11.64
11498 25.4390 158.30 145.60 11.85
11499 25.4410 162.37 148.98 11.94
11500 25.4430 145.46 159.84 11.40
11501 25.4450 184.99 177.02 12.91
11502 25.4470 198.17 195.96 13.32
11503 25.4490 217.79 201.51 13.97
11504 25.4510 183.70 182.89 12.79
11505 25.4530 175.29 156.23 12.46
11506 25.4550 140.91 135.46 11.27
11507 25.4570 127.77 121.77 10.71
11508 25.4590 133.70 113.13 10.91
11509 25.4610 115.92 107.84 10.10
11510 25.4630 120.04 104.67 10.34
11511 25.4650 126.95 103.07 10.68
11512 25.4670 116.70 102.82 10.27
11513 25.4690 134.69 103.77 10.98
11514 25.4710 122.06 106.32 10.33
11515 25.4730 115.25 110.04 10.16
11516 25.4750 129.91 115.22 10.82
11517 25.4770 131.19 122.73 10.85
11518 25.4790 137.33 131.09 11.00
11519 25.4810 150.91 136.13 11.57
11520 25.4830 161.29 137.26 11.94
11521 25.4850 133.56 140.20 10.96
11522 25.4870 158.63 150.60 11.94
11523 25.4890 165.16 171.73 12.13
11524 25.4910 230.98 203.92 14.27
11525 25.4930 278.35 232.78 15.75
11526 25.4950 260.60 228.96 15.29
11527 25.4970 248.77 195.05 14.93
11528 25.4990 174.92 160.29 12.47
11529 25.5010 142.63 135.95 11.23
11530 25.5030 135.42 120.17 10.94
11531 25.5050 121.27 110.04 10.43
11532 25.5070 110.57 103.31 10.02
11533 25.5090 113.78 98.66 10.06
11534 25.5110 116.38 95.39 10.11
11535 25.5130 100.64 93.09 9.49
11536 25.5150 106.67 91.52 9.82
11537 25.5170 97.75 90.23 9.37
11538 25.5190 119.12 89.27 10.28
11539 25.5210 105.36 88.58 9.65
11540 25.5230 99.21 88.14 9.36
11541 25.5250 85.41 87.90 8.75
11542 25.5270 105.26 87.89 9.74
11543 25.5290 86.93 88.26 8.83
11544 25.5310 107.18 89.29 9.74
11545 25.5330 94.81 90.51 9.15
11546 25.5350 92.42 91.83 9.13
11547 25.5370 103.88 92.34 9.63
11548 25.5390 102.87 91.62 9.56
11549 25.5410 95.18 90.52 9.17
11550 25.5430 105.05 89.83 9.63
11551 25.5450 100.56 89.67 9.53
11552 25.5470 108.40 90.03 9.90
11553 25.5490 117.93 90.91 10.24
11554 25.5510 92.53 92.41 9.06
11555 25.5530 95.10 94.59 9.20
11556 25.5550 116.59 97.26 10.19
11557 25.5570 122.61 99.43 10.51
11558 25.5590 102.32 100.24 9.52
11559 25.5610 121.30 100.42 10.33
11560 25.5630 114.94 101.35 10.09
11561 25.5650 111.59 103.76 10.02
11562 25.5670 115.36 107.98 10.14
11563 25.5690 123.31 114.29 10.46
11564 25.5710 125.58 122.37 10.52
11565 25.5730 138.78 131.52 11.09
11566 25.5750 151.54 140.31 11.61
11567 25.5770 144.42 150.00 11.42
11568 25.5790 156.15 166.08 11.82
11569 25.5810 212.76 192.44 13.61
11570 25.5830 248.60 226.68 14.90
11571 25.5850 294.14 252.08 16.27
11572 25.5870 252.43 245.83 15.04
11573 25.5890 217.00 213.65 13.89
11574 25.5910 175.33 179.28 12.47
11575 25.5930 143.03 153.95 11.25
11576 25.5950 141.87 137.49 11.31
11577 25.5970 113.75 127.55 10.12
11578 25.5990 120.18 122.25 10.34
11579 25.6010 127.10 120.51 10.53
11580 25.6030 127.67 122.06 10.68
11581 25.6050 141.40 127.26 11.23
11582 25.6070 132.21 136.75 10.89
11583 25.6090 164.65 150.05 12.12
11584 25.6110 174.80 163.42 12.37
11585 25.6130 156.50 169.45 11.80
11586 25.6150 158.57 164.68 11.93
11587 25.6170 152.90 154.98 11.71
11588 25.6190 146.42 144.86 11.43
11589 25.6210 146.16 136.89 11.36
11590 25.6230 134.01 133.21 10.90
11591 25.6250 150.00 134.43 11.60
11592 25.6270 139.79 140.91 11.29
11593 25.6290 150.80 153.26 11.58
11594 25.6310 179.68 171.78 12.54
11595 25.6330 225.81 194.58 14.18
11596 25.6350 220.06 210.57 14.04
11597 25.6370 212.88 204.95 13.80
11598 25.6390 197.72 187.41 13.32
11599 25.6410 183.50 175.29 12.68
11600 25.6430 167.53 173.42 12.17
11601 25.6450 165.81 182.38 12.19
11602 25.6470 198.41 203.54 13.42
11603 25.6490 211.37 239.56 13.68
11604 25.6510 277.71 289.00 15.72
11605 25.6530 325.60 335.23 16.96
11606 25.6550 341.24 352.03 17.48
11607 25.6570 337.71 330.50 17.44
11608 25.6590 297.61 288.64 16.34
11609 25.6610 248.09 251.97 14.74
11610 25.6630 238.02 231.37 14.56
11611 25.6650 235.09 227.63 14.55
11612 25.6670 241.97 240.34 14.66
11613 25.6690 243.79 269.11 14.76
11614 25.6710 295.11 308.69 16.12
11615 25.6730 340.58 348.05 17.44
11616 25.6750 390.55 387.41 18.71
11617 25.6770 468.07 439.57 20.53
11618 25.6790 478.15 499.98 20.61
11619 25.6810 566.69 522.81 22.45
11620 25.6830 475.38 469.61 20.55
11621 25.6850 360.93 383.57 17.95
11622 25.6870 315.03 317.45 16.86
11623 25.6890 248.63 283.64 14.94
11624 25.6910 247.72 279.29 14.78
11625 25.6930 295.95 300.65 16.11
11626 25.6950 334.31 334.39 17.37
11627 25.6970 338.67 347.71 17.39
11628 25.6990 297.01 327.33 16.31
11629 25.7010 281.08 291.30 15.69
11630 25.7030 236.43 249.37 14.50
11631 25.7050 203.71 212.35 13.49
11632 25.7070 173.86 186.92 12.47
11633 25.7090 157.06 170.03 11.86
11634 25.7110 136.47 155.52 10.98
11635 25.7130 129.50 140.88 10.66
11636 25.7150 145.08 128.07 11.40
11637 25.7170 121.62 118.36 10.46
11638 25.7190 102.48 111.35 9.58
11639 25.7210 96.74 106.16 9.24
11640 25.7230 108.09 102.25 9.76
11641 25.7250 100.89 99.25 9.51
11642 25.7270 101.64 96.85 9.54
11643 25.7290 85.13 94.92 8.75
11644 25.7310 84.11 93.33 8.60
11645 25.7330 85.75 92.02 8.73
11646 25.7350 83.08 90.98 8.63
11647 25.7370 110.07 90.08 9.94
11648 25.7390 87.71 89.33 8.84
11649 25.7410 93.68 88.70 9.08
11650 25.7430 97.32 88.22 9.26
11651 25.7450 88.54 87.87 8.93
11652 25.7470 71.99 87.65 8.04
11653 25.7490 74.25 87.59 8.15
11654 25.7510 90.50 87.74 8.94
11655 25.7530 90.27 88.14 8.96
11656 25.7550 85.62 88.73 8.75
11657 25.7570 87.93 89.28 8.89
11658 25.7590 81.73 89.66 8.59
11659 25.7610 85.16 90.29 8.65
11660 25.7630 84.12 91.63 8.60
11661 25.7650 90.15 94.03 8.99
11662 25.7670 100.06 97.79 9.44
11663 25.7690 93.24 102.78 9.14
11664 25.7710 98.39 107.15 9.32
11665 25.7730 107.71 107.37 9.77
11666 25.7750 102.39 103.79 9.55
11667 25.7770 73.68 99.72 8.11
11668 25.7790 102.68 97.07 9.56
11669 25.7810 96.40 95.76 9.20
11670 25.7830 88.01 95.27 8.83
11671 25.7850 89.57 95.36 8.98
11672 25.7870 83.85 95.94 8.65
11673 25.7890 97.08 96.90 9.34
11674 25.7910 92.26 97.35 9.04
11675 25.7930 94.17 96.84 9.16
11676 25.7950 85.19 96.36 8.73
11677 25.7970 94.29 96.77 9.23
11678 25.7990 104.66 98.33 9.66
11679 25.8010 110.06 101.17 9.85
11680 25.8030 105.33 105.54 9.69
11681 25.8050 96.58 112.33 9.32
11682 25.8070 117.98 122.66 10.25
11683 25.8090 144.12 138.55 11.36
11684 25.8110 154.03 162.56 11.63
11685 25.8130 212.63 195.09 13.76
11686 25.8150 236.82 225.46 14.58
11687 25.8170 231.73 229.44 14.44
11688 25.8190 207.80 203.43 13.69
11689 25.8210 177.55 171.32 12.51
11690 25.8230 138.59 147.17 11.11
11691 25.8250 144.62 131.97 11.37
11692 25.8270 127.22 123.10 10.69
11693 25.8290 150.51 118.74 11.60
11694 25.8310 100.00 117.90 9.38
11695 25.8330 135.26 120.40 10.98
11696 25.8350 141.89 126.77 11.26
11697 25.8370 151.29 138.40 11.62
11698 25.8390 161.77 156.98 12.03
11699 25.8410 190.59 181.32 12.97
11700 25.8430 226.77 200.15 14.16
11701 25.8450 221.67 199.26 14.09
11702 25.8470 182.68 187.94 12.81
11703 25.8490 181.72 183.15 12.72
11704 25.8510 162.40 191.97 11.94
11705 25.8530 197.70 212.52 13.30
11706 25.8550 190.43 230.91 13.08
11707 25.8570 257.98 224.85 15.19
11708 25.8590 185.40 195.61 12.86
11709 25.8610 165.33 164.23 12.09
11710 25.8630 133.02 140.87 10.89
11711 25.8650 125.70 125.18 10.62
11712 25.8670 120.86 115.14 10.43
11713 25.8690 105.18 108.74 9.70
11714 25.8710 107.90 104.81 9.76
11715 25.8730 109.39 102.73 9.85
11716 25.8750 97.94 102.25 9.39
11717 25.8770 94.78 103.50 9.19
11718 25.8790 118.80 106.79 10.33
11719 25.8810 113.97 112.91 9.98
11720 25.8830 123.98 122.65 10.48
11721 25.8850 126.07 135.33 10.68
11722 25.8870 159.27 146.06 11.87
11723 25.8890 128.76 147.40 10.75
11724 25.8910 161.04 139.91 11.91
11725 25.8930 121.23 130.15 10.39
11726 25.8950 118.53 122.54 10.28
11727 25.8970 130.85 119.39 10.86
11728 25.8990 122.35 120.13 10.46
11729 25.9010 116.04 121.96 10.07
11730 25.9030 131.68 123.35 10.78
11731 25.9050 132.28 124.91 10.94
11732 25.9070 115.57 124.19 10.10
11733 25.9090 122.82 117.89 10.50
11734 25.9110 105.45 108.74 9.66
11735 25.9130 98.21 100.74 9.29
11736 25.9150 95.16 95.04 9.22
11737 25.9170 72.97 91.09 8.09
11738 25.9190 76.33 88.38 8.27
11739 25.9210 94.63 86.48 9.11
11740 25.9230 88.41 85.14 8.84
11741 25.9250 91.16 84.14 9.02
11742 25.9270 77.90 83.39 8.36
11743 25.9290 75.73 82.82 8.25
11744 25.9310 71.30 82.41 7.94
11745 25.9330 95.47 82.13 9.16
11746 25.9350 79.09 81.96 8.42
11747 25.9370 77.34 81.90 8.31
11748 25.9390 75.04 81.98 8.24
11749 25.9410 81.06 82.23 8.43
11750 25.9430 86.62 82.67 8.74
11751 25.9450 81.37 83.21 8.56
11752 25.9470 81.13 83.55 8.57
11753 25.9490 86.88 83.42 8.79
11754 25.9510 88.62 83.11 8.80
11755 25.9530 81.46 82.93 8.56
11756 25.9550 82.40 82.98 8.58
11757 25.9570 82.29 83.23 8.58
11758 25.9590 80.39 83.71 8.49
11759 25.9610 94.07 84.43 9.08
11760 25.9630 83.77 85.39 8.58
11761 25.9650 77.43 86.58 8.38
11762 25.9670 93.59 88.10 9.15
11763 25.9690 79.47 90.18 8.44
11764 25.9710 104.86 93.18 9.64
11765 25.9730 101.71 97.59 9.52
11766 25.9750 104.81 104.05 9.71
11767 25.9770 114.91 113.01 10.15
11768 25.9790 121.94 123.51 10.49
11769 25.9810 140.47 131.13 11.15
11770 25.9830 126.64 131.63 10.61
11771 25.9850 112.53 128.29 10.03
11772 25.9870 137.66 127.01 11.15
11773 25.9890 130.24 129.28 10.80
11774 25.9910 125.14 134.13 10.52
11775 25.9930 131.92 141.93 10.84
11776 25.9950 144.08 155.78 11.42
11777 25.9970 181.86 178.90 12.79
11778 25.9990 204.43 207.07 13.52
11779 26.0010 242.20 221.04 14.60
11780 26.0030 177.24 204.75 12.55
11781 26.0050 153.00 173.27 11.71
11782 26.0070 138.03 145.67 11.12
11783 26.0090 107.55 126.50 9.80
11784 26.0110 107.35 113.97 9.74
11785 26.0130 113.72 105.69 10.08
11786 26.0150 83.62 100.25 8.65
11787 26.0170 97.52 96.58 9.38
11788 26.0190 98.55 94.12 9.38
11789 26.0210 117.57 92.53 10.13
11790 26.0230 102.21 91.61 9.57
11791 26.0250 116.12 91.26 10.20
11792 26.0270 105.23 91.47 9.75
11793 26.0290 104.04 92.31 9.63
11794 26.0310 101.97 93.89 9.52
11795 26.0330 112.68 96.43 10.01
11796 26.0350 113.19 100.18 10.10
11797 26.0370 127.84 105.35 10.67
11798 26.0390 132.03 111.92 10.90
11799 26.0410 137.75 118.87 10.95
11800 26.0430 119.69 122.97 10.35
11801 26.0450 143.96 122.89 11.37
11802 26.0470 146.26 122.41 11.48
11803 26.0490 141.94 125.30 11.24
11804 26.0510 151.82 133.44 11.60
11805 26.0530 136.06 148.22 11.03
11806 26.0550 186.24 170.67 12.96
11807 26.0570 220.50 199.47 14.07
11808 26.0590 257.68 225.62 15.19
11809 26.0610 259.26 231.66 15.12
11810 26.0630 238.66 217.04 14.54
11811 26.0650 230.30 199.72 14.41
11812 26.0670 242.64 184.49 14.82
11813 26.0690 155.98 165.29 11.78
11814 26.0710 158.79 145.41 11.81
11815 26.0730 150.56 130.87 11.55
11816 26.0750 128.11 122.49 10.75
11817 26.0770 130.59 119.28 10.81
11818 26.0790 106.33 120.77 9.74
11819 26.0810 149.92 127.42 11.50
11820 26.0830 139.56 140.01 11.07
11821 26.0850 156.95 155.41 11.93
11822 26.0870 158.12 162.08 11.91
11823 26.0890 137.34 151.25 11.03
11824 26.0910 142.75 133.02 11.19
11825 26.0930 121.38 117.92 10.34
11826 26.0950 95.18 107.82 9.28
11827 26.0970 106.79 101.54 9.79
11828 26.0990 110.06 97.79 9.89
11829 26.1010 99.58 95.91 9.35
11830 26.1030 102.42 95.61 9.55
11831 26.1050 110.63 96.88 9.97
11832 26.1070 95.15 99.76 9.23
11833 26.1090 107.10 103.68 9.76
11834 26.1110 101.39 106.07 9.44
11835 26.1130 127.96 104.28 10.59
11836 26.1150 102.48 99.43 9.61
11837 26.1170 103.45 94.52 9.61
11838 26.1190 93.57 90.82 9.11
11839 26.1210 73.05 88.31 8.01
11840 26.1230 83.42 86.70 8.55
11841 26.1250 85.47 85.66 8.77
11842 26.1270 88.00 85.05 8.85
11843 26.1290 88.36 84.74 8.88
11844 26.1310 74.37 84.69 8.05
11845 26.1330 74.52 84.86 8.12
11846 26.1350 92.47 85.26 9.10
11847 26.1370 93.13 85.91 9.13
11848 26.1390 80.31 86.88 8.50
11849 26.1410 71.12 88.24 7.88
11850 26.1430 93.14 90.17 9.07
11851 26.1450 89.90 92.90 8.98
11852 26.1470 92.34 96.87 9.07
11853 26.1490 98.94 102.75 9.39
11854 26.1510 105.99 111.60 9.64
11855 26.1530 114.65 124.69 10.09
11856 26.1550 164.94 142.14 12.12
11857 26.1570 165.39 159.10 12.15
11858 26.1590 190.61 164.11 12.99
11859 26.1610 143.79 153.82 11.18
11860 26.1630 121.95 139.20 10.39
11861 26.1650 119.23 126.99 10.31
11862 26.1670 108.64 118.13 9.87
11863 26.1690 95.50 113.14 9.23
11864 26.1710 110.38 112.10 9.86
11865 26.1730 111.93 114.93 9.94
11866 26.1750 115.61 121.82 10.16
11867 26.1770 156.17 131.62 11.82
11868 26.1790 156.93 138.73 11.84
11869 26.1810 134.32 136.20 10.82
11870 26.1830 136.10 127.14 11.00
11871 26.1850 101.78 118.75 9.56
11872 26.1870 114.76 113.88 10.18
11873 26.1890 108.69 112.48 9.82
11874 26.1910 107.87 114.14 9.78
11875 26.1930 120.65 118.88 10.36
11876 26.1950 104.61 127.29 9.72
11877 26.1970 133.49 140.86 10.92
11878 26.1990 132.59 162.29 10.84
11879 26.2010 175.65 194.38 12.40
11880 26.2030 218.06 233.29 13.95
11881 26.2050 229.06 259.33 14.32
11882 26.2070 244.21 258.36 14.80
11883 26.2090 233.21 242.40 14.41
11884 26.2110 232.91 219.66 14.34
11885 26.2130 194.03 196.54 13.10
11886 26.2150 166.58 181.22 12.25
11887 26.2170 175.06 173.86 12.49
11888 26.2190 162.37 167.08 12.06
11889 26.2210 149.49 156.87 11.49
11890 26.2230 148.97 147.77 11.50
11891 26.2250 142.51 143.21 11.33
11892 26.2270 156.89 142.33 11.85
11893 26.2290 148.18 143.37 11.52
11894 26.2310 136.34 146.86 10.92
11895 26.2330 167.81 155.79 12.28
11896 26.2350 158.04 172.82 11.94
11897 26.2370 182.74 195.67 12.81
11898 26.2390 202.79 211.79 13.45
11899 26.2410 234.59 211.07 14.36
11900 26.2430 212.71 204.98 13.78
11901 26.2450 199.96 203.72 13.45
11902 26.2470 199.56 206.03 13.41
11903 26.2490 209.38 211.17 13.66
11904 26.2510 222.73 213.93 14.09
11905 26.2530 219.39 204.84 13.96
11906 26.2550 175.15 190.36 12.57
11907 26.2570 152.08 182.02 11.70
11908 26.2590 162.76 180.57 12.05
11909 26.2610 164.83 177.69 12.04
11910 26.2630 169.39 168.54 12.26
11911 26.2650 163.63 156.74 12.16
11912 26.2670 123.35 145.45 10.53
11913 26.2690 149.08 135.77 11.52
11914 26.2710 134.51 129.71 10.94
11915 26.2730 133.72 128.94 10.92
11916 26.2750 135.09 134.39 10.99
11917 26.2770 163.17 146.14 12.12
11918 26.2790 175.28 159.37 12.50
11919 26.2810 141.71 161.59 11.17
11920 26.2830 136.02 149.29 10.98
11921 26.2850 118.07 134.79 10.32
11922 26.2870 123.21 126.01 10.51
11923 26.2890 128.30 123.40 10.69
11924 26.2910 115.00 123.83 10.09
11925 26.2930 140.52 121.77 11.15
11926 26.2950 124.39 114.31 10.57
11927 26.2970 101.17 105.01 9.55
11928 26.2990 97.03 97.48 9.31
11929 26.3010 81.73 92.21 8.47
11930 26.3030 79.46 88.57 8.41
11931 26.3050 79.85 86.04 8.45
11932 26.3070 91.71 84.22 9.07
11933 26.3090 69.64 82.89 7.87
11934 26.3110 79.89 81.90 8.39
11935 26.3130 75.96 81.20 8.22
11936 26.3150 85.79 80.74 8.77
11937 26.3170 67.72 80.53 7.84
11938 26.3190 73.85 80.55 8.11
11939 26.3210 79.64 80.74 8.39
11940 26.3230 75.64 80.90 8.19
11941 26.3250 74.95 80.82 8.21
11942 26.3270 73.38 80.34 8.09
11943 26.3290 76.15 79.55 8.25
11944 26.3310 74.65 78.76 8.12
11945 26.3330 68.82 78.15 7.80
11946 26.3350 80.85 77.74 8.54
11947 26.3370 82.09 77.43 8.56
11948 26.3390 66.37 77.36 7.70
11949 26.3410 82.10 77.45 8.45
11950 26.3430 68.55 77.74 7.79
11951 26.3450 63.18 78.25 7.50
11952 26.3470 77.78 78.88 8.36
11953 26.3490 66.81 79.52 7.70
11954 26.3510 66.48 80.39 7.67
11955 26.3530 67.62 81.83 7.71
11956 26.3550 77.84 83.66 8.38
11957 26.3570 88.25 84.43 8.86
11958 26.3590 85.93 83.09 8.74
11959 26.3610 63.47 81.00 7.45
11960 26.3630 81.67 79.35 8.50
11961 26.3650 74.77 78.35 8.21
11962 26.3670 64.81 77.88 7.61
11963 26.3690 63.37 77.85 7.52
11964 26.3710 86.11 78.26 8.71
11965 26.3730 66.67 79.14 7.66
11966 26.3750 77.49 80.25 8.36
11967 26.3770 79.48 81.10 8.42
11968 26.3790 73.52 81.08 8.09
11969 26.3810 81.72 80.96 8.44
11970 26.3830 74.24 81.39 8.08
11971 26.3850 71.82 81.95 8.04
11972 26.3870 74.73 81.50 8.15
11973 26.3890 67.64 79.96 7.77
11974 26.3910 75.04 78.28 8.12
11975 26.3930 72.78 76.96 8.00
11976 26.3950 70.33 76.09 7.95
11977 26.3970 62.65 75.52 7.50
11978 26.3990 63.89 75.13 7.54
11979 26.4010 68.65 74.83 7.76
11980 26.4030 82.42 74.66 8.52
11981 26.4050 62.79 74.55 7.46
11982 26.4070 69.79 74.50 7.90
11983 26.4090 74.88 74.49 8.14
11984 26.4110 61.72 74.54 7.36
11985 26.4130 79.07 74.65 8.33
11986 26.4150 76.47 74.74 8.32
11987 26.4170 73.58 75.03 8.07
11988 26.4190 63.47 75.46 7.52
11989 26.4210 64.34 76.14 7.49
11990 26.4230 76.14 77.13 8.18
11991 26.4250 93.82 78.79 9.18
11992 26.4270 88.24 81.22 8.87
11993 26.4290 80.04 84.18 8.42
11994 26.4310 74.78 85.84 8.07
11995 26.4330 60.26 84.46 7.31
11996 26.4350 64.83 81.51 7.64
11997 26.4370 76.74 78.93 8.26
11998 26.4390 75.19 77.18 8.19
11999 26.4410 71.55 76.06 7.88
12000 26.4430 64.07 75.33 7.49
12001 26.4450 64.06 74.82 7.59
12002 26.4470 80.99 74.52 8.49
12003 26.4490 68.79 74.40 7.82
12004 26.4510 70.43 74.28 7.82
12005 26.4530 75.34 74.17 8.16
12006 26.4550 65.63 74.20 7.67
12007 26.4570 74.54 74.30 8.14
12008 26.4590 71.56 74.51 8.01
12009 26.4610 69.81 74.78 7.82
12010 26.4630 62.14 75.13 7.41
12011 26.4650 58.78 75.64 7.26
12012 26.4670 73.64 76.36 8.16
12013 26.4690 72.00 77.45 8.00
12014 26.4710 83.05 79.10 8.50
12015 26.4730 66.30 81.59 7.66
12016 26.4750 85.52 85.27 8.79
12017 26.4770 87.67 89.65 8.83
12018 26.4790 87.59 92.68 8.83
12019 26.4810 104.94 91.59 9.59
12020 26.4830 78.54 87.65 8.36
12021 26.4850 82.03 83.63 8.53
12022 26.4870 64.21 80.71 7.61
12023 26.4890 75.27 78.94 8.19
12024 26.4910 85.19 77.76 8.64
12025 26.4930 63.71 77.04 7.52
12026 26.4950 61.58 76.64 7.47
12027 26.4970 65.30 76.50 7.65
12028 26.4990 68.63 76.57 7.83
12029 26.5010 60.86 76.88 7.33
12030 26.5030 67.55 77.46 7.73
12031 26.5050 80.34 78.43 8.47
12032 26.5070 75.60 80.00 8.26
12033 26.5090 83.79 82.45 8.63
12034 26.5110 88.33 86.02 8.87
12035 26.5130 89.66 90.16 8.94
12036 26.5150 83.47 92.68 8.66
12037 26.5170 79.36 91.52 8.43
12038 26.5190 78.56 88.03 8.37
12039 26.5210 78.30 85.00 8.28
12040 26.5230 74.25 83.47 8.12
12041 26.5250 88.90 83.31 8.93
12042 26.5270 85.03 84.43 8.76
12043 26.5290 77.65 86.44 8.34
12044 26.5310 79.55 88.34 8.42
12045 26.5330 83.34 88.83 8.63
12046 26.5350 86.66 87.43 8.82
12047 26.5370 76.76 84.95 8.32
12048 26.5390 73.73 82.75 8.10
12049 26.5410 75.50 81.43 8.20
12050 26.5430 69.47 81.01 7.90
12051 26.5450 95.83 81.22 9.30
12052 26.5470 67.14 82.21 7.79
12053 26.5490 82.59 84.12 8.65
12054 26.5510 92.51 86.88 9.06
12055 26.5530 93.42 89.65 9.16
12056 26.5550 88.04 90.65 8.95
12057 26.5570 73.42 88.95 8.17
12058 26.5590 81.95 85.77 8.57
12059 26.5610 77.77 82.77 8.37
12060 26.5630 72.86 80.64 8.06
12061 26.5650 70.16 79.13 8.00
12062 26.5670 81.08 78.13 8.58
12063 26.5690 73.59 77.51 8.16
12064 26.5710 85.55 77.11 8.72
12065 26.5730 73.33 76.87 8.14
12066 26.5750 83.40 76.75 8.70
12067 26.5770 76.58 76.72 8.30
12068 26.5790 77.82 76.76 8.42
12069 26.5810 60.86 76.88 7.37
12070 26.5830 81.30 77.05 8.52
12071 26.5850 80.93 77.27 8.55
12072 26.5870 85.29 77.56 8.83
12073 26.5890 78.59 77.92 8.41
12074 26.5910 65.88 78.35 7.65
12075 26.5930 65.64 78.87 7.70
12076 26.5950 82.55 79.50 8.64
12077 26.5970 76.83 80.27 8.34
12078 26.5990 85.46 81.21 8.77
12079 26.6010 70.35 82.37 7.90
12080 26.6030 71.12 83.81 7.94
12081 26.6050 74.85 85.50 8.22
12082 26.6070 95.09 87.42 9.26
12083 26.6090 106.29 89.76 9.81
12084 26.6110 95.61 92.66 9.19
12085 26.6130 110.64 96.64 9.92
12086 26.6150 126.57 102.24 10.67
12087 26.6170 96.50 110.31 9.34
12088 26.6190 134.26 122.19 10.99
12089 26.6210 171.78 139.89 12.29
12090 26.6230 156.88 165.31 11.86
12091 26.6250 197.14 196.27 13.25
12092 26.6270 223.58 220.67 14.31
12093 26.6290 228.68 227.70 14.34
12094 26.6310 218.55 220.20 13.86
12095 26.6330 210.23 200.96 13.67
12096 26.6350 158.41 179.00 11.97
12097 26.6370 211.61 164.83 13.78
12098 26.6390 159.44 160.60 11.96
12099 26.6410 151.20 163.98 11.53
12100 26.6430 171.93 170.87 12.31
12101 26.6450 191.32 176.60 13.09
12102 26.6470 162.08 177.35 12.09
12103 26.6490 156.65 173.94 11.84
12104 26.6510 169.34 169.85 12.17
12105 26.6530 172.95 168.95 12.43
12106 26.6550 161.66 175.87 12.05
12107 26.6570 185.98 192.33 12.93
12108 26.6590 206.41 215.11 13.63
12109 26.6610 254.33 235.90 14.96
12110 26.6630 255.68 253.14 15.08
12111 26.6650 266.41 269.11 15.42
12112 26.6670 290.74 278.83 16.17
12113 26.6690 281.45 276.51 15.90
12114 26.6710 242.69 255.16 14.58
12115 26.6730 210.04 218.48 13.61
12116 26.6750 173.28 182.37 12.48
12117 26.6770 155.29 155.18 11.78
12118 26.6790 126.04 136.81 10.66
12119 26.6810 121.64 124.92 10.31
12120 26.6830 99.01 117.60 9.31
12121 26.6850 124.64 113.69 10.55
12122 26.6870 113.05 112.59 10.11
12123 26.6890 94.07 114.22 9.21
12124 26.6910 134.70 118.53 10.84
12125 26.6930 137.29 123.53 11.01
12126 26.6950 122.86 124.41 10.49
12127 26.6970 128.77 120.42 10.74
12128 26.6990 99.67 116.23 9.43
12129 26.7010 93.84 114.88 9.09
12130 26.7030 119.77 117.25 10.23
12131 26.7050 127.09 123.67 10.65
12132 26.7070 143.14 133.91 11.37
12133 26.7090 151.75 147.25 11.67
12134 26.7110 164.11 163.43 11.99
12135 26.7130 188.89 178.84 12.94
12136 26.7150 199.64 182.29 13.42
12137 26.7170 179.54 169.29 12.66
12138 26.7190 137.04 150.30 11.11
12139 26.7210 108.79 135.01 9.74
12140 26.7230 131.10 125.90 10.77
12141 26.7250 110.77 122.39 9.95
12142 26.7270 133.32 123.79 10.96
12143 26.7290 112.91 129.85 10.04
12144 26.7310 123.12 140.36 10.44
12145 26.7330 149.49 154.58 11.42
12146 26.7350 153.56 169.31 11.77
12147 26.7370 204.95 177.11 13.55
12148 26.7390 181.95 171.71 12.79
12149 26.7410 166.30 156.55 12.06
12150 26.7430 132.16 139.15 10.78
12151 26.7450 109.82 124.19 9.93
12152 26.7470 126.82 113.53 10.63
12153 26.7490 96.67 106.84 9.34
12154 26.7510 90.99 103.18 8.93
12155 26.7530 88.24 101.77 8.84
12156 26.7550 102.61 101.86 9.61
12157 26.7570 110.14 102.16 9.97
12158 26.7590 101.16 101.44 9.55
12159 26.7610 106.16 100.17 9.67
12160 26.7630 110.91 99.55 9.92
12161 26.7650 86.61 100.30 8.80
12162 26.7670 98.22 102.67 9.40
12163 26.7690 102.14 106.33 9.58
12164 26.7710 123.24 110.07 10.42
12165 26.7730 133.95 112.81 10.84
12166 26.7750 104.76 115.66 9.72
12167 26.7770 109.48 120.81 9.89
12168 26.7790 126.57 130.07 10.63
12169 26.7810 150.50 144.92 11.52
12170 26.7830 163.19 165.18 11.98
12171 26.7850 195.70 185.69 13.23
12172 26.7870 222.84 196.33 14.15
12173 26.7890 230.79 192.36 14.36
12174 26.7910 184.12 180.75 12.71
12175 26.7930 201.57 169.03 13.38
12176 26.7950 166.02 160.53 12.19
12177 26.7970 166.25 156.04 12.26
12178 26.7990 149.72 156.30 11.54
12179 26.8010 167.62 163.67 12.15
12180 26.8030 184.85 179.31 12.72
12181 26.8050 225.84 197.86 14.28
12182 26.8070 221.30 205.33 14.06
12183 26.8090 207.29 199.59 13.69
12184 26.8110 196.86 195.59 13.10
12185 26.8130 207.86 203.31 13.52
12186 26.8150 215.76 224.22 13.95
12187 26.8170 237.41 254.24 14.57
12188 26.8190 292.84 284.23 16.14
12189 26.8210 314.17 308.61 16.53
12190 26.8230 350.57 325.75 17.50
12191 26.8250 328.60 327.59 17.12
12192 26.8270 355.65 311.02 17.91
12193 26.8290 306.45 278.87 16.58
12194 26.8310 244.70 248.31 14.60
12195 26.8330 248.56 234.97 14.78
12196 26.8350 232.67 241.64 14.47
12197 26.8370 238.73 261.75 14.65
12198 26.8390 278.93 276.29 15.81
12199 26.8410 291.77 271.35 15.96
12200 26.8430 261.86 258.39 15.13
12201 26.8450 247.28 243.32 14.90
12202 26.8470 191.08 218.25 13.07
12203 26.8490 166.15 186.48 12.22
12204 26.8510 141.98 158.55 11.13
12205 26.8530 116.61 138.03 10.10
12206 26.8550 121.60 123.87 10.42
12207 26.8570 113.56 114.13 10.12
12208 26.8590 109.98 107.30 9.93
12209 26.8610 104.02 102.63 9.54
12210 26.8630 106.95 99.46 9.66
12211 26.8650 121.98 97.49 10.44
12212 26.8670 88.50 96.60 8.92
12213 26.8690 89.36 96.84 8.92
12214 26.8710 96.52 98.53 9.22
12215 26.8730 108.19 101.97 9.69
12216 26.8750 91.05 106.85 9.07
12217 26.8770 102.97 110.92 9.62
12218 26.8790 101.68 111.14 9.55
12219 26.8810 109.90 108.38 9.78
12220 26.8830 107.45 106.00 9.73
12221 26.8850 111.98 104.81 9.96
12222 26.8870 103.78 103.33 9.67
12223 26.8890 102.38 101.66 9.57
12224 26.8910 90.72 101.39 8.93
12225 26.8930 128.22 103.45 10.57
12226 26.8950 107.01 108.38 9.86
12227 26.8970 118.79 116.84 10.27
12228 26.8990 121.14 129.09 10.42
12229 26.9010 134.64 142.90 10.84
12230 26.9030 164.28 151.19 12.01
12231 26.9050 152.39 148.84 11.68
12232 26.9070 152.44 140.74 11.67
12233 26.9090 148.49 132.16 11.55
12234 26.9110 134.98 123.96 10.86
12235 26.9130 110.62 116.99 9.90
12236 26.9150 111.27 112.40 9.98
12237 26.9170 84.56 110.87 8.71
12238 26.9190 107.32 112.69 9.80
12239 26.9210 116.09 118.32 10.07
12240 26.9230 105.38 128.65 9.62
12241 26.9250 148.56 144.77 11.49
12242 26.9270 181.24 166.33 12.80
12243 26.9290 186.05 187.35 12.87
12244 26.9310 215.67 194.37 13.78
12245 26.9330 179.89 181.24 12.63
12246 26.9350 137.09 158.91 11.09
12247 26.9370 122.56 138.60 10.47
12248 26.9390 122.28 123.23 10.49
12249 26.9410 105.75 111.89 9.62
12250 26.9430 102.26 103.63 9.50
12251 26.9450 107.95 97.82 9.85
12252 26.9470 99.56 93.80 9.44
12253 26.9490 107.89 91.03 9.83
12254 26.9510 94.16 89.12 9.09
12255 26.9530 97.06 87.83 9.30
12256 26.9550 96.88 87.03 9.34
12257 26.9570 81.32 86.57 8.53
12258 26.9590 107.37 86.41 9.77
12259 26.9610 91.24 86.52 8.97
12260 26.9630 86.63 86.89 8.77
12261 26.9650 100.17 87.51 9.49
12262 26.9670 86.80 88.41 8.84
12263 26.9690 100.29 89.64 9.49
12264 26.9710 88.16 91.23 8.79
12265 26.9730 98.63 93.25 9.37
12266 26.9750 98.96 95.88 9.40
12267 26.9770 119.39 99.16 10.35
12268 26.9790 106.33 103.37 9.74
12269 26.9810 114.02 108.79 9.96
12270 26.9830 119.42 116.01 10.25
12271 26.9850 115.24 125.93 10.15
12272 26.9870 145.45 139.65 11.42
12273 26.9890 161.00 159.04 12.01
12274 26.9910 212.05 186.46 13.65
12275 26.9930 235.30 224.14 14.40
12276 26.9950 274.79 272.67 15.72
12277 26.9970 354.73 328.60 17.77
12278 26.9990 380.86 376.25 18.45
12279 27.0010 379.69 389.88 18.20
12280 27.0030 374.41 379.57 18.24
12281 27.0050 361.45 381.70 17.95
12282 27.0070 383.79 407.74 18.59
12283 27.0090 437.09 433.38 19.92
12284 27.0110 435.38 427.45 19.53
12285 27.0130 387.41 394.65 18.53
12286 27.0150 320.67 350.13 17.01
12287 27.0170 327.27 300.44 17.14
12288 27.0190 265.13 253.00 15.34
12289 27.0210 232.11 211.83 14.29
12290 27.0230 145.44 179.16 11.26
12291 27.0250 142.94 154.86 11.28
12292 27.0270 112.29 137.48 10.06
12293 27.0290 124.66 125.24 10.60
12294 27.0310 121.82 116.82 10.28
12295 27.0330 124.93 111.30 10.54
12296 27.0350 91.09 108.06 9.03
12297 27.0370 96.12 106.77 9.28
12298 27.0390 121.41 106.07 10.42
12299 27.0410 127.76 104.31 10.57
12300 27.0430 104.45 101.83 9.59
12301 27.0450 106.62 100.61 9.77
12302 27.0470 105.43 101.21 9.71
12303 27.0490 99.13 102.18 9.44
12304 27.0510 81.88 100.86 8.49
12305 27.0530 104.36 96.91 9.57
12306 27.0550 115.00 92.27 10.16
12307 27.0570 94.68 88.36 9.20
12308 27.0590 83.98 85.54 8.64
12309 27.0610 83.51 83.60 8.52
12310 27.0630 94.93 82.43 9.20
12311 27.0650 85.93 81.65 8.77
12312 27.0670 90.60 81.22 9.00
12313 27.0690 83.44 81.12 8.64
12314 27.0710 87.41 81.38 8.73
12315 27.0730 86.91 82.00 8.77
12316 27.0750 89.18 83.06 8.96
12317 27.0770 95.17 84.63 9.21
12318 27.0790 83.66 86.24 8.66
12319 27.0810 86.71 86.76 8.71
12320 27.0830 97.84 86.01 9.27
12321 27.0850 87.23 85.09 8.85
12322 27.0870 87.99 84.54 8.91
12323 27.0890 94.48 84.36 9.19
12324 27.0910 86.80 84.75 8.65
12325 27.0930 89.07 86.19 8.88
12326 27.0950 94.38 89.10 9.21
12327 27.0970 105.69 93.08 9.69
12328 27.0990 107.62 96.94 9.79
12329 27.1010 97.94 98.34 9.18
12330 27.1030 91.62 96.16 8.98
12331 27.1050 95.96 91.85 9.28
12332 27.1070 101.89 87.61 9.56
12333 27.1090 93.43 84.44 9.10
12334 27.1110 87.76 82.41 8.77
12335 27.1130 83.90 81.30 8.60
12336 27.1150 94.96 80.94 9.23
12337 27.1170 81.93 81.23 8.57
12338 27.1190 73.62 82.06 8.11
12339 27.1210 79.40 83.17 8.30
12340 27.1230 79.77 84.38 8.38
12341 27.1250 95.27 86.19 9.25
12342 27.1270 107.11 89.34 9.81
12343 27.1290 77.26 94.49 8.28
12344 27.1310 107.05 101.72 9.64
12345 27.1330 116.06 109.29 10.10
12346 27.1350 92.09 112.18 9.11
12347 27.1370 114.40 108.21 10.14
12348 27.1390 98.80 101.61 9.37
12349 27.1410 114.24 96.30 9.93
12350 27.1430 102.33 93.35 9.47
12351 27.1450 106.09 92.64 9.76
12352 27.1470 97.07 94.01 9.31
12353 27.1490 95.70 97.65 9.21
12354 27.1510 100.60 104.14 9.33
12355 27.1530 105.85 114.14 9.63
12356 27.1550 151.53 126.31 11.67
12357 27.1570 150.37 134.49 11.59
12358 27.1590 125.39 132.26 10.53
12359 27.1610 134.09 123.90 10.77
12360 27.1630 104.28 117.03 9.54
12361 27.1650 113.37 113.81 10.08
12362 27.1670 116.62 113.05 10.20
12363 27.1690 120.19 113.80 10.36
12364 27.1710 124.25 117.10 10.38
12365 27.1730 137.74 124.97 11.01
12366 27.1750 133.40 139.04 11.00
12367 27.1770 157.74 158.92 11.92
12368 27.1790 193.25 177.85 13.03
12369 27.1810 178.72 183.80 12.50
12370 27.1830 166.92 173.82 12.10
12371 27.1850 171.34 157.04 12.44
12372 27.1870 132.82 140.37 10.87
12373 27.1890 128.43 128.08 10.67
12374 27.1910 121.19 121.56 10.26
12375 27.1930 137.86 120.63 10.99
12376 27.1950 123.48 124.82 10.51
12377 27.1970 145.11 133.97 11.39
12378 27.1990 155.32 144.31 11.72
12379 27.2010 146.51 148.08 11.30
12380 27.2030 147.64 143.03 11.36
12381 27.2050 145.76 137.02 11.45
12382 27.2070 155.07 136.51 11.77
12383 27.2090 141.27 143.46 11.16
12384 27.2110 131.06 157.26 10.69
12385 27.2130 165.48 172.73 12.04
12386 27.2150 168.41 179.79 12.32
12387 27.2170 190.22 176.64 13.00
12388 27.2190 162.73 173.58 11.96
12389 27.2210 173.77 175.90 12.37
12390 27.2230 164.11 175.51 12.04
12391 27.2250 158.99 163.53 11.96
12392 27.2270 138.03 145.71 11.17
12393 27.2290 110.45 131.26 9.90
12394 27.2310 121.18 123.01 10.32
12395 27.2330 108.66 120.78 9.81
12396 27.2350 106.28 124.31 9.83
12397 27.2370 132.92 133.42 10.89
12398 27.2390 146.09 146.21 11.39
12399 27.2410 151.54 155.53 11.54
12400 27.2430 135.20 151.33 10.90
12401 27.2450 118.11 135.63 10.34
12402 27.2470 94.12 119.40 9.18
12403 27.2490 122.48 107.51 10.44
12404 27.2510 115.52 99.76 10.13
12405 27.2530 108.96 94.97 9.83
12406 27.2550 85.05 92.26 8.83
12407 27.2570 85.34 91.15 8.77
12408 27.2590 89.34 91.50 8.88
12409 27.2610 95.97 93.27 9.20
12410 27.2630 103.14 96.07 9.56
12411 27.2650 123.61 98.52 10.63
12412 27.2670 103.55 99.98 9.70
12413 27.2690 99.34 102.20 9.39
12414 27.2710 103.53 107.17 9.58
12415 27.2730 118.28 116.19 10.27
12416 27.2750 128.84 130.23 10.86
12417 27.2770 157.19 147.92 11.87
12418 27.2790 171.51 160.60 12.35
12419 27.2810 170.04 156.97 12.20
12420 27.2830 127.48 140.45 10.65
12421 27.2850 131.30 123.13 11.01
12422 27.2870 120.83 110.40 10.44
12423 27.2890 89.65 102.25 8.95
12424 27.2910 93.15 97.30 9.07
12425 27.2930 89.28 94.33 8.91
12426 27.2950 95.52 92.89 9.33
12427 27.2970 89.30 93.17 8.95
12428 27.2990 78.72 95.59 8.39
12429 27.3010 95.46 100.81 9.15
12430 27.3030 115.29 109.42 10.10
12431 27.3050 120.14 119.97 10.49
12432 27.3070 125.04 125.54 10.62
12433 27.3090 117.58 119.98 10.23
12434 27.3110 108.93 108.70 9.80
12435 27.3130 80.78 98.92 8.48
12436 27.3150 93.32 92.35 9.25
12437 27.3170 101.14 88.31 9.47
12438 27.3190 93.33 86.00 9.12
12439 27.3210 73.70 84.71 8.07
12440 27.3230 92.50 83.98 9.11
12441 27.3250 84.38 83.63 8.73
12442 27.3270 70.81 83.87 8.00
12443 27.3290 87.95 84.83 8.88
12444 27.3310 78.49 86.67 8.32
12445 27.3330 107.94 89.68 9.75
12446 27.3350 97.92 94.33 9.46
12447 27.3370 114.41 101.36 10.18
12448 27.3390 115.48 111.64 10.12
12449 27.3410 128.53 125.40 10.65
12450 27.3430 152.44 140.31 11.65
12451 27.3450 152.07 149.54 11.77
12452 27.3470 156.58 148.99 11.87
12453 27.3490 144.35 144.09 11.37
12454 27.3510 137.55 140.92 10.98
12455 27.3530 139.90 137.78 11.21
12456 27.3550 116.31 129.76 10.30
12457 27.3570 122.89 119.05 10.56
12458 27.3590 111.46 110.37 9.96
12459 27.3610 110.57 104.62 9.84
12460 27.3630 110.98 100.46 10.02
12461 27.3650 110.22 96.93 10.00
12462 27.3670 95.83 94.46 9.29
12463 27.3690 110.78 93.70 9.94
12464 27.3710 90.23 94.99 8.96
12465 27.3730 108.59 98.22 9.84
12466 27.3750 104.45 102.29 9.78
12467 27.3770 121.94 105.53 10.46
12468 27.3790 118.00 108.87 10.27
12469 27.3810 121.11 113.92 10.31
12470 27.3830 103.51 118.76 9.62
12471 27.3850 125.44 119.55 10.69
12472 27.3870 98.90 115.44 9.48
12473 27.3890 117.10 109.66 10.27
12474 27.3910 88.21 105.70 8.84
12475 27.3930 93.24 103.83 9.14
12476 27.3950 85.73 102.92 8.81
12477 27.3970 97.71 102.24 9.39
12478 27.3990 111.37 100.43 9.97
12479 27.4010 109.18 96.26 9.83
12480 27.4030 85.57 91.25 8.72
12481 27.4050 90.22 87.35 9.09
12482 27.4070 71.72 84.78 8.04
12483 27.4090 83.85 83.31 8.66
12484 27.4110 92.13 82.81 9.02
12485 27.4130 89.69 83.09 8.97
12486 27.4150 83.27 84.15 8.67
12487 27.4170 79.95 86.13 8.47
12488 27.4190 87.48 89.32 8.86
12489 27.4210 96.36 94.20 9.21
12490 27.4230 91.48 101.36 9.04
12491 27.4250 95.00 111.47 9.30
12492 27.4270 109.26 123.93 9.94
12493 27.4290 122.07 135.29 10.42
12494 27.4310 143.89 140.51 11.25
12495 27.4330 127.02 139.83 10.69
12496 27.4350 141.16 137.47 11.27
12497 27.4370 130.84 133.28 10.86
12498 27.4390 125.10 124.87 10.58
12499 27.4410 114.96 114.23 10.02
12500 27.4430 117.26 105.03 10.22
12501 27.4450 118.46 98.45 10.37
12502 27.4470 90.71 94.14 9.04
12503 27.4490 87.86 91.85 8.84
12504 27.4510 79.57 91.52 8.37
12505 27.4530 89.31 93.03 8.95
12506 27.4550 99.07 95.66 9.48
12507 27.4570 96.58 97.32 9.33
12508 27.4590 106.01 95.99 9.71
12509 27.4610 100.99 92.88 9.44
12510 27.4630 86.69 90.38 8.77
12511 27.4650 95.68 89.58 9.34
12512 27.4670 104.81 90.64 9.73
12513 27.4690 98.05 93.82 9.35
12514 27.4710 104.24 98.84 9.58
12515 27.4730 101.21 104.28 9.53
12516 27.4750 96.92 107.81 9.35
12517 27.4770 109.51 109.82 9.93
12518 27.4790 134.50 112.10 10.95
12519 27.4810 117.39 112.33 10.15
12520 27.4830 116.49 108.15 10.20
12521 27.4850 119.69 102.04 10.41
12522 27.4870 125.91 97.12 10.66
12523 27.4890 93.91 94.61 9.22
12524 27.4910 106.16 94.88 9.66
12525 27.4930 94.01 98.13 9.14
12526 27.4950 125.88 104.70 10.68
12527 27.4970 109.85 113.69 9.97
12528 27.4990 118.83 120.04 10.30
12529 27.5010 139.89 117.28 11.07
12530 27.5030 115.15 108.24 10.11
12531 27.5050 114.74 99.79 10.18
12532 27.5070 106.25 94.27 9.78
12533 27.5090 83.14 91.42 8.64
12534 27.5110 87.36 90.68 8.73
12535 27.5130 107.22 91.78 9.73
12536 27.5150 100.42 94.71 9.54
12537 27.5170 107.68 99.64 9.85
12538 27.5190 91.89 105.72 9.01
12539 27.5210 99.85 111.05 9.38
12540 27.5230 105.40 112.99 9.69
12541 27.5250 115.41 111.57 10.16
12542 27.5270 117.13 109.88 10.28
12543 27.5290 104.98 110.59 9.70
12544 27.5310 113.69 114.71 9.99
12545 27.5330 97.36 122.91 9.33
12546 27.5350 141.53 136.66 11.28
12547 27.5370 156.94 157.99 11.86
12548 27.5390 200.73 186.56 13.29
12549 27.5410 226.89 213.04 14.15
12550 27.5430 210.44 218.98 13.58
12551 27.5450 203.50 200.49 13.53
12552 27.5470 174.63 172.81 12.49
12553 27.5490 135.07 147.47 10.98
12554 27.5510 133.31 128.44 10.79
12555 27.5530 122.01 115.85 10.43
12556 27.5550 107.89 108.25 9.83
12557 27.5570 100.14 103.93 9.50
12558 27.5590 94.47 101.30 9.17
12559 27.5610 107.13 99.45 9.72
12560 27.5630 121.65 98.31 10.35
12561 27.5650 99.11 96.83 9.48
12562 27.5670 102.07 94.03 9.56
12563 27.5690 81.58 90.65 8.54
12564 27.5710 84.38 87.95 8.59
12565 27.5730 88.83 86.30 8.87
12566 27.5750 81.09 85.62 8.55
12567 27.5770 64.17 85.78 7.62
12568 27.5790 95.03 86.73 9.18
12569 27.5810 91.90 88.59 8.98
12570 27.5830 102.33 91.56 9.50
12571 27.5850 85.35 96.08 8.75
12572 27.5870 94.43 102.89 9.22
12573 27.5890 117.25 113.30 10.20
12574 27.5910 108.04 128.59 9.71
12575 27.5930 146.85 150.65 11.41
12576 27.5950 187.91 178.65 13.01
12577 27.5970 199.68 203.41 13.37
12578 27.5990 231.86 207.11 14.35
12579 27.6010 201.50 186.36 13.34
12580 27.6030 168.76 157.84 12.23
12581 27.6050 135.90 134.06 11.08
12582 27.6070 117.79 117.41 10.34
12583 27.6090 97.27 106.58 9.32
12584 27.6110 94.18 99.96 9.12
12585 27.6130 88.55 96.29 8.84
12586 27.6150 97.60 94.21 9.40
12587 27.6170 92.65 91.84 9.12
12588 27.6190 80.71 88.35 8.49
12589 27.6210 90.51 84.75 8.92
12590 27.6230 96.94 81.90 9.28
12591 27.6250 86.03 79.86 8.82
12592 27.6270 78.93 78.44 8.43
12593 27.6290 78.27 77.49 8.34
12594 27.6310 68.93 76.90 7.79
12595 27.6330 65.71 76.63 7.60
12596 27.6350 73.58 76.71 8.14
12597 27.6370 82.40 77.13 8.62
12598 27.6390 87.76 78.06 8.81
12599 27.6410 76.62 79.49 8.23
12600 27.6430 86.61 80.89 8.74
12601 27.6450 76.13 81.25 8.27
12602 27.6470 84.84 80.49 8.71
12603 27.6490 76.75 79.55 8.30
12604 27.6510 69.77 79.04 7.83
12605 27.6530 78.84 79.12 8.35
12606 27.6550 83.24 79.83 8.70
12607 27.6570 76.25 80.86 8.29
12608 27.6590 74.87 81.82 8.16
12609 27.6610 96.53 83.03 9.25
12610 27.6630 93.21 85.08 9.04
12611 27.6650 92.67 88.31 9.15
12612 27.6670 98.06 92.91 9.42
12613 27.6690 100.48 98.63 9.49
12614 27.6710 113.18 103.78 9.94
12615 27.6730 94.70 105.29 9.14
12616 27.6750 103.36 101.62 9.68
12617 27.6770 106.40 95.58 9.74
12618 27.6790 99.57 90.33 9.42
12619 27.6810 100.03 86.85 9.38
12620 27.6830 92.26 84.87 8.99
12621 27.6850 72.49 84.02 8.06
12622 27.6870 91.07 84.04 9.11
12623 27.6890 91.52 84.81 9.01
12624 27.6910 88.89 86.31 8.80
12625 27.6930 99.26 88.67 9.35
12626 27.6950 104.89 92.09 9.75
12627 27.6970 98.75 97.03 9.40
12628 27.6990 108.13 104.16 9.82
12629 27.7010 114.21 114.57 10.02
12630 27.7030 134.82 129.83 10.88
12631 27.7050 159.19 151.65 12.02
12632 27.7070 225.46 180.10 14.24
12633 27.7090 244.17 208.75 14.77
12634 27.7110 242.71 222.88 14.59
12635 27.7130 217.01 215.04 13.87
12636 27.7150 193.00 195.67 13.20
12637 27.7170 147.16 174.46 11.45
12638 27.7190 162.68 153.46 12.10
12639 27.7210 117.18 135.20 10.12
12640 27.7230 128.68 121.90 10.62
12641 27.7250 113.56 113.48 10.14
12642 27.7270 110.28 109.05 9.95
12643 27.7290 110.03 107.99 9.90
12644 27.7310 116.24 110.20 10.13
12645 27.7330 122.65 116.16 10.38
12646 27.7350 124.83 126.60 10.61
12647 27.7370 164.68 142.48 12.16
12648 27.7390 164.70 162.01 12.09
12649 27.7410 164.85 176.21 12.06
12650 27.7430 184.31 172.58 12.70
12651 27.7450 195.21 154.01 13.29
12652 27.7470 154.13 133.79 11.74
12653 27.7490 114.50 118.46 10.12
12654 27.7510 118.49 108.45 10.19
12655 27.7530 115.73 102.43 10.11
12656 27.7550 117.82 99.31 10.28
12657 27.7570 110.99 98.58 9.98
12658 27.7590 92.09 100.17 9.06
12659 27.7610 108.64 104.47 9.79
12660 27.7630 114.38 112.29 10.01
12661 27.7650 141.14 124.51 11.28
12662 27.7670 137.07 139.69 11.09
12663 27.7690 172.34 149.93 12.41
12664 27.7710 147.81 146.35 11.43
12665 27.7730 124.88 133.57 10.48
12666 27.7750 127.72 121.39 10.75
12667 27.7770 113.59 113.76 10.12
12668 27.7790 112.19 110.83 9.96
12669 27.7810 106.48 112.20 9.68
12670 27.7830 125.99 117.99 10.54
12671 27.7850 129.87 128.84 10.83
12672 27.7870 145.33 145.44 11.47
12673 27.7890 160.18 166.38 11.94
12674 27.7910 198.67 184.19 13.25
12675 27.7930 197.05 186.30 13.22
12676 27.7950 200.61 170.17 13.47
12677 27.7970 164.31 147.52 12.19
12678 27.7990 121.28 127.74 10.39
12679 27.8010 112.82 113.19 9.95
12680 27.8030 109.18 103.24 9.84
12681 27.8050 86.29 96.70 8.82
12682 27.8070 88.72 92.60 8.93
12683 27.8090 92.32 90.36 9.08
12684 27.8110 87.09 89.67 8.79
12685 27.8130 79.04 90.45 8.34
12686 27.8150 106.84 92.63 9.84
12687 27.8170 83.52 96.12 8.69
12688 27.8190 89.92 100.28 8.98
12689 27.8210 97.89 102.74 9.25
12690 27.8230 101.89 101.64 9.52
12691 27.8250 117.40 98.80 10.30
12692 27.8270 94.38 95.53 9.21
12693 27.8290 111.83 91.15 10.00
12694 27.8310 102.11 86.39 9.49
12695 27.8330 78.28 82.55 8.32
12696 27.8350 78.85 79.91 8.44
12697 27.8370 76.73 78.16 8.34
12698 27.8390 78.93 77.09 8.38
12699 27.8410 74.45 76.53 8.11
12700 27.8430 83.11 76.41 8.59
12701 27.8450 72.91 76.75 8.13
12702 27.8470 82.08 77.65 8.61
12703 27.8490 81.96 79.35 8.58
12704 27.8510 72.21 82.03 7.98
12705 27.8530 85.61 85.93 8.68
12706 27.8550 81.56 90.29 8.58
12707 27.8570 88.97 92.66 8.96
12708 27.8590 95.21 90.91 9.22
12709 27.8610 75.85 86.50 8.17
12710 27.8630 74.22 82.13 8.11
12711 27.8650 72.29 78.87 8.11
12712 27.8670 94.84 76.63 9.25
12713 27.8690 68.54 75.17 7.82
12714 27.8710 71.27 74.22 7.93
12715 27.8730 70.44 73.60 7.91
12716 27.8750 68.40 73.22 7.85
12717 27.8770 82.38 73.02 8.66
12718 27.8790 80.27 72.95 8.47
12719 27.8810 69.74 73.02 7.83
12720 27.8830 83.27 73.20 8.56
12721 27.8850 71.86 73.50 8.07
12722 27.8870 74.00 73.95 8.15
12723 27.8890 87.20 74.58 8.84
12724 27.8910 76.53 75.43 8.24
12725 27.8930 66.81 76.59 7.65
12726 27.8950 60.22 78.23 7.37
12727 27.8970 60.59 80.46 7.43
12728 27.8990 89.94 83.61 8.92
12729 27.9010 96.85 88.08 9.23
12730 27.9030 93.12 94.05 9.04
12731 27.9050 99.39 101.11 9.44
12732 27.9070 113.12 108.35 10.12
12733 27.9090 118.02 116.13 10.23
12734 27.9110 143.17 124.50 11.25
12735 27.9130 126.96 128.30 10.55
12736 27.9150 143.68 123.30 11.37
12737 27.9170 104.07 114.54 9.69
12738 27.9190 109.44 108.38 9.87
12739 27.9210 119.06 106.94 10.25
12740 27.9230 114.18 110.17 10.02
12741 27.9250 121.01 118.58 10.44
12742 27.9270 162.26 131.27 12.11
12743 27.9290 155.34 142.18 11.74
12744 27.9310 147.72 141.52 11.35
12745 27.9330 144.15 130.64 11.27
12746 27.9350 103.23 119.73 9.64
12747 27.9370 124.67 113.90 10.63
12748 27.9390 105.81 113.41 9.66
12749 27.9410 135.60 117.80 10.93
12750 27.9430 142.93 125.67 11.20
12751 27.9450 135.12 133.18 11.03
12752 27.9470 134.48 135.69 11.03
12753 27.9490 133.05 132.57 10.91
12754 27.9510 128.45 125.71 10.60
12755 27.9530 129.03 117.81 10.68
12756 27.9550 113.74 111.96 10.13
12757 27.9570 108.94 108.57 9.91
12758 27.9590 126.21 104.92 10.57
12759 27.9610 114.10 99.04 10.01
12760 27.9630 99.41 92.48 9.37
12761 27.9650 82.96 87.08 8.63
12762 27.9670 91.72 83.19 9.13
12763 27.9690 84.47 80.46 8.68
12764 27.9710 88.97 78.56 8.88
12765 27.9730 85.78 77.23 8.72
12766 27.9750 82.37 76.29 8.63
12767 27.9770 80.67 75.65 8.56
12768 27.9790 72.67 75.25 8.09
12769 27.9810 87.62 75.05 8.78
12770 27.9830 72.85 75.06 8.01
12771 27.9850 68.12 75.26 7.86
12772 27.9870 71.64 75.70 8.05
12773 27.9890 78.63 76.45 8.36
12774 27.9910 77.50 77.65 8.27
12775 27.9930 83.79 79.47 8.62
12776 27.9950 96.63 82.14 9.31
12777 27.9970 88.42 85.61 8.92
12778 27.9990 92.81 88.83 9.11
12779 28.0010 98.73 90.63 9.31
12780 28.0030 106.78 91.44 9.74
12781 28.0050 87.10 93.27 8.86
12782 28.0070 94.94 96.78 9.27
12783 28.0090 110.79 101.07 9.96
12784 28.0110 121.86 104.77 10.34
12785 28.0130 106.71 106.02 9.74
12786 28.0150 109.66 103.52 9.96
12787 28.0170 97.15 99.08 9.34
12788 28.0190 80.07 95.81 8.46
12789 28.0210 92.68 95.10 9.03
12790 28.0230 101.60 97.12 9.50
12791 28.0250 98.70 101.53 9.41
12792 28.0270 105.40 107.07 9.74
12793 28.0290 112.04 111.07 10.01
12794 28.0310 93.26 111.79 9.07
12795 28.0330 97.99 110.71 9.34
12796 28.0350 102.04 110.44 9.62
12797 28.0370 120.46 111.56 10.44
12798 28.0390 106.26 112.25 9.72
12799 28.0410 109.29 110.01 9.83
12800 28.0430 106.10 105.35 9.72
12801 28.0450 103.68 101.30 9.70
12802 28.0470 103.02 99.59 9.64
12803 28.0490 88.28 99.69 8.89
12804 28.0510 109.03 99.05 9.78
12805 28.0530 97.34 95.79 9.30
12806 28.0550 89.63 91.36 9.02
12807 28.0570 82.47 87.74 8.62
12808 28.0590 79.83 85.48 8.44
12809 28.0610 81.28 84.38 8.46
12810 28.0630 82.58 84.27 8.55
12811 28.0650 79.83 85.19 8.48
12812 28.0670 86.61 87.02 8.84
12813 28.0690 91.14 89.90 9.02
12814 28.0710 105.04 93.80 9.63
12815 28.0730 109.80 98.58 9.84
12816 28.0750 109.03 104.86 9.94
12817 28.0770 126.59 113.44 10.69
12818 28.0790 113.47 122.35 10.00
12819 28.0810 123.16 126.06 10.44
12820 28.0830 139.30 122.86 11.10
12821 28.0850 129.20 118.28 10.78
12822 28.0870 105.88 116.89 9.79
12823 28.0890 104.42 119.59 9.66
12824 28.0910 138.57 125.25 11.02
12825 28.0930 143.36 132.15 11.26
12826 28.0950 137.88 141.51 11.13
12827 28.0970 159.80 156.53 11.97
12828 28.0990 183.03 175.83 12.77
12829 28.1010 185.25 188.27 12.78
12830 28.1030 189.98 184.20 12.92
12831 28.1050 167.80 173.15 12.27
12832 28.1070 122.78 168.26 10.53
12833 28.1090 160.73 174.02 11.92
12834 28.1110 194.47 189.47 13.05
12835 28.1130 221.04 210.90 13.94
12836 28.1150 241.77 231.27 14.73
12837 28.1170 237.82 237.62 14.57
12838 28.1190 233.20 219.89 14.37
12839 28.1210 194.71 188.66 13.12
12840 28.1230 155.66 160.21 11.66
12841 28.1250 145.36 140.11 11.44
12842 28.1270 122.23 127.75 10.45
12843 28.1290 116.22 121.51 10.13
12844 28.1310 110.94 120.40 9.83
12845 28.1330 118.52 123.87 10.22
12846 28.1350 114.73 130.63 10.16
12847 28.1370 142.26 136.25 11.26
12848 28.1390 154.55 134.46 11.71
12849 28.1410 134.72 125.45 10.89
12850 28.1430 86.55 115.39 8.72
12851 28.1450 99.33 108.04 9.41
12852 28.1470 121.46 104.10 10.47
12853 28.1490 105.25 102.96 9.65
12854 28.1510 85.10 103.53 8.64
12855 28.1530 100.38 104.48 9.38
12856 28.1550 117.29 105.78 10.24
12857 28.1570 97.67 108.55 9.34
12858 28.1590 116.97 112.48 10.19
12859 28.1610 126.43 114.83 10.50
12860 28.1630 133.81 113.26 10.83
12861 28.1650 104.46 109.16 9.68
12862 28.1670 123.26 105.33 10.49
12863 28.1690 109.02 102.56 9.86
12864 28.1710 101.66 99.57 9.44
12865 28.1730 90.24 96.10 8.93
12866 28.1750 78.70 93.49 8.42
12867 28.1770 95.88 92.64 9.29
12868 28.1790 105.57 93.73 9.64
12869 28.1810 90.32 96.84 8.89
12870 28.1830 108.00 101.89 9.81
12871 28.1850 108.53 107.97 9.89
12872 28.1870 110.20 112.73 9.97
12873 28.1890 133.04 114.21 10.93
12874 28.1910 113.37 113.48 9.96
12875 28.1930 109.53 111.46 9.86
12876 28.1950 98.60 106.96 9.43
12877 28.1970 100.91 100.69 9.49
12878 28.1990 90.23 95.25 8.95
12879 28.2010 82.29 91.39 8.52
12880 28.2030 84.39 89.31 8.64
12881 28.2050 99.60 88.67 9.46
12882 28.2070 83.60 88.99 8.67
12883 28.2090 98.60 89.71 9.36
12884 28.2110 73.79 90.96 8.04
12885 28.2130 81.55 93.37 8.49
12886 28.2150 88.54 97.11 8.97
12887 28.2170 103.29 101.08 9.60
12888 28.2190 91.25 103.05 9.02
12889 28.2210 112.86 102.26 10.00
12890 28.2230 101.67 100.62 9.51
12891 28.2250 100.81 99.72 9.54
12892 28.2270 96.25 99.49 9.31
12893 28.2290 109.46 99.91 9.92
12894 28.2310 94.98 101.75 9.15
12895 28.2330 107.37 105.88 9.79
12896 28.2350 95.84 113.08 9.35
12897 28.2370 119.70 124.39 10.38
12898 28.2390 145.25 141.62 11.38
12899 28.2410 154.25 167.18 11.63
12900 28.2430 218.65 202.42 13.97
12901 28.2450 242.26 239.05 14.80
12902 28.2470 271.01 253.43 15.61
12903 28.2490 230.36 232.24 14.34
12904 28.2510 207.84 195.05 13.59
12905 28.2530 170.94 162.49 12.30
12906 28.2550 131.58 140.33 10.94
12907 28.2570 125.52 126.57 10.66
12908 28.2590 127.28 118.22 10.63
12909 28.2610 108.36 113.40 9.77
12910 28.2630 110.70 111.80 9.91
12911 28.2650 113.87 113.91 10.14
12912 28.2670 115.17 120.18 10.18
12913 28.2690 141.59 130.22 11.21
12914 28.2710 163.91 139.44 11.98
12915 28.2730 150.11 139.12 11.57
12916 28.2750 131.13 128.64 10.88
12917 28.2770 97.70 116.59 9.39
12918 28.2790 98.90 107.82 9.37
12919 28.2810 99.95 102.70 9.38
12920 28.2830 108.03 100.54 9.83
12921 28.2850 107.75 100.81 9.87
12922 28.2870 95.14 103.65 9.23
12923 28.2890 113.90 109.43 10.07
12924 28.2910 127.82 118.66 10.59
12925 28.2930 133.04 130.72 10.85
12926 28.2950 135.07 141.55 11.00
12927 28.2970 153.09 145.38 11.72
12928 28.2990 144.32 144.37 11.32
12929 28.3010 142.85 145.71 11.20
12930 28.3030 158.50 152.17 11.82
12931 28.3050 152.56 158.78 11.76
12932 28.3070 162.33 156.27 12.03
12933 28.3090 137.00 143.10 11.04
12934 28.3110 106.79 127.62 9.70
12935 28.3130 113.64 115.68 10.04
12936 28.3150 111.77 108.16 10.03
12937 28.3170 111.00 104.39 9.96
12938 28.3190 114.94 103.89 10.12
12939 28.3210 103.36 106.64 9.51
12940 28.3230 122.69 113.08 10.38
12941 28.3250 110.65 123.24 10.00
12942 28.3270 131.31 133.72 10.82
12943 28.3290 146.77 136.41 11.44
12944 28.3310 150.13 127.70 11.47
12945 28.3330 100.68 114.78 9.42
12946 28.3350 113.56 103.97 10.13
12947 28.3370 98.58 96.50 9.42
12948 28.3390 99.57 91.59 9.40
12949 28.3410 93.38 88.44 9.09
12950 28.3430 88.36 86.48 8.82
12951 28.3450 89.45 85.36 8.99
12952 28.3470 78.92 84.87 8.39
12953 28.3490 91.41 84.88 9.02
12954 28.3510 89.54 85.40 8.88
12955 28.3530 86.89 86.55 8.74
12956 28.3550 87.38 88.51 8.87
12957 28.3570 98.76 91.59 9.38
12958 28.3590 88.90 96.14 8.88
12959 28.3610 97.56 102.60 9.21
12960 28.3630 115.28 110.63 10.07
12961 28.3650 122.73 117.85 10.50
12962 28.3670 130.46 120.32 10.81
12963 28.3690 106.00 117.56 9.69
12964 28.3710 110.52 113.41 9.86
12965 28.3730 122.13 110.31 10.40
12966 28.3750 123.48 108.37 10.51
12967 28.3770 124.80 108.00 10.58
12968 28.3790 108.08 110.02 9.77
12969 28.3810 106.80 114.95 9.68
12970 28.3830 120.54 123.30 10.26
12971 28.3850 145.27 136.05 11.43
12972 28.3870 168.52 154.80 12.25
12973 28.3890 172.27 180.69 12.35
12974 28.3910 217.23 211.03 13.75
12975 28.3930 256.89 237.06 15.07
12976 28.3950 273.96 249.11 15.66
12977 28.3970 244.36 241.45 14.79
12978 28.3990 245.71 216.49 14.76
12979 28.4010 164.40 185.81 11.98
12980 28.4030 143.50 159.69 11.23
12981 28.4050 143.54 141.09 11.32
12982 28.4070 141.58 129.24 11.22
12983 28.4090 134.76 122.59 10.93
12984 28.4110 121.50 119.74 10.24
12985 28.4130 139.42 119.17 11.07
12986 28.4150 133.19 119.07 10.93
12987 28.4170 128.99 118.47 10.69
12988 28.4190 133.72 118.14 10.85
12989 28.4210 124.73 119.43 10.42
12990 28.4230 98.14 123.55 9.25
12991 28.4250 133.20 131.67 10.93
12992 28.4270 155.21 145.15 11.72
12993 28.4290 184.99 165.84 12.75
12994 28.4310 221.53 194.65 13.87
12995 28.4330 245.17 230.14 14.70
12996 28.4350 274.72 267.36 15.63
12997 28.4370 331.56 295.38 17.16
12998 28.4390 295.29 295.68 16.17
12999 28.4410 280.86 268.31 15.57
13000 28.4430 247.01 234.87 14.71
13001 28.4450 204.91 210.75 13.52
13002 28.4470 194.26 196.32 13.13
13003 28.4490 163.92 187.35 12.02
13004 28.4510 178.38 183.28 12.43
13005 28.4530 180.68 182.99 12.58
13006 28.4550 190.15 181.26 13.03
13007 28.4570 190.20 173.93 13.00
13008 28.4590 188.01 164.01 12.86
13009 28.4610 139.73 157.72 11.03
13010 28.4630 158.07 157.38 11.81
13011 28.4650 189.92 159.36 12.98
13012 28.4670 168.12 155.94 12.25
13013 28.4690 177.70 144.85 12.56
13014 28.4710 144.49 132.06 11.19
13015 28.4730 127.61 122.40 10.67
13016 28.4750 110.95 116.63 9.95
13017 28.4770 135.20 114.41 10.97
13018 28.4790 128.19 115.43 10.67
13019 28.4810 147.00 119.78 11.33
13020 28.4830 142.75 127.94 11.21
13021 28.4850 136.32 140.83 11.06
13022 28.4870 162.24 159.67 12.05
13023 28.4890 191.63 183.79 13.00
13024 28.4910 229.87 205.69 14.21
13025 28.4930 228.75 212.98 14.34
13026 28.4950 224.20 202.27 14.07
13027 28.4970 205.50 179.87 13.58
13028 28.4990 153.52 155.15 11.69
13029 28.5010 123.44 135.51 10.38
13030 28.5030 129.07 122.29 10.73
13031 28.5050 125.85 114.45 10.59
13032 28.5070 132.48 110.88 10.95
13033 28.5090 115.85 111.04 10.10
13034 28.5110 111.07 114.72 9.86
13035 28.5130 127.40 120.89 10.69
13036 28.5150 131.02 125.60 10.82
13037 28.5170 136.75 123.41 11.11
13038 28.5190 116.78 115.46 10.21
13039 28.5210 126.92 107.18 10.58
13040 28.5230 99.72 101.27 9.45
13041 28.5250 114.00 97.75 10.11
13042 28.5270 104.03 96.15 9.70
13043 28.5290 108.99 95.69 9.86
13044 28.5310 100.10 94.64 9.33
13045 28.5330 95.56 91.82 9.35
13046 28.5350 97.91 88.23 9.37
13047 28.5370 94.28 85.20 9.21
13048 28.5390 76.63 83.14 8.25
13049 28.5410 84.06 81.97 8.67
13050 28.5430 85.16 81.58 8.72
13051 28.5450 82.98 81.72 8.65
13052 28.5470 86.62 81.80 8.90
13053 28.5490 86.31 81.13 8.82
13054 28.5510 73.30 79.92 8.06
13055 28.5530 84.33 78.84 8.75
13056 28.5550 82.97 78.16 8.68
13057 28.5570 74.79 78.10 8.22
13058 28.5590 84.74 78.19 8.73
13059 28.5610 86.45 78.67 8.77
13060 28.5630 77.45 79.62 8.40
13061 28.5650 93.47 81.14 9.17
13062 28.5670 83.27 83.26 8.71
13063 28.5690 73.78 85.65 8.13
13064 28.5710 77.94 87.90 8.33
13065 28.5730 110.37 90.77 10.00
13066 28.5750 100.07 95.13 9.55
13067 28.5770 113.08 100.43 10.16
13068 28.5790 122.71 103.21 10.46
13069 28.5810 119.18 100.39 10.29
13070 28.5830 94.66 94.34 9.27
13071 28.5850 100.53 88.88 9.51
13072 28.5870 86.27 84.88 8.82
13073 28.5890 90.32 82.31 9.02
13074 28.5910 96.70 80.72 9.26
13075 28.5930 99.87 79.79 9.50
13076 28.5950 80.72 79.31 8.54
13077 28.5970 69.23 79.19 7.91
13078 28.5990 91.23 79.37 9.04
13079 28.6010 84.35 79.77 8.65
13080 28.6030 98.17 80.47 9.41
13081 28.6050 91.42 81.60 9.06
13082 28.6070 89.26 83.19 9.02
13083 28.6090 92.35 85.39 9.12
13084 28.6110 95.25 88.48 9.18
13085 28.6130 83.57 92.89 8.66
13086 28.6150 120.44 99.30 10.43
13087 28.6170 122.88 108.83 10.46
13088 28.6190 137.46 122.87 11.10
13089 28.6210 150.64 142.42 11.53
13090 28.6230 170.78 164.15 12.29
13091 28.6250 193.08 176.93 13.21
13092 28.6270 155.66 170.55 11.84
13093 28.6290 172.67 152.35 12.44
13094 28.6310 119.12 135.26 10.24
13095 28.6330 137.98 123.58 11.19
13096 28.6350 119.17 115.41 10.28
13097 28.6370 118.79 108.67 10.31
13098 28.6390 106.27 103.75 9.78
13099 28.6410 113.23 100.86 9.97
13100 28.6430 120.39 99.88 10.35
13101 28.6450 98.01 100.70 9.36
13102 28.6470 100.21 103.78 9.46
13103 28.6490 125.36 110.19 10.59
13104 28.6510 117.08 120.89 10.20
13105 28.6530 129.62 136.21 10.74
13106 28.6550 147.03 152.03 11.51
13107 28.6570 172.42 157.32 12.47
13108 28.6590 154.99 147.68 11.79
13109 28.6610 140.60 133.25 11.13
13110 28.6630 126.01 122.45 10.61
13111 28.6650 111.76 116.12 9.98
13112 28.6670 133.67 111.02 10.99
13113 28.6690 105.00 104.76 9.66
13114 28.6710 96.49 98.35 9.22
13115 28.6730 89.32 93.26 8.88
13116 28.6750 87.34 89.74 8.85
13117 28.6770 97.12 87.49 9.35
13118 28.6790 83.85 86.19 8.64
13119 28.6810 92.65 85.64 9.00
13120 28.6830 89.89 85.73 8.92
13121 28.6850 75.27 86.49 8.22
13122 28.6870 88.55 87.98 8.92
13123 28.6890 92.09 90.53 9.10
13124 28.6910 99.82 94.43 9.35
13125 28.6930 91.58 100.42 9.04
13126 28.6950 107.56 109.14 9.82
13127 28.6970 124.12 120.17 10.57
13128 28.6990 149.49 130.74 11.51
13129 28.7010 129.05 134.64 10.66
13130 28.7030 130.12 128.83 10.73
13131 28.7050 105.24 118.11 9.69
13132 28.7070 109.23 108.00 9.89
13133 28.7090 99.39 100.39 9.46
13134 28.7110 93.29 95.31 9.08
13135 28.7130 92.51 92.10 9.10
13136 28.7150 91.29 90.22 9.03
13137 28.7170 91.64 89.38 9.05
13138 28.7190 84.88 89.28 8.74
13139 28.7210 89.09 89.78 8.83
13140 28.7230 92.41 90.91 9.08
13141 28.7250 98.35 92.74 9.38
13142 28.7270 88.17 95.29 8.87
13143 28.7290 88.73 98.58 8.92
13144 28.7310 121.75 102.68 10.32
13145 28.7330 91.59 108.21 9.05
13146 28.7350 95.43 116.07 9.24
13147 28.7370 118.17 127.57 10.28
13148 28.7390 154.35 144.40 11.75
13149 28.7410 157.98 168.61 11.75
13150 28.7430 199.68 201.13 13.31
13151 28.7450 247.11 238.23 14.82
13152 28.7470 287.24 267.55 16.06
13153 28.7490 297.45 270.62 16.33
13154 28.7510 245.53 245.29 14.67
13155 28.7530 193.96 210.29 13.11
13156 28.7550 162.93 181.20 12.05
13157 28.7570 153.77 162.10 11.71
13158 28.7590 157.93 152.38 11.87
13159 28.7610 135.91 150.58 10.87
13160 28.7630 176.09 154.61 12.51
13161 28.7650 183.20 160.07 12.79
13162 28.7670 165.26 160.81 12.17
13163 28.7690 152.80 154.96 11.66
13164 28.7710 158.44 147.64 11.84
13165 28.7730 138.40 144.35 11.09
13166 28.7750 152.15 147.30 11.65
13167 28.7770 145.01 156.56 11.41
13168 28.7790 171.26 169.38 12.34
13169 28.7810 160.35 178.80 11.84
13170 28.7830 207.76 177.30 13.55
13171 28.7850 170.12 166.86 12.34
13172 28.7870 149.23 154.62 11.58
13173 28.7890 136.45 143.37 11.03
13174 28.7910 133.11 133.11 10.82
13175 28.7930 112.39 124.93 10.02
13176 28.7950 116.78 119.81 10.18
13177 28.7970 105.80 117.87 9.78
13178 28.7990 117.13 119.06 10.16
13179 28.8010 131.28 123.63 10.72
13180 28.8030 143.82 132.43 11.24
13181 28.8050 156.54 146.82 11.85
13182 28.8070 166.45 167.98 12.23
13183 28.8090 184.63 192.70 12.85
13184 28.8110 240.70 208.72 14.56
13185 28.8130 193.33 206.56 13.07
13186 28.8150 217.65 196.94 13.97
13187 28.8170 194.31 194.79 13.19
13188 28.8190 198.83 205.89 13.31
13189 28.8210 227.70 228.72 14.09
13190 28.8230 247.98 252.32 14.73
13191 28.8250 239.14 256.54 14.64
13192 28.8270 243.51 236.64 14.77
13193 28.8290 187.68 211.11 12.90
13194 28.8310 168.97 193.12 12.19
13195 28.8330 171.41 181.20 12.29
13196 28.8350 179.02 167.82 12.66
13197 28.8370 127.83 150.83 10.69
13198 28.8390 122.13 134.35 10.40
13199 28.8410 124.10 121.43 10.48
13200 28.8430 110.30 112.18 9.84
13201 28.8450 90.08 105.93 9.02
13202 28.8470 87.19 101.87 8.87
13203 28.8490 106.05 99.42 9.70
13204 28.8510 93.90 98.11 9.11
13205 28.8530 107.96 97.26 9.78
13206 28.8550 94.43 96.18 9.20
13207 28.8570 107.97 94.68 9.88
13208 28.8590 103.43 93.37 9.58
13209 28.8610 91.96 92.64 8.98
13210 28.8630 85.71 92.63 8.68
13211 28.8650 92.03 93.31 9.05
13212 28.8670 90.13 94.46 9.04
13213 28.8690 103.35 95.81 9.60
13214 28.8710 108.25 97.31 9.78
13215 28.8730 110.46 99.40 9.88
13216 28.8750 101.97 102.68 9.60
13217 28.8770 102.78 107.71 9.60
13218 28.8790 107.82 115.23 9.79
13219 28.8810 120.26 126.42 10.32
13220 28.8830 144.30 142.79 11.27
13221 28.8850 157.25 165.06 11.80
13222 28.8870 182.41 188.98 12.84
13223 28.8890 201.63 201.85 13.44
13224 28.8910 192.98 194.43 13.03
13225 28.8930 174.47 176.54 12.38
13226 28.8950 151.51 161.46 11.65
13227 28.8970 155.24 153.61 11.76
13228 28.8990 157.08 151.56 11.78
13229 28.9010 143.69 151.21 11.22
13230 28.9030 135.11 148.86 10.95
13231 28.9050 138.02 145.12 11.09
13232 28.9070 148.25 143.10 11.54
13233 28.9090 144.44 144.58 11.32
13234 28.9110 145.29 149.54 11.32
13235 28.9130 148.23 158.62 11.36
13236 28.9150 187.37 173.85 12.99
13237 28.9170 208.56 196.50 13.65
13238 28.9190 215.18 223.93 13.83
13239 28.9210 252.65 247.93 14.76
13240 28.9230 282.53 262.18 15.85
13241 28.9250 270.31 266.25 15.52
13242 28.9270 296.64 259.44 16.39
13243 28.9290 235.46 242.89 14.44
13244 28.9310 193.14 222.55 13.02
13245 28.9330 216.13 205.98 13.90
13246 28.9350 178.20 198.07 12.60
13247 28.9370 177.46 201.35 12.70
13248 28.9390 191.03 215.17 13.07
13249 28.9410 223.99 231.76 14.05
13250 28.9430 278.50 235.33 15.69
13251 28.9450 211.93 218.49 13.89
13252 28.9470 208.18 193.20 13.63
13253 28.9490 172.27 171.70 12.42
13254 28.9510 153.63 156.25 11.58
13255 28.9530 155.44 145.26 11.79
13256 28.9550 141.10 138.10 11.23
13257 28.9570 146.50 135.38 11.50
13258 28.9590 138.51 135.94 11.11
13259 28.9610 138.88 138.21 11.01
13260 28.9630 124.92 142.35 10.51
13261 28.9650 132.71 149.53 10.89
13262 28.9670 167.47 157.14 12.34
13263 28.9690 164.78 157.98 12.11
13264 28.9710 158.41 149.31 11.80
13265 28.9730 125.03 137.68 10.52
13266 28.9750 125.89 128.46 10.69
13267 28.9770 115.64 122.08 10.13
13268 28.9790 120.92 117.61 10.41
13269 28.9810 124.57 114.84 10.48
13270 28.9830 129.08 113.69 10.70
13271 28.9850 115.54 113.41 10.16
13272 28.9870 109.99 114.41 10.01
13273 28.9890 137.88 117.58 11.07
13274 28.9910 120.35 122.96 10.25
13275 28.9930 127.06 128.49 10.61
13276 28.9950 118.73 130.73 10.35
13277 28.9970 143.67 127.56 11.39
13278 28.9990 139.42 121.02 11.13
13279 29.0010 130.38 115.15 10.78
13280 29.0030 118.56 112.03 10.21
13281 29.0050 126.06 112.09 10.59
13282 29.0070 112.26 114.32 10.04
13283 29.0090 104.88 116.09 9.70
13284 29.0110 123.08 114.18 10.36
13285 29.0130 98.22 108.17 9.34
13286 29.0150 103.91 101.24 9.66
13287 29.0170 96.79 95.58 9.34
13288 29.0190 82.60 91.67 8.51
13289 29.0210 92.80 89.17 9.04
13290 29.0230 80.78 87.85 8.46
13291 29.0250 81.71 87.34 8.52
13292 29.0270 98.25 87.46 9.39
13293 29.0290 111.26 87.80 9.98
13294 29.0310 86.55 88.04 8.78
13295 29.0330 80.64 88.47 8.43
13296 29.0350 105.81 89.67 9.75
13297 29.0370 91.50 92.00 9.09
13298 29.0390 88.52 95.38 8.88
13299 29.0410 108.41 99.31 9.75
13300 29.0430 99.13 103.59 9.39
13301 29.0450 102.65 109.46 9.57
13302 29.0470 120.78 117.67 10.45
13303 29.0490 134.59 125.85 10.96
13304 29.0510 123.34 128.03 10.42
13305 29.0530 121.95 121.68 10.39
13306 29.0550 114.03 111.61 10.09
13307 29.0570 111.38 102.79 10.02
13308 29.0590 100.39 96.59 9.43
13309 29.0610 88.03 92.75 8.80
13310 29.0630 89.80 90.66 8.91
13311 29.0650 92.90 89.69 9.13
13312 29.0670 90.35 89.05 9.02
13313 29.0690 81.09 88.57 8.50
13314 29.0710 86.04 88.64 8.68
13315 29.0730 104.15 89.52 9.61
13316 29.0750 91.48 90.90 9.08
13317 29.0770 90.70 91.85 8.96
13318 29.0790 84.82 91.56 8.70
13319 29.0810 86.16 90.23 8.67
13320 29.0830 107.26 88.37 9.76
13321 29.0850 70.15 86.17 7.90
13322 29.0870 95.00 84.35 9.29
13323 29.0890 93.17 83.17 9.10
13324 29.0910 87.48 82.62 8.77
13325 29.0930 97.54 82.42 9.31
13326 29.0950 83.51 82.25 8.66
13327 29.0970 96.37 81.84 9.27
13328 29.0990 94.16 81.53 9.13
13329 29.1010 86.32 81.58 8.66
13330 29.1030 86.03 82.11 8.73
13331 29.1050 81.73 83.12 8.54
13332 29.1070 96.49 84.32 9.28
13333 29.1090 80.83 85.03 8.48
13334 29.1110 87.00 84.89 8.75
13335 29.1130 89.37 84.49 8.89
13336 29.1150 85.46 84.47 8.74
13337 29.1170 94.75 84.97 9.22
13338 29.1190 84.62 85.79 8.64
13339 29.1210 101.53 86.83 9.39
13340 29.1230 89.14 88.26 8.86
13341 29.1250 96.26 90.25 9.27
13342 29.1270 99.85 92.27 9.45
13343 29.1290 115.40 93.71 10.11
13344 29.1310 112.41 94.26 9.89
13345 29.1330 112.09 94.86 9.94
13346 29.1350 102.55 96.52 9.55
13347 29.1370 98.92 99.46 9.40
13348 29.1390 119.22 103.38 10.23
13349 29.1410 101.35 107.44 9.36
13350 29.1430 108.41 111.59 9.75
13351 29.1450 110.97 117.44 9.96
13352 29.1470 127.89 127.45 10.71
13353 29.1490 153.88 143.52 11.69
13354 29.1510 168.37 167.32 12.14
13355 29.1530 200.46 197.23 13.25
13356 29.1550 221.35 221.23 14.05
13357 29.1570 240.36 222.63 14.66
13358 29.1590 205.78 205.33 13.46
13359 29.1610 188.98 185.78 12.83
13360 29.1630 166.85 170.14 12.07
13361 29.1650 162.31 158.82 12.10
13362 29.1670 161.74 153.81 12.01
13363 29.1690 159.82 157.02 11.86
13364 29.1710 173.59 169.00 12.30
13365 29.1730 172.52 187.04 12.31
13366 29.1750 208.02 199.85 13.59
13367 29.1770 218.14 193.42 13.94
13368 29.1790 166.75 171.25 12.11
13369 29.1810 150.04 147.71 11.40
13370 29.1830 128.31 129.61 10.59
13371 29.1850 120.60 117.06 10.33
13372 29.1870 95.04 108.56 9.24
13373 29.1890 105.11 102.73 9.60
13374 29.1910 90.07 98.28 8.92
13375 29.1930 95.72 94.62 9.19
13376 29.1950 108.17 91.76 9.85
13377 29.1970 87.48 89.72 8.84
13378 29.1990 102.98 88.40 9.54
13379 29.2010 87.68 87.69 8.74
13380 29.2030 69.82 87.48 7.88
13381 29.2050 69.56 87.57 7.88
13382 29.2070 81.46 87.79 8.52
13383 29.2090 109.07 88.19 9.80
13384 29.2110 86.33 89.16 8.75
13385 29.2130 95.08 90.98 9.18
13386 29.2150 90.60 93.96 9.01
13387 29.2170 98.34 98.37 9.37
13388 29.2190 93.53 104.41 9.07
13389 29.2210 122.83 111.36 10.42
13390 29.2230 117.92 117.77 10.30
13391 29.2250 133.16 122.94 10.90
13392 29.2270 147.86 126.85 11.53
13393 29.2290 130.78 127.54 10.75
13394 29.2310 127.27 123.00 10.57
13395 29.2330 115.55 115.21 10.16
13396 29.2350 105.49 107.71 9.75
13397 29.2370 98.07 102.10 9.39
13398 29.2390 114.04 98.33 9.96
13399 29.2410 86.17 96.22 8.72
13400 29.2430 100.05 95.67 9.45
13401 29.2450 101.59 96.59 9.55
13402 29.2470 99.80 99.08 9.48
13403 29.2490 106.48 103.61 9.69
13404 29.2510 124.99 110.62 10.52
13405 29.2530 141.80 119.16 11.23
13406 29.2550 141.31 125.20 11.24
13407 29.2570 128.82 123.65 10.80
13408 29.2590 116.63 115.79 10.16
13409 29.2610 95.59 107.16 9.17
13410 29.2630 108.31 100.69 9.89
13411 29.2650 99.15 96.77 9.49
13412 29.2670 102.38 94.96 9.59
13413 29.2690 110.14 94.86 9.90
13414 29.2710 95.88 95.89 9.21
13415 29.2730 108.40 96.80 9.87
13416 29.2750 110.72 96.31 10.01
13417 29.2770 81.06 94.95 8.55
13418 29.2790 97.43 94.12 9.30
13419 29.2810 90.34 94.51 8.92
13420 29.2830 92.85 96.39 9.11
13421 29.2850 104.71 100.07 9.76
13422 29.2870 107.41 106.11 9.81
13423 29.2890 110.04 115.27 9.90
13424 29.2910 122.42 128.07 10.39
13425 29.2930 130.54 142.70 10.80
13426 29.2950 151.01 152.51 11.63
13427 29.2970 164.38 149.78 12.16
13428 29.2990 127.09 137.51 10.64
13429 29.3010 129.18 124.25 10.67
13430 29.3030 119.72 114.35 10.35
13431 29.3050 107.49 108.17 9.87
13432 29.3070 115.17 105.08 10.26
13433 29.3090 121.14 104.58 10.34
13434 29.3110 103.96 106.55 9.59
13435 29.3130 111.91 111.16 10.02
13436 29.3150 114.64 119.04 10.08
13437 29.3170 128.66 130.86 10.78
13438 29.3190 129.52 146.40 10.72
13439 29.3210 158.82 162.49 11.84
13440 29.3230 183.60 172.42 12.80
13441 29.3250 198.60 169.32 13.32
13442 29.3270 170.91 154.59 12.45
13443 29.3290 135.71 137.63 10.94
13444 29.3310 138.78 124.69 11.07
13445 29.3330 107.02 116.50 9.79
13446 29.3350 102.76 111.94 9.60
13447 29.3370 103.55 109.98 9.63
13448 29.3390 91.35 110.08 8.99
13449 29.3410 109.08 111.86 9.78
13450 29.3430 109.86 115.05 9.91
13451 29.3450 116.75 120.51 10.25
13452 29.3470 114.38 129.75 10.19
13453 29.3490 136.40 141.18 11.02
13454 29.3510 137.76 148.87 11.04
13455 29.3530 143.20 147.89 11.37
13456 29.3550 129.84 140.35 10.82
13457 29.3570 127.02 129.30 10.71
13458 29.3590 114.71 117.31 10.10
13459 29.3610 90.67 106.95 8.96
13460 29.3630 88.09 99.18 8.93
13461 29.3650 93.99 93.66 9.16
13462 29.3670 84.49 89.75 8.76
13463 29.3690 83.05 86.95 8.63
13464 29.3710 75.76 84.83 8.20
13465 29.3730 70.50 83.31 7.97
13466 29.3750 84.77 82.16 8.74
13467 29.3770 81.20 81.28 8.59
13468 29.3790 81.34 80.61 8.49
13469 29.3810 78.82 80.08 8.35
13470 29.3830 71.29 79.68 8.03
13471 29.3850 91.86 79.39 9.15
13472 29.3870 77.19 79.19 8.38
13473 29.3890 77.82 79.07 8.38
13474 29.3910 74.64 79.06 8.13
13475 29.3930 74.53 79.14 8.24
13476 29.3950 87.86 79.30 8.86
13477 29.3970 81.89 79.58 8.63
13478 29.3990 79.37 80.03 8.42
13479 29.4010 70.84 80.70 7.89
13480 29.4030 73.30 81.67 8.13
13481 29.4050 74.39 82.97 8.24
13482 29.4070 76.06 84.56 8.30
13483 29.4090 87.78 86.36 8.84
13484 29.4110 98.58 88.33 9.37
13485 29.4130 90.19 89.91 9.02
13486 29.4150 80.54 90.52 8.51
13487 29.4170 90.70 90.69 9.02
13488 29.4190 85.26 91.66 8.75
13489 29.4210 89.21 93.92 8.85
13490 29.4230 69.14 97.25 7.91
13491 29.4250 108.80 100.32 9.90
13492 29.4270 114.94 101.42 10.20
13493 29.4290 92.19 100.57 9.09
13494 29.4310 97.65 99.67 9.28
13495 29.4330 95.91 99.99 9.29
13496 29.4350 104.17 101.36 9.72
13497 29.4370 103.73 102.45 9.67
13498 29.4390 108.73 102.57 9.85
13499 29.4410 101.42 102.68 9.46
13500 29.4430 93.96 103.57 9.16
13501 29.4450 91.50 104.35 9.08
13502 29.4470 91.98 103.61 9.12
13503 29.4490 105.24 101.84 9.72
13504 29.4510 97.49 100.66 9.26
13505 29.4530 102.56 101.17 9.59
13506 29.4550 94.86 103.80 9.28
13507 29.4570 89.87 108.94 8.99
13508 29.4590 115.55 116.29 10.15
13509 29.4610 126.18 124.08 10.52
13510 29.4630 120.18 128.95 10.40
13511 29.4650 124.29 128.68 10.53
13512 29.4670 117.10 124.80 10.33
13513 29.4690 130.62 121.23 10.79
13514 29.4710 112.80 120.76 9.96
13515 29.4730 109.49 124.50 9.93
13516 29.4750 133.09 133.29 10.98
13517 29.4770 148.50 148.29 11.57
13518 29.4790 167.03 170.26 12.17
13519 29.4810 201.98 196.72 13.30
13520 29.4830 214.76 217.47 13.85
13521 29.4850 231.92 219.25 14.42
13522 29.4870 182.19 201.14 12.79
13523 29.4890 162.95 175.93 12.09
13524 29.4910 122.39 154.85 10.29
13525 29.4930 134.45 141.40 10.95
13526 29.4950 134.28 135.32 10.97
13527 29.4970 121.28 135.51 10.45
13528 29.4990 112.66 139.72 10.00
13529 29.5010 123.99 143.17 10.44
13530 29.5030 149.45 141.08 11.53
13531 29.5050 140.02 134.20 11.24
13532 29.5070 119.59 125.32 10.36
13533 29.5090 108.94 117.14 9.85
13534 29.5110 110.23 111.65 9.85
13535 29.5130 105.00 109.36 9.70
13536 29.5150 101.31 110.13 9.53
13537 29.5170 111.88 113.78 10.02
13538 29.5190 134.56 118.91 10.93
13539 29.5210 103.06 122.39 9.52
13540 29.5230 113.81 122.33 10.05
13541 29.5250 102.43 120.99 9.59
13542 29.5270 128.85 121.13 10.77
13543 29.5290 117.62 122.72 10.25
13544 29.5310 136.99 123.08 10.94
13545 29.5330 117.10 120.99 10.25
13546 29.5350 101.34 119.09 9.51
13547 29.5370 113.16 119.39 10.03
13548 29.5390 104.48 120.56 9.64
13549 29.5410 101.22 118.99 9.49
13550 29.5430 110.49 113.47 9.90
13551 29.5450 107.27 106.71 9.84
13552 29.5470 96.86 101.38 9.31
13553 29.5490 87.26 98.06 8.79
13554 29.5510 97.89 96.64 9.28
13555 29.5530 87.30 96.84 8.87
13556 29.5550 80.82 98.40 8.52
13557 29.5570 95.48 100.95 9.30
13558 29.5590 88.11 104.03 8.85
13559 29.5610 108.62 106.53 9.78
13560 29.5630 79.97 106.50 8.45
13561 29.5650 107.18 104.06 9.78
13562 29.5670 103.75 101.62 9.64
13563 29.5690 116.86 100.59 10.21
13564 29.5710 96.01 100.71 9.17
13565 29.5730 90.39 101.41 9.00
13566 29.5750 115.09 103.10 10.18
13567 29.5770 94.86 106.21 9.22
13568 29.5790 94.52 109.30 9.15
13569 29.5810 105.81 109.48 9.65
13570 29.5830 106.56 105.97 9.72
13571 29.5850 118.56 101.63 10.33
13572 29.5870 91.11 98.58 9.05
13573 29.5890 105.43 97.42 9.72
13574 29.5910 96.90 98.09 9.25
13575 29.5930 103.61 100.53 9.62
13576 29.5950 100.56 104.72 9.55
13577 29.5970 112.19 110.13 10.05
13578 29.5990 107.29 115.14 9.76
13579 29.6010 119.96 118.38 10.23
13580 29.6030 97.14 121.11 9.33
13581 29.6050 119.45 125.61 10.37
13582 29.6070 139.14 133.04 11.15
13583 29.6090 149.24 142.95 11.56
13584 29.6110 155.75 151.11 11.72
13585 29.6130 145.95 150.72 11.38
13586 29.6150 150.67 141.40 11.63
13587 29.6170 109.09 129.88 9.91
13588 29.6190 106.33 121.13 9.70
13589 29.6210 102.41 116.35 9.50
13590 29.6230 115.82 114.62 10.15
13591 29.6250 119.63 113.71 10.37
13592 29.6270 92.55 111.57 9.12
13593 29.6290 110.77 108.59 9.89
13594 29.6310 111.26 106.22 9.88
13595 29.6330 120.48 104.54 10.35
13596 29.6350 91.61 102.55 9.09
13597 29.6370 99.15 99.91 9.41
13598 29.6390 94.79 97.55 9.17
13599 29.6410 94.05 96.28 9.11
13600 29.6430 82.71 96.45 8.55
13601 29.6450 101.42 98.05 9.59
13602 29.6470 93.01 100.51 9.17
13603 29.6490 109.86 102.19 9.91
13604 29.6510 110.31 101.90 9.84
13605 29.6530 93.63 100.93 9.15
13606 29.6550 95.11 101.07 9.27
13607 29.6570 109.57 102.86 9.93
13608 29.6590 96.06 105.56 9.20
13609 29.6610 114.20 107.67 10.05
13610 29.6630 106.29 109.04 9.69
13611 29.6650 104.21 111.42 9.66
13612 29.6670 115.69 116.47 10.20
13613 29.6690 128.68 124.78 10.71
13614 29.6710 137.73 135.48 10.99
13615 29.6730 137.37 145.42 11.02
13616 29.6750 163.16 150.48 12.14
13617 29.6770 147.31 149.97 11.49
13618 29.6790 131.66 145.86 10.82
13619 29.6810 147.64 140.48 11.40
13620 29.6830 125.38 135.17 10.52
13621 29.6850 129.75 128.73 10.77
13622 29.6870 113.05 120.56 10.13
13623 29.6890 119.11 112.77 10.28
13624 29.6910 110.48 107.04 9.88
13625 29.6930 101.07 103.79 9.45
13626 29.6950 104.52 102.80 9.68
13627 29.6970 93.39 103.31 9.17
13628 29.6990 117.39 103.85 10.18
13629 29.7010 91.82 102.79 8.96
13630 29.7030 108.60 100.47 9.82
13631 29.7050 90.95 98.46 9.00
13632 29.7070 122.59 97.68 10.52
13633 29.7090 112.56 98.43 9.97
13634 29.7110 108.51 100.93 9.78
13635 29.7130 122.15 105.56 10.41
13636 29.7150 133.17 112.86 10.95
13637 29.7170 137.21 122.84 11.10
13638 29.7190 146.55 133.73 11.39
13639 29.7210 157.48 142.21 11.75
13640 29.7230 138.85 145.36 11.08
13641 29.7250 166.89 142.88 12.23
13642 29.7270 137.10 137.62 11.07
13643 29.7290 110.60 132.01 9.92
13644 29.7310 127.49 127.63 10.61
13645 29.7330 154.26 124.99 11.68
13646 29.7350 116.44 122.51 10.21
13647 29.7370 121.93 119.63 10.48
13648 29.7390 142.69 117.96 11.21
13649 29.7410 124.30 117.37 10.50
13650 29.7430 111.58 115.28 9.94
13651 29.7450 106.87 110.96 9.80
13652 29.7470 100.60 106.68 9.51
13653 29.7490 111.55 104.26 9.97
13654 29.7510 97.16 104.18 9.21
13655 29.7530 97.61 106.50 9.29
13656 29.7550 114.34 111.28 10.15
13657 29.7570 116.83 118.29 10.20
13658 29.7590 129.72 125.83 10.78
13659 29.7610 137.33 130.20 11.00
13660 29.7630 123.55 129.13 10.46
13661 29.7650 119.81 125.26 10.37
13662 29.7670 139.59 122.07 11.25
13663 29.7690 145.15 120.61 11.31
13664 29.7710 109.78 121.08 9.87
13665 29.7730 122.60 124.50 10.42
13666 29.7750 125.55 131.64 10.64
13667 29.7770 145.61 141.47 11.41
13668 29.7790 164.46 150.84 12.17
13669 29.7810 150.58 156.55 11.50
13670 29.7830 154.39 156.58 11.71
13671 29.7850 155.25 149.69 11.81
13672 29.7870 143.69 137.48 11.42
13673 29.7890 125.58 123.93 10.56
13674 29.7910 107.85 112.40 9.75
13675 29.7930 95.90 103.83 9.23
13676 29.7950 106.24 97.75 9.77
13677 29.7970 86.57 93.67 8.86
13678 29.7990 82.26 90.67 8.55
13679 29.8010 84.00 88.55 8.61
13680 29.8030 86.75 87.05 8.77
13681 29.8050 78.00 86.01 8.35
13682 29.8070 77.60 85.34 8.39
13683 29.8090 76.20 84.97 8.28
13684 29.8110 90.79 84.92 8.95
13685 29.8130 81.11 85.23 8.49
13686 29.8150 93.33 85.86 9.19
13687 29.8170 95.89 86.98 9.30
13688 29.8190 78.75 88.73 8.36
13689 29.8210 106.23 91.39 9.67
13690 29.8230 103.48 95.17 9.58
13691 29.8250 101.01 100.44 9.56
13692 29.8270 97.94 106.24 9.38
13693 29.8290 106.81 112.56 9.76
13694 29.8310 119.28 120.19 10.27
13695 29.8330 116.25 128.31 10.15
13696 29.8350 136.02 132.27 11.03
13697 29.8370 122.00 128.21 10.51
13698 29.8390 114.13 118.48 10.07
13699 29.8410 108.93 108.20 9.74
13700 29.8430 86.56 100.03 8.78
13701 29.8450 82.46 94.23 8.60
13702 29.8470 91.87 90.23 9.06
13703 29.8490 92.71 87.50 9.08
13704 29.8510 82.40 85.63 8.55
13705 29.8530 78.12 84.35 8.31
13706 29.8550 79.10 83.51 8.45
13707 29.8570 85.99 82.92 8.83
13708 29.8590 92.94 82.47 9.15
13709 29.8610 68.93 82.14 7.78
13710 29.8630 83.72 82.00 8.62
13711 29.8650 78.82 82.08 8.46
13712 29.8670 95.12 82.43 9.29
13713 29.8690 87.45 83.08 8.81
13714 29.8710 84.73 84.15 8.72
13715 29.8730 94.83 85.77 9.16
13716 29.8750 96.81 88.07 9.29
13717 29.8770 85.45 91.03 8.79
13718 29.8790 96.40 94.25 9.27
13719 29.8810 96.77 97.51 9.23
13720 29.8830 90.75 101.18 8.94
13721 29.8850 105.02 104.69 9.74
13722 29.8870 98.04 105.92 9.40
13723 29.8890 110.27 103.82 9.88
13724 29.8910 109.02 99.93 9.81
13725 29.8930 86.06 95.93 8.71
13726 29.8950 101.11 92.69 9.50
13727 29.8970 84.79 90.13 8.74
13728 29.8990 90.51 87.96 9.00
13729 29.9010 78.14 86.23 8.29
13730 29.9030 72.95 85.08 8.03
13731 29.9050 79.39 84.34 8.43
13732 29.9070 91.15 83.73 9.06
13733 29.9090 72.41 83.21 7.98
13734 29.9110 85.26 82.88 8.71
13735 29.9130 85.91 82.72 8.71
13736 29.9150 90.26 82.56 8.98
13737 29.9170 73.91 82.27 8.15
13738 29.9190 86.55 81.89 8.86
13739 29.9210 74.92 81.57 8.10
13740 29.9230 80.23 81.42 8.39
13741 29.9250 72.45 81.50 8.08
13742 29.9270 61.08 81.78 7.42
13743 29.9290 86.46 82.34 8.74
13744 29.9310 83.71 83.23 8.63
13745 29.9330 82.68 84.56 8.52
13746 29.9350 78.83 86.33 8.37
13747 29.9370 97.03 88.33 9.35
13748 29.9390 94.36 89.86 9.18
13749 29.9410 90.07 89.97 8.90
13750 29.9430 105.50 88.88 9.59
13751 29.9450 82.52 87.56 8.66
13752 29.9470 102.83 86.62 9.64
13753 29.9490 76.55 86.18 8.25
13754 29.9510 70.32 86.20 7.88
13755 29.9530 92.67 86.59 9.07
13756 29.9550 90.85 87.33 9.00
13757 29.9570 77.87 88.43 8.42
13758 29.9590 92.88 89.92 9.09
13759 29.9610 81.58 91.90 8.48
13760 29.9630 78.65 94.46 8.29
13761 29.9650 102.53 97.67 9.57
13762 29.9670 104.99 101.62 9.74
13763 29.9690 98.99 106.68 9.36
13764 29.9710 124.35 113.55 10.52
13765 29.9730 128.32 122.79 10.60
13766 29.9750 132.04 134.02 10.90
13767 29.9770 146.70 146.12 11.44
13768 29.9790 155.47 159.81 11.77
13769 29.9810 184.41 178.55 12.74
13770 29.9830 212.33 205.10 13.69
13771 29.9850 251.23 238.96 15.11
13772 29.9870 293.75 272.05 16.26
13773 29.9890 262.71 284.03 15.26
13774 29.9910 237.29 262.42 14.50
13775 29.9930 227.18 224.98 14.17
13776 29.9950 178.34 192.52 12.65
13777 29.9970 167.69 171.04 12.29
13778 29.9990 149.91 159.14 11.56
13779 30.0010 142.79 154.42 11.21
13780 30.0030 153.04 155.12 11.62
13781 30.0050 148.60 159.43 11.59
13782 30.0070 171.23 164.15 12.37
13783 30.0090 166.99 167.96 12.22
13784 30.0110 159.97 174.78 11.93
13785 30.0130 182.07 188.96 12.68
13786 30.0150 193.04 212.21 13.17
13787 30.0170 241.98 243.72 14.72
13788 30.0190 278.86 276.48 15.82
13789 30.0210 300.34 292.10 16.28
13790 30.0230 287.47 275.43 16.04
13791 30.0250 238.55 237.80 14.67
13792 30.0270 182.24 200.44 12.79
13793 30.0290 169.32 172.66 12.29
13794 30.0310 148.70 154.69 11.44
13795 30.0330 147.82 144.46 11.49
13796 30.0350 109.87 139.16 9.99
13797 30.0370 139.03 134.84 11.18
13798 30.0390 140.84 128.89 11.22
13799 30.0410 118.78 122.73 10.21
13800 30.0430 115.62 118.82 10.12
13801 30.0450 107.67 117.54 9.88
13802 30.0470 116.44 117.39 10.22
13803 30.0490 127.12 115.64 10.67
13804 30.0510 112.54 111.25 9.97
13805 30.0530 103.07 105.99 9.56
13806 30.0550 99.81 101.61 9.48
13807 30.0570 92.85 98.37 9.15
13808 30.0590 100.16 95.95 9.43
13809 30.0610 97.57 94.21 9.30
13810 30.0630 91.12 93.27 9.01
13811 30.0650 80.57 93.17 8.50
13812 30.0670 91.57 94.02 9.04
13813 30.0690 97.92 96.00 9.37
13814 30.0710 88.99 99.37 8.84
13815 30.0730 104.58 104.34 9.59
13816 30.0750 104.69 110.33 9.74
13817 30.0770 116.02 115.05 10.21
13818 30.0790 121.12 115.38 10.36
13819 30.0810 100.20 111.34 9.39
13820 30.0830 101.37 106.22 9.49
13821 30.0850 92.47 102.57 9.09
13822 30.0870 93.74 101.07 9.18
13823 30.0890 104.72 101.89 9.66
13824 30.0910 118.18 104.83 10.21
13825 30.0930 99.89 109.45 9.37
13826 30.0950 120.27 113.80 10.38
13827 30.0970 100.28 114.56 9.49
13828 30.0990 97.59 110.61 9.32
13829 30.1010 94.18 104.79 9.12
13830 30.1030 95.13 99.92 9.13
13831 30.1050 125.77 96.75 10.60
13832 30.1070 90.57 95.35 9.01
13833 30.1090 91.20 95.49 9.00
13834 30.1110 108.33 96.68 9.78
13835 30.1130 106.38 97.79 9.69
13836 30.1150 88.90 97.48 8.92
13837 30.1170 104.07 95.82 9.61
13838 30.1190 85.78 94.02 8.73
13839 30.1210 89.26 92.60 8.87
13840 30.1230 90.16 91.29 8.92
13841 30.1250 93.28 89.96 9.12
13842 30.1270 76.41 88.92 8.29
13843 30.1290 86.10 88.42 8.77
13844 30.1310 67.56 88.54 7.75
13845 30.1330 92.88 89.30 8.97
13846 30.1350 104.25 90.79 9.68
13847 30.1370 101.19 93.19 9.54
13848 30.1390 93.65 96.79 9.09
13849 30.1410 101.35 101.92 9.44
13850 30.1430 100.96 108.66 9.44
13851 30.1450 114.16 116.17 10.07
13852 30.1470 130.87 121.88 10.78
13853 30.1490 139.66 124.33 11.11
13854 30.1510 127.34 125.15 10.60
13855 30.1530 143.10 125.93 11.23
13856 30.1550 119.66 125.65 10.36
13857 30.1570 128.64 123.74 10.73
13858 30.1590 136.15 122.48 10.93
13859 30.1610 115.92 124.46 10.07
13860 30.1630 132.10 130.39 10.79
13861 30.1650 140.07 137.52 11.13
13862 30.1670 131.65 139.16 10.87
13863 30.1690 127.17 131.91 10.61
13864 30.1710 126.84 120.98 10.59
13865 30.1730 95.33 111.79 9.14
13866 30.1750 113.36 105.63 10.11
13867 30.1770 91.43 102.19 9.06
13868 30.1790 93.78 100.99 9.13
13869 30.1810 107.21 101.67 9.74
13870 30.1830 113.09 103.97 10.07
13871 30.1850 118.77 107.09 10.30
13872 30.1870 103.59 110.34 9.65
13873 30.1890 113.83 112.94 10.03
13874 30.1910 120.00 114.86 10.34
13875 30.1930 109.08 115.50 9.82
13876 30.1950 107.88 114.68 9.84
13877 30.1970 124.51 114.09 10.51
13878 30.1990 97.75 115.70 9.32
13879 30.2010 127.12 120.26 10.56
13880 30.2030 127.67 126.47 10.64
13881 30.2050 134.61 130.42 10.95
13882 30.2070 123.61 128.59 10.53
13883 30.2090 122.09 123.29 10.44
13884 30.2110 129.68 119.04 10.72
13885 30.2130 108.46 117.75 9.81
13886 30.2150 125.04 118.79 10.60
13887 30.2170 112.84 120.10 10.08
13888 30.2190 124.86 118.47 10.56
13889 30.2210 96.19 112.81 9.22
13890 30.2230 105.08 105.92 9.69
13891 30.2250 102.26 100.30 9.59
13892 30.2270 94.60 96.37 9.22
13893 30.2290 81.76 94.25 8.51
13894 30.2310 95.55 93.47 9.23
13895 30.2330 76.91 93.73 8.28
13896 30.2350 102.58 94.67 9.62
13897 30.2370 110.87 95.55 9.99
13898 30.2390 100.17 96.17 9.47
13899 30.2410 85.20 97.33 8.70
13900 30.2430 86.65 99.27 8.78
13901 30.2450 92.91 101.89 9.17
13902 30.2470 97.98 104.08 9.38
13903 30.2490 114.71 104.60 10.10
13904 30.2510 89.05 103.76 8.86
13905 30.2530 99.83 103.14 9.46
13906 30.2550 107.64 103.43 9.87
13907 30.2570 125.22 103.68 10.61
13908 30.2590 105.67 102.91 9.70
13909 30.2610 111.55 101.85 9.93
13910 30.2630 107.04 101.45 9.77
13911 30.2650 101.81 102.24 9.55
13912 30.2670 109.20 104.13 9.90
13913 30.2690 110.85 107.12 9.96
13914 30.2710 112.81 111.65 10.03
13915 30.2730 133.23 118.57 10.85
13916 30.2750 129.70 128.72 10.86
13917 30.2770 161.35 142.00 12.09
13918 30.2790 144.66 155.47 11.31
13919 30.2810 146.09 163.43 11.42
13920 30.2830 156.23 163.52 11.79
13921 30.2850 153.28 160.45 11.71
13922 30.2870 163.53 159.63 12.11
13923 30.2890 160.35 162.96 12.01
13924 30.2910 185.14 168.42 12.82
13925 30.2930 178.39 170.91 12.52
13926 30.2950 176.48 166.96 12.60
13927 30.2970 155.41 159.23 11.79
13928 30.2990 129.54 152.34 10.72
13929 30.3010 131.42 148.95 10.80
13930 30.3030 162.77 150.64 12.00
13931 30.3050 144.64 157.40 11.45
13932 30.3070 180.19 167.76 12.68
13933 30.3090 176.03 177.40 12.51
13934 30.3110 165.68 178.83 12.18
13935 30.3130 138.95 168.99 11.01
13936 30.3150 157.29 153.76 11.91
13937 30.3170 144.70 140.04 11.36
13938 30.3190 120.04 129.97 10.33
13939 30.3210 105.74 123.19 9.68
13940 30.3230 119.12 118.26 10.26
13941 30.3250 128.01 114.79 10.70
13942 30.3270 110.62 113.18 9.97
13943 30.3290 104.63 113.75 9.64
13944 30.3310 118.07 116.46 10.25
13945 30.3330 104.58 121.56 9.59
13946 30.3350 139.78 129.99 11.18
13947 30.3370 150.05 141.72 11.63
13948 30.3390 162.42 152.61 11.95
13949 30.3410 189.91 154.70 12.99
13950 30.3430 141.75 146.64 11.14
13951 30.3450 127.33 135.64 10.70
13952 30.3470 129.29 126.21 10.72
13953 30.3490 113.44 118.31 10.00
13954 30.3510 113.34 111.58 10.05
13955 30.3530 95.40 106.44 9.13
13956 30.3550 112.89 103.16 10.03
13957 30.3570 103.12 101.47 9.61
13958 30.3590 117.67 100.54 10.23
13959 30.3610 93.44 99.11 9.06
13960 30.3630 101.90 96.78 9.48
13961 30.3650 84.60 94.42 8.70
13962 30.3670 92.13 92.59 9.04
13963 30.3690 92.91 91.43 9.09
13964 30.3710 83.48 90.95 8.58
13965 30.3730 98.99 90.97 9.31
13966 30.3750 90.71 91.51 9.00
13967 30.3770 90.93 92.59 9.00
13968 30.3790 96.43 94.31 9.23
13969 30.3810 123.76 96.86 10.45
13970 30.3830 102.30 100.56 9.44
13971 30.3850 96.21 105.88 9.30
13972 30.3870 116.89 113.46 10.19
13973 30.3890 112.87 124.02 10.00
13974 30.3910 129.08 137.94 10.65
13975 30.3930 158.78 153.83 11.82
13976 30.3950 168.20 166.42 12.31
13977 30.3970 166.40 168.44 12.17
13978 30.3990 160.48 159.04 11.91
13979 30.4010 145.69 145.17 11.31
13980 30.4030 146.58 133.02 11.36
13981 30.4050 134.18 124.70 10.95
13982 30.4070 132.26 119.85 10.84
13983 30.4090 118.27 117.00 10.19
13984 30.4110 116.92 114.87 10.16
13985 30.4130 112.73 112.79 9.90
13986 30.4150 108.69 110.66 9.88
13987 30.4170 104.30 108.97 9.57
13988 30.4190 89.13 108.45 8.89
13989 30.4210 113.20 109.50 9.99
13990 30.4230 124.25 112.50 10.40
13991 30.4250 114.19 117.89 10.09
13992 30.4270 124.45 126.50 10.53
13993 30.4290 122.89 139.64 10.37
13994 30.4310 166.79 159.03 12.14
13995 30.4330 190.39 185.38 12.88
13996 30.4350 208.87 213.75 13.64
13997 30.4370 220.59 229.03 14.02
13998 30.4390 219.82 219.57 13.86
13999 30.4410 202.31 196.24 13.35
14000 30.4430 171.56 175.35 12.22
14001 30.4450 192.67 163.11 13.11
14002 30.4470 169.47 160.01 12.24
14003 30.4490 172.32 165.92 12.35
14004 30.4510 167.69 181.12 12.15
14005 30.4530 191.29 203.82 12.93
14006 30.4550 221.92 224.48 14.07
14007 30.4570 269.27 225.95 15.44
14008 30.4590 218.11 204.82 13.85
14009 30.4610 209.07 176.89 13.54
14010 30.4630 147.11 153.81 11.38
14011 30.4650 115.81 137.84 10.13
14012 30.4670 129.97 127.62 10.76
14013 30.4690 134.36 121.62 10.89
14014 30.4710 110.29 118.81 9.85
14015 30.4730 109.98 118.67 9.86
14016 30.4750 124.66 120.93 10.57
14017 30.4770 132.25 125.03 10.82
14018 30.4790 144.11 129.57 11.32
14019 30.4810 132.43 133.59 10.82
14020 30.4830 137.15 138.64 10.94
14021 30.4850 123.94 147.20 10.52
14022 30.4870 169.08 159.99 12.24
14023 30.4890 183.00 174.64 12.77
14024 30.4910 193.67 186.05 13.10
14025 30.4930 191.31 193.12 13.02
14026 30.4950 178.21 202.02 12.66
14027 30.4970 204.47 217.11 13.50
14028 30.4990 228.07 232.57 14.17
14029 30.5010 231.44 234.65 14.27
14030 30.5030 195.67 221.46 13.18
14031 30.5050 186.08 206.81 12.88
14032 30.5070 200.93 201.52 13.34
14033 30.5090 203.32 208.10 13.40
14034 30.5110 238.56 222.25 14.55
14035 30.5130 239.48 232.43 14.56
14036 30.5150 213.24 229.48 13.84
14037 30.5170 217.50 215.82 13.90
14038 30.5190 184.14 195.24 12.79
14039 30.5210 164.20 172.49 12.07
14040 30.5230 157.98 153.60 11.88
14041 30.5250 124.44 140.56 10.62
14042 30.5270 116.77 131.71 10.23
14043 30.5290 115.23 124.71 10.16
14044 30.5310 137.56 118.60 11.01
14045 30.5330 113.99 113.52 10.13
14046 30.5350 118.52 109.61 10.32
14047 30.5370 113.91 107.18 10.08
14048 30.5390 105.82 106.57 9.75
14049 30.5410 132.60 107.86 10.83
14050 30.5430 119.44 111.10 10.39
14051 30.5450 104.77 115.85 9.74
14052 30.5470 131.43 120.21 10.91
14053 30.5490 138.02 121.00 11.05
14054 30.5510 124.15 117.37 10.53
14055 30.5530 98.74 112.08 9.46
14056 30.5550 109.53 107.57 9.94
14057 30.5570 89.95 104.30 9.03
14058 30.5590 97.41 101.82 9.36
14059 30.5610 102.46 100.09 9.54
14060 30.5630 95.63 99.46 9.25
14061 30.5650 104.61 100.21 9.76
14062 30.5670 124.47 102.56 10.62
14063 30.5690 115.87 106.88 10.18
14064 30.5710 116.96 113.66 10.20
14065 30.5730 121.37 123.36 10.49
14066 30.5750 110.58 135.62 10.00
14067 30.5770 150.91 147.64 11.69
14068 30.5790 201.96 154.22 13.43
14069 30.5810 165.72 151.78 12.18
14070 30.5830 155.47 142.20 11.85
14071 30.5850 124.75 130.29 10.64
14072 30.5870 114.53 119.69 10.23
14073 30.5890 99.51 111.94 9.44
14074 30.5910 107.60 107.22 9.81
14075 30.5930 101.17 105.17 9.49
14076 30.5950 119.71 105.05 10.46
14077 30.5970 112.13 105.35 10.05
14078 30.5990 116.92 104.60 10.21
14079 30.6010 88.84 103.08 8.94
14080 30.6030 105.14 102.02 9.70
14081 30.6050 116.25 101.96 10.25
14082 30.6070 94.96 102.42 9.29
14083 30.6090 93.35 101.96 9.13
14084 30.6110 89.46 99.60 8.90
14085 30.6130 101.10 96.20 9.56
14086 30.6150 79.64 93.25 8.50
14087 30.6170 100.71 91.40 9.49
14088 30.6190 88.63 90.71 8.92
14089 30.6210 94.34 91.06 9.17
14090 30.6230 78.59 92.65 8.37
14091 30.6250 79.35 95.48 8.52
14092 30.6270 107.05 99.31 9.80
14093 30.6290 119.34 102.89 10.32
14094 30.6310 99.50 103.98 9.43
14095 30.6330 117.87 101.88 10.24
14096 30.6350 112.62 98.32 10.11
14097 30.6370 94.04 95.56 9.17
14098 30.6390 91.27 94.18 9.01
14099 30.6410 90.22 94.33 8.94
14100 30.6430 105.21 96.10 9.64
14101 30.6450 84.13 99.78 8.72
14102 30.6470 91.31 105.84 9.04
14103 30.6490 110.56 114.54 9.92
14104 30.6510 137.25 124.55 11.05
14105 30.6530 122.24 130.81 10.37
14106 30.6550 119.14 128.15 10.36
14107 30.6570 101.47 119.05 9.52
14108 30.6590 95.14 109.31 9.17
14109 30.6610 105.08 101.84 9.62
14110 30.6630 91.47 96.85 9.00
14111 30.6650 75.08 93.83 8.22
14112 30.6670 91.11 92.40 9.01
14113 30.6690 107.61 92.35 9.80
14114 30.6710 86.43 93.44 8.74
14115 30.6730 101.95 94.94 9.47
14116 30.6750 105.85 95.45 9.78
14117 30.6770 97.48 94.28 9.32
14118 30.6790 96.70 92.61 9.24
14119 30.6810 84.38 91.71 8.67
14120 30.6830 85.85 92.08 8.71
14121 30.6850 106.64 93.92 9.78
14122 30.6870 87.30 97.28 8.85
14123 30.6890 108.87 101.68 9.83
14124 30.6910 94.72 105.17 9.17
14125 30.6930 108.52 105.54 9.78
14126 30.6950 86.00 103.64 8.84
14127 30.6970 95.97 102.23 9.26
14128 30.6990 84.62 102.83 8.67
14129 30.7010 98.90 106.10 9.33
14130 30.7030 130.03 111.75 10.74
14131 30.7050 123.63 118.95 10.54
14132 30.7070 135.04 126.33 10.97
14133 30.7090 124.99 133.31 10.54
14134 30.7110 104.78 138.71 9.64
14135 30.7130 124.25 138.67 10.45
14136 30.7150 123.57 130.82 10.58
14137 30.7170 104.22 119.05 9.68
14138 30.7190 113.26 108.22 10.00
14139 30.7210 90.05 99.93 8.95
14140 30.7230 95.24 94.02 9.19
14141 30.7250 79.67 89.92 8.44
14142 30.7270 88.38 86.98 8.88
14143 30.7290 64.27 84.91 7.56
14144 30.7310 62.55 83.42 7.46
14145 30.7330 81.69 82.44 8.49
14146 30.7350 78.25 81.72 8.38
14147 30.7370 57.29 81.29 7.20
14148 30.7390 68.57 81.16 7.78
14149 30.7410 79.34 81.34 8.38
14150 30.7430 84.56 81.85 8.64
14151 30.7450 89.51 82.56 9.01
14152 30.7470 76.66 83.24 8.29
14153 30.7490 68.48 83.43 7.80
14154 30.7510 78.24 83.29 8.35
14155 30.7530 77.24 83.02 8.29
14156 30.7550 82.78 82.64 8.62
14157 30.7570 79.78 81.98 8.43
14158 30.7590 70.95 81.13 7.97
14159 30.7610 70.54 80.41 7.88
14160 30.7630 84.56 79.95 8.67
14161 30.7650 75.89 79.75 8.24
14162 30.7670 81.54 79.78 8.55
14163 30.7690 76.21 80.04 8.26
14164 30.7710 84.30 80.52 8.67
14165 30.7730 94.39 81.27 9.14
14166 30.7750 90.72 82.39 9.07
14167 30.7770 90.21 84.01 9.01
14168 30.7790 81.44 86.31 8.50
14169 30.7810 86.64 89.38 8.76
14170 30.7830 91.71 93.02 9.00
14171 30.7850 81.30 96.46 8.55
14172 30.7870 97.38 98.96 9.35
14173 30.7890 111.92 99.65 10.00
14174 30.7910 114.71 98.38 10.10
14175 30.7930 88.55 96.35 8.84
14176 30.7950 107.01 95.05 9.86
14177 30.7970 94.76 95.27 9.25
14178 30.7990 96.06 97.39 9.23
14179 30.8010 97.68 101.87 9.29
14180 30.8030 124.97 109.04 10.53
14181 30.8050 133.57 118.36 10.98
14182 30.8070 119.29 126.22 10.34
14183 30.8090 121.79 126.48 10.45
14184 30.8110 144.98 118.95 11.29
14185 30.8130 102.46 109.42 9.48
14186 30.8150 106.50 101.77 9.76
14187 30.8170 98.00 96.72 9.41
14188 30.8190 99.40 93.82 9.32
14189 30.8210 83.29 92.69 8.60
14190 30.8230 109.34 93.05 9.79
14191 30.8250 97.32 94.86 9.36
14192 30.8270 94.13 97.93 9.15
14193 30.8290 107.38 101.05 9.75
14194 30.8310 92.27 102.17 9.00
14195 30.8330 106.22 100.08 9.67
14196 30.8350 104.45 96.39 9.67
14197 30.8370 93.77 93.19 9.20
14198 30.8390 92.29 91.21 9.02
14199 30.8410 97.15 90.42 9.25
14200 30.8430 80.87 90.69 8.45
14201 30.8450 98.75 91.99 9.40
14202 30.8470 81.70 94.50 8.55
14203 30.8490 100.34 98.46 9.44
14204 30.8510 116.67 104.33 10.18
14205 30.8530 112.61 112.68 9.94
14206 30.8550 124.51 123.28 10.53
14207 30.8570 157.31 133.40 11.94
14208 30.8590 160.69 137.20 11.86
14209 30.8610 139.26 132.27 11.07
14210 30.8630 128.23 123.13 10.61
14211 30.8650 115.34 114.86 10.16
14212 30.8670 123.07 109.17 10.53
14213 30.8690 101.99 106.23 9.48
14214 30.8710 111.60 105.71 9.99
14215 30.8730 111.70 106.69 9.91
14216 30.8750 106.46 107.12 9.75
14217 30.8770 100.85 105.32 9.52
14218 30.8790 109.06 102.15 9.83
14219 30.8810 92.56 99.57 9.04
14220 30.8830 96.16 98.56 9.16
14221 30.8850 88.92 99.31 8.93
14222 30.8870 115.03 101.66 10.14
14223 30.8890 123.38 104.94 10.41
14224 30.8910 117.31 107.61 10.21
14225 30.8930 102.04 108.45 9.49
14226 30.8950 117.72 107.60 10.30
14227 30.8970 104.91 105.75 9.67
14228 30.8990 109.08 102.94 9.84
14229 30.9010 103.47 99.68 9.54
14230 30.9030 106.72 96.88 9.64
14231 30.9050 77.58 95.03 8.32
14232 30.9070 82.20 94.19 8.64
14233 30.9090 80.65 94.26 8.43
14234 30.9110 99.78 95.04 9.44
14235 30.9130 106.23 96.57 9.68
14236 30.9150 98.90 98.82 9.40
14237 30.9170 94.15 101.84 9.20
14238 30.9190 134.07 105.89 10.91
14239 30.9210 117.07 110.99 10.15
14240 30.9230 128.74 116.72 10.64
14241 30.9250 107.43 122.97 9.80
14242 30.9270 147.17 131.00 11.51
14243 30.9290 120.15 142.57 10.33
14244 30.9310 145.68 157.98 11.42
14245 30.9330 177.99 175.30 12.51
14246 30.9350 206.14 191.09 13.64
14247 30.9370 188.17 205.01 13.02
14248 30.9390 223.96 220.97 14.11
14249 30.9410 268.17 240.08 15.43
14250 30.9430 269.53 256.20 15.41
14251 30.9450 249.58 260.54 14.95
14252 30.9470 256.61 253.86 15.28
14253 30.9490 218.16 245.85 13.91
14254 30.9510 243.74 239.82 14.68
14255 30.9530 244.42 229.05 14.72
14256 30.9550 209.80 209.55 13.80
14257 30.9570 167.24 187.56 12.24
14258 30.9590 161.89 168.89 12.01
14259 30.9610 135.37 154.15 10.96
14260 30.9630 133.79 142.11 10.88
14261 30.9650 118.82 132.91 10.34
14262 30.9670 131.68 126.70 10.90
14263 30.9690 106.03 122.93 9.75
14264 30.9710 110.80 120.90 9.88
14265 30.9730 116.54 120.40 10.16
14266 30.9750 126.03 121.75 10.67
14267 30.9770 138.06 125.72 11.21
14268 30.9790 132.53 133.30 10.82
14269 30.9810 154.29 145.49 11.71
14270 30.9830 157.26 162.38 11.75
14271 30.9850 175.10 180.56 12.52
14272 30.9870 205.63 190.88 13.64
14273 30.9890 189.24 186.69 12.99
14274 30.9910 174.09 173.80 12.46
14275 30.9930 153.92 160.55 11.62
14276 30.9950 155.10 150.67 11.83
14277 30.9970 160.61 145.50 12.02
14278 30.9990 150.62 145.89 11.60
14279 31.0010 153.15 152.28 11.62
14280 31.0030 161.66 164.55 11.91
14281 31.0050 178.60 180.63 12.66
14282 31.0070 211.00 195.59 13.83
14283 31.0090 185.91 203.43 12.85
14284 31.0110 212.43 200.26 13.73
14285 31.0130 179.14 187.42 12.52
14286 31.0150 176.20 171.67 12.59
14287 31.0170 161.09 158.80 12.06
14288 31.0190 170.05 150.04 12.23
14289 31.0210 140.34 142.86 11.13
14290 31.0230 129.33 135.48 10.61
14291 31.0250 110.00 129.38 9.94
14292 31.0270 114.11 126.55 10.17
14293 31.0290 120.80 127.50 10.39
14294 31.0310 131.56 132.48 10.81
14295 31.0330 139.09 141.33 11.06
14296 31.0350 142.08 152.88 11.33
14297 31.0370 168.88 164.18 12.32
14298 31.0390 172.91 169.43 12.34
14299 31.0410 169.73 163.33 12.24
14300 31.0430 157.59 148.74 11.73
14301 31.0450 134.80 133.12 11.00
14302 31.0470 108.01 120.56 9.90
14303 31.0490 113.93 111.58 10.09
14304 31.0510 113.29 105.48 9.97
14305 31.0530 95.16 101.53 9.18
14306 31.0550 83.07 99.19 8.63
14307 31.0570 96.92 98.21 9.33
14308 31.0590 84.74 98.51 8.60
14309 31.0610 90.87 100.17 8.95
14310 31.0630 116.09 103.25 10.07
14311 31.0650 123.57 107.49 10.54
14312 31.0670 117.01 111.74 10.29
14313 31.0690 129.76 114.02 10.75
14314 31.0710 122.12 113.14 10.39
14315 31.0730 89.68 110.29 8.85
14316 31.0750 106.35 107.39 9.83
14317 31.0770 110.63 105.46 9.95
14318 31.0790 109.13 105.06 9.81
14319 31.0810 121.20 106.46 10.32
14320 31.0830 101.76 109.57 9.46
14321 31.0850 115.63 113.73 10.18
14322 31.0870 130.48 117.78 10.81
14323 31.0890 139.52 120.91 11.14
14324 31.0910 150.31 123.17 11.48
14325 31.0930 138.18 124.97 11.00
14326 31.0950 128.79 127.31 10.80
14327 31.0970 139.52 132.07 11.16
14328 31.0990 151.76 139.67 11.60
14329 31.1010 158.53 146.81 11.85
14330 31.1030 161.33 147.69 11.92
14331 31.1050 171.24 140.96 12.43
14332 31.1070 130.16 131.78 10.81
14333 31.1090 136.71 124.73 10.97
14334 31.1110 127.91 121.52 10.59
14335 31.1130 126.73 122.49 10.54
14336 31.1150 141.52 127.38 11.34
14337 31.1170 150.30 135.74 11.62
14338 31.1190 162.31 144.91 11.97
14339 31.1210 147.76 149.21 11.40
14340 31.1230 155.01 144.60 11.63
14341 31.1250 125.85 134.22 10.62
14342 31.1270 150.68 123.77 11.61
14343 31.1290 130.98 116.00 10.74
14344 31.1310 110.52 111.22 9.87
14345 31.1330 110.05 109.08 9.81
14346 31.1350 92.86 109.18 9.16
14347 31.1370 125.40 111.00 10.58
14348 31.1390 98.14 113.95 9.31
14349 31.1410 131.56 117.28 10.76
14350 31.1430 125.66 120.56 10.42
14351 31.1450 153.26 124.29 11.74
14352 31.1470 132.92 129.89 10.91
14353 31.1490 121.22 138.71 10.33
14354 31.1510 156.66 151.55 11.70
14355 31.1530 171.30 169.40 12.27
14356 31.1550 181.26 192.18 12.70
14357 31.1570 230.09 213.02 14.35
14358 31.1590 230.36 219.59 14.18
14359 31.1610 215.05 208.75 13.74
14360 31.1630 167.20 188.91 12.01
14361 31.1650 167.02 168.73 12.23
14362 31.1670 136.95 152.71 11.10
14363 31.1690 155.54 141.99 11.72
14364 31.1710 128.07 136.12 10.61
14365 31.1730 152.57 133.26 11.59
14366 31.1750 136.02 131.09 11.06
14367 31.1770 136.84 129.01 11.04
14368 31.1790 131.34 128.64 10.77
14369 31.1810 144.38 131.47 11.23
14370 31.1830 153.50 137.85 11.58
14371 31.1850 164.52 147.45 12.17
14372 31.1870 154.15 160.21 11.72
14373 31.1890 175.02 174.28 12.44
14374 31.1910 191.57 181.95 12.95
14375 31.1930 173.56 174.55 12.37
14376 31.1950 157.93 156.33 11.91
14377 31.1970 136.35 137.67 11.00
14378 31.1990 124.27 123.34 10.45
14379 31.2010 117.15 113.37 10.13
14380 31.2030 118.14 106.45 10.24
14381 31.2050 105.02 101.56 9.69
14382 31.2070 104.97 98.16 9.63
14383 31.2090 99.74 95.98 9.36
14384 31.2110 112.10 94.79 9.90
14385 31.2130 90.21 94.54 8.97
14386 31.2150 99.51 95.24 9.45
14387 31.2170 96.00 96.91 9.22
14388 31.2190 104.97 99.66 9.59
14389 31.2210 123.35 103.36 10.40
14390 31.2230 109.23 107.59 9.85
14391 31.2250 109.45 111.82 9.94
14392 31.2270 112.34 115.37 9.97
14393 31.2290 120.96 117.45 10.34
14394 31.2310 131.60 118.42 10.77
14395 31.2330 113.15 120.35 10.08
14396 31.2350 116.51 125.32 10.25
14397 31.2370 136.61 134.25 11.09
14398 31.2390 137.97 146.55 11.02
14399 31.2410 168.12 158.25 12.18
14400 31.2430 175.09 162.31 12.54
14401 31.2450 153.99 155.22 11.75
14402 31.2470 164.90 141.95 12.17
14403 31.2490 136.64 129.01 11.01
14404 31.2510 132.34 119.37 10.76
14405 31.2530 131.99 113.44 10.87
14406 31.2550 100.41 110.54 9.52
14407 31.2570 127.66 110.40 10.66
14408 31.2590 111.34 112.36 9.94
14409 31.2610 142.07 115.20 11.21
14410 31.2630 115.33 116.72 10.17
14411 31.2650 109.92 115.05 10.02
14412 31.2670 115.27 110.73 10.19
14413 31.2690 107.22 105.84 9.70
14414 31.2710 116.11 101.87 10.11
14415 31.2730 95.80 99.36 9.31
14416 31.2750 109.45 98.33 9.93
14417 31.2770 120.99 98.78 10.45
14418 31.2790 106.06 100.75 9.68
14419 31.2810 103.09 104.38 9.58
14420 31.2830 106.02 109.83 9.73
14421 31.2850 113.71 117.21 10.17
14422 31.2870 141.76 126.47 11.34
14423 31.2890 149.06 135.03 11.43
14424 31.2910 131.65 137.55 10.83
14425 31.2930 149.01 132.64 11.59
14426 31.2950 124.05 125.50 10.56
14427 31.2970 136.37 120.75 11.05
14428 31.2990 128.94 119.90 10.72
14429 31.3010 128.48 123.31 10.62
14430 31.3030 128.26 131.37 10.71
14431 31.3050 124.38 144.38 10.59
14432 31.3070 155.89 160.84 11.86
14433 31.3090 196.44 175.51 13.20
14434 31.3110 185.15 182.74 12.80
14435 31.3130 181.79 183.26 12.78
14436 31.3150 174.86 180.58 12.54
14437 31.3170 165.05 174.66 12.16
14438 31.3190 169.55 163.24 12.20
14439 31.3210 154.49 147.51 11.68
14440 31.3230 126.02 131.82 10.63
14441 31.3250 114.70 119.02 10.17
14442 31.3270 103.05 109.56 9.62
14443 31.3290 96.73 102.84 9.27
14444 31.3310 96.12 98.22 9.24
14445 31.3330 85.56 95.19 8.77
14446 31.3350 98.38 93.47 9.45
14447 31.3370 86.99 92.72 8.81
14448 31.3390 87.63 92.78 8.81
14449 31.3410 105.38 93.45 9.65
14450 31.3430 90.84 94.01 9.07
14451 31.3450 85.28 93.62 8.73
14452 31.3470 107.35 92.16 9.87
14453 31.3490 83.34 90.18 8.58
14454 31.3510 89.52 88.49 8.97
14455 31.3530 76.65 87.43 8.29
14456 31.3550 83.62 87.10 8.69
14457 31.3570 83.66 87.55 8.69
14458 31.3590 82.82 88.76 8.57
14459 31.3610 86.35 90.46 8.74
14460 31.3630 91.94 92.13 9.14
14461 31.3650 106.40 93.00 9.82
14462 31.3670 87.76 93.36 8.88
14463 31.3690 89.67 94.02 8.97
14464 31.3710 105.77 95.08 9.71
14465 31.3730 109.20 95.60 9.91
14466 31.3750 90.31 94.57 9.02
14467 31.3770 106.65 92.38 9.85
14468 31.3790 87.86 90.30 8.85
14469 31.3810 85.89 89.07 8.73
14470 31.3830 81.69 88.89 8.60
14471 31.3850 94.48 89.60 9.24
14472 31.3870 93.46 90.78 9.21
14473 31.3890 101.73 91.79 9.56
14474 31.3910 93.58 92.02 9.12
14475 31.3930 95.71 91.11 9.28
14476 31.3950 95.92 89.37 9.34
14477 31.3970 92.02 87.83 9.12
14478 31.3990 74.38 86.82 8.18
14479 31.4010 98.10 86.53 9.31
14480 31.4030 92.94 86.94 9.16
14481 31.4050 95.76 88.04 9.33
14482 31.4070 91.95 89.75 9.14
14483 31.4090 107.20 91.60 9.75
14484 31.4110 89.91 92.85 8.94
14485 31.4130 85.41 93.38 8.81
14486 31.4150 117.54 94.07 10.28
14487 31.4170 103.44 95.78 9.68
14488 31.4190 90.97 99.15 9.00
14489 31.4210 100.79 104.38 9.46
14490 31.4230 112.38 111.80 9.99
14491 31.4250 141.34 120.62 11.30
14492 31.4270 137.79 127.90 11.15
14493 31.4290 121.79 129.80 10.41
14494 31.4310 133.08 126.73 10.84
14495 31.4330 122.42 122.97 10.48
14496 31.4350 123.59 121.73 10.56
14497 31.4370 128.68 123.85 10.80
14498 31.4390 112.94 128.96 9.99
14499 31.4410 161.83 136.14 11.95
14500 31.4430 163.80 143.33 12.09
14501 31.4450 148.90 147.07 11.55
14502 31.4470 149.47 146.31 11.59
14503 31.4490 144.81 144.27 11.38
14504 31.4510 137.44 144.30 11.04
14505 31.4530 126.69 148.48 10.61
14506 31.4550 157.12 157.94 11.86
14507 31.4570 167.11 171.09 12.27
14508 31.4590 183.28 180.88 12.76
14509 31.4610 178.61 178.16 12.54
14510 31.4630 169.19 163.94 12.32
14511 31.4650 164.34 147.66 12.19
14512 31.4670 148.76 135.28 11.59
14513 31.4690 139.92 127.69 11.19
14514 31.4710 145.07 123.24 11.31
14515 31.4730 115.96 119.97 10.17
14516 31.4750 132.77 117.17 10.97
14517 31.4770 106.78 115.71 9.79
14518 31.4790 114.08 116.56 10.05
14519 31.4810 134.60 119.96 10.93
14520 31.4830 149.24 124.62 11.53
14521 31.4850 135.75 127.50 11.06
14522 31.4870 122.22 125.73 10.45
14523 31.4890 109.48 120.11 9.89
14524 31.4910 135.01 113.68 10.97
14525 31.4930 112.42 108.01 10.00
14526 31.4950 119.42 103.19 10.37
14527 31.4970 116.37 99.44 10.27
14528 31.4990 114.39 96.99 10.09
14529 31.5010 108.47 95.79 9.79
14530 31.5030 93.17 95.86 9.11
14531 31.5050 108.21 97.16 9.89
14532 31.5070 103.19 99.35 9.62
14533 31.5090 106.35 101.83 9.71
14534 31.5110 122.07 103.99 10.38
14535 31.5130 110.77 105.34 9.93
14536 31.5150 111.47 105.12 10.05
14537 31.5170 115.32 102.60 10.17
14538 31.5190 117.69 99.17 10.21
14539 31.5210 112.56 96.13 10.03
14540 31.5230 101.45 94.08 9.47
14541 31.5250 103.10 93.10 9.63
14542 31.5270 117.91 93.14 10.32
14543 31.5290 106.98 94.10 9.77
14544 31.5310 87.25 95.88 8.81
14545 31.5330 118.61 98.47 10.28
14546 31.5350 135.21 101.96 11.10
14547 31.5370 107.21 106.41 9.79
14548 31.5390 118.24 112.34 10.24
14549 31.5410 117.50 120.79 10.24
14550 31.5430 139.94 132.83 11.08
14551 31.5450 156.05 148.72 11.84
14552 31.5470 174.88 166.31 12.55
14553 31.5490 184.11 179.26 12.78
14554 31.5510 201.92 181.68 13.34
14555 31.5530 199.44 175.08 13.29
14556 31.5550 166.40 165.05 12.24
14557 31.5570 187.71 155.60 12.93
14558 31.5590 156.75 148.90 11.83
14559 31.5610 161.27 144.55 11.93
14560 31.5630 161.53 139.75 11.98
14561 31.5650 140.63 132.75 11.26
14562 31.5670 150.93 125.04 11.61
14563 31.5690 122.09 118.85 10.44
14564 31.5710 122.94 114.63 10.45
14565 31.5730 126.07 111.54 10.56
14566 31.5750 113.36 108.77 10.13
14567 31.5770 118.96 106.51 10.29
14568 31.5790 123.75 105.41 10.47
14569 31.5810 107.82 105.70 9.75
14570 31.5830 123.83 106.76 10.52
14571 31.5850 98.50 107.24 9.41
14572 31.5870 122.76 105.76 10.50
14573 31.5890 121.06 102.64 10.40
14574 31.5910 126.45 99.41 10.62
14575 31.5930 109.16 96.83 9.82
14576 31.5950 107.76 95.43 9.87
14577 31.5970 105.14 95.26 9.73
14578 31.5990 100.53 96.33 9.45
14579 31.6010 117.39 98.53 10.19
14580 31.6030 111.25 101.30 9.88
14581 31.6050 108.63 103.58 9.91
14582 31.6070 124.48 104.63 10.54
14583 31.6090 123.19 104.95 10.47
14584 31.6110 111.72 105.38 9.95
14585 31.6130 124.94 106.29 10.52
14586 31.6150 124.11 107.79 10.59
14587 31.6170 99.51 110.25 9.43
14588 31.6190 130.58 114.57 10.83
14589 31.6210 141.57 121.46 11.17
14590 31.6230 135.05 130.96 10.96
14591 31.6250 143.78 142.87 11.35
14592 31.6270 172.04 157.08 12.42
14593 31.6290 174.17 172.21 12.44
14594 31.6310 194.75 182.55 13.19
14595 31.6330 197.76 180.47 13.15
14596 31.6350 182.80 166.27 12.83
14597 31.6370 156.54 147.67 11.85
14598 31.6390 128.75 130.89 10.65
14599 31.6410 118.00 117.91 10.23
14600 31.6430 102.11 108.41 9.45
14601 31.6450 87.20 101.55 8.88
14602 31.6470 105.44 96.71 9.70
14603 31.6490 95.81 93.17 9.25
14604 31.6510 110.65 90.58 9.88
14605 31.6530 101.60 88.70 9.45
14606 31.6550 95.60 87.29 9.28
14607 31.6570 99.08 86.29 9.42
14608 31.6590 102.18 85.56 9.52
14609 31.6610 83.84 85.10 8.60
14610 31.6630 84.33 84.88 8.64
14611 31.6650 85.72 84.85 8.74
14612 31.6670 61.07 85.11 7.43
14613 31.6690 84.82 85.48 8.64
14614 31.6710 86.29 86.02 8.75
14615 31.6730 86.32 86.47 8.69
14616 31.6750 96.90 86.84 9.35
14617 31.6770 97.99 87.36 9.38
14618 31.6790 95.83 88.23 9.24
14619 31.6810 93.28 89.57 9.04
14620 31.6830 93.06 91.45 9.07
14621 31.6850 116.86 93.80 10.22
14622 31.6870 106.52 96.53 9.79
14623 31.6890 112.76 99.80 10.01
14624 31.6910 106.43 104.16 9.69
14625 31.6930 108.44 110.08 9.76
14626 31.6950 121.05 117.43 10.43
14627 31.6970 124.20 124.96 10.56
14628 31.6990 124.22 130.65 10.42
14629 31.7010 128.86 134.11 10.67
14630 31.7030 143.09 137.29 11.20
14631 31.7050 134.77 142.12 11.01
14632 31.7070 154.20 150.00 11.79
14633 31.7090 168.79 162.11 12.26
14634 31.7110 180.97 178.50 12.62
14635 31.7130 226.54 196.63 14.10
14636 31.7150 190.39 211.85 13.16
14637 31.7170 212.29 220.72 13.81
14638 31.7190 239.86 221.64 14.57
14639 31.7210 225.75 214.64 14.14
14640 31.7230 199.56 201.36 13.22
14641 31.7250 174.70 183.31 12.51
14642 31.7270 118.74 164.23 10.33
14643 31.7290 147.65 148.46 11.50
14644 31.7310 124.03 137.62 10.41
14645 31.7330 116.44 131.00 10.13
14646 31.7350 138.07 127.32 11.13
14647 31.7370 127.63 125.39 10.73
14648 31.7390 123.35 123.59 10.43
14649 31.7410 119.02 120.32 10.24
14650 31.7430 123.73 115.86 10.46
14651 31.7450 137.22 111.74 11.11
14652 31.7470 130.80 108.84 10.85
14653 31.7490 122.50 107.38 10.40
14654 31.7510 96.14 107.30 9.20
14655 31.7530 95.30 108.83 9.15
14656 31.7550 119.56 112.30 10.39
14657 31.7570 115.97 118.14 10.19
14658 31.7590 125.96 126.78 10.58
14659 31.7610 148.60 137.79 11.42
14660 31.7630 167.84 148.77 12.17
14661 31.7650 170.68 156.55 12.40
14662 31.7670 177.46 162.00 12.63
14663 31.7690 177.33 168.49 12.54
14664 31.7710 201.13 175.74 13.32
14665 31.7730 175.39 180.26 12.48
14666 31.7750 197.15 181.61 13.34
14667 31.7770 200.50 182.83 13.45
14668 31.7790 186.48 183.53 12.86
14669 31.7810 186.59 181.40 12.82
14670 31.7830 188.51 176.42 12.91
14671 31.7850 162.50 170.92 12.10
14672 31.7870 175.43 167.77 12.62
14673 31.7890 187.92 166.75 12.98
14674 31.7910 177.55 163.92 12.51
14675 31.7930 160.69 158.12 11.92
14676 31.7950 138.06 153.24 11.19
14677 31.7970 164.17 152.80 12.14
14678 31.7990 164.59 157.10 12.07
14679 31.8010 187.90 163.48 12.88
14680 31.8030 177.68 167.86 12.54
14681 31.8050 162.91 169.05 12.11
14682 31.8070 153.72 170.28 11.74
14683 31.8090 158.52 174.38 11.94
14684 31.8110 170.03 180.03 12.28
14685 31.8130 165.92 182.90 12.13
14686 31.8150 180.56 181.02 12.77
14687 31.8170 182.82 178.01 12.84
14688 31.8190 164.86 179.10 12.13
14689 31.8210 165.49 186.82 12.11
14690 31.8230 209.67 198.97 13.62
14691 31.8250 205.54 207.49 13.66
14692 31.8270 202.90 203.84 13.52
14693 31.8290 179.86 187.97 12.67
14694 31.8310 158.15 167.52 11.78
14695 31.8330 121.24 149.27 10.35
14696 31.8350 139.44 135.50 11.21
14697 31.8370 108.04 125.75 9.92
14698 31.8390 129.18 119.12 10.70
14699 31.8410 108.44 115.11 9.77
14700 31.8430 113.24 113.22 10.03
14701 31.8450 113.81 112.94 10.16
14702 31.8470 103.78 114.10 9.68
14703 31.8490 108.23 116.95 9.85
14704 31.8510 129.24 121.63 10.68
14705 31.8530 122.53 127.70 10.38
14706 31.8550 120.07 133.65 10.37
14707 31.8570 150.73 137.17 11.69
14708 31.8590 148.61 137.56 11.47
14709 31.8610 142.94 136.33 11.19
14710 31.8630 136.07 134.01 10.96
14711 31.8650 136.47 130.82 11.09
14712 31.8670 137.08 128.26 11.10
14713 31.8690 123.18 127.59 10.47
14714 31.8710 139.36 128.21 11.11
14715 31.8730 138.98 128.65 11.08
14716 31.8750 141.57 128.01 11.25
14717 31.8770 146.77 126.37 11.48
14718 31.8790 137.94 124.35 11.10
14719 31.8810 132.97 122.10 10.84
14720 31.8830 105.16 118.86 9.64
14721 31.8850 110.28 114.80 9.92
14722 31.8870 120.11 110.77 10.46
14723 31.8890 120.41 107.11 10.35
14724 31.8910 108.49 103.79 9.81
14725 31.8930 98.32 101.03 9.34
14726 31.8950 100.95 98.87 9.56
14727 31.8970 92.00 97.25 9.10
14728 31.8990 77.86 96.42 8.34
14729 31.9010 92.63 96.50 9.06
14730 31.9030 92.11 97.50 8.96
14731 31.9050 122.11 99.33 10.52
14732 31.9070 95.70 102.21 9.31
14733 31.9090 105.13 106.24 9.67
14734 31.9110 105.91 110.42 9.64
14735 31.9130 123.82 112.22 10.46
14736 31.9150 126.46 110.11 10.65
14737 31.9170 92.24 105.97 9.12
14738 31.9190 105.52 102.44 9.64
14739 31.9210 97.98 100.71 9.29
14740 31.9230 101.96 101.01 9.48
14741 31.9250 116.77 103.42 10.20
14742 31.9270 108.25 108.05 9.87
14743 31.9290 102.70 114.65 9.61
14744 31.9310 130.20 121.46 10.74
14745 31.9330 132.02 125.11 10.80
14746 31.9350 125.84 123.35 10.59
14747 31.9370 122.41 118.23 10.48
14748 31.9390 101.45 112.91 9.49
14749 31.9410 103.17 109.55 9.52
14750 31.9430 119.03 108.82 10.27
14751 31.9450 112.36 110.91 10.16
14752 31.9470 118.68 116.14 10.70
14753 31.9490 127.46 124.50 11.28
14754 31.9510 148.06 135.37 12.07
14755 31.9530 172.57 145.48 13.10
14756 31.9550 130.76 148.71 11.52
14757 31.9570 157.20 141.68 12.60
14758 31.9590 143.09 129.03 11.95
14759 31.9610 103.07 116.93 10.05
14760 31.9630 105.35 107.95 10.23
14761 31.9650 86.42 101.86 9.42
14762 31.9670 81.17 98.09 9.09
14763 31.9690 88.91 96.02 9.38
14764 31.9710 93.70 95.19 9.65
14765 31.9730 92.44 95.24 9.57
14766 31.9750 101.04 95.73 10.16
14767 31.9770 111.26 95.88 10.62
14768 31.9790 78.72 95.57 8.86
14769 31.9810 94.41 95.16 9.67
14770 31.9830 101.48 95.00 10.00
14771 31.9850 89.43 95.21 9.61
14772 31.9870 89.98 95.98 9.52
14773 31.9890 107.08 97.70 10.30
14774 31.9910 93.32 100.56 9.59
14775 31.9930 100.12 104.56 9.99
14776 31.9950 102.86 109.68 10.21
14777 31.9970 112.66 115.79 10.63
14778 31.9990 122.55 122.46 11.08
14779 32.0010 138.73 128.88 11.67
14780 32.0030 142.92 133.05 11.87
14781 32.0050 117.42 132.76 11.00
14782 32.0070 137.06 129.72 11.78
14783 32.0090 141.77 127.39 11.82
14784 32.0110 119.28 126.09 10.82
14785 32.0130 133.22 122.99 11.49
14786 32.0150 109.11 116.41 10.60
14787 32.0170 111.10 108.26 10.53
14788 32.0190 104.62 100.92 10.28
14789 32.0210 97.25 95.32 9.78
14790 32.0230 87.48 91.22 9.31
14791 32.0250 73.32 88.29 8.68
14792 32.0270 86.60 86.18 9.40
14793 32.0290 78.10 84.65 8.81
14794 32.0310 71.36 83.55 8.39
14795 32.0330 73.72 82.70 8.58
14796 32.0350 76.39 82.15 8.88
14797 32.0370 84.02 81.79 9.21
14798 32.0390 77.21 81.61 8.80
14799 32.0410 72.48 81.59 8.46
14800 32.0430 76.89 81.71 8.76
14801 32.0450 79.69 82.09 9.06
14802 32.0470 83.35 82.72 9.16
14803 32.0490 81.39 83.70 9.02
14804 32.0510 73.03 85.11 8.45
14805 32.0530 85.95 86.91 9.26
14806 32.0550 96.40 88.99 9.93
14807 32.0570 108.99 90.89 10.51
14808 32.0590 97.62 92.62 9.87
14809 32.0610 84.25 94.47 9.08
14810 32.0630 84.64 95.97 9.21
14811 32.0650 113.64 96.17 10.82
14812 32.0670 98.04 95.26 9.99
14813 32.0690 81.90 94.45 9.05
14814 32.0710 94.79 94.71 9.66
14815 32.0730 90.30 96.35 9.45
14816 32.0750 103.64 99.29 10.31
14817 32.0770 102.46 102.80 10.18
14818 32.0790 94.12 105.24 9.68
14819 32.0810 93.34 105.39 9.61
14820 32.0830 89.76 104.24 9.42
14821 32.0850 95.02 103.49 9.84
14822 32.0870 101.53 104.03 10.17
14823 32.0890 94.46 106.01 9.69
14824 32.0910 110.40 109.31 10.43
14825 32.0930 110.79 114.16 10.49
14826 32.0950 113.79 121.46 10.78
14827 32.0970 131.77 132.02 11.48
14828 32.0990 155.10 145.49 12.41
14829 32.1010 166.07 158.65 12.75
14830 32.1030 156.82 166.33 12.39
14831 32.1050 167.37 166.31 13.04
14832 32.1070 164.07 160.30 12.91
14833 32.1090 145.65 151.53 11.98
14834 32.1110 120.86 143.27 10.91
14835 32.1130 144.60 136.78 11.92
14836 32.1150 130.74 132.17 11.55
14837 32.1170 147.23 129.24 12.17
14838 32.1190 114.42 127.36 10.66
14839 32.1210 135.56 125.35 11.47
14840 32.1230 132.71 122.86 11.42
14841 32.1250 120.83 120.53 11.02
14842 32.1270 127.89 119.23 11.34
14843 32.1290 121.89 119.67 10.94
14844 32.1310 134.01 122.59 11.50
14845 32.1330 127.39 128.57 11.19
14846 32.1350 141.29 137.61 11.98
14847 32.1370 148.98 148.18 12.28
14848 32.1390 160.71 155.82 12.57
14849 32.1410 162.96 155.76 12.66
14850 32.1430 152.23 150.42 12.24
14851 32.1450 143.08 146.38 12.07
14852 32.1470 160.81 147.29 12.68
14853 32.1490 164.65 153.27 12.83
14854 32.1510 157.92 161.60 12.43
14855 32.1530 167.93 166.62 12.85
14856 32.1550 157.12 163.26 12.67
14857 32.1570 145.19 152.68 12.09
14858 32.1590 131.45 141.07 11.40
14859 32.1610 127.18 132.47 11.21
14860 32.1630 129.49 127.91 11.27
14861 32.1650 114.49 127.37 10.84
14862 32.1670 119.92 130.54 10.99
14863 32.1690 122.29 136.84 10.97
14864 32.1710 147.31 143.76 12.07
14865 32.1730 145.19 146.67 11.99
14866 32.1750 131.55 142.56 11.58
14867 32.1770 118.15 133.93 10.86
14868 32.1790 134.97 125.41 11.61
14869 32.1810 109.64 119.36 10.38
14870 32.1830 101.40 116.38 10.04
14871 32.1850 105.28 116.26 10.38
14872 32.1870 108.33 118.62 10.46
14873 32.1890 127.07 123.02 11.22
14874 32.1910 134.40 128.92 11.57
14875 32.1930 120.87 134.46 10.91
14876 32.1950 127.81 136.13 11.48
14877 32.1970 146.18 132.41 12.12
14878 32.1990 134.32 125.92 11.54
14879 32.2010 118.74 119.91 10.85
14880 32.2030 109.45 115.48 10.47
14881 32.2050 110.60 112.35 10.66
14882 32.2070 103.44 110.19 10.21
14883 32.2090 91.76 108.91 9.60
14884 32.2110 102.54 108.57 10.05
14885 32.2130 104.35 109.56 10.17
14886 32.2150 107.09 112.45 10.51
14887 32.2170 107.50 117.68 10.44
14888 32.2190 123.65 125.24 11.08
14889 32.2210 130.91 133.90 11.38
14890 32.2230 123.66 141.21 11.06
14891 32.2250 152.46 145.79 12.45
14892 32.2270 166.76 149.26 13.09
14893 32.2290 146.48 154.00 12.08
14894 32.2310 141.50 160.44 11.90
14895 32.2330 151.19 166.06 12.19
14896 32.2350 144.07 165.57 12.20
14897 32.2370 139.99 157.23 11.92
14898 32.2390 131.38 145.92 11.43
14899 32.2410 126.32 136.90 11.20
14900 32.2430 124.32 131.72 11.11
14901 32.2450 115.49 129.09 10.87
14902 32.2470 103.90 126.39 10.29
14903 32.2490 115.66 122.20 10.77
14904 32.2510 116.41 117.70 10.71
14905 32.2530 106.47 114.61 10.26
14906 32.2550 105.40 113.49 10.37
14907 32.2570 114.68 113.76 10.84
14908 32.2590 105.95 114.47 10.28
14909 32.2610 111.48 115.68 10.53
14910 32.2630 114.50 118.69 10.65
14911 32.2650 135.16 124.80 11.73
14912 32.2670 126.66 134.96 11.37
14913 32.2690 152.13 149.31 12.36
14914 32.2710 168.95 165.83 12.90
14915 32.2730 181.65 179.36 13.46
14916 32.2750 191.25 183.92 14.01
14917 32.2770 176.74 177.04 13.37
14918 32.2790 164.65 162.82 12.86
14919 32.2810 138.60 149.02 11.70
14920 32.2830 135.08 140.11 11.51
14921 32.2850 144.48 136.81 12.15
14922 32.2870 127.54 137.88 11.39
14923 32.2890 140.75 140.63 11.79
14924 32.2910 130.67 141.15 11.38
14925 32.2930 143.50 137.26 11.89
14926 32.2950 145.72 130.86 12.22
14927 32.2970 109.74 124.27 10.57
14928 32.2990 116.66 118.52 10.84
14929 32.3010 107.07 114.34 10.33
14930 32.3030 113.87 112.21 10.58
14931 32.3050 123.76 112.17 11.27
14932 32.3070 120.87 113.66 11.11
14933 32.3090 132.57 116.26 11.49
14934 32.3110 134.53 120.54 11.49
14935 32.3130 127.84 127.59 11.21
14936 32.3150 138.86 137.10 11.87
14937 32.3170 142.62 145.62 12.05
14938 32.3190 167.38 146.89 12.89
14939 32.3210 144.28 139.01 11.94
14940 32.3230 136.89 127.22 11.57
14941 32.3250 101.29 116.56 10.17
14942 32.3270 117.54 108.66 10.94
14943 32.3290 100.20 103.33 10.02
14944 32.3310 108.29 100.05 10.36
14945 32.3330 107.15 98.29 10.27
14946 32.3350 88.70 97.84 9.50
14947 32.3370 85.51 98.62 9.35
14948 32.3390 102.14 100.75 10.10
14949 32.3410 117.46 104.41 10.74
14950 32.3430 119.79 109.67 10.87
14951 32.3450 111.45 115.86 10.59
14952 32.3470 154.94 120.87 12.57
14953 32.3490 126.32 122.29 11.20
14954 32.3510 140.91 120.71 11.76
14955 32.3530 126.91 118.98 11.19
14956 32.3550 105.45 119.16 10.35
14957 32.3570 135.07 121.39 11.74
14958 32.3590 117.79 124.25 10.83
14959 32.3610 137.35 125.76 11.65
14960 32.3630 108.38 125.80 10.28
14961 32.3650 137.19 126.08 11.78
14962 32.3670 121.12 128.54 11.08
14963 32.3690 131.34 134.55 11.46
14964 32.3710 145.09 144.96 11.89
14965 32.3730 158.21 159.34 12.48
14966 32.3750 184.04 174.59 13.61
14967 32.3770 210.84 184.05 14.58
14968 32.3790 193.54 182.96 13.90
14969 32.3810 160.42 175.10 12.53
14970 32.3830 142.86 167.68 11.82
14971 32.3850 171.12 163.74 13.13
14972 32.3870 160.51 161.11 12.76
14973 32.3890 161.63 157.31 12.64
14974 32.3910 166.89 153.73 12.87
14975 32.3930 173.77 152.54 12.96
14976 32.3950 142.56 152.67 11.99
14977 32.3970 150.22 150.06 12.33
14978 32.3990 161.24 142.42 12.66
14979 32.4010 115.48 132.03 10.64
14980 32.4030 135.49 122.67 11.51
14981 32.4050 122.23 116.02 11.12
14982 32.4070 141.89 112.35 11.98
14983 32.4090 111.57 111.52 10.49
14984 32.4110 102.88 113.42 10.07
14985 32.4130 109.10 117.89 10.36
14986 32.4150 119.23 123.89 10.93
14987 32.4170 120.91 128.34 11.07
14988 32.4190 136.54 127.50 11.60
14989 32.4210 115.23 121.25 10.60
14990 32.4230 110.44 113.26 10.36
14991 32.4250 106.01 106.44 10.36
14992 32.4270 94.77 101.62 9.75
14993 32.4290 119.13 98.69 10.84
14994 32.4310 88.30 97.39 9.35
14995 32.4330 104.33 97.58 10.06
14996 32.4350 92.13 99.25 9.62
14997 32.4370 100.82 102.48 10.10
14998 32.4390 113.60 107.08 10.56
14999 32.4410 136.19 112.12 11.54
15000 32.4430 110.81 115.65 10.42
15001 32.4450 107.11 116.25 10.38
15002 32.4470 118.50 114.78 10.95
15003 32.4490 90.60 113.57 9.39
15004 32.4510 108.37 114.29 10.35
15005 32.4530 116.94 117.20 10.67
15006 32.4550 119.51 120.89 10.98
15007 32.4570 136.30 122.66 11.70
15008 32.4590 109.12 120.53 10.34
15009 32.4610 110.87 115.60 10.45
15010 32.4630 112.53 110.05 10.46
15011 32.4650 106.85 104.95 10.37
15012 32.4670 115.63 100.51 10.77
15013 32.4690 90.01 97.00 9.41
15014 32.4710 91.46 94.56 9.50
15015 32.4730 83.81 92.79 9.04
15016 32.4750 103.57 91.02 10.23
15017 32.4770 83.38 89.07 9.18
15018 32.4790 85.05 87.35 9.17
15019 32.4810 86.79 86.12 9.24
15020 32.4830 88.07 85.39 9.31
15021 32.4850 84.51 85.12 9.27
15022 32.4870 81.32 85.20 9.07
15023 32.4890 81.10 85.78 8.95
15024 32.4910 85.28 86.97 9.22
15025 32.4930 92.90 88.89 9.57
15026 32.4950 83.79 91.33 9.24
15027 32.4970 77.16 93.48 8.83
15028 32.4990 113.04 94.17 10.58
15029 32.5010 93.76 92.98 9.59
15030 32.5030 87.06 90.79 9.28
15031 32.5050 84.91 88.69 9.29
15032 32.5070 78.53 87.23 8.91
15033 32.5090 86.88 86.26 9.29
15034 32.5110 101.47 85.38 9.99
15035 32.5130 88.41 84.47 9.39
15036 32.5150 74.31 83.79 8.72
15037 32.5170 71.22 83.52 8.46
15038 32.5190 85.85 83.72 9.20
15039 32.5210 78.56 84.43 8.84
15040 32.5230 70.56 85.72 8.34
15041 32.5250 91.04 87.66 9.73
15042 32.5270 88.04 90.43 9.44
15043 32.5290 104.44 94.11 10.18
15044 32.5310 87.99 98.51 9.31
15045 32.5330 111.33 102.87 10.56
15046 32.5350 86.71 106.00 9.48
15047 32.5370 108.52 107.93 10.46
15048 32.5390 104.55 110.05 10.23
15049 32.5410 110.08 113.92 10.42
15050 32.5430 119.19 119.70 10.88
15051 32.5450 130.17 125.01 11.57
15052 32.5470 116.73 125.57 10.91
15053 32.5490 115.19 120.20 10.72
15054 32.5510 97.64 112.53 9.85
15055 32.5530 104.95 106.00 10.26
15056 32.5550 114.19 101.81 10.93
15057 32.5570 103.30 99.93 10.27
15058 32.5590 101.10 100.05 10.08
15059 32.5610 99.69 101.65 9.97
15060 32.5630 99.44 104.00 9.97
15061 32.5650 94.22 106.28 9.92
15062 32.5670 93.37 108.29 9.81
15063 32.5690 120.99 110.68 11.03
15064 32.5710 98.52 113.95 9.91
15065 32.5730 113.12 116.83 10.66
15066 32.5750 120.97 116.92 11.26
15067 32.5770 98.15 114.33 10.04
15068 32.5790 95.73 111.31 9.77
15069 32.5810 108.67 109.35 10.43
15070 32.5830 98.29 108.96 9.89
15071 32.5850 111.90 110.62 10.79
15072 32.5870 131.09 114.74 11.62
15073 32.5890 114.52 121.07 10.74
15074 32.5910 126.08 127.68 11.19
15075 32.5930 120.47 131.96 10.98
15076 32.5950 108.20 134.12 10.63
15077 32.5970 118.22 136.96 10.93
15078 32.5990 129.44 141.39 11.39
15079 32.6010 151.51 145.26 12.28
15080 32.6030 133.87 146.87 11.56
15081 32.6050 124.12 146.11 11.26
15082 32.6070 130.89 142.22 11.62
15083 32.6090 126.06 135.63 11.26
15084 32.6110 112.01 128.51 10.58
15085 32.6130 102.33 122.00 10.07
15086 32.6150 114.36 117.02 10.89
15087 32.6170 98.07 114.40 10.05
15088 32.6190 100.87 114.22 10.07
15089 32.6210 107.06 115.54 10.33
15090 32.6230 110.11 116.07 10.41
15091 32.6250 96.45 113.41 9.98
15092 32.6270 91.34 107.59 9.67
15093 32.6290 104.39 100.90 10.27
15094 32.6310 88.05 95.21 9.38
15095 32.6330 104.44 90.91 10.18
15096 32.6350 85.98 87.88 9.38
15097 32.6370 90.09 85.87 9.64
15098 32.6390 73.23 84.65 8.57
15099 32.6410 89.56 84.01 9.39
15100 32.6430 93.06 83.80 9.61
15101 32.6450 71.37 83.73 8.52
15102 32.6470 87.67 83.70 9.44
15103 32.6490 80.89 83.90 9.01
15104 32.6510 63.88 84.56 7.97
15105 32.6530 86.12 85.83 9.21
15106 32.6550 85.83 87.69 9.37
15107 32.6570 89.59 89.81 9.57
15108 32.6590 80.21 91.07 8.95
15109 32.6610 83.18 90.62 9.06
15110 32.6630 83.84 88.88 9.09
15111 32.6650 84.10 86.79 9.22
15112 32.6670 85.08 84.63 9.31
15113 32.6690 70.68 82.49 8.41
15114 32.6710 60.95 80.57 7.76
15115 32.6730 67.54 79.05 8.19
15116 32.6750 65.58 77.92 8.19
15117 32.6770 78.58 77.10 8.94
15118 32.6790 69.96 76.52 8.39
15119 32.6810 65.93 76.11 8.05
15120 32.6830 73.21 75.88 8.47
15121 32.6850 75.95 75.78 8.83
15122 32.6870 72.62 75.79 8.61
15123 32.6890 82.76 75.94 9.07
15124 32.6910 70.27 76.21 8.35
15125 32.6930 67.54 76.71 8.17
15126 32.6950 71.00 77.46 8.50
15127 32.6970 84.22 78.53 9.22
15128 32.6990 80.88 79.96 9.03
15129 32.7010 82.46 81.67 8.97
15130 32.7030 83.13 83.48 9.08
15131 32.7050 86.27 85.11 9.31
15132 32.7070 94.53 86.12 9.85
15133 32.7090 109.08 86.06 10.45
15134 32.7110 82.56 84.91 9.08
15135 32.7130 77.91 83.25 8.76
15136 32.7150 94.91 81.74 9.81
15137 32.7170 84.85 80.70 9.28
15138 32.7190 77.56 80.22 8.80
15139 32.7210 67.57 80.24 8.17
15140 32.7230 64.44 80.69 8.00
15141 32.7250 88.47 81.60 9.45
15142 32.7270 77.05 83.15 8.84
15143 32.7290 66.87 85.55 8.18
15144 32.7310 93.64 88.81 9.59
15145 32.7330 88.60 92.51 9.39
15146 32.7350 93.63 95.60 9.82
15147 32.7370 113.28 96.97 10.71
15148 32.7390 93.05 96.48 9.65
15149 32.7410 101.52 95.46 9.98
15150 32.7430 69.38 95.35 8.28
15151 32.7450 91.06 96.29 9.69
15152 32.7470 97.52 97.19 9.97
15153 32.7490 105.31 96.91 10.27
15154 32.7510 94.41 95.59 9.70
15155 32.7530 88.52 93.81 9.36
15156 32.7550 90.53 91.71 9.61
15157 32.7570 103.34 89.64 10.22
15158 32.7590 82.43 88.08 9.13
15159 32.7610 76.21 87.36 8.66
15160 32.7630 100.00 87.65 9.91
15161 32.7650 93.97 88.96 9.79
15162 32.7670 90.04 91.40 9.54
15163 32.7690 99.90 94.79 9.99
15164 32.7710 107.91 98.78 10.34
15165 32.7730 100.50 103.17 9.94
15166 32.7750 103.38 107.22 10.27
15167 32.7770 108.50 109.40 10.55
15168 32.7790 118.15 108.99 10.87
15169 32.7810 112.97 107.07 10.52
15170 32.7830 89.15 105.50 9.38
15171 32.7850 105.03 105.10 10.29
15172 32.7870 102.80 105.33 10.23
15173 32.7890 114.46 105.54 10.69
15174 32.7910 102.02 106.06 10.04
15175 32.7930 121.13 107.61 10.96
15176 32.7950 117.52 110.14 10.96
15177 32.7970 117.90 112.96 10.98
15178 32.7990 105.38 115.45 10.29
15179 32.8010 118.41 117.61 10.82
15180 32.8030 131.82 119.37 11.39
15181 32.8050 121.05 119.44 11.08
15182 32.8070 124.38 116.85 11.23
15183 32.8090 109.60 113.15 10.50
15184 32.8110 121.08 110.99 10.90
15185 32.8130 105.43 111.74 10.22
15186 32.8150 102.48 115.80 10.21
15187 32.8170 128.74 123.13 11.47
15188 32.8190 122.74 133.11 11.08
15189 32.8210 145.70 144.23 11.94
15190 32.8230 160.68 152.71 12.58
15191 32.8250 150.49 153.27 12.31
15192 32.8270 136.50 144.40 11.76
15193 32.8290 116.39 130.91 10.79
15194 32.8310 112.44 118.37 10.56
15195 32.8330 107.60 109.07 10.25
15196 32.8350 105.36 102.95 10.33
15197 32.8370 112.65 99.45 10.75
15198 32.8390 102.96 98.12 10.11
15199 32.8410 109.66 98.78 10.34
15200 32.8430 104.63 101.52 10.12
15201 32.8450 112.65 106.50 10.72
15202 32.8470 136.38 113.37 11.77
15203 32.8490 137.46 120.21 11.70
15204 32.8510 115.77 123.34 10.73
15205 32.8530 125.08 120.75 11.09
15206 32.8550 110.76 115.11 10.58
15207 32.8570 90.06 110.14 9.56
15208 32.8590 101.46 107.71 10.05
15209 32.8610 97.25 108.29 9.77
15210 32.8630 106.63 111.72 10.21
15211 32.8650 123.72 117.58 11.20
15212 32.8670 124.02 124.88 11.19
15213 32.8690 117.43 131.03 10.84
15214 32.8710 127.15 131.61 11.18
15215 32.8730 127.13 125.12 11.20
15216 32.8750 116.57 115.45 10.86
15217 32.8770 91.33 106.68 9.64
15218 32.8790 105.61 100.44 10.29
15219 32.8810 99.72 96.79 9.87
15220 32.8830 105.99 95.18 10.25
15221 32.8850 98.02 94.50 9.97
15222 32.8870 98.74 93.22 9.96
15223 32.8890 101.07 90.66 10.01
15224 32.8910 103.01 87.50 10.13
15225 32.8930 92.35 84.59 9.53
15226 32.8950 84.72 82.35 9.29
15227 32.8970 64.96 80.86 8.10
15228 32.8990 81.52 80.06 9.02
15229 32.9010 66.29 79.94 8.06
15230 32.9030 83.98 80.46 9.13
15231 32.9050 66.43 81.60 8.24
15232 32.9070 103.52 83.07 10.21
15233 32.9090 83.74 84.14 9.16
15234 32.9110 76.09 84.09 8.68
15235 32.9130 90.20 83.08 9.47
15236 32.9150 81.10 82.04 9.14
15237 32.9170 93.43 81.64 9.72
15238 32.9190 85.79 82.13 9.23
15239 32.9210 74.60 83.52 8.57
15240 32.9230 93.72 85.54 9.56
15241 32.9250 84.97 87.46 9.27
15242 32.9270 80.63 88.41 9.04
15243 32.9290 97.40 88.14 9.89
15244 32.9310 79.29 87.30 8.84
15245 32.9330 82.98 86.29 9.07
15246 32.9350 86.89 84.76 9.46
15247 32.9370 90.64 82.66 9.55
15248 32.9390 74.87 80.57 8.65
15249 32.9410 79.30 78.98 8.84
15250 32.9430 77.66 77.97 8.76
15251 32.9450 83.11 77.42 9.24
15252 32.9470 97.88 77.17 10.02
15253 32.9490 76.31 77.11 8.70
15254 32.9510 99.04 77.23 9.89
15255 32.9530 100.10 77.73 10.00
15256 32.9550 80.00 78.79 9.05
15257 32.9570 74.12 80.29 8.66
15258 32.9590 99.14 81.77 10.02
15259 32.9610 95.43 82.48 9.70
15260 32.9630 75.42 82.15 8.66
15261 32.9650 71.78 81.41 8.60
15262 32.9670 79.80 80.94 9.04
15263 32.9690 81.58 80.90 9.05
15264 32.9710 83.37 80.89 9.14
15265 32.9730 87.43 80.53 9.33
15266 32.9750 81.76 79.93 9.16
15267 32.9770 79.59 79.34 8.99
15268 32.9790 67.06 78.96 8.22
15269 32.9810 73.83 78.87 8.53
15270 32.9830 94.78 78.90 9.71
15271 32.9850 79.69 78.78 9.10
15272 32.9870 77.24 78.24 8.86
15273 32.9890 65.79 77.31 8.15
15274 32.9910 80.94 76.35 8.98
15275 32.9930 61.76 75.74 7.84
15276 32.9950 82.49 75.62 9.15
15277 32.9970 74.97 75.95 8.78
15278 32.9990 65.48 76.37 8.09
15279 33.0010 63.58 76.41 7.98
15280 33.0030 80.25 75.85 8.90
15281 33.0050 83.88 74.96 9.28
15282 33.0070 73.19 74.14 8.62
15283 33.0090 70.96 73.63 8.45
15284 33.0110 76.23 73.49 8.68
15285 33.0130 84.47 73.69 9.15
15286 33.0150 88.99 74.22 9.52
15287 33.0170 83.44 75.04 9.21
15288 33.0190 59.54 75.83 7.73
15289 33.0210 79.79 76.75 8.90
15290 33.0230 78.35 77.94 8.82
15291 33.0250 68.65 79.50 8.32
15292 33.0270 86.29 81.37 9.37
15293 33.0290 74.99 83.43 8.70
15294 33.0310 88.24 85.68 9.31
15295 33.0330 82.49 88.12 9.05
15296 33.0350 89.85 90.68 9.59
15297 33.0370 95.47 93.01 9.82
15298 33.0390 85.43 94.53 9.25
15299 33.0410 110.67 94.97 10.51
15300 33.0430 81.60 94.88 8.95
15301 33.0450 101.08 94.55 10.12
15302 33.0470 84.65 94.52 9.24
15303 33.0490 96.98 95.23 9.83
15304 33.0510 88.01 96.07 9.29
15305 33.0530 83.86 96.17 9.12
15306 33.0550 83.81 95.68 9.26
15307 33.0570 81.67 94.70 9.08
15308 33.0590 104.33 92.69 10.16
15309 33.0610 88.75 89.73 9.33
15310 33.0630 86.37 86.76 9.22
15311 33.0650 77.56 84.59 8.85
15312 33.0670 100.19 83.58 10.08
15313 33.0690 96.94 83.83 9.90
15314 33.0710 81.09 85.31 8.87
15315 33.0730 84.08 87.92 9.11
15316 33.0750 98.01 91.47 9.98
15317 33.0770 91.34 95.05 9.61
15318 33.0790 102.18 96.61 10.10
15319 33.0810 103.02 94.66 10.09
15320 33.0830 93.44 90.38 9.56
15321 33.0850 85.80 85.94 9.34
15322 33.0870 82.91 82.50 9.15
15323 33.0890 83.04 80.10 9.11
15324 33.0910 88.89 78.45 9.34
15325 33.0930 65.91 77.34 8.03
15326 33.0950 65.81 76.68 8.21
15327 33.0970 65.59 76.43 8.14
15328 33.0990 69.61 76.71 8.27
15329 33.1010 89.44 77.55 9.37
15330 33.1030 65.78 78.90 8.06
15331 33.1050 77.68 80.40 8.86
15332 33.1070 79.28 81.52 8.98
15333 33.1090 83.10 81.93 9.11
15334 33.1110 89.37 82.00 9.40
15335 33.1130 93.14 82.39 9.59
15336 33.1150 76.07 83.61 8.85
15337 33.1170 80.51 85.69 9.05
15338 33.1190 87.29 88.28 9.31
15339 33.1210 96.72 90.57 9.85
15340 33.1230 93.72 91.49 9.59
15341 33.1250 77.33 90.48 8.85
15342 33.1270 97.85 88.19 9.98
15343 33.1290 91.56 85.93 9.55
15344 33.1310 97.05 84.54 9.79
15345 33.1330 74.72 83.97 8.58
15346 33.1350 94.80 83.67 9.78
15347 33.1370 92.49 83.28 9.70
15348 33.1390 89.84 82.92 9.41
15349 33.1410 87.40 82.66 9.34
15350 33.1430 81.60 82.18 8.92
15351 33.1450 80.76 81.39 9.02
15352 33.1470 82.69 80.23 9.12
15353 33.1490 72.54 78.93 8.53
15354 33.1510 65.84 77.80 8.04
15355 33.1530 79.86 76.84 8.89
15356 33.1550 85.06 75.83 9.33
15357 33.1570 81.88 74.83 9.04
15358 33.1590 75.88 74.07 8.69
15359 33.1610 71.65 73.37 8.41
15360 33.1630 75.34 72.55 8.54
15361 33.1650 59.56 71.63 7.74
15362 33.1670 78.73 70.83 8.90
15363 33.1690 67.94 70.28 8.29
15364 33.1710 62.96 69.98 7.88
15365 33.1730 69.98 69.90 8.26
15366 33.1750 89.65 70.04 9.54
15367 33.1770 81.81 70.45 9.06
15368 33.1790 93.93 71.02 9.59
15369 33.1810 67.49 71.75 8.17
15370 33.1830 75.06 72.55 8.61
15371 33.1850 64.71 73.33 8.04
15372 33.1870 75.54 74.25 8.70
15373 33.1890 87.48 75.46 9.38
15374 33.1910 86.82 76.91 9.21
15375 33.1930 96.71 78.22 9.69
15376 33.1950 104.01 79.32 10.30
15377 33.1970 101.21 80.61 10.06
15378 33.1990 91.68 82.59 9.50
15379 33.2010 81.63 85.52 8.96
15380 33.2030 96.20 89.29 9.72
15381 33.2050 98.83 93.36 9.96
15382 33.2070 83.25 97.20 9.11
15383 33.2090 103.59 100.37 10.14
15384 33.2110 118.60 101.84 10.71
15385 33.2130 104.66 101.24 10.16
15386 33.2150 87.41 100.15 9.46
15387 33.2170 113.16 100.27 10.65
15388 33.2190 106.46 102.30 10.26
15389 33.2210 100.04 106.78 9.93
15390 33.2230 126.25 114.59 11.20
15391 33.2250 135.48 126.66 11.79
15392 33.2270 163.33 142.78 12.79
15393 33.2290 165.92 159.01 12.85
15394 33.2310 179.01 166.80 13.25
15395 33.2330 159.67 161.01 12.63
15396 33.2350 147.79 147.31 12.33
15397 33.2370 129.28 133.71 11.41
15398 33.2390 132.78 122.91 11.47
15399 33.2410 126.95 114.30 11.16
15400 33.2430 112.26 107.00 10.58
15401 33.2450 111.78 100.71 10.73
15402 33.2470 100.53 95.65 10.07
15403 33.2490 91.92 92.24 9.59
15404 33.2510 98.53 90.60 9.87
15405 33.2530 108.24 90.64 10.46
15406 33.2550 99.31 92.00 10.08
15407 33.2570 95.06 93.73 9.81
15408 33.2590 118.42 94.49 10.89
15409 33.2610 90.94 94.07 9.53
15410 33.2630 107.84 93.71 10.36
15411 33.2650 91.26 94.47 9.74
15412 33.2670 97.23 96.16 9.96
15413 33.2690 117.29 97.30 10.80
15414 33.2710 98.32 96.07 9.91
15415 33.2730 73.01 92.33 8.59
15416 33.2750 89.65 87.64 9.59
15417 33.2770 81.57 83.43 9.09
15418 33.2790 82.84 80.21 9.12
15419 33.2810 84.05 77.91 9.14
15420 33.2830 88.98 76.40 9.40
15421 33.2850 70.63 75.52 8.49
15422 33.2870 74.40 75.18 8.73
15423 33.2890 89.80 75.34 9.46
15424 33.2910 92.59 76.01 9.60
15425 33.2930 77.04 77.23 8.73
15426 33.2950 89.17 79.00 9.57
15427 33.2970 95.47 81.26 9.80
15428 33.2990 103.96 83.84 10.17
15429 33.3010 78.38 86.97 8.80
15430 33.3030 97.38 91.01 9.80
15431 33.3050 94.24 95.66 9.81
15432 33.3070 94.64 99.06 9.78
15433 33.3090 93.16 98.99 9.68
15434 33.3110 90.86 95.82 9.46
15435 33.3130 95.36 92.01 9.74
15436 33.3150 99.06 89.27 10.11
15437 33.3170 94.96 87.98 9.78
15438 33.3190 98.05 87.98 9.85
15439 33.3210 90.33 89.25 9.40
15440 33.3230 119.65 92.02 10.92
15441 33.3250 105.11 96.45 10.36
15442 33.3270 105.30 102.09 10.34
15443 33.3290 107.86 107.37 10.30
15444 33.3310 108.22 110.37 10.39
15445 33.3330 102.63 111.19 10.05
15446 33.3350 122.38 111.82 11.20
15447 33.3370 134.38 113.09 11.58
15448 33.3390 133.12 113.36 11.53
15449 33.3410 146.07 111.05 11.98
15450 33.3430 122.91 107.14 11.07
15451 33.3450 86.72 104.00 9.47
15452 33.3470 79.03 103.11 8.91
15453 33.3490 104.36 104.95 10.21
15454 33.3510 103.93 109.39 10.12
15455 33.3530 123.90 115.50 11.20
15456 33.3550 119.97 121.47 11.09
15457 33.3570 133.28 125.11 11.65
15458 33.3590 143.43 125.81 11.94
15459 33.3610 126.27 125.61 11.15
15460 33.3630 124.93 126.15 11.17
15461 33.3650 125.49 127.22 11.42
15462 33.3670 123.13 128.92 11.14
15463 33.3690 121.58 132.63 11.00
15464 33.3710 154.25 138.98 12.37
15465 33.3730 163.67 145.40 12.84
15466 33.3750 156.66 147.00 12.72
15467 33.3770 138.15 142.00 11.80
15468 33.3790 126.07 133.66 11.24
15469 33.3810 126.10 126.64 11.17
15470 33.3830 143.54 123.47 11.98
15471 33.3850 107.32 124.70 10.58
15472 33.3870 136.08 130.05 11.79
15473 33.3890 147.23 137.88 12.09
15474 33.3910 148.11 143.74 12.11
15475 33.3930 135.61 142.18 11.70
15476 33.3950 151.92 134.07 12.51
15477 33.3970 143.10 125.06 12.01
15478 33.3990 127.42 119.11 11.30
15479 33.4010 117.56 117.35 10.81
15480 33.4030 111.21 119.74 10.52
15481 33.4050 147.26 125.74 12.30
15482 33.4070 116.08 133.76 10.89
15483 33.4090 153.49 140.50 12.36
15484 33.4110 160.02 142.20 12.58
15485 33.4130 158.14 137.13 12.64
15486 33.4150 145.21 127.51 12.29
15487 33.4170 118.96 117.58 10.97
15488 33.4190 106.52 109.78 10.34
15489 33.4210 111.89 104.56 10.58
15490 33.4230 104.86 101.62 10.26
15491 33.4250 105.07 100.73 10.40
15492 33.4270 100.12 101.72 10.14
15493 33.4290 100.87 103.92 10.09
15494 33.4310 98.31 105.46 9.89
15495 33.4330 121.19 104.56 11.02
15496 33.4350 72.58 101.62 8.66
15497 33.4370 85.43 98.67 9.33
15498 33.4390 82.93 97.11 9.12
15499 33.4410 98.31 97.42 9.85
15500 33.4430 100.62 99.36 10.05
15501 33.4450 117.09 101.93 11.02
15502 33.4470 106.73 103.21 10.41
15503 33.4490 125.28 101.98 11.17
15504 33.4510 108.70 98.86 10.43
15505 33.4530 80.19 95.63 8.96
15506 33.4550 103.05 93.56 10.30
15507 33.4570 89.72 92.95 9.53
15508 33.4590 89.68 92.99 9.51
15509 33.4610 115.21 92.20 10.65
15510 33.4630 75.37 90.01 8.68
15511 33.4650 98.74 87.50 10.08
15512 33.4670 86.71 85.80 9.36
15513 33.4690 86.17 85.30 9.33
15514 33.4710 73.14 86.08 8.53
15515 33.4730 93.60 88.12 9.68
15516 33.4750 102.98 91.43 10.30
15517 33.4770 96.87 95.60 9.89
15518 33.4790 103.77 99.11 10.18
15519 33.4810 83.19 100.32 9.08
15520 33.4830 114.87 99.48 10.66
15521 33.4850 111.80 98.29 10.70
15522 33.4870 121.88 97.18 11.19
15523 33.4890 114.21 95.61 10.65
15524 33.4910 97.33 93.91 9.84
15525 33.4930 101.21 92.95 10.07
15526 33.4950 112.53 92.75 10.78
15527 33.4970 98.35 92.77 9.94
15528 33.4990 113.43 93.23 10.70
15529 33.5010 83.80 94.95 9.10
15530 33.5030 89.86 98.44 9.45
15531 33.5050 97.55 103.26 9.99
15532 33.5070 110.61 107.53 10.62
15533 33.5090 121.62 108.80 11.04
15534 33.5110 102.18 106.53 10.08
15535 33.5130 116.08 102.67 10.79
15536 33.5150 108.33 99.00 10.53
15537 33.5170 98.46 96.12 9.95
15538 33.5190 115.78 93.99 10.72
15539 33.5210 82.57 92.42 9.06
15540 33.5230 83.12 91.09 9.09
15541 33.5250 71.93 89.85 8.56
15542 33.5270 91.99 89.16 9.66
15543 33.5290 103.66 89.59 10.18
15544 33.5310 93.72 91.48 9.63
15545 33.5330 91.79 95.12 9.55
15546 33.5350 104.36 100.44 10.33
15547 33.5370 115.93 106.72 10.81
15548 33.5390 112.34 111.95 10.58
15549 33.5410 123.60 113.46 11.01
15550 33.5430 117.13 110.91 10.81
15551 33.5450 104.92 106.69 10.33
15552 33.5470 99.34 103.00 9.98
15553 33.5490 92.16 100.43 9.63
15554 33.5510 104.78 98.73 10.19
15555 33.5530 102.98 97.45 10.10
15556 33.5550 105.33 96.32 10.41
15557 33.5570 105.72 95.75 10.28
15558 33.5590 111.50 96.56 10.60
15559 33.5610 113.72 99.14 10.56
15560 33.5630 100.52 103.18 9.98
15561 33.5650 90.57 106.96 9.66
15562 33.5670 112.31 107.79 10.61
15563 33.5690 126.95 104.38 11.26
15564 33.5710 119.43 98.54 10.94
15565 33.5730 92.63 92.72 9.55
15566 33.5750 92.80 88.02 9.75
15567 33.5770 90.00 84.62 9.52
15568 33.5790 76.24 82.27 8.73
15569 33.5810 78.62 80.74 8.81
15570 33.5830 89.70 79.85 9.42
15571 33.5850 85.13 79.46 9.35
15572 33.5870 76.07 79.51 8.76
15573 33.5890 78.64 80.01 8.90
15574 33.5910 73.03 80.93 8.51
15575 33.5930 79.61 82.37 8.89
15576 33.5950 77.68 84.29 8.95
15577 33.5970 91.93 86.70 9.62
15578 33.5990 98.40 89.35 9.92
15579 33.6010 86.42 91.88 9.24
15580 33.6030 90.12 94.19 9.41
15581 33.6050 119.22 96.55 10.99
15582 33.6070 94.09 99.74 9.74
15583 33.6090 103.01 104.50 10.18
15584 33.6110 106.84 111.03 10.30
15585 33.6130 126.75 118.10 11.19
15586 33.6150 135.37 123.21 11.81
15587 33.6170 138.21 124.83 11.75
15588 33.6190 111.64 123.87 10.57
15589 33.6210 104.65 122.63 10.24
15590 33.6230 129.25 123.04 11.30
15591 33.6250 114.29 125.19 10.82
15592 33.6270 146.15 126.89 12.10
15593 33.6290 109.62 125.51 10.52
15594 33.6310 124.99 120.71 11.08
15595 33.6330 105.69 114.79 10.26
15596 33.6350 118.79 110.15 10.98
15597 33.6370 111.39 107.82 10.61
15598 33.6390 99.55 107.86 9.98
15599 33.6410 113.34 109.19 10.56
15600 33.6430 123.28 109.95 11.02
15601 33.6450 115.40 108.25 10.86
15602 33.6470 105.95 104.52 10.30
15603 33.6490 91.76 100.62 9.58
15604 33.6510 87.45 97.55 9.34
15605 33.6530 86.95 95.20 9.24
15606 33.6550 97.18 93.20 9.99
15607 33.6570 91.97 91.64 9.64
15608 33.6590 61.57 90.86 7.86
15609 33.6610 83.62 91.01 9.04
15610 33.6630 80.17 91.90 8.99
15611 33.6650 81.46 92.95 9.08
15612 33.6670 101.71 93.26 10.12
15613 33.6690 98.40 92.64 9.90
15614 33.6710 97.93 91.60 9.89
15615 33.6730 64.71 90.54 7.99
15616 33.6750 81.01 89.54 9.10
15617 33.6770 82.83 88.75 9.16
15618 33.6790 67.84 88.44 8.27
15619 33.6810 77.71 88.85 8.76
15620 33.6830 94.67 90.01 9.66
15621 33.6850 89.36 91.80 9.58
15622 33.6870 94.24 93.72 9.76
15623 33.6890 100.29 95.25 10.02
15624 33.6910 103.66 96.39 10.13
15625 33.6930 97.89 97.31 9.87
15626 33.6950 109.43 97.67 10.59
15627 33.6970 97.39 97.18 9.90
15628 33.6990 92.18 96.17 9.59
15629 33.7010 97.86 95.13 9.87
15630 33.7030 83.00 93.91 9.03
15631 33.7050 79.28 92.29 8.96
15632 33.7070 82.55 90.58 9.17
15633 33.7090 84.62 89.24 9.20
15634 33.7110 78.63 88.48 8.81
15635 33.7130 77.25 88.35 8.76
15636 33.7150 68.46 88.87 8.38
15637 33.7170 87.54 90.09 9.40
15638 33.7190 87.84 92.11 9.38
loop_
_pd_proc_info_excluded_regions
'from 1.001 to 1.794'
'from 7.315 to 7.501'
'from 7.645 to 7.736'
'from 7.815 to 7.865'
'from 7.932 to 8.001'
'from 11.821 to 11.944'
'from 14.388 to 14.520'
'from 33.728 to 40.040'
loop_
_refln_index_h
_refln_index_k
_refln_index_l
_refln_F_squared_calc
_refln_F_squared_meas
_refln_observed_status
_refln_d_spacing
0 0 1 10406.31 10457.72 o 10.731140
0 0 -1 10406.31 10457.72 o 10.731140
1 1 0 0.20 0.00 < 7.376492
1 1 -1 15169.81 15790.69 o 6.078847
1 1 1 15169.81 15790.68 o 6.078847
0 0 2 168808.69 166656.59 o 5.365570
0 0 -2 168808.69 166656.59 o 5.365570
0 2 0 8373.62 8735.90 o 5.224355
2 0 0 8148.33 8716.00 o 5.207620
0 2 -1 73537.23 72505.46 o 4.697269
0 2 1 73537.20 72505.41 o 4.697269
2 0 -1 74317.45 74102.04 o 4.685094
2 0 1 74317.44 74102.02 o 4.685094
1 2 0 876.03 757.49 o 4.669800
2 1 0 439.98 475.02 o 4.660819
1 1 2 5701.32 5673.60 o 4.339093
1 1 -2 5701.32 5673.60 o 4.339093
1 2 -1 1065.82 1113.34 o 4.281937
1 2 1 1065.82 1113.34 o 4.281937
2 1 -1 584.47 605.47 o 4.275010
2 1 1 584.46 605.47 o 4.275010
0 2 2 108739.11 107310.56 o 3.743105
0 2 -2 108739.11 107310.59 o 3.743105
2 0 -2 106534.05 104659.94 o 3.736936
2 0 2 106534.12 104660.02 o 3.736936
2 2 0 202769.92 207324.45 o 3.688246
0 0 -3 319066.66 316654.31 o 3.577047
0 0 3 319066.66 316654.31 o 3.577047
1 2 2 2226.20 2041.46 o 3.522528
1 2 -2 2226.20 2041.46 o 3.522528
2 1 -2 676.63 576.85 o 3.518669
2 1 2 676.63 576.84 o 3.518669
2 2 1 132161.78 133348.89 o 3.487983
2 2 -1 132161.78 133348.91 o 3.487983
1 3 0 187311.00 185186.09 o 3.303109
3 1 0 182345.23 188032.95 o 3.294642
1 1 -3 21214.04 20465.08 o 3.218580
1 1 3 21214.05 20465.09 o 3.218580
1 3 1 15255.98 15991.40 o 3.156942
1 3 -1 15255.99 15991.41 o 3.156942
3 1 -1 14978.65 15458.56 o 3.149547
3 1 1 14978.64 15458.54 o 3.149547
2 2 2 202381.67 197281.84 o 3.039424
2 2 -2 202381.61 197281.80 o 3.039424
0 2 -3 186440.50 179661.03 o 2.951508
0 2 3 186440.48 179661.02 o 2.951508
2 0 -3 178484.28 173735.55 o 2.948480
2 0 3 178484.31 173735.55 o 2.948480
2 3 0 230.05 132.62 < 2.895085
1 2 -3 1008.27 890.39 o 2.839687
1 2 3 1008.27 890.39 o 2.839687
2 1 -3 1128.29 1088.01 o 2.837664
2 1 3 1128.30 1088.01 o 2.837664
1 3 -2 68822.38 69916.01 o 2.812835
1 3 2 68822.37 69915.99 o 2.812835
3 1 -2 70685.36 69186.08 o 2.807600
3 1 2 70685.39 69186.10 o 2.807600
2 3 -1 1182.29 982.24 o 2.795151
2 3 1 1182.28 982.23 o 2.795151
3 2 1 663.39 811.31 o 2.791938
3 2 -1 663.39 811.30 o 2.791938
0 0 4 82399.43 80094.19 o 2.682785
0 0 -4 82399.43 80094.20 o 2.682785
0 4 0 184279.17 181876.09 o 2.612178
4 0 0 185488.39 187886.83 o 2.603810
2 2 -3 11405.79 11172.59 o 2.567766
2 2 3 11405.80 11172.60 o 2.567766
2 3 -2 96.16 41.58 < 2.547862
2 3 2 96.16 41.58 < 2.547862
3 2 -2 27.63 12.76 < 2.545427
3 2 2 27.63 12.76 < 2.545427
0 4 -1 10736.10 9947.89 o 2.538065
0 4 1 10736.12 9947.91 o 2.538065
1 4 0 3184.82 3144.22 o 2.533705
4 0 -1 9715.64 9133.65 o 2.530388
4 0 1 9715.64 9133.64 o 2.530388
4 1 0 9543.68 10172.93 o 2.526542
1 1 4 774.36 564.05 o 2.521217
1 1 -4 774.37 564.05 o 2.521217
1 4 1 1289.44 1375.97 o 2.465904
1 4 -1 1289.44 1375.97 o 2.465904
4 1 1 967.51 1239.97 o 2.459299
4 1 -1 967.52 1239.97 o 2.459299
3 3 0 31.11 40.17 o 2.458831
1 3 3 20458.65 19027.09 o 2.426723
1 3 -3 20458.65 19027.09 o 2.426723
3 1 -3 19056.08 18123.58 o 2.423360
3 1 3 19056.06 18123.56 o 2.423360
3 3 -1 72166.54 74601.80 o 2.396721
3 3 1 72166.59 74601.85 o 2.396721
0 2 -4 3914.81 3523.70 o 2.386516
0 2 4 3914.81 3523.70 o 2.386516
2 0 -4 4058.97 3595.98 o 2.384914
2 0 4 4058.97 3595.97 o 2.384914
0 4 -2 3679.25 3850.07 o 2.348634
0 4 2 3679.25 3850.07 o 2.348634
4 0 2 3884.80 3855.05 o 2.342547
4 0 -2 3884.79 3855.05 o 2.342547
2 4 0 92468.30 96909.04 o 2.334900
4 2 0 96837.39 97215.42 o 2.330410
1 2 -4 519.27 458.33 o 2.326229
1 2 4 519.27 458.33 o 2.326229
2 1 4 842.33 832.71 o 2.325116
2 1 -4 842.33 832.71 o 2.325116
1 4 2 243.38 241.53 < 2.291105
1 4 -2 243.39 241.54 < 2.291105
4 1 -2 2064.13 1987.27 o 2.285805
4 1 2 2064.13 1987.28 o 2.285805
2 4 -1 3232.54 2977.50 o 2.281519
2 4 1 3232.55 2977.51 o 2.281519
4 2 -1 2476.00 2588.35 o 2.277329
4 2 1 2476.01 2588.36 o 2.277329
2 3 -3 592.46 574.09 o 2.250381
2 3 3 592.46 574.10 o 2.250381
3 2 3 158.71 170.46 o 2.248703
3 2 -3 158.71 170.46 o 2.248703
3 3 -2 11.58 4.67 < 2.235298
3 3 2 11.59 4.67 < 2.235298
2 2 4 441.09 300.48 o 2.169546
2 2 -4 441.09 300.48 o 2.169546
0 0 5 31869.78 36644.90 o 2.146228
0 0 -5 31869.78 36644.90 o 2.146228
2 4 2 10834.67 10056.97 o 2.140969
2 4 -2 10834.63 10056.94 o 2.140969
4 2 2 10261.14 9885.48 o 2.137505
4 2 -2 10261.12 9885.47 o 2.137505
0 4 3 113394.69 111403.80 o 2.109560
0 4 -3 113394.73 111403.84 o 2.109560
4 0 3 116317.30 112697.38 o 2.105145
4 0 -3 116317.34 112697.41 o 2.105145
3 4 0 5862.04 7217.20 o 2.087325
4 3 0 205.38 266.82 o 2.085450
1 3 -4 17525.96 18748.00 o 2.082453
1 3 4 17525.96 18748.00 o 2.082453
3 1 4 18707.25 19370.88 o 2.080326
3 1 -4 18707.26 19370.88 o 2.080326
1 4 3 6612.57 6902.37 o 2.067575
1 4 -3 6612.57 6902.36 o 2.067575
4 1 -3 3380.76 3395.46 o 2.063678
4 1 3 3380.77 3395.48 o 2.063678
1 1 5 36602.38 36895.45 o 2.060773
1 1 -5 36602.37 36895.43 o 2.060773
3 4 1 2309.79 2349.64 o 2.048924
3 4 -1 2309.79 2349.64 o 2.048924
1 5 0 64942.93 66063.50 o 2.048907
4 3 -1 3168.14 3342.58 o 2.047152
4 3 1 3168.13 3342.57 o 2.047152
5 1 0 64677.68 71684.91 o 2.042848
3 3 -3 237119.30 234647.94 o 2.026282
3 3 3 237119.28 234647.88 o 2.026282
1 5 -1 29643.23 31217.71 o 2.012552
1 5 1 29643.23 31217.71 o 2.012552
5 1 -1 29502.11 30708.41 o 2.006809
5 1 1 29502.14 30708.44 o 2.006809
0 2 5 306079.81 295751.66 o 1.985235
0 2 -5 306079.88 295751.81 o 1.985235
2 0 -5 295465.50 284587.94 o 1.984313
2 0 5 295465.56 284587.97 o 1.984313
2 3 4 254.81 299.63 o 1.967793
2 3 -4 254.81 299.63 o 1.967793
3 2 -4 2800.19 3293.08 o 1.966671
3 2 4 2800.19 3293.08 o 1.966671
2 4 -3 84296.99 85766.81 o 1.955226
2 4 3 84296.98 85766.79 o 1.955226
4 2 3 85796.23 85327.66 o 1.952587
4 2 -3 85796.18 85327.61 o 1.952587
1 2 -5 1589.65 1524.57 o 1.950126
1 2 5 1589.65 1524.58 o 1.950126
2 1 5 255.60 256.76 o 1.949470
2 1 -5 255.60 256.76 o 1.949470
3 4 -2 1933.48 2514.64 o 1.945309
3 4 2 1933.46 2514.61 o 1.945309
4 3 -2 2348.54 2946.27 o 1.943792
4 3 2 2348.54 2946.27 o 1.943792
1 5 2 21635.54 22084.29 o 1.914099
1 5 -2 21635.52 22084.28 o 1.914099
5 1 2 24046.14 23992.30 o 1.909156
5 1 -2 24046.12 23992.29 o 1.909156
2 5 1 44.31 43.67 o 1.908498
2 5 -1 44.31 43.67 o 1.908498
5 2 1 1453.74 1000.40 o 1.904209
5 2 -1 1453.75 1000.40 o 1.904209
0 4 4 27236.70 26374.75 o 1.871553
0 4 -4 27236.69 26374.74 o 1.871553
4 0 4 26646.50 23529.60 o 1.868468
4 0 -4 26646.50 23529.60 o 1.868468
2 2 -5 33017.42 33875.07 o 1.855014
2 2 5 33017.41 33875.06 o 1.855014
4 4 0 66831.98 64100.69 o 1.844123
1 4 4 288.83 193.51 o 1.842049
1 4 -4 288.83 193.51 o 1.842049
4 1 -4 5553.37 4864.49 o 1.839291
4 1 4 5553.37 4864.49 o 1.839291
2 5 2 203.93 140.74 < 1.823924
2 5 -2 203.93 140.74 < 1.823924
5 2 2 607.48 153.80 < 1.820179
5 2 -2 607.48 153.80 < 1.820179
4 4 -1 2111.80 1610.40 o 1.817482
4 4 1 2111.79 1610.39 o 1.817482
3 3 -4 3040.78 2216.55 o 1.812668
3 3 4 3040.79 2216.56 o 1.812668
3 4 3 1815.10 1452.00 o 1.802830
3 4 -3 1815.08 1451.99 o 1.802830
4 3 -3 1718.24 1447.22 o 1.801622
4 3 3 1718.25 1447.23 o 1.801622
1 3 -5 25499.60 25065.25 o 1.799689
1 3 5 25499.59 25065.25 o 1.799689
3 1 5 27587.00 26264.94 o 1.798315
3 1 -5 27586.95 26264.88 o 1.798315
3 5 0 259295.69 267396.94 o 1.790414
0 0 6 4140.70 4341.84 o 1.788523
0 0 -6 4140.70 4341.84 o 1.788523
5 3 0 258102.77 260816.23 o 1.787713
1 5 -3 91500.41 93120.85 o 1.777904
1 5 3 91500.44 93120.88 o 1.777904
5 1 3 90267.05 90686.30 o 1.773940
5 1 -3 90267.05 90686.31 o 1.773940
3 5 1 43504.67 43927.87 o 1.766003
3 5 -1 43504.74 43927.94 o 1.766003
5 3 -1 38690.22 39734.02 o 1.763411
5 3 1 38690.19 39733.98 o 1.763411
2 4 4 46408.51 45267.90 o 1.761264
2 4 -4 46408.48 45267.87 o 1.761264
4 2 -4 41447.45 41294.68 o 1.759334
4 2 4 41447.49 41294.73 o 1.759334
4 4 2 5422.70 5330.02 o 1.743991
4 4 -2 5422.69 5330.01 o 1.743991
0 6 0 147945.36 145910.45 o 1.741452
1 1 6 13775.10 15091.28 o 1.738161
1 1 -6 13775.11 15091.29 o 1.738161
6 0 0 155883.12 163877.05 o 1.735873
2 3 5 87.94 3.61 < 1.724127
2 3 -5 87.94 3.61 < 1.724127
3 2 -5 219.82 6.86 < 1.723372
3 2 5 219.82 6.86 < 1.723372
0 6 1 41048.56 39443.34 o 1.718964
0 6 -1 41048.57 39443.34 o 1.718964
1 6 0 3287.83 3169.57 o 1.717608
6 0 1 45788.64 44108.56 o 1.713599
6 0 -1 45788.63 44108.56 o 1.713599
6 1 0 112.30 110.72 o 1.712403
2 5 3 1553.37 4095.75 o 1.704944
2 5 -3 1553.38 4095.76 o 1.704944
5 2 -3 896.78 1817.19 o 1.701884
5 2 3 896.78 1817.19 o 1.701884
3 5 2 123122.39 125245.95 o 1.698357
3 5 -2 123122.37 125245.91 o 1.698357
5 3 2 109737.48 112002.16 o 1.696050
5 3 -2 109737.48 112002.17 o 1.696050
1 6 1 4900.75 5001.88 o 1.696020
1 6 -1 4900.72 5001.86 o 1.696020
0 2 6 116235.34 110016.92 o 1.692113
0 2 -6 116235.32 110016.90 o 1.692113
2 0 6 108142.52 102742.25 o 1.691542
2 0 -6 108142.57 102742.30 o 1.691542
6 1 -1 3345.89 3197.01 o 1.691009
6 1 1 3345.89 3197.01 o 1.691009
1 2 -6 1233.70 1069.25 o 1.670214
1 2 6 1233.70 1069.25 o 1.670214
2 1 -6 1686.36 1441.25 o 1.669802
2 1 6 1686.37 1441.26 o 1.669802
0 4 5 68355.62 67508.20 o 1.658288
0 4 -5 68355.53 67508.12 o 1.658288
0 6 2 166410.64 165417.44 o 1.656394
0 6 -2 166410.61 165417.42 o 1.656394
4 0 -5 65790.23 65203.65 o 1.656141
4 0 5 65790.30 65203.71 o 1.656141
6 0 2 167078.88 163494.17 o 1.651591
6 0 -2 167078.94 163494.19 o 1.651591
2 6 0 5.84 5.63 o 1.651555
3 4 4 3122.30 2874.32 o 1.647422
3 4 -4 3122.31 2874.33 o 1.647422
6 2 0 37.67 34.73 o 1.647321
4 3 4 1584.18 1548.60 o 1.646500
4 3 -4 1584.17 1548.59 o 1.646500
4 4 -3 35161.88 35226.81 o 1.639117
4 4 3 35161.90 35226.83 o 1.639117
1 4 5 4000.15 3874.52 o 1.637660
1 4 -5 4000.15 3874.52 o 1.637660
1 6 -2 5258.99 4920.12 o 1.635836
1 6 2 5258.96 4920.09 o 1.635836
4 1 5 374.19 350.08 o 1.635721
4 1 -5 374.20 350.08 o 1.635721
2 6 1 50941.48 51122.12 o 1.632336
2 6 -1 50941.54 51122.19 o 1.632336
6 1 -2 2259.55 2306.09 o 1.631338
6 1 2 2259.53 2306.07 o 1.631338
4 5 0 2596.35 2778.21 o 1.629769
5 4 0 3.86 3.78 o 1.628621
1 5 -4 900.94 876.08 o 1.628337
1 5 4 900.93 876.07 o 1.628337
6 2 1 48523.95 46727.93 o 1.628248
6 2 -1 48523.97 46727.95 o 1.628248
5 1 4 1064.43 1125.62 o 1.625290
5 1 -4 1064.44 1125.64 o 1.625290
3 3 5 184474.55 176611.70 o 1.616911
3 3 -5 184474.44 176611.59 o 1.616911
4 5 1 50.71 49.72 o 1.611292
4 5 -1 50.70 49.71 o 1.611292
5 4 1 1201.92 1220.49 o 1.610183
5 4 -1 1201.91 1220.49 o 1.610183
2 2 6 37005.39 36382.22 o 1.609290
2 2 -6 37005.36 36382.20 o 1.609290
3 5 3 44635.57 47715.76 o 1.601056
3 5 -3 44635.61 47715.80 o 1.601056
5 3 -3 48403.21 50647.25 o 1.599124
5 3 3 48403.09 50647.13 o 1.599124
2 4 5 67754.59 64973.38 o 1.580110
2 4 -5 67754.54 64973.34 o 1.580110
4 2 5 63505.95 60529.11 o 1.578716
4 2 -5 63505.91 60529.06 o 1.578716
2 6 2 17284.47 16486.59 o 1.578471
2 6 -2 17284.49 16486.61 o 1.578471
6 2 2 17956.58 18205.71 o 1.574773
6 2 -2 17956.60 18205.73 o 1.574773
1 3 6 24374.98 23596.73 o 1.572766
1 3 -6 24374.97 23596.72 o 1.572766
3 1 -6 25894.08 24795.36 o 1.571849
3 1 6 25894.05 24795.34 o 1.571849
2 5 -4 1048.07 996.76 o 1.571730
2 5 4 1048.08 996.76 o 1.571730
5 2 -4 206.62 204.26 o 1.569332
5 2 4 206.62 204.26 o 1.569332
0 6 -3 13064.58 12626.59 o 1.565756
0 6 3 13064.57 12626.58 o 1.565756
6 0 -3 16889.33 19215.46 o 1.561698
6 0 3 16889.34 19215.47 o 1.561698
4 5 -2 949.84 2019.87 o 1.559418
4 5 2 949.84 2019.88 o 1.559418
5 4 2 2458.15 5514.59 o 1.558413
5 4 -2 2458.16 5514.62 o 1.558413
3 6 0 40.13 340.02 o 1.556600
6 3 0 859.39 2503.76 < 1.553606
1 6 3 560.39 424.31 < 1.548358
1 6 -3 560.39 424.31 < 1.548358
6 1 3 3819.66 2809.59 o 1.544541
6 1 -3 3819.65 2809.58 o 1.544541
3 6 -1 2663.66 1854.87 o 1.540478
3 6 1 2663.66 1854.87 o 1.540478
6 3 -1 4422.76 3308.81 o 1.537576
6 3 1 4422.70 3308.76 o 1.537576
0 0 7 6066.77 2215.17 < 1.533020
0 0 -7 6066.77 2215.17 < 1.533020
2 3 6 257.27 41.18 < 1.521582
2 3 -6 257.27 41.18 < 1.521582
3 2 -6 156.86 32.48 < 1.521063
3 2 6 156.86 32.48 < 1.521063
4 4 4 1016.62 367.91 < 1.519712
4 4 -4 1016.62 367.91 < 1.519712
1 1 -7 9740.67 9526.75 o 1.500949
1 1 7 9740.70 9526.78 o 1.500949
2 6 -3 61457.09 61065.94 o 1.499447
2 6 3 61457.09 61065.95 o 1.499447
3 4 -5 255.48 252.82 o 1.496352
3 4 5 255.47 252.81 o 1.496352
6 2 3 65370.61 64693.23 o 1.496277
6 2 -3 65370.63 64693.25 o 1.496277
4 3 -5 1649.17 1625.77 o 1.495661
4 3 5 1649.17 1625.77 o 1.495661
3 6 -2 1158.39 1190.81 o 1.494960
3 6 2 1158.38 1190.81 o 1.494960
6 3 2 5724.06 6634.79 o 1.492308
6 3 -2 5724.04 6634.76 o 1.492308
3 5 4 28148.17 27456.00 o 1.489230
3 5 -4 28148.15 27455.97 o 1.489230
5 3 -4 27938.35 25589.16 o 1.487674
5 3 4 27938.35 25589.16 o 1.487674
4 5 -3 4141.80 3907.17 o 1.483086
4 5 3 4141.80 3907.17 o 1.483086
5 4 -3 926.86 904.93 o 1.482222
5 4 3 926.85 904.92 o 1.482222
1 5 5 112346.47 110330.55 o 1.482007
1 5 -5 112346.47 110330.53 o 1.482007
5 1 5 115907.70 110340.16 o 1.479709
5 1 -5 115907.69 110340.14 o 1.479709
1 7 0 71488.63 68048.74 o 1.477576
0 4 6 14003.90 15594.13 o 1.475754
0 4 -6 14003.90 15594.14 o 1.475754
5 5 0 68.34 77.34 o 1.475298
4 0 -6 13716.52 15900.05 o 1.474240
4 0 6 13716.51 15900.04 o 1.474240
7 1 0 72724.53 76655.98 o 1.473032
0 2 7 61079.90 60635.93 o 1.470997
0 2 -7 61079.87 60635.90 o 1.470997
2 0 -7 58914.36 58792.19 o 1.470622
2 0 7 58914.33 58792.15 o 1.470622
1 7 1 11136.65 11815.07 o 1.463765
1 7 -1 11136.66 11815.09 o 1.463765
5 5 1 10713.13 11263.02 o 1.461551
5 5 -1 10713.17 11263.06 o 1.461551
1 4 6 3715.11 3791.35 o 1.461159
1 4 -6 3715.11 3791.34 o 1.461159
0 6 4 5338.17 5445.43 o 1.460696
0 6 -4 5338.18 5445.45 o 1.460696
4 1 6 329.53 330.19 o 1.459782
4 1 -6 329.53 330.19 o 1.459782
7 1 1 10803.70 10715.99 o 1.459347
7 1 -1 10803.68 10715.97 o 1.459347
6 0 -4 4215.77 3208.09 o 1.457399
6 0 4 4215.78 3208.10 o 1.457399
1 2 -7 301.86 206.00 o 1.456542
1 2 7 301.86 206.00 o 1.456542
2 1 -7 90.31 49.80 < 1.456269
2 1 7 90.31 49.80 < 1.456269
4 6 0 930.31 853.02 o 1.447543
1 6 4 1183.98 1109.65 o 1.446539
1 6 -4 1183.98 1109.66 o 1.446539
3 3 6 80772.18 75741.20 o 1.446364
3 3 -6 80772.32 75741.31 o 1.446364
6 4 0 1554.75 1464.30 o 1.445757
6 1 4 185.40 194.56 o 1.443426
6 1 -4 185.40 194.56 o 1.443426
2 5 -5 2302.53 2234.81 o 1.438950
2 5 5 2302.54 2234.81 o 1.438950
5 2 5 976.28 1188.47 o 1.437109
5 2 -5 976.28 1188.47 o 1.437109
2 7 0 5972.85 6187.39 o 1.434892
4 6 -1 34075.93 35139.94 o 1.434550
4 6 1 34075.93 35139.93 o 1.434550
6 4 -1 35242.09 36036.84 o 1.432812
6 4 1 35242.05 36036.80 o 1.432812
7 2 0 4099.38 3616.84 o 1.430989
3 6 -3 2089.97 1928.79 o 1.427312
3 6 3 2089.98 1928.81 o 1.427312
6 3 -3 389.71 387.67 o 1.425003
6 3 3 389.72 387.67 o 1.425003
1 7 -2 20608.02 20610.21 o 1.424548
1 7 2 20608.02 20610.21 o 1.424548
5 5 -2 18416.99 20598.81 o 1.422506
5 5 2 18417.09 20598.92 o 1.422506
2 7 1 1222.05 1376.96 o 1.422234
2 7 -1 1222.06 1376.96 o 1.422234
7 1 2 21798.87 21754.71 o 1.420474
7 1 -2 21798.88 21754.72 o 1.420474
2 4 -6 30278.56 30032.59 o 1.419843
2 4 6 30278.51 30032.52 o 1.419843
4 2 6 30494.48 30190.16 o 1.418832
4 2 -6 30494.48 30190.16 o 1.418832
7 2 1 5771.62 5735.08 o 1.418433
7 2 -1 5771.60 5735.06 o 1.418433
2 2 7 25156.44 25414.21 o 1.415606
2 2 -7 25156.43 25414.21 o 1.415606
2 6 4 25177.01 25809.74 o 1.406417
2 6 -4 25177.04 25809.77 o 1.406417
6 2 -4 26955.20 26366.35 o 1.403800
6 2 4 26955.22 26366.38 o 1.403800
4 4 -5 8354.05 8868.17 o 1.398713
4 4 5 8354.04 8868.16 o 1.398713
4 6 2 43618.34 45171.87 o 1.397576
4 6 -2 43618.41 45171.96 o 1.397576
6 4 -2 42717.80 42993.93 o 1.395969
6 4 2 42717.86 42993.98 o 1.395969
4 5 4 297.51 230.80 o 1.392890
4 5 -4 297.51 230.80 o 1.392890
5 4 -4 1749.17 1479.30 o 1.392174
5 4 4 1749.17 1479.29 o 1.392174
1 3 7 8912.34 9052.97 o 1.390554
1 3 -7 8912.35 9052.99 o 1.390554
3 1 -7 8976.68 9144.71 o 1.389920
3 1 7 8976.67 9144.70 o 1.389920
2 7 2 3138.62 2524.26 o 1.386181
2 7 -2 3138.62 2524.26 o 1.386181
7 2 2 1109.22 750.99 < 1.382660
7 2 -2 1109.23 750.99 < 1.382660
3 5 -5 6168.11 5044.41 o 1.374838
3 5 5 6168.10 5044.40 o 1.374838
5 3 5 4109.26 3411.51 o 1.373614
5 3 -5 4109.30 3411.54 o 1.373614
3 7 0 1503.22 2261.14 < 1.371298
7 3 0 1916.64 2585.90 o 1.368267
1 7 3 16188.07 19079.43 o 1.365653
1 7 -3 16188.08 19079.44 o 1.365653
5 5 -3 118786.88 118845.64 o 1.363854
5 5 3 118786.90 118845.65 o 1.363854
7 1 -3 16725.35 15972.67 o 1.362063
7 1 3 16725.37 15972.69 o 1.362063
3 7 -1 6509.34 6572.17 o 1.360237
3 7 1 6509.39 6572.22 o 1.360237
3 4 6 234.32 250.23 o 1.358145
3 4 -6 234.32 250.22 o 1.358145
4 3 6 645.40 674.45 o 1.357628
4 3 -6 645.40 674.44 o 1.357628
7 3 -1 4562.91 4697.83 o 1.357279
7 3 1 4562.90 4697.81 o 1.357279
2 3 7 654.66 557.16 o 1.354801
2 3 -7 654.66 557.16 o 1.354801
3 2 -7 792.01 619.26 o 1.354435
3 2 7 792.01 619.26 o 1.354435
0 6 5 67192.35 65992.41 o 1.352292
0 6 -5 67192.37 65992.44 o 1.352292
6 0 5 69157.83 65156.00 o 1.349675
6 0 -5 69157.86 65156.04 o 1.349675
1 5 6 46237.05 45700.64 o 1.347392
1 5 -6 46237.05 45700.64 o 1.347392
3 6 4 3544.76 3517.67 o 1.346380
3 6 -4 3544.76 3517.67 o 1.346380
5 1 6 47544.21 47435.42 o 1.345664
5 1 -6 47544.27 47435.48 o 1.345664
6 3 -4 448.10 419.32 o 1.344442
6 3 4 448.09 419.31 o 1.344442
4 6 3 9390.45 9251.65 o 1.341835
4 6 -3 9390.47 9251.67 o 1.341835
0 0 8 186896.92 180107.83 o 1.341393
0 0 -8 186896.92 180107.81 o 1.341393
1 6 5 4462.43 4356.53 o 1.341036
1 6 -5 4462.43 4356.53 o 1.341036
6 4 -3 9601.42 8912.54 o 1.340413
6 4 3 9601.43 8912.55 o 1.340413
6 1 -5 4588.67 4362.57 o 1.338554
6 1 5 4588.66 4362.56 o 1.338554
5 6 0 126.17 113.06 o 1.336059
6 5 0 9917.39 8803.93 o 1.335286
2 7 3 2071.81 1762.70 o 1.331740
2 7 -3 2071.80 1762.68 o 1.331740
7 2 3 767.93 736.73 o 1.328618
7 2 -3 767.93 736.73 o 1.328618
3 7 -2 22678.61 21757.31 o 1.328594
3 7 2 22678.65 21757.35 o 1.328594
7 3 -2 23489.06 24020.67 o 1.325837
7 3 2 23489.11 24020.72 o 1.325837
5 6 1 2924.51 2990.70 o 1.325823
5 6 -1 2924.45 2990.64 o 1.325823
6 5 1 378.44 389.10 o 1.325068
6 5 -1 378.44 389.10 o 1.325068
0 4 7 15799.66 13254.97 o 1.322148
0 4 -7 15799.68 13254.98 o 1.322148
4 0 -7 15621.31 13158.35 o 1.321059
4 0 7 15621.27 13158.32 o 1.321059
1 1 8 6250.66 5088.39 o 1.319749
1 1 -8 6250.66 5088.39 o 1.319749
2 5 6 479.35 431.50 < 1.314790
2 5 -6 479.35 431.51 < 1.314790
5 2 -6 193.90 113.08 < 1.313385
5 2 6 193.90 113.08 < 1.313385
1 4 -7 96.52 72.17 o 1.311622
1 4 7 96.52 72.17 o 1.311622
4 1 -7 2366.14 2301.15 o 1.310625
4 1 7 2366.14 2301.15 o 1.310625
2 6 5 79462.10 78416.52 o 1.308882
2 6 -5 79462.05 78416.48 o 1.308882
6 2 -5 88325.02 86164.20 o 1.306772
6 2 5 88325.07 86164.27 o 1.306772
0 8 0 20986.19 20426.87 o 1.306089
8 0 0 21714.71 20305.81 o 1.301905
3 3 7 23290.20 22605.00 o 1.300889
3 3 -7 23290.25 22605.04 o 1.300889
0 2 8 71988.59 69711.58 o 1.299250
0 2 -8 71988.57 69711.56 o 1.299250
2 0 -8 67151.27 64918.44 o 1.298991
2 0 8 67151.22 64918.40 o 1.298991
4 5 5 5762.42 5366.79 o 1.297958
4 5 -5 5762.43 5366.80 o 1.297958
5 4 5 1428.04 1425.67 o 1.297378
5 4 -5 1428.04 1425.67 o 1.297378
0 8 1 51879.42 47910.31 o 1.296521
0 8 -1 51879.38 47910.29 o 1.296521
5 6 2 2041.59 1885.40 o 1.296470
5 6 -2 2041.62 1885.43 o 1.296470
1 8 0 18655.53 17215.22 o 1.295939
6 5 2 449.34 408.68 o 1.295764
6 5 -2 449.36 408.70 o 1.295764
4 7 0 7573.24 6947.65 o 1.294977
1 7 -4 1509.44 1685.94 o 1.294259
1 7 4 1509.43 1685.94 o 1.294259
7 4 0 2370.76 2320.11 o 1.292870
5 5 4 1179.59 1157.76 o 1.292727
5 5 -4 1179.55 1157.72 o 1.292727
8 0 -1 37551.07 36136.37 o 1.292428
8 0 1 37551.08 36136.37 o 1.292428
8 1 0 5335.35 5030.80 o 1.291915
7 1 -4 1097.73 888.10 o 1.291201
7 1 4 1097.73 888.10 o 1.291201
1 2 8 1251.73 740.12 < 1.289257
1 2 -8 1251.75 740.12 < 1.289257
2 1 8 38.54 24.20 < 1.289068
2 1 -8 38.54 24.20 < 1.289068
1 8 -1 385.64 331.34 o 1.286591
1 8 1 385.64 331.34 o 1.286591
4 7 1 3135.21 3190.02 o 1.285650
4 7 -1 3135.22 3190.03 o 1.285650
4 4 6 14169.28 14677.80 o 1.283883
4 4 -6 14169.27 14677.79 o 1.283883
7 4 1 6034.50 6195.54 o 1.283588
7 4 -1 6034.44 6195.48 o 1.283588
8 1 1 6823.55 6460.24 o 1.282653
8 1 -1 6823.55 6460.24 o 1.282653
2 4 -7 19730.52 19156.82 o 1.281491
2 4 7 19730.49 19156.79 o 1.281491
4 2 7 15616.20 15211.05 o 1.280748
4 2 -7 15616.22 15211.08 o 1.280748
3 7 3 50858.54 49571.48 o 1.280433
3 7 -3 50858.52 49571.47 o 1.280433
7 3 -3 50679.44 48713.25 o 1.277964
7 3 3 50679.58 48713.39 o 1.277964
4 6 -4 668.33 354.52 < 1.273931
4 6 4 668.33 354.52 < 1.273931
6 4 -4 523.44 215.59 < 1.272714
6 4 4 523.45 215.60 < 1.272714
0 8 2 12046.59 12532.23 o 1.269033
0 8 -2 12046.63 12532.28 o 1.269033
2 8 0 209757.41 208932.75 o 1.266852
3 5 6 14404.92 16672.90 o 1.265345
3 5 -6 14404.93 16672.92 o 1.265345
2 7 4 163.86 192.22 o 1.265283
2 7 -4 163.86 192.22 o 1.265283
8 0 -2 17148.83 20337.23 o 1.265194
8 0 2 17148.89 20337.30 o 1.265194
5 3 6 11360.57 13548.63 o 1.264390
5 3 -6 11360.57 13548.63 o 1.264390
8 2 0 218440.95 228366.59 o 1.263271
7 2 -4 4131.46 4299.84 o 1.262604
7 2 4 4131.49 4299.87 o 1.262604
2 2 8 34695.50 35556.87 o 1.260609
2 2 -8 34695.51 35556.89 o 1.260609
3 6 5 3254.70 3413.08 o 1.260076
3 6 -5 3254.69 3413.07 o 1.260076
1 8 -2 3406.05 3689.15 o 1.259716
1 8 2 3406.07 3689.17 o 1.259716
4 7 -2 7750.29 9714.80 o 1.258833
4 7 2 7750.27 9714.78 o 1.258833
6 3 -5 3115.37 3848.60 o 1.258487
6 3 5 3115.38 3848.61 o 1.258487
2 8 -1 3388.90 4077.60 o 1.258116
2 8 1 3388.91 4077.61 o 1.258116
7 4 -2 201.32 466.82 o 1.256897
7 4 2 201.31 466.81 o 1.256897
8 1 -2 767.86 2650.65 o 1.256020
8 1 2 767.87 2650.67 o 1.256020
8 2 -1 6208.36 12677.89 o 1.254608
8 2 1 6208.32 12677.80 o 1.254608
5 6 3 1270.00 2040.29 o 1.251603
5 6 -3 1270.03 2040.34 o 1.251603
6 5 3 4095.33 5975.41 o 1.250968
6 5 -3 4095.35 5975.43 o 1.250968
0 6 6 63420.73 56879.62 o 1.247702
0 6 -6 63420.72 56879.60 o 1.247702
6 0 -6 57809.21 55808.44 o 1.245645
6 0 6 57809.21 55808.43 o 1.245645
1 3 -8 56494.59 54344.91 o 1.242820
1 3 8 56494.54 54344.86 o 1.242820
3 1 -8 52717.69 50681.73 o 1.242368
3 1 8 52717.70 50681.73 o 1.242368
1 6 -6 1559.28 1747.36 o 1.238844
1 6 6 1559.28 1747.35 o 1.238844
6 1 -6 3873.05 3622.84 o 1.236887
6 1 6 3873.07 3622.86 o 1.236887
3 4 -7 514.49 489.86 o 1.235581
3 4 7 514.50 489.87 o 1.235581
4 3 7 997.02 865.17 o 1.235192
4 3 -7 997.02 865.17 o 1.235192
2 8 -2 25532.94 24790.58 o 1.232952
2 8 2 25532.90 24790.55 o 1.232952
8 2 2 27824.85 28294.19 o 1.229650
8 2 -2 27824.79 28294.13 o 1.229650
6 6 0 103280.75 104153.62 o 1.229415
1 5 -7 23493.92 23453.26 o 1.227468
1 5 7 23493.94 23453.27 o 1.227468
0 8 -3 110259.93 108955.14 o 1.226864
0 8 3 110259.87 108955.06 o 1.226864
5 1 7 23097.33 23001.83 o 1.226161
5 1 -7 23097.37 23001.87 o 1.226161
8 0 3 108070.24 109649.89 o 1.223394
8 0 -3 108070.22 109649.88 o 1.223394
3 8 0 7095.95 7240.67 o 1.222444
6 6 1 2809.23 2680.89 o 1.221426
6 6 -1 2809.21 2680.88 o 1.221426
3 7 4 8312.63 7766.32 o 1.221034
3 7 -4 8312.59 7766.28 o 1.221034
8 3 0 2241.90 2598.53 o 1.219493
7 3 4 3417.33 4433.36 o 1.218892
7 3 -4 3417.33 4433.36 o 1.218892
1 8 -3 6092.21 7886.22 o 1.218440
1 8 3 6092.22 7886.23 o 1.218440
4 7 3 414.11 486.99 o 1.217641
4 7 -3 414.11 486.99 o 1.217641
2 3 8 209.27 223.97 o 1.217097
2 3 -8 209.27 223.97 o 1.217097
1 7 -5 6408.32 6594.08 o 1.217043
1 7 5 6408.30 6594.07 o 1.217043
3 2 8 275.92 273.94 o 1.216831
3 2 -8 275.92 273.93 o 1.216831
7 4 3 2218.50 2166.59 o 1.215888
7 4 -3 2218.48 2166.57 o 1.215888
5 5 -5 167330.25 163164.77 o 1.215769
5 5 5 167330.28 163164.80 o 1.215769
8 1 -3 459.68 457.58 o 1.215094
8 1 3 459.67 457.57 o 1.215094
3 8 -1 212.04 210.49 o 1.214589
3 8 1 212.03 210.48 o 1.214589
7 1 -5 6554.96 6502.19 o 1.214500
7 1 5 6554.95 6502.18 o 1.214500
2 6 -6 26180.94 26471.72 o 1.213362
2 6 6 26180.95 26471.72 o 1.213362
5 7 0 160937.08 162829.83 o 1.213319
7 5 0 140746.22 140451.94 o 1.212057
8 3 1 2518.51 2457.35 o 1.211694
8 3 -1 2518.52 2457.36 o 1.211694
6 2 -6 29131.25 28423.80 o 1.211680
6 2 6 29131.22 28423.77 o 1.211680
5 7 1 22767.98 26910.67 o 1.205637
5 7 -1 22767.98 26910.67 o 1.205637
4 5 -6 1404.91 1612.04 o 1.204643
4 5 6 1404.91 1612.04 o 1.204643
7 5 -1 23518.44 26744.25 o 1.204399
7 5 1 23518.38 26744.17 o 1.204399
5 4 6 1740.29 1945.39 o 1.204180
5 4 -6 1740.30 1945.40 o 1.204180
2 5 -7 97.62 106.90 o 1.202667
2 5 7 97.61 106.90 o 1.202667
5 2 -7 970.37 1148.73 o 1.201591
5 2 7 970.38 1148.73 o 1.201591
4 6 -5 10230.41 10487.41 o 1.200095
4 6 5 10230.39 10487.39 o 1.200095
6 4 5 10459.92 10003.99 o 1.199077
6 4 -5 10459.92 10003.99 o 1.199077
6 6 -2 13089.16 13335.71 o 1.198360
6 6 2 13089.17 13335.72 o 1.198360
5 6 -4 240.40 227.21 o 1.195957
5 6 4 240.39 227.21 o 1.195957
6 5 4 663.04 640.00 o 1.195403
6 5 -4 663.05 640.00 o 1.195403
2 8 -3 48265.73 47806.05 o 1.194171
2 8 3 48265.70 47806.03 o 1.194171
0 4 8 107232.55 105518.96 o 1.193258
0 4 -8 107232.52 105518.95 o 1.193258
2 7 -5 4750.65 4737.27 o 1.192857
2 7 5 4750.67 4737.29 o 1.192857
4 0 8 105213.88 105288.02 o 1.192457
4 0 -8 105213.89 105288.05 o 1.192457
0 0 9 3506.08 3518.94 o 1.192349
0 0 -9 3506.08 3518.94 o 1.192349
3 8 -2 1236.02 1255.87 o 1.191901
3 8 2 1236.02 1255.88 o 1.191901
8 2 -3 53399.38 54689.55 o 1.191170
8 2 3 53399.37 54689.53 o 1.191170
7 2 -5 833.17 841.71 o 1.190611
7 2 5 833.16 841.70 o 1.190611
8 3 2 426.19 325.01 o 1.189165
8 3 -2 426.19 325.01 o 1.189165
1 4 8 2800.59 3101.89 o 1.185503
1 4 -8 2800.61 3101.90 o 1.185503
4 1 -8 1429.00 1546.78 o 1.184767
4 1 8 1429.00 1546.78 o 1.184767
5 7 2 42501.67 43572.64 o 1.183439
5 7 -2 42501.68 43572.66 o 1.183439
7 5 -2 46025.89 46316.48 o 1.182268
7 5 2 46025.91 46316.50 o 1.182268
4 4 -7 165.46 126.08 o 1.178877
4 4 7 165.46 126.08 o 1.178877
3 3 8 72450.34 71070.04 o 1.177560
3 3 -8 72450.33 71070.03 o 1.177560
1 1 -9 672.79 656.66 o 1.177071
1 1 9 672.79 656.66 o 1.177071
0 8 4 7482.59 6082.25 o 1.174317
0 8 -4 7482.55 6082.22 o 1.174317
3 6 -6 1814.83 1496.45 o 1.174176
3 6 6 1814.84 1496.46 o 1.174176
6 3 -6 1883.16 2251.08 o 1.172890
6 3 6 1883.17 2251.08 o 1.172890
8 0 4 3809.69 6158.98 < 1.171273
8 0 -4 3809.70 6159.00 < 1.171273
4 8 0 6014.32 4953.31 o 1.167450
1 8 -4 1065.90 822.19 o 1.166923
1 8 4 1065.91 822.19 o 1.166923
4 7 4 50.91 30.53 o 1.166221
4 7 -4 50.91 30.53 o 1.166221
8 4 0 5750.53 6135.66 o 1.165205
7 4 -4 3035.28 3117.77 o 1.164681
7 4 4 3035.29 3117.79 o 1.164681
3 5 -7 106.70 106.67 o 1.164476
3 5 7 106.70 106.67 o 1.164476
8 1 4 7570.18 7483.08 o 1.163983
8 1 -4 7570.17 7483.07 o 1.163983
5 3 -7 238.53 244.14 o 1.163732
5 3 7 238.53 244.14 o 1.163732
2 4 -8 52912.33 52334.00 o 1.163115
2 4 8 52912.39 52334.06 o 1.163115
6 6 -3 19645.13 19334.65 o 1.162661
6 6 3 19645.14 19334.66 o 1.162661
4 2 8 53122.98 52177.34 o 1.162558
4 2 -8 53122.97 52177.34 o 1.162558
0 2 -9 14455.31 14238.34 o 1.162458
0 2 9 14455.28 14238.31 o 1.162458
2 0 9 16525.35 16004.17 o 1.162273
2 0 -9 16525.35 16004.17 o 1.162273
4 8 -1 19794.76 19602.78 o 1.160602
4 8 1 19794.77 19602.79 o 1.160602
8 4 1 18831.17 17986.53 o 1.158396
8 4 -1 18831.17 17986.53 o 1.158396
3 8 -3 3907.74 3390.97 o 1.156760
3 8 3 3907.79 3391.01 o 1.156760
3 7 -5 97891.09 90380.24 o 1.155564
3 7 5 97891.03 90380.18 o 1.155564
1 2 -9 463.37 430.55 o 1.155284
1 2 9 463.37 430.55 o 1.155284
2 1 9 1402.52 1306.78 o 1.155148
2 1 -9 1402.52 1306.78 o 1.155148
8 3 3 799.17 776.58 o 1.154258
8 3 -3 799.18 776.58 o 1.154258
1 9 0 3983.05 3761.20 o 1.153822
7 3 5 97664.53 92603.41 o 1.153749
7 3 -5 97664.51 92603.38 o 1.153749
0 6 -7 3089.67 3888.47 o 1.150681
0 6 7 3089.66 3888.46 o 1.150681
9 1 0 5376.21 6313.87 o 1.150216
6 0 -7 5167.25 5351.06 o 1.149067
6 0 7 5167.23 5351.04 o 1.149067
5 7 3 39583.03 40841.63 o 1.149019
5 7 -3 39583.10 40841.70 o 1.149019
7 5 3 33615.51 34178.17 o 1.147947
7 5 -3 33615.54 34178.19 o 1.147947
1 9 -1 3617.73 3260.95 o 1.147210
1 9 1 3617.71 3260.93 o 1.147210
2 8 4 41872.22 39107.51 o 1.145553
2 8 -4 41872.18 39107.48 o 1.145553
1 6 7 2841.65 2562.99 o 1.143722
1 6 -7 2841.66 2562.99 o 1.143722
9 1 1 3388.81 3054.17 o 1.143665
9 1 -1 3388.83 3054.18 o 1.143665
8 2 4 35495.21 33054.59 o 1.142902
8 2 -4 35495.22 33054.59 o 1.142902
6 1 -7 1285.22 1211.51 o 1.142181
6 1 7 1285.21 1211.51 o 1.142181
4 8 2 48530.02 51186.93 o 1.140759
4 8 -2 48530.00 51186.90 o 1.140759
1 7 -6 3443.78 3619.15 o 1.139123
1 7 6 3443.78 3619.15 o 1.139123
8 4 -2 50567.20 52023.09 o 1.138664
8 4 2 50567.13 52023.02 o 1.138664
5 5 -6 53035.49 53932.66 o 1.138079
5 5 6 53035.34 53932.48 o 1.138079
7 1 -6 3392.74 3402.36 o 1.137037
7 1 6 3392.73 3402.35 o 1.137037
2 2 -9 37841.95 40051.77 o 1.134536
2 2 9 37841.98 40051.81 o 1.134536
5 6 5 1200.12 1257.65 o 1.134241
5 6 -5 1200.08 1257.60 o 1.134241
6 5 5 1000.14 1027.76 o 1.133768
6 5 -5 1000.16 1027.78 o 1.133768
2 9 0 6619.79 8116.48 o 1.133150
6 7 0 143.20 131.24 o 1.131780
7 6 0 9382.44 8866.54 o 1.131225
9 2 0 100.61 63.26 < 1.129861
3 4 -8 1896.12 1832.58 o 1.128463
3 4 8 1896.12 1832.58 o 1.128463
4 3 -8 438.44 404.58 o 1.128167
4 3 8 438.44 404.58 o 1.128167
1 9 -2 9851.74 9053.14 o 1.128035
1 9 2 9851.75 9053.15 o 1.128035
2 9 -1 362.15 174.50 o 1.126885
2 9 1 362.14 174.50 o 1.126885
6 7 -1 3041.20 2766.43 o 1.125537
6 7 1 3041.21 2766.44 o 1.125537
4 6 -6 17808.62 16658.41 o 1.125190
4 6 6 17808.66 16658.45 o 1.125190
7 6 1 267.51 256.39 o 1.124991
7 6 -1 267.51 256.39 o 1.124991
9 1 2 9182.62 8684.97 o 1.124664
9 1 -2 9182.62 8684.97 o 1.124664
6 4 -6 17030.51 16564.10 o 1.124351
6 4 6 17030.52 16564.10 o 1.124351
9 2 -1 2345.34 2354.71 o 1.123650
9 2 1 2345.36 2354.73 o 1.123650
2 6 7 42019.05 41908.91 o 1.123579
2 6 -7 42019.03 41908.88 o 1.123579
1 5 -8 40532.03 39101.75 o 1.122272
1 5 8 40531.99 39101.71 o 1.122272
6 2 -7 42643.85 41139.05 o 1.122243
6 2 7 42643.86 41139.07 o 1.122243
1 3 -9 10609.52 10199.31 o 1.121516
1 3 9 10609.52 10199.31 o 1.121516
5 1 8 41238.28 39414.95 o 1.121274
5 1 -8 41238.31 39414.98 o 1.121274
3 1 9 12599.96 12192.20 o 1.121184
3 1 -9 12599.96 12192.20 o 1.121184
2 7 6 872.69 817.75 o 1.119218
2 7 -6 872.69 817.75 o 1.119218
6 6 4 55251.50 51241.05 o 1.117649
6 6 -4 55251.36 51240.92 o 1.117649
7 2 -6 1236.91 1140.38 o 1.117363
7 2 6 1236.92 1140.39 o 1.117363
4 5 -7 318.51 261.55 o 1.116646
4 5 7 318.51 261.55 o 1.116646
5 4 7 698.31 619.32 o 1.116277
5 4 -7 698.32 619.33 o 1.116277
0 8 5 141510.56 123570.77 o 1.115731
0 8 -5 141510.47 123570.69 o 1.115731
8 0 -5 143853.58 135036.41 o 1.113119
8 0 5 143853.59 135036.42 o 1.113119
3 8 4 514.81 461.00 o 1.112404
3 8 -4 514.83 461.01 o 1.112404
8 3 -4 5753.88 5710.73 o 1.110178
8 3 4 5753.87 5710.72 o 1.110178
4 8 3 32381.40 32078.08 o 1.109836
4 8 -3 32381.39 32078.08 o 1.109836
1 8 5 5541.15 5477.29 o 1.109384
1 8 -5 5541.16 5477.30 o 1.109384
4 7 5 3501.67 3150.92 o 1.108780
4 7 -5 3501.70 3150.94 o 1.108780
2 9 -2 1606.56 1414.87 o 1.108695
2 9 2 1606.59 1414.90 o 1.108695
8 4 -3 37767.79 31849.67 o 1.107907
8 4 3 37767.75 31849.64 o 1.107907
7 4 5 2780.06 2350.05 o 1.107456
7 4 -5 2780.06 2350.06 o 1.107456
6 7 -2 795.60 672.54 o 1.107412
6 7 2 795.59 672.53 o 1.107412
7 6 2 479.67 338.95 o 1.106892
7 6 -2 479.68 338.95 o 1.106892
8 1 5 769.67 543.94 o 1.106856
8 1 -5 769.67 543.94 o 1.106856
5 8 0 518.50 295.36 o 1.106561
9 2 2 697.74 528.43 o 1.105615
9 2 -2 697.74 528.43 o 1.105615
5 7 -4 3085.82 2313.76 o 1.105515
5 7 4 3085.81 2313.76 o 1.105515
8 5 0 3031.14 2398.91 o 1.105006
7 5 4 1089.65 892.11 o 1.104560
7 5 -4 1089.65 892.11 o 1.104560
2 5 8 2524.21 1700.99 < 1.103223
2 5 -8 2524.21 1700.99 < 1.103223
2 3 9 94.78 61.28 < 1.102505
2 3 -9 94.78 61.28 < 1.102505
5 2 -8 296.17 212.37 < 1.102393
5 2 8 296.16 212.37 < 1.102393
3 2 9 329.58 259.74 < 1.102307
3 2 -9 329.57 259.73 < 1.102307
3 9 0 31982.87 31089.85 o 1.101036
5 8 -1 285.32 278.92 o 1.100724
5 8 1 285.32 278.92 o 1.100724
8 5 -1 176.91 180.27 o 1.099194
8 5 1 176.91 180.27 o 1.099194
9 3 0 36906.96 33127.61 o 1.098214
1 9 -3 1894.36 1694.34 o 1.098108
1 9 3 1894.37 1694.35 o 1.098108
3 9 1 32429.69 29974.54 o 1.095286
3 9 -1 32429.76 29974.60 o 1.095286
9 1 -3 1491.63 1398.50 o 1.094998
9 1 3 1491.64 1398.50 o 1.094998
9 3 1 24895.83 22347.51 o 1.092508
9 3 -1 24895.81 22347.49 o 1.092508
3 6 7 3038.52 2708.09 o 1.092250
3 6 -7 3038.53 2708.10 o 1.092250
6 3 -7 216.03 126.10 o 1.091214
6 3 7 216.03 126.10 o 1.091214
2 8 5 387.02 167.85 < 1.090972
2 8 -5 387.02 167.85 < 1.090972
8 2 5 429.08 414.17 o 1.088683
8 2 -5 429.08 414.18 o 1.088683
3 7 6 43871.86 43189.73 o 1.088242
3 7 -6 43871.86 43189.72 o 1.088242
7 3 6 41594.68 42702.77 o 1.086726
7 3 -6 41594.70 42702.79 o 1.086726
4 4 8 20214.43 22390.67 o 1.084773
4 4 -8 20214.43 22390.67 o 1.084773
0 4 9 6941.06 7739.67 o 1.084692
0 4 -9 6941.06 7739.67 o 1.084692
4 0 -9 6639.34 7436.18 o 1.084090
4 0 9 6639.32 7436.16 o 1.084090
5 8 -2 1367.59 1695.52 o 1.083754
5 8 2 1367.60 1695.53 o 1.083754
8 5 2 1799.18 1666.25 < 1.082293
8 5 -2 1799.18 1666.26 < 1.082293
2 9 3 1577.91 1686.88 < 1.080243
2 9 -3 1577.91 1686.88 < 1.080243
6 7 -3 2913.82 2511.14 o 1.079056
6 7 3 2913.81 2511.13 o 1.079056
1 4 -9 290.03 255.70 o 1.078857
1 4 9 290.03 255.70 o 1.078857
7 6 3 1181.33 1053.41 o 1.078575
7 6 -3 1181.33 1053.41 o 1.078575
3 9 2 8148.37 7266.04 o 1.078562
3 9 -2 8148.38 7266.05 o 1.078562
4 1 -9 581.55 548.82 o 1.078302
4 1 9 581.56 548.82 o 1.078302
9 2 3 1986.21 1865.85 o 1.077393
9 2 -3 1986.21 1865.84 o 1.077393
9 3 2 5613.41 4634.81 o 1.075909
9 3 -2 5613.41 4634.81 o 1.075909
3 5 8 81348.88 78122.34 o 1.073522
3 5 -8 81348.87 78122.32 o 1.073522
0 0 10 31048.26 29200.70 o 1.073114
0 0 -10 31048.26 29200.70 o 1.073114
5 3 -8 82240.98 77117.02 o 1.072939
5 3 8 82241.00 77117.01 o 1.072939
3 3 -9 4213.14 3914.66 o 1.072860
3 3 9 4213.13 3914.65 o 1.072860
4 8 4 2608.99 2022.37 o 1.070484
4 8 -4 2608.98 2022.36 o 1.070484
5 6 6 1191.54 917.69 o 1.070377
5 6 -6 1191.57 917.71 o 1.070377
6 5 6 1139.24 793.67 o 1.069980
6 5 -6 1139.21 793.65 o 1.069980
8 4 4 3968.72 3087.13 o 1.068753
8 4 -4 3968.71 3087.12 o 1.068753
6 6 5 415.42 362.95 < 1.066789
6 6 -5 415.43 362.95 < 1.066789
1 7 7 2278.49 2113.86 o 1.063865
1 7 -7 2278.49 2113.85 o 1.063865
5 5 7 34385.48 35222.87 o 1.063014
5 5 -7 34385.42 35222.80 o 1.063014
0 6 -8 23542.65 24121.79 o 1.062685
0 6 8 23542.69 24121.82 o 1.062685
3 8 -5 2683.32 2519.08 o 1.062225
3 8 5 2683.30 2519.06 o 1.062225
7 1 7 2840.45 2600.30 o 1.062165
7 1 -7 2840.44 2600.29 o 1.062165
1 1 -10 2122.98 1875.79 o 1.061936
1 1 10 2122.98 1875.79 o 1.061936
2 4 9 1017.80 884.69 o 1.061901
2 4 -9 1017.81 884.69 o 1.061901
4 2 9 1202.72 1005.31 o 1.061478
4 2 -9 1202.72 1005.32 o 1.061478
6 0 -8 27987.35 22780.19 o 1.061413
6 0 8 27987.32 22780.17 o 1.061413
4 9 0 8279.08 7890.15 o 1.060343
8 3 5 708.97 674.31 o 1.060286
8 3 -5 708.97 674.31 o 1.060286
1 9 -4 12242.13 11996.60 o 1.059948
1 9 4 12242.10 11996.56 o 1.059948
9 4 0 4046.62 3677.73 o 1.058066
1 6 8 382.23 365.54 o 1.057196
1 6 -8 382.23 365.53 o 1.057196
9 1 -4 11969.40 10694.98 o 1.057151
9 1 4 11969.44 10695.01 o 1.057151
5 8 -3 2337.54 2174.60 o 1.057134
5 8 3 2337.56 2174.62 o 1.057134
5 7 -5 6198.13 4580.54 o 1.056221
5 7 5 6198.12 4580.54 o 1.056221
6 1 8 533.36 413.08 o 1.055979
6 1 -8 533.37 413.08 o 1.055979
8 5 3 3788.33 3154.18 o 1.055778
8 5 -3 3788.33 3154.18 o 1.055778
7 5 -5 8011.36 7301.56 o 1.055389
7 5 5 8011.38 7301.57 o 1.055389
4 9 -1 1171.17 1082.18 o 1.055204
4 9 1 1171.18 1082.19 o 1.055204
0 8 6 62328.95 58329.75 o 1.054780
0 8 -6 62328.96 58329.77 o 1.054780
7 7 0 30.52 27.69 o 1.053784
9 4 1 5526.51 5168.95 o 1.052960
9 4 -1 5526.50 5168.93 o 1.052960
8 0 6 67190.30 62159.48 o 1.052572
8 0 -6 67190.39 62159.57 o 1.052572
4 6 -7 7592.91 7099.11 o 1.052489
4 6 7 7592.91 7099.11 o 1.052489
3 9 -3 30610.01 28706.74 o 1.052314
3 9 3 30610.02 28706.75 o 1.052314
6 4 7 10788.94 10447.49 o 1.051802
6 4 -7 10788.93 10447.48 o 1.051802
0 2 10 28534.18 28257.01 o 1.051168
0 2 -10 28534.16 28256.99 o 1.051168
2 0 -10 23995.46 23370.64 o 1.051031
2 0 10 23995.46 23370.64 o 1.051031
9 3 -3 33425.15 31684.29 o 1.049849
9 3 3 33425.16 31684.31 o 1.049849
1 8 6 2000.65 1886.75 o 1.049412
1 8 -6 2000.65 1886.75 o 1.049412
4 7 -6 2270.93 1858.57 o 1.048901
4 7 6 2270.93 1858.58 o 1.048901
7 7 -1 324.75 245.52 o 1.048740
7 7 1 324.76 245.52 o 1.048740
7 4 6 1565.28 1273.76 o 1.047780
7 4 -6 1565.29 1273.77 o 1.047780
2 7 7 1074.90 885.90 o 1.047596
2 7 -7 1074.91 885.90 o 1.047596
8 1 -6 262.22 223.82 o 1.047272
8 1 6 262.22 223.82 o 1.047272
7 2 7 824.87 534.86 o 1.046074
7 2 -7 824.88 534.87 o 1.046074
1 2 10 392.78 287.17 o 1.045855
1 2 -10 392.78 287.17 o 1.045855
2 1 -10 108.21 84.85 o 1.045754
2 1 10 108.21 84.85 o 1.045754
0 10 0 83582.55 79575.39 o 1.044871
2 9 4 398.98 396.46 o 1.043856
2 9 -4 398.98 396.46 o 1.043856
6 8 0 19243.76 19309.62 o 1.043662
6 7 4 6163.87 6270.18 o 1.042784
6 7 -4 6163.85 6270.17 o 1.042784
8 6 0 21666.48 21839.90 o 1.042725
7 6 -4 5332.10 5220.27 o 1.042350
7 6 4 5332.10 5220.27 o 1.042350
10 0 0 92930.96 92078.88 o 1.041524
9 2 -4 1454.27 1439.17 o 1.041283
9 2 4 1454.27 1439.17 o 1.041283
2 6 8 21680.53 21515.11 o 1.041226
2 6 -8 21680.55 21515.12 o 1.041226
4 9 2 509.81 516.08 o 1.040225
4 9 -2 509.81 516.08 o 1.040225
6 2 8 26222.04 26661.27 o 1.040163
6 2 -8 26222.07 26661.29 o 1.040163
0 10 -1 33938.44 34309.66 o 1.039953
0 10 1 33938.48 34309.71 o 1.039953
1 10 0 1197.78 1216.50 o 1.039652
6 8 -1 34690.57 39495.84 o 1.038761
6 8 1 34690.56 39495.83 o 1.038761
9 4 -2 5556.38 6550.16 o 1.038075
9 4 2 5556.35 6550.13 o 1.038075
8 6 1 33583.43 39218.62 o 1.037837
8 6 -1 33583.48 39218.68 o 1.037837
10 0 -1 35878.31 37268.19 o 1.036653
10 0 1 35878.39 37268.27 o 1.036653
10 1 0 121.34 123.18 o 1.036388
4 5 -8 4100.68 4427.91 o 1.035702
4 5 8 4100.68 4427.91 o 1.035702
5 4 -8 66.90 77.84 o 1.035407
5 4 8 66.90 77.83 o 1.035407
3 4 -9 615.77 680.00 o 1.035336
3 4 9 615.78 680.01 o 1.035336
4 3 9 390.76 418.20 o 1.035107
4 3 -9 390.77 418.21 o 1.035107
1 10 1 6495.53 7390.18 o 1.034807
1 10 -1 6495.51 7390.16 o 1.034807
7 7 -2 14035.89 15617.21 o 1.034031
7 7 2 14035.89 15617.21 o 1.034031
2 8 -6 3171.36 3540.21 o 1.033787
2 8 6 3171.37 3540.23 o 1.033787
8 2 6 2269.83 2072.53 o 1.031839
8 2 -6 2269.84 2072.54 o 1.031839
10 1 1 4991.15 4827.02 o 1.031588
10 1 -1 4991.16 4827.03 o 1.031588
1 5 9 1541.95 1562.51 o 1.030548
1 5 -9 1541.95 1562.51 o 1.030548
2 2 -10 101616.31 103029.65 o 1.030386
2 2 10 101616.27 103029.66 o 1.030386
5 1 9 1854.30 1873.72 o 1.029775
5 1 -9 1854.30 1873.72 o 1.029775
0 10 2 87807.88 91867.91 o 1.025605
0 10 -2 87807.91 91867.95 o 1.025605
4 8 -5 46897.23 48911.00 o 1.025545
4 8 5 46897.25 48911.03 o 1.025545
6 8 2 1007.31 1056.21 o 1.024462
6 8 -2 1007.31 1056.22 o 1.024462
2 10 0 11215.40 11759.88 o 1.024454
8 4 -5 53440.48 54769.05 o 1.024022
8 4 5 53440.49 54769.07 o 1.024022
8 6 -2 660.29 661.80 o 1.023576
8 6 2 660.28 661.80 o 1.023576
5 8 -4 114.89 124.62 o 1.022960
5 8 4 114.89 124.63 o 1.022960
10 0 2 86732.21 90787.85 o 1.022439
10 0 -2 86732.19 90787.84 o 1.022439
3 7 7 24883.87 25883.31 o 1.022064
3 7 -7 24883.88 25883.32 o 1.022064
8 5 4 51.37 53.04 o 1.021731
8 5 -4 51.37 53.04 o 1.021731
10 2 0 8957.98 9009.44 o 1.021424
7 3 7 20986.72 21494.66 o 1.020808
7 3 -7 20986.71 21494.66 o 1.020808
1 10 2 6084.27 6223.05 o 1.020669
1 10 -2 6084.31 6223.10 o 1.020669
1 3 10 34911.42 35678.06 o 1.020604
1 3 -10 34911.39 35678.02 o 1.020604
3 1 -10 33290.73 33797.41 o 1.020353
3 1 10 33290.73 33797.41 o 1.020353
2 10 1 9344.58 9513.97 o 1.019817
2 10 -1 9344.56 9513.95 o 1.019817
3 9 -4 4167.90 5029.81 o 1.018590
3 9 4 4167.88 5029.78 o 1.018590
10 1 2 9618.23 9853.07 o 1.017579
10 1 -2 9618.25 9853.09 o 1.017579
10 2 1 7986.42 8187.51 o 1.016828
10 2 -1 7986.42 8187.50 o 1.016828
4 9 3 7787.75 7753.55 o 1.016618
4 9 -3 7787.74 7753.54 o 1.016618
9 3 4 2767.95 2808.12 o 1.016354
9 3 -4 2767.94 2808.11 o 1.016354
1 9 5 6795.70 6827.87 o 1.016270
1 9 -5 6795.69 6827.86 o 1.016270
3 6 -8 1067.55 1063.76 o 1.016147
3 6 8 1067.54 1063.75 o 1.016147
2 5 -9 212.44 186.44 o 1.015740
2 5 9 212.44 186.44 o 1.015740
6 3 -8 373.35 371.65 o 1.015313
6 3 8 373.35 371.65 o 1.015313
5 2 -9 1219.79 1320.25 o 1.015092
5 2 9 1219.80 1320.26 o 1.015092
9 4 -3 253.29 276.91 o 1.014610
9 4 3 253.29 276.90 o 1.014610
5 9 0 25868.89 28744.82 o 1.014099
9 1 5 5350.83 5997.33 o 1.013803
9 1 -5 5350.82 5997.32 o 1.013803
6 6 6 3875.38 4773.14 o 1.013141
6 6 -6 3875.39 4773.15 o 1.013141
9 5 0 39960.51 48845.90 o 1.012381
7 7 -3 24762.20 30626.54 o 1.010834
7 7 3 24762.26 30626.61 o 1.010834
5 9 1 1125.11 1632.57 o 1.009601
5 9 -1 1125.11 1632.57 o 1.009601
3 8 -6 2639.17 3465.63 o 1.009229
3 8 6 2639.17 3465.63 o 1.009229
9 5 -1 1105.20 1118.35 < 1.007906
9 5 1 1105.20 1118.35 < 1.007906
8 3 -6 329.51 273.31 < 1.007566
8 3 6 329.52 273.32 < 1.007566
5 6 7 301.11 265.34 < 1.007221
5 6 -7 301.12 265.34 < 1.007221
6 5 -7 78.79 78.23 o 1.006890
6 5 7 78.80 78.23 o 1.006890
2 10 -2 10877.05 10328.12 o 1.006276
2 10 2 10877.09 10328.17 o 1.006276
2 3 10 971.71 921.31 o 1.006214
2 3 -10 971.70 921.31 o 1.006214
3 2 10 45.89 43.33 o 1.006064
3 2 -10 45.89 43.32 o 1.006064
5 7 6 3054.03 3701.13 o 1.004076
5 7 -6 3054.03 3701.14 o 1.004076
10 2 2 12820.41 14196.60 o 1.003404
10 2 -2 12820.44 14196.62 o 1.003404
7 5 6 4463.14 4912.68 o 1.003361
7 5 -6 4463.12 4912.67 o 1.003361
0 10 3 8073.15 8783.76 o 1.002958
0 10 -3 8073.16 8783.77 o 1.002958
2 9 5 1085.81 1122.33 o 1.002060
2 9 -5 1085.81 1122.33 o 1.002060
6 8 3 52395.36 54097.17 o 1.001889
6 8 -3 52395.32 54097.13 o 1.001889
4 4 9 5343.55 5449.12 o 1.001285
4 4 -9 5343.57 5449.14 o 1.001285
6 7 5 6042.29 6180.42 o 1.001112
6 7 -5 6042.29 6180.43 o 1.001112
8 6 -3 50906.28 52083.54 o 1.001060
8 6 3 50906.35 52083.61 o 1.001060
7 6 -5 522.90 533.46 o 1.000728
7 6 5 522.89 533.45 o 1.000728
3 10 0 454.69 467.96 o 1.000539
10 0 -3 11388.47 11822.80 o 0.999997
10 0 3 11388.52 11822.85 o 0.999997
9 2 -5 1702.73 1769.56 o 0.999784
9 2 5 1702.74 1769.57 o 0.999784
1 10 3 4547.87 5395.94 o 0.998340
1 10 -3 4547.87 5395.95 o 0.998340
10 3 0 1514.35 1803.17 o 0.997863
5 9 2 35686.83 35007.93 o 0.996458
5 9 -2 35686.80 35007.89 o 0.996458
3 10 -1 5552.22 5521.66 o 0.996218
3 10 1 5552.22 5521.66 o 0.996218
10 1 -3 3175.68 3076.79 o 0.995448
10 1 3 3175.68 3076.79 o 0.995448
9 5 2 31536.22 30142.82 o 0.994828
9 5 -2 31536.17 30142.77 o 0.994828
0 8 -7 47286.86 45215.44 o 0.994193
0 8 7 47286.80 45215.39 o 0.994193
10 3 1 3076.08 3007.50 o 0.993576
10 3 -1 3076.10 3007.52 o 0.993576
1 7 8 22749.64 21563.87 o 0.993171
1 7 -8 22749.63 21563.87 o 0.993171
0 4 -10 24418.27 23587.61 o 0.992618
0 4 10 24418.28 23587.62 o 0.992618
5 5 -8 54286.55 52277.41 o 0.992479
5 5 8 54286.42 52277.28 o 0.992479
3 5 9 20896.57 20104.56 o 0.992417
3 5 -9 20896.57 20104.55 o 0.992417
8 0 -7 43176.33 41457.85 o 0.992344
8 0 7 43176.33 41457.85 o 0.992344
4 0 -10 22000.54 21104.07 o 0.992157
4 0 10 22000.56 21104.08 o 0.992157
5 3 -9 17006.10 16492.46 o 0.991956
5 3 9 17006.04 16492.41 o 0.991956
7 1 8 20821.91 19930.09 o 0.991788
7 1 -8 20821.95 19930.13 o 0.991788
1 8 7 1028.32 834.12 o 0.989694
1 8 -7 1028.31 834.10 o 0.989694
4 7 7 940.43 663.25 < 0.989266
4 7 -7 940.43 663.25 < 0.989266
7 4 7 2483.15 2288.99 o 0.988325
7 4 -7 2483.17 2289.01 o 0.988325
1 4 10 433.20 394.45 o 0.988140
1 4 -10 433.20 394.45 o 0.988140
8 1 7 3363.63 3131.31 o 0.987898
8 1 -7 3363.65 3131.32 o 0.987898
4 1 -10 734.61 668.23 o 0.987714
4 1 10 734.60 668.23 o 0.987714
4 9 -4 268.49 357.65 o 0.986114
4 9 4 268.49 357.65 o 0.986114
2 10 3 55436.59 56298.16 o 0.984859
2 10 -3 55436.57 56298.13 o 0.984859
9 4 -4 3188.34 3215.55 o 0.984282
9 4 4 3188.35 3215.56 o 0.984282
4 6 -8 1776.54 1848.21 o 0.983897
4 6 8 1776.54 1848.22 o 0.983897
0 6 -9 30705.93 32736.82 o 0.983836
0 6 9 30705.93 32736.82 o 0.983836
3 10 2 5466.84 5821.87 o 0.983584
3 10 -2 5466.84 5821.86 o 0.983584
5 8 -5 2356.66 2513.42 o 0.983531
5 8 5 2356.64 2513.40 o 0.983531
3 3 -10 10620.84 11327.33 o 0.983526
3 3 10 10620.82 11327.32 o 0.983526
6 4 -8 2802.08 2988.39 o 0.983335
6 4 8 2802.09 2988.40 o 0.983335
6 0 9 31120.93 33156.62 o 0.982827
6 0 -9 31120.93 33156.62 o 0.982827
8 5 -5 2028.21 2210.67 o 0.982439
8 5 5 2028.19 2210.65 o 0.982439
10 2 -3 53197.26 56664.84 o 0.982166
10 2 3 53197.29 56664.86 o 0.982166
7 8 0 856.76 911.78 o 0.981563
8 7 0 1678.44 1496.19 o 0.981145
10 3 -2 1942.03 1734.91 o 0.981041
10 3 2 1942.04 1734.92 o 0.981041
7 7 4 1358.68 1312.33 o 0.980832
7 7 -4 1358.66 1312.30 o 0.980832
2 7 -8 311.15 308.34 o 0.979896
2 7 8 311.15 308.34 o 0.979896
3 9 -5 15673.43 15653.29 o 0.979646
3 9 5 15673.41 15653.27 o 0.979646
1 6 -9 1280.15 1289.59 o 0.979476
1 6 9 1280.16 1289.59 o 0.979476
7 2 -8 1322.90 1400.95 o 0.978650
7 2 8 1322.90 1400.95 o 0.978650
6 1 9 2504.75 2548.45 o 0.978507
6 1 -9 2504.75 2548.45 o 0.978507
9 3 5 17435.33 17904.57 o 0.977656
9 3 -5 17435.31 17904.55 o 0.977656
4 8 6 36471.27 37466.26 o 0.977613
4 8 -6 36471.27 37466.27 o 0.977613
7 8 -1 1678.94 1711.89 o 0.977482
7 8 1 1678.94 1711.89 o 0.977482
8 7 -1 6429.38 6459.03 o 0.977070
8 7 1 6429.38 6459.03 o 0.977070
2 8 -7 4739.51 4636.22 o 0.976556
2 8 7 4739.51 4636.22 o 0.976556
8 4 6 42640.03 41584.48 o 0.976293
8 4 -6 42640.09 41584.54 o 0.976293
5 9 -3 15307.95 15036.79 o 0.975649
5 9 3 15307.94 15036.78 o 0.975649
0 0 11 166436.20 162488.06 o 0.975558
0 0 -11 166436.20 162488.03 o 0.975558
2 4 10 411.33 400.45 o 0.975063
2 4 -10 411.33 400.45 o 0.975063
8 2 7 3273.90 3122.64 o 0.974912
8 2 -7 3273.89 3122.63 o 0.974912
4 2 10 313.25 285.34 o 0.974735
4 2 -10 313.25 285.34 o 0.974735
9 5 -3 19666.86 17553.93 o 0.974119
9 5 3 19666.90 17553.97 o 0.974119
0 10 -4 845.91 731.18 o 0.973633
0 10 4 845.91 731.18 o 0.973633
6 8 -4 8668.12 5859.05 o 0.972654
6 8 4 8668.11 5859.05 o 0.972654
8 6 4 8790.00 7616.11 o 0.971896
8 6 -4 8790.02 7616.13 o 0.971896
10 0 4 70.75 60.30 < 0.970923
10 0 -4 70.75 60.30 < 0.970923
4 10 0 14222.82 14366.00 o 0.969708
1 9 -6 13065.93 13262.50 o 0.969568
1 9 6 13065.91 13262.47 o 0.969568
1 10 4 1611.38 1621.94 o 0.969406
1 10 -4 1611.37 1621.93 o 0.969406
10 4 0 16578.07 15569.16 o 0.967458
9 1 6 12134.99 11373.11 o 0.967426
9 1 -6 12134.99 11373.11 o 0.967426
1 1 11 1299.03 1176.35 o 0.967137
1 1 -11 1299.04 1176.35 o 0.967137
10 1 4 1243.37 1044.61 o 0.966758
10 1 -4 1243.37 1044.61 o 0.966758
2 6 -9 8727.27 7105.96 o 0.966735
2 6 9 8727.28 7105.97 o 0.966735
6 2 9 6761.02 5881.13 o 0.965884
6 2 -9 6761.00 5881.11 o 0.965884
4 10 1 20336.06 18209.08 o 0.965773
4 10 -1 20336.08 18209.11 o 0.965773
7 8 -2 2620.60 2432.15 o 0.965539
7 8 2 2620.59 2432.14 o 0.965539
8 7 2 4623.24 4127.32 o 0.965142
8 7 -2 4623.25 4127.33 o 0.965142
6 9 0 13874.48 12511.14 o 0.965028
9 6 0 1722.57 1592.62 o 0.963838
3 10 3 47.04 43.87 o 0.963555
3 10 -3 47.04 43.87 o 0.963555
10 4 1 23129.29 21571.23 o 0.963550
10 4 -1 23129.34 21571.28 o 0.963550
4 5 -9 68.86 51.26 o 0.962308
4 5 9 68.86 51.26 o 0.962308
5 4 -9 2247.94 1452.22 < 0.962072
5 4 9 2247.95 1452.23 < 0.962072
10 3 -3 3021.03 1633.53 o 0.961164
10 3 3 3021.05 1633.54 o 0.961164
6 9 1 1831.97 997.76 o 0.961150
6 9 -1 1831.97 997.76 o 0.961150
9 6 -1 2026.39 1697.04 o 0.959974
9 6 1 2026.39 1697.04 o 0.959974
6 6 7 21335.59 19759.01 o 0.959096
6 6 -7 21335.62 19759.04 o 0.959096
0 2 -11 6271.78 5734.76 o 0.958982
0 2 11 6271.77 5734.75 o 0.958982
3 7 8 29407.03 26771.23 o 0.958906
3 7 -8 29407.12 26771.31 o 0.958906
2 0 -11 6802.70 6201.20 o 0.958878
2 0 11 6802.71 6201.20 o 0.958878
7 3 8 29285.23 25318.01 o 0.957868
7 3 -8 29285.33 25318.09 o 0.957868
2 9 6 616.36 540.39 o 0.957206
2 9 -6 616.35 540.39 o 0.957206
2 10 4 2779.31 2170.47 o 0.957049
2 10 -4 2779.30 2170.47 o 0.957049
6 7 6 3035.86 1872.76 o 0.956379
6 7 -6 3035.85 1872.75 o 0.956379
7 6 6 844.27 479.06 o 0.956044
7 6 -6 844.25 479.05 o 0.956044
3 8 -7 73.43 26.26 < 0.955775
3 8 7 73.44 26.26 < 0.955775
9 2 -6 2692.76 1798.02 o 0.955221
9 2 6 2692.75 1798.02 o 0.955221
1 2 -11 361.20 312.44 o 0.954943
1 2 11 361.20 312.44 o 0.954943
2 1 -11 44.01 39.35 o 0.954866
2 1 11 44.01 39.35 o 0.954866
10 2 -4 5831.27 5387.36 o 0.954578
10 2 4 5831.26 5387.35 o 0.954578
3 4 -10 269.14 244.58 o 0.954375
3 4 10 269.14 244.58 o 0.954375
8 3 -7 3937.56 3578.27 o 0.954363
8 3 7 3937.54 3578.25 o 0.954363
4 10 2 25459.69 23365.70 o 0.954249
4 10 -2 25459.71 23365.72 o 0.954249
4 3 -10 1084.08 992.13 o 0.954196
4 3 10 1084.08 992.14 o 0.954196
10 4 2 25943.48 24014.50 o 0.952104
10 4 -2 25943.48 24014.50 o 0.952104
5 7 7 5509.11 4506.20 o 0.951395
5 7 -7 5509.11 4506.19 o 0.951395
7 5 7 7167.34 6668.59 o 0.950786
7 5 -7 7167.36 6668.60 o 0.950786
4 9 5 6162.57 5671.86 o 0.950652
4 9 -5 6162.55 5671.84 o 0.950652
1 5 -10 11346.15 10499.36 o 0.950622
1 5 10 11346.15 10499.36 o 0.950622
5 1 -10 13549.48 12385.53 o 0.950014
5 1 10 13549.47 12385.53 o 0.950014
6 9 -2 2740.39 2357.77 o 0.949789
6 9 2 2740.37 2357.75 o 0.949789
9 4 -5 1866.36 1760.05 o 0.949009
9 4 5 1866.36 1760.05 o 0.949009
9 6 2 569.70 568.62 o 0.948654
9 6 -2 569.69 568.61 o 0.948654
5 9 4 16214.30 16648.60 o 0.948591
5 9 -4 16214.29 16648.58 o 0.948591
9 5 4 13130.20 13178.13 o 0.947185
9 5 -4 13130.23 13178.16 o 0.947185
5 6 8 72.25 69.00 o 0.946616
5 6 -8 72.24 68.99 o 0.946616
7 8 3 539.46 497.24 o 0.946572
7 8 -3 539.46 497.24 o 0.946572
3 6 9 305.95 282.01 o 0.946562
3 6 -9 305.96 282.01 o 0.946562
6 5 -8 3120.15 2976.69 o 0.946341
6 5 8 3120.14 2976.68 o 0.946341
8 7 -3 148.72 142.77 o 0.946197
8 7 3 148.72 142.77 o 0.946197
1 11 0 2373.02 2266.24 o 0.945957
7 7 5 48180.32 46069.91 o 0.945917
7 7 -5 48180.33 46069.92 o 0.945917
6 3 9 2417.04 2311.17 o 0.945888
6 3 -9 2417.07 2311.19 o 0.945888
2 2 11 28297.87 24864.44 o 0.943124
2 2 -11 28297.91 24864.47 o 0.943124
11 1 0 4208.59 3783.18 o 0.942976
1 11 1 22097.78 20068.20 o 0.942303
1 11 -1 22097.83 20068.24 o 0.942303
5 8 6 2954.24 1899.34 o 0.941016
5 8 -6 2954.23 1899.33 o 0.941016
8 5 6 4613.21 4307.52 o 0.940060
8 5 -6 4613.22 4307.52 o 0.940060
0 10 -5 14671.50 13205.48 o 0.939454
0 10 5 14671.48 13205.46 o 0.939454
11 1 1 19587.97 17878.44 o 0.939357
11 1 -1 19587.97 17878.45 o 0.939357
2 5 10 601.40 579.16 o 0.938961
2 5 -10 601.39 579.15 o 0.938961
6 8 -5 51030.50 50014.49 o 0.938575
6 8 5 51030.52 50014.52 o 0.938575
5 2 10 1214.71 1206.23 o 0.938449
5 2 -10 1214.73 1206.25 o 0.938449
8 6 5 50522.14 49364.36 o 0.937893
8 6 -5 50522.14 49364.36 o 0.937893
3 9 6 3503.11 3346.96 o 0.937612
3 9 -6 3503.09 3346.94 o 0.937612
3 10 4 1923.06 1802.80 o 0.937465
3 10 -4 1923.06 1802.80 o 0.937465
10 0 -5 12655.65 10498.52 o 0.937019
10 0 5 12655.64 10498.51 o 0.937019
4 10 3 10187.78 9384.75 o 0.935927
4 10 -3 10187.77 9384.74 o 0.935927
9 3 -6 5076.37 4635.52 o 0.935867
9 3 6 5076.37 4635.52 o 0.935867
0 8 -8 40219.40 36377.95 o 0.935776
0 8 8 40219.43 36377.97 o 0.935776
1 10 5 7004.75 6380.43 o 0.935655
1 10 -5 7004.72 6380.41 o 0.935655
1 3 -11 37942.42 34572.27 o 0.935605
1 3 11 37942.43 34572.28 o 0.935605
3 1 11 37709.91 34527.71 o 0.935412
3 1 -11 37709.93 34527.73 o 0.935412
10 3 -4 752.28 688.58 o 0.935262
10 3 4 752.28 688.58 o 0.935262
2 11 0 257.60 227.17 o 0.934465
8 0 -8 41011.55 35687.43 o 0.934234
8 0 8 41011.50 35687.38 o 0.934234
5 10 0 2387.27 2066.56 o 0.933960
10 4 3 10060.26 8762.17 o 0.933903
10 4 -3 10060.28 8762.19 o 0.933903
10 1 -5 6481.45 5388.48 o 0.933274
10 1 5 6481.40 5388.43 o 0.933274
10 5 0 4608.95 3981.38 o 0.932164
1 8 -8 6602.25 5975.09 o 0.932022
1 8 8 6602.22 5975.07 o 0.932022
6 9 -3 3083.04 2761.28 o 0.931717
6 9 3 3083.03 2761.27 o 0.931717
11 2 0 1627.66 1464.95 o 0.931663
4 7 8 1286.24 1148.83 o 0.931664
4 7 -8 1286.25 1148.84 o 0.931664
1 11 -2 3187.24 2877.13 o 0.931590
1 11 2 3187.23 2877.12 o 0.931590
2 11 -1 761.76 589.68 o 0.930942
2 11 1 761.76 589.69 o 0.930942
7 4 -8 939.03 682.29 o 0.930878
7 4 8 939.01 682.27 o 0.930878
9 6 -3 4507.03 3225.39 o 0.930646
9 6 3 4507.07 3225.41 o 0.930646
8 1 8 4509.85 3171.43 o 0.930522
8 1 -8 4509.83 3171.42 o 0.930522
5 10 -1 1200.75 835.89 o 0.930443
5 10 1 1200.75 835.89 o 0.930443
4 8 7 4492.51 5395.72 o 0.928792
4 8 -7 4492.54 5395.75 o 0.928792
11 1 2 3528.89 4217.61 o 0.928742
11 1 -2 3528.90 4217.62 o 0.928742
10 5 1 1314.21 1590.93 o 0.928667
10 5 -1 1314.24 1590.97 o 0.928667
11 2 1 637.82 717.71 o 0.928171
11 2 -1 637.83 717.72 o 0.928171
1 7 -9 3661.43 3948.54 o 0.927908
1 7 9 3661.43 3948.55 o 0.927908
8 4 -7 5432.05 5624.95 o 0.927660
8 4 7 5432.02 5624.91 o 0.927660
4 4 10 167.93 172.90 o 0.927507
4 4 -10 167.93 172.90 o 0.927507
5 5 9 2686.14 2742.73 o 0.927343
5 5 -9 2686.12 2742.71 o 0.927343
7 1 -9 2625.56 2452.20 o 0.926779
7 1 9 2625.56 2452.21 o 0.926779
2 10 -5 73668.06 69225.55 o 0.924530
2 10 5 73668.06 69225.54 o 0.924530
2 3 11 49.56 46.66 o 0.924482
2 3 -11 49.56 46.65 o 0.924482
3 2 -11 203.80 192.15 o 0.924366
3 2 11 203.80 192.15 o 0.924366
10 2 -5 76912.04 76404.78 o 0.922302
10 2 5 76912.01 76404.76 o 0.922302
8 8 0 53145.89 51826.66 o 0.922061
1 9 7 4816.75 4749.41 o 0.921885
1 9 -7 4816.74 4749.40 o 0.921885
7 8 4 897.60 894.40 o 0.921802
7 8 -4 897.60 894.40 o 0.921802
8 7 -4 1031.50 1022.22 o 0.921456
8 7 4 1031.51 1022.23 o 0.921456
2 8 -8 83966.77 84327.99 o 0.921025
2 8 8 83966.80 84328.05 o 0.921025
2 11 -2 366.20 369.42 o 0.920607
2 11 2 366.20 369.41 o 0.920607
3 5 -10 66564.63 66075.08 o 0.920445
3 5 10 66564.66 66075.11 o 0.920445
4 6 9 25984.65 25389.95 o 0.920331
4 6 -9 25984.62 25389.92 o 0.920331
5 10 2 325.04 318.30 o 0.920125
5 10 -2 325.05 318.30 o 0.920125
5 3 10 65259.31 63904.33 o 0.920077
5 3 -10 65259.29 63904.31 o 0.920077
9 1 7 4574.05 4474.34 o 0.920043
9 1 -7 4574.04 4474.34 o 0.920043
6 4 9 26286.88 25376.41 o 0.919871
6 4 -9 26286.89 25376.42 o 0.919871
8 2 8 86309.47 82923.38 o 0.919646
8 2 -8 86309.47 82923.36 o 0.919646
8 8 -1 12813.90 14189.44 o 0.918676
8 8 1 12813.90 14189.45 o 0.918676
10 5 -2 532.34 605.32 o 0.918407
10 5 2 532.36 605.34 o 0.918407
11 2 2 1158.84 1386.08 o 0.917928
11 2 -2 1158.83 1386.06 o 0.917928
2 7 9 362.54 349.70 o 0.917054
2 7 -9 362.54 349.70 o 0.917054
5 9 -5 34062.06 33258.92 o 0.916898
5 9 5 34062.11 33258.96 o 0.916898
3 11 0 52109.19 52081.43 o 0.916208
7 2 9 108.93 110.49 o 0.916032
7 2 -9 108.93 110.49 o 0.916032
9 5 5 31466.70 31607.15 o 0.915628
9 5 -5 31466.70 31607.16 o 0.915628
7 9 0 10327.79 10782.90 o 0.915303
9 7 0 15485.45 17349.91 o 0.914580
1 11 -3 17063.84 18864.19 o 0.914519
1 11 3 17063.81 18864.16 o 0.914519
0 4 -11 60412.05 61908.64 o 0.913904
0 4 11 60412.07 61908.66 o 0.913904
11 3 0 47628.71 48474.66 o 0.913679
0 6 10 54481.97 55122.87 o 0.913586
0 6 -10 54481.96 55122.87 o 0.913586
4 0 -11 60988.20 61364.18 o 0.913544
4 0 11 60988.15 61364.13 o 0.913544
3 11 1 2675.53 2685.26 o 0.912887
3 11 -1 2675.53 2685.26 o 0.912887
6 0 10 57045.91 57622.79 o 0.912778
6 0 -10 57045.94 57622.81 o 0.912778
4 9 6 3911.59 4079.30 o 0.912097
4 9 -6 3911.59 4079.30 o 0.912097
7 9 -1 12464.78 12973.28 o 0.911991
7 9 1 12464.76 12973.26 o 0.911991
4 10 4 3769.75 3927.53 o 0.911962
4 10 -4 3769.76 3927.54 o 0.911962
11 1 3 18096.74 18966.86 o 0.911825
11 1 -3 18096.76 18966.88 o 0.911825
9 7 1 6585.77 7411.23 o 0.911277
9 7 -1 6585.76 7411.21 o 0.911277
2 9 -7 65.68 73.92 o 0.911239
2 9 7 65.68 73.92 o 0.911239
9 4 -6 2878.03 3315.76 o 0.910647
9 4 6 2878.02 3315.75 o 0.910647
6 7 7 6247.27 7150.15 o 0.910526
6 7 -7 6247.28 7150.17 o 0.910526
1 4 11 1148.02 1327.11 o 0.910406
1 4 -11 1148.03 1327.12 o 0.910406
11 3 1 5849.77 6786.94 o 0.910385
11 3 -1 5849.77 6786.94 o 0.910385
7 6 -7 1246.47 1461.38 o 0.910236
7 6 7 1246.46 1461.37 o 0.910236
1 6 -10 3275.04 3804.51 o 0.910092
1 6 10 3275.03 3804.50 o 0.910092
10 4 4 4073.05 4755.81 o 0.910090
10 4 -4 4073.05 4755.81 o 0.910090
4 1 -11 561.50 655.62 o 0.910072
4 1 11 561.50 655.62 o 0.910072
9 2 7 749.67 909.44 o 0.909526
9 2 -7 749.69 909.46 o 0.909526
6 1 -10 1694.70 1944.83 o 0.909315
6 1 10 1694.71 1944.84 o 0.909315
8 8 2 65299.70 74214.65 o 0.908741
8 8 -2 65299.71 74214.66 o 0.908741
6 9 -4 2426.67 2657.13 o 0.908066
6 9 4 2426.67 2657.13 o 0.908066
7 7 6 21365.45 22751.94 o 0.907913
7 7 -6 21365.49 22751.98 o 0.907913
9 6 -4 667.78 802.23 o 0.907075
9 6 4 667.78 802.23 o 0.907075
3 10 5 1985.95 2336.41 o 0.906839
3 10 -5 1985.93 2336.39 o 0.906839
3 3 11 5610.12 6737.41 o 0.906794
3 3 -11 5610.09 6737.38 o 0.906794
6 6 8 33040.63 39290.24 o 0.906334
6 6 -8 33040.64 39290.25 o 0.906334
10 3 -5 1440.92 1919.93 o 0.904845
10 3 5 1440.90 1919.91 o 0.904845
2 11 -3 2077.80 2584.07 o 0.904123
2 11 3 2077.81 2584.08 o 0.904123
5 10 -3 1041.79 1178.74 o 0.903665
5 10 3 1041.79 1178.74 o 0.903665
3 8 8 3595.05 3937.46 o 0.903530
3 8 -8 3595.07 3937.49 o 0.903530
3 11 2 41284.23 43266.56 o 0.903136
3 11 -2 41284.19 43266.51 o 0.903136
8 3 -8 923.33 913.29 o 0.902336
8 3 8 923.34 913.30 o 0.902336
7 9 2 2067.77 2095.59 o 0.902269
7 9 -2 2067.78 2095.61 o 0.902269
0 10 -6 24326.37 24451.71 o 0.902194
0 10 6 24326.38 24451.72 o 0.902194
10 5 -3 3941.86 4144.04 o 0.902038
10 5 3 3941.88 4144.07 o 0.902038
11 2 3 416.53 427.30 o 0.901584
11 2 -3 416.53 427.30 o 0.901584
9 7 2 1436.24 1483.83 o 0.901577
9 7 -2 1436.24 1483.84 o 0.901577
6 8 6 20834.67 20855.39 o 0.901415
6 8 -6 20834.66 20855.38 o 0.901415
8 6 -6 18149.01 17745.92 o 0.900811
8 6 6 18149.01 17745.93 o 0.900811
11 3 -2 43159.45 41732.12 o 0.900714
11 3 2 43159.45 41732.12 o 0.900714
2 4 -11 19700.84 19692.09 o 0.900148
2 4 11 19700.83 19692.07 o 0.900148
10 0 6 19976.37 19593.33 o 0.900036
10 0 -6 19976.41 19593.37 o 0.900036
4 2 11 20791.40 20362.93 o 0.899890
4 2 -11 20791.38 20362.92 o 0.899890
2 6 10 20400.24 19943.96 o 0.899844
2 6 -10 20400.24 19943.95 o 0.899844
5 7 8 42785.63 41722.55 o 0.899827
5 7 -8 42785.62 41722.54 o 0.899827
3 7 9 1404.95 1368.52 o 0.899780
3 7 -9 1404.97 1368.54 o 0.899780
7 5 8 37537.17 35739.22 o 0.899312
7 5 -8 37537.15 35739.21 o 0.899312
6 2 -10 18866.23 17416.83 o 0.899158
6 2 10 18866.22 17416.82 o 0.899158
7 3 -9 1172.23 1094.11 o 0.898923
7 3 9 1172.24 1094.11 o 0.898923
1 10 -6 4867.13 4516.14 o 0.898828
1 10 6 4867.13 4516.14 o 0.898828
5 8 7 398.78 288.12 o 0.897238
5 8 -7 398.77 288.12 o 0.897238
10 1 -6 5599.33 4077.49 o 0.896716
10 1 6 5599.35 4077.50 o 0.896716
8 5 -7 395.06 290.07 o 0.896409
8 5 7 395.06 290.07 o 0.896409
4 5 10 469.35 367.76 o 0.896271
4 5 -10 469.35 367.76 o 0.896271
5 4 -10 1535.09 1150.86 o 0.896080
5 4 10 1535.08 1150.85 o 0.896080
6 10 0 70883.39 71731.55 o 0.895207
3 9 -7 16062.81 15517.57 o 0.894286
3 9 7 16062.85 15517.61 o 0.894286
0 0 12 25336.06 24581.83 o 0.894262
0 0 -12 25336.06 24581.83 o 0.894262
10 6 0 66298.55 63249.33 o 0.893856
8 8 -3 969.60 943.05 o 0.892874
8 8 3 969.61 943.06 o 0.892874
9 3 7 12142.92 11810.56 o 0.892771
9 3 -7 12142.91 11810.56 o 0.892771
7 8 -5 2595.11 2515.39 o 0.892639
7 8 5 2595.11 2515.39 o 0.892639
4 11 0 3765.11 3625.45 o 0.892358
8 7 -5 1928.14 1892.53 o 0.892324
8 7 5 1928.13 1892.53 o 0.892324
1 11 4 7094.79 7021.64 o 0.892123
1 11 -4 7094.82 7021.66 o 0.892123
6 10 1 1225.82 1213.19 o 0.892108
6 10 -1 1225.84 1213.20 o 0.892108
10 6 1 524.22 424.20 < 0.890772
10 6 -1 524.21 424.19 < 0.890772
11 4 0 297.46 302.95 o 0.890167
11 1 -4 8261.81 7731.19 o 0.889621
11 1 4 8261.83 7731.21 o 0.889621
5 6 9 2049.51 1926.63 o 0.889603
5 6 -9 2049.48 1926.60 o 0.889603
6 5 9 643.61 609.15 o 0.889375
6 5 -9 643.59 609.13 o 0.889375
4 11 1 2827.77 2620.76 o 0.889289
4 11 -1 2827.78 2620.78 o 0.889289
2 10 -6 33097.68 29672.37 o 0.888952
2 10 6 33097.68 29672.36 o 0.888952
1 1 12 616.71 744.03 o 0.887762
1 1 -12 616.72 744.04 o 0.887762
3 11 3 6794.18 8068.74 o 0.887557
3 11 -3 6794.19 8068.75 o 0.887557
11 4 -1 1988.49 2334.16 o 0.887120
11 4 1 1988.47 2334.14 o 0.887120
10 2 -6 32173.80 37768.44 o 0.886970
10 2 6 32173.76 37768.39 o 0.886970
7 9 -3 10852.49 12334.86 o 0.886733
7 9 3 10852.47 12334.84 o 0.886733
9 7 -3 17745.70 18086.30 o 0.886076
9 7 3 17745.71 18086.30 o 0.886076
11 3 3 5923.69 5949.92 o 0.885257
11 3 -3 5923.69 5949.92 o 0.885257
3 4 11 1101.50 1006.76 o 0.883795
3 4 -11 1101.49 1006.75 o 0.883795
4 10 -5 18405.14 16943.67 o 0.883695
4 10 5 18405.13 16943.66 o 0.883695
4 3 11 16.14 14.86 o 0.883653
4 3 -11 16.14 14.86 o 0.883653
3 6 -10 1922.60 1847.00 o 0.883508
3 6 10 1922.60 1847.01 o 0.883508
6 10 -2 10813.29 9447.89 o 0.883002
6 10 2 10813.32 9447.91 o 0.883002
6 3 10 1443.88 1287.07 o 0.882960
6 3 -10 1443.86 1287.06 o 0.882960
2 11 -4 269.74 240.86 o 0.882464
2 11 4 269.75 240.86 o 0.882464
5 9 6 29906.68 26804.33 o 0.882161
5 9 -6 29906.70 26804.35 o 0.882161
5 10 -4 4630.32 4182.63 o 0.882039
5 10 4 4630.30 4182.61 o 0.882039
10 4 -5 13847.60 12508.74 o 0.881991
10 4 5 13847.58 12508.72 o 0.881991
10 6 -2 10587.36 9981.67 o 0.881705
10 6 2 10587.33 9981.65 o 0.881705
0 2 -12 4147.33 4095.66 o 0.881442
0 2 12 4147.32 4095.66 o 0.881442
2 0 12 4804.17 4695.23 o 0.881361
2 0 -12 4804.18 4695.24 o 0.881361
9 5 6 22208.88 22056.57 o 0.881030
9 5 -6 22208.88 22056.56 o 0.881030
1 5 11 9837.91 9366.10 o 0.880812
1 5 -11 9837.91 9366.10 o 0.880812
4 8 -8 14920.39 14149.75 o 0.880632
4 8 8 14920.43 14149.79 o 0.880632
0 8 9 7886.69 7479.34 o 0.880588
0 8 -9 7886.66 7479.32 o 0.880588
10 5 4 1063.61 1020.83 o 0.880525
10 5 -4 1063.62 1020.84 o 0.880525
5 1 11 10902.20 10365.86 o 0.880328
5 1 -11 10902.19 10365.85 o 0.880328
4 11 2 4068.29 3901.47 o 0.880267
4 11 -2 4068.30 3901.48 o 0.880267
6 9 -5 1795.60 1690.65 o 0.880149
6 9 5 1795.60 1690.65 o 0.880149
11 2 4 2547.23 2382.48 o 0.880103
11 2 -4 2547.24 2382.48 o 0.880103
8 4 8 17074.94 16356.95 o 0.879667
8 4 -8 17074.92 16356.93 o 0.879667
8 0 -9 5928.19 5528.76 o 0.879303
8 0 9 5928.19 5528.77 o 0.879303
9 6 -5 5029.60 4645.31 o 0.879246
9 6 5 5029.61 4645.32 o 0.879246
1 2 12 241.81 121.03 < 0.878302
1 2 -12 241.81 121.03 < 0.878302
2 1 12 94.21 47.80 < 0.878242
2 1 -12 94.21 47.80 < 0.878242
11 4 2 631.59 269.22 < 0.878163
11 4 -2 631.59 269.22 < 0.878163
1 8 9 282.27 194.47 < 0.877458
1 8 -9 282.28 194.48 < 0.877458
4 7 9 2126.78 1406.43 < 0.877159
4 7 -9 2126.78 1406.43 < 0.877159
7 4 9 1178.33 477.34 < 0.876503
7 4 -9 1178.32 477.34 < 0.876503
8 1 9 1690.91 635.75 < 0.876206
8 1 -9 1690.91 635.75 < 0.876206
1 9 -8 3181.41 1450.91 < 0.874738
1 9 8 3181.41 1450.91 < 0.874738
3 10 6 887.45 684.58 < 0.873191
3 10 -6 887.45 684.58 < 0.873191
9 1 8 4287.75 3307.59 < 0.873164
9 1 -8 4287.74 3307.58 < 0.873164
4 9 7 1203.40 732.44 < 0.872066
4 9 -7 1203.41 732.44 < 0.872066
8 8 4 3982.14 2376.23 < 0.871996
8 8 -4 3982.14 2376.22 < 0.871996
2 5 11 1475.10 756.28 < 0.871512
2 5 -11 1475.11 756.28 < 0.871512
10 3 6 2133.75 1181.53 < 0.871411
10 3 -6 2133.73 1181.52 < 0.871411
5 2 -11 89.95 56.82 o 0.871102
5 2 11 89.95 56.82 o 0.871102
9 4 -7 589.61 345.71 < 0.870798
9 4 7 589.62 345.72 < 0.870798
0 12 0 15839.73 9621.60 < 0.870726
2 2 12 176.90 178.11 o 0.869081
2 2 -12 176.90 178.11 o 0.869081
6 10 -3 19235.79 19313.43 o 0.868424
6 10 3 19235.74 19313.38 o 0.868424
7 7 7 4682.92 4698.72 o 0.868407
7 7 -7 4682.91 4698.71 o 0.868407
1 7 10 14609.13 14570.39 o 0.868281
1 7 -10 14609.16 14570.42 o 0.868281
2 8 -9 2956.43 2939.47 o 0.868263
2 8 9 2956.44 2939.48 o 0.868263
12 0 0 19839.69 19276.71 o 0.867937
0 12 1 4842.03 4745.39 o 0.867874
0 12 -1 4842.03 4745.39 o 0.867874
5 5 10 7177.89 6993.45 o 0.867819
5 5 -10 7177.91 6993.47 o 0.867819
1 12 0 15217.46 15005.59 o 0.867699
7 1 10 16733.77 16376.96 o 0.867356
7 1 -10 16733.79 16376.98 o 0.867356
10 6 3 17992.56 17544.02 o 0.867191
10 6 -3 17992.63 17544.10 o 0.867191
8 2 -9 4129.38 4022.95 o 0.867107
8 2 9 4129.35 4022.92 o 0.867107
3 11 -4 32168.62 31424.74 o 0.867040
3 11 4 32168.66 31424.77 o 0.867040
8 9 0 317.51 288.17 o 0.866488
7 9 4 6515.41 5950.32 o 0.866273
7 9 -4 6515.42 5950.33 o 0.866273
9 8 0 915.31 873.68 o 0.866162
4 11 3 3602.53 3494.80 o 0.865823
4 11 -3 3602.53 3494.79 o 0.865823
9 7 4 5279.33 4950.00 o 0.865660
9 7 -4 5279.34 4950.01 o 0.865660
2 9 8 1682.54 1577.58 o 0.865627
2 9 -8 1682.54 1577.58 o 0.865627
1 11 5 17782.96 16427.07 o 0.865608
1 11 -5 17782.94 16427.05 o 0.865608
12 0 -1 2672.97 2538.59 o 0.865112
12 0 1 2672.96 2538.58 o 0.865112
6 7 8 1306.28 1182.41 o 0.865016
6 7 -8 1306.28 1182.41 o 0.865016
12 1 0 6902.86 6149.75 o 0.864958
11 3 4 19997.30 17954.22 o 0.864896
11 3 -4 19997.32 17954.23 o 0.864896
1 12 -1 38.25 34.35 o 0.864876
1 12 1 38.26 34.35 o 0.864876
7 6 8 3106.66 2893.28 o 0.864768
7 6 -8 3106.64 2893.25 o 0.864768
5 11 0 4746.70 4445.76 o 0.864265
9 2 8 246.25 215.85 o 0.864159
9 2 -8 246.25 215.84 o 0.864159
11 4 -3 3440.30 3644.85 o 0.863821
11 4 3 3440.29 3644.84 o 0.863821
8 9 -1 264.40 278.86 o 0.863677
8 9 1 264.39 278.86 o 0.863677
0 10 7 7337.97 7872.49 o 0.863398
0 10 -7 7337.98 7872.50 o 0.863398
9 8 -1 1827.81 1968.17 o 0.863354
9 8 1 1827.81 1968.17 o 0.863354
11 1 5 20323.88 21838.24 o 0.863322
11 1 -5 20323.84 21838.20 o 0.863322
1 3 12 5146.05 5564.60 o 0.863187
1 3 -12 5146.03 5564.58 o 0.863187
3 1 12 3790.03 4114.32 o 0.863035
3 1 -12 3790.02 4114.32 o 0.863035
6 8 7 21148.71 21857.05 o 0.862716
6 8 -7 21148.73 21857.07 o 0.862716
11 5 0 3284.04 3422.77 o 0.862444
4 4 11 20198.27 21033.93 o 0.862330
4 4 -11 20198.24 21033.90 o 0.862330
8 6 7 23736.72 24273.39 o 0.862186
8 6 -7 23736.66 24273.33 o 0.862186
12 1 1 4193.46 4306.64 o 0.862162
12 1 -1 4193.48 4306.66 o 0.862162
4 6 10 26600.33 27199.72 o 0.862063
4 6 -10 26600.36 27199.75 o 0.862063
6 4 -10 31370.51 31275.39 o 0.861686
6 4 10 31370.55 31275.42 o 0.861686
10 0 7 8801.09 8526.32 o 0.861507
10 0 -7 8801.09 8526.33 o 0.861507
5 11 1 22280.61 21611.69 o 0.861476
5 11 -1 22280.57 21611.66 o 0.861476
7 8 6 2214.85 2048.39 o 0.860492
7 8 -6 2214.85 2048.39 o 0.860492
1 10 -7 3782.67 3486.20 o 0.860447
1 10 7 3782.66 3486.19 o 0.860447
8 7 6 2393.04 2187.73 o 0.860211
8 7 -6 2393.05 2187.73 o 0.860211
11 5 1 17633.76 17135.16 o 0.859672
11 5 -1 17633.75 17135.15 o 0.859672
0 12 2 9532.78 9152.33 o 0.859482
0 12 -2 9532.80 9152.35 o 0.859482
2 7 10 395.89 380.35 o 0.859369
2 7 -10 395.89 380.35 o 0.859369
2 12 0 65482.42 60200.68 o 0.858804
10 1 -7 621.72 594.58 o 0.858593
10 1 7 621.73 594.58 o 0.858593
7 2 10 723.12 693.19 o 0.858528
7 2 -10 723.11 693.18 o 0.858528
12 0 -2 13282.59 13269.83 o 0.856799
12 0 2 13282.57 13269.82 o 0.856799
2 11 5 2570.04 2565.02 o 0.856777
2 11 -5 2570.05 2565.03 o 0.856777
3 5 11 58364.52 57703.94 o 0.856646
3 5 -11 58364.54 57703.95 o 0.856646
1 12 -2 678.68 676.47 o 0.856571
1 12 2 678.68 676.47 o 0.856571
5 10 5 904.22 893.19 o 0.856387
5 10 -5 904.22 893.19 o 0.856387
5 3 -11 58992.54 58149.23 o 0.856349
5 3 11 58992.45 58149.14 o 0.856349
12 2 0 68764.85 67186.97 o 0.856201
2 12 1 9296.44 8966.13 o 0.856067
2 12 -1 9296.46 8966.16 o 0.856067
6 6 -9 653.88 631.06 o 0.855922
6 6 9 653.89 631.06 o 0.855922
8 9 2 2698.62 2379.79 o 0.855406
8 9 -2 2698.62 2379.79 o 0.855406
9 8 2 3157.13 2924.99 o 0.855092
9 8 -2 3157.14 2925.00 o 0.855092
7 10 0 1212.24 1166.11 o 0.855087
10 5 -5 991.70 998.84 o 0.855002
10 5 5 991.68 998.81 o 0.855002
11 2 5 114.10 111.72 o 0.854615
11 2 -5 114.10 111.72 o 0.854615
2 3 12 122.46 151.57 o 0.854428
2 3 -12 122.46 151.57 o 0.854428
3 2 12 160.01 193.02 o 0.854337
3 2 -12 160.01 193.01 o 0.854337
10 7 0 4645.53 5890.02 o 0.854149
12 1 2 848.47 976.85 o 0.853933
12 1 -2 848.45 976.84 o 0.853933
5 8 8 466.67 554.49 o 0.853599
5 8 -8 466.67 554.49 o 0.853599
3 8 -9 1061.76 1271.51 o 0.853559
3 8 9 1061.74 1271.49 o 0.853559
12 2 1 5480.74 6225.02 o 0.853489
12 2 -1 5480.71 6224.99 o 0.853489
5 11 -2 2.43 2.64 o 0.853267
5 11 2 2.43 2.64 o 0.853267
8 5 8 554.09 493.51 o 0.852885
8 5 -8 554.10 493.52 o 0.852885
8 3 9 236.79 218.27 o 0.852553
8 3 -9 236.80 218.28 o 0.852553
4 10 6 8810.23 8051.42 o 0.852472
4 10 -6 8810.21 8051.40 o 0.852472
7 10 1 913.01 832.27 o 0.852385
7 10 -1 913.02 832.28 o 0.852385
2 10 7 14736.59 15592.94 o 0.851771
2 10 -7 14736.56 15592.90 o 0.851771
11 5 -2 995.80 1005.64 o 0.851514
11 5 2 995.80 1005.64 o 0.851514
10 7 -1 1604.63 1622.63 o 0.851456
10 7 1 1604.63 1622.62 o 0.851456
0 6 -11 15826.78 15980.10 o 0.851108
0 6 11 15826.77 15980.09 o 0.851108
3 9 -8 15694.01 16159.14 o 0.851055
3 9 8 15694.00 16159.13 o 0.851055
10 4 6 7386.03 7631.80 o 0.850942
10 4 -6 7386.01 7631.77 o 0.850942
6 0 -11 17577.20 17440.37 o 0.850455
6 0 11 17577.19 17440.36 o 0.850455
5 7 9 6287.44 6275.11 o 0.850435
5 7 -9 6287.42 6275.08 o 0.850435
10 2 7 16110.46 15264.67 o 0.850027
10 2 -7 16110.44 15264.65 o 0.850027
7 5 9 5425.00 5104.81 o 0.850000
7 5 -9 5425.01 5104.82 o 0.850000
9 3 8 19973.97 18138.10 o 0.849750
9 3 -8 19973.97 18138.10 o 0.849750
6 9 6 1282.62 1103.26 o 0.849287
6 9 -6 1282.61 1103.26 o 0.849287
6 10 -4 19764.12 16830.67 o 0.849178
6 10 4 19764.12 16830.66 o 0.849178
9 6 6 2580.55 2801.94 o 0.848476
9 6 -6 2580.55 2801.94 o 0.848476
1 6 -11 229.66 238.20 o 0.848281
1 6 11 229.67 238.20 o 0.848281
10 6 4 20735.56 21209.97 o 0.848025
10 6 -4 20735.55 21209.96 o 0.848025
2 12 2 4344.63 4426.49 o 0.848010
2 12 -2 4344.65 4426.50 o 0.848010
6 1 -11 593.18 583.32 o 0.847652
6 1 11 593.18 583.32 o 0.847652
8 8 5 13445.07 11930.24 o 0.847186
8 8 -5 13445.06 11930.23 o 0.847186
4 11 -4 423.98 401.40 o 0.846745
4 11 4 423.97 401.40 o 0.846745
0 4 12 13488.86 13741.07 o 0.846057
0 4 -12 13488.86 13741.07 o 0.846057
0 12 3 25671.77 26296.44 o 0.846022
0 12 -3 25671.82 26296.48 o 0.846022
5 9 7 5280.36 5522.38 o 0.845791
5 9 -7 5280.38 5522.40 o 0.845791
4 0 -12 12155.26 12647.14 o 0.845771
4 0 12 12155.26 12647.13 o 0.845771
12 2 -2 2721.13 2845.97 o 0.845504
12 2 2 2721.13 2845.96 o 0.845504
3 7 -10 3687.43 3588.93 o 0.845105
3 7 10 3687.44 3588.94 o 0.845105
11 4 -4 7442.01 6750.30 o 0.844872
11 4 4 7441.98 6750.27 o 0.844872
9 5 7 4125.54 3679.56 o 0.844794
9 5 -7 4125.55 3679.56 o 0.844794
3 12 0 5634.77 4928.95 o 0.844568
7 10 2 736.23 612.53 o 0.844431
7 10 -2 736.21 612.51 o 0.844431
7 3 -10 4030.70 3252.47 o 0.844394
7 3 10 4030.68 3252.45 o 0.844394
10 7 2 56.65 51.67 o 0.843527
10 7 -2 56.64 51.66 o 0.843527
12 0 -3 31498.21 28608.74 o 0.843463
12 0 3 31498.19 28608.72 o 0.843463
1 4 12 417.15 373.64 o 0.843279
1 4 -12 417.15 373.64 o 0.843279
1 12 3 10787.04 9707.41 o 0.843244
1 12 -3 10787.00 9707.38 o 0.843244
4 1 -12 547.55 514.44 o 0.843014
4 1 12 547.55 514.44 o 0.843014
3 11 5 5299.04 5285.42 o 0.842640
3 11 -5 5299.03 5285.42 o 0.842640
12 3 0 2722.29 3028.90 o 0.842181
8 9 3 4088.08 4541.98 o 0.842133
8 9 -3 4088.08 4541.97 o 0.842133
3 12 -1 303.52 329.65 o 0.841965
3 12 1 303.53 329.65 o 0.841965
7 9 -5 6898.23 7561.11 o 0.841935
7 9 5 6898.24 7561.13 o 0.841935
9 8 -3 1192.51 1275.43 o 0.841834
9 8 3 1192.50 1275.43 o 0.841834
9 7 5 11927.13 13618.73 o 0.841373
9 7 -5 11927.13 13618.73 o 0.841373
12 1 -3 4278.63 4081.44 o 0.840728
12 1 3 4278.65 4081.45 o 0.840728
11 3 5 4640.67 4523.80 o 0.840671
11 3 -5 4640.68 4523.81 o 0.840671
3 3 12 1044.40 1007.88 o 0.840406
3 3 -12 1044.40 1007.88 o 0.840406
5 11 3 40917.90 40246.30 o 0.840092
5 11 -3 40917.88 40246.28 o 0.840092
2 6 11 4733.72 4678.82 o 0.839964
2 6 -11 4733.70 4678.80 o 0.839964
12 3 1 1964.41 1943.13 o 0.839599
12 3 -1 1964.38 1943.10 o 0.839599
6 2 -11 3298.31 3154.65 o 0.839406
6 2 11 3298.30 3154.64 o 0.839406
11 5 -3 42543.97 42520.04 o 0.838419
11 5 3 42544.04 42520.11 o 0.838419
3 10 -7 2451.90 2480.35 o 0.837876
3 10 7 2451.89 2480.34 o 0.837876
4 5 11 1942.60 1569.60 o 0.837056
4 5 -11 1942.61 1569.61 o 0.837056
5 4 11 206.95 186.07 o 0.836900
5 4 -11 206.95 186.06 o 0.836900
5 6 -10 839.18 796.99 o 0.836656
5 6 10 839.15 796.96 o 0.836656
6 5 -10 342.72 346.10 o 0.836466
6 5 10 342.72 346.10 o 0.836466
10 3 -7 1585.86 1640.41 o 0.836302
10 3 7 1585.87 1640.43 o 0.836302
1 11 6 8310.67 8649.72 o 0.836201
1 11 -6 8310.67 8649.72 o 0.836201
2 4 -12 9690.02 10054.84 o 0.835107
2 4 12 9690.04 10054.87 o 0.835107
2 12 3 31169.13 32349.54 o 0.835073
2 12 -3 31169.16 32349.58 o 0.835073
4 2 12 9611.18 9972.61 o 0.834901
4 2 -12 9611.17 9972.60 o 0.834901
3 12 2 1526.93 1622.79 o 0.834296
3 12 -2 1526.92 1622.78 o 0.834296
4 8 -9 18750.36 20564.96 o 0.834176
4 8 9 18750.38 20564.98 o 0.834176
11 1 6 9571.60 10399.48 o 0.834140
11 1 -6 9571.62 10399.50 o 0.834140
8 4 -9 18646.16 19629.36 o 0.833355
8 4 9 18646.14 19629.34 o 0.833355
6 11 0 2917.96 2994.62 o 0.833283
12 2 -3 35560.05 37204.46 o 0.832680
12 2 3 35560.04 37204.45 o 0.832680
12 3 -2 746.03 710.29 o 0.831994
12 3 2 746.02 710.27 o 0.831994
4 9 8 3624.97 3177.84 o 0.831838
4 9 -8 3624.96 3177.83 o 0.831838
11 6 0 5233.25 4712.78 o 0.831837
7 10 3 3381.46 3048.14 o 0.831655
7 10 -3 3381.47 3048.14 o 0.831655
10 7 3 1907.92 1393.33 o 0.830791
10 7 -3 1907.93 1393.34 o 0.830791
6 11 -1 3485.29 2545.26 o 0.830782
6 11 1 3485.31 2545.27 o 0.830782
9 4 8 1228.04 886.36 o 0.830737
9 4 -8 1228.04 886.36 o 0.830737
11 6 1 4171.71 4379.94 o 0.829349
11 6 -1 4171.72 4379.96 o 0.829349
1 9 9 5386.74 5940.65 o 0.829161
1 9 -9 5386.75 5940.66 o 0.829161
0 8 -10 16344.53 18025.20 o 0.829144
0 8 10 16344.50 18025.17 o 0.829144
7 7 8 17907.27 19255.25 o 0.828660
7 7 -8 17907.34 19255.33 o 0.828660
2 11 6 885.46 962.96 o 0.828231
2 11 -6 885.45 962.94 o 0.828231
0 12 -4 24476.24 26248.50 o 0.828197
0 12 4 24476.23 26248.49 o 0.828197
8 0 -10 13509.87 14306.90 o 0.828070
8 0 10 13509.81 14306.84 o 0.828070
5 10 -6 61.81 68.75 o 0.827880
5 10 6 61.82 68.75 o 0.827880
9 1 9 5846.48 6510.08 o 0.827820
9 1 -9 5846.48 6510.09 o 0.827820
7 8 7 1678.71 1868.48 o 0.826637
7 8 -7 1678.71 1868.48 o 0.826637
3 6 -11 46.18 50.47 o 0.826631
3 6 11 46.18 50.47 o 0.826631
10 5 -6 1531.45 1673.93 o 0.826628
10 5 6 1531.45 1673.94 o 0.826628
1 8 10 110.94 113.79 o 0.826529
1 8 -10 110.95 113.79 o 0.826529
8 7 -7 2039.87 2078.94 o 0.826387
8 7 7 2039.86 2078.93 o 0.826387
4 7 10 3322.34 3354.71 o 0.826279
4 7 -10 3322.34 3354.70 o 0.826279
11 2 6 370.70 374.77 o 0.826278
11 2 -6 370.70 374.77 o 0.826278
6 10 -5 3544.80 3332.97 o 0.826216
6 10 5 3544.82 3332.99 o 0.826216
6 3 11 65.00 59.43 o 0.826181
6 3 -11 65.00 59.44 o 0.826181
12 0 4 14702.69 13420.70 o 0.825796
12 0 -4 14702.71 13420.72 o 0.825796
4 12 0 229.26 209.27 o 0.825777
7 4 -10 1709.49 1521.46 o 0.825731
7 4 10 1709.47 1521.44 o 0.825731
1 12 -4 1521.14 1338.66 o 0.825591
1 12 4 1521.13 1338.65 o 0.825591
8 1 -10 1042.19 937.62 o 0.825482
8 1 10 1042.19 937.61 o 0.825482
0 0 -13 29333.63 26390.33 o 0.825472
0 0 13 29333.63 26390.34 o 0.825472
10 6 5 4996.39 4668.01 o 0.825154
10 6 -5 4996.39 4668.00 o 0.825154
8 9 4 1259.67 1208.72 o 0.824548
8 9 -4 1259.68 1208.72 o 0.824548
0 10 8 24709.02 24993.79 o 0.824305
0 10 -8 24708.99 24993.77 o 0.824305
9 8 -4 144.68 146.53 o 0.824267
9 8 4 144.68 146.53 o 0.824267
4 11 5 4912.33 4571.24 o 0.823974
4 11 -5 4912.33 4571.25 o 0.823974
6 8 -8 25852.10 24838.45 o 0.823711
6 8 8 25852.10 24838.44 o 0.823711
12 4 0 0.02 0.02 o 0.823660
6 11 -2 3313.23 3225.22 o 0.823412
6 11 2 3313.22 3225.20 o 0.823412
4 12 -1 9774.77 9487.35 o 0.823343
4 12 1 9774.75 9487.33 o 0.823343
8 6 8 25875.37 24874.03 o 0.823250
8 6 -8 25875.47 24874.13 o 0.823250
12 1 -4 11518.12 11051.77 o 0.823229
12 1 4 11518.07 11051.72 o 0.823229
10 0 -8 26834.12 24871.23 o 0.822658
10 0 8 26834.10 24871.20 o 0.822658
5 11 -4 2535.68 2350.20 o 0.822632
5 11 4 2535.66 2350.18 o 0.822632
11 4 5 3246.87 3056.98 o 0.822248
11 4 -5 3246.86 3056.97 o 0.822248
11 6 -2 3177.47 2809.28 o 0.822017
11 6 2 3177.49 2809.30 o 0.822017
3 4 -12 601.65 531.93 o 0.822000
3 4 12 601.65 531.93 o 0.822000
3 12 3 5652.84 5493.87 o 0.821968
3 12 -3 5652.83 5493.86 o 0.821968
4 3 12 472.89 462.57 o 0.821885
4 3 -12 472.89 462.57 o 0.821885
1 10 -8 3300.13 3335.34 o 0.821735
1 10 8 3300.14 3335.35 o 0.821735
2 9 9 133.08 130.99 o 0.821389
2 9 -9 133.08 130.99 o 0.821389
12 4 -1 8446.40 8037.33 o 0.821245
12 4 1 8446.38 8037.32 o 0.821245
11 5 -4 6592.65 6199.84 o 0.821060
11 5 4 6592.63 6199.82 o 0.821060
6 7 -9 7.65 6.82 o 0.820867
6 7 9 7.65 6.82 o 0.820867
7 6 9 964.27 828.42 o 0.820655
7 6 -9 964.26 828.41 o 0.820655
1 1 -13 6539.13 5504.26 o 0.820352
1 1 13 6539.11 5504.25 o 0.820352
9 2 -9 1391.14 1287.71 o 0.820134
9 2 9 1391.14 1287.71 o 0.820134
10 1 8 347.20 321.39 o 0.820120
10 1 -8 347.20 321.39 o 0.820120
12 3 -3 821.81 830.49 o 0.819766
12 3 3 821.81 830.48 o 0.819766
9 9 0 612.16 617.74 o 0.819610
1 5 12 1378.56 1388.22 o 0.819598
1 5 -12 1378.55 1388.21 o 0.819598
8 8 6 37856.04 38082.80 o 0.819558
8 8 -6 37856.04 38082.80 o 0.819558
4 10 7 14889.05 14978.24 o 0.819519
4 10 -7 14889.05 14978.24 o 0.819519
5 1 -12 1482.21 1517.94 o 0.819208
5 1 12 1482.20 1517.94 o 0.819208
2 8 10 17340.54 17110.59 o 0.818830
2 8 -10 17340.56 17110.61 o 0.818830
10 4 -7 14789.62 14293.56 o 0.818159
10 4 7 14789.62 14293.56 o 0.818159
2 12 4 2616.22 2557.69 o 0.817918
2 12 -4 2616.24 2557.71 o 0.817918
8 2 10 20312.33 20112.91 o 0.817861
8 2 -10 20312.28 20112.87 o 0.817861
9 9 1 17673.51 18170.36 o 0.817230
9 9 -1 17673.52 18170.37 o 0.817230
6 9 -7 78.40 79.85 o 0.816688
6 9 7 78.40 79.85 o 0.816688
4 12 2 11489.20 11553.50 o 0.816168
4 12 -2 11489.18 11553.47 o 0.816168
9 6 7 1757.60 1778.13 o 0.815967
9 6 -7 1757.60 1778.12 o 0.815967
12 2 4 824.94 846.06 o 0.815669
12 2 -4 824.92 846.03 o 0.815669
3 11 6 16417.12 16996.97 o 0.815440
3 11 -6 16417.14 16997.00 o 0.815440
0 2 -13 44060.36 45690.65 o 0.815357
0 2 13 44060.34 45690.63 o 0.815357
2 0 13 48194.56 49990.84 o 0.815293
2 0 -13 48194.59 49990.87 o 0.815293
8 10 0 1254.13 1298.52 o 0.814884
7 9 6 2822.59 2933.61 o 0.814801
7 9 -6 2822.59 2933.61 o 0.814801
7 10 -4 979.00 1008.55 o 0.814705
7 10 4 978.99 1008.54 o 0.814705
10 8 0 1440.00 1493.60 o 0.814311
9 7 6 8622.79 8920.26 o 0.814292
9 7 -6 8622.76 8920.23 o 0.814292
2 10 -8 30864.32 31573.28 o 0.814168
2 10 8 30864.31 31573.26 o 0.814168
12 4 2 11695.21 12039.90 o 0.814124
12 4 -2 11695.19 12039.88 o 0.814124
1 7 11 18153.91 18593.75 o 0.814119
1 7 -11 18153.89 18593.74 o 0.814119
10 7 4 8421.15 8673.24 o 0.813893
10 7 -4 8421.16 8673.25 o 0.813893
5 5 11 4868.22 5033.73 o 0.813738
5 5 -11 4868.20 5033.71 o 0.813738
11 3 -6 16867.08 17278.65 o 0.813656
11 3 6 16867.08 17278.65 o 0.813656
7 1 -11 17316.25 18188.32 o 0.813357
7 1 11 17316.29 18188.37 o 0.813357
1 2 13 688.01 772.20 o 0.812870
1 2 -13 688.01 772.20 o 0.812870
2 1 13 357.05 397.24 o 0.812823
2 1 -13 357.05 397.25 o 0.812823
10 2 8 30753.85 33983.55 o 0.812645
10 2 -8 30753.90 33983.61 o 0.812645
8 10 1 15732.84 17335.45 o 0.812545
8 10 -1 15732.85 17335.45 o 0.812545
2 5 12 78.90 87.57 o 0.812089
2 5 -12 78.89 87.56 o 0.812089
10 8 -1 13686.26 14762.29 o 0.811976
10 8 1 13686.29 14762.32 o 0.811976
5 2 12 688.42 791.08 o 0.811758
5 2 -12 688.42 791.08 o 0.811758
6 11 -3 4017.21 4697.61 o 0.811554
6 11 3 4017.24 4697.64 o 0.811554
5 8 9 1415.08 1563.06 o 0.811091
5 8 -9 1415.08 1563.06 o 0.811091
8 5 -9 1483.58 1689.27 o 0.810478
8 5 9 1483.57 1689.26 o 0.810478
11 6 -3 1090.11 1230.90 o 0.810217
11 6 3 1090.13 1230.92 o 0.810217
9 9 -2 7609.81 8785.83 o 0.810212
9 9 2 7609.77 8785.78 o 0.810212
4 6 -11 3286.04 3465.87 o 0.808987
4 6 11 3286.04 3465.86 o 0.808987
5 9 -8 19203.50 20332.62 o 0.808942
5 9 8 19203.50 20332.63 o 0.808942
3 9 -9 9842.23 10487.69 o 0.808908
3 9 9 9842.20 10487.65 o 0.808908
6 4 11 3744.43 3952.99 o 0.808675
6 4 -11 3744.44 3953.00 o 0.808675
6 6 -10 727.87 735.92 o 0.808455
6 6 10 727.87 735.92 o 0.808455
9 5 -8 24044.74 25036.58 o 0.808069
9 5 8 24044.76 25036.60 o 0.808069
9 3 9 5899.59 6123.88 o 0.807787
9 3 -9 5899.58 6123.88 o 0.807787
0 12 5 38694.71 37274.16 o 0.806853
0 12 -5 38694.76 37274.20 o 0.806853
2 7 11 497.51 484.69 o 0.806759
2 7 -11 497.51 484.69 o 0.806759
3 8 -10 13.19 12.75 o 0.806463
3 8 10 13.19 12.75 o 0.806463
7 2 11 620.18 603.24 o 0.806063
7 2 -11 620.18 603.24 o 0.806063
8 10 -2 3667.51 3541.69 o 0.805646
8 10 2 3667.53 3541.70 o 0.805646
8 3 10 1631.71 1592.59 o 0.805614
8 3 -10 1631.71 1592.59 o 0.805614
3 12 4 342.56 337.29 o 0.805592
3 12 -4 342.56 337.30 o 0.805592
2 2 -13 61088.56 60493.80 o 0.805543
2 2 13 61088.59 60493.84 o 0.805543
10 8 -2 4528.51 4498.96 o 0.805092
10 8 2 4528.53 4498.98 o 0.805092
1 11 -7 13441.39 13376.98 o 0.805031
1 11 7 13441.39 13376.98 o 0.805031
4 4 12 2048.88 2033.70 o 0.804645
4 4 -12 2048.88 2033.69 o 0.804645
12 0 5 47078.68 46729.75 o 0.804632
12 0 -5 47078.69 46729.77 o 0.804632
4 12 3 1844.45 1817.08 o 0.804615
4 12 -3 1844.45 1817.08 o 0.804615
1 12 5 5967.33 5855.06 o 0.804443
1 12 -5 5967.34 5855.07 o 0.804443
5 7 10 31854.12 31697.67 o 0.803827
5 7 -10 31854.15 31697.69 o 0.803827
12 3 -4 5816.05 5559.48 o 0.803519
12 3 4 5816.09 5559.52 o 0.803519
8 9 -5 6491.13 6180.29 o 0.803478
8 9 5 6491.15 6180.31 o 0.803478
7 5 -10 35544.15 33797.28 o 0.803459
7 5 10 35544.18 33797.31 o 0.803459
5 12 0 3050.11 2887.88 o 0.803365
9 8 -5 3902.45 3586.88 o 0.803218
9 8 5 3902.43 3586.86 o 0.803218
11 1 7 13505.64 12431.43 o 0.803192
11 1 -7 13505.66 12431.46 o 0.803192
12 4 -3 1941.74 1759.38 o 0.802656
12 4 3 1941.75 1759.39 o 0.802656
12 1 5 1170.26 1123.77 o 0.802257
12 1 -5 1170.26 1123.77 o 0.802257
3 10 -8 125.32 119.98 o 0.802008
3 10 8 125.32 119.98 o 0.802008
5 11 -5 37847.76 36269.34 o 0.801704
5 11 5 37847.80 36269.38 o 0.801704
12 5 0 79.91 75.88 o 0.801552
1 13 0 25367.57 24788.31 o 0.801364
5 12 -1 3163.14 3191.05 o 0.801123
5 12 1 3163.13 3191.05 o 0.801123
1 3 13 28728.07 27784.74 o 0.800843
1 3 -13 28728.09 27784.76 o 0.800843
3 1 13 26048.21 25669.54 o 0.800722
3 1 -13 26048.22 25669.56 o 0.800722
7 11 0 32032.53 31453.47 o 0.800637
10 3 8 599.65 591.76 o 0.800628
10 3 -8 599.66 591.77 o 0.800628
6 10 6 3387.35 3359.47 o 0.800528
6 10 -6 3387.37 3359.49 o 0.800528
11 5 -5 44442.41 43629.34 o 0.800250
11 5 5 44442.40 43629.33 o 0.800250
3 5 -12 4287.51 4165.50 o 0.800021
3 5 12 4287.52 4165.51 o 0.800021
5 3 12 5212.19 5289.36 o 0.799779
5 3 -12 5212.15 5289.32 o 0.799779
10 6 6 3983.46 3951.46 o 0.799562
10 6 -6 3983.44 3951.44 o 0.799562
11 7 0 34294.21 33919.92 o 0.799550
12 5 1 2973.12 2871.24 o 0.799325
12 5 -1 2973.11 2871.23 o 0.799325
1 13 -1 3217.35 3265.53 o 0.799139
1 13 1 3217.36 3265.54 o 0.799139
9 9 3 1659.50 1716.30 o 0.798907
9 9 -3 1659.53 1716.32 o 0.798907
13 1 0 29526.10 30501.96 o 0.798827
4 11 -6 2449.60 2422.54 o 0.798489
4 11 6 2449.61 2422.54 o 0.798489
7 11 1 8131.17 8108.28 o 0.798418
7 11 -1 8131.18 8108.30 o 0.798418
2 11 7 1064.84 987.65 o 0.797913
2 11 -7 1064.85 987.65 o 0.797913
5 10 7 2272.64 2256.58 o 0.797598
5 10 -7 2272.64 2256.58 o 0.797598
2 12 5 1841.94 1807.40 o 0.797339
11 7 -1 15285.20 14998.58 o 0.797340
2 12 -5 1841.92 1807.38 o 0.797339
11 7 1 15285.17 14998.54 o 0.797340
11 4 6 1391.95 1364.05 o 0.796918
11 4 -6 1391.95 1364.05 o 0.796918
13 1 -1 4233.14 3970.00 o 0.796623
13 1 1 4233.16 3970.02 o 0.796623
10 5 7 1279.60 1204.60 o 0.796479
10 5 -7 1279.61 1204.61 o 0.796479
11 2 -7 972.24 942.85 o 0.796166
11 2 7 972.23 942.84 o 0.796166
6 11 4 1786.35 2196.09 o 0.795780
6 11 -4 1786.34 2196.09 o 0.795780
0 6 -12 1484.62 1852.53 o 0.795505
0 6 12 1484.62 1852.53 o 0.795505
12 2 -5 3157.16 3318.22 o 0.795255
12 2 5 3157.17 3318.22 o 0.795255
6 0 -12 1392.96 1462.38 o 0.794971
6 0 12 1392.96 1462.38 o 0.794971
3 7 11 2552.76 2675.02 o 0.794923
3 7 -11 2552.76 2675.02 o 0.794923
8 10 3 39121.50 39656.07 o 0.794528
8 10 -3 39121.61 39656.18 o 0.794528
11 6 -4 3307.05 3352.24 o 0.794520
11 6 4 3307.04 3352.23 o 0.794520
5 12 -2 1486.12 1512.10 o 0.794508
5 12 2 1486.10 1512.08 o 0.794508
7 10 -5 4684.89 4804.74 o 0.794362
7 10 5 4684.91 4804.77 o 0.794362
2 13 0 3200.97 3278.66 o 0.794342
7 3 11 1988.07 2039.27 o 0.794332
7 3 -11 1988.05 2039.26 o 0.794332
10 8 3 38069.00 38357.64 o 0.793996
10 8 -3 38068.96 38357.60 o 0.793996
2 3 13 410.42 414.06 o 0.793834
2 3 -13 410.42 414.06 o 0.793834
3 2 13 237.40 238.69 o 0.793760
3 2 -13 237.40 238.68 o 0.793760
10 7 5 979.93 958.33 o 0.793609
10 7 -5 979.93 958.33 o 0.793609
1 6 -12 540.94 492.08 o 0.793195
1 6 12 540.94 492.09 o 0.793195
12 5 2 5977.82 6037.80 o 0.792755
12 5 -2 5977.82 6037.80 o 0.792755
6 1 12 684.16 704.48 o 0.792680
6 1 -12 684.16 704.48 o 0.792680
1 13 2 15159.91 15727.59 o 0.792573
1 13 -2 15159.89 15727.57 o 0.792573
4 9 9 455.61 513.92 o 0.792353
4 9 -9 455.61 513.92 o 0.792353
2 13 1 260.73 285.05 o 0.792174
2 13 -1 260.73 285.05 o 0.792174
7 8 8 226.93 241.57 o 0.792135
7 8 -8 226.93 241.56 o 0.792135
8 7 8 558.92 611.13 o 0.791915
8 7 -8 558.92 611.13 o 0.791915
13 2 0 328.69 358.27 o 0.791915
7 11 -2 15403.18 17216.14 o 0.791870
7 11 2 15403.20 17216.16 o 0.791870
9 4 -9 3546.17 3441.08 o 0.791401
9 4 9 3546.17 3441.08 o 0.791401
11 7 2 25912.24 25039.20 o 0.790818
11 7 -2 25912.30 25039.27 o 0.790818
8 8 -7 1616.83 1629.49 o 0.790149
8 8 7 1616.82 1629.49 o 0.790149
13 1 2 14118.12 13927.27 o 0.790119
13 1 -2 14118.10 13927.25 o 0.790119
4 8 10 18066.73 17750.08 o 0.790055
4 8 -10 18066.77 17750.11 o 0.790055
13 2 -1 1409.92 1317.24 o 0.789767
13 2 1 1409.91 1317.24 o 0.789767
7 7 9 1865.50 1734.89 o 0.789605
7 7 -9 1865.49 1734.89 o 0.789605
8 4 10 16991.74 14090.72 o 0.789358
8 4 -10 16991.70 14090.69 o 0.789358
4 12 -4 9491.19 7851.90 o 0.789235
4 12 4 9491.19 7851.90 o 0.789235
5 6 -11 533.69 353.09 o 0.787880
5 6 11 533.70 353.10 o 0.787880
6 5 11 2559.17 1934.75 o 0.787721
6 5 -11 2559.19 1934.77 o 0.787721
12 4 -4 6227.91 5148.65 o 0.787387
12 4 4 6227.94 5148.67 o 0.787387
0 4 13 9560.29 7937.22 o 0.787106
0 4 -13 9560.29 7937.22 o 0.787106
4 0 13 11332.21 9659.72 o 0.786876
4 0 -13 11332.21 9659.72 o 0.786876
3 11 7 6722.53 5940.49 o 0.786457
3 11 -7 6722.55 5940.51 o 0.786457
2 6 12 8289.12 7710.72 o 0.786383
2 6 -12 8289.11 7710.71 o 0.786383
6 2 12 7610.63 6811.92 o 0.785925
6 2 -12 7610.65 6811.94 o 0.785925
3 12 5 4320.77 3829.92 o 0.785908
3 12 -5 4320.78 3829.93 o 0.785908
7 9 -7 13602.73 12043.82 o 0.785884
7 9 7 13602.74 12043.83 o 0.785884
4 10 8 8906.48 7885.77 o 0.785865
4 10 -8 8906.48 7885.78 o 0.785865
0 10 -9 26254.86 23460.61 o 0.785834
0 10 9 26254.88 23460.63 o 0.785834
1 9 -10 1432.61 1280.69 o 0.785791
1 9 10 1432.61 1280.69 o 0.785791
2 13 -2 976.47 877.41 o 0.785777
2 13 2 976.47 877.41 o 0.785777
9 7 -7 12253.01 10588.80 o 0.785426
9 7 7 12253.01 10588.80 o 0.785426
6 8 9 5710.75 4666.00 o 0.785319
6 8 -9 5710.74 4665.99 o 0.785319
8 6 9 7719.18 6862.94 o 0.784920
8 6 -9 7719.18 6862.94 o 0.784920
1 4 13 375.20 314.56 o 0.784868
1 4 -13 375.20 314.56 o 0.784868
11 3 7 2345.09 1966.05 o 0.784855
11 3 -7 2345.10 1966.06 o 0.784855
10 4 8 7432.40 6062.18 o 0.784666
10 4 -8 7432.39 6062.18 o 0.784666
4 1 -13 74.81 61.02 o 0.784655
4 1 13 74.81 61.02 o 0.784655
9 1 10 1651.95 1347.40 o 0.784649
9 1 -10 1651.95 1347.40 o 0.784649
10 0 9 21958.69 17054.25 o 0.784407
10 0 -9 21958.63 17054.21 o 0.784407
4 5 12 351.79 250.78 o 0.783995
4 5 -12 351.79 250.78 o 0.783995
12 3 -5 1035.67 755.82 o 0.783983
12 3 5 1035.67 755.82 o 0.783983
5 4 -12 386.70 285.05 o 0.783867
5 4 12 386.70 285.05 o 0.783867
9 9 4 3592.51 2589.11 o 0.783846
9 9 -4 3592.50 2589.10 o 0.783846
5 12 3 2747.35 2014.28 o 0.783839
5 12 -3 2747.32 2014.25 o 0.783839
1 10 -9 1986.09 1517.48 o 0.783607
1 10 9 1986.10 1517.49 o 0.783607
13 2 2 1268.96 1049.65 o 0.783428
13 2 -2 1268.97 1049.65 o 0.783428
6 9 8 7202.95 6071.73 o 0.783368
6 9 -8 7202.90 6071.70 o 0.783368
3 13 0 101.16 92.94 o 0.783036
0 12 6 14729.24 13634.77 o 0.782878
0 12 -6 14729.21 13634.75 o 0.782878
9 6 -8 1421.56 1273.10 o 0.782731
9 6 8 1421.53 1273.07 o 0.782731
3 3 -13 24279.87 21556.46 o 0.782550
3 3 13 24279.93 21556.50 o 0.782550
10 1 -9 6040.35 5442.05 o 0.782206
10 1 9 6040.34 5442.05 o 0.782206
12 5 3 240.94 214.59 o 0.782155
12 5 -3 240.94 214.59 o 0.782155
1 13 -3 4505.22 3787.37 o 0.781981
1 13 3 4505.24 3787.38 o 0.781981
0 8 -11 9646.90 8768.96 o 0.781596
0 8 11 9646.87 8768.93 o 0.781596
7 11 3 4475.54 4289.20 o 0.781305
7 11 -3 4475.51 4289.17 o 0.781305
3 13 1 17819.99 17060.99 o 0.780960
3 13 -1 17820.01 17061.01 o 0.780960
12 0 -6 18216.18 17322.67 o 0.780849
12 0 6 18216.15 17322.63 o 0.780849
13 3 0 17.50 16.89 o 0.780782
8 0 -11 9510.92 9103.65 o 0.780697
8 0 11 9510.93 9103.66 o 0.780697
1 12 6 4377.21 4208.80 o 0.780676
1 12 -6 4377.22 4208.81 o 0.780676
11 7 -3 4963.89 5086.24 o 0.780295
11 7 3 4963.92 5086.27 o 0.780295
8 9 6 5777.88 6133.53 o 0.779794
8 9 -6 5777.90 6133.55 o 0.779794
8 10 -4 10452.44 11203.57 o 0.779709
8 10 4 10452.42 11203.55 o 0.779709
13 1 3 6666.09 7127.39 o 0.779623
13 1 -3 6666.05 7127.34 o 0.779623
9 8 -6 2551.31 2701.63 o 0.779556
9 8 6 2551.31 2701.63 o 0.779556
1 8 11 5831.37 5970.97 o 0.779405
1 8 -11 5831.36 5970.96 o 0.779405
10 8 -4 5387.01 5315.35 o 0.779207
10 8 4 5387.02 5315.36 o 0.779207
4 7 11 1167.01 1151.49 o 0.779196
4 7 -11 1167.02 1151.50 o 0.779196
2 9 10 553.03 536.84 o 0.779166
2 9 -10 553.02 536.84 o 0.779166
7 4 11 849.83 826.04 o 0.778736
7 4 -11 849.82 826.04 o 0.778736
13 3 1 12463.90 12318.50 o 0.778723
13 3 -1 12463.91 12318.51 o 0.778723
6 7 10 2559.40 2544.33 o 0.778720
6 7 -10 2559.41 2544.34 o 0.778720
12 1 6 198.36 194.91 o 0.778678
12 1 -6 198.36 194.91 o 0.778678
7 6 10 57.48 57.23 o 0.778539
7 6 -10 57.48 57.23 o 0.778539
8 1 11 2900.79 2904.45 o 0.778527
8 1 -11 2900.81 2904.47 o 0.778527
6 12 0 2639.17 2660.92 o 0.778300
2 4 -13 10062.21 10067.44 o 0.778267
2 4 13 10062.21 10067.44 o 0.778267
5 11 6 10476.99 10397.40 o 0.778172
5 11 -6 10477.00 10397.41 o 0.778172
4 2 13 10580.14 10564.50 o 0.778100
4 2 -13 10580.13 10564.49 o 0.778100
9 2 -10 273.74 273.34 o 0.778094
9 2 10 273.74 273.34 o 0.778094
2 10 -9 2909.21 2524.46 o 0.777037
2 10 9 2909.21 2524.46 o 0.777037
11 5 6 14077.91 12270.31 o 0.776842
11 5 -6 14077.91 12270.31 o 0.776842
12 6 0 2073.69 1802.16 o 0.776803
6 11 -5 4590.70 3972.71 o 0.776790
6 11 5 4590.71 3972.72 o 0.776790
6 12 1 223.88 184.92 o 0.776261
6 12 -1 223.89 184.92 o 0.776261
10 2 9 2199.27 1973.98 o 0.775712
10 2 -9 2199.26 1973.97 o 0.775712
11 6 5 131.10 116.62 o 0.775618
11 6 -5 131.10 116.62 o 0.775618
9 10 0 13463.96 11756.29 o 0.775530
2 13 3 2358.13 2019.02 o 0.775452
2 13 -3 2358.11 2019.01 o 0.775452
3 6 12 538.77 459.78 o 0.775410
3 6 -12 538.77 459.78 o 0.775410
10 9 0 2340.48 2004.33 o 0.775269
6 3 12 618.59 510.96 o 0.775039
6 3 -12 618.59 510.97 o 0.775039
3 13 2 325.52 239.18 < 0.774829
3 13 -2 325.52 239.19 < 0.774829
12 6 -1 510.78 321.80 < 0.774776
12 6 1 510.77 321.80 < 0.774776
2 12 6 3192.71 2554.09 o 0.774179
2 12 -6 3192.71 2554.09 o 0.774179
9 10 1 536.85 528.94 o 0.773513
9 10 -1 536.86 528.95 o 0.773513
10 9 1 6013.91 5906.07 o 0.773254
10 9 -1 6013.93 5906.09 o 0.773254
13 2 3 1393.69 1351.72 o 0.773193
13 2 -3 1393.69 1351.72 o 0.773193
1 11 -8 4427.88 4296.09 o 0.773063
1 11 8 4427.88 4296.10 o 0.773063
6 10 -7 2673.74 2594.16 o 0.773053
6 10 7 2673.73 2594.15 o 0.773053
2 8 11 65262.58 63397.02 o 0.772939
2 8 -11 65262.64 63397.07 o 0.772939
13 3 -2 1798.26 1727.34 o 0.772644
13 3 2 1798.24 1727.32 o 0.772644
5 9 -9 9913.71 9421.06 o 0.772489
5 9 9 9913.70 9421.05 o 0.772489
12 2 6 4673.72 4449.01 o 0.772271
12 2 -6 4673.71 4449.00 o 0.772271
10 6 -7 3745.04 3578.46 o 0.772183
10 6 7 3745.03 3578.45 o 0.772183
8 2 11 70091.69 67449.74 o 0.772124
8 2 -11 70091.67 67449.73 o 0.772124
9 5 9 7606.04 7417.79 o 0.771729
9 5 -9 7606.03 7417.78 o 0.771729
7 10 6 2415.81 2188.33 o 0.771453
7 10 -6 2415.84 2188.34 o 0.771453
11 1 -8 5773.98 5227.73 o 0.771434
11 1 8 5773.97 5227.73 o 0.771434
4 11 -7 683.06 638.50 o 0.771217
4 11 7 683.06 638.50 o 0.771217
10 7 6 562.82 487.82 o 0.770763
10 7 -6 562.82 487.82 o 0.770763
4 12 5 11442.65 9848.82 o 0.770699
4 12 -5 11442.59 9848.77 o 0.770699
5 8 -10 133.99 111.95 o 0.770359
5 8 10 133.99 111.95 o 0.770359
6 12 -2 11866.19 9891.46 o 0.770239
6 12 2 11866.19 9891.47 o 0.770239
8 5 10 521.48 422.22 o 0.769834
8 5 -10 521.47 422.22 o 0.769834
11 4 7 4208.98 3386.99 o 0.769801
11 4 -7 4208.96 3386.98 o 0.769801
5 12 -4 1587.44 1437.66 o 0.769600
5 12 4 1587.44 1437.67 o 0.769600
12 4 -5 10938.59 11306.48 o 0.768977
12 4 5 10938.59 11306.49 o 0.768977
12 6 2 9604.00 9524.93 o 0.768788
12 6 -2 9603.98 9524.91 o 0.768788
3 9 -10 18748.75 18470.71 o 0.768488
3 9 10 18748.79 18470.76 o 0.768488
12 5 4 65.69 61.01 o 0.768005
12 5 -4 65.68 61.00 o 0.768005
4 13 0 9207.13 8551.18 o 0.767991
1 13 4 8083.01 7594.15 o 0.767841
1 13 -4 8083.01 7594.14 o 0.767841
3 4 13 133.57 129.75 o 0.767625
3 4 -13 133.57 129.75 o 0.767625
9 10 2 1188.39 1106.27 o 0.767554
9 10 -2 1188.38 1106.26 o 0.767554
4 3 13 815.38 760.08 o 0.767532
4 3 -13 815.37 760.08 o 0.767532
9 3 10 13152.10 12260.22 o 0.767527
9 3 -10 13152.12 12260.23 o 0.767527
8 11 0 786.65 726.47 o 0.767350
10 9 2 1399.46 1277.58 o 0.767301
10 9 -2 1399.45 1277.57 o 0.767301
7 11 4 10802.31 10184.51 o 0.767201
7 11 -4 10802.30 10184.50 o 0.767201
2 11 8 2225.71 1771.25 o 0.766753
2 11 -8 2225.70 1771.24 o 0.766753
11 8 0 685.38 580.00 o 0.766592
0 0 -14 8395.89 7213.80 o 0.766510
0 0 14 8395.89 7213.80 o 0.766510
5 10 8 2207.13 1946.91 o 0.766474
5 10 -8 2207.13 1946.91 o 0.766474
3 10 9 1517.89 1362.60 o 0.766445
3 10 -9 1517.88 1362.59 o 0.766445
11 7 4 4663.59 4504.77 o 0.766244
11 7 -4 4663.61 4504.80 o 0.766244
4 13 -1 723.42 694.79 o 0.766032
4 13 1 723.41 694.78 o 0.766032
13 4 0 2061.54 2006.41 o 0.765956
9 9 5 445.71 446.47 o 0.765678
9 9 -5 445.71 446.48 o 0.765678
1 5 -13 19840.33 19416.96 o 0.765668
1 5 13 19840.31 19416.94 o 0.765668
13 1 4 6057.72 5872.24 o 0.765608
13 1 -4 6057.73 5872.25 o 0.765608
10 5 -8 1643.71 1570.41 o 0.765480
10 5 8 1643.71 1570.40 o 0.765480
8 11 1 3681.77 3555.71 o 0.765396
8 11 -1 3681.80 3555.73 o 0.765396
5 1 -13 19384.58 18064.04 o 0.765351
5 1 13 19384.59 18064.04 o 0.765351
10 3 -9 2474.83 2292.36 o 0.765240
10 3 9 2474.81 2292.34 o 0.765240
11 2 8 1286.23 1200.85 o 0.765202
11 2 -8 1286.23 1200.86 o 0.765202
1 7 12 1938.78 1808.56 o 0.765055
1 7 -12 1938.78 1808.56 o 0.765055
3 13 3 34862.82 32276.45 o 0.764924
3 13 -3 34862.92 32276.54 o 0.764924
5 5 12 551.15 501.16 o 0.764738
5 5 -12 551.16 501.17 o 0.764738
11 8 -1 2648.78 2517.62 o 0.764644
11 8 1 2648.76 2517.60 o 0.764644
7 1 12 1620.87 1514.47 o 0.764422
7 1 -12 1620.86 1514.46 o 0.764422
6 6 11 23631.71 23701.66 o 0.764195
6 6 -11 23631.71 23701.66 o 0.764195
13 4 1 5573.03 5516.99 o 0.764012
13 4 -1 5573.03 5516.99 o 0.764012
3 12 6 3380.33 3348.52 o 0.763702
3 12 -6 3380.35 3348.53 o 0.763702
13 3 3 36734.08 37023.46 o 0.762821
13 3 -3 36734.04 37023.43 o 0.762821
3 8 11 2273.44 2271.16 o 0.762512
3 8 -11 2273.41 2271.14 o 0.762512
1 1 14 3590.19 3591.42 o 0.762405
1 1 -14 3590.18 3591.41 o 0.762405
12 3 -6 215.25 211.84 o 0.761935
12 3 6 215.25 211.84 o 0.761935
8 10 5 50994.02 49899.14 o 0.761821
8 10 -5 50993.95 49899.07 o 0.761821
8 3 11 405.37 408.14 o 0.761794
8 3 -11 405.38 408.14 o 0.761794
2 13 -4 181.17 184.08 o 0.761656
2 13 4 181.17 184.07 o 0.761656
10 8 5 50633.45 51526.15 o 0.761352
10 8 -5 50633.45 51526.17 o 0.761352
4 6 12 5850.28 5587.85 o 0.760791
4 6 -12 5850.27 5587.84 o 0.760791
6 4 -12 7206.81 6744.09 o 0.760532
6 4 12 7206.82 6744.10 o 0.760532
6 12 3 15207.96 14263.87 o 0.760506
6 12 -3 15207.93 14263.85 o 0.760506
5 7 11 40909.04 38827.07 o 0.760282
5 7 -11 40909.05 38827.10 o 0.760282
4 13 2 2554.33 2416.06 o 0.760243
4 13 -2 2554.33 2416.07 o 0.760243
7 5 -11 34701.68 32370.38 o 0.759971
7 5 11 34701.65 32370.35 o 0.759971
8 8 8 21017.93 19840.34 o 0.759856
8 8 -8 21017.94 19840.35 o 0.759856
8 11 -2 3477.89 3369.85 o 0.759622
8 11 2 3477.93 3369.90 o 0.759622
2 5 13 154.62 149.09 o 0.759535
2 5 -13 154.62 149.10 o 0.759535
13 2 4 2119.15 2050.90 o 0.759516
13 2 -4 2119.17 2050.92 o 0.759516
5 2 -13 140.34 133.13 o 0.759264
5 2 13 140.35 133.14 o 0.759264
12 6 -3 12844.74 12989.11 o 0.759110
12 6 3 12844.75 12989.11 o 0.759110
2 7 12 224.23 227.30 o 0.758937
2 7 -12 224.23 227.31 o 0.758937
11 8 2 1581.19 1473.40 o 0.758886
11 8 -2 1581.16 1473.38 o 0.758886
0 2 -14 29328.89 29545.81 o 0.758391
0 2 14 29328.89 29545.80 o 0.758391
7 2 12 453.81 459.29 o 0.758358
7 2 -12 453.81 459.29 o 0.758358
2 0 -14 28196.69 28728.91 o 0.758339
2 0 14 28196.66 28728.88 o 0.758339
13 4 2 3877.03 3878.72 o 0.758268
13 4 -2 3877.01 3878.69 o 0.758268
9 10 3 4473.41 4488.27 o 0.757922
9 10 -3 4473.40 4488.27 o 0.757922
7 8 9 1026.23 900.90 o 0.757814
7 8 -9 1026.23 900.90 o 0.757814
10 9 3 2741.54 2310.01 o 0.757678
10 9 -3 2741.53 2310.01 o 0.757678
8 7 9 3382.69 2861.39 o 0.757622
8 7 -9 3382.69 2861.39 o 0.757622
0 12 7 17862.38 14455.14 o 0.757124
0 12 -7 17862.37 14455.13 o 0.757124
3 11 8 20933.12 16701.99 o 0.756570
3 11 -8 20933.15 16702.02 o 0.756570
1 2 -14 53.92 43.49 o 0.756388
1 2 14 53.92 43.49 o 0.756388
2 1 14 155.54 125.46 o 0.756350
2 1 -14 155.54 125.46 o 0.756350
7 9 8 4340.48 3440.58 o 0.756060
7 9 -8 4340.48 3440.58 o 0.756060
9 7 8 7819.44 6828.06 o 0.755653
9 7 -8 7819.45 6828.07 o 0.755653
6 11 6 1998.49 1552.98 o 0.755327
6 11 -6 1998.50 1552.99 o 0.755327
12 0 7 11244.67 8699.88 o 0.755288
12 0 -7 11244.67 8699.88 o 0.755288
11 3 8 22194.61 16888.17 o 0.755144
11 3 -8 22194.60 16888.17 o 0.755144
1 12 -7 112.20 85.44 o 0.755131
1 12 7 112.21 85.45 o 0.755131
8 9 7 1065.01 563.22 < 0.754333
8 9 -7 1065.00 563.22 < 0.754333
4 9 10 656.82 392.36 < 0.754250
4 9 -10 656.81 392.35 < 0.754250
11 6 -6 126.36 72.17 < 0.754250
11 6 6 126.36 72.17 < 0.754250
9 8 7 1056.62 652.60 < 0.754118
9 8 -7 1056.61 652.60 < 0.754118
4 4 13 160.27 152.86 o 0.753435
4 4 -13 160.27 152.86 o 0.753435
9 4 10 2251.51 2159.54 o 0.753429
9 4 -10 2251.51 2159.55 o 0.753429
12 1 7 6503.94 6271.39 o 0.753322
12 1 -7 6503.93 6271.38 o 0.753322
5 11 7 19551.83 20053.94 o 0.752865
5 11 -7 19551.82 20053.93 o 0.752865
5 12 5 1017.73 980.72 o 0.752383
5 12 -5 1017.74 980.74 o 0.752383
4 10 9 7095.22 6602.25 o 0.752318
4 10 -9 7095.22 6602.25 o 0.752318
7 7 10 213.39 233.22 o 0.751879
7 7 -10 213.40 233.23 o 0.751879
3 13 4 1118.40 1213.69 o 0.751673
3 13 -4 1118.38 1213.68 o 0.751673
11 5 -7 22281.77 24189.75 o 0.751660
11 5 7 22281.77 24189.76 o 0.751660
7 12 0 2106.12 2229.10 o 0.751501
10 4 9 7429.20 8109.28 o 0.751266
10 4 -9 7429.20 8109.29 o 0.751266
12 5 -5 2584.01 2459.85 o 0.750893
12 5 5 2584.04 2459.88 o 0.750893
4 13 -3 4778.09 4492.92 o 0.750879
4 13 3 4778.08 4492.90 o 0.750879
1 13 5 5154.11 4794.75 o 0.750739
1 13 -5 5154.09 4794.73 o 0.750739
2 2 14 167.91 154.72 o 0.750474
2 2 -14 167.91 154.72 o 0.750474
12 7 0 1096.86 1032.33 o 0.750315
8 11 -3 5.97 5.61 o 0.750281
8 11 3 5.97 5.61 o 0.750281
7 11 5 1699.59 1644.37 o 0.750141
7 11 -5 1699.56 1644.35 o 0.750141
6 9 9 1517.08 1467.80 o 0.750127
6 9 -9 1517.08 1467.79 o 0.750127
5 13 0 44478.74 43874.27 o 0.749863
4 12 -6 5739.33 5597.54 o 0.749724
4 12 6 5739.32 5597.53 o 0.749724
13 3 -4 1828.18 1763.55 o 0.749678
13 3 4 1828.17 1763.55 o 0.749678
7 12 1 3135.80 3024.17 o 0.749665
7 12 -1 3135.79 3024.16 o 0.749665
3 5 -13 43207.05 41581.59 o 0.749634
3 5 13 43207.01 41581.55 o 0.749634
11 8 3 762.39 731.43 o 0.749572
11 8 -3 762.39 731.43 o 0.749572
9 6 9 1390.32 1333.86 o 0.749567
9 6 -9 1390.32 1333.86 o 0.749567
5 3 13 39414.55 38048.70 o 0.749436
5 3 -13 39414.57 38048.71 o 0.749436
11 7 -5 3890.10 3687.33 o 0.749247
11 7 5 3890.12 3687.34 o 0.749247
2 12 7 2020.59 1945.67 o 0.749246
2 12 -7 2020.58 1945.65 o 0.749246
3 7 12 1129.34 1082.52 o 0.749059
3 7 -12 1129.33 1082.51 o 0.749059
13 4 3 1584.59 1518.14 o 0.748977
13 4 -3 1584.60 1518.15 o 0.748977
13 1 5 4949.57 4901.71 o 0.748652
13 1 -5 4949.56 4901.70 o 0.748652
0 10 10 59301.81 59171.50 o 0.748621
0 10 -10 59301.73 59171.41 o 0.748621
4 8 11 1218.62 1231.79 o 0.748598
4 8 -11 1218.62 1231.79 o 0.748598
7 3 12 1034.43 1037.61 o 0.748564
7 3 -12 1034.43 1037.60 o 0.748564
12 7 1 5124.11 5202.29 o 0.748488
12 7 -1 5124.11 5202.29 o 0.748488
6 8 -10 8245.70 8311.74 o 0.748176
6 8 10 8245.70 8311.74 o 0.748176
12 4 6 6074.36 6004.90 o 0.748138
12 4 -6 6074.37 6004.90 o 0.748138
13 5 0 61570.88 60534.37 o 0.748079
5 13 -1 4959.98 4870.66 o 0.748039
5 13 1 4959.99 4870.68 o 0.748039
8 4 11 1287.43 1268.67 o 0.748005
8 4 -11 1287.43 1268.67 o 0.748005
8 6 10 8720.14 8469.82 o 0.747831
8 6 -10 8720.15 8469.82 o 0.747831
12 2 7 1884.76 1833.66 o 0.747516
12 2 -7 1884.78 1833.67 o 0.747516
6 12 4 3457.07 3305.85 o 0.747480
6 12 -4 3457.06 3305.84 o 0.747480
10 0 -10 62047.69 57447.26 o 0.747387
10 0 10 62047.69 57447.27 o 0.747387
7 10 7 1605.49 1456.92 o 0.746774
7 10 -7 1605.47 1456.90 o 0.746774
1 10 10 6498.86 6180.62 o 0.746695
1 10 -10 6498.86 6180.62 o 0.746695
1 3 14 1913.09 1866.52 o 0.746669
1 3 -14 1913.09 1866.52 o 0.746669
3 1 14 2067.10 2116.40 o 0.746571
3 1 -14 2067.10 2116.39 o 0.746571
0 14 0 3714.56 4236.29 o 0.746336
13 5 1 6777.23 7600.77 o 0.746268
13 5 -1 6777.24 7600.78 o 0.746268
12 6 4 1918.91 2142.36 o 0.746154
12 6 -4 1918.91 2142.35 o 0.746154
10 7 7 3418.81 3964.42 o 0.746149
10 7 -7 3418.83 3964.44 o 0.746149
0 6 -13 47901.80 55248.71 o 0.745915
0 6 13 47901.80 55248.73 o 0.745915
10 1 10 2513.75 2729.27 o 0.745483
10 1 -10 2513.73 2729.26 o 0.745483
6 0 -13 47336.62 51456.79 o 0.745475
6 0 13 47336.60 51456.76 o 0.745475
9 9 -6 732.73 731.47 o 0.745099
9 9 6 732.73 731.48 o 0.745099
9 10 4 2136.88 2169.87 o 0.745026
9 10 -4 2136.89 2169.88 o 0.745026
1 9 -11 825.80 836.90 o 0.744967
1 9 11 825.79 836.90 o 0.744967
2 13 -5 2778.75 2764.28 o 0.744956
2 13 5 2778.73 2764.26 o 0.744956
10 9 -4 3035.81 2963.76 o 0.744794
10 9 4 3035.79 2963.74 o 0.744794
6 10 8 38445.02 38322.75 o 0.744615
6 10 -8 38445.00 38322.73 o 0.744615
0 14 1 38669.57 38916.45 o 0.744538
0 14 -1 38669.60 38916.47 o 0.744538
1 14 0 2027.79 2045.66 o 0.744428
7 12 -2 7407.54 7514.12 o 0.744236
7 12 2 7407.50 7514.07 o 0.744236
1 6 -13 2589.68 2680.29 o 0.744010
1 6 13 2589.67 2680.28 o 0.744010
9 1 11 1990.34 2059.98 o 0.743994
9 1 -11 1990.34 2059.97 o 0.743994
14 0 0 4953.63 5163.43 o 0.743946
10 6 8 36591.00 39189.93 o 0.743837
10 6 -8 36590.87 39189.80 o 0.743837
6 1 13 729.50 771.81 o 0.743585
6 1 -13 729.51 771.82 o 0.743585
5 6 12 569.52 574.39 o 0.743157
5 6 -12 569.51 574.39 o 0.743157
12 7 -2 2891.38 2982.02 o 0.743085
12 7 2 2891.37 2982.00 o 0.743085
6 5 12 1289.59 1315.97 o 0.743024
6 5 -12 1289.59 1315.96 o 0.743024
4 11 -8 4638.23 4811.59 o 0.742973
4 11 8 4638.27 4811.63 o 0.742973
13 2 -5 1475.34 1540.29 o 0.742953
13 2 5 1475.35 1540.30 o 0.742953
5 13 2 31500.05 33043.30 o 0.742645
5 13 -2 31500.04 33043.29 o 0.742645
1 14 1 4314.03 4525.39 o 0.742643
1 14 -1 4314.04 4525.39 o 0.742643
14 0 1 27188.04 29590.72 o 0.742164
14 0 -1 27188.06 29590.74 o 0.742164
14 1 0 49.29 55.15 o 0.742067
11 4 8 1554.84 1666.14 o 0.741707
11 4 -8 1554.83 1666.13 o 0.741707
8 10 -6 19610.66 20210.32 o 0.741543
8 10 6 19610.63 20210.29 o 0.741543
10 8 -6 19332.15 19102.77 o 0.741111
10 8 6 19332.18 19102.79 o 0.741111
1 11 9 8225.46 8134.76 o 0.741064
1 11 -9 8225.45 8134.74 o 0.741064
2 10 -10 4916.10 4818.49 o 0.741004
2 10 10 4916.08 4818.47 o 0.741004
2 3 14 218.06 213.01 o 0.740979
2 3 -14 218.06 213.01 o 0.740979
3 2 -14 166.53 162.32 o 0.740919
3 2 14 166.53 162.32 o 0.740919
13 5 -2 27432.63 26739.47 o 0.740913
13 5 2 27432.57 26739.42 o 0.740913
14 1 1 5158.09 4383.31 o 0.740299
14 1 -1 5158.09 4383.31 o 0.740299
10 2 10 3829.84 3304.33 o 0.739855
10 2 -10 3829.86 3304.35 o 0.739855
3 12 7 317.28 281.89 o 0.739737
3 12 -7 317.28 281.89 o 0.739737
11 1 9 6101.50 5929.95 o 0.739628
11 1 -9 6101.48 5929.93 o 0.739628
2 9 -11 947.78 995.03 o 0.739315
2 9 11 947.77 995.03 o 0.739315
0 14 2 9117.74 9858.10 o 0.739219
0 14 -2 9117.71 9858.08 o 0.739219
6 7 -11 21.52 21.89 o 0.738934
6 7 11 21.52 21.89 o 0.738934
2 14 0 2531.82 2639.57 o 0.738788
7 6 -11 2179.94 2228.07 o 0.738780
7 6 11 2179.94 2228.07 o 0.738780
9 2 11 168.93 175.13 o 0.738400
9 2 -11 168.93 175.14 o 0.738400
2 6 13 17660.96 18320.16 o 0.738379
2 6 -13 17660.96 18320.16 o 0.738379
4 13 -4 277.41 286.05 o 0.738334
4 13 4 277.40 286.04 o 0.738334
12 3 -7 2682.71 2643.84 o 0.738131
12 3 7 2682.70 2643.83 o 0.738131
6 2 -13 18696.09 18641.54 o 0.738000
6 2 13 18696.11 18641.56 o 0.738000
0 8 12 7130.32 7220.09 o 0.737877
0 8 -12 7130.30 7220.07 o 0.737877
8 11 4 880.44 893.06 o 0.737765
8 11 -4 880.44 893.07 o 0.737765
10 10 0 75161.62 76994.09 o 0.737649
1 14 2 6812.29 6977.21 o 0.737365
1 14 -2 6812.25 6977.16 o 0.737365
8 0 -12 3770.09 4213.87 o 0.737120
8 0 12 3770.09 4213.87 o 0.737120
11 8 4 2115.08 2385.05 o 0.737091
11 8 -4 2115.09 2385.05 o 0.737091
5 9 10 8046.41 8990.23 o 0.737057
5 9 -10 8046.42 8990.24 o 0.737057
2 14 1 4805.20 5393.41 o 0.737043
2 14 -1 4805.24 5393.44 o 0.737043
14 0 -2 6560.39 7228.04 o 0.736896
14 0 2 6560.39 7228.04 o 0.736896
13 4 4 1866.68 2304.44 o 0.736525
13 4 -4 1866.67 2304.43 o 0.736525
14 2 0 5744.74 6879.16 o 0.736516
4 5 13 287.70 375.62 o 0.736401
4 5 -13 287.70 375.62 o 0.736401
9 5 10 6142.27 7944.08 o 0.736397
9 5 -10 6142.26 7944.07 o 0.736397
5 4 -13 847.82 1057.80 o 0.736295
5 4 13 847.82 1057.80 o 0.736295
1 8 12 422.74 472.42 o 0.736032
1 8 -12 422.74 472.43 o 0.736032
10 10 1 1263.18 1420.25 o 0.735913
10 10 -1 1263.21 1420.28 o 0.735913
4 7 12 268.45 304.27 o 0.735856
4 7 -12 268.45 304.27 o 0.735856
3 13 5 37935.62 43314.88 o 0.735607
3 13 -5 37935.61 43314.86 o 0.735607
2 11 9 99.49 114.31 o 0.735500
2 11 -9 99.49 114.31 o 0.735500
0 4 -14 16318.26 18748.78 o 0.735499
0 4 14 16318.24 18748.76 o 0.735499
7 4 12 1329.94 1521.52 o 0.735468
7 4 -12 1329.94 1521.52 o 0.735468
7 12 3 238.82 273.22 o 0.735446
7 12 -3 238.82 273.22 o 0.735446
4 0 14 22114.03 25748.43 o 0.735311
4 0 -14 22114.04 25748.43 o 0.735311
8 1 12 3625.36 4229.27 o 0.735293
8 1 -12 3625.35 4229.25 o 0.735293
5 10 9 76.73 89.90 o 0.735254
5 10 -9 76.73 89.90 o 0.735254
14 1 2 5347.90 6441.67 o 0.735070
14 1 -2 5347.88 6441.65 o 0.735070
14 2 1 9083.77 11401.47 o 0.734787
14 2 -1 9083.79 11401.49 o 0.734787
10 5 9 1240.35 1520.19 o 0.734376
10 5 -9 1240.39 1520.24 o 0.734376
12 7 -3 4606.36 5640.72 o 0.734334
12 7 3 4606.37 5640.73 o 0.734334
9 11 0 3156.40 3659.77 o 0.734222
11 2 9 2435.89 2783.32 o 0.734131
11 2 -9 2435.89 2783.32 o 0.734131
5 13 3 5277.23 5843.65 o 0.733910
5 13 -3 5277.19 5843.62 o 0.733910
11 9 0 6337.98 6848.59 o 0.733755
13 3 5 43988.09 47804.25 o 0.733737
13 3 -5 43988.09 47804.25 o 0.733737
1 4 14 694.99 750.97 o 0.733672
1 4 -14 694.99 750.97 o 0.733672
4 1 -14 81.58 87.69 o 0.733497
4 1 14 81.58 87.69 o 0.733497
5 12 -6 804.52 994.28 o 0.732831
5 12 6 804.53 994.29 o 0.732831
9 11 1 1207.22 1211.40 o 0.732509
9 11 -1 1207.20 1211.38 o 0.732509
13 5 -3 12709.92 12864.26 o 0.732238
13 5 3 12709.86 12864.20 o 0.732238
6 11 7 2304.03 2343.80 o 0.732119
6 11 -7 2304.02 2343.80 o 0.732119
11 9 -1 1607.64 1613.69 o 0.732046
11 9 1 1607.64 1613.69 o 0.732046
2 14 2 29125.73 27628.46 o 0.731883
2 14 -2 29125.66 27628.40 o 0.731883
3 10 10 3939.34 3733.26 o 0.731801
3 10 -10 3939.36 3733.27 o 0.731801
5 8 11 393.59 373.63 o 0.731779
5 8 -11 393.58 373.62 o 0.731779
3 3 -14 25385.51 24080.17 o 0.731777
3 3 14 25385.52 24080.17 o 0.731777
6 12 5 20421.16 19417.33 o 0.731676
6 12 -5 20421.22 19417.40 o 0.731676
12 5 6 2180.32 2050.29 o 0.731454
12 5 -6 2180.31 2050.29 o 0.731454
8 5 11 507.64 461.14 o 0.731329
8 5 -11 507.64 461.14 o 0.731329
1 13 6 8865.66 8295.13 o 0.731312
1 13 -6 8865.67 8295.14 o 0.731312
11 6 7 584.54 601.15 o 0.731138
11 6 -7 584.54 601.14 o 0.731138
10 10 2 10023.51 10931.48 o 0.730776
10 10 -2 10023.52 10931.48 o 0.730776
7 11 6 5224.95 5680.88 o 0.730759
7 11 -6 5225.00 5680.92 o 0.730759
10 3 10 1707.89 1865.97 o 0.730752
10 3 -10 1707.87 1865.96 o 0.730752
0 14 3 15508.04 16707.88 o 0.730603
0 14 -3 15508.05 16707.88 o 0.730603
2 8 12 15172.49 16460.87 o 0.730580
2 8 -12 15172.45 16460.82 o 0.730580
12 6 5 17822.10 19241.28 o 0.730432
12 6 -5 17822.08 19241.26 o 0.730432
0 12 8 23904.78 25981.71 o 0.730348
0 12 -8 23904.79 25981.74 o 0.730348
3 9 -11 17204.41 17644.92 o 0.730175
3 9 11 17204.42 17644.93 o 0.730175
11 7 6 6223.67 6111.75 o 0.729932
11 7 -6 6223.70 6111.78 o 0.729932
8 2 12 14423.73 14073.00 o 0.729891
8 2 -12 14423.70 14072.97 o 0.729891
14 2 -2 30932.32 28964.31 o 0.729674
14 2 2 30932.31 28964.30 o 0.729674
3 14 0 519.33 486.29 o 0.729666
8 8 9 20442.97 18543.25 o 0.729406
8 8 -9 20442.91 18543.19 o 0.729406
13 1 6 6386.10 5794.03 o 0.729382
13 1 -6 6386.12 5794.05 o 0.729382
9 10 5 691.75 628.42 o 0.729373
9 10 -5 691.76 628.43 o 0.729373
6 13 0 5142.50 4658.15 o 0.729357
9 3 11 19215.36 17496.37 o 0.729350
9 3 -11 19215.34 17496.35 o 0.729350
3 6 13 914.10 834.53 o 0.729273
3 6 -13 914.10 834.52 o 0.729273
10 9 5 1253.74 1143.88 o 0.729156
10 9 -5 1253.73 1143.87 o 0.729156
6 3 -13 1537.78 1432.76 o 0.728964
6 3 13 1537.80 1432.78 o 0.728964
1 14 3 1889.93 1772.11 o 0.728812
1 14 -3 1889.92 1772.11 o 0.728812
12 0 8 30078.63 30468.00 o 0.728699
12 0 -8 30078.60 30467.97 o 0.728699
1 12 8 9409.60 9945.87 o 0.728559
1 12 -8 9409.58 9945.85 o 0.728559
14 0 3 18229.85 19453.67 o 0.728360
14 0 -3 18229.82 19453.64 o 0.728360
2 4 -14 6150.20 6609.62 o 0.728271
2 4 14 6150.19 6609.61 o 0.728271
4 2 14 8466.73 8938.87 o 0.728134
4 2 -14 8466.71 8938.85 o 0.728134
3 14 1 3820.53 3925.09 o 0.727986
3 14 -1 3820.50 3925.06 o 0.727986
8 9 8 1300.98 1293.24 o 0.727842
8 9 -8 1300.98 1293.25 o 0.727842
13 6 0 4.22 4.34 o 0.727841
6 13 1 251.58 231.25 o 0.727679
6 13 -1 251.58 231.25 o 0.727679
9 8 8 945.14 892.87 o 0.727648
9 8 -8 945.13 892.86 o 0.727648
14 3 0 1200.08 1117.42 o 0.727534
9 11 -2 11840.84 10976.36 o 0.727443
9 11 2 11840.87 10976.39 o 0.727443
4 12 7 8368.43 8519.26 o 0.727013
4 12 -7 8368.44 8519.27 o 0.727013
11 9 -2 7474.77 7730.81 o 0.726989
11 9 2 7474.78 7730.82 o 0.726989
12 1 8 2894.22 2855.16 o 0.726934
12 1 -8 2894.22 2855.16 o 0.726934
14 1 3 3419.16 3343.96 o 0.726597
14 1 -3 3419.17 3343.96 o 0.726597
5 11 8 15373.50 14623.05 o 0.726523
5 11 -8 15373.59 14623.13 o 0.726523
3 11 9 12559.52 11946.44 o 0.726498
3 11 -9 12559.52 11946.43 o 0.726498
13 6 1 504.95 465.44 o 0.726172
13 6 -1 504.95 465.45 o 0.726172
7 9 9 2628.17 2277.67 o 0.726046
7 9 -9 2628.17 2277.67 o 0.726046
2 13 6 1035.70 872.20 o 0.725963
2 13 -6 1035.68 872.19 o 0.725963
14 3 1 1642.19 1427.72 o 0.725868
14 3 -1 1642.18 1427.70 o 0.725868
9 7 9 1306.10 1248.98 o 0.725685
9 7 -9 1306.10 1248.98 o 0.725685
12 4 7 4828.73 4654.11 o 0.725567
12 4 -7 4828.73 4654.11 o 0.725567
11 5 8 17565.63 17152.05 o 0.725440
11 5 -8 17565.69 17152.11 o 0.725440
11 3 9 15189.13 14667.91 o 0.725235
11 3 -9 15189.12 14667.91 o 0.725235
7 8 10 2143.81 1729.86 o 0.724277
7 8 -10 2143.80 1729.86 o 0.724277
8 7 -10 3617.96 2743.68 o 0.724109
8 7 10 3617.95 2743.67 o 0.724109
13 2 6 1882.14 1415.46 o 0.724108
13 2 -6 1882.14 1415.46 o 0.724108
8 12 0 16969.07 14459.25 o 0.723771
7 12 4 360.35 330.31 o 0.723646
7 12 -4 360.35 330.32 o 0.723646
2 14 3 2370.72 2148.98 o 0.723517
2 14 -3 2370.72 2148.98 o 0.723517
2 12 8 24100.20 22735.58 o 0.723269
2 12 -8 24100.20 22735.58 o 0.723269
6 6 -12 12983.50 12556.98 o 0.723182
6 6 12 12983.54 12557.01 o 0.723182
4 13 5 3995.18 3929.78 o 0.723091
4 13 -5 3995.16 3929.77 o 0.723091
3 14 2 4926.47 4885.30 o 0.723012
3 14 -2 4926.49 4885.32 o 0.723012
12 8 0 14463.17 14426.74 o 0.722879
9 9 7 2365.20 2386.17 o 0.722794
9 9 -7 2365.22 2386.19 o 0.722794
6 13 -2 1743.36 1767.20 o 0.722711
6 13 2 1743.36 1767.20 o 0.722711
12 7 -4 241.56 253.20 o 0.722587
12 7 4 241.56 253.20 o 0.722587
8 11 5 1446.31 1516.05 o 0.722556
8 11 -5 1446.32 1516.06 o 0.722556
10 10 -3 24062.79 24894.90 o 0.722448
10 10 3 24062.69 24894.80 o 0.722448
5 13 4 9114.57 8914.62 o 0.722183
5 13 -4 9114.60 8914.65 o 0.722183
8 12 1 25401.41 24715.86 o 0.722131
8 12 -1 25401.46 24715.91 o 0.722131
11 8 5 735.20 678.46 o 0.721923
11 8 -5 735.19 678.46 o 0.721923
3 8 -12 900.99 798.80 o 0.721755
3 8 12 900.96 798.78 o 0.721755
12 2 -8 24833.11 22037.99 o 0.721713
12 2 8 24833.04 22037.94 o 0.721713
13 4 5 1461.84 1288.31 o 0.721391
13 4 -5 1461.82 1288.29 o 0.721391
14 2 3 1108.07 976.53 o 0.721383
14 2 -3 1108.08 976.54 o 0.721383
12 8 1 18007.71 15704.55 o 0.721244
12 8 -1 18007.69 15704.54 o 0.721244
13 6 -2 1643.63 1433.41 o 0.721235
13 6 2 1643.64 1433.42 o 0.721235
8 3 12 1121.48 994.13 o 0.721146
8 3 -12 1121.48 994.13 o 0.721146
7 10 8 2099.56 1851.20 o 0.721045
7 10 -8 2099.56 1851.20 o 0.721045
14 3 2 2576.06 2371.54 o 0.720937
14 3 -2 2576.06 2371.55 o 0.720937
1 7 13 10122.62 8597.96 o 0.720639
1 7 -13 10122.63 8597.97 o 0.720639
13 5 4 8376.62 7088.42 o 0.720589
13 5 -4 8376.61 7088.41 o 0.720589
10 7 8 3948.68 3319.85 o 0.720482
10 7 -8 3948.68 3319.84 o 0.720482
5 5 13 29883.07 25186.55 o 0.720374
5 5 -13 29883.04 25186.52 o 0.720374
7 1 13 10840.20 9161.22 o 0.720110
7 1 -13 10840.21 9161.23 o 0.720110
5 7 12 4180.91 3842.44 o 0.719863
5 7 -12 4180.89 3842.42 o 0.719863
7 5 12 1819.73 1769.08 o 0.719600
7 5 -12 1819.71 1769.06 o 0.719600
8 10 7 17866.38 17320.64 o 0.719546
8 10 -7 17866.40 17320.66 o 0.719546
3 4 14 233.19 226.17 o 0.719529
3 4 -14 233.19 226.17 o 0.719529
4 10 10 26199.77 25837.17 o 0.719475
4 10 -10 26199.78 25837.19 o 0.719475
4 3 14 372.61 363.50 o 0.719452
4 3 -14 372.60 363.50 o 0.719452
9 11 3 2081.95 2050.08 o 0.719227
9 11 -3 2081.94 2050.07 o 0.719227
10 8 7 15743.13 15552.11 o 0.719151
10 8 -7 15743.12 15552.09 o 0.719151
0 14 4 11646.02 11549.93 o 0.719031
0 14 -4 11646.02 11549.92 o 0.719031
11 9 -3 3471.35 3540.81 o 0.718789
11 9 3 3471.32 3540.78 o 0.718789
10 4 -10 28557.10 29365.94 o 0.718554
10 4 10 28557.15 29365.98 o 0.718554
4 9 11 2282.23 2299.59 o 0.717929
4 9 -11 2282.24 2299.61 o 0.717929
1 5 14 12761.17 12687.45 o 0.717916
1 5 -14 12761.16 12687.45 o 0.717916
5 1 14 11797.04 12075.12 o 0.717655
5 1 -14 11797.05 12075.13 o 0.717655
6 9 -10 1213.38 1192.81 o 0.717557
6 9 10 1213.38 1192.81 o 0.717557
4 14 0 567.85 565.01 o 0.717446
1 14 -4 2576.14 2544.43 o 0.717324
1 14 4 2576.15 2544.44 o 0.717324
3 13 6 13291.19 13236.58 o 0.717303
3 13 -6 13291.16 13236.54 o 0.717303
8 12 -2 25254.58 25033.80 o 0.717275
8 12 2 25254.61 25033.82 o 0.717275
9 4 11 861.52 864.02 o 0.717221
9 4 -11 861.52 864.02 o 0.717221
4 6 13 15285.66 15390.02 o 0.717072
4 6 -13 15285.67 15390.03 o 0.717072
9 6 10 1346.88 1355.22 o 0.717068
9 6 -10 1346.89 1355.23 o 0.717068
14 0 4 14283.44 14218.91 o 0.716893
14 0 -4 14283.46 14218.93 o 0.716893
6 4 13 16790.36 16601.65 o 0.716855
6 4 -13 16790.39 16601.69 o 0.716855
12 8 2 20628.11 19674.62 o 0.716406
12 8 -2 20628.18 19674.68 o 0.716406
6 10 9 2858.66 2585.50 o 0.715893
6 10 -9 2858.66 2585.50 o 0.715893
7 7 11 14.96 13.53 o 0.715883
7 7 -11 14.96 13.53 o 0.715883
4 14 1 11383.52 10423.37 o 0.715848
4 14 -1 11383.50 10423.36 o 0.715848
13 3 -6 16883.70 15402.01 o 0.715568
13 3 6 16883.71 15402.02 o 0.715568
2 7 13 937.26 853.25 o 0.715519
2 7 -13 937.26 853.25 o 0.715519
14 4 0 421.14 383.87 o 0.715494
0 0 -15 15417.65 13640.93 o 0.715409
0 0 15 15417.65 13640.93 o 0.715409
14 1 4 777.75 727.46 o 0.715211
14 1 -4 777.74 727.45 o 0.715211
10 6 9 1935.95 1820.78 o 0.715202
10 6 -9 1935.95 1820.78 o 0.715202
7 2 13 158.91 141.44 o 0.715033
7 2 -13 158.91 141.44 o 0.715033
3 14 3 499.20 418.94 o 0.714944
3 14 -3 499.20 418.94 o 0.714944
3 12 8 3226.71 2468.09 o 0.714704
3 12 -8 3226.72 2468.09 o 0.714704
6 13 3 4391.06 3429.24 o 0.714653
6 13 -3 4391.06 3429.24 o 0.714653
4 11 -9 1424.09 1099.73 o 0.714434
4 11 9 1424.09 1099.73 o 0.714434
14 4 -1 9575.03 8221.38 o 0.713909
14 4 1 9575.04 8221.38 o 0.713909
6 12 6 20203.98 17734.35 o 0.713656
6 12 -6 20203.94 17734.30 o 0.713656
11 4 -9 2077.57 1751.80 o 0.713307
11 4 9 2077.59 1751.81 o 0.713307
12 3 -8 3040.62 2559.98 o 0.713256
12 3 8 3040.62 2559.98 o 0.713256
13 6 3 1872.96 1579.47 o 0.713226
13 6 -3 1872.96 1579.46 o 0.713226
0 10 11 23876.93 20490.26 o 0.713069
0 10 -11 23876.89 20490.23 o 0.713069
14 3 3 2924.26 2408.21 o 0.712937
14 3 -3 2924.26 2408.21 o 0.712937
2 5 14 371.54 299.81 o 0.712854
2 5 -14 371.54 299.82 o 0.712854
6 8 -11 13523.11 11031.69 o 0.712685
6 8 11 13523.10 11031.69 o 0.712685
5 2 14 480.94 387.62 o 0.712630
5 2 -14 480.94 387.61 o 0.712630
12 6 6 15878.30 12730.83 o 0.712502
12 6 -6 15878.30 12730.84 o 0.712502
8 6 11 14407.39 11389.47 o 0.712386
8 6 -11 14407.40 11389.47 o 0.712386
2 14 -4 7754.00 6026.76 o 0.712274
2 14 4 7754.03 6026.78 o 0.712274
1 1 15 2315.22 1814.86 o 0.712068
1 1 -15 2315.21 1814.86 o 0.712068
10 0 -11 27003.65 20349.86 o 0.712003
10 0 11 27003.67 20349.87 o 0.712003
5 12 7 920.29 656.46 o 0.711578
5 12 -7 920.29 656.46 o 0.711578
9 10 -6 340.19 271.62 o 0.711519
9 10 6 340.19 271.62 o 0.711519
1 10 11 420.45 311.92 o 0.711404
1 10 -11 420.45 311.92 o 0.711404
10 9 6 540.61 367.10 o 0.711317
10 9 -6 540.62 367.10 o 0.711317
10 10 4 5980.99 4098.63 o 0.711253
10 10 -4 5980.96 4098.61 o 0.711253
4 14 2 2435.99 1561.98 o 0.711117
4 14 -2 2435.99 1561.97 o 0.711117
10 1 11 699.49 635.05 o 0.710356
10 1 -11 699.50 635.05 o 0.710356
12 5 -7 422.01 366.41 o 0.710317
12 5 7 422.01 366.41 o 0.710317
14 2 4 4197.71 3258.95 o 0.710237
14 2 -4 4197.72 3258.95 o 0.710237
1 13 7 1923.31 1505.13 o 0.710187
1 13 -7 1923.31 1505.13 o 0.710187
4 8 12 197.82 184.48 o 0.709922
4 8 -12 197.82 184.49 o 0.709922
7 11 7 2974.03 2470.39 o 0.709681
7 11 -7 2974.03 2470.38 o 0.709681
1 11 10 6583.58 5550.80 o 0.709612
1 11 -10 6583.60 5550.81 o 0.709612
8 4 12 146.26 124.61 o 0.709416
8 4 -12 146.26 124.61 o 0.709416
8 12 3 6561.72 5618.11 o 0.709395
8 12 -3 6561.70 5618.09 o 0.709395
7 12 5 2855.77 2613.77 o 0.709277
7 12 -5 2855.75 2613.75 o 0.709277
14 4 2 1055.71 974.85 o 0.709216
14 4 -2 1055.70 974.84 o 0.709216
11 7 7 1775.61 1701.11 o 0.708923
11 7 -7 1775.62 1701.11 o 0.708923
0 2 -15 13398.25 13404.28 o 0.708795
0 2 15 13398.24 13404.27 o 0.708795
2 0 -15 14875.89 14567.16 o 0.708753
2 0 15 14875.93 14567.20 o 0.708753
12 8 3 5757.16 5844.86 o 0.708555
12 8 -3 5757.18 5844.88 o 0.708555
13 1 7 2059.55 2016.95 o 0.708419
13 1 -7 2059.53 2016.94 o 0.708419
11 1 10 5658.67 5616.39 o 0.708351
11 1 -10 5658.71 5616.43 o 0.708351
12 7 5 4049.19 3944.62 o 0.708280
12 7 -5 4049.17 3944.61 o 0.708280
9 11 -4 11813.90 11798.68 o 0.708179
9 11 4 11813.95 11798.73 o 0.708179
5 13 5 3475.60 3338.04 o 0.707900
5 13 -5 3475.58 3338.02 o 0.707900
6 11 -8 1724.92 1677.14 o 0.707826
6 11 8 1724.91 1677.14 o 0.707826
4 4 14 12055.02 11751.24 o 0.707803
4 4 -14 12055.00 11751.21 o 0.707803
11 9 4 22410.35 21676.27 o 0.707761
11 9 -4 22410.38 21676.31 o 0.707761
3 7 -13 19668.51 18642.80 o 0.707223
3 7 13 19668.49 18642.79 o 0.707223
7 13 0 1709.66 1637.24 o 0.707164
1 2 -15 60.24 57.87 o 0.707159
1 2 15 60.24 57.87 o 0.707159
2 1 15 92.70 87.38 o 0.707128
2 1 -15 92.70 87.38 o 0.707128
11 6 -8 2380.60 2217.09 o 0.706939
11 6 8 2380.58 2217.08 o 0.706939
1 9 -12 5628.47 5099.23 o 0.706823
1 9 12 5628.46 5099.22 o 0.706823
7 3 13 20311.66 18491.78 o 0.706806
7 3 -13 20311.62 18491.74 o 0.706806
2 10 11 5442.66 5084.00 o 0.706477
2 10 -11 5442.65 5083.99 o 0.706477
13 5 5 1101.65 1017.23 o 0.706398
13 5 -5 1101.67 1017.25 o 0.706398
9 1 12 4839.13 4408.65 o 0.705992
9 1 -12 4839.14 4408.66 o 0.705992
13 7 0 20.36 16.73 o 0.705917
4 13 6 1566.74 1357.34 o 0.705683
4 13 -6 1566.74 1357.34 o 0.705683
7 13 1 5511.81 5023.29 o 0.705634
7 13 -1 5511.81 5023.28 o 0.705634
10 2 11 4235.61 3929.73 o 0.705481
10 2 -11 4235.61 3929.72 o 0.705481
2 13 7 473.19 439.41 o 0.705285
2 13 -7 473.19 439.41 o 0.705285
8 11 6 738.20 667.25 o 0.705186
8 11 -6 738.21 667.26 o 0.705186
0 14 5 11388.07 9909.37 o 0.704930
0 14 -5 11388.08 9909.38 o 0.704930
2 11 10 2223.18 1877.21 o 0.704722
2 11 -10 2223.19 1877.21 o 0.704722
3 5 14 839.10 691.72 o 0.704649
3 5 -14 839.11 691.72 o 0.704649
11 8 6 584.90 475.69 o 0.704598
11 8 -6 584.93 475.72 o 0.704598
5 10 10 89.34 63.92 o 0.704506
5 10 -10 89.34 63.92 o 0.704506
5 3 14 916.60 698.65 o 0.704484
5 3 -14 916.61 698.66 o 0.704484
13 7 1 2985.57 2417.93 o 0.704394
13 7 -1 2985.56 2417.93 o 0.704394
13 4 -6 1704.63 1210.03 < 0.704103
13 4 6 1704.63 1210.04 < 0.704103
3 14 4 1271.98 1016.30 < 0.704089
3 14 -4 1271.98 1016.30 < 0.704089
6 13 4 92.82 75.66 o 0.703811
6 13 -4 92.82 75.66 o 0.703811
10 5 10 858.86 723.33 o 0.703734
10 5 -10 858.85 723.32 o 0.703734
13 2 7 963.15 811.99 o 0.703585
13 2 -7 963.14 811.98 o 0.703585
11 2 -10 1230.10 1053.56 o 0.703518
11 2 10 1230.08 1053.54 o 0.703518
4 14 -3 2222.02 1819.04 o 0.703437
4 14 3 2222.01 1819.03 o 0.703437
1 14 5 7268.17 5760.28 o 0.703321
1 14 -5 7268.14 5760.26 o 0.703321
4 12 8 3835.97 3074.82 o 0.703209
4 12 -8 3835.95 3074.80 o 0.703209
0 12 9 58.30 46.42 o 0.703187
0 12 -9 58.30 46.41 o 0.703187
5 9 11 5891.03 4840.32 o 0.703054
5 9 -11 5891.03 4840.32 o 0.703054
14 0 -5 17714.09 15076.60 o 0.702915
14 0 5 17714.05 15076.56 o 0.702915
5 14 0 2692.62 2411.44 o 0.702601
9 5 11 9552.20 9380.90 o 0.702481
9 5 -11 9552.20 9380.90 o 0.702481
13 6 4 3196.64 3113.35 o 0.702448
13 6 -4 3196.63 3113.34 o 0.702448
2 2 15 9.77 8.89 o 0.702319
2 2 -15 9.77 8.89 o 0.702319
5 6 13 715.57 644.37 o 0.702249
5 6 -13 715.55 644.35 o 0.702249
14 3 4 104.50 95.79 o 0.702173
14 3 -4 104.49 95.78 o 0.702173
6 5 -13 377.01 348.03 o 0.702137
6 5 13 377.00 348.03 o 0.702137
2 9 12 351.52 302.16 o 0.701990
2 9 -12 351.51 302.15 o 0.701990
12 4 8 3777.25 3135.88 o 0.701900
12 4 -8 3777.27 3135.90 o 0.701900
10 11 0 1234.44 1027.20 o 0.701835
12 0 9 1093.93 959.90 o 0.701715
12 0 -9 1093.93 959.90 o 0.701715
6 7 -12 483.99 444.79 o 0.701664
6 7 12 484.00 444.79 o 0.701664
11 10 0 2148.73 2060.27 o 0.701621
14 4 3 3199.81 3069.54 o 0.701597
14 4 -3 3199.80 3069.54 o 0.701597
1 12 9 628.74 597.48 o 0.701589
1 12 -9 628.74 597.49 o 0.701589
0 6 -14 7426.85 7063.95 o 0.701558
0 6 14 7426.86 7063.96 o 0.701558
7 6 12 1872.54 1842.25 o 0.701532
7 6 -12 1872.54 1842.25 o 0.701532
14 1 5 3942.94 3762.59 o 0.701330
14 1 -5 3942.92 3762.57 o 0.701330
9 2 12 305.15 299.11 o 0.701206
9 2 -12 305.15 299.10 o 0.701206
6 0 14 4648.07 4556.02 o 0.701192
6 0 -14 4648.08 4556.03 o 0.701192
7 13 2 1148.81 1085.97 o 0.701102
7 13 -2 1148.81 1085.97 o 0.701102
5 14 1 1696.83 1604.02 o 0.701099
5 14 -1 1696.84 1604.02 o 0.701099
8 9 9 1633.95 1632.21 o 0.700949
8 9 -9 1633.94 1632.21 o 0.700949
14 5 0 684.32 671.49 o 0.700858
9 8 9 1176.77 1011.05 o 0.700776
9 8 -9 1176.78 1011.06 o 0.700776
10 11 1 786.72 883.41 o 0.700339
10 11 -1 786.70 883.39 o 0.700339
12 1 9 2446.62 2596.57 o 0.700138
12 1 -9 2446.63 2596.58 o 0.700138
11 10 1 101.66 107.89 o 0.700126
11 10 -1 101.67 107.90 o 0.700126
1 6 -14 126.02 125.58 o 0.699972
1 6 14 126.01 125.58 o 0.699972
13 7 2 4790.86 4975.93 o 0.699885
13 7 -2 4790.84 4975.91 o 0.699885
5 11 9 9764.70 10483.39 o 0.699771
5 11 -9 9764.70 10483.38 o 0.699771
6 1 14 2075.84 2178.62 o 0.699618
6 1 -14 2075.85 2178.63 o 0.699618
9 9 8 587.68 630.68 o 0.699389
9 9 -8 587.68 630.68 o 0.699389
14 5 1 2522.38 2713.94 o 0.699368
14 5 -1 2522.37 2713.93 o 0.699368
8 8 10 42361.01 45568.74 o 0.699356
8 8 -10 42360.99 45568.72 o 0.699356
1 3 -15 5815.85 6384.86 o 0.699198
1 3 15 5815.86 6384.87 o 0.699198
3 1 15 4972.25 5433.39 o 0.699117
3 1 -15 4972.25 5433.39 o 0.699117
11 5 -9 5177.84 5656.24 o 0.698803
11 5 9 5177.84 5656.24 o 0.698803
8 12 4 2585.47 2826.49 o 0.698788
8 12 -4 2585.48 2826.50 o 0.698788
2 14 5 13042.80 13716.88 o 0.698559
2 14 -5 13042.79 13716.88 o 0.698559
3 10 11 21.14 21.66 o 0.698488
3 10 -11 21.14 21.66 o 0.698488
12 8 4 1877.67 1943.84 o 0.697984
12 8 -4 1877.66 1943.83 o 0.697984
0 8 13 27906.32 29888.00 o 0.697789
0 8 -13 27906.31 29887.99 o 0.697789
10 10 5 120.80 125.92 o 0.697597
10 10 -5 120.81 125.92 o 0.697597
10 3 11 892.41 947.78 o 0.697576
10 3 -11 892.41 947.78 o 0.697576
3 13 7 14832.27 14804.06 o 0.697336
3 13 -7 14832.31 14804.11 o 0.697336
8 0 -13 29761.08 30706.96 o 0.697149
8 0 13 29761.12 30707.00 o 0.697149
2 12 9 4301.54 4353.43 o 0.696862
2 12 -9 4301.53 4353.41 o 0.696862
3 11 10 13783.99 14020.87 o 0.696792
3 11 -10 13783.97 14020.85 o 0.696792
5 14 2 322.20 313.70 o 0.696653
5 14 -2 322.19 313.70 o 0.696653
14 2 5 12096.33 11777.25 o 0.696638
14 2 -5 12096.35 11777.26 o 0.696638
8 10 8 20594.29 20874.20 o 0.696445
8 10 -8 20594.28 20874.18 o 0.696445
7 9 10 9852.51 10089.93 o 0.696393
7 9 -10 9852.50 10089.92 o 0.696393
1 8 13 1350.68 1387.00 o 0.696228
1 8 -13 1350.69 1387.01 o 0.696228
10 8 8 20142.27 20870.33 o 0.696087
10 8 -8 20142.34 20870.41 o 0.696087
4 7 13 2914.04 3019.37 o 0.696079
4 7 -13 2914.04 3019.37 o 0.696079
9 7 10 6359.66 6589.54 o 0.696075
9 7 -10 6359.67 6589.55 o 0.696075
10 11 -2 104.06 109.50 o 0.695907
10 11 2 104.05 109.49 o 0.695907
9 12 0 18.39 19.72 o 0.695775
7 4 13 505.70 539.49 o 0.695751
7 4 -13 505.70 539.49 o 0.695751
13 3 7 14155.12 15116.40 o 0.695742
13 3 -7 14155.10 15116.38 o 0.695742
11 10 2 1492.04 1573.15 o 0.695698
11 10 -2 1492.01 1573.12 o 0.695698
11 3 10 20383.05 21619.41 o 0.695678
11 3 -10 20383.05 21619.41 o 0.695678
8 1 13 300.00 310.13 o 0.695602
8 1 -13 300.00 310.12 o 0.695602
5 8 12 485.42 474.87 o 0.695529
5 8 -12 485.43 474.88 o 0.695529
12 2 9 1418.68 1380.75 o 0.695470
12 2 -9 1418.67 1380.74 o 0.695470
2 6 14 13420.73 13241.80 o 0.695277
2 6 -14 13420.74 13241.80 o 0.695277
12 9 0 509.66 467.79 o 0.695150
8 5 12 143.40 130.46 o 0.695143
8 5 -12 143.40 130.46 o 0.695143
1 15 0 2125.29 1900.27 o 0.695028
6 2 -14 11546.86 10134.13 o 0.694960
6 2 14 11546.84 10134.11 o 0.694960
14 5 -2 1607.95 1416.46 o 0.694955
14 5 2 1607.93 1416.45 o 0.694955
7 10 9 823.47 706.24 o 0.694872
7 10 -9 823.47 706.24 o 0.694872
9 11 5 7074.01 7153.47 o 0.694696
9 11 -5 7074.01 7153.47 o 0.694696
2 3 15 113.75 114.15 o 0.694518
2 3 -15 113.75 114.15 o 0.694518
3 2 -15 499.03 494.02 o 0.694469
3 2 15 499.03 494.02 o 0.694469
10 7 9 281.43 289.01 o 0.694368
10 7 -9 281.43 289.01 o 0.694368
9 12 1 3195.21 3386.04 o 0.694317
9 12 -1 3195.19 3386.02 o 0.694317
11 9 5 7814.63 8375.33 o 0.694300
11 9 -5 7814.62 8375.31 o 0.694300
3 9 12 6332.32 6409.28 o 0.694151
3 9 -12 6332.32 6409.28 o 0.694151
6 12 7 4037.51 4254.15 o 0.693985
6 12 -7 4037.50 4254.14 o 0.693985
7 13 3 15073.18 15390.05 o 0.693738
7 13 -3 15073.23 15390.10 o 0.693738
12 9 -1 2322.06 2337.92 o 0.693696
12 9 1 2322.06 2337.91 o 0.693696
4 5 14 905.95 894.95 o 0.693625
4 5 -14 905.96 894.96 o 0.693625
1 15 -1 2195.91 2178.10 o 0.693575
1 15 1 2195.91 2178.09 o 0.693575
5 4 -14 1009.72 991.30 o 0.693536
5 4 14 1009.73 991.31 o 0.693536
9 3 12 3537.13 3566.67 o 0.693442
9 3 -12 3537.13 3566.67 o 0.693442
4 14 -4 20466.06 21022.39 o 0.693090
4 14 4 20466.08 21022.42 o 0.693090
12 6 7 2812.28 2965.10 o 0.692923
12 6 -7 2812.31 2965.13 o 0.692923
7 12 6 3208.84 3413.69 o 0.692826
7 12 -6 3208.84 3413.69 o 0.692826
15 1 0 2190.55 2320.76 o 0.692821
13 7 3 18574.74 19304.55 o 0.692559
13 7 -3 18574.72 19304.54 o 0.692559
9 10 7 280.50 270.51 o 0.692019
9 10 -7 280.51 270.51 o 0.692019
7 8 11 270.24 274.62 o 0.691937
7 8 -11 270.24 274.63 o 0.691937
12 7 -6 2429.51 2368.46 o 0.691896
12 7 6 2429.53 2368.48 o 0.691896
10 9 7 1904.41 1808.32 o 0.691833
10 9 -7 1904.41 1808.32 o 0.691833
8 7 11 887.30 824.90 o 0.691791
8 7 -11 887.31 824.91 o 0.691791
2 8 -13 12927.90 12206.63 o 0.691608
2 8 13 12927.91 12206.63 o 0.691608
5 13 -6 10048.92 9580.83 o 0.691542
5 13 6 10048.90 9580.81 o 0.691542
15 1 -1 1237.30 1194.88 o 0.691382
15 1 1 1237.29 1194.87 o 0.691382
14 4 4 21455.89 20459.54 o 0.691330
14 4 -4 21455.90 20459.55 o 0.691330
8 2 13 13665.90 12571.45 o 0.691024
8 2 -13 13665.89 12571.45 o 0.691024
3 14 5 3166.25 2834.29 o 0.690833
3 14 -5 3166.24 2834.27 o 0.690833
6 13 5 5294.26 4002.75 o 0.690571
6 13 -5 5294.28 4002.76 o 0.690571
2 15 0 5361.22 4083.32 o 0.690431
13 5 -6 4908.30 4015.84 o 0.690142
13 5 6 4908.31 4015.85 o 0.690142
0 4 15 9545.09 6816.35 o 0.690000
0 4 -15 9545.08 6816.34 o 0.690000
9 12 -2 1318.52 975.21 o 0.689998
9 12 2 1318.48 975.18 o 0.689998
4 0 15 8601.33 6769.88 o 0.689845
4 0 -15 8601.34 6769.89 o 0.689845
