#------------------------------------------------------------------------------
#$Date: 2019-10-29 22:52:19 +0200 (Tue, 29 Oct 2019) $
#$Revision: 220371 $
#$URL: file:///home/coder/svn-repositories/cod/cif/4/00/29/4002947.cif $
#------------------------------------------------------------------------------
#
# This file is available in the Crystallography Open Database (COD),
# http://www.crystallography.net/
#
# All data on this site have been placed in the public domain by the
# contributors.
#
data_4002947
loop_
_publ_author_name
'Gouget, Guillaume'
'Duttine, Mathieu'
'Chung, U-Chan'
'Fourcade, S\'ebastien'
'Mauvy, Fabrice'
'Braida, Marc-David'
'Le Mercier, Thierry'
'Demourgues, Alain'
_publ_section_title
;
 High Ionic Conductivity in Oxygen-Deficient Ti-Substituted Sodium
 Niobates and the Key Role of Structural Features
;
_journal_issue                   8
_journal_name_full               'Chemistry of Materials'
_journal_page_first              2828
_journal_paper_doi               10.1021/acs.chemmater.8b05292
_journal_volume                  31
_journal_year                    2019
_chemical_formula_sum            'Na Nb0.9 O2.95 Ti0.1'
_chemical_formula_weight         158.6
_space_group_IT_number           26
_space_group_name_Hall           'P -2a 2a'
_space_group_name_H-M_alt        'P 21 m a'
_symmetry_cell_setting           orthorhombic
_symmetry_Int_Tables_number      26
_symmetry_space_group_name_Hall  'P -2a 2a'
_symmetry_space_group_name_H-M   'P 21 m a'
_cell_angle_alpha                90
_cell_angle_beta                 90
_cell_angle_gamma                90
_cell_formula_units_Z            4
_cell_length_a                   5.5495(3)
_cell_length_b                   7.7714(4)
_cell_length_c                   5.5088(3)
_cell_measurement_temperature    293
_cell_volume                     237.58(2)
_diffrn_ambient_temperature      293
_diffrn_radiation_probe          x-ray
_diffrn_radiation_wavelength     1.541871
_exptl_absorpt_coefficient_mu    39.897
_exptl_crystal_density_diffrn    4.4338
_exptl_crystal_F_000             295
_pd_instr_location               ' ?'
_pd_meas_2theta_range_inc        0.017
_pd_meas_2theta_range_max        79.985
_pd_meas_2theta_range_min        8.024
_pd_meas_number_of_points        4234
_pd_proc_2theta_range_inc        0.017
_pd_proc_2theta_range_max        79.985
_pd_proc_2theta_range_min        8.024
_pd_proc_ls_background_function  'Manual background'
_pd_proc_ls_pref_orient_corr     none
_pd_proc_ls_profile_function     Pseudo-Voigt
_pd_proc_ls_prof_R_factor        0.0442
_pd_proc_ls_prof_wR_expected     0.0198
_pd_proc_ls_prof_wR_factor       0.0598
_refine_ls_goodness_of_fit_all   3.03
_refine_ls_number_constraints    4
_refine_ls_number_parameters     27
_refine_ls_number_restraints     0
_refine_ls_R_factor_all          0.0418
_refine_ls_R_factor_gt           0.0355
_refine_ls_shift/su_max          3.9414
_refine_ls_shift/su_mean         1.1780
_refine_ls_weighting_scheme      sigma
_refine_ls_wR_factor_all         0.0536
_refine_ls_wR_factor_gt          0.0510
_cod_data_source_file            cm8b05292_si_006.cif
_cod_data_source_block           I
_cod_depositor_comments
;
The following automatic conversions were performed:

'_diffrn_radiation_probe' value 'X-ray' changed to 'x-ray' according
to
/home/data/users/saulius/crontab/automatic-downloads/current/ACS/lib/dictionaries/cif_core.dic
dictionary named 'cif_core.dic' version 2.4.2 from 2011-04-26.

Automatic conversion script
Id: cif_fix_values 4973 2017-02-22 13:04:09Z antanas 
;
_cod_original_sg_symbol_Hall     'P 2xa;-2y;-2za'
_cod_original_formula_sum        'Na1 Nb0.9 O2.95 Ti0.1'
_cod_database_code               4002947
loop_
_space_group_symop_id
_space_group_symop_operation_xyz
1 x,y,z
2 x+1/2,-y,-z
3 x+1/2,y,-z
4 x,-y,z
loop_
_atom_site_label
_atom_site_type_symbol
_atom_site_fract_x
_atom_site_fract_y
_atom_site_fract_z
_atom_site_adp_type
_atom_site_U_iso_or_equiv
_atom_site_site_symmetry_multiplicity
_atom_site_occupancy
_atom_site_calc_flag
Nb1 Nb 0.2604(3) 0.2495(11) 0.2475(7) Uiso 0.0063 4 0.9 d
Ti1 Ti 0.2604(3) 0.2495(11) 0.2475(7) Uiso 0.0063 4 0.1 d
Na1 Na 0.293(3) 0 0.746(4) Uiso 0.0127 2 1 d
Na2 Na 0.292(3) 0.5 0.744(3) Uiso 0.0127 2 1 d
O1 O 0.185(3) 0 0.314(4) Uiso 0.0127 2 1 d
O2 O 0.226(5) 0.5 0.164(5) Uiso 0.0127 2 0.9667 d
O3 O 0.044(4) 0.267(4) 0.556(3) Uiso 0.0127 4 0.9667 d
O4 O -0.020(4) 0.228(3) 0.010(4) Uiso 0.0127 4 1 d
loop_
_atom_type_symbol
_atom_type_scat_dispersion_real
_atom_type_scat_dispersion_imag
_atom_type_scat_source
Na 0.1353 0.1239 'International Tables Vol C tables 4.2.6.8 and 6.1.1.1'
Nb -0.1121 2.4826 'International Tables Vol C tables 4.2.6.8 and 6.1.1.1'
O 0.0492 0.0322 'International Tables Vol C tables 4.2.6.8 and 6.1.1.1'
Ti 0.2191 1.8069 'International Tables Vol C tables 4.2.6.8 and 6.1.1.1'
loop_
_geom_bond_atom_site_label_1
_geom_bond_atom_site_label_2
_geom_bond_site_symmetry_2
_geom_bond_distance
Nb1 Ti1 . 0
Nb1 Na1 1_554 3.37975(12)
Nb1 Na1 . 3.36744(12)
Nb1 Na1 2_456 3.23785(11)
Nb1 Na1 2_556 3.53637(13)
Nb1 Na2 1_554 3.39048(12)
Nb1 Na2 . 3.36391(11)
Nb1 Na2 2_466 3.24862(11)
Nb1 Na2 2_566 3.53355(13)
Nb1 O3 3_556 1.91334(7)
Nb1 O4 3_555 1.87602(6)
Ti1 Na1 1_554 3.37975(12)
Ti1 Na1 . 3.36744(12)
Ti1 Na1 2_456 3.23785(11)
Ti1 Na1 2_556 3.53637(13)
Ti1 Na2 1_554 3.39048(12)
Ti1 Na2 . 3.36391(11)
Ti1 Na2 2_466 3.24862(11)
Ti1 Na2 2_566 3.53355(13)
Ti1 O1 . 2.01772(8)
Ti1 O2 . 2.00900(8)
Ti1 O3 . 2.08683(7)
Ti1 O3 3_556 1.91334(7)
Ti1 O4 . 2.04112(7)
Ti1 O4 3_555 1.87602(6)
Na1 Na1 2_456 3.87949(13)
Na1 Na1 2_457 3.94020(13)
Na1 Na1 2_556 3.87949(13)
Na1 Na1 2_557 3.94020(13)
Na1 Na2 1_545 3.88573(16)
Na1 Na2 . 3.88573(16)
Na1 O1 2_556 2.19658(10)
Na2 Na2 2_466 3.86729(13)
Na2 Na2 2_467 3.95264(13)
Na2 Na2 2_566 3.86729(13)
Na2 Na2 2_567 3.95264(13)
Na2 O2 1_556 2.33845(11)
loop_
_pd_proc_point_id
_pd_proc_2theta_corrected
_pd_proc_intensity_net
_pd_calc_intensity_net
_pd_proc_ls_weight
1 8.0480 2613.00 2636.00 51.00
2 8.0650 2676.00 2632.07 52.00
3 8.0820 2632.00 2628.15 51.00
4 8.0990 2612.00 2624.22 51.00
5 8.1160 2635.00 2620.29 51.00
6 8.1330 2722.00 2616.36 52.00
7 8.1500 2648.00 2612.43 51.00
8 8.1670 2624.00 2608.51 51.00
9 8.1840 2658.00 2604.58 52.00
10 8.2010 2630.00 2600.65 51.00
11 8.2180 2612.00 2596.72 51.00
12 8.2350 2591.00 2592.80 51.00
13 8.2520 2613.00 2588.87 51.00
14 8.2690 2626.00 2584.94 51.00
15 8.2860 2620.00 2581.01 51.00
16 8.3030 2547.00 2577.09 50.00
17 8.3200 2599.00 2573.16 51.00
18 8.3370 2573.00 2569.23 51.00
19 8.3540 2575.00 2565.30 51.00
20 8.3710 2529.00 2561.38 50.00
21 8.3880 2424.00 2557.45 49.00
22 8.4050 2513.00 2553.52 50.00
23 8.4220 2589.00 2549.59 51.00
24 8.4390 2467.00 2545.67 50.00
25 8.4560 2533.00 2541.74 50.00
26 8.4730 2572.00 2537.81 51.00
27 8.4900 2452.00 2533.88 50.00
28 8.5070 2449.00 2529.96 49.00
29 8.5240 2507.00 2526.03 50.00
30 8.5410 2525.00 2522.10 50.00
31 8.5580 2529.00 2518.17 50.00
32 8.5750 2473.00 2514.25 50.00
33 8.5920 2551.00 2510.32 51.00
34 8.6090 2537.00 2506.39 50.00
35 8.6260 2507.00 2502.46 50.00
36 8.6430 2449.00 2498.54 49.00
37 8.6600 2494.00 2494.61 50.00
38 8.6770 2508.00 2490.68 50.00
39 8.6940 2492.00 2486.75 50.00
40 8.7110 2462.00 2482.83 50.00
41 8.7280 2518.00 2478.90 50.00
42 8.7450 2460.00 2474.97 50.00
43 8.7620 2426.00 2471.04 49.00
44 8.7790 2449.00 2467.12 49.00
45 8.7960 2461.00 2463.19 50.00
46 8.8130 2434.00 2459.26 49.00
47 8.8300 2470.00 2455.33 50.00
48 8.8470 2458.00 2451.41 50.00
49 8.8640 2420.00 2447.48 49.00
50 8.8810 2451.00 2443.55 50.00
51 8.8980 2473.00 2439.62 50.00
52 8.9150 2437.00 2435.70 49.00
53 8.9320 2409.00 2431.77 49.00
54 8.9490 2437.00 2427.84 49.00
55 8.9660 2436.00 2423.91 49.00
56 8.9830 2401.00 2419.99 49.00
57 9.0000 2448.00 2416.06 49.00
58 9.0170 2449.00 2412.13 49.00
59 9.0340 2401.00 2408.20 49.00
60 9.0510 2402.00 2404.27 49.00
61 9.0680 2404.00 2400.35 49.00
62 9.0850 2386.00 2396.42 49.00
63 9.1020 2357.00 2392.49 49.00
64 9.1190 2332.00 2388.56 48.00
65 9.1360 2307.00 2384.64 48.00
66 9.1530 2384.00 2380.71 49.00
67 9.1700 2328.00 2376.78 48.00
68 9.1870 2373.00 2372.85 49.00
69 9.2040 2328.00 2368.93 48.00
70 9.2210 2381.00 2365.00 49.00
71 9.2380 2431.00 2361.07 49.00
72 9.2550 2395.00 2357.14 49.00
73 9.2720 2350.00 2353.22 48.00
74 9.2890 2399.00 2349.29 49.00
75 9.3060 2417.00 2345.36 49.00
76 9.3230 2343.00 2341.43 48.00
77 9.3400 2312.00 2337.51 48.00
78 9.3570 2391.00 2333.58 49.00
79 9.3740 2350.00 2329.65 48.00
80 9.3910 2410.00 2325.72 49.00
81 9.4080 2371.00 2321.80 49.00
82 9.4250 2295.00 2317.87 48.00
83 9.4420 2290.00 2313.94 48.00
84 9.4590 2327.00 2310.01 48.00
85 9.4760 2318.00 2306.09 48.00
86 9.4930 2273.00 2302.16 48.00
87 9.5100 2344.00 2298.23 48.00
88 9.5270 2409.00 2296.28 49.00
89 9.5440 2240.00 2294.45 47.00
90 9.5610 2310.00 2292.63 48.00
91 9.5780 2294.00 2290.80 48.00
92 9.5950 2301.00 2288.99 48.00
93 9.6120 2393.00 2287.17 49.00
94 9.6290 2308.00 2285.35 48.00
95 9.6460 2311.00 2283.52 48.00
96 9.6630 2366.00 2281.70 49.00
97 9.6800 2287.00 2279.87 48.00
98 9.6970 2241.00 2278.04 47.00
99 9.7140 2274.00 2276.22 48.00
100 9.7310 2310.00 2274.39 48.00
101 9.7480 2229.00 2272.57 47.00
102 9.7650 2314.00 2270.74 48.00
103 9.7820 2259.00 2268.91 48.00
104 9.7990 2208.00 2267.09 47.00
105 9.8160 2185.00 2265.26 47.00
106 9.8330 2310.00 2263.43 48.00
107 9.8500 2303.00 2261.61 48.00
108 9.8670 2247.00 2259.78 47.00
109 9.8840 2271.00 2257.96 48.00
110 9.9010 2267.00 2256.13 48.00
111 9.9180 2272.00 2254.30 48.00
112 9.9350 2266.00 2252.48 48.00
113 9.9520 2261.00 2250.65 48.00
114 9.9690 2235.00 2248.83 47.00
115 9.9860 2277.00 2247.00 48.00
116 10.0030 2288.00 2245.18 48.00
117 10.0200 2272.00 2243.35 48.00
118 10.0370 2185.00 2241.52 47.00
119 10.0540 2206.00 2239.70 47.00
120 10.0710 2234.00 2237.87 47.00
121 10.0880 2252.00 2236.05 47.00
122 10.1050 2227.00 2234.22 47.00
123 10.1220 2255.00 2232.40 47.00
124 10.1390 2236.00 2230.57 47.00
125 10.1560 2221.00 2228.75 47.00
126 10.1730 2192.00 2226.92 47.00
127 10.1900 2206.00 2225.10 47.00
128 10.2070 2211.00 2223.27 47.00
129 10.2240 2195.00 2221.45 47.00
130 10.2410 2182.00 2219.62 47.00
131 10.2580 2226.00 2217.80 47.00
132 10.2750 2146.00 2215.97 46.00
133 10.2920 2186.00 2214.15 47.00
134 10.3090 2195.00 2212.32 47.00
135 10.3260 2183.00 2210.50 47.00
136 10.3430 2226.00 2208.67 47.00
137 10.3600 2245.00 2206.85 47.00
138 10.3770 2212.00 2205.03 47.00
139 10.3940 2195.00 2203.20 47.00
140 10.4110 2197.00 2201.38 47.00
141 10.4280 2202.00 2199.56 47.00
142 10.4450 2217.00 2197.73 47.00
143 10.4620 2288.00 2195.91 48.00
144 10.4790 2294.00 2194.09 48.00
145 10.4960 2329.00 2192.26 48.00
146 10.5130 2313.00 2190.44 48.00
147 10.5300 2343.00 2188.62 48.00
148 10.5470 2430.00 2186.80 49.00
149 10.5640 2409.00 2184.98 49.00
150 10.5810 2350.00 2183.15 48.00
151 10.5980 2352.00 2181.33 48.00
152 10.6150 2256.00 2179.51 47.00
153 10.6320 2223.00 2177.69 47.00
154 10.6490 2190.00 2175.87 47.00
155 10.6660 2221.00 2174.05 47.00
156 10.6830 2131.00 2172.24 46.00
157 10.7000 2117.00 2170.42 46.00
158 10.7170 2165.00 2168.60 47.00
159 10.7340 2208.00 2166.78 47.00
160 10.7510 2253.00 2164.97 47.00
161 10.7680 2150.00 2163.15 46.00
162 10.7850 2185.00 2161.34 47.00
163 10.8020 2187.00 2159.53 47.00
164 10.8190 2131.00 2157.72 46.00
165 10.8360 2146.00 2155.91 46.00
166 10.8530 2178.00 2154.10 47.00
167 10.8700 2205.00 2152.29 47.00
168 10.8870 2177.00 2150.49 47.00
169 10.9040 2138.00 2148.69 46.00
170 10.9210 2129.00 2146.89 46.00
171 10.9380 2167.00 2145.09 47.00
172 10.9550 2204.00 2143.30 47.00
173 10.9720 2182.00 2141.51 47.00
174 10.9890 2183.00 2139.29 47.00
175 11.0060 2137.00 2137.08 46.00
176 11.0230 2108.00 2134.87 46.00
177 11.0400 2131.00 2132.67 46.00
178 11.0570 2217.00 2130.48 47.00
179 11.0740 2201.00 2128.31 47.00
180 11.0910 2161.00 2126.15 46.00
181 11.1080 2200.00 2124.02 47.00
182 11.1250 2157.00 2121.91 46.00
183 11.1420 2186.00 2119.84 47.00
184 11.1590 2213.00 2117.82 47.00
185 11.1760 2164.00 2115.86 47.00
186 11.1930 2116.00 2113.97 46.00
187 11.2100 2255.00 2112.18 47.00
188 11.2270 2207.00 2110.51 47.00
189 11.2440 2164.00 2109.04 47.00
190 11.2610 2163.00 2107.92 47.00
191 11.2780 2259.00 2107.33 48.00
192 11.2950 2145.00 2107.56 46.00
193 11.3120 2216.00 2109.06 47.00
194 11.3290 2221.00 2112.54 47.00
195 11.3460 2186.00 2118.78 47.00
196 11.3630 2161.00 2127.41 46.00
197 11.3800 2154.00 2135.23 46.00
198 11.3970 2202.00 2137.62 47.00
199 11.4140 2217.00 2132.57 47.00
200 11.4310 2206.00 2121.65 47.00
201 11.4480 2132.00 2108.49 46.00
202 11.4650 2152.00 2096.27 46.00
203 11.4820 2166.00 2086.53 47.00
204 11.4990 2133.00 2079.35 46.00
205 11.5160 2145.00 2074.15 46.00
206 11.5330 2167.00 2070.20 47.00
207 11.5500 2134.00 2066.97 46.00
208 11.5670 2120.00 2064.12 46.00
209 11.5840 2217.00 2061.48 47.00
210 11.6010 2136.00 2058.94 46.00
211 11.6180 2066.00 2056.47 45.00
212 11.6350 2154.00 2054.03 46.00
213 11.6520 2117.00 2051.62 46.00
214 11.6690 2088.00 2049.23 46.00
215 11.6860 2075.00 2046.86 46.00
216 11.7030 2102.00 2044.50 46.00
217 11.7200 2149.00 2042.15 46.00
218 11.7370 2096.00 2039.81 46.00
219 11.7540 2061.00 2037.49 45.00
220 11.7710 2160.00 2035.17 46.00
221 11.7880 2122.00 2032.85 46.00
222 11.8050 2121.00 2030.55 46.00
223 11.8220 2144.00 2028.24 46.00
224 11.8390 2156.00 2025.94 46.00
225 11.8560 2054.00 2023.65 45.00
226 11.8730 2047.00 2021.36 45.00
227 11.8900 2035.00 2019.07 45.00
228 11.9070 2120.00 2016.78 46.00
229 11.9240 2092.00 2014.50 46.00
230 11.9410 2039.00 2012.21 45.00
231 11.9580 2063.00 2009.93 45.00
232 11.9750 2026.00 2007.65 45.00
233 11.9920 2018.00 2005.38 45.00
234 12.0090 1999.00 2003.10 45.00
235 12.0260 2038.00 2000.82 45.00
236 12.0430 2057.00 1998.55 45.00
237 12.0600 2062.00 1996.27 45.00
238 12.0770 2043.00 1994.00 45.00
239 12.0940 2018.00 1991.72 45.00
240 12.1110 2046.00 1989.45 45.00
241 12.1280 2088.00 1987.18 46.00
242 12.1450 1993.00 1984.91 45.00
243 12.1620 1963.00 1982.64 44.00
244 12.1790 1939.00 1980.37 44.00
245 12.1960 1967.00 1978.10 44.00
246 12.2130 2015.00 1975.83 45.00
247 12.2300 2040.00 1973.56 45.00
248 12.2470 2038.00 1971.29 45.00
249 12.2640 2074.00 1969.02 46.00
250 12.2810 2031.00 1966.75 45.00
251 12.2980 1974.00 1964.48 44.00
252 12.3150 1967.00 1962.21 44.00
253 12.3320 1929.00 1959.94 44.00
254 12.3490 1966.00 1957.68 44.00
255 12.3660 1899.00 1955.41 44.00
256 12.3830 1940.00 1953.14 44.00
257 12.4000 1948.00 1950.87 44.00
258 12.4170 2065.00 1948.61 45.00
259 12.4340 1943.00 1946.34 44.00
260 12.4510 2005.00 1944.07 45.00
261 12.4680 1993.00 1941.80 45.00
262 12.4850 1947.00 1939.54 44.00
263 12.5020 1964.00 1937.27 44.00
264 12.5190 1952.00 1935.57 44.00
265 12.5360 1932.00 1934.52 44.00
266 12.5530 1901.00 1933.46 44.00
267 12.5700 2033.00 1932.40 45.00
268 12.5870 1966.00 1931.35 44.00
269 12.6040 1968.00 1930.29 44.00
270 12.6210 2066.00 1929.23 45.00
271 12.6380 1963.00 1928.18 44.00
272 12.6550 2060.00 1927.12 45.00
273 12.6720 1921.00 1926.06 44.00
274 12.6890 1909.00 1925.01 44.00
275 12.7060 1984.00 1923.95 45.00
276 12.7230 1911.00 1922.89 44.00
277 12.7400 1937.00 1921.84 44.00
278 12.7570 1910.00 1920.78 44.00
279 12.7740 1963.00 1919.73 44.00
280 12.7910 1940.00 1918.67 44.00
281 12.8080 1891.00 1917.61 43.00
282 12.8250 1922.00 1916.56 44.00
283 12.8420 1890.00 1915.50 43.00
284 12.8590 1904.00 1914.45 44.00
285 12.8760 1945.00 1913.39 44.00
286 12.8930 1967.00 1912.33 44.00
287 12.9100 1909.00 1911.28 44.00
288 12.9270 1913.00 1910.22 44.00
289 12.9440 1924.00 1909.17 44.00
290 12.9610 1975.00 1908.11 44.00
291 12.9780 1942.00 1907.06 44.00
292 12.9950 1917.00 1906.00 44.00
293 13.0120 1910.00 1904.94 44.00
294 13.0290 1895.00 1903.89 44.00
295 13.0460 1980.00 1902.83 44.00
296 13.0630 1959.00 1901.78 44.00
297 13.0800 1944.00 1900.72 44.00
298 13.0970 1947.00 1899.67 44.00
299 13.1140 1941.00 1898.61 44.00
300 13.1310 1932.00 1897.56 44.00
301 13.1480 1908.00 1896.50 44.00
302 13.1650 1944.00 1895.43 44.00
303 13.1820 1954.00 1894.37 44.00
304 13.1990 1983.00 1893.31 45.00
305 13.2160 1924.00 1892.25 44.00
306 13.2330 1916.00 1891.20 44.00
307 13.2500 1839.00 1890.14 43.00
308 13.2670 1863.00 1889.09 43.00
309 13.2840 1921.00 1888.03 44.00
310 13.3010 1901.00 1886.98 44.00
311 13.3180 1957.00 1885.92 44.00
312 13.3350 1837.00 1884.87 43.00
313 13.3520 1864.00 1883.81 43.00
314 13.3690 1980.00 1882.76 44.00
315 13.3860 1887.00 1881.70 43.00
316 13.4030 1925.00 1880.65 44.00
317 13.4200 1889.00 1879.59 43.00
318 13.4370 1893.00 1878.54 44.00
319 13.4540 1845.00 1877.48 43.00
320 13.4710 1812.00 1876.43 43.00
321 13.4880 1886.00 1875.37 43.00
322 13.5050 1955.00 1874.32 44.00
323 13.5220 1922.00 1873.26 44.00
324 13.5390 1896.00 1872.21 44.00
325 13.5560 1965.00 1871.15 44.00
326 13.5730 1814.00 1870.10 43.00
327 13.5900 1823.00 1869.04 43.00
328 13.6070 1903.00 1867.99 44.00
329 13.6240 1854.00 1866.93 43.00
330 13.6410 1908.00 1865.88 44.00
331 13.6580 1873.00 1864.82 43.00
332 13.6750 1867.00 1863.77 43.00
333 13.6920 1817.00 1862.71 43.00
334 13.7090 1819.00 1861.66 43.00
335 13.7260 1796.00 1860.60 42.00
336 13.7430 1881.00 1859.55 43.00
337 13.7600 1899.00 1858.49 44.00
338 13.7770 1849.00 1857.44 43.00
339 13.7940 1867.00 1856.38 43.00
340 13.8110 1925.00 1855.33 44.00
341 13.8280 1857.00 1854.27 43.00
342 13.8450 1802.00 1853.22 42.00
343 13.8620 1784.00 1852.16 42.00
344 13.8790 1803.00 1851.11 42.00
345 13.8960 1820.00 1850.05 43.00
346 13.9130 1859.00 1849.00 43.00
347 13.9300 1800.00 1847.80 42.00
348 13.9470 1860.00 1846.61 43.00
349 13.9640 1871.00 1845.41 43.00
350 13.9810 1825.00 1844.22 43.00
351 13.9980 1801.00 1843.02 42.00
352 14.0150 1848.00 1841.82 43.00
353 14.0320 1851.00 1840.63 43.00
354 14.0490 1804.00 1839.43 42.00
355 14.0660 1798.00 1838.24 42.00
356 14.0830 1860.00 1837.04 43.00
357 14.1000 1858.00 1835.85 43.00
358 14.1170 1853.00 1834.65 43.00
359 14.1340 1860.00 1833.45 43.00
360 14.1510 1817.00 1832.32 43.00
361 14.1680 1824.00 1831.12 43.00
362 14.1850 1826.00 1829.95 43.00
363 14.2020 1837.00 1828.76 43.00
364 14.2190 1844.00 1827.57 43.00
365 14.2360 1858.00 1826.37 43.00
366 14.2530 1824.00 1825.18 43.00
367 14.2700 1836.00 1823.98 43.00
368 14.2870 1832.00 1822.79 43.00
369 14.3040 1765.00 1821.60 42.00
370 14.3210 1855.00 1820.40 43.00
371 14.3380 1828.00 1819.21 43.00
372 14.3550 1863.00 1818.01 43.00
373 14.3720 1898.00 1816.82 44.00
374 14.3890 1821.00 1815.63 43.00
375 14.4060 1747.00 1814.43 42.00
376 14.4230 1803.00 1813.24 42.00
377 14.4400 1876.00 1812.05 43.00
378 14.4570 1852.00 1810.85 43.00
379 14.4740 1799.00 1809.66 42.00
380 14.4910 1891.00 1808.47 43.00
381 14.5080 1779.00 1807.27 42.00
382 14.5250 1815.00 1806.08 43.00
383 14.5420 1883.00 1804.89 43.00
384 14.5590 1862.00 1803.69 43.00
385 14.5760 1798.00 1802.50 42.00
386 14.5930 1872.00 1801.31 43.00
387 14.6100 1806.00 1800.12 42.00
388 14.6270 1808.00 1798.92 43.00
389 14.6440 1973.00 1797.73 44.00
390 14.6610 1833.00 1796.54 43.00
391 14.6780 1814.00 1795.35 43.00
392 14.6950 1801.00 1794.16 42.00
393 14.7120 1793.00 1792.96 42.00
394 14.7290 1797.00 1791.77 42.00
395 14.7460 1834.00 1790.58 43.00
396 14.7630 1922.00 1789.39 44.00
397 14.7800 1905.00 1788.20 44.00
398 14.7970 1762.00 1787.01 42.00
399 14.8140 1795.00 1785.82 42.00
400 14.8310 1779.00 1784.63 42.00
401 14.8480 1842.00 1783.44 43.00
402 14.8650 1877.00 1782.25 43.00
403 14.8820 1809.00 1781.06 43.00
404 14.8990 1822.00 1779.87 43.00
405 14.9160 1847.00 1778.68 43.00
406 14.9330 1816.00 1777.49 43.00
407 14.9500 1788.00 1776.30 42.00
408 14.9670 1790.00 1775.11 42.00
409 14.9840 1806.00 1773.92 42.00
410 15.0010 1865.00 1772.74 43.00
411 15.0180 1885.00 1771.55 43.00
412 15.0350 1813.00 1770.36 43.00
413 15.0520 1747.00 1769.18 42.00
414 15.0690 1791.00 1767.99 42.00
415 15.0860 1797.00 1766.80 42.00
416 15.1030 1774.00 1765.62 42.00
417 15.1200 1839.00 1764.44 43.00
418 15.1370 1863.00 1763.25 43.00
419 15.1540 1814.00 1762.07 43.00
420 15.1710 1805.00 1760.89 42.00
421 15.1880 1769.00 1759.71 42.00
422 15.2050 1773.00 1758.52 42.00
423 15.2220 1819.00 1757.35 43.00
424 15.2390 1787.00 1756.17 42.00
425 15.2560 1782.00 1754.99 42.00
426 15.2730 1833.00 1753.81 43.00
427 15.2900 1819.00 1752.64 43.00
428 15.3070 1847.00 1751.46 43.00
429 15.3240 1732.00 1750.29 42.00
430 15.3410 1663.00 1749.12 41.00
431 15.3580 1776.00 1747.95 42.00
432 15.3750 1803.00 1746.99 42.00
433 15.3920 1782.00 1746.13 42.00
434 15.4090 1808.00 1745.26 43.00
435 15.4260 1800.00 1744.40 42.00
436 15.4430 1791.00 1743.54 42.00
437 15.4600 1837.00 1742.69 43.00
438 15.4770 1776.00 1741.83 42.00
439 15.4940 1844.00 1740.99 43.00
440 15.5110 1785.00 1740.14 42.00
441 15.5280 1794.00 1739.30 42.00
442 15.5450 1869.00 1738.47 43.00
443 15.5620 1835.00 1737.64 43.00
444 15.5790 1780.00 1736.82 42.00
445 15.5960 1757.00 1736.01 42.00
446 15.6130 1744.00 1735.20 42.00
447 15.6300 1818.00 1734.41 43.00
448 15.6470 1842.00 1733.63 43.00
449 15.6640 1788.00 1732.86 42.00
450 15.6810 1725.00 1732.11 42.00
451 15.6980 1808.00 1731.38 43.00
452 15.7150 1769.00 1730.67 42.00
453 15.7320 1822.00 1729.99 43.00
454 15.7490 1787.00 1729.34 42.00
455 15.7660 1836.00 1728.74 43.00
456 15.7830 1781.00 1728.19 42.00
457 15.8000 1804.00 1727.71 42.00
458 15.8170 1884.00 1727.31 43.00
459 15.8340 1810.00 1727.02 43.00
460 15.8510 1796.00 1726.86 42.00
461 15.8680 1956.00 1726.87 44.00
462 15.8850 1897.00 1727.09 44.00
463 15.9020 1798.00 1727.62 42.00
464 15.9190 1829.00 1728.62 43.00
465 15.9360 1790.00 1730.42 42.00
466 15.9530 1829.00 1733.54 43.00
467 15.9700 1873.00 1738.71 43.00
468 15.9870 1893.00 1746.87 44.00
469 16.0040 1830.00 1759.19 43.00
470 16.0210 1862.00 1776.95 43.00
471 16.0380 1863.00 1801.01 43.00
472 16.0550 1930.00 1829.87 44.00
473 16.0720 1877.00 1857.11 43.00
474 16.0890 1816.00 1873.13 43.00
475 16.1060 1792.00 1872.64 42.00
476 16.1230 1800.00 1856.69 42.00
477 16.1400 1789.00 1829.93 42.00
478 16.1570 1808.00 1799.35 43.00
479 16.1740 1836.00 1771.23 43.00
480 16.1910 1783.00 1748.84 42.00
481 16.2080 1776.00 1732.76 42.00
482 16.2250 1878.00 1722.01 43.00
483 16.2420 1806.00 1715.04 42.00
484 16.2590 1787.00 1710.48 42.00
485 16.2760 1763.00 1707.33 42.00
486 16.2930 1823.00 1704.95 43.00
487 16.3100 1740.00 1703.03 42.00
488 16.3270 1779.00 1701.36 42.00
489 16.3440 1734.00 1699.85 42.00
490 16.3610 1756.00 1698.44 42.00
491 16.3780 1866.00 1697.11 43.00
492 16.3950 1808.00 1695.85 43.00
493 16.4120 1678.00 1694.63 41.00
494 16.4290 1762.00 1693.45 42.00
495 16.4460 1716.00 1692.31 41.00
496 16.4630 1721.00 1691.20 41.00
497 16.4800 1770.00 1690.11 42.00
498 16.4970 1764.00 1689.05 42.00
499 16.5140 1719.00 1688.00 41.00
500 16.5310 1804.00 1686.97 42.00
501 16.5480 1760.00 1685.96 42.00
502 16.5650 1759.00 1684.95 42.00
503 16.5820 1783.00 1683.96 42.00
504 16.5990 1733.00 1682.98 42.00
505 16.6160 1762.00 1682.00 42.00
506 16.6330 1734.00 1681.04 42.00
507 16.6500 1744.00 1680.07 42.00
508 16.6670 1769.00 1679.12 42.00
509 16.6840 1771.00 1678.17 42.00
510 16.7010 1750.00 1677.22 42.00
511 16.7180 1773.00 1676.28 42.00
512 16.7350 1723.00 1675.34 42.00
513 16.7520 1666.00 1674.40 41.00
514 16.7690 1779.00 1673.47 42.00
515 16.7860 1747.00 1672.54 42.00
516 16.8030 1672.00 1671.61 41.00
517 16.8200 1730.00 1670.68 42.00
518 16.8370 1745.00 1669.76 42.00
519 16.8540 1737.00 1668.83 42.00
520 16.8710 1744.00 1667.91 42.00
521 16.8880 1733.00 1666.99 42.00
522 16.9050 1715.00 1666.08 41.00
523 16.9220 1746.00 1665.16 42.00
524 16.9390 1721.00 1664.24 41.00
525 16.9560 1687.00 1663.33 41.00
526 16.9730 1673.00 1662.42 41.00
527 16.9900 1621.00 1661.50 40.00
528 17.0070 1629.00 1660.06 40.00
529 17.0240 1623.00 1658.56 40.00
530 17.0410 1627.00 1657.05 40.00
531 17.0580 1659.00 1655.55 41.00
532 17.0750 1683.00 1654.04 41.00
533 17.0920 1637.00 1652.54 40.00
534 17.1090 1609.00 1651.04 40.00
535 17.1260 1643.00 1649.53 41.00
536 17.1430 1655.00 1648.03 41.00
537 17.1600 1683.00 1646.53 41.00
538 17.1770 1626.00 1645.03 40.00
539 17.1940 1695.00 1643.53 41.00
540 17.2110 1675.00 1642.03 41.00
541 17.2280 1679.00 1640.53 41.00
542 17.2450 1665.00 1639.03 41.00
543 17.2620 1674.00 1637.53 41.00
544 17.2790 1670.00 1636.03 41.00
545 17.2960 1627.00 1634.53 40.00
546 17.3130 1663.00 1633.03 41.00
547 17.3300 1685.00 1631.53 41.00
548 17.3470 1629.00 1630.03 40.00
549 17.3640 1545.00 1628.53 39.00
550 17.3810 1543.00 1627.04 39.00
551 17.3980 1562.00 1625.54 40.00
552 17.4150 1618.00 1624.04 40.00
553 17.4320 1646.00 1622.54 41.00
554 17.4490 1571.00 1621.05 40.00
555 17.4660 1637.00 1619.55 40.00
556 17.4830 1605.00 1618.05 40.00
557 17.5000 1655.00 1616.56 41.00
558 17.5170 1639.00 1615.06 40.00
559 17.5340 1635.00 1613.56 40.00
560 17.5510 1654.00 1612.07 41.00
561 17.5680 1583.00 1610.57 40.00
562 17.5850 1608.00 1609.08 40.00
563 17.6020 1628.00 1607.58 40.00
564 17.6190 1569.00 1606.08 40.00
565 17.6360 1630.00 1604.59 40.00
566 17.6530 1655.00 1603.09 41.00
567 17.6700 1614.00 1601.67 40.00
568 17.6870 1649.00 1600.18 41.00
569 17.7040 1564.00 1598.72 40.00
570 17.7210 1585.00 1597.23 40.00
571 17.7380 1626.00 1595.74 40.00
572 17.7550 1632.00 1594.24 40.00
573 17.7720 1564.00 1592.75 40.00
574 17.7890 1628.00 1591.26 40.00
575 17.8060 1649.00 1589.77 41.00
576 17.8230 1623.00 1588.27 40.00
577 17.8400 1515.00 1586.78 39.00
578 17.8570 1581.00 1585.29 40.00
579 17.8740 1633.00 1583.80 40.00
580 17.8910 1637.00 1582.30 40.00
581 17.9080 1569.00 1580.81 40.00
582 17.9250 1486.00 1579.32 39.00
583 17.9420 1544.00 1577.83 39.00
584 17.9590 1601.00 1576.34 40.00
585 17.9760 1554.00 1574.85 39.00
586 17.9930 1521.00 1573.35 39.00
587 18.0100 1550.00 1571.86 39.00
588 18.0270 1617.00 1570.32 40.00
589 18.0440 1611.00 1568.83 40.00
590 18.0610 1662.00 1567.31 41.00
591 18.0780 1637.00 1565.82 40.00
592 18.0950 1628.00 1564.33 40.00
593 18.1120 1588.00 1562.84 40.00
594 18.1290 1563.00 1561.35 40.00
595 18.1460 1548.00 1559.86 39.00
596 18.1630 1621.00 1558.37 40.00
597 18.1800 1561.00 1556.89 40.00
598 18.1970 1522.00 1555.40 39.00
599 18.2140 1592.00 1553.91 40.00
600 18.2310 1592.00 1552.42 40.00
601 18.2480 1618.00 1550.93 40.00
602 18.2650 1585.00 1549.45 40.00
603 18.2820 1638.00 1547.96 40.00
604 18.2990 1570.00 1546.47 40.00
605 18.3160 1629.00 1544.98 40.00
606 18.3330 1647.00 1543.50 41.00
607 18.3500 1708.00 1542.01 41.00
608 18.3670 1605.00 1540.52 40.00
609 18.3840 1584.00 1539.04 40.00
610 18.4010 1654.00 1537.55 41.00
611 18.4180 1584.00 1536.07 40.00
612 18.4350 1547.00 1535.44 39.00
613 18.4520 1589.00 1535.79 40.00
614 18.4690 1594.00 1536.14 40.00
615 18.4860 1494.00 1536.48 39.00
616 18.5030 1492.00 1536.83 39.00
617 18.5200 1604.00 1537.18 40.00
618 18.5370 1604.00 1537.53 40.00
619 18.5540 1482.00 1537.88 38.00
620 18.5710 1545.00 1538.23 39.00
621 18.5880 1554.00 1538.58 39.00
622 18.6050 1562.00 1538.93 40.00
623 18.6220 1594.00 1539.28 40.00
624 18.6390 1599.00 1539.63 40.00
625 18.6560 1586.00 1539.98 40.00
626 18.6730 1575.00 1540.34 40.00
627 18.6900 1576.00 1540.69 40.00
628 18.7070 1631.00 1541.04 40.00
629 18.7240 1650.00 1541.40 41.00
630 18.7410 1597.00 1541.75 40.00
631 18.7580 1613.00 1542.11 40.00
632 18.7750 1644.00 1542.47 41.00
633 18.7920 1561.00 1542.83 40.00
634 18.8090 1561.00 1543.18 40.00
635 18.8260 1610.00 1543.54 40.00
636 18.8430 1549.00 1543.91 39.00
637 18.8600 1579.00 1544.27 40.00
638 18.8770 1508.00 1544.63 39.00
639 18.8940 1512.00 1545.00 39.00
640 18.9110 1586.00 1545.36 40.00
641 18.9280 1602.00 1545.73 40.00
642 18.9450 1607.00 1546.10 40.00
643 18.9620 1584.00 1546.47 40.00
644 18.9790 1538.00 1546.85 39.00
645 18.9960 1564.00 1547.22 40.00
646 19.0130 1591.00 1547.60 40.00
647 19.0300 1548.00 1547.98 39.00
648 19.0470 1539.00 1548.37 39.00
649 19.0640 1601.00 1548.76 40.00
650 19.0810 1558.00 1549.15 39.00
651 19.0980 1661.00 1549.55 41.00
652 19.1150 1678.00 1549.95 41.00
653 19.1320 1594.00 1550.35 40.00
654 19.1490 1530.00 1550.76 39.00
655 19.1660 1499.00 1551.18 39.00
656 19.1830 1554.00 1551.60 39.00
657 19.2000 1546.00 1552.04 39.00
658 19.2170 1578.00 1552.48 40.00
659 19.2340 1637.00 1552.93 40.00
660 19.2510 1589.00 1553.39 40.00
661 19.2680 1570.00 1553.86 40.00
662 19.2850 1580.00 1554.35 40.00
663 19.3020 1566.00 1554.86 40.00
664 19.3190 1616.00 1555.39 40.00
665 19.3360 1516.00 1555.93 39.00
666 19.3530 1593.00 1556.51 40.00
667 19.3700 1568.00 1557.12 40.00
668 19.3870 1584.00 1557.77 40.00
669 19.4040 1560.00 1558.46 39.00
670 19.4210 1626.00 1559.21 40.00
671 19.4380 1527.00 1560.03 39.00
672 19.4550 1575.00 1560.95 40.00
673 19.4720 1552.00 1561.97 39.00
674 19.4890 1622.00 1563.12 40.00
675 19.5060 1561.00 1564.45 40.00
676 19.5230 1582.00 1565.99 40.00
677 19.5400 1560.00 1567.83 39.00
678 19.5570 1568.00 1570.11 40.00
679 19.5740 1593.00 1573.11 40.00
680 19.5910 1609.00 1577.30 40.00
681 19.6080 1591.00 1583.43 40.00
682 19.6250 1504.00 1592.48 39.00
683 19.6420 1573.00 1605.63 40.00
684 19.6590 1591.00 1624.19 40.00
685 19.6760 1607.00 1649.36 40.00
686 19.6930 1621.00 1681.67 40.00
687 19.7100 1604.00 1719.41 40.00
688 19.7270 1558.00 1756.50 39.00
689 19.7440 1570.00 1783.00 40.00
690 19.7610 1577.00 1791.67 40.00
691 19.7780 1591.00 1782.39 40.00
692 19.7950 1629.00 1758.45 40.00
693 19.8120 1663.00 1724.92 41.00
694 19.8290 1630.00 1688.49 40.00
695 19.8460 1607.00 1655.11 40.00
696 19.8630 1641.00 1628.06 41.00
697 19.8800 1710.00 1608.12 41.00
698 19.8970 1654.00 1594.51 41.00
699 19.9140 1629.00 1585.76 40.00
700 19.9310 1598.00 1580.33 40.00
701 19.9480 1568.00 1576.99 40.00
702 19.9650 1560.00 1574.89 39.00
703 19.9820 1515.00 1573.51 39.00
704 19.9990 1527.00 1572.56 39.00
705 20.0160 1530.00 1571.87 39.00
706 20.0330 1544.00 1571.35 39.00
707 20.0500 1512.00 1570.94 39.00
708 20.0670 1472.00 1570.63 38.00
709 20.0840 1573.00 1570.39 40.00
710 20.1010 1613.00 1570.21 40.00
711 20.1180 1556.00 1570.08 39.00
712 20.1350 1539.00 1569.99 39.00
713 20.1520 1591.00 1569.94 40.00
714 20.1690 1601.00 1569.92 40.00
715 20.1860 1572.00 1569.93 40.00
716 20.2030 1491.00 1569.96 39.00
717 20.2200 1547.00 1570.01 39.00
718 20.2370 1617.00 1570.07 40.00
719 20.2540 1615.00 1570.15 40.00
720 20.2710 1562.00 1570.25 40.00
721 20.2880 1522.00 1570.36 39.00
722 20.3050 1547.00 1570.47 39.00
723 20.3220 1562.00 1570.60 40.00
724 20.3390 1561.00 1570.74 40.00
725 20.3560 1585.00 1570.88 40.00
726 20.3730 1605.00 1571.03 40.00
727 20.3900 1515.00 1571.18 39.00
728 20.4070 1540.00 1571.34 39.00
729 20.4240 1662.00 1571.50 41.00
730 20.4410 1695.00 1571.67 41.00
731 20.4580 1624.00 1571.84 40.00
732 20.4750 1598.00 1572.02 40.00
733 20.4920 1614.00 1572.19 40.00
734 20.5090 1614.00 1572.38 40.00
735 20.5260 1642.00 1583.55 41.00
736 20.5430 1640.00 1583.90 40.00
737 20.5600 1604.00 1584.27 40.00
738 20.5770 1579.00 1607.27 40.00
739 20.5940 1544.00 1608.00 39.00
740 20.6110 1563.00 1608.75 40.00
741 20.6280 1608.00 1609.51 40.00
742 20.6450 1568.00 1610.29 40.00
743 20.6620 1666.00 1622.71 41.00
744 20.6790 1661.00 1623.70 41.00
745 20.6960 1668.00 1624.71 41.00
746 20.7130 1589.00 1631.46 40.00
747 20.7300 1598.00 1632.61 40.00
748 20.7470 1597.00 1633.77 40.00
749 20.7640 1593.00 1634.97 40.00
750 20.7810 1605.00 1636.19 40.00
751 20.7980 1575.00 1637.43 40.00
752 20.8150 1557.00 1638.71 39.00
753 20.8320 1567.00 1640.01 40.00
754 20.8490 1533.00 1641.34 39.00
755 20.8660 1577.00 1642.70 40.00
756 20.8830 1644.00 1644.10 41.00
757 20.9000 1655.00 1645.53 41.00
758 20.9170 1683.00 1646.99 41.00
759 20.9340 1678.00 1648.48 41.00
760 20.9510 1631.00 1650.02 40.00
761 20.9680 1567.00 1651.59 40.00
762 20.9850 1570.00 1653.19 40.00
763 21.0020 1617.00 1654.84 40.00
764 21.0190 1664.00 1656.53 41.00
765 21.0360 1645.00 1658.27 41.00
766 21.0530 1622.00 1660.05 40.00
767 21.0700 1573.00 1661.88 40.00
768 21.0870 1600.00 1663.75 40.00
769 21.1040 1613.00 1665.68 40.00
770 21.1210 1653.00 1667.66 41.00
771 21.1380 1646.00 1669.70 41.00
772 21.1550 1548.00 1671.79 39.00
773 21.1720 1641.00 1673.94 41.00
774 21.1890 1597.00 1676.16 40.00
775 21.2060 1661.00 1678.44 41.00
776 21.2230 1626.00 1680.78 40.00
777 21.2400 1672.00 1683.20 41.00
778 21.2570 1638.00 1685.70 40.00
779 21.2740 1632.00 1688.27 40.00
780 21.2910 1635.00 1690.92 40.00
781 21.3080 1661.00 1693.65 41.00
782 21.3250 1622.00 1696.22 40.00
783 21.3420 1588.00 1698.71 40.00
784 21.3590 1616.00 1701.29 40.00
785 21.3760 1694.00 1703.97 41.00
786 21.3930 1634.00 1706.76 40.00
787 21.4100 1706.00 1709.67 41.00
788 21.4270 1587.00 1712.69 40.00
789 21.4440 1658.00 1715.83 41.00
790 21.4610 1664.00 1719.11 41.00
791 21.4780 1640.00 1722.52 40.00
792 21.4950 1623.00 1726.08 40.00
793 21.5120 1628.00 1729.78 40.00
794 21.5290 1699.00 1733.65 41.00
795 21.5460 1641.00 1737.69 41.00
796 21.5630 1692.00 1741.91 41.00
797 21.5800 1691.00 1746.32 41.00
798 21.5970 1687.00 1750.92 41.00
799 21.6140 1672.00 1755.74 41.00
800 21.6310 1610.00 1760.79 40.00
801 21.6480 1608.00 1766.07 40.00
802 21.6650 1690.00 1771.60 41.00
803 21.6820 1715.00 1777.40 41.00
804 21.6990 1723.00 1783.49 42.00
805 21.7160 1737.00 1789.88 42.00
806 21.7330 1754.00 1796.59 42.00
807 21.7500 1794.00 1803.65 42.00
808 21.7670 1759.00 1811.08 42.00
809 21.7840 1751.00 1818.90 42.00
810 21.8010 1789.00 1827.14 42.00
811 21.8180 1868.00 1835.83 43.00
812 21.8350 1843.00 1844.94 43.00
813 21.8520 1887.00 1854.63 43.00
814 21.8690 1929.00 1864.89 44.00
815 21.8860 1892.00 1875.71 43.00
816 21.9030 1988.00 1887.22 45.00
817 21.9200 2019.00 1899.43 45.00
818 21.9370 1978.00 1912.40 44.00
819 21.9540 2055.00 1926.19 45.00
820 21.9710 2091.00 1940.86 46.00
821 21.9880 2050.00 1956.51 45.00
822 22.0050 2087.00 1973.22 46.00
823 22.0220 2190.00 1991.07 47.00
824 22.0390 2147.00 2010.18 46.00
825 22.0560 2101.00 2030.67 46.00
826 22.0730 2215.00 2052.67 47.00
827 22.0900 2307.00 2076.34 48.00
828 22.1070 2300.00 2101.84 48.00
829 22.1240 2310.00 2129.37 48.00
830 22.1410 2338.00 2159.15 48.00
831 22.1580 2385.00 2191.43 49.00
832 22.1750 2323.00 2226.49 48.00
833 22.1920 2398.00 2264.67 49.00
834 22.2090 2460.00 2306.35 50.00
835 22.2260 2467.00 2351.97 50.00
836 22.2430 2542.00 2402.05 50.00
837 22.2600 2563.00 2457.18 51.00
838 22.2770 2655.00 2518.09 52.00
839 22.2940 2682.00 2585.63 52.00
840 22.3110 2722.00 2660.83 52.00
841 22.3280 2850.00 2744.96 53.00
842 22.3450 2846.00 2839.55 53.00
843 22.3620 2934.00 2946.57 54.00
844 22.3790 2947.00 3068.42 54.00
845 22.3960 3083.00 3208.10 56.00
846 22.4130 3235.00 3369.36 57.00
847 22.4300 3418.00 3556.81 58.00
848 22.4470 3618.00 3776.12 60.00
849 22.4640 3783.00 4034.35 62.00
850 22.4810 4123.00 4340.80 64.00
851 22.4980 4562.00 4709.08 68.00
852 22.5150 5055.00 5161.75 71.00
853 22.5320 5707.00 5739.76 76.00
854 22.5490 6694.00 6516.39 82.00
855 22.5660 7931.00 7615.49 89.00
856 22.5830 9748.00 9226.36 99.00
857 22.6000 12233.00 11606.60 111.00
858 22.6170 15909.00 15067.40 126.00
859 22.6340 21295.00 19943.70 146.00
860 22.6510 27806.00 26545.90 167.00
861 22.6680 35638.00 35062.90 189.00
862 22.6850 45040.00 45352.10 212.00
863 22.7020 54920.00 56538.90 234.00
864 22.7190 63484.00 66723.20 252.00
865 22.7360 69955.00 73632.30 264.00
866 22.7530 73441.00 76241.60 271.00
867 22.7700 73536.00 75164.50 271.00
868 22.7870 71769.00 71499.20 268.00
869 22.8040 67721.00 66411.70 260.00
870 22.8210 64134.00 61316.20 253.00
871 22.8380 60610.00 57322.60 246.00
872 22.8550 57785.00 54507.20 240.00
873 22.8720 55616.00 51968.60 236.00
874 22.8890 52018.00 48753.30 228.00
875 22.9060 48241.00 44578.70 220.00
876 22.9230 42584.00 39539.90 206.00
877 22.9400 35560.00 33795.70 189.00
878 22.9570 28858.00 27748.00 170.00
879 22.9740 22331.00 21996.40 149.00
880 22.9910 16855.00 17021.30 130.00
881 23.0080 12675.00 13041.30 113.00
882 23.0250 9463.00 10058.60 97.00
883 23.0420 7227.00 7939.20 85.00
884 23.0590 5980.00 6488.71 77.00
885 23.0760 5216.00 5511.82 72.00
886 23.0930 4636.00 4847.15 68.00
887 23.1100 4087.00 4378.98 64.00
888 23.1270 3870.00 4032.49 62.00
889 23.1440 3628.00 3762.60 60.00
890 23.1610 3422.00 3543.09 58.00
891 23.1780 3310.00 3358.78 58.00
892 23.1950 3068.00 3200.64 55.00
893 23.2120 2928.00 3063.02 54.00
894 23.2290 2859.00 2941.98 53.00
895 23.2460 2761.00 2834.81 53.00
896 23.2630 2495.00 2739.45 50.00
897 23.2800 2509.00 2654.22 50.00
898 23.2970 2473.00 2577.78 50.00
899 23.3140 2468.00 2508.99 50.00
900 23.3310 2408.00 2446.90 49.00
901 23.3480 2391.00 2390.67 49.00
902 23.3650 2276.00 2339.60 48.00
903 23.3820 2166.00 2293.08 47.00
904 23.3990 2173.00 2250.58 47.00
905 23.4160 2201.00 2211.66 47.00
906 23.4330 2240.00 2175.92 47.00
907 23.4500 2124.00 2143.01 46.00
908 23.4670 2009.00 2112.64 45.00
909 23.4840 2163.00 2084.56 47.00
910 23.5010 2035.00 2058.54 45.00
911 23.5180 1961.00 2034.37 44.00
912 23.5350 1952.00 2011.88 44.00
913 23.5520 1969.00 1990.92 44.00
914 23.5690 1959.00 1971.36 44.00
915 23.5860 2024.00 1953.06 45.00
916 23.6030 1985.00 1935.91 45.00
917 23.6200 1877.00 1919.83 43.00
918 23.6370 1905.00 1904.73 44.00
919 23.6540 1889.00 1890.52 43.00
920 23.6710 1783.00 1877.13 42.00
921 23.6880 1846.00 1864.50 43.00
922 23.7050 1867.00 1852.58 43.00
923 23.7220 1829.00 1841.31 43.00
924 23.7390 1795.00 1830.64 42.00
925 23.7560 1768.00 1820.53 42.00
926 23.7730 1764.00 1810.94 42.00
927 23.7900 1780.00 1801.84 42.00
928 23.8070 1761.00 1793.18 42.00
929 23.8240 1733.00 1784.95 42.00
930 23.8410 1686.00 1777.12 41.00
931 23.8580 1750.00 1769.65 42.00
932 23.8750 1760.00 1762.52 42.00
933 23.8920 1704.00 1755.72 41.00
934 23.9090 1703.00 1749.22 41.00
935 23.9260 1752.00 1743.01 42.00
936 23.9430 1710.00 1737.07 41.00
937 23.9600 1701.00 1731.38 41.00
938 23.9770 1767.00 1725.92 42.00
939 23.9940 1727.00 1720.69 42.00
940 24.0110 1646.00 1715.67 41.00
941 24.0280 1693.00 1710.85 41.00
942 24.0450 1637.00 1706.22 40.00
943 24.0620 1690.00 1701.77 41.00
944 24.0790 1620.00 1697.49 40.00
945 24.0960 1647.00 1693.37 41.00
946 24.1130 1711.00 1689.40 41.00
947 24.1300 1677.00 1685.57 41.00
948 24.1470 1668.00 1681.88 41.00
949 24.1640 1627.00 1678.32 40.00
950 24.1810 1563.00 1674.89 40.00
951 24.1980 1626.00 1671.57 40.00
952 24.2150 1635.00 1668.37 40.00
953 24.2320 1640.00 1665.27 40.00
954 24.2490 1581.00 1662.27 40.00
955 24.2660 1574.00 1659.37 40.00
956 24.2830 1656.00 1656.57 41.00
957 24.3000 1638.00 1653.85 40.00
958 24.3170 1621.00 1651.22 40.00
959 24.3340 1598.00 1648.66 40.00
960 24.3510 1607.00 1646.19 40.00
961 24.3680 1643.00 1643.79 41.00
962 24.3850 1645.00 1641.46 41.00
963 24.4020 1631.00 1639.20 40.00
964 24.4190 1635.00 1637.00 40.00
965 24.4360 1580.00 1634.86 40.00
966 24.4530 1597.00 1632.06 40.00
967 24.4700 1610.00 1628.66 40.00
968 24.4870 1598.00 1625.32 40.00
969 24.5040 1528.00 1622.03 39.00
970 24.5210 1590.00 1618.79 40.00
971 24.5380 1573.00 1615.60 40.00
972 24.5550 1609.00 1612.46 40.00
973 24.5720 1561.00 1609.36 40.00
974 24.5890 1525.00 1606.31 39.00
975 24.6060 1592.00 1603.30 40.00
976 24.6230 1637.00 1600.33 40.00
977 24.6400 1650.00 1597.40 41.00
978 24.6570 1579.00 1594.51 40.00
979 24.6740 1565.00 1591.66 40.00
980 24.6910 1599.00 1588.84 40.00
981 24.7080 1606.00 1586.06 40.00
982 24.7250 1602.00 1583.31 40.00
983 24.7420 1603.00 1580.59 40.00
984 24.7590 1651.00 1577.90 41.00
985 24.7760 1679.00 1575.25 41.00
986 24.7930 1578.00 1572.62 40.00
987 24.8100 1588.00 1570.03 40.00
988 24.8270 1651.00 1567.46 41.00
989 24.8440 1590.00 1564.92 40.00
990 24.8610 1535.00 1562.41 39.00
991 24.8780 1617.00 1559.93 40.00
992 24.8950 1560.00 1557.47 39.00
993 24.9120 1548.00 1555.04 39.00
994 24.9290 1609.00 1552.64 40.00
995 24.9460 1643.00 1528.46 41.00
996 24.9630 1625.00 1526.44 40.00
997 24.9800 1596.00 1524.43 40.00
998 24.9970 1568.00 1522.45 40.00
999 25.0140 1608.00 1509.81 40.00
1000 25.0310 1589.00 1508.03 40.00
1001 25.0480 1520.00 1506.27 39.00
1002 25.0650 1532.00 1504.53 39.00
1003 25.0820 1559.00 1502.81 39.00
1004 25.0990 1510.00 1489.75 39.00
1005 25.1160 1551.00 1488.26 39.00
1006 25.1330 1586.00 1486.80 40.00
1007 25.1500 1547.00 1485.37 39.00
1008 25.1670 1516.00 1478.42 39.00
1009 25.1840 1531.00 1477.17 39.00
1010 25.2010 1483.00 1475.98 39.00
1011 25.2180 1491.00 1474.87 39.00
1012 25.2350 1516.00 1473.85 39.00
1013 25.2520 1556.00 1472.96 39.00
1014 25.2690 1503.00 1472.25 39.00
1015 25.2860 1505.00 1471.83 39.00
1016 25.3030 1498.00 1471.87 39.00
1017 25.3200 1444.00 1472.66 38.00
1018 25.3370 1499.00 1474.61 39.00
1019 25.3540 1528.00 1478.24 39.00
1020 25.3710 1483.00 1484.15 39.00
1021 25.3880 1507.00 1492.92 39.00
1022 25.4050 1528.00 1505.04 39.00
1023 25.4220 1442.00 1520.65 38.00
1024 25.4390 1483.00 1539.23 39.00
1025 25.4560 1461.00 1558.94 38.00
1026 25.4730 1419.00 1576.31 38.00
1027 25.4900 1483.00 1587.14 39.00
1028 25.5070 1487.00 1589.10 39.00
1029 25.5240 1490.00 1582.81 39.00
1030 25.5410 1480.00 1570.05 38.00
1031 25.5580 1504.00 1552.39 39.00
1032 25.5750 1440.00 1531.78 38.00
1033 25.5920 1490.00 1510.66 39.00
1034 25.6090 1476.00 1491.19 38.00
1035 25.6260 1481.00 1474.58 38.00
1036 25.6430 1506.00 1461.25 39.00
1037 25.6600 1486.00 1451.01 39.00
1038 25.6770 1477.00 1443.38 38.00
1039 25.6940 1524.00 1437.72 39.00
1040 25.7110 1603.00 1433.44 40.00
1041 25.7280 1579.00 1430.07 40.00
1042 25.7450 1524.00 1427.26 39.00
1043 25.7620 1468.00 1424.80 38.00
1044 25.7790 1495.00 1422.56 39.00
1045 25.7960 1558.00 1420.45 39.00
1046 25.8130 1494.00 1418.44 39.00
1047 25.8300 1452.00 1416.49 38.00
1048 25.8470 1390.00 1414.59 37.00
1049 25.8640 1395.00 1412.73 37.00
1050 25.8810 1421.00 1410.91 38.00
1051 25.8980 1436.00 1409.11 38.00
1052 25.9150 1402.00 1407.33 37.00
1053 25.9320 1403.00 1405.58 37.00
1054 25.9490 1430.00 1403.84 38.00
1055 25.9660 1410.00 1402.12 38.00
1056 25.9830 1413.00 1400.41 38.00
1057 26.0000 1446.00 1398.71 38.00
1058 26.0170 1446.00 1397.03 38.00
1059 26.0340 1447.00 1395.35 38.00
1060 26.0510 1439.00 1394.17 38.00
1061 26.0680 1432.00 1393.89 38.00
1062 26.0850 1394.00 1393.62 37.00
1063 26.1020 1400.00 1393.35 37.00
1064 26.1190 1432.00 1393.09 38.00
1065 26.1360 1448.00 1392.84 38.00
1066 26.1530 1324.00 1392.59 36.00
1067 26.1700 1382.00 1392.34 37.00
1068 26.1870 1461.00 1392.09 38.00
1069 26.2040 1423.00 1391.85 38.00
1070 26.2210 1424.00 1391.61 38.00
1071 26.2380 1390.00 1391.37 37.00
1072 26.2550 1413.00 1391.14 38.00
1073 26.2720 1420.00 1390.91 38.00
1074 26.2890 1427.00 1390.68 38.00
1075 26.3060 1422.00 1390.45 38.00
1076 26.3230 1362.00 1390.22 37.00
1077 26.3400 1381.00 1389.99 37.00
1078 26.3570 1355.00 1389.77 37.00
1079 26.3740 1350.00 1389.54 37.00
1080 26.3910 1411.00 1389.32 38.00
1081 26.4080 1416.00 1389.10 38.00
1082 26.4250 1388.00 1388.88 37.00
1083 26.4420 1441.00 1388.66 38.00
1084 26.4590 1427.00 1388.44 38.00
1085 26.4760 1413.00 1388.22 38.00
1086 26.4930 1486.00 1388.00 39.00
1087 26.5100 1418.00 1387.79 38.00
1088 26.5270 1420.00 1387.57 38.00
1089 26.5440 1405.00 1387.35 37.00
1090 26.5610 1317.00 1387.14 36.00
1091 26.5780 1333.00 1386.92 37.00
1092 26.5950 1365.00 1386.71 37.00
1093 26.6120 1350.00 1386.50 37.00
1094 26.6290 1392.00 1386.28 37.00
1095 26.6460 1402.00 1386.07 37.00
1096 26.6630 1363.00 1385.86 37.00
1097 26.6800 1404.00 1385.65 37.00
1098 26.6970 1437.00 1385.43 38.00
1099 26.7140 1410.00 1385.22 38.00
1100 26.7310 1384.00 1385.01 37.00
1101 26.7480 1399.00 1384.80 37.00
1102 26.7650 1402.00 1384.59 37.00
1103 26.7820 1378.00 1384.38 37.00
1104 26.7990 1396.00 1384.17 37.00
1105 26.8160 1334.00 1383.96 37.00
1106 26.8330 1294.00 1383.75 36.00
1107 26.8500 1360.00 1383.55 37.00
1108 26.8670 1439.00 1383.34 38.00
1109 26.8840 1409.00 1383.13 38.00
1110 26.9010 1375.00 1382.92 37.00
1111 26.9180 1384.00 1382.71 37.00
1112 26.9350 1375.00 1382.51 37.00
1113 26.9520 1319.00 1382.30 36.00
1114 26.9690 1356.00 1382.09 37.00
1115 26.9860 1327.00 1381.88 36.00
1116 27.0030 1351.00 1381.68 37.00
1117 27.0200 1355.00 1381.47 37.00
1118 27.0370 1332.00 1381.27 36.00
1119 27.0540 1433.00 1381.06 38.00
1120 27.0710 1380.00 1380.85 37.00
1121 27.0880 1451.00 1380.65 38.00
1122 27.1050 1416.00 1380.44 38.00
1123 27.1220 1375.00 1380.24 37.00
1124 27.1390 1370.00 1379.88 37.00
1125 27.1560 1398.00 1379.53 37.00
1126 27.1730 1412.00 1379.17 38.00
1127 27.1900 1392.00 1378.82 37.00
1128 27.2070 1455.00 1378.46 38.00
1129 27.2240 1383.00 1378.11 37.00
1130 27.2410 1329.00 1377.75 36.00
1131 27.2580 1394.00 1377.40 37.00
1132 27.2750 1389.00 1377.05 37.00
1133 27.2920 1369.00 1376.70 37.00
1134 27.3090 1389.00 1376.34 37.00
1135 27.3260 1384.00 1375.99 37.00
1136 27.3430 1395.00 1375.64 37.00
1137 27.3600 1399.00 1375.29 37.00
1138 27.3770 1409.00 1374.94 38.00
1139 27.3940 1360.00 1374.59 37.00
1140 27.4110 1394.00 1374.24 37.00
1141 27.4280 1427.00 1373.89 38.00
1142 27.4450 1415.00 1373.55 38.00
1143 27.4620 1442.00 1373.20 38.00
1144 27.4790 1424.00 1372.85 38.00
1145 27.4960 1338.00 1372.51 37.00
1146 27.5130 1390.00 1372.17 37.00
1147 27.5300 1389.00 1371.82 37.00
1148 27.5470 1380.00 1371.48 37.00
1149 27.5640 1334.00 1371.15 37.00
1150 27.5810 1346.00 1370.81 37.00
1151 27.5980 1347.00 1370.48 37.00
1152 27.6150 1367.00 1370.14 37.00
1153 27.6320 1347.00 1369.81 37.00
1154 27.6490 1367.00 1369.49 37.00
1155 27.6660 1418.00 1369.17 38.00
1156 27.6830 1397.00 1368.85 37.00
1157 27.7000 1371.00 1368.54 37.00
1158 27.7170 1393.00 1368.23 37.00
1159 27.7340 1369.00 1367.93 37.00
1160 27.7510 1416.00 1367.65 38.00
1161 27.7680 1441.00 1367.37 38.00
1162 27.7850 1351.00 1367.10 37.00
1163 27.8020 1351.00 1366.85 37.00
1164 27.8190 1405.00 1366.62 37.00
1165 27.8360 1419.00 1366.38 38.00
1166 27.8530 1407.00 1366.22 38.00
1167 27.8700 1336.00 1366.12 37.00
1168 27.8870 1322.00 1366.13 36.00
1169 27.9040 1388.00 1366.27 37.00
1170 27.9210 1372.00 1366.68 37.00
1171 27.9380 1357.00 1367.45 37.00
1172 27.9550 1388.00 1368.70 37.00
1173 27.9720 1355.00 1370.56 37.00
1174 27.9890 1326.00 1373.14 36.00
1175 28.0060 1385.00 1376.49 37.00
1176 28.0230 1376.00 1380.55 37.00
1177 28.0400 1375.00 1385.06 37.00
1178 28.0570 1413.00 1389.48 38.00
1179 28.0740 1414.00 1392.98 38.00
1180 28.0910 1469.00 1394.80 38.00
1181 28.1080 1392.00 1394.69 37.00
1182 28.1250 1398.00 1392.91 37.00
1183 28.1420 1404.00 1389.85 37.00
1184 28.1590 1432.00 1385.83 38.00
1185 28.1760 1405.00 1381.19 37.00
1186 28.1930 1379.00 1376.39 37.00
1187 28.2100 1382.00 1371.89 37.00
1188 28.2270 1396.00 1367.95 37.00
1189 28.2440 1433.00 1364.69 38.00
1190 28.2610 1381.00 1362.12 37.00
1191 28.2780 1421.00 1360.15 38.00
1192 28.2950 1406.00 1358.67 37.00
1193 28.3120 1377.00 1357.54 37.00
1194 28.3290 1423.00 1356.67 38.00
1195 28.3460 1434.00 1355.97 38.00
1196 28.3630 1373.00 1355.36 37.00
1197 28.3800 1449.00 1354.83 38.00
1198 28.3970 1374.00 1354.33 37.00
1199 28.4140 1404.00 1353.87 37.00
1200 28.4310 1513.00 1353.42 39.00
1201 28.4480 1474.00 1352.98 38.00
1202 28.4650 1440.00 1352.56 38.00
1203 28.4820 1444.00 1352.14 38.00
1204 28.4990 1405.00 1351.73 37.00
1205 28.5160 1329.00 1351.33 36.00
1206 28.5330 1384.00 1350.93 37.00
1207 28.5500 1422.00 1350.54 38.00
1208 28.5670 1403.00 1350.15 37.00
1209 28.5840 1384.00 1349.76 37.00
1210 28.6010 1347.00 1349.38 37.00
1211 28.6180 1367.00 1349.59 37.00
1212 28.6350 1348.00 1349.80 37.00
1213 28.6520 1324.00 1350.01 36.00
1214 28.6690 1362.00 1350.23 37.00
1215 28.6860 1352.00 1350.44 37.00
1216 28.7030 1405.00 1350.66 37.00
1217 28.7200 1368.00 1350.88 37.00
1218 28.7370 1308.00 1351.10 36.00
1219 28.7540 1359.00 1351.32 37.00
1220 28.7710 1333.00 1351.54 37.00
1221 28.7880 1377.00 1351.76 37.00
1222 28.8050 1393.00 1351.98 37.00
1223 28.8220 1340.00 1352.21 37.00
1224 28.8390 1320.00 1352.43 36.00
1225 28.8560 1365.00 1352.66 37.00
1226 28.8730 1367.00 1352.88 37.00
1227 28.8900 1376.00 1353.11 37.00
1228 28.9070 1453.00 1353.33 38.00
1229 28.9240 1383.00 1353.56 37.00
1230 28.9410 1313.00 1353.79 36.00
1231 28.9580 1322.00 1354.01 36.00
1232 28.9750 1327.00 1354.24 36.00
1233 28.9920 1316.00 1354.47 36.00
1234 29.0090 1402.00 1354.70 37.00
1235 29.0260 1367.00 1354.93 37.00
1236 29.0430 1362.00 1355.15 37.00
1237 29.0600 1348.00 1355.38 37.00
1238 29.0770 1336.00 1355.61 37.00
1239 29.0940 1324.00 1355.84 36.00
1240 29.1110 1328.00 1356.07 36.00
1241 29.1280 1326.00 1356.30 36.00
1242 29.1450 1377.00 1356.53 37.00
1243 29.1620 1387.00 1356.76 37.00
1244 29.1790 1318.00 1356.99 36.00
1245 29.1960 1274.00 1357.22 36.00
1246 29.2130 1252.00 1357.45 35.00
1247 29.2300 1366.00 1357.68 37.00
1248 29.2470 1291.00 1357.91 36.00
1249 29.2640 1352.00 1358.14 37.00
1250 29.2810 1346.00 1358.37 37.00
1251 29.2980 1365.00 1358.60 37.00
1252 29.3150 1357.00 1358.83 37.00
1253 29.3320 1282.00 1359.06 36.00
1254 29.3490 1308.00 1359.29 36.00
1255 29.3660 1327.00 1359.52 36.00
1256 29.3830 1347.00 1359.76 37.00
1257 29.4000 1304.00 1359.99 36.00
1258 29.4170 1344.00 1360.22 37.00
1259 29.4340 1305.00 1360.45 36.00
1260 29.4510 1349.00 1360.68 37.00
1261 29.4680 1421.00 1360.91 38.00
1262 29.4850 1398.00 1361.14 37.00
1263 29.5020 1327.00 1361.37 36.00
1264 29.5190 1302.00 1361.61 36.00
1265 29.5360 1308.00 1361.84 36.00
1266 29.5530 1328.00 1364.30 36.00
1267 29.5700 1291.00 1364.56 36.00
1268 29.5870 1330.00 1364.82 36.00
1269 29.6040 1319.00 1365.08 36.00
1270 29.6210 1279.00 1365.34 36.00
1271 29.6380 1326.00 1370.17 36.00
1272 29.6550 1327.00 1370.49 36.00
1273 29.6720 1301.00 1370.81 36.00
1274 29.6890 1318.00 1371.14 36.00
1275 29.7060 1336.00 1371.47 37.00
1276 29.7230 1403.00 1371.80 37.00
1277 29.7400 1356.00 1372.13 37.00
1278 29.7570 1315.00 1372.46 36.00
1279 29.7740 1338.00 1382.74 37.00
1280 29.7910 1378.00 1383.21 37.00
1281 29.8080 1381.00 1383.68 37.00
1282 29.8250 1320.00 1384.15 36.00
1283 29.8420 1335.00 1408.85 37.00
1284 29.8590 1373.00 1411.79 37.00
1285 29.8760 1323.00 1412.63 36.00
1286 29.8930 1320.00 1413.48 36.00
1287 29.9100 1363.00 1414.34 37.00
1288 29.9270 1387.00 1415.21 37.00
1289 29.9440 1428.00 1416.10 38.00
1290 29.9610 1408.00 1417.00 38.00
1291 29.9780 1431.00 1417.91 38.00
1292 29.9950 1433.00 1418.84 38.00
1293 30.0120 1437.00 1419.79 38.00
1294 30.0290 1395.00 1420.74 37.00
1295 30.0460 1454.00 1421.72 38.00
1296 30.0630 1465.00 1422.71 38.00
1297 30.0800 1436.00 1424.41 38.00
1298 30.0970 1403.00 1426.13 37.00
1299 30.1140 1451.00 1427.87 38.00
1300 30.1310 1410.00 1429.62 38.00
1301 30.1480 1360.00 1431.39 37.00
1302 30.1650 1427.00 1433.19 38.00
1303 30.1820 1411.00 1435.00 38.00
1304 30.1990 1379.00 1436.83 37.00
1305 30.2160 1393.00 1438.68 37.00
1306 30.2330 1476.00 1440.56 38.00
1307 30.2500 1441.00 1442.45 38.00
1308 30.2670 1453.00 1444.37 38.00
1309 30.2840 1488.00 1446.32 39.00
1310 30.3010 1414.00 1448.28 38.00
1311 30.3180 1424.00 1450.27 38.00
1312 30.3350 1451.00 1452.29 38.00
1313 30.3520 1455.00 1454.34 38.00
1314 30.3690 1474.00 1456.41 38.00
1315 30.3860 1477.00 1458.51 38.00
1316 30.4030 1493.00 1460.64 39.00
1317 30.4200 1433.00 1462.80 38.00
1318 30.4370 1385.00 1464.99 37.00
1319 30.4540 1370.00 1467.21 37.00
1320 30.4710 1355.00 1469.47 37.00
1321 30.4880 1423.00 1471.77 38.00
1322 30.5050 1424.00 1474.09 38.00
1323 30.5220 1447.00 1476.46 38.00
1324 30.5390 1373.00 1478.87 37.00
1325 30.5560 1355.00 1481.30 37.00
1326 30.5730 1415.00 1483.79 38.00
1327 30.5900 1437.00 1486.32 38.00
1328 30.6070 1420.00 1488.89 38.00
1329 30.6240 1449.00 1491.51 38.00
1330 30.6410 1454.00 1494.18 38.00
1331 30.6580 1434.00 1496.90 38.00
1332 30.6750 1448.00 1499.67 38.00
1333 30.6920 1438.00 1502.49 38.00
1334 30.7090 1425.00 1505.38 38.00
1335 30.7260 1383.00 1508.32 37.00
1336 30.7430 1405.00 1511.32 37.00
1337 30.7600 1448.00 1514.38 38.00
1338 30.7770 1504.00 1517.51 39.00
1339 30.7940 1470.00 1520.71 38.00
1340 30.8110 1440.00 1523.98 38.00
1341 30.8280 1508.00 1527.33 39.00
1342 30.8450 1456.00 1530.75 38.00
1343 30.8620 1425.00 1534.25 38.00
1344 30.8790 1488.00 1537.84 39.00
1345 30.8960 1509.00 1541.52 39.00
1346 30.9130 1438.00 1545.29 38.00
1347 30.9300 1396.00 1549.16 37.00
1348 30.9470 1416.00 1552.81 38.00
1349 30.9640 1440.00 1555.99 38.00
1350 30.9810 1484.00 1559.29 39.00
1351 30.9980 1435.00 1562.70 38.00
1352 31.0150 1407.00 1566.24 38.00
1353 31.0320 1442.00 1569.90 38.00
1354 31.0490 1466.00 1573.69 38.00
1355 31.0660 1438.00 1577.63 38.00
1356 31.0830 1409.00 1581.72 38.00
1357 31.1000 1467.00 1585.96 38.00
1358 31.1170 1495.00 1590.36 39.00
1359 31.1340 1535.00 1594.94 39.00
1360 31.1510 1550.00 1599.70 39.00
1361 31.1680 1604.00 1604.65 40.00
1362 31.1850 1523.00 1609.81 39.00
1363 31.2020 1529.00 1615.18 39.00
1364 31.2190 1530.00 1620.77 39.00
1365 31.2360 1631.00 1626.60 40.00
1366 31.2530 1551.00 1632.69 39.00
1367 31.2700 1651.00 1639.05 41.00
1368 31.2870 1677.00 1645.69 41.00
1369 31.3040 1705.00 1652.63 41.00
1370 31.3210 1798.00 1659.89 42.00
1371 31.3380 1804.00 1667.50 42.00
1372 31.3550 1796.00 1675.46 42.00
1373 31.3720 1830.00 1683.82 43.00
1374 31.3890 1820.00 1692.59 43.00
1375 31.4060 1779.00 1701.80 42.00
1376 31.4230 1837.00 1711.48 43.00
1377 31.4400 1902.00 1721.67 44.00
1378 31.4570 1874.00 1732.40 43.00
1379 31.4740 1903.00 1743.71 44.00
1380 31.4910 1915.00 1755.65 44.00
1381 31.5080 1848.00 1768.26 43.00
1382 31.5250 1883.00 1781.60 43.00
1383 31.5420 1900.00 1795.72 44.00
1384 31.5590 1952.00 1810.68 44.00
1385 31.5760 1908.00 1826.58 44.00
1386 31.5930 1918.00 1843.46 44.00
1387 31.6100 2008.00 1861.42 45.00
1388 31.6270 2029.00 1880.56 45.00
1389 31.6440 2033.00 1900.99 45.00
1390 31.6610 2024.00 1922.82 45.00
1391 31.6780 2046.00 1946.21 45.00
1392 31.6950 2047.00 1971.29 45.00
1393 31.7120 2160.00 1998.24 46.00
1394 31.7290 2211.00 2027.27 47.00
1395 31.7460 2230.00 2058.60 47.00
1396 31.7630 2298.00 2092.49 48.00
1397 31.7800 2305.00 2129.25 48.00
1398 31.7970 2389.00 2169.22 49.00
1399 31.8140 2473.00 2212.83 50.00
1400 31.8310 2443.00 2260.52 49.00
1401 31.8480 2479.00 2312.90 50.00
1402 31.8650 2552.00 2370.61 51.00
1403 31.8820 2595.00 2434.44 51.00
1404 31.8990 2724.00 2505.33 52.00
1405 31.9160 2829.00 2584.44 53.00
1406 31.9330 2956.00 2673.28 54.00
1407 31.9500 3121.00 2773.92 56.00
1408 31.9670 3134.00 2889.50 56.00
1409 31.9840 3494.00 3024.92 59.00
1410 32.0010 3854.00 3188.27 62.00
1411 32.0180 4099.00 3392.42 64.00
1412 32.0350 4392.00 3657.19 66.00
1413 32.0520 4839.00 4011.15 70.00
1414 32.0690 5395.00 4492.36 73.00
1415 32.0860 6133.00 5147.63 78.00
1416 32.1030 6925.00 6027.30 83.00
1417 32.1200 7950.00 7180.62 89.00
1418 32.1370 9016.00 8643.73 95.00
1419 32.1540 10414.00 10431.90 102.00
1420 32.1710 11812.00 12520.00 109.00
1421 32.1880 12941.00 14828.30 114.00
1422 32.2050 14611.00 17194.90 121.00
1423 32.2220 15830.00 19385.90 126.00
1424 32.2390 17370.00 21169.90 132.00
1425 32.2560 18946.00 22470.30 138.00
1426 32.2730 20349.00 23448.10 143.00
1427 32.2900 21938.00 24421.10 148.00
1428 32.3070 24160.00 25742.70 155.00
1429 32.3240 26625.00 27754.20 163.00
1430 32.3410 29827.00 30809.90 173.00
1431 32.3580 34448.00 35254.00 186.00
1432 32.3750 40333.00 41337.50 201.00
1433 32.3920 48600.00 49086.00 220.00
1434 32.4090 58541.00 58204.30 242.00
1435 32.4260 69425.00 67955.40 263.00
1436 32.4430 80943.00 77090.50 285.00
1437 32.4600 89111.00 84093.20 299.00
1438 32.4770 93782.00 87767.80 306.00
1439 32.4940 93105.00 87822.20 305.00
1440 32.5110 88260.00 84749.20 297.00
1441 32.5280 80748.00 79248.60 284.00
1442 32.5450 72300.00 71873.90 269.00
1443 32.5620 62711.00 63119.60 250.00
1444 32.5790 52523.00 53636.20 229.00
1445 32.5960 42859.00 44197.40 207.00
1446 32.6130 33485.00 35457.30 183.00
1447 32.6300 25506.00 27848.20 160.00
1448 32.6470 19382.00 21552.60 139.00
1449 32.6640 14957.00 16581.90 122.00
1450 32.6810 11845.00 12813.80 109.00
1451 32.6980 9741.00 10061.00 99.00
1452 32.7150 8142.00 8104.19 90.00
1453 32.7320 6773.00 6737.59 82.00
1454 32.7490 6120.00 5784.73 78.00
1455 32.7660 5497.00 5110.44 74.00
1456 32.7830 4855.00 4619.33 70.00
1457 32.8000 4433.00 4246.95 67.00
1458 32.8170 4095.00 3952.88 64.00
1459 32.8340 3828.00 3711.75 62.00
1460 32.8510 3563.00 3508.43 60.00
1461 32.8680 3418.00 3333.23 58.00
1462 32.8850 3340.00 3180.20 58.00
1463 32.9020 3007.00 3045.12 55.00
1464 32.9190 3005.00 2924.98 55.00
1465 32.9360 2903.00 2817.62 54.00
1466 32.9530 2721.00 2721.20 52.00
1467 32.9700 2683.00 2634.34 52.00
1468 32.9870 2645.00 2555.78 51.00
1469 33.0040 2599.00 2484.57 51.00
1470 33.0210 2497.00 2419.80 50.00
1471 33.0380 2358.00 2360.77 49.00
1472 33.0550 2438.00 2306.82 49.00
1473 33.0720 2322.00 2257.37 48.00
1474 33.0890 2269.00 2211.98 48.00
1475 33.1060 2319.00 2170.18 48.00
1476 33.1230 2187.00 2131.65 47.00
1477 33.1400 2128.00 2096.02 46.00
1478 33.1570 2164.00 2063.03 47.00
1479 33.1740 2166.00 2032.41 47.00
1480 33.1910 2004.00 2003.96 45.00
1481 33.2080 2076.00 1977.47 46.00
1482 33.2250 2123.00 1952.75 46.00
1483 33.2420 2081.00 1929.67 46.00
1484 33.2590 1912.00 1908.06 44.00
1485 33.2760 1914.00 1887.82 44.00
1486 33.2930 1839.00 1868.83 43.00
1487 33.3100 1856.00 1850.99 43.00
1488 33.3270 1851.00 1834.25 43.00
1489 33.3440 1931.00 1818.45 44.00
1490 33.3610 1856.00 1803.54 43.00
1491 33.3780 1884.00 1789.47 43.00
1492 33.3950 1823.00 1776.17 43.00
1493 33.4120 1819.00 1763.70 43.00
1494 33.4290 1800.00 1751.79 42.00
1495 33.4460 1815.00 1740.50 43.00
1496 33.4630 1791.00 1729.79 42.00
1497 33.4800 1825.00 1719.66 43.00
1498 33.4970 1763.00 1710.00 42.00
1499 33.5140 1749.00 1700.80 42.00
1500 33.5310 1756.00 1692.05 42.00
1501 33.5480 1696.00 1683.71 41.00
1502 33.5650 1684.00 1675.87 41.00
1503 33.5820 1658.00 1668.29 41.00
1504 33.5990 1773.00 1661.05 42.00
1505 33.6160 1758.00 1654.14 42.00
1506 33.6330 1598.00 1647.52 40.00
1507 33.6500 1612.00 1641.20 40.00
1508 33.6670 1613.00 1635.14 40.00
1509 33.6840 1651.00 1629.35 41.00
1510 33.7010 1657.00 1623.79 41.00
1511 33.7180 1654.00 1618.47 41.00
1512 33.7350 1595.00 1613.36 40.00
1513 33.7520 1533.00 1608.45 39.00
1514 33.7690 1615.00 1603.75 40.00
1515 33.7860 1637.00 1599.23 40.00
1516 33.8030 1608.00 1594.88 40.00
1517 33.8200 1652.00 1590.70 41.00
1518 33.8370 1574.00 1586.69 40.00
1519 33.8540 1557.00 1582.83 39.00
1520 33.8710 1569.00 1579.11 40.00
1521 33.8880 1548.00 1575.54 39.00
1522 33.9050 1589.00 1572.10 40.00
1523 33.9220 1618.00 1568.79 40.00
1524 33.9390 1540.00 1565.60 39.00
1525 33.9560 1463.00 1562.54 38.00
1526 33.9730 1528.00 1559.59 39.00
1527 33.9900 1596.00 1556.76 40.00
1528 34.0070 1528.00 1554.05 39.00
1529 34.0240 1530.00 1551.45 39.00
1530 34.0410 1585.00 1548.99 40.00
1531 34.0580 1623.00 1546.67 40.00
1532 34.0750 1602.00 1544.52 40.00
1533 34.0920 1538.00 1542.58 39.00
1534 34.1090 1571.00 1540.92 40.00
1535 34.1260 1635.00 1539.61 40.00
1536 34.1430 1607.00 1538.73 40.00
1537 34.1600 1577.00 1538.37 40.00
1538 34.1770 1586.00 1538.60 40.00
1539 34.1940 1591.00 1539.44 40.00
1540 34.2110 1540.00 1540.88 39.00
1541 34.2280 1614.00 1542.80 40.00
1542 34.2450 1555.00 1544.96 39.00
1543 34.2620 1494.00 1546.98 39.00
1544 34.2790 1416.00 1548.35 38.00
1545 34.2960 1420.00 1548.62 38.00
1546 34.3130 1426.00 1547.60 38.00
1547 34.3300 1417.00 1544.64 38.00
1548 34.3470 1475.00 1538.86 38.00
1549 34.3640 1463.00 1532.47 38.00
1550 34.3810 1471.00 1525.65 38.00
1551 34.3980 1436.00 1518.57 38.00
1552 34.4150 1452.00 1511.50 38.00
1553 34.4320 1400.00 1504.71 37.00
1554 34.4490 1514.00 1498.40 39.00
1555 34.4660 1488.00 1492.68 39.00
1556 34.4830 1496.00 1487.56 39.00
1557 34.5000 1483.00 1482.98 39.00
1558 34.5170 1454.00 1478.81 38.00
1559 34.5340 1444.00 1474.91 38.00
1560 34.5510 1453.00 1471.15 38.00
1561 34.5680 1491.00 1467.43 39.00
1562 34.5850 1491.00 1463.64 39.00
1563 34.6020 1491.00 1459.65 39.00
1564 34.6190 1518.00 1455.42 39.00
1565 34.6360 1502.00 1450.96 39.00
1566 34.6530 1472.00 1446.34 38.00
1567 34.6700 1464.00 1441.65 38.00
1568 34.6870 1451.00 1436.92 38.00
1569 34.7040 1429.00 1432.21 38.00
1570 34.7210 1421.00 1427.55 38.00
1571 34.7380 1412.00 1423.00 38.00
1572 34.7550 1411.00 1418.57 38.00
1573 34.7720 1398.00 1414.30 37.00
1574 34.7890 1368.00 1410.18 37.00
1575 34.8060 1424.00 1406.20 38.00
1576 34.8230 1433.00 1402.34 38.00
1577 34.8400 1359.00 1398.58 37.00
1578 34.8570 1383.00 1394.92 37.00
1579 34.8740 1396.00 1391.32 37.00
1580 34.8910 1376.00 1387.77 37.00
1581 34.9080 1340.00 1384.27 37.00
1582 34.9250 1353.00 1376.37 37.00
1583 34.9420 1374.00 1372.99 37.00
1584 34.9590 1380.00 1369.62 37.00
1585 34.9760 1341.00 1366.28 37.00
1586 34.9930 1336.00 1362.95 37.00
1587 35.0100 1390.00 1359.64 37.00
1588 35.0270 1340.00 1353.96 37.00
1589 35.0440 1270.00 1350.37 36.00
1590 35.0610 1374.00 1346.80 37.00
1591 35.0780 1374.00 1343.29 37.00
1592 35.0950 1325.00 1339.74 36.00
1593 35.1120 1305.00 1336.21 36.00
1594 35.1290 1395.00 1332.69 37.00
1595 35.1460 1352.00 1329.18 37.00
1596 35.1630 1345.00 1306.38 37.00
1597 35.1800 1205.00 1303.24 35.00
1598 35.1970 1253.00 1295.70 35.00
1599 35.2140 1281.00 1292.53 36.00
1600 35.2310 1311.00 1289.45 36.00
1601 35.2480 1320.00 1276.76 36.00
1602 35.2650 1327.00 1273.73 36.00
1603 35.2820 1272.00 1268.57 36.00
1604 35.2990 1275.00 1265.58 36.00
1605 35.3160 1288.00 1262.76 36.00
1606 35.3330 1269.00 1259.78 36.00
1607 35.3500 1268.00 1256.96 36.00
1608 35.3670 1252.00 1253.98 35.00
1609 35.3840 1371.00 1251.02 37.00
1610 35.4010 1265.00 1248.06 36.00
1611 35.4180 1264.00 1245.10 36.00
1612 35.4350 1364.00 1242.24 37.00
1613 35.4520 1328.00 1239.30 36.00
1614 35.4690 1255.00 1236.37 35.00
1615 35.4860 1229.00 1233.45 35.00
1616 35.5030 1302.00 1230.54 36.00
1617 35.5200 1328.00 1227.64 36.00
1618 35.5370 1252.00 1224.75 35.00
1619 35.5540 1240.00 1221.88 35.00
1620 35.5710 1238.00 1219.01 35.00
1621 35.5880 1256.00 1216.17 35.00
1622 35.6050 1291.00 1213.34 36.00
1623 35.6220 1309.00 1210.53 36.00
1624 35.6390 1244.00 1207.73 35.00
1625 35.6560 1150.00 1204.96 34.00
1626 35.6730 1184.00 1203.15 34.00
1627 35.6900 1255.00 1203.59 35.00
1628 35.7070 1189.00 1204.06 34.00
1629 35.7240 1178.00 1204.57 34.00
1630 35.7410 1225.00 1205.11 35.00
1631 35.7580 1194.00 1205.70 35.00
1632 35.7750 1216.00 1206.34 35.00
1633 35.7920 1235.00 1207.04 35.00
1634 35.8090 1179.00 1207.79 34.00
1635 35.8260 1260.00 1208.63 35.00
1636 35.8430 1321.00 1209.55 36.00
1637 35.8600 1236.00 1210.57 35.00
1638 35.8770 1154.00 1211.70 34.00
1639 35.8940 1202.00 1212.98 35.00
1640 35.9110 1174.00 1214.44 34.00
1641 35.9280 1202.00 1216.14 35.00
1642 35.9450 1264.00 1218.15 36.00
1643 35.9620 1277.00 1220.63 36.00
1644 35.9790 1257.00 1223.80 35.00
1645 35.9960 1331.00 1228.00 36.00
1646 36.0130 1286.00 1233.74 36.00
1647 36.0300 1267.00 1241.71 36.00
1648 36.0470 1346.00 1252.75 37.00
1649 36.0640 1349.00 1267.85 37.00
1650 36.0810 1289.00 1288.02 36.00
1651 36.0980 1376.00 1314.15 37.00
1652 36.1150 1288.00 1346.84 36.00
1653 36.1320 1378.00 1386.17 37.00
1654 36.1490 1470.00 1431.51 38.00
1655 36.1660 1448.00 1481.21 38.00
1656 36.1830 1502.00 1532.34 39.00
1657 36.2000 1646.00 1580.67 41.00
1658 36.2170 1699.00 1621.65 41.00
1659 36.2340 1718.00 1652.46 41.00
1660 36.2510 1677.00 1673.65 41.00
1661 36.2680 1811.00 1688.35 43.00
1662 36.2850 1778.00 1699.93 42.00
1663 36.3020 1835.00 1710.34 43.00
1664 36.3190 1850.00 1719.91 43.00
1665 36.3360 1898.00 1728.05 44.00
1666 36.3530 2007.00 1733.37 45.00
1667 36.3700 1869.00 1733.34 43.00
1668 36.3870 1835.00 1724.81 43.00
1669 36.4040 1863.00 1706.01 43.00
1670 36.4210 1777.00 1677.90 42.00
1671 36.4380 1786.00 1643.15 42.00
1672 36.4550 1727.00 1604.26 42.00
1673 36.4720 1659.00 1562.51 41.00
1674 36.4890 1658.00 1518.61 41.00
1675 36.5060 1557.00 1473.76 39.00
1676 36.5230 1526.00 1429.85 39.00
1677 36.5400 1473.00 1388.97 38.00
1678 36.5570 1442.00 1352.58 38.00
1679 36.5740 1470.00 1321.50 38.00
1680 36.5910 1409.00 1295.90 38.00
1681 36.6080 1339.00 1275.55 37.00
1682 36.6250 1360.00 1259.88 37.00
1683 36.6420 1288.00 1248.17 36.00
1684 36.6590 1232.00 1239.60 35.00
1685 36.6760 1302.00 1233.42 36.00
1686 36.6930 1337.00 1228.97 37.00
1687 36.7100 1271.00 1225.74 36.00
1688 36.7270 1240.00 1223.33 35.00
1689 36.7440 1295.00 1221.49 36.00
1690 36.7610 1317.00 1220.04 36.00
1691 36.7780 1239.00 1219.03 35.00
1692 36.7950 1291.00 1218.03 36.00
1693 36.8120 1319.00 1217.19 36.00
1694 36.8290 1265.00 1216.47 36.00
1695 36.8460 1227.00 1215.84 35.00
1696 36.8630 1281.00 1215.30 36.00
1697 36.8800 1274.00 1215.20 36.00
1698 36.8970 1199.00 1214.79 35.00
1699 36.9140 1238.00 1214.44 35.00
1700 36.9310 1244.00 1214.14 35.00
1701 36.9480 1227.00 1213.89 35.00
1702 36.9650 1223.00 1214.06 35.00
1703 36.9820 1220.00 1213.89 35.00
1704 36.9990 1213.00 1213.74 35.00
1705 37.0160 1263.00 1213.63 36.00
1706 37.0330 1237.00 1213.55 35.00
1707 37.0500 1290.00 1213.49 36.00
1708 37.0670 1271.00 1213.65 36.00
1709 37.0840 1198.00 1213.64 35.00
1710 37.1010 1233.00 1213.64 35.00
1711 37.1180 1213.00 1213.67 35.00
1712 37.1350 1219.00 1213.72 35.00
1713 37.1520 1238.00 1213.79 35.00
1714 37.1690 1184.00 1213.88 34.00
1715 37.1860 1163.00 1213.98 34.00
1716 37.2030 1221.00 1213.88 35.00
1717 37.2200 1244.00 1213.78 35.00
1718 37.2370 1277.00 1213.70 36.00
1719 37.2540 1264.00 1213.64 36.00
1720 37.2710 1229.00 1213.59 35.00
1721 37.2880 1301.00 1213.56 36.00
1722 37.3050 1220.00 1213.55 35.00
1723 37.3220 1238.00 1213.56 35.00
1724 37.3390 1227.00 1213.58 35.00
1725 37.3560 1227.00 1213.62 35.00
1726 37.3730 1238.00 1213.69 35.00
1727 37.3900 1268.00 1213.77 36.00
1728 37.4070 1274.00 1213.88 36.00
1729 37.4240 1234.00 1214.01 35.00
1730 37.4410 1189.00 1214.17 34.00
1731 37.4580 1229.00 1214.35 35.00
1732 37.4750 1223.00 1214.57 35.00
1733 37.4920 1199.00 1214.81 35.00
1734 37.5090 1221.00 1215.09 35.00
1735 37.5260 1243.00 1215.40 35.00
1736 37.5430 1232.00 1215.76 35.00
1737 37.5600 1227.00 1216.16 35.00
1738 37.5770 1262.00 1216.61 36.00
1739 37.5940 1246.00 1217.11 35.00
1740 37.6110 1243.00 1217.67 35.00
1741 37.6280 1253.00 1218.30 35.00
1742 37.6450 1198.00 1219.00 35.00
1743 37.6620 1226.00 1219.79 35.00
1744 37.6790 1207.00 1220.67 35.00
1745 37.6960 1175.00 1221.66 34.00
1746 37.7130 1209.00 1222.78 35.00
1747 37.7300 1238.00 1224.03 35.00
1748 37.7470 1226.00 1225.46 35.00
1749 37.7640 1254.00 1227.10 35.00
1750 37.7810 1241.00 1229.00 35.00
1751 37.7980 1261.00 1231.24 36.00
1752 37.8150 1242.00 1233.96 35.00
1753 37.8320 1251.00 1237.36 35.00
1754 37.8490 1282.00 1241.75 36.00
1755 37.8660 1285.00 1247.56 36.00
1756 37.8830 1311.00 1255.41 36.00
1757 37.9000 1320.00 1266.05 36.00
1758 37.9170 1317.00 1280.37 36.00
1759 37.9340 1415.00 1299.34 38.00
1760 37.9510 1414.00 1323.88 38.00
1761 37.9680 1502.00 1354.74 39.00
1762 37.9850 1491.00 1392.34 39.00
1763 38.0020 1523.00 1436.65 39.00
1764 38.0190 1567.00 1486.99 40.00
1765 38.0360 1584.00 1541.86 40.00
1766 38.0530 1633.00 1598.77 40.00
1767 38.0700 1785.00 1654.62 42.00
1768 38.0870 1799.00 1706.71 42.00
1769 38.1040 1779.00 1754.57 42.00
1770 38.1210 1817.00 1800.33 43.00
1771 38.1380 1786.00 1847.58 42.00
1772 38.1550 1864.00 1899.15 43.00
1773 38.1720 1916.00 1955.88 44.00
1774 38.1890 1942.00 2016.58 44.00
1775 38.2060 1938.00 2078.30 44.00
1776 38.2230 2024.00 2136.75 45.00
1777 38.2400 2112.00 2187.12 46.00
1778 38.2570 2084.00 2226.37 46.00
1779 38.2740 2153.00 2254.94 46.00
1780 38.2910 2175.00 2275.76 47.00
1781 38.3080 2274.00 2290.85 48.00
1782 38.3250 2250.00 2298.90 47.00
1783 38.3420 2393.00 2295.10 49.00
1784 38.3590 2457.00 2273.61 50.00
1785 38.3760 2362.00 2231.12 49.00
1786 38.3930 2375.00 2169.14 49.00
1787 38.4100 2355.00 2093.13 49.00
1788 38.4270 2264.00 2009.48 48.00
1789 38.4440 2228.00 1922.86 47.00
1790 38.4610 2107.00 1835.81 46.00
1791 38.4780 1934.00 1749.81 44.00
1792 38.4950 1916.00 1666.66 44.00
1793 38.5120 1772.00 1588.79 42.00
1794 38.5290 1708.00 1518.44 41.00
1795 38.5460 1611.00 1457.04 40.00
1796 38.5630 1477.00 1405.10 38.00
1797 38.5800 1477.00 1362.41 38.00
1798 38.5970 1462.00 1328.24 38.00
1799 38.6140 1457.00 1301.61 38.00
1800 38.6310 1409.00 1281.31 38.00
1801 38.6480 1339.00 1266.11 37.00
1802 38.6650 1313.00 1254.84 36.00
1803 38.6820 1288.00 1246.50 36.00
1804 38.6990 1289.00 1240.26 36.00
1805 38.7160 1299.00 1235.49 36.00
1806 38.7330 1269.00 1231.76 36.00
1807 38.7500 1239.00 1228.74 35.00
1808 38.7670 1205.00 1226.22 35.00
1809 38.7840 1268.00 1224.08 36.00
1810 38.8010 1271.00 1222.23 36.00
1811 38.8180 1219.00 1220.60 35.00
1812 38.8350 1221.00 1219.16 35.00
1813 38.8520 1266.00 1217.88 36.00
1814 38.8690 1264.00 1216.74 36.00
1815 38.8860 1269.00 1215.72 36.00
1816 38.9030 1275.00 1214.82 36.00
1817 38.9200 1255.00 1214.01 35.00
1818 38.9370 1250.00 1213.29 35.00
1819 38.9540 1204.00 1212.66 35.00
1820 38.9710 1214.00 1212.10 35.00
1821 38.9880 1226.00 1211.62 35.00
1822 39.0050 1226.00 1211.20 35.00
1823 39.0220 1175.00 1210.85 34.00
1824 39.0390 1221.00 1210.50 35.00
1825 39.0560 1224.00 1209.82 35.00
1826 39.0730 1241.00 1209.20 35.00
1827 39.0900 1199.00 1208.64 35.00
1828 39.1070 1179.00 1208.12 34.00
1829 39.1240 1211.00 1207.67 35.00
1830 39.1410 1137.00 1207.16 34.00
1831 39.1580 1197.00 1206.82 35.00
1832 39.1750 1182.00 1206.53 34.00
1833 39.1920 1261.00 1206.29 36.00
1834 39.2090 1209.00 1206.12 35.00
1835 39.2260 1185.00 1205.96 34.00
1836 39.2430 1217.00 1205.92 35.00
1837 39.2600 1212.00 1205.95 35.00
1838 39.2770 1212.00 1206.05 35.00
1839 39.2940 1136.00 1206.23 34.00
1840 39.3110 1236.00 1206.40 35.00
1841 39.3280 1240.00 1206.76 35.00
1842 39.3450 1214.00 1207.22 35.00
1843 39.3620 1217.00 1207.80 35.00
1844 39.3790 1204.00 1208.50 35.00
1845 39.3960 1242.00 1209.33 35.00
1846 39.4130 1283.00 1210.27 36.00
1847 39.4300 1228.00 1211.43 35.00
1848 39.4470 1206.00 1212.79 35.00
1849 39.4640 1218.00 1214.36 35.00
1850 39.4810 1204.00 1216.18 35.00
1851 39.4980 1250.00 1218.28 35.00
1852 39.5150 1263.00 1220.72 36.00
1853 39.5320 1248.00 1223.54 35.00
1854 39.5490 1281.00 1226.85 36.00
1855 39.5660 1233.00 1230.75 35.00
1856 39.5830 1298.00 1235.45 36.00
1857 39.6000 1365.00 1241.24 37.00
1858 39.6170 1298.00 1248.62 36.00
1859 39.6340 1264.00 1258.32 36.00
1860 39.6510 1341.00 1271.45 37.00
1861 39.6680 1420.00 1289.59 38.00
1862 39.6850 1407.00 1314.81 38.00
1863 39.7020 1458.00 1349.74 38.00
1864 39.7190 1535.00 1397.35 39.00
1865 39.7360 1514.00 1460.77 39.00
1866 39.7530 1611.00 1542.78 40.00
1867 39.7700 1753.00 1645.35 42.00
1868 39.7870 1770.00 1769.10 42.00
1869 39.8040 1836.00 1912.48 43.00
1870 39.8210 1924.00 2071.57 44.00
1871 39.8380 2187.00 2239.03 47.00
1872 39.8550 2274.00 2404.18 48.00
1873 39.8720 2405.00 2553.44 49.00
1874 39.8890 2481.00 2673.85 50.00
1875 39.9060 2602.00 2758.55 51.00
1876 39.9230 2609.00 2810.50 51.00
1877 39.9400 2818.00 2840.34 53.00
1878 39.9570 2832.00 2860.35 53.00
1879 39.9740 2796.00 2879.57 53.00
1880 39.9910 2958.00 2902.74 54.00
1881 40.0080 2980.00 2931.81 55.00
1882 40.0250 2986.00 2967.39 55.00
1883 40.0420 2991.00 3007.97 55.00
1884 40.0590 3151.00 3047.52 56.00
1885 40.0760 3100.00 3074.47 56.00
1886 40.0930 3169.00 3075.51 56.00
1887 40.1100 2933.00 3041.51 54.00
1888 40.1270 2802.00 2972.30 53.00
1889 40.1440 2746.00 2874.85 52.00
1890 40.1610 2535.00 2757.44 50.00
1891 40.1780 2486.00 2625.78 50.00
1892 40.1950 2251.00 2482.53 47.00
1893 40.2120 2147.00 2329.83 46.00
1894 40.2290 1990.00 2172.37 45.00
1895 40.2460 1909.00 2016.88 44.00
1896 40.2630 1722.00 1870.22 41.00
1897 40.2800 1639.00 1737.44 40.00
1898 40.2970 1597.00 1621.65 40.00
1899 40.3140 1529.00 1523.89 39.00
1900 40.3310 1420.00 1443.91 38.00
1901 40.3480 1430.00 1380.29 38.00
1902 40.3650 1378.00 1331.02 37.00
1903 40.3820 1344.00 1293.66 37.00
1904 40.3990 1311.00 1265.76 36.00
1905 40.4160 1324.00 1245.05 36.00
1906 40.4330 1293.00 1229.59 36.00
1907 40.4500 1259.00 1217.88 35.00
1908 40.4670 1247.00 1208.77 35.00
1909 40.4840 1215.00 1201.46 35.00
1910 40.5010 1229.00 1195.39 35.00
1911 40.5180 1187.00 1190.21 34.00
1912 40.5350 1207.00 1185.67 35.00
1913 40.5520 1261.00 1181.62 36.00
1914 40.5690 1257.00 1177.96 35.00
1915 40.5860 1200.00 1174.62 35.00
1916 40.6030 1121.00 1171.55 33.00
1917 40.6200 1167.00 1168.71 34.00
1918 40.6370 1221.00 1166.07 35.00
1919 40.6540 1177.00 1163.62 34.00
1920 40.6710 1246.00 1161.32 35.00
1921 40.6880 1285.00 1159.15 36.00
1922 40.7050 1202.00 1157.12 35.00
1923 40.7220 1187.00 1155.20 34.00
1924 40.7390 1184.00 1153.38 34.00
1925 40.7560 1142.00 1151.64 34.00
1926 40.7730 1117.00 1149.99 33.00
1927 40.7900 1159.00 1148.42 34.00
1928 40.8070 1156.00 1146.91 34.00
1929 40.8240 1203.00 1145.47 35.00
1930 40.8410 1219.00 1144.08 35.00
1931 40.8580 1138.00 1142.89 34.00
1932 40.8750 1153.00 1141.92 34.00
1933 40.8920 1199.00 1141.00 35.00
1934 40.9090 1182.00 1140.11 34.00
1935 40.9260 1121.00 1139.26 33.00
1936 40.9430 1081.00 1138.44 33.00
1937 40.9600 1166.00 1137.66 34.00
1938 40.9770 1144.00 1136.90 34.00
1939 40.9940 1101.00 1136.17 33.00
1940 41.0110 1111.00 1135.47 33.00
1941 41.0280 1124.00 1134.79 34.00
1942 41.0450 1146.00 1134.13 34.00
1943 41.0620 1147.00 1133.49 34.00
1944 41.0790 1179.00 1132.87 34.00
1945 41.0960 1131.00 1132.26 34.00
1946 41.1130 1153.00 1131.58 34.00
1947 41.1300 1172.00 1131.01 34.00
1948 41.1470 1130.00 1130.45 34.00
1949 41.1640 1167.00 1129.91 34.00
1950 41.1810 1131.00 1129.38 34.00
1951 41.1980 1142.00 1128.86 34.00
1952 41.2150 1166.00 1128.31 34.00
1953 41.2320 1160.00 1127.82 34.00
1954 41.2490 1097.00 1127.33 33.00
1955 41.2660 1103.00 1126.69 33.00
1956 41.2830 1141.00 1126.22 34.00
1957 41.3000 1090.00 1125.77 33.00
1958 41.3170 1146.00 1125.32 34.00
1959 41.3340 1155.00 1124.88 34.00
1960 41.3510 1098.00 1124.45 33.00
1961 41.3680 1174.00 1124.03 34.00
1962 41.3850 1167.00 1123.53 34.00
1963 41.4020 1170.00 1122.96 34.00
1964 41.4190 1125.00 1122.56 34.00
1965 41.4360 1112.00 1122.17 33.00
1966 41.4530 1122.00 1121.78 33.00
1967 41.4700 1078.00 1121.39 33.00
1968 41.4870 1083.00 1121.02 33.00
1969 41.5040 1144.00 1120.57 34.00
1970 41.5210 1183.00 1120.21 34.00
1971 41.5380 1186.00 1119.86 34.00
1972 41.5550 1162.00 1119.52 34.00
1973 41.5720 1162.00 1119.19 34.00
1974 41.5890 1152.00 1118.88 34.00
1975 41.6060 1135.00 1118.59 34.00
1976 41.6230 1157.00 1118.32 34.00
1977 41.6400 1188.00 1118.09 34.00
1978 41.6570 1141.00 1117.89 34.00
1979 41.6740 1140.00 1117.72 34.00
1980 41.6910 1238.00 1117.60 35.00
1981 41.7080 1176.00 1117.50 34.00
1982 41.7250 1198.00 1117.43 35.00
1983 41.7420 1221.00 1117.37 35.00
1984 41.7590 1205.00 1117.30 35.00
1985 41.7760 1177.00 1117.20 34.00
1986 41.7930 1210.00 1117.04 35.00
1987 41.8100 1279.00 1116.81 36.00
1988 41.8270 1204.00 1116.50 35.00
1989 41.8440 1222.00 1116.14 35.00
1990 41.8610 1261.00 1115.73 36.00
1991 41.8780 1226.00 1115.28 35.00
1992 41.8950 1163.00 1114.80 34.00
1993 41.9120 1169.00 1114.30 34.00
1994 41.9290 1205.00 1113.79 35.00
1995 41.9460 1214.00 1113.27 35.00
1996 41.9630 1216.00 1112.76 35.00
1997 41.9800 1219.00 1112.27 35.00
1998 41.9970 1218.00 1111.80 35.00
1999 42.0140 1158.00 1111.36 34.00
2000 42.0310 1167.00 1110.94 34.00
2001 42.0480 1147.00 1110.56 34.00
2002 42.0650 1175.00 1110.20 34.00
2003 42.0820 1206.00 1109.86 35.00
2004 42.0990 1147.00 1109.54 34.00
2005 42.1160 1211.00 1109.23 35.00
2006 42.1330 1168.00 1108.94 34.00
2007 42.1500 1186.00 1108.65 34.00
2008 42.1670 1129.00 1108.38 34.00
2009 42.1840 1109.00 1108.11 33.00
2010 42.2010 1181.00 1107.85 34.00
2011 42.2180 1213.00 1107.59 35.00
2012 42.2350 1162.00 1107.34 34.00
2013 42.2520 1113.00 1107.09 33.00
2014 42.2690 1116.00 1106.84 33.00
2015 42.2860 1134.00 1106.60 34.00
2016 42.3030 1109.00 1106.36 33.00
2017 42.3200 1116.00 1107.02 33.00
2018 42.3370 1172.00 1107.68 34.00
2019 42.3540 1151.00 1108.35 34.00
2020 42.3710 1143.00 1109.02 34.00
2021 42.3880 1127.00 1109.69 34.00
2022 42.4050 1128.00 1110.38 34.00
2023 42.4220 1121.00 1111.06 33.00
2024 42.4390 1098.00 1111.76 33.00
2025 42.4560 1129.00 1112.46 34.00
2026 42.4730 1118.00 1113.16 33.00
2027 42.4900 1159.00 1113.88 34.00
2028 42.5070 1180.00 1114.60 34.00
2029 42.5240 1152.00 1115.33 34.00
2030 42.5410 1129.00 1116.07 34.00
2031 42.5580 1128.00 1116.81 34.00
2032 42.5750 1151.00 1117.57 34.00
2033 42.5920 1175.00 1118.34 34.00
2034 42.6090 1129.00 1119.12 34.00
2035 42.6260 1135.00 1119.92 34.00
2036 42.6430 1119.00 1120.73 33.00
2037 42.6600 1061.00 1121.56 33.00
2038 42.6770 1103.00 1122.40 33.00
2039 42.6940 1097.00 1123.26 33.00
2040 42.7110 1089.00 1124.15 33.00
2041 42.7280 1120.00 1125.05 33.00
2042 42.7450 1184.00 1125.98 34.00
2043 42.7620 1170.00 1126.95 34.00
2044 42.7790 1142.00 1127.94 34.00
2045 42.7960 1127.00 1128.97 34.00
2046 42.8130 1111.00 1130.04 33.00
2047 42.8300 1157.00 1131.16 34.00
2048 42.8470 1167.00 1132.33 34.00
2049 42.8640 1214.00 1133.56 35.00
2050 42.8810 1201.00 1134.86 35.00
2051 42.8980 1121.00 1138.39 33.00
2052 42.9150 1136.00 1139.90 34.00
2053 42.9320 1108.00 1141.54 33.00
2054 42.9490 1102.00 1143.36 33.00
2055 42.9660 1211.00 1145.42 35.00
2056 42.9830 1196.00 1147.82 35.00
2057 43.0000 1188.00 1150.71 34.00
2058 43.0170 1193.00 1158.37 35.00
2059 43.0340 1184.00 1163.00 34.00
2060 43.0510 1249.00 1169.01 35.00
2061 43.0680 1298.00 1176.84 36.00
2062 43.0850 1237.00 1187.04 35.00
2063 43.1020 1244.00 1200.18 35.00
2064 43.1190 1356.00 1216.79 37.00
2065 43.1360 1441.00 1237.16 38.00
2066 43.1530 1389.00 1261.94 37.00
2067 43.1700 1368.00 1291.02 37.00
2068 43.1870 1476.00 1326.62 38.00
2069 43.2040 1544.00 1363.23 39.00
2070 43.2210 1570.00 1402.23 40.00
2071 43.2380 1611.00 1441.68 40.00
2072 43.2550 1601.00 1480.58 40.00
2073 43.2720 1569.00 1517.01 40.00
2074 43.2890 1653.00 1550.35 41.00
2075 43.3060 1676.00 1581.58 41.00
2076 43.3230 1669.00 1609.49 41.00
2077 43.3400 1652.00 1635.21 41.00
2078 43.3570 1671.00 1658.12 41.00
2079 43.3740 1774.00 1675.83 42.00
2080 43.3910 1733.00 1685.59 42.00
2081 43.4080 1678.00 1685.07 41.00
2082 43.4250 1698.00 1673.45 41.00
2083 43.4420 1614.00 1651.82 40.00
2084 43.4590 1612.00 1622.66 40.00
2085 43.4760 1569.00 1588.63 40.00
2086 43.4930 1469.00 1551.78 38.00
2087 43.5100 1460.00 1513.26 38.00
2088 43.5270 1446.00 1473.73 38.00
2089 43.5440 1441.00 1433.88 38.00
2090 43.5610 1435.00 1394.77 38.00
2091 43.5780 1382.00 1357.62 37.00
2092 43.5950 1305.00 1323.52 36.00
2093 43.6120 1287.00 1293.18 36.00
2094 43.6290 1350.00 1266.95 37.00
2095 43.6460 1350.00 1244.86 37.00
2096 43.6630 1336.00 1226.73 37.00
2097 43.6800 1269.00 1212.22 36.00
2098 43.6970 1201.00 1200.88 35.00
2099 43.7140 1239.00 1192.20 35.00
2100 43.7310 1235.00 1185.68 35.00
2101 43.7480 1246.00 1180.85 35.00
2102 43.7650 1226.00 1177.29 35.00
2103 43.7820 1207.00 1174.67 35.00
2104 43.7990 1232.00 1172.72 35.00
2105 43.8160 1154.00 1171.25 34.00
2106 43.8330 1184.00 1170.11 34.00
2107 43.8500 1199.00 1169.21 35.00
2108 43.8670 1252.00 1168.49 35.00
2109 43.8840 1244.00 1167.91 35.00
2110 43.9010 1246.00 1167.42 35.00
2111 43.9180 1278.00 1167.02 36.00
2112 43.9350 1335.00 1166.70 37.00
2113 43.9520 1304.00 1166.43 36.00
2114 43.9690 1218.00 1166.22 35.00
2115 43.9860 1215.00 1166.06 35.00
2116 44.0030 1264.00 1165.94 36.00
2117 44.0200 1235.00 1165.86 35.00
2118 44.0370 1185.00 1165.82 34.00
2119 44.0540 1219.00 1165.81 35.00
2120 44.0710 1219.00 1165.83 35.00
2121 44.0880 1210.00 1165.87 35.00
2122 44.1050 1204.00 1165.95 35.00
2123 44.1220 1156.00 1166.04 34.00
2124 44.1390 1136.00 1166.16 34.00
2125 44.1560 1116.00 1166.30 33.00
2126 44.1730 1132.00 1166.46 34.00
2127 44.1900 1184.00 1166.64 34.00
2128 44.2070 1172.00 1166.84 34.00
2129 44.2240 1144.00 1167.06 34.00
2130 44.2410 1141.00 1167.29 34.00
2131 44.2580 1125.00 1167.54 34.00
2132 44.2750 1217.00 1167.81 35.00
2133 44.2920 1197.00 1168.09 35.00
2134 44.3090 1199.00 1168.39 35.00
2135 44.3260 1207.00 1168.70 35.00
2136 44.3430 1188.00 1169.04 34.00
2137 44.3600 1152.00 1169.38 34.00
2138 44.3770 1222.00 1169.74 35.00
2139 44.3940 1225.00 1170.11 35.00
2140 44.4110 1234.00 1170.49 35.00
2141 44.4280 1251.00 1170.90 35.00
2142 44.4450 1173.00 1171.31 34.00
2143 44.4620 1180.00 1171.75 34.00
2144 44.4790 1171.00 1172.20 34.00
2145 44.4960 1131.00 1172.66 34.00
2146 44.5130 1163.00 1173.15 34.00
2147 44.5300 1170.00 1173.64 34.00
2148 44.5470 1135.00 1174.15 34.00
2149 44.5640 1123.00 1174.68 34.00
2150 44.5810 1186.00 1176.85 34.00
2151 44.5980 1188.00 1180.50 34.00
2152 44.6150 1156.00 1184.16 34.00
2153 44.6320 1251.00 1187.85 35.00
2154 44.6490 1245.00 1191.54 35.00
2155 44.6660 1217.00 1195.26 35.00
2156 44.6830 1180.00 1199.00 34.00
2157 44.7000 1196.00 1202.76 35.00
2158 44.7170 1191.00 1206.54 35.00
2159 44.7340 1268.00 1210.34 36.00
2160 44.7510 1244.00 1214.16 35.00
2161 44.7680 1231.00 1218.00 35.00
2162 44.7850 1231.00 1221.87 35.00
2163 44.8020 1216.00 1225.76 35.00
2164 44.8190 1238.00 1229.67 35.00
2165 44.8360 1255.00 1233.62 35.00
2166 44.8530 1242.00 1237.59 35.00
2167 44.8700 1200.00 1241.58 35.00
2168 44.8870 1283.00 1245.61 36.00
2169 44.9040 1322.00 1249.66 36.00
2170 44.9210 1264.00 1253.75 36.00
2171 44.9380 1318.00 1257.87 36.00
2172 44.9550 1305.00 1262.03 36.00
2173 44.9720 1303.00 1266.22 36.00
2174 44.9890 1272.00 1270.44 36.00
2175 45.0060 1255.00 1274.71 35.00
2176 45.0230 1244.00 1279.01 35.00
2177 45.0400 1306.00 1283.36 36.00
2178 45.0570 1368.00 1287.75 37.00
2179 45.0740 1249.00 1292.19 35.00
2180 45.0910 1258.00 1296.67 35.00
2181 45.1080 1286.00 1301.21 36.00
2182 45.1250 1277.00 1305.80 36.00
2183 45.1420 1261.00 1310.44 36.00
2184 45.1590 1223.00 1315.15 35.00
2185 45.1760 1263.00 1318.91 36.00
2186 45.1930 1302.00 1320.91 36.00
2187 45.2100 1330.00 1322.98 36.00
2188 45.2270 1341.00 1325.11 37.00
2189 45.2440 1307.00 1327.33 36.00
2190 45.2610 1283.00 1329.62 36.00
2191 45.2780 1247.00 1331.99 35.00
2192 45.2950 1271.00 1334.46 36.00
2193 45.3120 1303.00 1337.01 36.00
2194 45.3290 1301.00 1339.67 36.00
2195 45.3460 1302.00 1342.43 36.00
2196 45.3630 1361.00 1345.30 37.00
2197 45.3800 1328.00 1348.29 36.00
2198 45.3970 1351.00 1351.40 37.00
2199 45.4140 1402.00 1354.65 37.00
2200 45.4310 1378.00 1358.04 37.00
2201 45.4480 1341.00 1361.57 37.00
2202 45.4650 1365.00 1365.27 37.00
2203 45.4820 1398.00 1369.14 37.00
2204 45.4990 1381.00 1373.19 37.00
2205 45.5160 1369.00 1377.44 37.00
2206 45.5330 1393.00 1381.89 37.00
2207 45.5500 1375.00 1386.57 37.00
2208 45.5670 1334.00 1391.49 37.00
2209 45.5840 1323.00 1396.67 36.00
2210 45.6010 1388.00 1402.13 37.00
2211 45.6180 1399.00 1407.89 37.00
2212 45.6350 1387.00 1413.97 37.00
2213 45.6520 1350.00 1420.40 37.00
2214 45.6690 1347.00 1427.21 37.00
2215 45.6860 1397.00 1434.44 37.00
2216 45.7030 1430.00 1442.11 38.00
2217 45.7200 1387.00 1450.27 37.00
2218 45.7370 1453.00 1458.96 38.00
2219 45.7540 1480.00 1468.23 38.00
2220 45.7710 1495.00 1478.14 39.00
2221 45.7880 1463.00 1488.74 38.00
2222 45.8050 1451.00 1500.11 38.00
2223 45.8220 1604.00 1512.34 40.00
2224 45.8390 1522.00 1525.50 39.00
2225 45.8560 1524.00 1539.70 39.00
2226 45.8730 1562.00 1555.05 40.00
2227 45.8900 1583.00 1571.70 40.00
2228 45.9070 1549.00 1589.79 39.00
2229 45.9240 1641.00 1609.51 41.00
2230 45.9410 1609.00 1631.05 40.00
2231 45.9580 1647.00 1654.68 41.00
2232 45.9750 1804.00 1680.70 42.00
2233 45.9920 1801.00 1709.50 42.00
2234 46.0090 1863.00 1741.59 43.00
2235 46.0260 1948.00 1777.72 44.00
2236 46.0430 2032.00 1818.92 45.00
2237 46.0600 2110.00 1866.78 46.00
2238 46.0770 2254.00 1923.78 47.00
2239 46.0940 2397.00 1993.60 49.00
2240 46.1110 2565.00 2081.91 51.00
2241 46.1280 2688.00 2196.91 52.00
2242 46.1450 2913.00 2350.33 54.00
2243 46.1620 3156.00 2558.03 56.00
2244 46.1790 3645.00 2840.57 60.00
2245 46.1960 4140.00 3223.02 64.00
2246 46.2130 4744.00 3733.92 69.00
2247 46.2300 5585.00 4403.70 75.00
2248 46.2470 6546.00 5259.97 81.00
2249 46.2640 7786.00 6325.28 88.00
2250 46.2810 9060.00 7609.25 95.00
2251 46.2980 10485.00 9106.69 102.00
2252 46.3150 12119.00 10790.60 110.00
2253 46.3320 13743.00 12609.50 117.00
2254 46.3490 15190.00 14484.80 123.00
2255 46.3660 16759.00 16309.50 129.00
2256 46.3830 17888.00 17953.00 134.00
2257 46.4000 18698.00 19279.10 137.00
2258 46.4170 19339.00 20180.70 139.00
2259 46.4340 19936.00 20614.50 141.00
2260 46.4510 20036.00 20615.30 142.00
2261 46.4680 19833.00 20270.30 141.00
2262 46.4850 19522.00 19679.40 140.00
2263 46.5020 18897.00 18926.10 137.00
2264 46.5190 18163.00 18069.70 135.00
2265 46.5360 17291.00 17155.70 131.00
2266 46.5530 16288.00 16233.20 128.00
2267 46.5700 15695.00 15364.50 125.00
2268 46.5870 14908.00 14616.80 122.00
2269 46.6040 14487.00 14044.80 120.00
2270 46.6210 14195.00 13678.80 119.00
2271 46.6380 14395.00 13516.70 120.00
2272 46.6550 14588.00 13526.00 121.00
2273 46.6720 14911.00 13646.10 122.00
2274 46.6890 15544.00 13795.00 125.00
2275 46.7060 15820.00 13884.10 126.00
2276 46.7230 16047.00 13840.30 127.00
2277 46.7400 15791.00 13627.10 126.00
2278 46.7570 15320.00 13248.20 124.00
2279 46.7740 14356.00 12732.40 120.00
2280 46.7910 13158.00 12111.70 115.00
2281 46.8080 12152.00 11408.60 110.00
2282 46.8250 10888.00 10634.30 104.00
2283 46.8420 10000.00 9796.21 100.00
2284 46.8590 9330.00 8909.04 97.00
2285 46.8760 8310.00 7998.95 91.00
2286 46.8930 7202.00 7099.57 85.00
2287 46.9100 6358.00 6243.03 80.00
2288 46.9270 5293.00 5454.37 73.00
2289 46.9440 4649.00 4749.09 68.00
2290 46.9610 3833.00 4135.17 62.00
2291 46.9780 3248.00 3613.90 57.00
2292 46.9950 2839.00 3181.65 53.00
2293 47.0120 2509.00 2831.14 50.00
2294 47.0290 2357.00 2552.68 49.00
2295 47.0460 2269.00 2335.32 48.00
2296 47.0630 2155.00 2167.95 46.00
2297 47.0800 1971.00 2040.10 44.00
2298 47.0970 1887.00 1942.56 43.00
2299 47.1140 1795.00 1867.65 42.00
2300 47.1310 1778.00 1809.25 42.00
2301 47.1480 1700.00 1762.77 41.00
2302 47.1650 1641.00 1724.83 41.00
2303 47.1820 1627.00 1693.05 40.00
2304 47.1990 1605.00 1665.79 40.00
2305 47.2160 1564.00 1641.95 40.00
2306 47.2330 1518.00 1620.78 39.00
2307 47.2500 1529.00 1601.76 39.00
2308 47.2670 1579.00 1584.58 40.00
2309 47.2840 1496.00 1568.89 39.00
2310 47.3010 1500.00 1554.53 39.00
2311 47.3180 1499.00 1541.34 39.00
2312 47.3350 1461.00 1529.20 38.00
2313 47.3520 1495.00 1518.00 39.00
2314 47.3690 1446.00 1507.63 38.00
2315 47.3860 1401.00 1498.09 37.00
2316 47.4030 1435.00 1489.17 38.00
2317 47.4200 1418.00 1480.88 38.00
2318 47.4370 1413.00 1473.16 38.00
2319 47.4540 1434.00 1465.96 38.00
2320 47.4710 1463.00 1459.24 38.00
2321 47.4880 1410.00 1452.96 38.00
2322 47.5050 1435.00 1447.08 38.00
2323 47.5220 1436.00 1441.58 38.00
2324 47.5390 1451.00 1436.42 38.00
2325 47.5560 1403.00 1431.58 37.00
2326 47.5730 1326.00 1427.04 36.00
2327 47.5900 1380.00 1422.78 37.00
2328 47.6070 1368.00 1418.79 37.00
2329 47.6240 1383.00 1415.06 37.00
2330 47.6410 1409.00 1411.58 38.00
2331 47.6580 1359.00 1408.35 37.00
2332 47.6750 1342.00 1405.39 37.00
2333 47.6920 1355.00 1402.70 37.00
2334 47.7090 1359.00 1400.32 37.00
2335 47.7260 1367.00 1398.29 37.00
2336 47.7430 1358.00 1396.67 37.00
2337 47.7600 1297.00 1395.52 36.00
2338 47.7770 1306.00 1394.91 36.00
2339 47.7940 1382.00 1394.92 37.00
2340 47.8110 1408.00 1395.61 38.00
2341 47.8280 1330.00 1397.03 36.00
2342 47.8450 1382.00 1399.20 37.00
2343 47.8620 1400.00 1402.07 37.00
2344 47.8790 1319.00 1405.55 36.00
2345 47.8960 1332.00 1409.50 36.00
2346 47.9130 1371.00 1413.67 37.00
2347 47.9300 1322.00 1417.78 36.00
2348 47.9470 1344.00 1419.44 37.00
2349 47.9640 1365.00 1420.42 37.00
2350 47.9810 1334.00 1420.48 37.00
2351 47.9980 1290.00 1419.45 36.00
2352 48.0150 1323.00 1417.27 36.00
2353 48.0320 1308.00 1413.97 36.00
2354 48.0490 1320.00 1409.69 36.00
2355 48.0660 1344.00 1404.64 37.00
2356 48.0830 1288.00 1398.99 36.00
2357 48.1000 1308.00 1392.90 36.00
2358 48.1170 1267.00 1386.48 36.00
2359 48.1340 1275.00 1379.79 36.00
2360 48.1510 1320.00 1372.91 36.00
2361 48.1680 1282.00 1365.91 36.00
2362 48.1850 1215.00 1358.91 35.00
2363 48.2020 1236.00 1352.00 35.00
2364 48.2190 1288.00 1345.29 36.00
2365 48.2360 1318.00 1339.30 36.00
2366 48.2530 1257.00 1333.25 35.00
2367 48.2700 1280.00 1327.59 36.00
2368 48.2870 1281.00 1322.30 36.00
2369 48.3040 1292.00 1317.36 36.00
2370 48.3210 1259.00 1312.73 35.00
2371 48.3380 1236.00 1308.38 35.00
2372 48.3550 1263.00 1305.21 36.00
2373 48.3720 1272.00 1301.34 36.00
2374 48.3890 1243.00 1297.67 35.00
2375 48.4060 1243.00 1294.20 35.00
2376 48.4230 1190.00 1290.89 34.00
2377 48.4400 1192.00 1288.63 35.00
2378 48.4570 1253.00 1285.62 35.00
2379 48.4740 1233.00 1282.74 35.00
2380 48.4910 1243.00 1279.96 35.00
2381 48.5080 1276.00 1277.27 36.00
2382 48.5250 1264.00 1274.67 36.00
2383 48.5420 1238.00 1272.12 35.00
2384 48.5590 1224.00 1269.64 35.00
2385 48.5760 1184.00 1269.36 34.00
2386 48.5930 1233.00 1266.98 35.00
2387 48.6100 1234.00 1264.64 35.00
2388 48.6270 1233.00 1262.32 35.00
2389 48.6440 1213.00 1260.02 35.00
2390 48.6610 1224.00 1259.15 35.00
2391 48.6780 1236.00 1256.91 35.00
2392 48.6950 1269.00 1254.68 36.00
2393 48.7120 1288.00 1252.47 36.00
2394 48.7290 1269.00 1250.28 36.00
2395 48.7460 1248.00 1248.11 35.00
2396 48.7630 1242.00 1247.45 35.00
2397 48.7800 1222.00 1245.32 35.00
2398 48.7970 1194.00 1243.20 35.00
2399 48.8140 1216.00 1241.09 35.00
2400 48.8310 1236.00 1238.99 35.00
2401 48.8480 1155.00 1236.90 34.00
2402 48.8650 1200.00 1234.83 35.00
2403 48.8820 1235.00 1232.76 35.00
2404 48.8990 1243.00 1230.71 35.00
2405 48.9160 1207.00 1228.67 35.00
2406 48.9330 1175.00 1226.63 34.00
2407 48.9500 1191.00 1224.61 35.00
2408 48.9670 1148.00 1222.60 34.00
2409 48.9840 1162.00 1220.60 34.00
2410 49.0010 1156.00 1218.60 34.00
2411 49.0180 1190.00 1216.62 34.00
2412 49.0350 1164.00 1214.64 34.00
2413 49.0520 1174.00 1212.67 34.00
2414 49.0690 1173.00 1210.72 34.00
2415 49.0860 1189.00 1208.77 34.00
2416 49.1030 1196.00 1206.82 35.00
2417 49.1200 1197.00 1204.89 35.00
2418 49.1370 1155.00 1202.97 34.00
2419 49.1540 1148.00 1201.05 34.00
2420 49.1710 1149.00 1199.52 34.00
2421 49.1880 1152.00 1197.99 34.00
2422 49.2050 1218.00 1196.47 35.00
2423 49.2220 1190.00 1194.97 34.00
2424 49.2390 1179.00 1193.47 34.00
2425 49.2560 1155.00 1191.98 34.00
2426 49.2730 1129.00 1190.51 34.00
2427 49.2900 1158.00 1189.05 34.00
2428 49.3070 1163.00 1187.61 34.00
2429 49.3240 1156.00 1186.20 34.00
2430 49.3410 1187.00 1184.81 34.00
2431 49.3580 1172.00 1183.47 34.00
2432 49.3750 1179.00 1182.17 34.00
2433 49.3920 1166.00 1180.93 34.00
2434 49.4090 1115.00 1179.77 33.00
2435 49.4260 1078.00 1178.69 33.00
2436 49.4430 1096.00 1177.71 33.00
2437 49.4600 1103.00 1176.83 33.00
2438 49.4770 1150.00 1176.05 34.00
2439 49.4940 1101.00 1175.37 33.00
2440 49.5110 1109.00 1174.77 33.00
2441 49.5280 1158.00 1174.22 34.00
2442 49.5450 1193.00 1173.70 35.00
2443 49.5620 1170.00 1173.16 34.00
2444 49.5790 1079.00 1172.55 33.00
2445 49.5960 1097.00 1171.81 33.00
2446 49.6130 1119.00 1170.92 33.00
2447 49.6300 1150.00 1169.87 34.00
2448 49.6470 1109.00 1168.65 33.00
2449 49.6640 1109.00 1167.29 33.00
2450 49.6810 1136.00 1165.82 34.00
2451 49.6980 1122.00 1164.23 33.00
2452 49.7150 1146.00 1162.54 34.00
2453 49.7320 1108.00 1160.73 33.00
2454 49.7490 1174.00 1158.83 34.00
2455 49.7660 1172.00 1156.86 34.00
2456 49.7830 1179.00 1154.84 34.00
2457 49.8000 1139.00 1152.82 34.00
2458 49.8170 1096.00 1150.81 33.00
2459 49.8340 1106.00 1148.84 33.00
2460 49.8510 1134.00 1146.91 34.00
2461 49.8680 1169.00 1145.04 34.00
2462 49.8850 1165.00 1143.24 34.00
2463 49.9020 1095.00 1143.93 33.00
2464 49.9190 1189.00 1146.41 34.00
2465 49.9360 1117.00 1144.66 33.00
2466 49.9530 1109.00 1147.30 33.00
2467 49.9700 1152.00 1150.00 34.00
2468 49.9870 1140.00 1152.76 34.00
2469 50.0040 1117.00 1155.57 33.00
2470 50.0210 1121.00 1158.41 33.00
2471 50.0380 1164.00 1161.29 34.00
2472 50.0550 1214.00 1164.21 35.00
2473 50.0720 1164.00 1165.05 34.00
2474 50.0890 1144.00 1168.03 34.00
2475 50.1060 1109.00 1171.04 33.00
2476 50.1230 1179.00 1174.07 34.00
2477 50.1400 1145.00 1177.11 34.00
2478 50.1570 1150.00 1180.16 34.00
2479 50.1740 1210.00 1183.24 35.00
2480 50.1910 1182.00 1186.32 34.00
2481 50.2080 1210.00 1189.43 35.00
2482 50.2250 1233.00 1192.54 35.00
2483 50.2420 1229.00 1195.67 35.00
2484 50.2590 1186.00 1196.36 34.00
2485 50.2760 1168.00 1199.54 34.00
2486 50.2930 1219.00 1202.74 35.00
2487 50.3100 1208.00 1205.96 35.00
2488 50.3270 1152.00 1209.19 34.00
2489 50.3440 1187.00 1212.45 34.00
2490 50.3610 1224.00 1215.72 35.00
2491 50.3780 1230.00 1219.01 35.00
2492 50.3950 1261.00 1221.11 36.00
2493 50.4120 1259.00 1224.46 35.00
2494 50.4290 1184.00 1227.83 34.00
2495 50.4460 1180.00 1231.23 34.00
2496 50.4630 1237.00 1234.65 35.00
2497 50.4800 1254.00 1238.10 35.00
2498 50.4970 1300.00 1241.59 36.00
2499 50.5140 1243.00 1245.11 35.00
2500 50.5310 1210.00 1248.66 35.00
2501 50.5480 1159.00 1252.26 34.00
2502 50.5650 1192.00 1255.90 35.00
2503 50.5820 1231.00 1259.60 35.00
2504 50.5990 1308.00 1263.36 36.00
2505 50.6160 1279.00 1267.19 36.00
2506 50.6330 1232.00 1271.12 35.00
2507 50.6500 1259.00 1275.15 35.00
2508 50.6670 1291.00 1279.34 36.00
2509 50.6840 1270.00 1283.71 36.00
2510 50.7010 1340.00 1288.34 37.00
2511 50.7180 1308.00 1293.29 36.00
2512 50.7350 1247.00 1298.68 35.00
2513 50.7520 1243.00 1304.64 35.00
2514 50.7690 1277.00 1310.99 36.00
2515 50.7860 1286.00 1315.78 36.00
2516 50.8030 1254.00 1321.72 35.00
2517 50.8200 1200.00 1329.09 35.00
2518 50.8370 1349.00 1338.18 37.00
2519 50.8540 1414.00 1349.27 38.00
2520 50.8710 1399.00 1362.64 37.00
2521 50.8880 1403.00 1378.50 37.00
2522 50.9050 1306.00 1396.95 36.00
2523 50.9220 1385.00 1417.95 37.00
2524 50.9390 1376.00 1441.27 37.00
2525 50.9560 1387.00 1466.50 37.00
2526 50.9730 1346.00 1493.03 37.00
2527 50.9900 1427.00 1520.08 38.00
2528 51.0070 1414.00 1546.66 38.00
2529 51.0240 1470.00 1571.50 38.00
2530 51.0410 1515.00 1593.16 39.00
2531 51.0580 1486.00 1610.19 39.00
2532 51.0750 1474.00 1621.42 38.00
2533 51.0920 1496.00 1626.37 39.00
2534 51.1090 1503.00 1625.34 39.00
2535 51.1260 1528.00 1619.22 39.00
2536 51.1430 1533.00 1609.14 39.00
2537 51.1600 1512.00 1596.11 39.00
2538 51.1770 1501.00 1580.86 39.00
2539 51.1940 1465.00 1563.83 38.00
2540 51.2110 1495.00 1545.37 39.00
2541 51.2280 1501.00 1525.88 39.00
2542 51.2450 1445.00 1505.97 38.00
2543 51.2620 1419.00 1486.33 38.00
2544 51.2790 1430.00 1467.66 38.00
2545 51.2960 1415.00 1450.54 38.00
2546 51.3130 1419.00 1435.36 38.00
2547 51.3300 1413.00 1422.36 38.00
2548 51.3470 1400.00 1411.64 37.00
2549 51.3640 1334.00 1403.16 37.00
2550 51.3810 1354.00 1396.85 37.00
2551 51.3980 1355.00 1392.53 37.00
2552 51.4150 1363.00 1390.02 37.00
2553 51.4320 1348.00 1389.10 37.00
2554 51.4490 1337.00 1389.57 37.00
2555 51.4660 1368.00 1391.22 37.00
2556 51.4830 1351.00 1393.88 37.00
2557 51.5000 1378.00 1397.41 37.00
2558 51.5170 1429.00 1401.71 38.00
2559 51.5340 1426.00 1406.68 38.00
2560 51.5510 1409.00 1412.29 38.00
2561 51.5680 1387.00 1418.50 37.00
2562 51.5850 1477.00 1425.34 38.00
2563 51.6020 1493.00 1432.82 39.00
2564 51.6190 1512.00 1440.97 39.00
2565 51.6360 1519.00 1449.85 39.00
2566 51.6530 1596.00 1459.56 40.00
2567 51.6700 1584.00 1470.20 40.00
2568 51.6870 1538.00 1481.91 39.00
2569 51.7040 1618.00 1494.92 40.00
2570 51.7210 1629.00 1509.51 40.00
2571 51.7380 1712.00 1526.12 41.00
2572 51.7550 1755.00 1545.39 42.00
2573 51.7720 1774.00 1568.21 42.00
2574 51.7890 1813.00 1595.89 43.00
2575 51.8060 1901.00 1630.20 44.00
2576 51.8230 1957.00 1673.54 44.00
2577 51.8400 2081.00 1729.03 46.00
2578 51.8570 2172.00 1800.54 47.00
2579 51.8740 2284.00 1892.64 48.00
2580 51.8910 2400.00 2010.57 49.00
2581 51.9080 2685.00 2159.63 52.00
2582 51.9250 2828.00 2345.05 53.00
2583 51.9420 3010.00 2571.13 55.00
2584 51.9590 3278.00 2840.60 57.00
2585 51.9760 3502.00 3154.01 59.00
2586 51.9930 3729.00 3509.17 61.00
2587 52.0100 3930.00 3900.82 63.00
2588 52.0270 4157.00 4320.51 64.00
2589 52.0440 4520.00 4757.24 67.00
2590 52.0610 4720.00 5196.94 69.00
2591 52.0780 5084.00 5625.16 71.00
2592 52.0950 5345.00 6028.20 73.00
2593 52.1120 5628.00 6398.65 75.00
2594 52.1290 5907.00 6738.84 77.00
2595 52.1460 6096.00 7062.74 78.00
2596 52.1630 6441.00 7392.92 80.00
2597 52.1800 6987.00 7754.08 84.00
2598 52.1970 7361.00 8167.25 86.00
2599 52.2140 8059.00 8644.80 90.00
2600 52.2310 8710.00 9190.34 93.00
2601 52.2480 9574.00 9797.99 98.00
2602 52.2650 10397.00 10456.00 102.00
2603 52.2820 11069.00 11146.30 105.00
2604 52.2990 11789.00 11846.90 109.00
2605 52.3160 12433.00 12530.10 112.00
2606 52.3330 12963.00 13166.50 114.00
2607 52.3500 13357.00 13732.50 116.00
2608 52.3670 13662.00 14215.80 117.00
2609 52.3840 14156.00 14620.00 119.00
2610 52.4010 14222.00 14956.90 119.00
2611 52.4180 14325.00 15237.80 120.00
2612 52.4350 14860.00 15465.50 122.00
2613 52.4520 14905.00 15633.70 122.00
2614 52.4690 15005.00 15729.90 122.00
2615 52.4860 15444.00 15738.70 124.00
2616 52.5030 15790.00 15645.70 126.00
2617 52.5200 16123.00 15438.20 127.00
2618 52.5370 16622.00 15105.50 129.00
2619 52.5540 16413.00 14642.50 128.00
2620 52.5710 15785.00 14052.60 126.00
2621 52.5880 15128.00 13353.10 123.00
2622 52.6050 14166.00 12571.80 119.00
2623 52.6220 12640.00 11742.20 112.00
2624 52.6390 11479.00 10893.90 107.00
2625 52.6560 10599.00 10048.40 103.00
2626 52.6730 9577.00 9218.20 98.00
2627 52.6900 8856.00 8408.19 94.00
2628 52.7070 8251.00 7622.62 91.00
2629 52.7240 7664.00 6866.52 88.00
2630 52.7410 6770.00 6149.24 82.00
2631 52.7580 5940.00 5480.21 77.00
2632 52.7750 5066.00 4868.50 71.00
2633 52.7920 4285.00 4319.08 65.00
2634 52.8090 3741.00 3834.56 61.00
2635 52.8260 3126.00 3414.01 56.00
2636 52.8430 2795.00 3054.52 53.00
2637 52.8600 2556.00 2752.08 51.00
2638 52.8770 2340.00 2501.15 48.00
2639 52.8940 2171.00 2296.00 47.00
2640 52.9110 2115.00 2130.25 46.00
2641 52.9280 1995.00 1997.88 45.00
2642 52.9450 1902.00 1892.90 44.00
2643 52.9620 1807.00 1810.05 43.00
2644 52.9790 1733.00 1744.55 42.00
2645 52.9960 1615.00 1692.50 40.00
2646 53.0130 1628.00 1650.65 40.00
2647 53.0300 1541.00 1616.45 39.00
2648 53.0470 1518.00 1587.98 39.00
2649 53.0640 1479.00 1563.80 38.00
2650 53.0810 1456.00 1542.87 38.00
2651 53.0980 1457.00 1524.43 38.00
2652 53.1150 1427.00 1507.98 38.00
2653 53.1320 1473.00 1493.12 38.00
2654 53.1490 1433.00 1479.60 38.00
2655 53.1660 1440.00 1467.23 38.00
2656 53.1830 1436.00 1455.85 38.00
2657 53.2000 1366.00 1445.36 37.00
2658 53.2170 1333.00 1435.68 37.00
2659 53.2340 1298.00 1426.74 36.00
2660 53.2510 1346.00 1418.47 37.00
2661 53.2680 1310.00 1410.85 36.00
2662 53.2850 1282.00 1403.85 36.00
2663 53.3020 1313.00 1397.43 36.00
2664 53.3190 1329.00 1391.59 36.00
2665 53.3360 1322.00 1386.30 36.00
2666 53.3530 1313.00 1382.50 36.00
2667 53.3700 1372.00 1378.29 37.00
2668 53.3870 1327.00 1374.57 36.00
2669 53.4040 1320.00 1371.30 36.00
2670 53.4210 1354.00 1368.42 37.00
2671 53.4380 1298.00 1365.87 36.00
2672 53.4550 1273.00 1363.55 36.00
2673 53.4720 1313.00 1361.36 36.00
2674 53.4890 1336.00 1361.06 37.00
2675 53.5060 1316.00 1358.83 36.00
2676 53.5230 1322.00 1356.43 36.00
2677 53.5400 1289.00 1353.81 36.00
2678 53.5570 1301.00 1350.96 36.00
2679 53.5740 1273.00 1347.92 36.00
2680 53.5910 1266.00 1344.76 36.00
2681 53.6080 1271.00 1341.92 36.00
2682 53.6250 1216.00 1338.68 35.00
2683 53.6420 1262.00 1335.47 36.00
2684 53.6590 1281.00 1332.29 36.00
2685 53.6760 1292.00 1328.76 36.00
2686 53.6930 1253.00 1325.08 35.00
2687 53.7100 1238.00 1321.51 35.00
2688 53.7270 1239.00 1318.08 35.00
2689 53.7440 1234.00 1316.63 35.00
2690 53.7610 1249.00 1313.58 35.00
2691 53.7780 1249.00 1313.46 35.00
2692 53.7950 1197.00 1310.77 35.00
2693 53.8120 1276.00 1308.21 36.00
2694 53.8290 1285.00 1305.74 36.00
2695 53.8460 1222.00 1303.33 35.00
2696 53.8630 1218.00 1300.95 35.00
2697 53.8800 1298.00 1298.59 36.00
2698 53.8970 1248.00 1296.61 35.00
2699 53.9140 1248.00 1294.29 35.00
2700 53.9310 1213.00 1291.99 35.00
2701 53.9480 1185.00 1289.72 34.00
2702 53.9650 1209.00 1287.49 35.00
2703 53.9820 1223.00 1285.27 35.00
2704 53.9990 1231.00 1283.08 35.00
2705 54.0160 1214.00 1280.91 35.00
2706 54.0330 1219.00 1278.77 35.00
2707 54.0500 1179.00 1276.67 34.00
2708 54.0670 1177.00 1274.63 34.00
2709 54.0840 1249.00 1272.64 35.00
2710 54.1010 1239.00 1270.72 35.00
2711 54.1180 1184.00 1268.87 34.00
2712 54.1350 1225.00 1267.10 35.00
2713 54.1520 1237.00 1265.40 35.00
2714 54.1690 1267.00 1263.77 36.00
2715 54.1860 1300.00 1262.20 36.00
2716 54.2030 1264.00 1260.69 36.00
2717 54.2200 1216.00 1259.24 35.00
2718 54.2370 1207.00 1257.84 35.00
2719 54.2540 1220.00 1256.49 35.00
2720 54.2710 1196.00 1255.17 35.00
2721 54.2880 1213.00 1253.88 35.00
2722 54.3050 1192.00 1252.63 35.00
2723 54.3220 1218.00 1251.41 35.00
2724 54.3390 1248.00 1250.20 35.00
2725 54.3560 1264.00 1249.02 36.00
2726 54.3730 1212.00 1247.86 35.00
2727 54.3900 1163.00 1246.72 34.00
2728 54.4070 1190.00 1245.60 34.00
2729 54.4240 1222.00 1244.49 35.00
2730 54.4410 1286.00 1243.40 36.00
2731 54.4580 1241.00 1242.32 35.00
2732 54.4750 1125.00 1241.26 34.00
2733 54.4920 1190.00 1240.21 34.00
2734 54.5090 1236.00 1239.18 35.00
2735 54.5260 1239.00 1238.16 35.00
2736 54.5430 1217.00 1237.15 35.00
2737 54.5600 1246.00 1236.16 35.00
2738 54.5770 1202.00 1235.18 35.00
2739 54.5940 1167.00 1234.21 34.00
2740 54.6110 1194.00 1233.25 35.00
2741 54.6280 1198.00 1232.30 35.00
2742 54.6450 1142.00 1231.37 34.00
2743 54.6620 1142.00 1230.44 34.00
2744 54.6790 1156.00 1229.53 34.00
2745 54.6960 1129.00 1228.62 34.00
2746 54.7130 1172.00 1227.73 34.00
2747 54.7300 1200.00 1226.85 35.00
2748 54.7470 1184.00 1225.97 34.00
2749 54.7640 1202.00 1225.11 35.00
2750 54.7810 1214.00 1224.25 35.00
2751 54.7980 1172.00 1223.41 34.00
2752 54.8150 1177.00 1222.57 34.00
2753 54.8320 1155.00 1221.74 34.00
2754 54.8490 1134.00 1220.93 34.00
2755 54.8660 1206.00 1220.12 35.00
2756 54.8830 1148.00 1219.32 34.00
2757 54.9000 1081.00 1218.50 33.00
2758 54.9170 1147.00 1217.69 34.00
2759 54.9340 1180.00 1216.91 34.00
2760 54.9510 1138.00 1216.15 34.00
2761 54.9680 1191.00 1215.39 35.00
2762 54.9850 1211.00 1214.65 35.00
2763 55.0020 1144.00 1213.91 34.00
2764 55.0190 1168.00 1213.18 34.00
2765 55.0360 1123.00 1212.46 34.00
2766 55.0530 1142.00 1213.19 34.00
2767 55.0700 1178.00 1213.93 34.00
2768 55.0870 1255.00 1214.69 35.00
2769 55.1040 1196.00 1215.46 35.00
2770 55.1210 1190.00 1216.24 34.00
2771 55.1380 1183.00 1217.03 34.00
2772 55.1550 1193.00 1217.83 35.00
2773 55.1720 1184.00 1218.64 34.00
2774 55.1890 1193.00 1219.46 35.00
2775 55.2060 1206.00 1220.28 35.00
2776 55.2230 1173.00 1221.12 34.00
2777 55.2400 1124.00 1221.96 34.00
2778 55.2570 1220.00 1222.81 35.00
2779 55.2740 1211.00 1223.66 35.00
2780 55.2910 1197.00 1224.52 35.00
2781 55.3080 1211.00 1225.39 35.00
2782 55.3250 1207.00 1226.26 35.00
2783 55.3420 1221.00 1227.14 35.00
2784 55.3590 1222.00 1228.03 35.00
2785 55.3760 1237.00 1228.93 35.00
2786 55.3930 1201.00 1229.83 35.00
2787 55.4100 1183.00 1230.74 34.00
2788 55.4270 1233.00 1231.66 35.00
2789 55.4440 1173.00 1232.59 34.00
2790 55.4610 1194.00 1233.53 35.00
2791 55.4780 1234.00 1234.48 35.00
2792 55.4950 1172.00 1235.44 34.00
2793 55.5120 1182.00 1236.41 34.00
2794 55.5290 1155.00 1237.39 34.00
2795 55.5460 1197.00 1238.38 35.00
2796 55.5630 1150.00 1239.39 34.00
2797 55.5800 1157.00 1240.40 34.00
2798 55.5970 1216.00 1241.43 35.00
2799 55.6140 1222.00 1242.47 35.00
2800 55.6310 1173.00 1243.52 34.00
2801 55.6480 1201.00 1244.59 35.00
2802 55.6650 1255.00 1245.67 35.00
2803 55.6820 1237.00 1246.76 35.00
2804 55.6990 1208.00 1247.86 35.00
2805 55.7160 1196.00 1248.98 35.00
2806 55.7330 1193.00 1250.12 35.00
2807 55.7500 1201.00 1251.27 35.00
2808 55.7670 1198.00 1252.43 35.00
2809 55.7840 1260.00 1253.60 35.00
2810 55.8010 1317.00 1254.80 36.00
2811 55.8180 1257.00 1256.00 35.00
2812 55.8350 1251.00 1257.23 35.00
2813 55.8520 1234.00 1258.47 35.00
2814 55.8690 1276.00 1259.72 36.00
2815 55.8860 1300.00 1261.00 36.00
2816 55.9030 1306.00 1262.30 36.00
2817 55.9200 1239.00 1263.61 35.00
2818 55.9370 1253.00 1264.95 35.00
2819 55.9540 1273.00 1266.30 36.00
2820 55.9710 1203.00 1267.67 35.00
2821 55.9880 1249.00 1269.06 35.00
2822 56.0050 1283.00 1270.48 36.00
2823 56.0220 1253.00 1271.04 35.00
2824 56.0390 1246.00 1272.50 35.00
2825 56.0560 1274.00 1274.00 36.00
2826 56.0730 1307.00 1275.53 36.00
2827 56.0900 1295.00 1277.08 36.00
2828 56.1070 1256.00 1278.65 35.00
2829 56.1240 1301.00 1280.25 36.00
2830 56.1410 1233.00 1281.88 35.00
2831 56.1580 1226.00 1283.54 35.00
2832 56.1750 1241.00 1284.82 35.00
2833 56.1920 1253.00 1286.55 35.00
2834 56.2090 1272.00 1288.31 36.00
2835 56.2260 1303.00 1290.11 36.00
2836 56.2430 1260.00 1291.94 35.00
2837 56.2600 1246.00 1293.82 35.00
2838 56.2770 1267.00 1294.00 36.00
2839 56.2940 1283.00 1295.97 36.00
2840 56.3110 1246.00 1297.99 35.00
2841 56.3280 1240.00 1300.05 35.00
2842 56.3450 1281.00 1302.16 36.00
2843 56.3620 1291.00 1304.32 36.00
2844 56.3790 1301.00 1305.88 36.00
2845 56.3960 1247.00 1307.11 35.00
2846 56.4130 1296.00 1307.54 36.00
2847 56.4300 1308.00 1308.90 36.00
2848 56.4470 1275.00 1310.33 36.00
2849 56.4640 1239.00 1311.82 35.00
2850 56.4810 1188.00 1313.39 34.00
2851 56.4980 1287.00 1313.57 36.00
2852 56.5150 1329.00 1314.97 36.00
2853 56.5320 1328.00 1316.79 36.00
2854 56.5490 1307.00 1318.68 36.00
2855 56.5660 1281.00 1320.67 36.00
2856 56.5830 1243.00 1322.76 35.00
2857 56.6000 1267.00 1324.95 36.00
2858 56.6170 1248.00 1327.24 35.00
2859 56.6340 1276.00 1328.94 36.00
2860 56.6510 1292.00 1331.47 36.00
2861 56.6680 1289.00 1334.14 36.00
2862 56.6850 1300.00 1336.94 36.00
2863 56.7020 1303.00 1339.89 36.00
2864 56.7190 1316.00 1342.99 36.00
2865 56.7360 1346.00 1346.25 37.00
2866 56.7530 1289.00 1349.69 36.00
2867 56.7700 1363.00 1353.32 37.00
2868 56.7870 1304.00 1357.14 36.00
2869 56.8040 1327.00 1361.18 36.00
2870 56.8210 1352.00 1365.45 37.00
2871 56.8380 1375.00 1369.97 37.00
2872 56.8550 1354.00 1374.75 37.00
2873 56.8720 1403.00 1379.81 37.00
2874 56.8890 1328.00 1385.17 36.00
2875 56.9060 1288.00 1390.86 36.00
2876 56.9230 1397.00 1396.91 37.00
2877 56.9400 1416.00 1403.35 38.00
2878 56.9570 1413.00 1410.19 38.00
2879 56.9740 1420.00 1417.49 38.00
2880 56.9910 1417.00 1425.27 38.00
2881 57.0080 1468.00 1433.59 38.00
2882 57.0250 1425.00 1442.49 38.00
2883 57.0420 1516.00 1452.04 39.00
2884 57.0590 1456.00 1462.29 38.00
2885 57.0760 1512.00 1473.32 39.00
2886 57.0930 1557.00 1485.25 39.00
2887 57.1100 1585.00 1498.17 40.00
2888 57.1270 1602.00 1512.23 40.00
2889 57.1440 1640.00 1527.64 40.00
2890 57.1610 1674.00 1544.68 41.00
2891 57.1780 1783.00 1563.72 42.00
2892 57.1950 1786.00 1585.31 42.00
2893 57.2120 1765.00 1610.22 42.00
2894 57.2290 1910.00 1639.56 44.00
2895 57.2460 1932.00 1674.86 44.00
2896 57.2630 2021.00 1718.28 45.00
2897 57.2800 2155.00 1772.74 46.00
2898 57.2970 2237.00 1842.05 47.00
2899 57.3140 2360.00 1931.22 49.00
2900 57.3310 2542.00 2046.33 50.00
2901 57.3480 2731.00 2194.71 52.00
2902 57.3650 2979.00 2384.71 55.00
2903 57.3820 3184.00 2625.32 56.00
2904 57.3990 3465.00 2925.59 59.00
2905 57.4160 3836.00 3293.59 62.00
2906 57.4330 4265.00 3736.02 65.00
2907 57.4500 4508.00 4256.18 67.00
2908 57.4670 5058.00 4853.45 71.00
2909 57.4840 5577.00 5522.24 75.00
2910 57.5010 6018.00 6251.45 78.00
2911 57.5180 6369.00 7024.31 80.00
2912 57.5350 6887.00 7818.65 83.00
2913 57.5520 7379.00 8607.62 86.00
2914 57.5690 7934.00 9361.05 89.00
2915 57.5860 8296.00 10048.10 91.00
2916 57.6030 8655.00 10641.70 93.00
2917 57.6200 9031.00 11124.70 95.00
2918 57.6370 9556.00 11495.60 98.00
2919 57.6540 9989.00 11770.70 100.00
2920 57.6710 10359.00 11980.70 102.00
2921 57.6880 10668.00 12163.00 103.00
2922 57.7050 10995.00 12354.20 105.00
2923 57.7220 11556.00 12584.20 107.00
2924 57.7390 11879.00 12873.30 109.00
2925 57.7560 12439.00 13231.90 112.00
2926 57.7730 13148.00 13662.90 115.00
2927 57.7900 13722.00 14162.90 117.00
2928 57.8070 14471.00 14724.50 120.00
2929 57.8240 15126.00 15335.70 123.00
2930 57.8410 16079.00 15977.70 127.00
2931 57.8580 17079.00 16623.20 131.00
2932 57.8750 17788.00 17237.30 133.00
2933 57.8920 18484.00 17780.30 136.00
2934 57.9090 19283.00 18214.30 139.00
2935 57.9260 19430.00 18510.20 139.00
2936 57.9430 19733.00 18653.00 140.00
2937 57.9600 19807.00 18643.10 141.00
2938 57.9770 19997.00 18491.50 141.00
2939 57.9940 19267.00 18212.90 139.00
2940 58.0110 18581.00 17818.30 136.00
2941 58.0280 18515.00 17312.90 136.00
2942 58.0450 17655.00 16697.30 133.00
2943 58.0620 16717.00 15973.00 129.00
2944 58.0790 15793.00 15146.10 126.00
2945 58.0960 14722.00 14233.20 121.00
2946 58.1130 13600.00 13256.00 117.00
2947 58.1300 12446.00 12244.10 112.00
2948 58.1470 11425.00 11224.00 107.00
2949 58.1640 10372.00 10220.10 102.00
2950 58.1810 9326.00 9250.59 97.00
2951 58.1980 8456.00 8328.10 92.00
2952 58.2150 7506.00 7461.39 87.00
2953 58.2320 6747.00 6656.99 82.00
2954 58.2490 5991.00 5920.12 77.00
2955 58.2660 5228.00 5254.52 72.00
2956 58.2830 4719.00 4661.95 69.00
2957 58.3000 4133.00 4141.85 64.00
2958 58.3170 3705.00 3691.42 61.00
2959 58.3340 3282.00 3306.14 57.00
2960 58.3510 3025.00 2980.26 55.00
2961 58.3680 2797.00 2707.38 53.00
2962 58.3850 2611.00 2480.92 51.00
2963 58.4020 2452.00 2294.50 50.00
2964 58.4190 2262.00 2141.82 48.00
2965 58.4360 2097.00 2017.58 46.00
2966 58.4530 2068.00 1916.58 45.00
2967 58.4700 1939.00 1834.67 44.00
2968 58.4870 1838.00 1767.97 43.00
2969 58.5040 1849.00 1713.46 43.00
2970 58.5210 1747.00 1668.51 42.00
2971 58.5380 1723.00 1631.03 42.00
2972 58.5550 1642.00 1599.37 41.00
2973 58.5720 1584.00 1572.25 40.00
2974 58.5890 1602.00 1548.65 40.00
2975 58.6060 1656.00 1527.84 41.00
2976 58.6230 1535.00 1509.25 39.00
2977 58.6400 1555.00 1492.47 39.00
2978 58.6570 1570.00 1477.17 40.00
2979 58.6740 1518.00 1463.13 39.00
2980 58.6910 1432.00 1450.17 38.00
2981 58.7080 1440.00 1438.17 38.00
2982 58.7250 1428.00 1426.99 38.00
2983 58.7420 1427.00 1416.58 38.00
2984 58.7590 1348.00 1406.83 37.00
2985 58.7760 1478.00 1397.71 38.00
2986 58.7930 1378.00 1389.14 37.00
2987 58.8100 1363.00 1381.10 37.00
2988 58.8270 1319.00 1373.53 36.00
2989 58.8440 1385.00 1366.42 37.00
2990 58.8610 1402.00 1359.71 37.00
2991 58.8780 1297.00 1353.39 36.00
2992 58.8950 1343.00 1347.43 37.00
2993 58.9120 1392.00 1341.83 37.00
2994 58.9290 1344.00 1336.55 37.00
2995 58.9460 1390.00 1331.59 37.00
2996 58.9630 1337.00 1326.93 37.00
2997 58.9800 1306.00 1322.56 36.00
2998 58.9970 1338.00 1318.46 37.00
2999 59.0140 1306.00 1314.62 36.00
3000 59.0310 1281.00 1311.01 36.00
3001 59.0480 1308.00 1307.61 36.00
3002 59.0650 1286.00 1304.39 36.00
3003 59.0820 1257.00 1301.34 35.00
3004 59.0990 1329.00 1298.41 36.00
3005 59.1160 1305.00 1295.58 36.00
3006 59.1330 1242.00 1292.82 35.00
3007 59.1500 1286.00 1290.09 36.00
3008 59.1670 1290.00 1287.39 36.00
3009 59.1840 1237.00 1284.70 35.00
3010 59.2010 1287.00 1282.03 36.00
3011 59.2180 1297.00 1279.38 36.00
3012 59.2350 1260.00 1276.78 35.00
3013 59.2520 1196.00 1274.23 35.00
3014 59.2690 1226.00 1271.73 35.00
3015 59.2860 1245.00 1269.29 35.00
3016 59.3030 1266.00 1266.90 36.00
3017 59.3200 1262.00 1264.56 36.00
3018 59.3370 1191.00 1262.26 35.00
3019 59.3540 1216.00 1260.01 35.00
3020 59.3710 1254.00 1257.79 35.00
3021 59.3880 1244.00 1255.62 35.00
3022 59.4050 1267.00 1253.50 36.00
3023 59.4220 1175.00 1251.42 34.00
3024 59.4390 1165.00 1249.39 34.00
3025 59.4560 1154.00 1247.41 34.00
3026 59.4730 1170.00 1244.74 34.00
3027 59.4900 1234.00 1241.71 35.00
3028 59.5070 1258.00 1238.75 35.00
3029 59.5240 1223.00 1235.84 35.00
3030 59.5410 1261.00 1233.00 36.00
3031 59.5580 1311.00 1230.22 36.00
3032 59.5750 1264.00 1227.48 36.00
3033 59.5920 1220.00 1224.80 35.00
3034 59.6090 1171.00 1222.17 34.00
3035 59.6260 1166.00 1219.58 34.00
3036 59.6430 1161.00 1217.04 34.00
3037 59.6600 1198.00 1214.54 35.00
3038 59.6770 1204.00 1212.09 35.00
3039 59.6940 1229.00 1209.69 35.00
3040 59.7110 1226.00 1207.33 35.00
3041 59.7280 1222.00 1205.02 35.00
3042 59.7450 1196.00 1202.76 35.00
3043 59.7620 1178.00 1200.54 34.00
3044 59.7790 1131.00 1198.37 34.00
3045 59.7960 1282.00 1196.25 36.00
3046 59.8130 1234.00 1194.18 35.00
3047 59.8300 1181.00 1192.16 34.00
3048 59.8470 1193.00 1190.22 35.00
3049 59.8640 1241.00 1188.35 35.00
3050 59.8810 1256.00 1186.57 35.00
3051 59.8980 1171.00 1184.90 34.00
3052 59.9150 1163.00 1183.37 34.00
3053 59.9320 1178.00 1182.00 34.00
3054 59.9490 1239.00 1180.83 35.00
3055 59.9660 1232.00 1179.88 35.00
3056 59.9830 1194.00 1179.21 35.00
3057 60.0000 1247.00 1178.83 35.00
3058 60.0170 1204.00 1178.79 35.00
3059 60.0340 1214.00 1179.10 35.00
3060 60.0510 1243.00 1179.78 35.00
3061 60.0680 1237.00 1180.81 35.00
3062 60.0850 1225.00 1182.19 35.00
3063 60.1020 1201.00 1183.89 35.00
3064 60.1190 1225.00 1185.87 35.00
3065 60.1360 1274.00 1188.07 36.00
3066 60.1530 1257.00 1190.44 35.00
3067 60.1700 1212.00 1192.92 35.00
3068 60.1870 1189.00 1195.45 34.00
3069 60.2040 1223.00 1198.01 35.00
3070 60.2210 1197.00 1200.59 35.00
3071 60.2380 1207.00 1203.25 35.00
3072 60.2550 1224.00 1206.07 35.00
3073 60.2720 1248.00 1209.14 35.00
3074 60.2890 1289.00 1212.53 36.00
3075 60.3060 1256.00 1216.25 35.00
3076 60.3230 1235.00 1220.30 35.00
3077 60.3400 1218.00 1224.59 35.00
3078 60.3570 1196.00 1229.00 35.00
3079 60.3740 1217.00 1233.37 35.00
3080 60.3910 1196.00 1237.57 35.00
3081 60.4080 1220.00 1241.47 35.00
3082 60.4250 1174.00 1245.00 34.00
3083 60.4420 1145.00 1248.12 34.00
3084 60.4590 1208.00 1250.79 35.00
3085 60.4760 1226.00 1252.93 35.00
3086 60.4930 1247.00 1254.44 35.00
3087 60.5100 1187.00 1255.22 34.00
3088 60.5270 1221.00 1255.16 35.00
3089 60.5440 1256.00 1254.18 35.00
3090 60.5610 1223.00 1252.18 35.00
3091 60.5780 1198.00 1249.13 35.00
3092 60.5950 1200.00 1244.97 35.00
3093 60.6120 1245.00 1239.67 35.00
3094 60.6290 1159.00 1233.30 34.00
3095 60.6460 1163.00 1225.96 34.00
3096 60.6630 1235.00 1217.82 35.00
3097 60.6800 1197.00 1209.07 35.00
3098 60.6970 1182.00 1199.93 34.00
3099 60.7140 1186.00 1190.58 34.00
3100 60.7310 1122.00 1181.17 33.00
3101 60.7480 1203.00 1171.82 35.00
3102 60.7650 1141.00 1162.63 34.00
3103 60.7820 1171.00 1153.62 34.00
3104 60.7990 1135.00 1144.84 34.00
3105 60.8160 1181.00 1136.38 34.00
3106 60.8330 1098.00 1128.30 33.00
3107 60.8500 1102.00 1120.66 33.00
3108 60.8670 1104.00 1113.52 33.00
3109 60.8840 1088.00 1106.92 33.00
3110 60.9010 1101.00 1100.86 33.00
3111 60.9180 1099.00 1095.33 33.00
3112 60.9350 1079.00 1090.32 33.00
3113 60.9520 1102.00 1085.79 33.00
3114 60.9690 1034.00 1081.71 32.00
3115 60.9860 1019.00 1078.03 32.00
3116 61.0030 1081.00 1074.71 33.00
3117 61.0200 1133.00 1072.23 34.00
3118 61.0370 1080.00 1070.77 33.00
3119 61.0540 1083.00 1069.55 33.00
3120 61.0710 1072.00 1068.54 33.00
3121 61.0880 1010.00 1067.69 32.00
3122 61.1050 1068.00 1067.00 33.00
3123 61.1220 1073.00 1066.44 33.00
3124 61.1390 1015.00 1066.02 32.00
3125 61.1560 1069.00 1065.72 33.00
3126 61.1730 1114.00 1065.56 33.00
3127 61.1900 1094.00 1065.54 33.00
3128 61.2070 1019.00 1065.71 32.00
3129 61.2240 1019.00 1066.07 32.00
3130 61.2410 1048.00 1066.67 32.00
3131 61.2580 1043.00 1067.54 32.00
3132 61.2750 1068.00 1068.72 33.00
3133 61.2920 1082.00 1070.25 33.00
3134 61.3090 1010.00 1072.15 32.00
3135 61.3260 1028.00 1074.44 32.00
3136 61.3430 1085.00 1077.12 33.00
3137 61.3600 1077.00 1080.19 33.00
3138 61.3770 1073.00 1083.60 33.00
3139 61.3940 1022.00 1087.32 32.00
3140 61.4110 1031.00 1091.28 32.00
3141 61.4280 1071.00 1095.41 33.00
3142 61.4450 1081.00 1099.62 33.00
3143 61.4620 1097.00 1103.82 33.00
3144 61.4790 1061.00 1107.90 33.00
3145 61.4960 1048.00 1111.80 32.00
3146 61.5130 1020.00 1115.48 32.00
3147 61.5300 1049.00 1118.92 32.00
3148 61.5470 1180.00 1122.15 34.00
3149 61.5640 1137.00 1125.17 34.00
3150 61.5810 1064.00 1127.99 33.00
3151 61.5980 1034.00 1130.56 32.00
3152 61.6150 1083.00 1132.80 33.00
3153 61.6320 1094.00 1134.58 33.00
3154 61.6490 1069.00 1135.77 33.00
3155 61.6660 1076.00 1136.23 33.00
3156 61.6830 1129.00 1135.90 34.00
3157 61.7000 1083.00 1134.78 33.00
3158 61.7170 1136.00 1132.96 34.00
3159 61.7340 1066.00 1130.61 33.00
3160 61.7510 1036.00 1127.89 32.00
3161 61.7680 1065.00 1124.98 33.00
3162 61.7850 1087.00 1122.01 33.00
3163 61.8020 1057.00 1119.07 33.00
3164 61.8190 1033.00 1116.19 32.00
3165 61.8360 1024.00 1113.37 32.00
3166 61.8530 1094.00 1110.57 33.00
3167 61.8700 1103.00 1107.77 33.00
3168 61.8870 1098.00 1104.97 33.00
3169 61.9040 1028.00 1102.15 32.00
3170 61.9210 1074.00 1097.52 33.00
3171 61.9380 1123.00 1094.72 34.00
3172 61.9550 1082.00 1091.93 33.00
3173 61.9720 1069.00 1089.13 33.00
3174 61.9890 1103.00 1086.33 33.00
3175 62.0060 1079.00 1083.51 33.00
3176 62.0230 1056.00 1080.71 32.00
3177 62.0400 1077.00 1077.92 33.00
3178 62.0570 1061.00 1075.20 33.00
3179 62.0740 1100.00 1071.65 33.00
3180 62.0910 1105.00 1069.09 33.00
3181 62.1080 1073.00 1066.63 33.00
3182 62.1250 1054.00 1064.26 32.00
3183 62.1420 1023.00 1061.97 32.00
3184 62.1590 1014.00 1059.76 32.00
3185 62.1760 1052.00 1057.62 32.00
3186 62.1930 1089.00 1055.55 33.00
3187 62.2100 1080.00 1052.82 33.00
3188 62.2270 1041.00 1050.95 32.00
3189 62.2440 1053.00 1047.26 32.00
3190 62.2610 1042.00 1045.64 32.00
3191 62.2780 1013.00 1044.16 32.00
3192 62.2950 975.00 1042.80 31.00
3193 62.3120 999.00 1041.58 32.00
3194 62.3290 1096.00 1040.48 33.00
3195 62.3460 1045.00 1039.49 32.00
3196 62.3630 1015.00 1038.62 32.00
3197 62.3800 999.00 1036.72 32.00
3198 62.3970 1041.00 1035.94 32.00
3199 62.4140 984.00 1034.09 31.00
3200 62.4310 948.00 1033.14 31.00
3201 62.4480 990.00 1032.24 31.00
3202 62.4650 1033.00 1031.38 32.00
3203 62.4820 1067.00 1030.57 33.00
3204 62.4990 970.00 1029.78 31.00
3205 62.5160 983.00 1029.02 31.00
3206 62.5330 1002.00 1027.91 32.00
3207 62.5500 1016.00 1027.20 32.00
3208 62.5670 1006.00 1026.49 32.00
3209 62.5840 1030.00 1025.79 32.00
3210 62.6010 1027.00 1025.39 32.00
3211 62.6180 1026.00 1024.71 32.00
3212 62.6350 994.00 1024.03 32.00
3213 62.6520 1004.00 1023.36 32.00
3214 62.6690 1031.00 1022.69 32.00
3215 62.6860 957.00 1022.03 31.00
3216 62.7030 976.00 1021.37 31.00
3217 62.7200 1018.00 1020.71 32.00
3218 62.7370 1006.00 1020.05 32.00
3219 62.7540 961.00 1019.40 31.00
3220 62.7710 976.00 1018.74 31.00
3221 62.7880 1003.00 1018.09 32.00
3222 62.8050 1005.00 1017.44 32.00
3223 62.8220 969.00 1016.80 31.00
3224 62.8390 945.00 1016.15 31.00
3225 62.8560 986.00 1015.51 31.00
3226 62.8730 1121.00 1014.87 33.00
3227 62.8900 1029.00 1014.83 32.00
3228 62.9070 998.00 1014.19 32.00
3229 62.9240 1004.00 1013.55 32.00
3230 62.9410 1020.00 1012.92 32.00
3231 62.9580 996.00 1012.29 32.00
3232 62.9750 980.00 1011.66 31.00
3233 62.9920 960.00 1011.02 31.00
3234 63.0090 1023.00 1010.40 32.00
3235 63.0260 1001.00 1009.77 32.00
3236 63.0430 1019.00 1009.14 32.00
3237 63.0600 1013.00 1008.51 32.00
3238 63.0770 992.00 1009.40 31.00
3239 63.0940 1008.00 1008.79 32.00
3240 63.1110 1023.00 1008.30 32.00
3241 63.1280 1046.00 1007.69 32.00
3242 63.1450 1029.00 1007.08 32.00
3243 63.1620 972.00 1006.47 31.00
3244 63.1790 986.00 1005.86 31.00
3245 63.1960 1048.00 1005.25 32.00
3246 63.2130 1030.00 1004.64 32.00
3247 63.2300 1015.00 1004.04 32.00
3248 63.2470 991.00 1003.43 31.00
3249 63.2640 968.00 1002.83 31.00
3250 63.2810 991.00 1002.22 31.00
3251 63.2980 1012.00 1001.62 32.00
3252 63.3150 994.00 1001.02 32.00
3253 63.3320 970.00 1000.42 31.00
3254 63.3490 1008.00 999.82 32.00
3255 63.3660 993.00 999.22 32.00
3256 63.3830 955.00 998.63 31.00
3257 63.4000 976.00 998.03 31.00
3258 63.4170 1004.00 997.43 32.00
3259 63.4340 988.00 996.84 31.00
3260 63.4510 1045.00 996.25 32.00
3261 63.4680 961.00 995.66 31.00
3262 63.4850 960.00 995.07 31.00
3263 63.5020 996.00 994.49 32.00
3264 63.5190 988.00 993.90 31.00
3265 63.5360 1013.00 993.32 32.00
3266 63.5530 993.00 992.74 32.00
3267 63.5700 941.00 992.16 31.00
3268 63.5870 996.00 991.59 32.00
3269 63.6040 954.00 991.02 31.00
3270 63.6210 964.00 990.45 31.00
3271 63.6380 946.00 989.89 31.00
3272 63.6550 1020.00 989.34 32.00
3273 63.6720 998.00 988.81 32.00
3274 63.6890 957.00 988.28 31.00
3275 63.7060 1008.00 987.78 32.00
3276 63.7230 989.00 987.30 31.00
3277 63.7400 1013.00 986.85 32.00
3278 63.7570 1003.00 986.45 32.00
3279 63.7740 973.00 986.09 31.00
3280 63.7910 961.00 985.79 31.00
3281 63.8080 1018.00 985.56 32.00
3282 63.8250 1015.00 985.41 32.00
3283 63.8420 967.00 985.35 31.00
3284 63.8590 934.00 985.39 31.00
3285 63.8760 934.00 986.55 31.00
3286 63.8930 995.00 987.80 32.00
3287 63.9100 965.00 989.16 31.00
3288 63.9270 904.00 990.60 30.00
3289 63.9440 953.00 992.10 31.00
3290 63.9610 963.00 993.64 31.00
3291 63.9780 1001.00 995.21 32.00
3292 63.9950 966.00 996.75 31.00
3293 64.0120 913.00 998.25 30.00
3294 64.0290 971.00 999.67 31.00
3295 64.0460 1022.00 1000.99 32.00
3296 64.0630 1002.00 1002.19 32.00
3297 64.0800 977.00 1003.27 31.00
3298 64.0970 1045.00 1004.25 32.00
3299 64.1140 1046.00 1005.16 32.00
3300 64.1310 961.00 1006.05 31.00
3301 64.1480 999.00 1006.94 32.00
3302 64.1650 1020.00 1007.88 32.00
3303 64.1820 992.00 1008.89 31.00
3304 64.1990 1000.00 1009.99 32.00
3305 64.2160 1027.00 1011.16 32.00
3306 64.2330 1040.00 1012.41 32.00
3307 64.2500 1001.00 1013.71 32.00
3308 64.2670 974.00 1015.04 31.00
3309 64.2840 983.00 1016.36 31.00
3310 64.3010 1003.00 1017.66 32.00
3311 64.3180 972.00 1018.90 31.00
3312 64.3350 958.00 1020.03 31.00
3313 64.3520 982.00 1021.03 31.00
3314 64.3690 987.00 1021.86 31.00
3315 64.3860 972.00 1022.51 31.00
3316 64.4030 1024.00 1022.97 32.00
3317 64.4200 1014.00 1023.25 32.00
3318 64.4370 989.00 1023.35 31.00
3319 64.4540 1054.00 1023.27 32.00
3320 64.4710 1043.00 1023.04 32.00
3321 64.4880 1045.00 1022.66 32.00
3322 64.5050 975.00 1022.15 31.00
3323 64.5220 895.00 1021.52 30.00
3324 64.5390 930.00 1020.79 30.00
3325 64.5560 978.00 1019.99 31.00
3326 64.5730 1063.00 1019.13 33.00
3327 64.5900 1021.00 1018.24 32.00
3328 64.6070 1047.00 1017.34 32.00
3329 64.6240 982.00 1016.45 31.00
3330 64.6410 962.00 1015.58 31.00
3331 64.6580 1023.00 1014.74 32.00
3332 64.6750 1022.00 1013.96 32.00
3333 64.6920 1027.00 1013.25 32.00
3334 64.7090 1032.00 1012.62 32.00
3335 64.7260 979.00 1012.09 31.00
3336 64.7430 1043.00 1011.65 32.00
3337 64.7600 1020.00 1011.32 32.00
3338 64.7770 964.00 1011.09 31.00
3339 64.7940 1036.00 1010.97 32.00
3340 64.8110 1023.00 1010.95 32.00
3341 64.8280 1058.00 1011.02 33.00
3342 64.8450 1059.00 1011.18 33.00
3343 64.8620 1034.00 1011.42 32.00
3344 64.8790 986.00 1011.75 31.00
3345 64.8960 964.00 1012.16 31.00
3346 64.9130 1037.00 1012.66 32.00
3347 64.9300 999.00 1013.26 32.00
3348 64.9470 1015.00 1013.95 32.00
3349 64.9640 1105.00 1014.76 33.00
3350 64.9810 1071.00 1015.69 33.00
3351 64.9980 1011.00 1016.78 32.00
3352 65.0150 988.00 1018.02 31.00
3353 65.0320 1034.00 1019.47 32.00
3354 65.0490 1008.00 1021.13 32.00
3355 65.0660 993.00 1023.05 32.00
3356 65.0830 1042.00 1025.22 32.00
3357 65.1000 1068.00 1027.69 33.00
3358 65.1170 1036.00 1030.47 32.00
3359 65.1340 1025.00 1033.54 32.00
3360 65.1510 1061.00 1036.96 33.00
3361 65.1680 1034.00 1040.54 32.00
3362 65.1850 1015.00 1044.40 32.00
3363 65.2020 1027.00 1048.56 32.00
3364 65.2190 1069.00 1053.00 33.00
3365 65.2360 1071.00 1057.68 33.00
3366 65.2530 1040.00 1062.56 32.00
3367 65.2700 1082.00 1067.60 33.00
3368 65.2870 1025.00 1072.75 32.00
3369 65.3040 1045.00 1077.94 32.00
3370 65.3210 1048.00 1083.14 32.00
3371 65.3380 1076.00 1088.28 33.00
3372 65.3550 1145.00 1093.27 34.00
3373 65.3720 1117.00 1097.98 33.00
3374 65.3890 1099.00 1102.28 33.00
3375 65.4060 1060.00 1105.99 33.00
3376 65.4230 1066.00 1108.96 33.00
3377 65.4400 1080.00 1111.03 33.00
3378 65.4570 1095.00 1112.11 33.00
3379 65.4740 1135.00 1112.18 34.00
3380 65.4910 1132.00 1111.29 34.00
3381 65.5080 1070.00 1109.56 33.00
3382 65.5250 1056.00 1107.17 32.00
3383 65.5420 1080.00 1104.27 33.00
3384 65.5590 1061.00 1101.00 33.00
3385 65.5760 1038.00 1097.46 32.00
3386 65.5930 1025.00 1093.72 32.00
3387 65.6100 999.00 1089.82 32.00
3388 65.6270 1008.00 1085.77 32.00
3389 65.6440 1041.00 1081.61 32.00
3390 65.6610 1091.00 1077.38 33.00
3391 65.6780 1036.00 1073.13 32.00
3392 65.6950 1088.00 1068.94 33.00
3393 65.7120 1084.00 1064.89 33.00
3394 65.7290 1064.00 1061.05 33.00
3395 65.7460 1069.00 1057.48 33.00
3396 65.7630 1074.00 1054.21 33.00
3397 65.7800 1014.00 1051.28 32.00
3398 65.7970 1035.00 1048.69 32.00
3399 65.8140 1032.00 1046.44 32.00
3400 65.8310 1069.00 1044.52 33.00
3401 65.8480 1041.00 1042.91 32.00
3402 65.8650 996.00 1041.60 32.00
3403 65.8820 1023.00 1040.56 32.00
3404 65.8990 1054.00 1039.77 32.00
3405 65.9160 1016.00 1039.20 32.00
3406 65.9330 1002.00 1038.82 32.00
3407 65.9500 1024.00 1038.60 32.00
3408 65.9670 1043.00 1038.53 32.00
3409 65.9840 1068.00 1038.58 33.00
3410 66.0010 1040.00 1038.72 32.00
3411 66.0180 1058.00 1038.95 33.00
3412 66.0350 1026.00 1039.25 32.00
3413 66.0520 1018.00 1039.60 32.00
3414 66.0690 1033.00 1039.99 32.00
3415 66.0860 1068.00 1040.42 33.00
3416 66.1030 1069.00 1040.89 33.00
3417 66.1200 1051.00 1041.38 32.00
3418 66.1370 1030.00 1041.90 32.00
3419 66.1540 1071.00 1042.44 33.00
3420 66.1710 1109.00 1043.02 33.00
3421 66.1880 1093.00 1043.61 33.00
3422 66.2050 1053.00 1044.21 32.00
3423 66.2220 1069.00 1044.83 33.00
3424 66.2390 1090.00 1045.48 33.00
3425 66.2560 1028.00 1046.14 32.00
3426 66.2730 1017.00 1046.82 32.00
3427 66.2900 1061.00 1047.52 33.00
3428 66.3070 1063.00 1048.24 33.00
3429 66.3240 1098.00 1049.01 33.00
3430 66.3410 1045.00 1049.78 32.00
3431 66.3580 1028.00 1050.57 32.00
3432 66.3750 1011.00 1051.40 32.00
3433 66.3920 1068.00 1052.24 33.00
3434 66.4090 1068.00 1053.13 33.00
3435 66.4260 999.00 1054.02 32.00
3436 66.4430 1047.00 1054.95 32.00
3437 66.4600 1038.00 1055.70 32.00
3438 66.4770 1048.00 1056.38 32.00
3439 66.4940 1057.00 1057.09 33.00
3440 66.5110 1081.00 1057.84 33.00
3441 66.5280 1130.00 1058.63 34.00
3442 66.5450 1059.00 1059.45 33.00
3443 66.5620 1000.00 1060.31 32.00
3444 66.5790 1031.00 1061.21 32.00
3445 66.5960 1087.00 1062.16 33.00
3446 66.6130 1084.00 1063.15 33.00
3447 66.6300 1056.00 1064.19 32.00
3448 66.6470 1092.00 1065.29 33.00
3449 66.6640 1093.00 1066.44 33.00
3450 66.6810 1119.00 1067.66 33.00
3451 66.6980 1061.00 1068.93 33.00
3452 66.7150 1041.00 1070.28 32.00
3453 66.7320 1076.00 1071.70 33.00
3454 66.7490 1136.00 1073.19 34.00
3455 66.7660 1095.00 1074.77 33.00
3456 66.7830 1115.00 1076.44 33.00
3457 66.8000 1186.00 1078.20 34.00
3458 66.8170 1163.00 1080.18 34.00
3459 66.8340 1140.00 1082.17 34.00
3460 66.8510 1120.00 1084.29 33.00
3461 66.8680 1117.00 1086.56 33.00
3462 66.8850 1204.00 1088.99 35.00
3463 66.9020 1165.00 1091.62 34.00
3464 66.9190 1164.00 1094.49 34.00
3465 66.9360 1206.00 1097.64 35.00
3466 66.9530 1221.00 1101.13 35.00
3467 66.9700 1242.00 1105.06 35.00
3468 66.9870 1240.00 1109.56 35.00
3469 67.0040 1249.00 1115.05 35.00
3470 67.0210 1287.00 1121.22 36.00
3471 67.0380 1293.00 1128.63 36.00
3472 67.0550 1305.00 1137.63 36.00
3473 67.0720 1322.00 1148.69 36.00
3474 67.0890 1314.00 1162.39 36.00
3475 67.1060 1349.00 1179.40 37.00
3476 67.1230 1409.00 1200.54 38.00
3477 67.1400 1470.00 1226.69 38.00
3478 67.1570 1541.00 1258.84 39.00
3479 67.1740 1571.00 1297.98 40.00
3480 67.1910 1614.00 1345.41 40.00
3481 67.2080 1641.00 1401.32 41.00
3482 67.2250 1693.00 1466.72 41.00
3483 67.2420 1803.00 1541.93 42.00
3484 67.2590 1915.00 1626.82 44.00
3485 67.2760 1980.00 1721.15 44.00
3486 67.2930 2087.00 1823.15 46.00
3487 67.3100 2040.00 1931.66 45.00
3488 67.3270 2048.00 2043.97 45.00
3489 67.3440 2057.00 2157.49 45.00
3490 67.3610 2183.00 2269.14 47.00
3491 67.3780 2244.00 2375.40 47.00
3492 67.3950 2248.00 2472.72 47.00
3493 67.4120 2408.00 2557.73 49.00
3494 67.4290 2446.00 2627.60 49.00
3495 67.4460 2333.00 2680.48 48.00
3496 67.4630 2450.00 2715.86 49.00
3497 67.4800 2451.00 2734.71 50.00
3498 67.4970 2564.00 2739.50 51.00
3499 67.5140 2569.00 2732.88 51.00
3500 67.5310 2455.00 2718.88 50.00
3501 67.5480 2600.00 2700.28 51.00
3502 67.5650 2512.00 2680.74 50.00
3503 67.5820 2637.00 2663.38 51.00
3504 67.5990 2661.00 2651.34 52.00
3505 67.6160 2654.00 2648.05 52.00
3506 67.6330 2696.00 2657.49 52.00
3507 67.6500 2785.00 2684.43 53.00
3508 67.6670 2903.00 2734.59 54.00
3509 67.6840 2891.00 2814.29 54.00
3510 67.7010 3070.00 2930.18 55.00
3511 67.7180 3160.00 3088.62 56.00
3512 67.7350 3298.00 3295.32 57.00
3513 67.7520 3586.00 3554.33 60.00
3514 67.7690 3901.00 3867.75 62.00
3515 67.7860 4182.00 4235.25 65.00
3516 67.8030 4467.00 4653.67 67.00
3517 67.8200 4945.00 5116.85 70.00
3518 67.8370 5516.00 5615.56 74.00
3519 67.8540 6210.00 6137.64 79.00
3520 67.8710 6834.00 6668.32 83.00
3521 67.8880 7631.00 7190.47 87.00
3522 67.9050 8407.00 7686.15 92.00
3523 67.9220 9133.00 8136.56 96.00
3524 67.9390 9716.00 8523.56 99.00
3525 67.9560 10026.00 8832.29 100.00
3526 67.9730 10313.00 9052.80 102.00
3527 67.9900 10122.00 9180.90 101.00
3528 68.0070 9739.00 9218.80 99.00
3529 68.0240 9704.00 9174.22 99.00
3530 68.0410 9325.00 9057.99 97.00
3531 68.0580 8816.00 8881.90 94.00
3532 68.0750 8392.00 8656.72 92.00
3533 68.0920 8106.00 8391.40 90.00
3534 68.1090 7960.00 8091.76 89.00
3535 68.1260 7633.00 7761.79 87.00
3536 68.1430 7345.00 7404.09 86.00
3537 68.1600 7105.00 7021.08 84.00
3538 68.1770 6651.00 6616.23 82.00
3539 68.1940 6255.00 6194.64 79.00
3540 68.2110 5831.00 5763.27 76.00
3541 68.2280 5289.00 5329.49 73.00
3542 68.2450 4776.00 4901.90 69.00
3543 68.2620 4261.00 4487.96 65.00
3544 68.2790 3774.00 4093.63 61.00
3545 68.2960 3314.00 3723.76 58.00
3546 68.3130 3074.00 3381.97 55.00
3547 68.3300 2706.00 3070.21 52.00
3548 68.3470 2435.00 2789.01 49.00
3549 68.3640 2354.00 2538.40 49.00
3550 68.3810 2095.00 2317.41 46.00
3551 68.3980 1960.00 2124.86 44.00
3552 68.4150 1880.00 1958.67 43.00
3553 68.4320 1850.00 1816.77 43.00
3554 68.4490 1671.00 1696.80 41.00
3555 68.4660 1571.00 1596.47 40.00
3556 68.4830 1490.00 1513.22 39.00
3557 68.5000 1500.00 1444.74 39.00
3558 68.5170 1521.00 1388.80 39.00
3559 68.5340 1460.00 1343.28 38.00
3560 68.5510 1357.00 1306.37 37.00
3561 68.5680 1316.00 1276.43 36.00
3562 68.5850 1305.00 1252.06 36.00
3563 68.6020 1261.00 1232.05 36.00
3564 68.6190 1220.00 1215.46 35.00
3565 68.6360 1186.00 1201.52 34.00
3566 68.6530 1199.00 1189.60 35.00
3567 68.6700 1151.00 1179.24 34.00
3568 68.6870 1120.00 1170.09 33.00
3569 68.7040 1159.00 1161.88 34.00
3570 68.7210 1191.00 1154.43 35.00
3571 68.7380 1281.00 1147.59 36.00
3572 68.7550 1214.00 1141.28 35.00
3573 68.7720 1179.00 1135.42 34.00
3574 68.7890 1155.00 1129.94 34.00
3575 68.8060 1142.00 1124.82 34.00
3576 68.8230 1104.00 1120.00 33.00
3577 68.8400 1152.00 1115.47 34.00
3578 68.8570 1139.00 1111.19 34.00
3579 68.8740 1099.00 1107.15 33.00
3580 68.8910 1097.00 1103.35 33.00
3581 68.9080 1124.00 1099.76 34.00
3582 68.9250 1130.00 1096.40 34.00
3583 68.9420 1128.00 1093.25 34.00
3584 68.9590 1111.00 1090.30 33.00
3585 68.9760 1091.00 1087.56 33.00
3586 68.9930 1077.00 1085.02 33.00
3587 69.0100 1121.00 1082.68 33.00
3588 69.0270 1115.00 1080.52 33.00
3589 69.0440 1074.00 1078.53 33.00
3590 69.0610 1096.00 1076.71 33.00
3591 69.0780 1087.00 1075.04 33.00
3592 69.0950 1099.00 1073.50 33.00
3593 69.1120 1101.00 1072.07 33.00
3594 69.1290 1078.00 1070.75 33.00
3595 69.1460 1056.00 1069.50 32.00
3596 69.1630 1040.00 1068.29 32.00
3597 69.1800 1050.00 1067.13 32.00
3598 69.1970 1049.00 1065.98 32.00
3599 69.2140 1046.00 1064.83 32.00
3600 69.2310 1081.00 1063.67 33.00
3601 69.2480 1042.00 1062.51 32.00
3602 69.2650 998.00 1061.33 32.00
3603 69.2820 1033.00 1060.15 32.00
3604 69.2990 1029.00 1059.73 32.00
3605 69.3160 1020.00 1059.37 32.00
3606 69.3330 1048.00 1059.03 32.00
3607 69.3500 1056.00 1058.70 32.00
3608 69.3670 1142.00 1058.41 34.00
3609 69.3840 1134.00 1058.15 34.00
3610 69.4010 1064.00 1057.93 33.00
3611 69.4180 1056.00 1057.75 32.00
3612 69.4350 1094.00 1057.63 33.00
3613 69.4520 1078.00 1057.58 33.00
3614 69.4690 1107.00 1057.63 33.00
3615 69.4860 1073.00 1057.78 33.00
3616 69.5030 1083.00 1058.08 33.00
3617 69.5200 1026.00 1058.56 32.00
3618 69.5370 1011.00 1059.23 32.00
3619 69.5540 1048.00 1060.15 32.00
3620 69.5710 1034.00 1061.33 32.00
3621 69.5880 1079.00 1062.81 33.00
3622 69.6050 1067.00 1064.63 33.00
3623 69.6220 1089.00 1066.77 33.00
3624 69.6390 1080.00 1069.27 33.00
3625 69.6560 1078.00 1072.11 33.00
3626 69.6730 1040.00 1075.27 32.00
3627 69.6900 1042.00 1078.71 32.00
3628 69.7070 1127.00 1082.39 34.00
3629 69.7240 1053.00 1086.22 32.00
3630 69.7410 1016.00 1090.13 32.00
3631 69.7580 1117.00 1094.00 33.00
3632 69.7750 1123.00 1097.74 34.00
3633 69.7920 1106.00 1101.23 33.00
3634 69.8090 1146.00 1104.36 34.00
3635 69.8260 1089.00 1107.04 33.00
3636 69.8430 1084.00 1109.20 33.00
3637 69.8600 1069.00 1110.79 33.00
3638 69.8770 1110.00 1111.82 33.00
3639 69.8940 1122.00 1112.33 33.00
3640 69.9110 1103.00 1112.39 33.00
3641 69.9280 1087.00 1112.08 33.00
3642 69.9450 1090.00 1111.50 33.00
3643 69.9620 1128.00 1110.70 34.00
3644 69.9790 1107.00 1109.75 33.00
3645 69.9960 1122.00 1108.70 33.00
3646 70.0130 1088.00 1107.58 33.00
3647 70.0300 1071.00 1106.42 33.00
3648 70.0470 1096.00 1105.26 33.00
3649 70.0640 1122.00 1104.13 33.00
3650 70.0810 1075.00 1103.11 33.00
3651 70.0980 1146.00 1102.25 34.00
3652 70.1150 1140.00 1101.64 34.00
3653 70.1320 1128.00 1101.34 34.00
3654 70.1490 1149.00 1101.42 34.00
3655 70.1660 1171.00 1101.91 34.00
3656 70.1830 1141.00 1102.84 34.00
3657 70.2000 1118.00 1104.21 33.00
3658 70.2170 1153.00 1105.98 34.00
3659 70.2340 1123.00 1108.10 34.00
3660 70.2510 1168.00 1110.51 34.00
3661 70.2680 1152.00 1113.12 34.00
3662 70.2850 1142.00 1115.83 34.00
3663 70.3020 1140.00 1118.53 34.00
3664 70.3190 1128.00 1121.10 34.00
3665 70.3360 1160.00 1123.44 34.00
3666 70.3530 1166.00 1125.43 34.00
3667 70.3700 1143.00 1127.04 34.00
3668 70.3870 1115.00 1128.21 33.00
3669 70.4040 1138.00 1128.94 34.00
3670 70.4210 1129.00 1129.26 34.00
3671 70.4380 1085.00 1129.22 33.00
3672 70.4550 1156.00 1128.88 34.00
3673 70.4720 1122.00 1128.30 33.00
3674 70.4890 1128.00 1127.53 34.00
3675 70.5060 1141.00 1126.59 34.00
3676 70.5230 1133.00 1125.50 34.00
3677 70.5400 1141.00 1124.28 34.00
3678 70.5570 1156.00 1122.93 34.00
3679 70.5740 1135.00 1121.45 34.00
3680 70.5910 1157.00 1119.88 34.00
3681 70.6080 1121.00 1118.24 33.00
3682 70.6250 1068.00 1116.56 33.00
3683 70.6420 1122.00 1114.91 33.00
3684 70.6590 1096.00 1113.31 33.00
3685 70.6760 1081.00 1111.83 33.00
3686 70.6930 1073.00 1110.49 33.00
3687 70.7100 1072.00 1109.32 33.00
3688 70.7270 1080.00 1108.34 33.00
3689 70.7440 1098.00 1107.57 33.00
3690 70.7610 1127.00 1107.02 34.00
3691 70.7780 1059.00 1106.68 33.00
3692 70.7950 1024.00 1106.56 32.00
3693 70.8120 1092.00 1106.65 33.00
3694 70.8290 1090.00 1106.95 33.00
3695 70.8460 1041.00 1107.44 32.00
3696 70.8630 1022.00 1108.13 32.00
3697 70.8800 1049.00 1108.99 32.00
3698 70.8970 1114.00 1110.02 33.00
3699 70.9140 1066.00 1111.20 33.00
3700 70.9310 1036.00 1112.53 32.00
3701 70.9480 1056.00 1113.99 32.00
3702 70.9650 1031.00 1115.58 32.00
3703 70.9820 1024.00 1117.30 32.00
3704 70.9990 1046.00 1118.92 32.00
3705 71.0160 1089.00 1120.00 33.00
3706 71.0330 1117.00 1121.16 33.00
3707 71.0500 1115.00 1122.49 33.00
3708 71.0670 1100.00 1124.03 33.00
3709 71.0840 1121.00 1125.82 33.00
3710 71.1010 1173.00 1127.89 34.00
3711 71.1180 1104.00 1130.30 33.00
3712 71.1350 1083.00 1133.08 33.00
3713 71.1520 1104.00 1136.29 33.00
3714 71.1690 1108.00 1139.96 33.00
3715 71.1860 1090.00 1144.14 33.00
3716 71.2030 1063.00 1148.86 33.00
3717 71.2200 1113.00 1154.32 33.00
3718 71.2370 1151.00 1160.22 34.00
3719 71.2540 1087.00 1166.96 33.00
3720 71.2710 1181.00 1174.15 34.00
3721 71.2880 1198.00 1182.01 35.00
3722 71.3050 1122.00 1190.55 33.00
3723 71.3220 1119.00 1199.78 33.00
3724 71.3390 1196.00 1209.68 35.00
3725 71.3560 1199.00 1220.22 35.00
3726 71.3730 1137.00 1231.37 34.00
3727 71.3900 1146.00 1243.06 34.00
3728 71.4070 1171.00 1255.19 34.00
3729 71.4240 1164.00 1267.60 34.00
3730 71.4410 1276.00 1280.11 36.00
3731 71.4580 1247.00 1292.96 35.00
3732 71.4750 1226.00 1304.91 35.00
3733 71.4920 1300.00 1316.17 36.00
3734 71.5090 1315.00 1326.46 36.00
3735 71.5260 1289.00 1335.55 36.00
3736 71.5430 1269.00 1343.26 36.00
3737 71.5600 1353.00 1349.46 37.00
3738 71.5770 1327.00 1354.09 36.00
3739 71.5940 1340.00 1357.34 37.00
3740 71.6110 1328.00 1358.91 36.00
3741 71.6280 1392.00 1359.07 37.00
3742 71.6450 1350.00 1357.95 37.00
3743 71.6620 1316.00 1355.87 36.00
3744 71.6790 1390.00 1352.61 37.00
3745 71.6960 1378.00 1348.49 37.00
3746 71.7130 1293.00 1343.65 36.00
3747 71.7300 1420.00 1338.28 38.00
3748 71.7470 1368.00 1332.56 37.00
3749 71.7640 1373.00 1326.74 37.00
3750 71.7810 1460.00 1321.10 38.00
3751 71.7980 1369.00 1315.95 37.00
3752 71.8150 1286.00 1311.68 36.00
3753 71.8320 1320.00 1308.69 36.00
3754 71.8490 1341.00 1307.48 37.00
3755 71.8660 1371.00 1308.98 37.00
3756 71.8830 1359.00 1313.00 37.00
3757 71.9000 1409.00 1320.58 38.00
3758 71.9170 1415.00 1332.42 38.00
3759 71.9340 1463.00 1349.25 38.00
3760 71.9510 1430.00 1371.82 38.00
3761 71.9680 1482.00 1400.84 38.00
3762 71.9850 1479.00 1436.96 38.00
3763 72.0020 1519.00 1480.73 39.00
3764 72.0190 1536.00 1532.57 39.00
3765 72.0360 1602.00 1592.59 40.00
3766 72.0530 1689.00 1660.72 41.00
3767 72.0700 1690.00 1736.67 41.00
3768 72.0870 1753.00 1819.85 42.00
3769 72.1040 1825.00 1909.37 43.00
3770 72.1210 1898.00 2004.15 44.00
3771 72.1380 1962.00 2103.09 44.00
3772 72.1550 2003.00 2204.86 45.00
3773 72.1720 2018.00 2308.25 45.00
3774 72.1890 2037.00 2411.94 45.00
3775 72.2060 2173.00 2515.12 47.00
3776 72.2230 2277.00 2617.17 48.00
3777 72.2400 2329.00 2718.04 48.00
3778 72.2570 2420.00 2818.32 49.00
3779 72.2740 2445.00 2919.19 49.00
3780 72.2910 2499.00 3022.26 50.00
3781 72.3080 2607.00 3129.20 51.00
3782 72.3250 2780.00 3241.61 53.00
3783 72.3420 2850.00 3360.19 53.00
3784 72.3590 2918.00 3484.99 54.00
3785 72.3760 3174.00 3615.26 56.00
3786 72.3930 3243.00 3749.31 57.00
3787 72.4100 3442.00 3884.63 59.00
3788 72.4270 3428.00 4018.43 59.00
3789 72.4440 3628.00 4147.92 60.00
3790 72.4610 3739.00 4270.39 61.00
3791 72.4780 3984.00 4383.81 63.00
3792 72.4950 4148.00 4486.40 64.00
3793 72.5120 4208.00 4578.26 65.00
3794 72.5290 4479.00 4659.23 67.00
3795 72.5460 4569.00 4730.21 68.00
3796 72.5630 4716.00 4792.83 69.00
3797 72.5800 4560.00 4849.31 68.00
3798 72.5970 4702.00 4902.25 69.00
3799 72.6140 4763.00 4954.19 69.00
3800 72.6310 4864.00 5007.22 70.00
3801 72.6480 4987.00 5062.35 71.00
3802 72.6650 5124.00 5119.48 72.00
3803 72.6820 5251.00 5177.26 72.00
3804 72.6990 5299.00 5233.29 73.00
3805 72.7160 5193.00 5284.00 72.00
3806 72.7330 5456.00 5325.75 74.00
3807 72.7500 5397.00 5354.30 73.00
3808 72.7670 5490.00 5365.77 74.00
3809 72.7840 5555.00 5357.03 75.00
3810 72.8010 5448.00 5326.17 74.00
3811 72.8180 5391.00 5272.66 73.00
3812 72.8350 5375.00 5197.48 73.00
3813 72.8520 5260.00 5102.84 73.00
3814 72.8690 5061.00 4991.97 71.00
3815 72.8860 4883.00 4868.18 70.00
3816 72.9030 4804.00 4734.71 69.00
3817 72.9200 4608.00 4594.17 68.00
3818 72.9370 4400.00 4448.34 66.00
3819 72.9540 4307.00 4298.25 66.00
3820 72.9710 4019.00 4144.27 63.00
3821 72.9880 3838.00 3986.55 62.00
3822 73.0050 3751.00 3824.93 61.00
3823 73.0220 3598.00 3659.95 60.00
3824 73.0390 3422.00 3492.38 58.00
3825 73.0560 3239.00 3323.37 57.00
3826 73.0730 3063.00 3153.40 55.00
3827 73.0900 2933.00 2986.91 54.00
3828 73.1070 2763.00 2824.31 53.00
3829 73.1240 2545.00 2667.65 50.00
3830 73.1410 2347.00 2518.07 48.00
3831 73.1580 2255.00 2376.45 47.00
3832 73.1750 2064.00 2243.56 45.00
3833 73.1920 1900.00 2119.53 44.00
3834 73.2090 1837.00 2004.57 43.00
3835 73.2260 1788.00 1898.65 42.00
3836 73.2430 1724.00 1801.81 42.00
3837 73.2600 1625.00 1713.78 40.00
3838 73.2770 1597.00 1633.79 40.00
3839 73.2940 1485.00 1562.74 39.00
3840 73.3110 1412.00 1499.54 38.00
3841 73.3280 1415.00 1443.69 38.00
3842 73.3450 1311.00 1394.86 36.00
3843 73.3620 1327.00 1352.37 36.00
3844 73.3790 1285.00 1315.57 36.00
3845 73.3960 1240.00 1283.90 35.00
3846 73.4130 1226.00 1256.76 35.00
3847 73.4300 1165.00 1233.58 34.00
3848 73.4470 1151.00 1213.82 34.00
3849 73.4640 1135.00 1197.02 34.00
3850 73.4810 1182.00 1182.75 34.00
3851 73.4980 1185.00 1170.60 34.00
3852 73.5150 1160.00 1160.24 34.00
3853 73.5320 1078.00 1151.37 33.00
3854 73.5490 1075.00 1143.75 33.00
3855 73.5660 1107.00 1137.14 33.00
3856 73.5830 1093.00 1131.38 33.00
3857 73.6000 1121.00 1126.30 33.00
3858 73.6170 1093.00 1121.76 33.00
3859 73.6340 1152.00 1117.68 34.00
3860 73.6510 1127.00 1113.97 34.00
3861 73.6680 1076.00 1110.55 33.00
3862 73.6850 1070.00 1107.38 33.00
3863 73.7020 1050.00 1104.42 32.00
3864 73.7190 1033.00 1101.64 32.00
3865 73.7360 1043.00 1099.02 32.00
3866 73.7530 1105.00 1096.54 33.00
3867 73.7700 1087.00 1094.18 33.00
3868 73.7870 1124.00 1091.93 34.00
3869 73.8040 1101.00 1089.79 33.00
3870 73.8210 1039.00 1087.59 32.00
3871 73.8380 1033.00 1085.13 32.00
3872 73.8550 1052.00 1082.75 32.00
3873 73.8720 1041.00 1080.44 32.00
3874 73.8890 1040.00 1078.20 32.00
3875 73.9060 1054.00 1076.03 32.00
3876 73.9230 1122.00 1073.92 33.00
3877 73.9400 1101.00 1071.88 33.00
3878 73.9570 1047.00 1069.90 32.00
3879 73.9740 1006.00 1067.99 32.00
3880 73.9910 998.00 1066.14 32.00
3881 74.0080 1043.00 1064.36 32.00
3882 74.0250 1057.00 1062.64 33.00
3883 74.0420 1007.00 1060.98 32.00
3884 74.0590 1021.00 1059.39 32.00
3885 74.0760 1101.00 1057.86 33.00
3886 74.0930 1134.00 1056.40 34.00
3887 74.1100 1100.00 1055.01 33.00
3888 74.1270 1067.00 1053.70 33.00
3889 74.1440 1060.00 1054.39 33.00
3890 74.1610 1049.00 1055.18 32.00
3891 74.1780 1009.00 1056.08 32.00
3892 74.1950 1030.00 1057.10 32.00
3893 74.2120 1041.00 1058.26 32.00
3894 74.2290 1025.00 1059.59 32.00
3895 74.2460 997.00 1061.11 32.00
3896 74.2630 1085.00 1062.84 33.00
3897 74.2800 1070.00 1064.82 33.00
3898 74.2970 1032.00 1067.05 32.00
3899 74.3140 1023.00 1069.58 32.00
3900 74.3310 1043.00 1072.40 32.00
3901 74.3480 1083.00 1075.52 33.00
3902 74.3650 1076.00 1078.95 33.00
3903 74.3820 1032.00 1082.67 32.00
3904 74.3990 1102.00 1086.65 33.00
3905 74.4160 1136.00 1090.84 34.00
3906 74.4330 1043.00 1095.19 32.00
3907 74.4500 1051.00 1099.64 32.00
3908 74.4670 1056.00 1104.09 32.00
3909 74.4840 1059.00 1108.46 33.00
3910 74.5010 1045.00 1112.66 32.00
3911 74.5180 1058.00 1116.59 33.00
3912 74.5350 1108.00 1120.16 33.00
3913 74.5520 1108.00 1123.31 33.00
3914 74.5690 1126.00 1125.96 34.00
3915 74.5860 1079.00 1128.09 33.00
3916 74.6030 1046.00 1129.71 32.00
3917 74.6200 1064.00 1130.85 33.00
3918 74.6370 1111.00 1131.56 33.00
3919 74.6540 1067.00 1131.92 33.00
3920 74.6710 1093.00 1131.99 33.00
3921 74.6880 1133.00 1131.87 34.00
3922 74.7050 1150.00 1131.59 34.00
3923 74.7220 1076.00 1131.20 33.00
3924 74.7390 1070.00 1130.74 33.00
3925 74.7560 1026.00 1130.23 32.00
3926 74.7730 1076.00 1129.69 33.00
3927 74.7900 1131.00 1129.15 34.00
3928 74.8070 1128.00 1127.13 34.00
3929 74.8240 1076.00 1124.98 33.00
3930 74.8410 1123.00 1122.92 34.00
3931 74.8580 1132.00 1120.99 34.00
3932 74.8750 1055.00 1119.24 32.00
3933 74.8920 1056.00 1117.70 32.00
3934 74.9090 1111.00 1116.40 33.00
3935 74.9260 1123.00 1115.33 34.00
3936 74.9430 1134.00 1114.49 34.00
3937 74.9600 1089.00 1113.85 33.00
3938 74.9770 1092.00 1113.38 33.00
3939 74.9940 1096.00 1113.02 33.00
3940 75.0110 1135.00 1112.73 34.00
3941 75.0280 1108.00 1112.45 33.00
3942 75.0450 1045.00 1112.12 32.00
3943 75.0620 1134.00 1111.70 34.00
3944 75.0790 1130.00 1111.13 34.00
3945 75.0960 1103.00 1110.41 33.00
3946 75.1130 1156.00 1109.51 34.00
3947 75.1300 1184.00 1108.44 34.00
3948 75.1470 1201.00 1107.23 35.00
3949 75.1640 1141.00 1105.96 34.00
3950 75.1810 1108.00 1104.53 33.00
3951 75.1980 1118.00 1103.03 33.00
3952 75.2150 1079.00 1101.47 33.00
3953 75.2320 1132.00 1099.86 34.00
3954 75.2490 1118.00 1098.21 33.00
3955 75.2660 1065.00 1096.50 33.00
3956 75.2830 1048.00 1094.75 32.00
3957 75.3000 1052.00 1092.95 32.00
3958 75.3170 1051.00 1091.09 32.00
3959 75.3340 1021.00 1089.21 32.00
3960 75.3510 1021.00 1087.30 32.00
3961 75.3680 1065.00 1085.39 33.00
3962 75.3850 1075.00 1083.62 33.00
3963 75.4020 1073.00 1081.78 33.00
3964 75.4190 1088.00 1080.00 33.00
3965 75.4360 1077.00 1078.30 33.00
3966 75.4530 1029.00 1076.69 32.00
3967 75.4700 1051.00 1075.19 32.00
3968 75.4870 1065.00 1073.79 33.00
3969 75.5040 1044.00 1072.56 32.00
3970 75.5210 1080.00 1071.38 33.00
3971 75.5380 1072.00 1070.31 33.00
3972 75.5550 1061.00 1069.34 33.00
3973 75.5720 1048.00 1068.46 32.00
3974 75.5890 1044.00 1067.68 32.00
3975 75.6060 1084.00 1066.99 33.00
3976 75.6230 1054.00 1066.38 32.00
3977 75.6400 1061.00 1065.84 33.00
3978 75.6570 1079.00 1065.37 33.00
3979 75.6740 1094.00 1064.96 33.00
3980 75.6910 1105.00 1064.62 33.00
3981 75.7080 1011.00 1064.33 32.00
3982 75.7250 998.00 1064.08 32.00
3983 75.7420 1008.00 1064.03 32.00
3984 75.7590 1019.00 1063.87 32.00
3985 75.7760 1055.00 1063.76 32.00
3986 75.7930 1042.00 1064.40 32.00
3987 75.8100 1017.00 1065.08 32.00
3988 75.8270 1059.00 1065.80 33.00
3989 75.8440 1047.00 1066.55 32.00
3990 75.8610 1057.00 1067.32 33.00
3991 75.8780 1061.00 1068.13 33.00
3992 75.8950 1026.00 1069.05 32.00
3993 75.9120 1064.00 1069.93 33.00
3994 75.9290 1049.00 1070.84 32.00
3995 75.9460 1050.00 1071.79 32.00
3996 75.9630 1031.00 1072.78 32.00
3997 75.9800 1056.00 1073.80 32.00
3998 75.9970 1073.00 1074.87 33.00
3999 76.0140 1065.00 1076.00 33.00
4000 76.0310 1016.00 1077.16 32.00
4001 76.0480 1069.00 1078.36 33.00
4002 76.0650 1085.00 1079.61 33.00
4003 76.0820 1036.00 1080.92 32.00
4004 76.0990 1063.00 1082.28 33.00
4005 76.1160 1107.00 1083.71 33.00
4006 76.1330 1102.00 1085.20 33.00
4007 76.1500 1069.00 1086.76 33.00
4008 76.1670 1036.00 1088.40 32.00
4009 76.1840 1122.00 1090.12 33.00
4010 76.2010 1119.00 1091.93 33.00
4011 76.2180 1099.00 1093.84 33.00
4012 76.2350 1138.00 1095.87 34.00
4013 76.2520 1124.00 1098.03 34.00
4014 76.2690 1112.00 1100.34 33.00
4015 76.2860 1123.00 1102.84 34.00
4016 76.3030 1154.00 1105.55 34.00
4017 76.3200 1090.00 1108.52 33.00
4018 76.3370 1121.00 1111.81 33.00
4019 76.3540 1245.00 1115.50 35.00
4020 76.3710 1174.00 1119.68 34.00
4021 76.3880 1163.00 1124.47 34.00
4022 76.4050 1239.00 1130.02 35.00
4023 76.4220 1221.00 1136.54 35.00
4024 76.4390 1283.00 1144.23 36.00
4025 76.4560 1223.00 1153.38 35.00
4026 76.4730 1310.00 1164.30 36.00
4027 76.4900 1283.00 1177.39 36.00
4028 76.5070 1384.00 1193.03 37.00
4029 76.5240 1360.00 1211.70 37.00
4030 76.5410 1370.00 1233.89 37.00
4031 76.5580 1459.00 1260.12 38.00
4032 76.5750 1517.00 1290.91 39.00
4033 76.5920 1583.00 1326.69 40.00
4034 76.6090 1592.00 1367.95 40.00
4035 76.6260 1699.00 1415.03 41.00
4036 76.6430 1764.00 1468.19 42.00
4037 76.6600 1818.00 1527.56 43.00
4038 76.6770 1823.00 1593.18 43.00
4039 76.6940 1850.00 1664.92 43.00
4040 76.7110 1984.00 1742.55 45.00
4041 76.7280 1952.00 1825.85 44.00
4042 76.7450 2029.00 1914.36 45.00
4043 76.7620 2160.00 2007.73 46.00
4044 76.7790 2244.00 2105.55 47.00
4045 76.7960 2326.00 2207.59 48.00
4046 76.8130 2428.00 2313.49 49.00
4047 76.8300 2499.00 2423.11 50.00
4048 76.8470 2565.00 2536.58 51.00
4049 76.8640 2673.00 2654.09 52.00
4050 76.8810 2948.00 2776.11 54.00
4051 76.8980 3000.00 2903.10 55.00
4052 76.9150 3027.00 3035.78 55.00
4053 76.9320 3277.00 3174.58 57.00
4054 76.9490 3295.00 3319.60 57.00
4055 76.9660 3437.00 3470.16 59.00
4056 76.9830 3607.00 3625.28 60.00
4057 77.0000 3717.00 3783.03 61.00
4058 77.0170 3703.00 3940.81 61.00
4059 77.0340 3794.00 4095.76 62.00
4060 77.0510 4110.00 4244.23 64.00
4061 77.0680 4141.00 4382.70 64.00
4062 77.0850 4103.00 4507.70 64.00
4063 77.1020 4186.00 4616.43 65.00
4064 77.1190 4201.00 4706.62 65.00
4065 77.1360 4261.00 4777.29 65.00
4066 77.1530 4330.00 4828.68 66.00
4067 77.1700 4319.00 4862.04 66.00
4068 77.1870 4379.00 4879.42 66.00
4069 77.2040 4519.00 4883.35 67.00
4070 77.2210 4385.00 4876.37 66.00
4071 77.2380 4366.00 4860.85 66.00
4072 77.2550 4338.00 4838.84 66.00
4073 77.2720 4319.00 4812.16 66.00
4074 77.2890 4202.00 4782.36 65.00
4075 77.3060 4189.00 4750.88 65.00
4076 77.3230 4211.00 4719.06 65.00
4077 77.3400 4012.00 4688.19 63.00
4078 77.3570 4165.00 4659.32 65.00
4079 77.3740 3982.00 4633.37 63.00
4080 77.3910 4199.00 4610.94 65.00
4081 77.4080 4044.00 4592.23 64.00
4082 77.4250 4033.00 4576.94 64.00
4083 77.4420 4131.00 4564.17 64.00
4084 77.4590 4247.00 4552.42 65.00
4085 77.4760 4256.00 4539.63 65.00
4086 77.4930 4355.00 4523.44 66.00
4087 77.5100 4401.00 4501.28 66.00
4088 77.5270 4449.00 4470.70 67.00
4089 77.5440 4582.00 4429.61 68.00
4090 77.5610 4693.00 4376.51 69.00
4091 77.5780 4608.00 4310.81 68.00
4092 77.5950 4494.00 4232.70 67.00
4093 77.6120 4339.00 4143.37 66.00
4094 77.6290 4296.00 4044.63 66.00
4095 77.6460 4164.00 3938.85 65.00
4096 77.6630 3902.00 3828.18 62.00
4097 77.6800 3746.00 3714.68 61.00
4098 77.6970 3613.00 3599.90 60.00
4099 77.7140 3349.00 3484.46 58.00
4100 77.7310 3138.00 3369.32 56.00
4101 77.7480 3082.00 3254.23 56.00
4102 77.7650 2944.00 3138.91 54.00
4103 77.7820 2916.00 3022.84 54.00
4104 77.7990 2908.00 2905.87 54.00
4105 77.8160 2780.00 2787.95 53.00
4106 77.8330 2696.00 2669.49 52.00
4107 77.8500 2626.00 2551.14 51.00
4108 77.8670 2450.00 2433.96 49.00
4109 77.8840 2339.00 2319.29 48.00
4110 77.9010 2212.00 2208.21 47.00
4111 77.9180 1998.00 2101.86 45.00
4112 77.9350 1926.00 2000.98 44.00
4113 77.9520 1771.00 1906.43 42.00
4114 77.9690 1584.00 1818.62 40.00
4115 77.9860 1575.00 1737.68 40.00
4116 78.0030 1534.00 1663.68 39.00
4117 78.0200 1421.00 1596.40 38.00
4118 78.0370 1391.00 1535.73 37.00
4119 78.0540 1390.00 1481.00 37.00
4120 78.0710 1273.00 1432.58 36.00
4121 78.0880 1289.00 1389.69 36.00
4122 78.1050 1282.00 1351.99 36.00
4123 78.1220 1288.00 1319.04 36.00
4124 78.1390 1263.00 1290.44 36.00
4125 78.1560 1225.00 1265.75 35.00
4126 78.1730 1209.00 1244.52 35.00
4127 78.1900 1150.00 1226.46 34.00
4128 78.2070 1177.00 1211.12 34.00
4129 78.2240 1219.00 1198.15 35.00
4130 78.2410 1229.00 1187.20 35.00
4131 78.2580 1186.00 1177.97 34.00
4132 78.2750 1195.00 1170.02 35.00
4133 78.2920 1117.00 1163.45 33.00
4134 78.3090 1116.00 1157.71 33.00
4135 78.3260 1125.00 1152.98 34.00
4136 78.3430 1176.00 1148.66 34.00
4137 78.3600 1051.00 1145.18 32.00
4138 78.3770 1113.00 1142.16 33.00
4139 78.3940 1100.00 1139.53 33.00
4140 78.4110 1099.00 1137.22 33.00
4141 78.4280 1105.00 1135.17 33.00
4142 78.4450 1138.00 1133.32 34.00
4143 78.4620 1136.00 1131.64 34.00
4144 78.4790 1067.00 1130.09 33.00
4145 78.4960 1106.00 1128.63 33.00
4146 78.5130 1075.00 1127.18 33.00
4147 78.5300 1050.00 1125.75 32.00
4148 78.5470 1069.00 1124.43 33.00
4149 78.5640 1043.00 1122.33 32.00
4150 78.5810 1048.00 1120.09 32.00
4151 78.5980 1064.00 1118.00 33.00
4152 78.6150 1062.00 1115.90 33.00
4153 78.6320 1035.00 1113.82 32.00
4154 78.6490 1087.00 1111.75 33.00
4155 78.6660 1078.00 1109.70 33.00
4156 78.6830 1009.00 1107.67 32.00
4157 78.7000 1060.00 1105.66 33.00
4158 78.7170 1035.00 1103.69 32.00
4159 78.7340 1043.00 1101.70 32.00
4160 78.7510 1057.00 1099.77 33.00
4161 78.7680 1066.00 1097.86 33.00
4162 78.7850 1066.00 1095.96 33.00
4163 78.8020 1045.00 1094.09 32.00
4164 78.8190 981.00 1092.23 31.00
4165 78.8360 999.00 1090.39 32.00
4166 78.8530 1034.00 1088.59 32.00
4167 78.8700 1011.00 1086.81 32.00
4168 78.8870 1045.00 1085.08 32.00
4169 78.9040 987.00 1083.39 31.00
4170 78.9210 979.00 1081.75 31.00
4171 78.9380 1005.00 1080.16 32.00
4172 78.9550 975.00 1078.63 31.00
4173 78.9720 981.00 1077.17 31.00
4174 78.9890 1002.00 1075.76 32.00
4175 79.0060 1043.00 1074.41 32.00
4176 79.0230 1040.00 1073.13 32.00
4177 79.0400 1013.00 1071.92 32.00
4178 79.0570 1023.00 1070.78 32.00
4179 79.0740 1044.00 1069.70 32.00
4180 79.0910 1060.00 1068.70 33.00
4181 79.1080 1036.00 1067.78 32.00
4182 79.1250 1036.00 1066.95 32.00
4183 79.1420 1029.00 1066.20 32.00
4184 79.1590 1028.00 1065.55 32.00
4185 79.1760 1036.00 1065.00 32.00
4186 79.1930 1023.00 1064.56 32.00
4187 79.2100 1035.00 1064.23 32.00
4188 79.2270 1008.00 1064.01 32.00
4189 79.2440 1052.00 1064.00 32.00
4190 79.2610 978.00 1064.03 31.00
4191 79.2780 992.00 1064.18 31.00
4192 79.2950 1013.00 1064.44 32.00
4193 79.3120 1016.00 1064.83 32.00
4194 79.3290 1027.00 1065.31 32.00
4195 79.3460 1002.00 1065.89 32.00
4196 79.3630 1051.00 1066.55 32.00
4197 79.3800 1066.00 1067.26 33.00
4198 79.3970 1034.00 1068.02 32.00
4199 79.4140 1022.00 1068.80 32.00
4200 79.4310 1006.00 1069.57 32.00
4201 79.4480 998.00 1070.31 32.00
4202 79.4650 1063.00 1071.00 33.00
4203 79.4820 1031.00 1071.78 32.00
4204 79.4990 1018.00 1072.29 32.00
4205 79.5160 1059.00 1072.70 33.00
4206 79.5330 1068.00 1072.98 33.00
4207 79.5500 1025.00 1073.13 32.00
4208 79.5670 1064.00 1073.13 33.00
4209 79.5840 1080.00 1072.98 33.00
4210 79.6010 1115.00 1072.67 33.00
4211 79.6180 1042.00 1072.18 32.00
4212 79.6350 982.00 1071.51 31.00
4213 79.6520 1026.00 1070.66 32.00
4214 79.6690 1053.00 1069.63 32.00
4215 79.6860 1034.00 1068.43 32.00
4216 79.7030 1003.00 1067.07 32.00
4217 79.7200 1050.00 1065.73 32.00
4218 79.7370 1055.00 1064.11 32.00
4219 79.7540 1008.00 1062.41 32.00
4220 79.7710 1007.00 1060.63 32.00
4221 79.7880 1012.00 1058.81 32.00
4222 79.8050 1070.00 1056.95 33.00
4223 79.8220 1031.00 1055.08 32.00
4224 79.8390 985.00 1053.20 31.00
4225 79.8560 1031.00 1051.32 32.00
4226 79.8730 1037.00 1049.45 32.00
4227 79.8900 1027.00 1047.60 32.00
4228 79.9070 1013.00 1045.78 32.00
4229 79.9240 967.00 1043.99 31.00
4230 79.9410 970.00 1042.26 31.00
4231 79.9580 1010.00 1040.68 32.00
4232 79.9750 1026.00 1039.10 32.00
4233 79.9920 1051.00 1037.61 32.00
4234 80.0090 1029.00 1036.23 32.00
loop_
_refln_index_h
_refln_index_k
_refln_index_l
_refln_F_squared_calc
_refln_F_squared_meas
_refln_F_squared_sigma
_refln_observed_status
_refln_d_spacing
0 1 0 4.05 7.99 2.81 < 7.771430
0 0 1 29.04 23.17 4.38 o 5.508818
0 1 1 32.98 8.40 3.00 < 4.494224
1 0 1 14448.62 14512.92 289.02 o 3.909621
-1 0 1 14448.62 14512.92 291.65 o 3.909621
0 2 0 15415.10 15731.92 314.81 o 3.885715
1 1 1 20.18 6.59 2.58 < 3.492564
-1 1 1 20.18 6.59 2.61 < 3.492564
0 2 1 12.81 15.77 7.33 < 3.175282
-2 0 0 16983.69 15878.05 320.89 o 2.774743
2 0 0 16983.69 15878.06 319.90 o 2.774743
1 2 1 18964.95 19115.48 387.77 o 2.756029
-1 2 1 18964.95 19115.48 380.85 o 2.756029
0 0 2 17137.78 17280.03 347.34 o 2.754409
-2 1 0 20.08 12.50 2.18 o 2.613173
2 1 0 20.08 12.50 2.17 o 2.613173
0 1 2 3.11 2.19 0.41 o 2.596168
0 3 0 8.31 7.78 1.32 o 2.590477
2 0 1 284.95 337.64 12.20 o 2.478136
-2 0 1 284.95 337.64 12.01 o 2.478136
1 0 2 291.36 362.78 11.92 o 2.467224
-1 0 2 291.36 362.78 12.26 o 2.467224
2 1 1 161.20 151.92 4.57 o 2.361004
-2 1 1 161.20 151.92 4.57 o 2.361004
1 1 2 290.43 289.62 7.42 o 2.351562
-1 1 2 290.43 289.62 7.42 o 2.351562
0 3 1 531.96 548.77 14.19 o 2.344225
-2 2 0 1427.56 1378.76 31.56 o 2.258112
2 2 0 1427.56 1378.76 31.61 o 2.258112
0 2 2 1604.32 1516.84 33.72 o 2.247112
-1 3 1 1.40 11.72 7.07 < 2.159461
1 3 1 1.40 11.72 7.12 < 2.159461
2 2 1 166.94 183.31 6.64 o 2.089390
-2 2 1 166.94 183.31 6.49 o 2.089390
1 2 2 234.44 246.18 8.30 o 2.082837
-1 2 2 234.44 246.18 8.58 o 2.082837
-2 0 2 28901.92 29472.21 596.99 o 1.954811
2 0 2 28901.92 29472.21 597.40 o 1.954811
0 4 0 33986.12 36087.16 732.15 o 1.942858
2 1 2 20.84 7.50 1.73 o 1.895757
-2 1 2 20.84 7.50 1.75 o 1.895757
-2 3 0 67.50 23.75 5.77 o 1.893538
2 3 0 67.50 23.75 5.87 o 1.893538
0 3 2 16.47 4.06 1.68 < 1.887037
0 0 3 30.14 13.32 9.22 < 1.836273
0 4 1 4.73 2.34 1.39 < 1.832245
-2 3 1 36.39 24.72 1.43 o 1.790705
2 3 1 36.39 24.72 1.43 o 1.790705
0 1 3 319.80 225.86 11.75 o 1.787064
1 3 2 132.37 93.74 4.84 o 1.786575
-1 3 2 132.37 93.74 4.84 o 1.786575
3 0 1 9239.12 8711.53 173.05 o 1.753602
-3 0 1 9239.13 8711.53 182.08 o 1.753602
-2 2 2 9385.47 9183.49 185.75 o 1.746282
2 2 2 9385.47 9183.49 184.35 o 1.746282
-1 0 3 7108.62 7156.89 146.68 o 1.743315
1 0 3 7108.62 7156.89 141.25 o 1.743315
1 4 1 7920.29 8083.42 161.77 o 1.739867
-1 4 1 7920.29 8083.43 163.68 o 1.739867
-3 1 1 23.63 11.64 1.70 o 1.710594
3 1 1 23.63 11.64 1.69 o 1.710594
1 1 3 8.56 2.23 0.99 < 1.701041
-1 1 3 8.56 2.23 0.99 < 1.701041
0 2 3 0.15 0.06 0.06 < 1.660224
3 2 1 13781.21 12596.97 258.90 o 1.598372
-3 2 1 13781.21 12596.97 252.80 o 1.598372
2 4 0 11614.30 11571.79 233.66 o 1.591506
-2 4 0 11614.30 11571.79 233.93 o 1.591506
-1 2 3 14950.49 15070.95 305.38 o 1.590570
1 2 3 14950.49 15070.95 304.10 o 1.590570
0 4 2 11747.58 12165.72 246.02 o 1.587641
2 3 2 10.81 9.43 0.91 o 1.560386
-2 3 2 10.81 9.43 0.92 o 1.560386
0 5 0 13.22 9.01 1.57 o 1.554286
-3 0 2 125.40 107.70 11.32 o 1.535653
3 0 2 125.40 107.70 11.85 o 1.535653
2 0 3 165.77 132.15 10.67 o 1.531315
-2 0 3 165.77 132.15 10.96 o 1.531315
-2 4 1 91.16 71.78 5.63 o 1.528977
2 4 1 91.16 71.78 5.77 o 1.528977
-1 4 2 108.38 82.37 6.93 o 1.526404
1 4 2 108.38 82.37 6.66 o 1.526404
3 1 2 78.02 35.16 8.76 o 1.506523
-3 1 2 78.02 35.16 8.77 o 1.506523
-2 1 3 100.10 46.19 9.93 o 1.502426
2 1 3 100.10 46.19 9.94 o 1.502426
0 3 3 25.64 13.21 2.83 o 1.498075
0 5 1 73.41 38.82 10.17 o 1.495885
-3 3 1 29.12 14.26 12.63 < 1.452162
3 3 1 29.12 14.26 12.87 < 1.452162
-1 3 3 32.69 17.50 10.85 < 1.446304
1 3 3 32.69 17.50 11.10 < 1.446304
-1 5 1 20.47 11.57 7.16 < 1.444333
1 5 1 20.47 11.57 6.82 < 1.444333
3 2 2 57.80 41.47 6.57 o 1.428167
-3 2 2 57.80 41.47 6.29 o 1.428167
-2 2 3 159.57 106.65 16.40 o 1.424676
2 2 3 159.57 106.65 15.71 o 1.424676
-4 0 0 15072.72 14506.16 316.08 o 1.387371
4 0 0 15072.72 14506.16 317.22 o 1.387371
-2 4 2 16933.08 17443.46 355.88 o 1.378014
2 4 2 16933.08 17443.46 356.56 o 1.378014
0 0 4 14418.68 14773.27 301.58 o 1.377205
4 1 0 36.52 33.94 1.02 o 1.365778
-4 1 0 36.52 33.94 1.02 o 1.365778
0 1 4 20.97 20.18 2.85 o 1.356076
-2 5 0 12.66 11.99 1.73 o 1.356034
2 5 0 12.66 11.99 1.82 o 1.356034
0 5 2 0.09 0.08 0.02 o 1.353641
4 0 1 281.44 240.45 34.16 o 1.345362
-4 0 1 281.44 240.45 34.65 o 1.345362
1 0 4 268.62 290.40 38.26 o 1.336659
-1 0 4 268.62 290.40 35.96 o 1.336659
0 4 3 3.78 3.76 0.56 o 1.334531
-4 1 1 16.10 9.13 1.65 o 1.325644
4 1 1 16.10 9.13 1.66 o 1.325644
-3 3 2 100.71 80.66 4.61 o 1.320985
3 3 2 100.71 80.66 4.60 o 1.320985
2 3 3 228.03 203.52 9.26 o 1.318221
-2 3 3 228.03 203.52 9.25 o 1.318221
1 1 4 93.78 86.18 3.75 o 1.317316
-1 1 4 93.78 86.18 3.75 o 1.317316
-2 5 1 228.13 216.60 9.00 o 1.316728
2 5 1 228.13 216.60 9.00 o 1.316728
-1 5 2 111.98 112.20 4.08 o 1.315084
1 5 2 111.98 112.20 4.08 o 1.315084
4 2 0 7371.80 6246.81 131.51 o 1.306587
-4 2 0 7371.80 6246.80 132.42 o 1.306587
3 0 3 4123.14 3730.78 75.75 o 1.303207
-3 0 3 4123.14 3730.78 77.64 o 1.303207
-3 4 1 6339.70 5908.13 124.26 o 1.301765
3 4 1 6339.69 5908.13 118.15 o 1.301765
0 2 4 6632.19 6494.09 132.80 o 1.298084
-1 4 3 5101.13 5035.48 104.72 o 1.297540
1 4 3 5101.13 5035.48 101.21 o 1.297540
0 6 0 5144.35 5110.68 105.08 o 1.295238
-3 1 3 12.48 9.88 0.62 o 1.285261
3 1 3 12.48 9.88 0.61 o 1.285261
4 2 1 182.73 89.97 20.35 o 1.271317
-4 2 1 182.73 89.97 20.75 o 1.271317
-1 2 4 105.07 75.15 14.26 o 1.263966
1 2 4 105.07 75.15 15.64 o 1.263966
0 6 1 0.62 0.47 0.11 o 1.260856
-4 0 2 7212.59 6742.24 140.41 o 1.239068
4 0 2 7212.59 6742.24 143.06 o 1.239068
3 2 3 8830.98 7898.76 165.71 o 1.235569
-3 2 3 8830.98 7898.76 160.85 o 1.235569
2 0 4 7668.46 6971.71 145.14 o 1.233612
-2 0 4 7668.46 6971.71 141.86 o 1.233612
-1 6 1 8566.36 7938.92 162.89 o 1.229521
1 6 1 8566.36 7938.92 165.56 o 1.229521
-4 1 2 9.40 8.83 0.20 o 1.223613
4 1 2 9.40 8.83 0.20 o 1.223613
4 3 0 60.33 55.80 1.30 o 1.223015
-4 3 0 60.33 55.80 1.31 o 1.223015
-2 1 4 2.29 1.59 0.12 o 1.218358
2 1 4 2.29 1.59 0.12 o 1.218358
-2 5 2 42.60 26.77 4.31 o 1.216591
2 5 2 42.60 26.77 4.18 o 1.216591
0 3 4 2.19 1.24 0.24 o 1.216034
-3 4 2 61.03 24.89 11.23 < 1.204759
3 4 2 61.02 24.89 11.91 < 1.204759
-2 4 3 74.08 31.99 13.81 < 1.202661
2 4 3 74.08 31.99 13.34 < 1.202661
