#------------------------------------------------------------------------------
#$Date: 2017-05-04 03:48:19 +0300 (Thu, 04 May 2017) $
#$Revision: 195941 $
#$URL: file:///home/coder/svn-repositories/cod/cif/4/00/27/4002759.cif $
#------------------------------------------------------------------------------
#
# This file is available in the Crystallography Open Database (COD),
# http://www.crystallography.net/
#
# All data on this site have been placed in the public domain by the
# contributors.
#
data_4002759
loop_
_publ_author_name
'Ferreira, Timothy'
'Morrison, Gregory'
'Chance, W. Michael'
'Calder, Stuart'
'Smith, Mark D.'
'zur Loye, Hans-Conrad'
_publ_section_title
;
 BaFe4O7 and K0.22Ba0.89Fe4O7: Canted Antiferromagnetic Diferrites with
 Exceptionally High Magnetic Ordering Temperatures
;
_journal_issue                   7
_journal_name_full               'Chemistry of Materials'
_journal_page_first              2689
_journal_paper_doi               10.1021/acs.chemmater.7b00580
_journal_volume                  29
_journal_year                    2017
_chemical_formula_moiety         'Ba Fe4 O7'
_chemical_formula_sum            'Ba Fe4 O7'
_chemical_formula_weight         472.74
_chemical_name_systematic
; 
 ? 
;
_space_group_crystal_system      trigonal
_space_group_IT_number           163
_space_group_name_Hall           '-P 3 2c'
_space_group_name_H-M_alt        'P -3 1 c'
_symmetry_space_group_name_Hall  '-P 3 2c'
_symmetry_space_group_name_H-M   'P -3 1 c'
_audit_creation_method           SHELXL-2014
_cell_angle_alpha                90
_cell_angle_beta                 90
_cell_angle_gamma                120
_cell_formula_units_Z            2
_cell_length_a                   5.15030(10)
_cell_length_b                   5.15030(10)
_cell_length_c                   13.8069(6)
_cell_measurement_reflns_used    2919
_cell_measurement_temperature    296(2)
_cell_measurement_theta_max      32.606
_cell_measurement_theta_min      2.950
_cell_volume                     317.170(16)
_computing_cell_refinement       'SAINT-Plus Version 6.45 (Bruker, 2001)'
_computing_data_collection       'SMART Version 5.631 (Bruker, 2001)'
_computing_data_reduction        'SAINT-Plus Version 6.45 (Bruker, 2001)'
_computing_molecular_graphics    various
_computing_publication_material  various
_computing_structure_refinement  'SHELXL-2014 (Sheldrick, 2014)'
_computing_structure_solution    'SHELXS97 (Sheldrick, 2008)'
_diffrn_ambient_temperature      296(2)
_diffrn_measured_fraction_theta_full 1.000
_diffrn_measured_fraction_theta_max 1.000
_diffrn_measurement_device_type  'Bruker SMART APEX CCD diffractometer'
_diffrn_measurement_method       'omega and phi scans'
_diffrn_radiation_type           MoK\a
_diffrn_radiation_wavelength     0.71073
_diffrn_reflns_av_R_equivalents  0.0371
_diffrn_reflns_av_unetI/netI     0.0141
_diffrn_reflns_Laue_measured_fraction_full 1.000
_diffrn_reflns_Laue_measured_fraction_max 1.000
_diffrn_reflns_limit_h_max       7
_diffrn_reflns_limit_h_min       -7
_diffrn_reflns_limit_k_max       7
_diffrn_reflns_limit_k_min       -7
_diffrn_reflns_limit_l_max       20
_diffrn_reflns_limit_l_min       -20
_diffrn_reflns_number            6615
_diffrn_reflns_point_group_measured_fraction_full 1.000
_diffrn_reflns_point_group_measured_fraction_max 1.000
_diffrn_reflns_theta_full        25.242
_diffrn_reflns_theta_max         32.606
_diffrn_reflns_theta_min         1.475
_diffrn_source                   'sealed tube'
_exptl_absorpt_coefficient_mu    15.031
_exptl_absorpt_correction_T_max  1.0000
_exptl_absorpt_correction_T_min  0.7534
_exptl_absorpt_correction_type   multi-scan
_exptl_absorpt_process_details   'SADABS Version 2.05 (Bruker, 2001)'
_exptl_crystal_colour            orange
_exptl_crystal_density_diffrn    4.950
_exptl_crystal_description       'hexagonal plate'
_exptl_crystal_F_000             432
_exptl_crystal_size_max          0.060
_exptl_crystal_size_mid          0.050
_exptl_crystal_size_min          0.040
_refine_diff_density_max         0.677
_refine_diff_density_min         -0.812
_refine_diff_density_rms         0.155
_refine_ls_extinction_method     none
_refine_ls_goodness_of_fit_ref   1.133
_refine_ls_hydrogen_treatment    undef
_refine_ls_matrix_type           full
_refine_ls_number_parameters     21
_refine_ls_number_reflns         399
_refine_ls_number_restraints     0
_refine_ls_restrained_S_all      1.133
_refine_ls_R_factor_all          0.0250
_refine_ls_R_factor_gt           0.0189
_refine_ls_shift/su_max          0.000
_refine_ls_shift/su_mean         0.000
_refine_ls_structure_factor_coef Fsqd
_refine_ls_weighting_details
'w=1/[\s^2^(Fo^2^)+(0.0260P)^2^+0.0817P] where P=(Fo^2^+2Fc^2^)/3'
_refine_ls_weighting_scheme      calc
_refine_ls_wR_factor_gt          0.0450
_refine_ls_wR_factor_ref         0.0480
_reflns_number_gt                344
_reflns_number_total             399
_reflns_threshold_expression     'I > 2\s(I)'
_cod_data_source_file            cm7b00580_si_002.cif
_cod_data_source_block           wmc2204c
_cod_original_cell_volume        317.170(18)
_cod_database_code               4002759
_shelx_space_group_comment
; 
The symmetry employed for this shelxl refinement is uniquely defined 
by the following loop, which should always be used as a source of 
symmetry information in preference to the above space-group names. 
They are only intended as comments. 
;
_shelx_estimated_absorpt_t_min   0.466
_shelx_estimated_absorpt_t_max   0.585
_shelxl_version_number           2014-1
_shelx_res_file
; 
TITL WMC2204C in P-31c 
CELL 0.71073   5.1503   5.1503  13.8069  90.000  90.000 120.000 
ZERR    2.00   0.0001   0.0001   0.0006   0.000   0.000   0.000 
LATT  1 
SYMM -Y, X-Y, Z 
SYMM -X+Y, -X, Z 
SYMM -Y, -X, 0.5-Z 
SYMM -X+Y, Y, 0.5-Z 
SYMM X, X-Y, 0.5-Z 
SFAC O FE BA 
UNIT 14 8 2 
LIST 4 
TEMP 23 
  
L.S. 7 
BOND 
ACTA 
TWIN 0 1 0 1 0 0 0 0 -1 
SIZE 0.06         0.05         0.04 
REM orange-red hexagonal plates 
REM 2919 refl / 2th = 5.901 - 65.213 
REM sadabs 0.753432 
FMAP 2 
PLAN 5 
WGHT    0.026000    0.081700 
BASF   0.15674 
FVAR       0.43511 
BA1   3    0.666667    0.333333    0.250000    10.16667    0.01154    0.01154 = 
         0.00857    0.00000    0.00000    0.00577 
FE1   2    0.000000    0.000000    0.115926    10.33333    0.00685    0.00685 = 
         0.00588    0.00000    0.00000    0.00342 
FE2   2    0.333333    0.666667    0.008713    10.33333    0.00634    0.00634 = 
         0.00820    0.00000    0.00000    0.00317 
O1    1    0.000000    0.000000    0.250000    10.16667    0.01944    0.01944 = 
         0.00498    0.00000    0.00000    0.00972 
O2    1    0.355635    0.009058    0.081835    11.00000    0.00733    0.00650 = 
         0.01041    0.00046    0.00155    0.00291 
HKLF 4 
  
REM  WMC2204C in P-31c 
REM R1 =  0.0189 for     344 Fo > 4sig(Fo)  and  0.0250 for all     399 data 
REM     21 parameters refined using      0 restraints 
  
END 
  
WGHT      0.0260      0.0817 
  
REM Highest difference peak  0.677,  deepest hole -0.812,  1-sigma level  0.155 
Q1    1   0.5848  0.1995  0.2809  11.00000  0.05    0.68 
Q2    1   0.4305  0.0408  0.0342  11.00000  0.05    0.44 
Q3    1   0.2326 -0.1341  0.0597  11.00000  0.05    0.42 
Q4    1   0.2931 -0.1661  0.0604  11.00000  0.05    0.41 
Q5    1   0.3637  0.1686  0.0505  11.00000  0.05    0.39 
;
_shelx_res_checksum              52854
_shelx_hkl_file
; 
   0  -1   0    8.99    2.99 
  -1   0   0    5.04    2.41 
   1   0   0    5.21    2.90 
  -1   1   0    8.30    2.48 
   1  -1   0    7.11    2.53 
   0  -1   0    7.60    2.78 
   1   0   0    7.44    1.66 
   0   1   0    8.90    2.21 
   1  -1   0    3.83    2.69 
  -1   0   0    8.53    2.23 
  -1   1   0    5.71    2.32 
  -1   2   0 8968.88   95.53 
  -1  -1   0 8928.37  105.47 
  -2   1   0 9084.29  107.26 
  -1  -1   0 8938.32  102.32 
  -2   1   0 8904.43   96.89 
   2  -1   0 8832.86   98.68 
   1  -2   0 8813.78  111.98 
   2  -1   0 8828.71  114.44 
  -1  -1   0 8717.84  112.60 
   2  -2   0   40.38    7.45 
  -2   0   0   44.29    4.49 
  -2   2   0   47.05    6.48 
  -2   0   0   47.61    6.55 
  -2   2   0   37.24    5.13 
   2  -2   0   42.74    5.62 
   2   0   0   47.75    7.49 
   0  -2   0   34.21    6.91 
   0  -2   0   40.60    7.13 
   2   0   0   43.53    3.89 
   0   2   0   52.56    5.17 
  -2   0   0   45.88    7.43 
  -2   0   0   42.49    6.19 
   3  -1   0    5.70    3.16 
  -3   1   0    7.37    2.69 
  -2  -1   0    7.19    4.71 
  -1  -2   0   -0.47    3.17 
   3  -1   0    4.43    4.12 
  -3   2   0    6.08    3.80 
  -2  -1   0    6.13    4.26 
  -2   3   0    7.95    3.13 
  -1  -2   0    0.44    2.42 
   3  -2   0    7.58    4.28 
  -1  -2   0    3.58    3.62 
  -3   2   0    1.78    3.72 
  -3   1   0    3.25    3.53 
  -2  -1   0    4.13    3.86 
  -2   3   0   10.73    4.98 
   3  -2   0    6.54    3.42 
   2  -3   0    5.99    4.14 
  -3   1   0    5.01    3.92 
  -3   2   0    1.44    4.02 
  -2  -1   0    7.08    3.71 
  -1  -2   0    8.08    3.59 
  -1   3   0   11.80    3.34 
  -3   2   0    6.41    3.19 
  -2   3   0    3.78    3.43 
   1  -3   0    1.31    3.37 
  -2  -1   0    3.37    3.39 
  -3   3   0 9996.76  124.91 
   3  -3   0 9678.38  143.14 
   0  -3   0 9697.74  137.08 
  -3   0   0 9827.99  134.70 
   3   0   0 9707.94  106.83 
  -3   0   0 9745.11  134.36 
  -3   3   0 9848.52  124.20 
  -3   0   0 9940.40  114.16 
   0   3   0 9952.25  115.43 
  -3   0   0 9770.94  137.87 
  -3   3   0 9752.43  118.27 
   0  -3   0 9798.45  139.25 
  -3   3   0 9888.68  132.76 
   3   0   0 9614.58  140.00 
  -4   2   0 4489.49   84.85 
  -2  -2   0 4592.11   80.57 
   2  -4   0 4598.48   89.80 
   4  -2   0 4611.07   77.83 
  -2  -2   0 4607.97   81.54 
  -2   4   0 4790.67   65.86 
  -2  -2   0 4625.34   88.41 
  -4   2   0 4568.19   85.99 
  -2   4   0 4654.48   87.80 
  -4   2   0 4595.95   89.69 
  -2  -2   0 4695.58   82.72 
   4  -2   0 4666.95   94.21 
  -1  -3   0    8.59    4.32 
   3  -4   0    1.10    4.38 
  -1  -3   0    3.38    4.95 
   4  -1   0    9.07    3.52 
  -4   3   0    6.63    4.46 
  -1  -3   0    3.94    4.59 
  -3   4   0    2.83    3.66 
   1   3   0    5.50    3.98 
  -3  -1   0    4.97    4.05 
  -4   1   0    1.04    3.10 
  -4   3   0    3.48    4.30 
   4  -3   0    6.40    5.24 
   4  -1   0    5.90    5.28 
   3   1   0    2.85    1.81 
   4  -3   0    6.57    3.99 
  -4   3   0   -1.03    4.81 
  -3  -1   0    4.32    4.35 
   3   1   0   12.96    7.15 
  -1   4   0    6.97    5.07 
  -4   1   0    0.75    3.96 
  -4   1   0    4.92    5.59 
  -3   4   0    8.50    4.94 
  -3  -1   0    4.28    4.83 
  -3  -1   0   -1.75    3.74 
  -4   3   0   11.65    6.03 
  -3   4   0    8.29    5.13 
   1  -4   0    8.95    5.31 
   4   0   0    4.83    3.26 
  -4   0   0    5.94    5.30 
   0  -4   0   12.02    5.28 
  -4   4   0    6.63    5.37 
   4   0   0   15.46    6.54 
  -4   0   0    3.74    5.19 
  -4   4   0   -0.13    4.53 
   0  -4   0    4.84    5.28 
   4  -4   0    1.51    3.74 
  -4   0   0    9.40    6.00 
   2   3   0    0.46    4.19 
  -3  -2   0   16.97    7.03 
  -3  -2   0    1.38    4.67 
   5  -2   0    4.40    3.98 
  -3   5   0   15.86    7.05 
  -5   3   0    4.68    6.97 
  -3  -2   0    7.02    5.63 
   2  -5   0    3.70    5.54 
  -5   3   0    1.54    7.06 
  -5   2   0    7.12    7.08 
  -2  -3   0   -4.48    4.59 
   5  -2   0    4.10    5.53 
  -5   2   0   20.38    7.71 
  -5   3   0    7.83    5.34 
  -2  -3   0    8.49    5.79 
  -3   5   0    4.68    6.04 
  -5   2   0   11.14    6.91 
  -2   5   0   15.81    6.66 
  -2  -3   0    3.15    4.43 
   5  -3   0    7.09    4.92 
   5  -3   0    3.98    6.08 
   3  -5   0   12.55    7.44 
   1  -5   0 2626.86   73.40 
   4   1   0 2685.32   73.83 
  -4  -1   0 2747.54   71.96 
  -4  -1   0 2692.22   73.05 
  -5   4   0 2628.67   72.88 
  -1   5   0 2749.87   76.98 
  -5   1   0 2708.63   74.85 
  -5   4   0 2778.23   68.10 
   5  -1   0 2755.03   77.55 
   5  -4   0 2833.54   81.83 
   4   1   0 2740.14   43.94 
  -5   4   0 2757.52   64.10 
  -4  -1   0 2644.13   72.70 
  -4   5   0 2780.47   69.22 
  -5   1   0 2674.20   74.44 
   4  -5   0 2734.70   79.28 
  -1  -4   0 2761.83   73.90 
  -5   1   0 2832.82   75.13 
   5  -1   0 2745.94   59.21 
  -1  -4   0 2779.08   75.94 
  -4   5   0 2688.26   68.86 
  -5   5   0   18.74    8.61 
  -5   0   0    5.64    5.74 
   0   5   0    3.27    5.39 
   5   0   0   13.09    5.38 
  -5   0   0   13.22    7.97 
   5  -5   0   23.37   11.08 
   5   0   0    9.68    6.80 
  -5   0   0   22.99    8.65 
   0  -5   0   15.42    8.51 
  -6   3   0 3117.86   84.01 
  -6   3   0 3048.21   86.86 
  -3   6   0 3075.22   85.51 
  -3  -3   0 3134.19   76.66 
   3  -6   0 3130.06   88.45 
  -3  -3   0 3159.23   78.59 
  -3  -3   0 3127.63   76.43 
  -3  -3   0 3166.34   85.07 
   6  -3   0 3011.52   91.67 
  -6   3   0 3038.84   83.62 
  -6   2   0    3.61    5.02 
  -4  -2   0    0.44    5.15 
  -6   4   0    1.40    6.42 
   4   2   0    1.11    2.11 
  -6   2   0   -7.65    4.48 
  -2   6   0    4.63    5.96 
  -2  -4   0    0.98    7.25 
  -4   6   0   12.41    6.86 
  -6   2   0   -1.08    6.33 
   2  -6   0    1.15    6.34 
  -4  -2   0    4.62    6.56 
   6  -4   0    6.47    6.93 
   6  -2   0   -2.53    6.52 
  -4   6   0    6.26    6.15 
   6  -2   0    7.15    5.21 
  -6   4   0   -1.82    4.67 
   2   4   0   -2.18    4.78 
  -6   4   0   12.29    8.80 
   4  -6   0    6.04    6.71 
   4   2   0    3.99    5.70 
  -1  -5   0   -9.22    6.63 
  -5  -1   0   -1.61    4.92 
  -5  -1   0    2.80    6.49 
   5   1   0   -2.39    5.22 
   6  -5   0    2.35    5.99 
   6  -1   0    0.26    4.73 
   6  -1   0    0.76    6.05 
  -6   1   0   -3.43    5.72 
  -1   6   0   -5.21    6.19 
  -6   1   0   -5.72    5.94 
   5   1   0   -1.05    2.99 
  -6   5   0    3.61    6.38 
   5  -6   0   -7.19    5.53 
  -6   1   0    0.13    5.81 
   1   5   0   -2.65    4.54 
   1  -6   0   -9.33    5.29 
  -5   6   0   15.44    8.23 
   6   0   0 2103.04   52.67 
  -6   0   0 2185.88   77.50 
  -6   6   0 2054.22   72.43 
  -6   0   0 2005.08   75.24 
  -6   0   0 2045.18   75.32 
   0   6   0 2125.92   78.06 
   6   0   0 2123.40   74.54 
   6  -6   0 1984.43   80.73 
   7  -4   0    0.87    8.73 
   4  -7   0    7.37    8.41 
  -4   7   0   11.34    8.73 
  -7   3   0   -3.60    6.78 
  -4  -3   0   18.91    9.31 
   7  -3   0    6.86    8.28 
  -7   4   0   -1.61    7.74 
   3  -7   0    5.30    9.01 
  -7   3   0    8.26    7.90 
  -7   4   0   10.10    6.88 
  -7   3   0    3.27    5.76 
  -3   7   0   -3.12    7.86 
  -7   4   0    1.14    7.15 
  -5  -2   0 1287.86   57.75 
  -7   2   0 1143.88   57.60 
  -5  -2   0 1236.47   57.14 
   5  -7   0 1250.16   63.22 
  -7   5   0 1123.08   57.99 
   2  -7   0 1383.52   62.37 
  -2   7   0 1163.45   60.50 
   7  -2   0 1312.90   61.71 
   7  -5   0 1257.14   65.33 
  -7   2   0 1299.58   59.57 
  -7   1   0   21.87   10.46 
  -6  -1   0   25.84   13.65 
  -7   6   0    1.47    8.88 
   7  -1   0   -1.84    7.38 
  -6  -1   0    3.90    9.17 
  -7   1   0   -4.42    6.88 
   1   6   0    8.96    8.01 
   0   0  -1    0.11    0.79 
   0   0   1    0.22    0.75 
   0   0   1    0.48    0.62 
   0   1   1 1381.50   18.90 
   1  -1  -1 1338.73   23.24 
   1  -1  -1 1352.45   21.34 
  -1   0  -1 1375.57   23.86 
   0  -1   1 1366.49   26.97 
   1   0   1 1367.67   18.73 
  -1   0   1 1335.09   25.10 
   0   1  -1 1365.71   26.22 
   0  -1  -1 1345.16   25.97 
  -1   1  -1 1349.71   21.52 
   0   1   1 1432.11   23.48 
   0  -1  -1 1354.70   23.11 
   1   0   1 1385.30   24.91 
  -1   0   1 1368.59   19.26 
   1  -1   1 1356.26   26.81 
  -1   1  -1 1371.53   24.44 
   0  -1   1 1384.41   18.46 
   1  -1  -1 1327.92   26.18 
  -1   1   1 1342.10   24.16 
  -1   2  -1   -2.23    2.27 
  -1  -1  -1    1.56    2.72 
   2  -1  -1   -0.07    2.92 
   2  -1  -1   -0.32    1.91 
  -2   1   1   -0.90    2.29 
   1  -2   1    0.65    2.55 
  -1   2  -1    6.78    2.12 
  -1  -1  -1   -3.22    1.54 
  -1  -1  -1    0.22    2.51 
   2  -1   1   -0.86    1.68 
  -2   1  -1   -2.39    2.07 
  -1  -1   1    0.96    2.58 
   1  -2  -1   -0.07    2.52 
  -2   1  -1    1.40    2.59 
   2  -1   1    1.07    2.90 
  -1  -1   1    0.67    2.25 
   1  -2  -1   -1.67    2.45 
  -1  -1   1    3.33    3.18 
  -1   2   1   -2.99    1.79 
   0   2  -1  861.72   17.75 
   2   0   1  817.09   25.35 
  -2   0  -1  798.20   20.83 
  -2   0  -1  815.36   24.99 
  -2   2   1  827.05   23.16 
  -2   2   1  822.48   25.29 
   2   0  -1  779.98   27.17 
   0   2   1  856.82   21.78 
  -2   0   1  856.57   17.74 
   2   0   1  812.11   16.60 
  -2   0  -1  834.87   25.53 
  -2   2  -1  869.51   23.67 
   0  -2   1  807.57   25.41 
  -2   0   1  807.81   24.67 
   0  -2   1  856.56   26.60 
   0  -2  -1  831.18   23.98 
  -2   0  -1  812.26   25.24 
  -2   2  -1  838.80   21.33 
   0   2   1  810.60   16.76 
  -2   0   1  814.85   25.20 
   2   0  -1  801.73   17.03 
   0  -2  -1  824.87   26.25 
  -2   0   1  845.33   26.01 
   2  -2  -1  823.95   26.59 
  -2   2   1  848.22   20.99 
   2  -2  -1  809.92   23.44 
   2  -3   1  655.61   27.28 
  -2  -1  -1  639.22   22.76 
  -3   1   1  680.77   26.89 
  -2   3  -1  662.60   25.52 
  -2  -1  -1  686.69   25.34 
  -3   2   1  703.08   24.76 
  -3   2   1  652.86   24.98 
   3  -1  -1  655.62   20.68 
  -3   2   1  695.34   26.97 
  -1  -2  -1  707.89   21.73 
  -1  -2  -1  613.62   24.20 
  -3   1   1  649.94   25.73 
  -1  -2  -1  636.06   25.20 
   1  -3   1  680.43   27.44 
  -2  -1  -1  661.37   24.99 
   3  -2  -1  678.68   28.97 
  -2   3  -1  708.36   23.51 
  -1   3  -1  684.66   14.95 
  -2  -1  -1  691.64   25.77 
  -2   3  -1  703.75   18.80 
   3  -1  -1  700.51   29.44 
  -1   3  -1  669.32   27.10 
  -2  -1  -1  703.65   25.44 
  -3   1   1  602.09   25.63 
   3  -2  -1  626.29   22.49 
  -4   2   1   -0.26    3.78 
  -2  -2  -1   -2.22    3.09 
   4  -2  -1    2.09    4.51 
   2  -4   1   -2.24    3.86 
  -2  -2  -1    1.38    4.16 
  -2  -2  -1    1.08    3.64 
  -4   2   1   11.27    6.47 
   4  -2  -1   -0.69    3.15 
  -2   4  -1    4.93    4.04 
  -2   4  -1    3.05    4.25 
  -4   2   1    0.33    4.68 
  -2  -2  -1   -0.75    3.21 
  -1  -2   1  528.48   24.51 
  -2  -1   1  579.93   23.68 
   3  -2   1  575.38   21.80 
   2  -3  -1  547.74   23.87 
  -3   2  -1  564.72   21.76 
  -3   2  -1  558.42   24.03 
  -2   3   1  575.08   22.67 
  -3   2  -1  551.26   22.25 
  -3   2  -1  584.87   19.29 
  -1   3   1  595.51   18.41 
  -3   1  -1  589.16   25.34 
  -1  -2   1  576.95   23.77 
  -2   3   1  572.89   23.57 
  -3   1  -1  620.09   24.95 
   3  -1   1  576.48   19.78 
  -3   1  -1  584.97   17.38 
  -2  -1   1  582.61   22.79 
  -2  -1   1  591.99   22.28 
   3  -2   1  528.68   24.74 
  -3   1  -1  584.78   24.15 
   3  -1   1  614.15   25.84 
  -2  -1   1  639.00   21.33 
   1  -3  -1  586.04   24.77 
  -1  -2   1  575.13   19.76 
   1  -3  -1  602.19   24.14 
  -2  -1   1  585.36   26.41 
  -2   3   1  556.36   19.31 
  -1  -2   1  558.59   20.20 
  -3   0   1   -0.80    2.16 
   0   3  -1    4.20    2.59 
  -3   3   1    1.13    3.23 
   0  -3  -1   -0.96    2.81 
   0   3  -1    1.80    3.75 
  -3   0   1    2.38    4.17 
  -3   0   1    0.29    3.35 
  -3   0  -1    3.35    3.14 
   0  -3   1   -1.44    3.41 
  -3   0  -1   -1.74    2.99 
  -3   3   1    1.56    3.11 
   3  -3  -1    6.80    3.36 
   0  -3  -1    3.22    3.40 
  -3   0  -1    1.39    2.58 
   3  -3   1   -2.59    3.51 
   3  -3   1    4.23    3.28 
  -3   3  -1    0.92    2.94 
  -3   3  -1    3.94    3.18 
  -3   3   1   -0.15    2.54 
   3   0   1    1.94    2.42 
   0   3   1   -1.06    2.62 
  -3   0   1   -2.96    2.67 
   3  -3  -1   -2.88    2.34 
  -3   3  -1   -3.45    2.41 
  -3   0  -1    0.51    3.73 
   3   0   1   -3.61    2.36 
   3   0  -1    5.39    2.69 
  -3   3   1    7.10    4.65 
   0   3   1    3.25    3.15 
   3   0  -1    2.12    3.94 
  -4   1   1  416.68   25.12 
   3   1   1  413.85   23.42 
  -1  -3  -1  427.55   18.25 
   3   1   1  425.97   11.70 
   1   3   1  408.44   12.52 
   4  -1  -1  425.08   26.62 
  -3  -1  -1  390.97   23.35 
  -3  -1  -1  451.39   20.94 
   4  -3  -1  438.64   27.07 
  -4   1   1  404.97   24.61 
  -3  -1  -1  418.95   24.03 
  -1  -3  -1  404.90   23.10 
   4  -3  -1  405.21   21.46 
  -1  -3  -1  387.33   23.52 
   4  -1  -1  408.36   18.80 
  -4   1   1  423.39   24.50 
   3  -4   1  389.81   25.38 
  -3   4  -1  411.80   21.83 
   1   3   1  404.17   19.89 
  -1   4  -1  420.52   25.53 
  -3   4  -1  427.78   18.07 
  -4   3   1  451.68   21.89 
  -4   3   1  412.82   22.63 
  -4   3   1  395.77   23.90 
   1  -4   1  418.52   24.75 
  -3   4  -1  429.91   23.55 
  -3  -1  -1  437.58   24.14 
  -5   3   1  273.43   23.45 
  -2   5  -1  259.88   22.05 
   3  -5   1  273.57   23.18 
  -5   2   1  172.77   18.20 
   2   3   1  220.99   17.11 
  -3   5  -1  267.57   21.59 
   5  -3  -1  256.54   18.81 
  -3  -2  -1  253.59   19.80 
   3   2   1  254.41   21.26 
  -3  -2  -1  256.02   20.43 
  -3   5  -1  280.98   19.34 
  -3  -2  -1  232.99   18.03 
   2  -5   1  244.92   21.40 
  -2  -3  -1  255.20   20.53 
   5  -3  -1  262.38   24.01 
   5  -2  -1  231.02   17.66 
  -5   2   1  260.88   21.29 
  -2  -3  -1  229.91   17.02 
   5  -2  -1  246.24   23.03 
  -2  -3  -1  272.38   21.07 
  -5   3   1  233.12   20.02 
  -5   2   1  275.98   22.43 
  -5   3   1  222.20   19.05 
   3   3   1    2.58    4.61 
  -3  -3  -1    0.81    6.12 
  -6   3   1   -5.98    3.39 
   6  -3  -1    5.24    6.30 
  -6   3   1    8.45    7.66 
   6  -3  -1   -0.83    5.42 
  -3   6  -1    3.73    6.68 
  -6   3   1   -0.36    5.24 
   3  -6   1   16.28    9.45 
  -3  -3  -1   -2.20    5.61 
  -2   4   1   -2.49    3.24 
  -4   2  -1   -4.72    3.34 
  -4   2  -1   -1.75    4.78 
   2  -4  -1   -0.39    3.72 
  -2  -2   1   -1.81    3.44 
  -4   2  -1   -3.80    3.98 
   4  -2   1    0.31    3.17 
  -2   4   1    1.36    2.82 
  -2  -2   1    3.65    4.50 
  -2  -2   1    6.54    4.18 
  -4   2  -1    5.92    3.80 
   4  -2   1    2.20    4.62 
  -2  -2   1    0.80    3.64 
  -1  -3   1  471.25   25.46 
   4  -1   1  495.04   27.54 
  -4   1  -1  418.70   24.21 
   4  -3   1  406.23   25.47 
  -4   1  -1  404.50   24.03 
  -3  -1   1  455.90   20.43 
  -3   4   1  418.91   22.44 
  -3  -1   1  479.92   25.65 
  -1  -3   1  499.22   20.76 
  -3  -1   1  460.75   24.32 
  -3  -1   1  464.80   24.53 
  -4   1  -1  473.27   25.97 
   3  -4  -1  455.31   25.88 
  -4   3  -1  437.60   22.26 
   1  -4  -1  454.56   24.63 
   3   1  -1  479.29   27.45 
   1  -4  -1  430.00   25.41 
  -3   4   1  476.46   20.73 
  -1  -3   1  432.40   25.55 
  -3   4   1  402.42   22.94 
  -1   4   1  474.17   18.37 
   3   1  -1  458.54   12.55 
  -4   3  -1  468.25   25.89 
  -4   3  -1  470.75   19.99 
  -4   3  -1  445.97   23.27 
   4  -1   1  431.43   19.27 
   1   3  -1  472.06   19.75 
  -4   0  -1  355.44   23.81 
  -4   4  -1  391.26   22.15 
  -4   4   1  384.07   19.80 
   4   0   1  375.88   16.79 
   4  -4  -1  370.35   25.86 
  -4   0  -1  364.37   24.39 
   4   0   1  352.55   24.45 
   4  -4   1  352.13   25.57 
  -4   4  -1  389.74   23.80 
   0  -4  -1  380.83   25.76 
   4   0  -1  329.74   24.42 
  -4   0   1  394.97   24.18 
  -4   4  -1  360.68   20.09 
  -4   0   1  398.08   25.58 
  -4   0  -1  373.30   24.45 
  -4   4   1  366.52   23.55 
  -4   0   1  358.17   23.90 
  -4   4   1  343.96   20.59 
   0  -4  -1  359.23   23.65 
   0   4  -1  355.23   24.34 
   4   0  -1  376.91   16.32 
   0  -4   1  353.00   24.32 
  -1  -4  -1    1.56    5.54 
   4   1   1    0.37    2.58 
   1  -5   1    3.89    6.03 
   5  -4  -1    8.57    6.39 
  -4  -1  -1   -0.19    4.97 
  -5   4   1   -1.27    3.58 
  -5   1   1   13.12    6.67 
   5  -1  -1    4.51    5.19 
  -4   5  -1    2.30    5.52 
   5  -1  -1    1.42    3.06 
  -5   1   1    0.14    5.73 
   4   1   1   -0.58    4.00 
  -1  -4  -1    1.97    6.20 
  -4   5  -1    7.47    5.42 
  -5   4   1    1.44    5.29 
   4  -5   1   -0.75    4.79 
  -4  -1  -1    1.23    5.16 
  -5   1   1   12.08    6.90 
  -4  -1  -1   -1.49    4.79 
  -1   5  -1    1.17    5.21 
  -6   2   1  236.87   23.28 
  -2   6  -1  179.67   21.33 
   4  -6   1  251.50   25.81 
  -6   4   1  215.63   21.29 
  -6   4   1  216.87   20.92 
   6  -2  -1  237.87   19.04 
  -6   4   1  226.99   23.70 
  -4  -2  -1  212.82   21.17 
   6  -4  -1  215.70   23.92 
   2  -6   1  205.01   22.43 
  -2  -4  -1  220.73   21.82 
   6  -2  -1  182.71   21.71 
  -6   2   1  205.36   21.97 
  -4   6  -1  218.75   21.94 
  -6   2   1  147.71   19.48 
  -4  -2  -1  220.99   21.55 
  -4  -3  -1  210.02   22.88 
   7  -4  -1  171.41   22.87 
  -7   3   1  131.39   19.60 
  -7   3   1  131.12   18.84 
  -7   4   1  153.29   21.58 
  -4   7  -1  162.27   21.59 
  -3   7  -1  171.57   23.30 
   4  -7   1  146.54   22.11 
   7  -3  -1  156.91   22.56 
  -7   4   1  133.75   19.59 
  -7   4   1  159.50   19.83 
  -7   3   1   98.31   20.90 
   3  -7   1  164.39   22.91 
   3   4   1  163.81   19.53 
  -2  -3   1  354.68   25.51 
  -5   2  -1  318.89   24.18 
  -2   5   1  274.10   22.46 
   5  -3   1  301.99   24.82 
  -5   3  -1  308.55   24.40 
   3  -5  -1  316.43   24.36 
  -2  -3   1  322.22   20.04 
  -3  -2   1  300.30   21.71 
  -3  -2   1  301.09   22.11 
   5  -2   1  312.21   25.07 
  -3   5   1  293.27   21.06 
  -5   2  -1  285.09   22.21 
  -3  -2   1  294.81   23.52 
  -5   2  -1  307.25   24.24 
  -5   3  -1  337.25   23.76 
  -2  -3   1  254.27   18.86 
  -3   5   1  249.42   19.99 
   2  -5  -1  274.90   22.71 
   5  -2   1  282.83   19.19 
  -3  -2   1  314.07   20.52 
  -5   3  -1  270.33   21.07 
  -1   5   1    6.34    6.90 
   4   1  -1    2.45    2.65 
   1  -5  -1   -4.32    4.52 
  -5   1  -1    4.45    5.18 
  -5   4  -1   -5.33    5.56 
   4  -5  -1   15.96    7.39 
  -5   4  -1    4.87    4.11 
  -5   1  -1    0.95    4.21 
   4   1  -1   -1.41    4.67 
  -4  -1   1    4.51    5.40 
  -5   1  -1   -2.86    5.51 
   1   4  -1   -5.45    2.92 
   5  -1   1    5.31    3.70 
   5  -4   1   -3.23    4.76 
   5  -4   1  -10.43    2.83 
   5  -1   1   -0.24    3.87 
  -4   5   1    0.44    5.75 
  -4  -1   1    3.32    5.95 
  -4  -1   1   -1.07    4.73 
  -4   5   1   -5.20    4.60 
  -1  -4   1   -8.90    3.78 
   5  -5   1  141.98   18.83 
   5   0   1  204.43   14.25 
   0   5  -1  173.46   20.33 
  -5   0  -1  203.76   21.16 
   5   0  -1  213.98   14.45 
  -5   0   1  226.62   21.92 
   0  -5   1  196.95   21.19 
   5   0  -1  186.02   21.23 
  -5   0  -1  180.96   19.73 
   0   5   1  210.94   22.30 
  -5   5  -1  208.51   20.69 
  -5   0  -1  203.37   21.09 
   0  -5  -1  194.63   20.81 
   5   0   1  192.54   20.02 
  -5   0   1  220.57   22.10 
  -5   0   1  167.51   19.16 
   5  -5  -1  229.03   24.14 
  -5   5   1  212.01   20.81 
  -6   5   1  169.97   18.34 
   6  -1  -1  164.73   15.19 
   6  -1  -1  162.24   20.80 
   1   5   1  161.47   19.80 
   6  -5  -1  127.30   19.36 
  -6   1   1  193.11   22.32 
   1  -6   1  167.39   21.50 
  -5   6  -1  196.08   21.54 
  -6   1   1  153.72   20.06 
  -1   6  -1  149.58   20.13 
  -5  -1  -1  176.22   21.03 
  -6   1   1  164.97   20.77 
  -5  -1  -1  170.01   20.65 
   5  -6   1  152.69   21.70 
  -6   5   1  174.85   20.90 
  -7   2   1   15.28    8.60 
   2   5   1    3.37    6.26 
   7  -5  -1   -1.24    7.53 
  -5  -2  -1    4.51    8.68 
  -5  -2  -1    6.30    7.93 
  -7   5   1    4.54    7.52 
   7  -2  -1   -1.26    4.87 
  -7   2   1    8.50    9.46 
   5  -7   1  -13.44    7.11 
  -7   2   1    7.19    6.17 
  -2   7  -1   -0.94    8.21 
   7  -2  -1    5.89    9.58 
   2  -7   1   25.70   12.39 
  -7   5   1   -4.93    5.49 
  -3   6   1   -1.20    5.35 
  -6   3  -1  -10.63    5.52 
  -3  -3   1    9.49    6.87 
  -3  -3   1    4.65    6.05 
  -6   3  -1   -2.39    5.53 
   3   3  -1    1.99    4.12 
   6  -3   1    6.78    7.83 
  -3  -3   1   -3.94    5.44 
  -3   6   1   -3.58    5.72 
   3  -6  -1    6.70    6.48 
  -6   3  -1   -0.34    4.51 
   4   2  -1  156.62   19.01 
   4  -6  -1  152.84   20.06 
  -6   4  -1  180.61   19.64 
  -4  -2   1  178.61   20.04 
   2   4  -1  167.68   18.06 
  -6   4  -1  182.53   21.56 
  -2   6   1  122.07   17.85 
   6  -2   1  191.42   21.45 
  -4   6   1  172.98   19.66 
  -2  -4   1  190.55   21.31 
   6  -4   1  159.81   21.65 
  -6   2  -1  156.62   19.14 
  -4  -2   1  183.87   19.77 
  -6   4  -1  173.18   18.45 
  -6   2  -1  146.15   19.27 
   4   2  -1  150.28    8.09 
  -6   2  -1  169.90   19.85 
   2  -6  -1  155.70   19.21 
  -4   6   1  167.11   18.62 
  -1   6   1  109.10   21.30 
  -6   1  -1   97.02   18.00 
   5  -6  -1  118.63   18.80 
  -6   1  -1  137.60   19.57 
  -5   6   1  184.85   19.66 
  -5  -1   1  123.71   18.04 
   5   1  -1  122.32    9.85 
   6  -5   1  104.88   21.00 
  -1  -5   1  150.13   20.57 
   6  -1   1  141.31   19.09 
  -5  -1   1  139.15   18.45 
  -6   1  -1  135.56   19.57 
  -5  -1   1  104.57   19.47 
   1   5  -1  128.07   18.09 
   5   1  -1  152.26   19.71 
  -6   5  -1  140.60   19.43 
   1  -6  -1  130.43   18.26 
  -6   0  -1   10.69    9.74 
  -6   0   1    2.79    6.80 
   6   0  -1   12.60    8.18 
  -6   0   1   -1.34    6.84 
  -6   0   1    9.31    8.82 
  -6   0  -1   -8.16    5.65 
  -6   6  -1    0.92    8.21 
  -6   0  -1  -10.93    5.25 
  -6   6   1   -1.02    6.99 
   6   0  -1   -0.93    3.68 
   0   6  -1    4.28    7.50 
   0   6   1   -8.18    5.22 
   6  -6   1   18.72    9.88 
   0  -6   1   14.65    9.58 
   6  -6  -1   -3.28    8.09 
   1   6   1   67.24   16.87 
  -7   6   1  112.96   23.04 
  -7   1   1   90.34   19.44 
  -7   1   1   92.96   20.85 
   7  -1  -1  104.60   21.49 
  -6  -1  -1  123.70   23.86 
   1  -7   1  118.73   23.64 
  -6  -1  -1  119.21   23.12 
  -7   3  -1  135.90   23.85 
   7  -4   1  130.14   24.88 
   4  -7  -1  109.22   21.40 
   7  -3   1  174.63   22.94 
  -7   4  -1  119.51   22.21 
  -7   3  -1  125.84   18.24 
  -4   7   1  176.74   22.73 
  -3   7   1  141.57   20.50 
   3  -7  -1  129.63   19.77 
  -7   4  -1  142.38   19.38 
  -4  -3   1  154.76   18.78 
  -7   3  -1  195.07   24.57 
  -5  -2   1   11.64    7.87 
  -7   2  -1   -4.79    4.82 
  -5  -2   1   -3.00    8.64 
  -7   2  -1   -1.99    8.29 
   2   5  -1    4.82    6.80 
  -7   2  -1    7.70    6.72 
   7  -2   1   -3.96    7.63 
   2  -7  -1   -2.72    7.86 
   5  -7  -1   -7.35    7.53 
   5   2  -1    0.47    3.31 
   7  -5   1    8.34    8.10 
  -7   5  -1    5.09    7.36 
  -2   7   1    3.25    9.00 
  -6  -1   1   93.79   21.76 
   6   1  -1  112.40   11.79 
  -7   1  -1   76.61   19.26 
  -6   7   1   95.98   19.78 
  -7   1  -1  136.72   26.18 
   1   6  -1  106.12   21.69 
  -6  -1   1  135.66   20.13 
  -7   6  -1  123.97   23.22 
   0   0  -2  292.92    9.72 
   0   0   2  282.18    8.21 
   0   0   2  288.11    7.79 
   1  -1  -2    2.23    3.07 
  -1   0  -2   -0.66    3.06 
   0  -1  -2   -5.01    2.69 
   1   0  -2    0.12    1.88 
   0   1  -2   -2.86    2.77 
   0  -1  -2   -1.50    1.99 
   1  -1  -2   -7.43    2.07 
   1  -1  -2   -1.66    2.25 
  -1   0   2   -0.34    2.60 
  -1   0  -2   -5.67    2.40 
   0  -1   2   -2.60    1.32 
   0   1   2   -3.50    2.44 
   0  -1   2    0.61    3.12 
  -1   0   2   -1.61    3.05 
   1   0   2   -1.74    2.09 
  -1   1  -2   -0.14    2.12 
   1  -1   2    2.16    3.21 
  -1   1   2   -0.04    2.84 
  -1   1  -2   -6.56    2.04 
   0   1   2   -1.69    2.01 
  -2   1   2  985.31   26.54 
  -1   2  -2  987.15   27.23 
  -1  -1  -2  933.23   25.22 
  -1  -1  -2  979.06   22.83 
  -1  -1  -2  924.09   25.75 
   2  -1  -2  970.29   30.01 
   1  -2   2  950.16   28.04 
  -1   2  -2  979.26   13.97 
   1   1   2  968.76   13.86 
   2  -1  -2  931.00   23.23 
  -2   1   2  947.78   26.27 
  -1  -1   2  237.57   10.88 
  -1   2   2  252.37   11.70 
   1  -2  -2  256.01   12.51 
   1   1  -2  259.93   12.05 
   1  -2  -2  241.12   10.88 
   2  -1   2  252.01   12.92 
   1  -2  -2  269.13   13.46 
  -1  -1   2  254.79   15.02 
  -2   1  -2  248.54   12.33 
  -2   1  -2  244.72   12.14 
  -2   0   2    9.57    4.23 
   2   0  -2    6.26    2.52 
  -2   0   2    5.50    4.08 
  -2   2   2    5.95    4.39 
  -2   2  -2    2.61    3.58 
   0  -2  -2    8.62    3.92 
   2  -2  -2    1.21    3.05 
  -2   2   2    2.98    3.28 
  -2   0  -2    8.57    4.29 
  -2   2  -2    6.72    3.10 
   2  -2  -2   11.43    3.73 
  -2   0  -2    6.24    3.72 
   0  -2  -2    8.35    4.33 
   0   2  -2    0.81    3.53 
   0   2   2   11.25    4.48 
   2   0  -2    3.68    2.82 
   2   0   2    4.71    2.59 
   2  -2  -2    1.98    3.21 
   2  -2   2    4.96    3.98 
  -2   0  -2    3.82    3.70 
  -2   0   2    0.73    3.19 
   0  -2   2    7.53    4.28 
   0   2   2    3.81    2.60 
  -2   0  -2    3.31    3.51 
   0   2  -2   10.72    2.47 
   2   0   2    8.63    4.12 
   2   0  -2    2.55    4.38 
   3  -2  -2   22.90    5.99 
  -2  -1  -2   13.68    5.15 
  -1   3  -2   15.36    5.44 
   1  -3   2   23.34    6.99 
  -3   1   2   10.18    4.50 
  -2   3  -2   22.96    3.92 
   2   1   2   15.13    2.14 
   2  -3   2   11.13    5.27 
  -1  -2  -2   21.25    5.20 
   3  -2  -2   14.86    5.87 
  -2   3  -2   26.72    5.79 
  -2   3  -2   22.42    6.48 
   2   1   2   17.03    5.84 
  -1  -2  -2   19.62    5.62 
   1   2   2   19.52    2.70 
   1   2   2   12.96    4.74 
  -2  -1  -2   13.05    4.96 
  -3   2   2   12.45    5.17 
  -2  -1  -2   13.21    5.16 
  -3   2   2    8.81    5.03 
  -3   2   2   23.56    6.74 
  -3   2   2   16.18    3.15 
  -1  -2  -2   14.30    5.32 
  -3   1   2   27.33    7.63 
   3  -1  -2   12.28    5.99 
   3  -1  -2   14.09    4.55 
  -3   1   2   13.81    5.88 
  -2  -2  -2   49.12    9.32 
  -2   4  -2   63.89    8.62 
   2  -4   2   35.51    9.19 
  -4   2   2   57.64   11.05 
   4  -2  -2   58.46   12.74 
  -2  -2  -2   46.51    9.77 
  -2  -2  -2   39.77    8.95 
  -4   2   2   56.03   10.73 
  -4   2   2   50.58   11.00 
  -2  -2  -2   55.65   10.26 
  -2   4  -2   49.60   10.36 
   4  -2  -2   49.24    8.91 
  -2  -1   2   -0.56    3.34 
   3  -1   2    2.28    4.34 
  -2   3   2    9.20    4.16 
   3  -1   2    0.02    2.47 
   1  -3  -2    7.24    4.71 
   1  -3  -2   12.38    5.29 
  -3   1  -2    4.79    4.07 
  -1  -2   2    6.32    4.89 
  -3   1  -2    1.28    4.22 
  -3   2  -2    3.24    4.65 
  -2  -1   2    7.26    3.79 
  -3   2  -2    3.03    3.94 
  -2  -1   2    2.19    3.41 
  -1   3   2   -0.75    3.16 
   3  -2   2    7.48    4.73 
   2  -3  -2    0.78    3.87 
  -3   1  -2    7.10    3.87 
  -2  -1   2   15.88    6.71 
  -3   2  -2    5.51    4.42 
  -1  -2   2    1.07    2.61 
  -3   2  -2    5.37    3.79 
   1   2  -2    8.76    4.93 
   2  -3  -2    2.36    3.40 
  -3   1  -2    1.70    4.38 
  -1  -2   2   10.26    4.49 
   2  -3  -2    2.02    3.71 
   0   3   2   36.65    7.36 
   3  -3   2   38.62    9.09 
   3   0   2   35.72    5.04 
   3   0  -2   38.51    9.55 
  -3   0  -2   41.01    9.14 
  -3   3   2   42.65    7.12 
  -3   0  -2   51.68   10.09 
  -3   3   2   53.30   10.40 
   3   0  -2   35.34    4.41 
   3  -3   2   45.82    7.96 
   3  -3  -2   43.86    8.69 
   0   3   2   47.77    5.84 
  -3   3  -2   48.03    6.78 
  -3   0  -2   37.66    6.98 
   3   0  -2   40.24    5.41 
  -3   0   2   41.48    8.65 
   0  -3  -2   29.02    7.01 
  -3   0   2   25.55    7.41 
  -3   0  -2   49.73    9.56 
  -3   0   2   39.41    8.60 
  -3   3  -2   42.67    9.00 
   0  -3   2   38.93    8.77 
  -3   3   2   38.40    7.90 
   3   0   2   47.97    9.42 
   0  -3  -2   32.22    8.02 
  -3   3   2   30.92    6.38 
  -3   3  -2   39.48    8.18 
   0   3  -2   43.39    5.14 
   0   3  -2   24.59    7.22 
   3  -3  -2   34.72    8.25 
  -1  -3  -2    0.27    3.88 
   4  -3  -2    7.07    5.52 
  -4   1   2    3.20    4.44 
  -4   1   2    7.71    6.41 
   3   1   2    5.26    2.48 
  -3  -1  -2    2.26    3.74 
  -4   1   2    3.80    4.95 
  -4   3   2   -1.59    4.72 
  -3   4  -2    6.04    5.07 
   1   3   2    3.54    2.94 
  -4   3   2   -2.57    3.26 
  -4   3   2    4.81    5.64 
  -1  -3  -2    1.58    3.06 
   3  -4   2   -0.37    3.78 
   1   3   2    6.78    4.44 
  -3  -1  -2    6.65    4.57 
   4  -1  -2    2.97    4.66 
  -1  -3  -2   11.12    5.05 
   1  -4   2    4.66    5.39 
   4  -1  -2    3.45    3.22 
   4  -3  -2    6.84    4.52 
  -1   4  -2   -0.46    4.05 
   3   1   2    0.38    3.78 
  -3   4  -2    1.94    4.37 
  -3  -1  -2    6.33    5.55 
  -5   3   2    0.17    5.33 
  -3  -2  -2    7.65    5.32 
   3  -5   2    9.47    6.78 
  -3   5  -2    6.41    6.28 
  -2  -3  -2    9.46    5.66 
  -5   3   2    5.18    4.87 
   2   3   2    1.76    4.18 
   5  -2  -2    6.11    4.41 
  -3  -2  -2    7.67    6.02 
  -2  -3  -2    7.41    5.79 
   5  -3  -2   17.31    6.96 
  -5   2   2    7.71    6.58 
   5  -2  -2    1.70    5.80 
   5  -3  -2   -1.12    4.43 
  -5   3   2   11.72    7.55 
  -2   5  -2    7.96    6.53 
   3   2   2   23.75    8.52 
  -2  -3  -2    8.22    5.63 
   2  -5   2   12.71    6.87 
  -5   2   2    7.18    5.08 
  -3  -2  -2    6.91    5.59 
  -5   2   2    3.92    6.65 
  -6   3   2    1.93    7.27 
  -6   3   2   13.95    8.24 
  -3   6  -2    6.43    6.41 
   3  -6   2    5.62    7.41 
  -3  -3  -2   -4.60    5.97 
   3   3   2    0.80    5.31 
   6  -3  -2   16.11    8.81 
  -6   3   2   -7.79    5.15 
   6  -3  -2   10.57    6.84 
  -3  -3  -2    8.09    5.97 
  -2  -2   2  220.90   15.93 
  -4   2  -2  213.47   18.10 
  -4   2  -2  203.76   16.39 
   4  -2   2  189.77   17.16 
  -2  -2   2  202.71   18.04 
  -2   4   2  214.57   13.62 
   2   2  -2  223.01   16.19 
  -2  -2   2  208.60   14.30 
   2  -4  -2  211.37   16.85 
  -4   2  -2  202.86   16.74 
   2  -4  -2  206.93   16.83 
   4  -1   2    8.30    6.62 
  -4   1  -2    2.39    5.54 
  -3  -1   2    4.75    5.14 
  -4   1  -2    1.79    5.02 
   1  -4  -2    8.50    5.49 
  -4   1  -2    2.37    3.27 
   3   1  -2    5.52    5.92 
   3   1  -2    7.41    4.17 
  -3   4   2    6.17    5.82 
   3   1  -2    7.28    3.07 
  -3   4   2    7.84    4.58 
   1   3  -2   13.85    5.85 
   4  -3   2    6.09    5.23 
  -3  -1   2    1.18    4.21 
  -1   4   2    5.09    4.45 
  -4   3  -2    8.30    4.76 
  -1  -3   2    9.44    4.94 
  -3   4   2   -0.62    4.44 
  -3  -1   2   14.67    6.08 
  -4   3  -2   12.72    5.78 
  -4   1  -2    2.28    3.12 
  -1  -3   2   -0.15    4.01 
  -4   3  -2   16.24    6.77 
   3  -4  -2    7.83    5.89 
   1  -4  -2   -0.57    4.17 
   4  -1   2    6.73    4.05 
  -4   4  -2   -4.43    4.07 
  -4   0   2   -1.16    4.28 
   4  -4   2    5.56    4.81 
   0   4   2    9.11    4.86 
  -4   0  -2   -5.57    3.69 
  -4   4   2   -2.32    5.06 
   0  -4   2    1.53    3.92 
   4  -4   2    6.70    5.61 
  -4   0   2    0.63    4.87 
  -4   4   2   -0.64    3.46 
   4   0   2    4.37    4.91 
  -4   0  -2    8.32    6.01 
  -4   0  -2    0.65    3.80 
   4   0  -2   -0.17    3.90 
  -4   0  -2   -2.86    3.27 
  -4   4   2    3.49    4.55 
   4  -4  -2   -5.01    3.72 
   0  -4  -2    2.75    5.22 
   0  -4  -2   -3.47    2.80 
   0   4  -2    1.88    4.39 
  -4   4  -2    2.92    4.24 
   4   0  -2    0.62    2.90 
  -4   4  -2   10.08    6.21 
   4   0   2    1.47    2.65 
  -4   0   2   -2.25    3.87 
   5  -4  -2   88.85   12.89 
  -5   1   2   77.96   15.71 
  -4   5  -2   85.12   12.35 
   5  -1  -2   81.20   10.12 
  -4   5  -2   84.90   15.15 
  -1  -4  -2   65.91   13.70 
   1  -5   2  106.46   15.70 
  -4  -1  -2   91.70   13.97 
  -5   1   2   90.70   16.46 
  -1  -4  -2  102.47   13.80 
  -1   5  -2  104.41   15.40 
   5  -4  -2   83.64   16.67 
  -4  -1  -2  108.54   15.04 
  -5   4   2   91.74   12.30 
  -5   4   2  103.58   15.50 
  -5   1   2   94.79   18.00 
   5  -1  -2   98.08   15.28 
   4   1   2   91.06   12.83 
   4  -5   2   97.55   18.08 
   6  -4  -2    6.69    7.17 
  -6   4   2    6.42    8.13 
  -2   6  -2   15.28    9.53 
  -4  -2  -2   15.66    8.21 
  -4  -2  -2    5.49    7.95 
  -2  -4  -2    9.95    7.31 
  -6   2   2   17.72    8.20 
  -6   2   2    0.88    6.64 
  -6   4   2    8.99    5.87 
   6  -2  -2   15.70    8.73 
   2  -6   2    3.77    7.17 
   6  -2  -2   16.35    6.74 
  -4   6  -2   18.94    8.97 
   6  -4  -2   16.03    8.42 
  -6   4   2   19.87   10.03 
   4  -6   2   13.66    8.96 
  -6   2   2   10.58    7.94 
  -3  -4  -2   -0.13    6.62 
  -7   3   2   -2.65    7.57 
   4  -7   2   10.87   10.01 
  -7   3   2    1.50    6.08 
  -4   7  -2    3.60    7.92 
   7  -3  -2    9.45    7.43 
   7  -3  -2    4.49    7.04 
   7  -4  -2   11.64    8.12 
  -7   4   2   -2.07    6.81 
  -7   4   2    5.65    7.40 
  -7   3   2   -2.10    5.37 
  -7   4   2    4.46    8.15 
  -3   7  -2    6.09    7.80 
   4   3   2   11.96    8.18 
   3  -7   2   10.49    9.36 
  -3   5   2    8.50    6.62 
   3   2  -2   15.30    6.24 
  -3   5   2   22.94    7.90 
  -5   3  -2   21.19    8.51 
  -3  -2   2   20.46    7.11 
   2   3  -2   15.68    6.17 
  -2   5   2   11.48    7.14 
   3  -5  -2   13.12    7.25 
   5  -3   2   15.43    7.62 
  -2  -3   2   10.27    6.34 
  -5   2  -2   13.05    6.30 
  -2  -3   2   26.29    9.24 
  -5   3  -2   24.88    9.59 
   5  -2   2   10.84    6.81 
  -5   3  -2   21.80    7.38 
  -5   2  -2   -0.78    5.98 
   2  -5  -2   19.11    8.23 
  -3  -2   2    9.09    6.30 
  -5   2  -2   11.34    7.71 
  -3  -2   2   23.45    9.57 
  -2  -3   2   14.49    6.21 
  -5   1  -2   22.08    8.32 
   5  -4   2   22.40    8.45 
   5  -1   2   23.64    8.86 
   4   1  -2   21.82    4.55 
   4   1  -2   15.52    7.07 
  -5   4  -2   20.59    6.66 
   1  -5  -2   41.98   10.50 
  -4  -1   2   25.84    8.55 
  -1  -4   2   16.39    7.63 
   1  -5  -2   31.12   10.01 
   1   4  -2   42.89   11.48 
  -4   5   2   33.06    8.82 
  -5   1  -2   21.05    8.57 
   4  -5  -2   14.26    7.69 
  -5   4  -2   14.95    8.65 
  -4  -1   2   11.87    6.91 
  -4   5   2   34.65   11.20 
  -5   1  -2   25.46   11.18 
  -4  -1   2   22.70    8.82 
   5  -4   2   25.43   10.33 
  -5   5   2   14.26    5.88 
   0   5  -2   20.81    9.15 
   0  -5  -2    9.23    7.43 
  -5   5  -2   18.48    9.47 
  -5   0  -2   16.64    8.42 
   5   0  -2   17.11    9.32 
  -5   5   2   22.66    8.59 
  -5   0   2   -0.17    6.13 
   5   0   2   12.64    6.27 
   5  -5  -2   13.03    8.58 
  -5   0  -2    6.33    6.66 
   0  -5   2   28.14   10.95 
   5   0  -2   13.39    4.96 
  -5   0  -2    8.44    6.94 
   5  -5   2    8.92    7.45 
   0  -5  -2    3.33    7.28 
  -5   0   2   10.81    7.81 
  -5   0   2    2.65    5.78 
   6  -5  -2   32.86   12.39 
  -6   1   2    0.16    5.97 
  -6   5   2    6.99    7.18 
  -6   1   2    9.51    7.70 
  -6   5   2   10.84    6.96 
   1  -6   2   24.13   11.62 
  -1   6  -2   12.49    9.05 
  -6   1   2   19.66   10.46 
   6  -1  -2   17.58    8.30 
  -5  -1  -2   15.24    9.84 
  -5  -1  -2   16.80   10.11 
   6  -1  -2   13.43    6.67 
  -1  -5  -2    2.35    6.58 
   5  -6   2   10.70    9.81 
   7  -2  -2    9.50    7.62 
  -5  -2  -2    1.75    8.24 
   7  -5  -2   22.66   11.23 
   5  -7   2   13.40    9.30 
  -7   2   2    4.17    5.54 
  -7   2   2   -1.81    8.42 
  -5  -2  -2    9.27    9.86 
  -7   5   2    6.58   10.27 
  -7   5   2   15.78    8.55 
   2   5   2   21.60    9.72 
  -2   7  -2    9.59    9.34 
   7  -2  -2   -3.40    5.34 
  -7   2   2    4.06    8.18 
   2  -7   2   11.72   11.28 
  -3   6   2   -4.26    5.83 
  -3  -3   2   12.90    7.76 
   3  -6  -2    6.39    7.19 
  -6   3  -2   10.15    7.19 
  -3  -3   2   18.75    9.35 
  -6   3  -2    9.01    8.79 
  -6   3  -2   16.36    8.52 
  -3   6   2   13.34    7.75 
   6  -3   2   22.39    9.73 
  -2   6   2    4.06    6.81 
  -2  -4   2   14.14    8.38 
   6  -4   2    2.79    6.58 
  -4  -2   2    7.91    7.56 
   6  -4   2   12.15    8.07 
  -4  -2   2    9.61    6.28 
  -6   2  -2    1.99    5.36 
   4   2  -2    9.34    7.40 
  -4   6   2   -0.39    7.28 
  -4   6   2    0.04    5.72 
   2   4  -2    0.74    5.42 
   2  -6  -2    4.77    6.91 
   4  -6  -2    5.80    7.71 
   4   2  -2    7.19    3.30 
  -6   2  -2   14.96    9.17 
  -6   4  -2    5.50    7.32 
   6  -2   2    3.31    5.86 
  -6   4  -2    8.78    5.87 
  -6   2  -2   12.48    7.82 
  -1  -5   2   17.16   10.05 
   1   5  -2    5.72    7.61 
   6  -5   2    8.01    6.00 
  -5  -1   2   20.16    9.13 
  -6   1  -2   -2.30    4.45 
  -6   1  -2    6.13    5.54 
   5   1  -2    5.50    6.89 
  -5  -1   2   -4.99    5.77 
  -6   1  -2   -8.89    5.47 
   5  -6  -2    9.41    9.62 
  -5   6   2    0.88    5.76 
   6  -1   2    6.89    7.08 
  -1   6   2   11.75    8.77 
   5   1  -2    3.88    3.54 
  -5  -1   2    2.05    6.10 
  -6   5  -2    1.79    6.93 
   6   0  -2    9.16    5.40 
   6  -6  -2   27.87   11.76 
  -6   0   2    4.88    7.13 
  -6   0  -2    3.80    9.00 
   0  -6   2    4.48    8.91 
   6  -6   2    7.38    7.54 
  -6   6   2    7.30    7.30 
   6   0  -2   17.95    7.96 
   0   6  -2   20.49   10.54 
  -6   0  -2   22.53   11.12 
  -6   0   2   17.59   10.15 
  -6   6  -2    6.27    8.35 
  -6   0   2   12.89    8.20 
  -6   0  -2   24.56   10.43 
   0   6   2    6.61    6.63 
   1  -7   2    1.71   10.29 
  -7   6   2    3.76    8.35 
  -7   1   2    1.89    7.68 
  -7   1   2    3.12    6.78 
  -6  -1  -2   26.76   11.07 
   7  -1  -2    9.69    9.28 
  -6  -1  -2   -1.86    7.83 
  -7   4  -2    6.37    6.38 
  -3  -4   2   12.56    9.96 
  -7   3  -2    8.39    8.97 
  -3   7   2   -2.64    8.36 
   4  -7  -2   11.74    9.44 
  -7   4  -2    3.44    7.14 
  -4  -3   2    6.71    7.49 
   7  -4   2    1.22    7.07 
   4   3  -2   -2.23    7.80 
  -7   3  -2    3.79    5.89 
   3  -7  -2   -0.63    7.11 
   7  -3   2   -2.73    7.02 
   7  -4   2    9.61    8.82 
  -4   7   2   14.73    8.93 
  -7   3  -2   -0.24    7.02 
   7  -5   2    7.71    9.96 
   5   2  -2   40.90    6.84 
   2   5  -2   37.42   12.68 
  -2  -5   2   39.94   14.45 
  -7   2  -2   41.04   14.59 
  -7   2  -2   42.53   13.18 
  -5  -2   2   74.30   17.87 
   5   2  -2   56.11   15.61 
  -7   2  -2   39.15   13.98 
  -5   7   2   23.78   10.31 
  -5  -2   2   25.58   10.00 
  -2   7   2   33.65   15.07 
   5  -7  -2   26.98   13.28 
   7  -2   2   25.25   11.78 
  -7   5  -2   35.58   12.91 
  -7   1  -2    4.97    7.42 
   1   6  -2  -14.35    6.93 
  -6   7   2   16.12    9.89 
  -7   1  -2    7.40    9.04 
  -6  -1   2    1.47    8.44 
   6   1  -2    1.55    4.92 
  -7   6  -2    5.69    9.62 
  -6  -1   2   -6.15    8.85 
   0   0  -3   -1.91    3.03 
   0   0   3   -0.66    2.17 
   0   0   3   -2.76    2.14 
  -1   0   3 1579.10   30.08 
   1  -1  -3 1642.52   28.14 
   0   1  -3 1637.67   32.59 
   1  -1  -3 1657.47   30.95 
   0  -1   3 1668.28   34.47 
  -1   1  -3 1603.42   33.53 
  -1   1  -3 1612.96   25.76 
   0  -1  -3 1640.17   33.60 
  -1   0  -3 1687.81   34.35 
  -1   0   3 1630.69   35.90 
   1  -1  -3 1637.90   31.86 
   0   1   3 1618.17   31.62 
  -1   0  -3 1616.42   31.33 
   1  -1   3 1616.17   31.54 
   1   0  -3 1663.63   26.61 
  -1   1   3 1584.53   31.74 
   0  -1   3 1644.93   22.97 
   1   0   3 1653.19   24.96 
   0  -1  -3 1669.76   23.38 
   2  -1  -3   -0.51    2.55 
   1   1   3   -0.97    2.53 
   1   1   3   -0.73    1.70 
  -1  -1  -3    2.80    3.02 
   1  -2   3    7.66    4.04 
   2  -1  -3    2.40    3.40 
  -2   1   3   -0.06    2.72 
  -2   1   3    3.27    3.44 
  -1  -1  -3    1.81    2.05 
  -2   1   3    6.19    3.68 
  -1   2  -3    3.24    3.01 
   1  -2  -3   -0.12    2.83 
  -2   1  -3   -1.70    2.89 
   2  -1   3   -1.32    2.46 
  -1  -1   3    4.75    3.45 
   1   1  -3   -0.14    3.79 
  -1  -1   3    1.36    2.09 
   1  -2  -3    1.80    1.90 
  -1   2   3   -0.64    2.67 
   1  -2  -3    3.10    2.56 
   2  -1   3    3.64    3.42 
  -2   1  -3    1.89    3.08 
  -1  -1   3   -0.81    2.96 
  -2   1  -3    2.66    2.90 
   2   0   3 1255.70   28.94 
   0   2   3 1292.93   25.61 
  -2   0   3 1270.50   32.76 
   0   2  -3 1242.98   34.26 
  -2   0   3 1242.41   31.19 
  -2   2   3 1290.95   32.95 
  -2   2   3 1338.84   34.72 
  -2   2  -3 1293.36   26.17 
   0  -2  -3 1244.24   34.87 
   0  -2   3 1302.25   19.12 
   0  -2  -3 1273.17   27.30 
   2  -2  -3 1211.17   30.50 
   0   2   3 1258.36   31.62 
  -2   0  -3 1263.71   32.23 
   2  -2  -3 1282.42   26.63 
  -2   0  -3 1238.31   33.43 
   0  -2   3 1198.59   35.97 
  -2   2  -3 1258.04   32.84 
  -2   0  -3 1249.18   33.02 
   2   0  -3 1251.17   26.77 
   2  -2  -3 1157.96   32.94 
   2   0  -3 1307.26   22.71 
   2   0  -3 1282.35   39.20 
  -2   0   3 1255.46   34.04 
  -2   0  -3 1257.56   33.62 
   2  -2   3 1232.76   33.76 
   3  -2  -3  908.51   28.63 
  -1  -2  -3  914.92   25.60 
   1   2   3  882.27   28.92 
  -3   1   3  885.02   31.10 
  -2   3  -3  876.05   31.42 
  -2   3  -3  924.66   24.99 
  -3   1   3  875.41   31.08 
  -1  -2  -3  916.08   26.45 
   1   2   3  907.67   18.58 
  -3   2   3  956.16   29.56 
  -2  -1  -3  915.94   31.00 
   1  -3   3  924.79   33.11 
   3  -1  -3  871.69   26.23 
  -1   3  -3  854.86   31.92 
  -3   2   3  863.40   31.22 
   3  -1  -3  863.54   34.71 
  -2  -1  -3  894.23   29.74 
   2  -3   3  909.40   33.90 
   3  -2  -3  899.32   34.40 
  -3   2   3  955.52   16.38 
  -2  -1  -3  867.67   29.22 
  -3   1   3  917.90   31.32 
  -3   2   3  911.43   30.94 
   2   1   3  952.56   27.14 
  -1  -2  -3  871.58   31.21 
   2  -4   3    3.67    4.52 
  -4   2   3    2.90    3.64 
   2   2   3    0.40    1.93 
  -4   2   3   -2.61    4.14 
  -2  -2  -3   -1.35    3.28 
   2   2   3   -1.57    3.34 
   4  -2  -3   -3.63    2.27 
  -2  -2  -3   -4.97    3.03 
  -2  -2  -3   -1.74    3.31 
  -4   2   3   -1.41    3.94 
  -2   4  -3    2.31    4.27 
   4  -2  -3   12.28    6.25 
  -3   1  -3  925.80   27.93 
  -2  -1   3  943.25   31.28 
   1  -3  -3  884.99   31.65 
   1   2  -3  890.71   30.14 
  -3   2  -3  951.42   31.22 
  -2   3   3  918.80   28.44 
  -3   2  -3  868.48   27.97 
  -1  -2   3  924.26   34.98 
  -3   1  -3  938.84   30.98 
   3  -2   3  893.39   31.78 
   2   1  -3  934.03   26.02 
   1  -3  -3  914.66   28.73 
  -2  -1   3  927.27   27.41 
  -3   1  -3  912.74   31.58 
  -1  -2   3  887.01   23.61 
   3  -1   3  911.91   30.25 
   2  -3  -3  908.27   29.17 
  -1   3   3  895.65   27.68 
   3  -2   3  941.01   30.02 
   2  -3  -3  927.05   27.96 
  -1  -2   3  961.96   28.86 
  -3   2  -3  924.37   28.95 
  -2  -1   3  938.00   36.05 
  -3   1  -3  920.09   31.83 
   2  -3  -3  910.59   31.53 
  -2  -1   3  870.18   28.23 
  -3   0  -3    3.46    3.75 
   3   0  -3    5.96    4.93 
  -3   3   3    4.73    4.61 
   3  -3  -3    7.55    4.35 
  -3   3   3   -2.56    3.31 
   0  -3  -3   -1.32    3.29 
   3   0  -3    1.56    2.05 
  -3   0   3   -8.02    2.40 
  -3   0  -3    0.33    2.88 
   0  -3   3   -0.68    3.38 
   3  -3   3    6.07    5.37 
   0  -3  -3   -3.77    3.00 
  -3   0   3    0.93    3.25 
   3  -3  -3   -0.42    2.79 
   3   0   3   -2.46    2.85 
  -3   0   3    0.93    3.53 
   3   0  -3    2.46    2.77 
  -3   3   3    4.82    3.91 
   3  -3   3   -0.01    3.57 
  -3   3  -3    1.54    3.53 
  -3   3   3   -2.85    2.62 
  -3   3  -3    6.04    3.51 
  -3   0  -3    5.72    4.12 
  -3   3  -3   -7.70    2.95 
   0   3  -3    1.38    3.40 
   0  -3   3   -5.28    2.56 
   0   3   3    7.19    4.50 
  -3   0  -3    9.85    4.79 
  -3  -1  -3  501.63   27.03 
  -1   4  -3  529.96   29.53 
  -3   4  -3  579.99   28.43 
   3   1   3  501.03   24.01 
   1   3   3  515.70   24.75 
  -4   1   3  503.76   28.30 
  -1  -3  -3  535.72   24.37 
  -3  -1  -3  528.67   24.84 
   4  -1  -3  495.28   21.87 
  -4   3   3  534.39   24.63 
   4  -1  -3  483.62   30.16 
  -4   3   3  526.79   28.02 
  -4   3   3  536.59   26.90 
  -4   1   3  546.90   28.09 
  -4   1   3  484.56   26.79 
  -1  -3  -3  530.29   27.85 
   4  -3  -3  566.79   26.24 
  -3  -1  -3  581.60   28.11 
   4  -3  -3  556.34   30.50 
   3  -4   3  453.97   27.79 
  -3   4  -3  541.44   23.51 
   1  -4   3  511.94   29.01 
   3  -5   3  466.07   30.84 
  -3  -2  -3  430.70   26.92 
  -5   2   3  397.57   27.57 
  -5   2   3  468.38   28.81 
   5  -2  -3  435.94   23.93 
   2   3   3  413.04   24.72 
  -2   5  -3  457.04   30.26 
  -5   3   3  442.10   29.10 
  -2  -3  -3  402.65   26.19 
   5  -2  -3  424.34   30.24 
  -3  -2  -3  460.89   25.91 
  -3  -2  -3  482.75   27.64 
  -3   5  -3  465.04   29.00 
   5  -3  -3  515.92   33.38 
   5  -3  -3  442.23   25.55 
  -5   2   3  371.61   26.18 
  -5   3   3  477.16   27.82 
   2  -5   3  447.23   29.71 
  -5   3   3  422.45   26.66 
   6  -3  -3    6.67    4.93 
  -3   6  -3    6.03    5.63 
  -3  -3  -3    1.71    5.56 
   3  -6   3   -0.90    5.94 
  -3  -3  -3    9.85    6.20 
  -6   3   3    1.05    7.22 
  -6   3   3    2.92    5.87 
  -6   3   3   -3.52    4.76 
   3   3   3    4.40    5.51 
   6  -3  -3    0.10    6.21 
   2  -4  -3    4.62    4.55 
  -4   2  -3   -1.12    4.16 
  -4   2  -3    3.33    5.08 
  -2  -2   3    3.52    4.61 
  -4   2  -3   -4.23    3.14 
   2  -4  -3    7.90    5.05 
   2   2  -3    1.17    3.52 
  -2  -2   3    0.45    3.59 
  -2  -2   3   -0.12    3.47 
  -2   4   3   10.37    5.12 
  -4   2  -3   -0.18    3.79 
   4  -2   3   -4.22    3.31 
  -1   4   3  574.19   24.07 
   3  -4  -3  526.98   28.96 
  -4   3  -3  541.77   24.86 
  -3  -1   3  549.56   27.99 
  -4   3  -3  573.23   28.28 
  -1  -3   3  540.26   19.65 
   4  -1   3  608.20   28.71 
  -4   1  -3  483.15   27.59 
   1  -4  -3  506.44   27.70 
   1  -4  -3  552.35   25.92 
  -1  -3   3  527.97   23.05 
  -4   1  -3  552.13   28.75 
  -4   1  -3  559.12   22.96 
   1   3  -3  501.02   26.97 
   3   1  -3  506.34   20.43 
   4  -3   3  542.54   29.04 
  -3   4   3  554.67   24.97 
  -4   3  -3  530.38   24.31 
  -3   4   3  545.37   24.75 
  -3  -1   3  529.20   26.24 
   4  -3   3  530.72   25.12 
  -4   1  -3  536.67   27.85 
  -3  -1   3  524.53   25.82 
  -1  -3   3  490.08   28.90 
  -3   4   3  544.38   28.77 
   0  -4   3  412.63   27.77 
   4   0   3  465.25   25.16 
  -4   0   3  425.37   26.23 
  -4   0  -3  407.52   20.91 
   0   4  -3  395.90   26.00 
  -4   0  -3  396.74   26.04 
  -4   0  -3  423.38   26.89 
  -4   0   3  422.99   27.20 
  -4   4  -3  453.46   25.15 
   4   0  -3  394.18   17.85 
   4   0  -3  402.92   27.58 
   4  -4   3  419.97   21.99 
   4  -4   3  414.04   27.01 
  -4   0   3  383.29   24.30 
   4  -4  -3  362.07   26.27 
  -4   4   3  447.76   27.44 
  -4   4  -3  417.81   24.39 
   0  -4  -3  401.93   23.73 
  -4   4  -3  389.22   20.09 
  -4   4   3  393.02   23.29 
   0  -4  -3  354.82   25.19 
   0   4   3  488.52   24.41 
  -4   0  -3  444.64   27.45 
   5  -1  -3   -2.87    4.29 
  -5   1   3   -0.28    4.80 
   5  -4  -3    7.46    5.98 
  -4  -1  -3   -2.68    4.17 
  -4  -1  -3   -0.71    4.86 
  -5   4   3    0.56    4.33 
   5  -4  -3    7.04    5.53 
   5  -1  -3   -0.67    3.58 
  -4   5  -3    2.67    6.01 
  -5   1   3    3.82    4.81 
   1  -5   3   -1.42    5.41 
  -5   4   3   -1.04    4.29 
   1   4   3    2.93    5.13 
  -4   5  -3   -1.30    5.30 
  -4  -1  -3    7.84    6.59 
  -5   1   3    2.62    6.96 
  -1  -4  -3   -6.22    3.60 
  -1   5  -3   13.08    8.12 
   4  -5   3    1.27    5.59 
  -4  -2  -3  263.18   24.11 
  -6   2   3  211.71   22.03 
  -2   6  -3  265.03   26.21 
   6  -2  -3  272.96   26.96 
   6  -2  -3  273.40   20.67 
  -2  -4  -3  273.69   24.68 
  -6   2   3  256.90   24.75 
  -4  -2  -3  296.39   25.06 
  -4   6  -3  295.24   26.11 
  -6   2   3  247.07   23.50 
  -6   4   3  243.99   25.02 
   6  -4  -3  289.15   28.58 
   2  -6   3  264.45   26.03 
   4  -6   3  252.92   25.61 
   6  -4  -3  300.11   24.49 
  -6   4   3  256.39   23.03 
  -6   4   3  258.17   22.61 
  -7   4   3  117.64   17.27 
  -3   7  -3  125.89   23.87 
   3  -7   3  177.61   23.98 
  -7   3   3  147.85   19.52 
   4  -7   3  170.06   23.88 
  -4   7  -3  168.97   22.88 
   7  -4  -3  132.06   20.46 
  -7   4   3  142.17   19.53 
  -7   3   3  134.41   20.08 
  -3  -4  -3  143.16   19.38 
  -7   4   3  158.19   22.85 
  -7   3   3  135.92   19.58 
   7  -4  -3  174.37   21.06 
   7  -3  -3  161.06   18.64 
   4   3   3  161.23   21.05 
   7  -3  -3  131.09   20.60 
  -5   2  -3  440.66   29.02 
   5  -3   3  411.58   26.67 
   2  -5  -3  435.84   26.76 
   5  -2   3  439.51   28.58 
  -3  -2   3  470.31   28.42 
  -5   2  -3  434.30   28.32 
  -3   5   3  415.06   26.22 
  -3  -2   3  449.41   31.08 
   5  -3   3  430.65   28.83 
  -2  -3   3  469.43   26.31 
  -5   2  -3  403.03   26.05 
  -3   5   3  468.76   27.01 
  -5   3  -3  476.22   29.57 
  -5   3  -3  428.56   25.99 
   2  -5  -3  452.32   28.42 
   3  -5  -3  443.19   28.53 
  -2  -3   3  488.99   31.67 
  -3  -2   3  464.99   25.90 
   2   3  -3  462.36   26.76 
   4   1  -3    1.40    5.09 
  -5   1  -3   -0.87    4.60 
   4   1  -3   -1.46    2.47 
   5  -1   3    0.80    4.48 
  -5   1  -3    7.66    4.79 
  -5   4  -3    9.30    4.83 
  -4   5   3  -10.85    4.59 
   1  -5  -3   11.12    6.38 
   1   4  -3    2.59    4.74 
   4  -5  -3    7.30    6.57 
  -1  -4   3   19.63    9.51 
   5  -4   3    7.33    5.39 
  -4   5   3    1.76    4.44 
   5  -4   3   -4.39    4.36 
   1  -5  -3   12.44    7.29 
  -5   1  -3   10.43    8.23 
  -4  -1   3   -6.58    4.08 
  -4  -1   3   13.77    6.86 
  -4  -1   3    1.79    5.50 
  -5   4  -3   -0.85    5.87 
  -4   5   3    8.53    5.81 
  -5   0   3  312.37   26.16 
  -5   5   3  379.37   24.94 
  -5   5   3  346.65   26.92 
  -5   0  -3  317.38   26.95 
   0  -5  -3  328.06   27.85 
   5  -5   3  369.45   30.29 
  -5   0   3  376.19   28.13 
   0   5  -3  335.29   27.87 
   5  -5  -3  327.80   28.98 
  -5   0  -3  296.75   25.95 
  -5   5  -3  343.66   25.98 
  -5   0   3  354.45   26.84 
   5   0  -3  318.16   18.40 
   5   0  -3  343.41   29.08 
   0  -5   3  331.75   28.80 
  -5   0  -3  379.48   28.86 
  -6   5   3  255.45   22.93 
   6  -1  -3  218.86   18.09 
   6  -5  -3  302.02   30.70 
  -5  -1  -3  237.89   24.57 
  -6   1   3  234.35   24.80 
  -1  -5  -3  233.37   25.19 
  -6   5   3  227.91   24.78 
  -5  -1  -3  248.63   25.14 
   1  -6   3  289.85   28.12 
  -6   1   3  214.91   23.02 
   6  -1  -3  250.77   25.65 
  -1   6  -3  333.34   29.42 
   5  -6   3  159.48   21.47 
  -6   1   3  271.53   26.12 
  -7   2   3   -5.03    6.49 
  -7   2   3   22.35    9.39 
  -2   7  -3    1.87    9.01 
   2  -7   3   -9.37    7.64 
  -2  -5  -3   14.57    9.14 
   7  -5  -3    7.30    9.71 
   5  -7   3   -2.04    6.44 
   7  -2  -3   -7.73    5.19 
  -7   5   3   -5.75    5.15 
   7  -2  -3    5.41    8.01 
  -7   5   3    7.85    7.85 
  -5  -2  -3  -13.03    5.97 
  -7   2   3    4.20    6.37 
  -3  -3   3   -1.81    6.46 
  -3   6   3   -0.34    6.44 
   3  -6  -3   -4.85    4.60 
  -6   3  -3   -0.86    5.92 
  -3  -3   3   -3.54    5.63 
  -3   6   3   -5.85    5.29 
  -6   3  -3    3.50    5.90 
   6  -3   3    3.36    6.22 
   6  -2   3  338.41   28.20 
  -4   6   3  301.72   24.69 
  -6   4  -3  285.73   25.55 
  -6   2  -3  303.40   25.62 
   4   2  -3  303.16   28.95 
   2  -6  -3  270.02   23.58 
  -6   4  -3  252.48   22.05 
  -4  -2   3  252.32   23.73 
  -4  -2   3  247.05   22.33 
  -6   2  -3  318.58   27.78 
  -2  -4   3  303.69   27.73 
  -6   2  -3  293.30   27.11 
  -4   6   3  264.24   24.48 
   6  -4   3  264.81   23.31 
   4  -6  -3  290.66   26.79 
   4   2  -3  265.66   12.66 
  -2   6   3  298.09   27.08 
   2   4  -3  257.35   23.13 
   6  -4   3  293.29   27.60 
   1   5  -3  251.79   25.24 
  -1  -5   3  252.44   27.00 
  -6   1  -3  244.93   25.14 
  -5   6   3  275.25   24.89 
   6  -5   3  270.36   27.12 
  -6   1  -3  255.39   26.69 
  -5  -1   3  223.50   23.54 
   5   1  -3  298.53   28.23 
  -5  -1   3  228.79   23.54 
  -6   1  -3  271.57   25.90 
  -6   5  -3  276.51   25.18 
  -1   6   3  204.52   25.20 
   5  -6  -3  236.56   26.26 
   5   1  -3  287.51   16.16 
   6  -6  -3   14.56    9.67 
  -6   0  -3  -13.76    6.86 
   6  -6   3   -1.68    6.01 
   0   6  -3   -6.73    6.13 
  -6   0  -3   -0.79    6.53 
   6   0  -3   -0.56    4.13 
   0   6   3   -5.36    5.97 
  -6   6   3   -1.50    5.95 
  -6   0   3   -2.26    6.61 
  -6   0   3    4.01    8.11 
   6   0  -3   -4.24    6.40 
   0  -6   3    2.02    9.45 
  -6   0   3    2.08    6.71 
  -6   6  -3    2.32    7.93 
   7  -1  -3  112.21   22.23 
   1  -7   3  154.67   23.79 
  -7   1   3   80.91   19.79 
  -7   6   3  160.42   23.24 
  -7   1   3  115.67   22.67 
  -6  -1  -3  106.85   21.67 
  -4   7   3  179.26   20.45 
  -7   3  -3  167.08   20.23 
  -3  -4   3  187.91   25.61 
  -7   4  -3  104.31   20.75 
   7  -3   3  147.91   21.00 
  -7   3  -3  115.29   22.05 
   3  -7  -3  200.66   23.44 
  -7   4  -3  138.28   18.19 
   4  -7  -3  190.88   23.92 
  -4  -3   3  148.05   19.41 
  -4   7   3  170.46   21.55 
   4   3  -3  182.02   24.64 
  -3   7   3  149.26   21.10 
   7  -4   3  183.54   22.41 
   7  -4   3  177.80   22.98 
   7  -3   3  175.46   22.30 
  -5  -2   3    9.20    8.28 
   7  -5   3   -3.63    8.28 
   5   2  -3    1.19    3.67 
   5  -7  -3  -11.99    8.55 
   2   5  -3  -12.29    6.62 
  -5   7   3    5.59    6.86 
  -7   2  -3    7.17    7.25 
  -7   5  -3   -0.48    7.16 
  -5  -2   3    2.62    8.24 
  -7   2  -3    5.39    7.50 
  -2  -5   3  -15.98    7.67 
   5   2  -3    6.00    7.58 
  -2   7   3    8.09    9.89 
   6   1  -3  177.00   24.84 
  -6  -1   3  121.65   23.04 
  -7   6  -3  115.71   22.26 
  -6   7   3  167.67   21.81 
  -7   1  -3  144.79   26.63 
  -6  -1   3  154.84   23.12 
  -1  -6   3  151.51   23.68 
   1   6  -3  162.18   23.42 
  -7   1  -3  140.66   25.94 
   0   0   4  988.32   20.72 
   0   0   4 1000.10   22.21 
   0   0  -4  986.47   25.22 
  -1   0  -4 4331.92   68.51 
  -1   0   4 4279.44   60.63 
   0  -1   4 4383.88   67.57 
   0   1   4 4339.91   63.93 
   1   0   4 4221.00   61.98 
   1  -1  -4 4408.47   60.17 
   1  -1   4 4320.15   55.42 
  -1   1   4 4355.95   63.99 
   1   0  -4 4375.10   58.37 
  -1   0   4 4289.48   68.95 
   0   1  -4 4392.41   65.73 
   0  -1  -4 4382.60   67.50 
   0  -1  -4 4383.69   50.85 
   1  -1   4 4348.21   62.18 
  -1   1  -4 4299.57   67.31 
   1   0   4 4445.89   52.14 
   1  -1  -4 4367.72   61.86 
   0  -1   4 4394.56   52.15 
   1  -1  -4 4398.46   64.02 
   1   1   4 1280.23   21.72 
   1  -2   4 1244.27   17.25 
   1   1   4 1190.69   31.98 
   2  -1  -4 1201.90   36.26 
  -1  -1  -4 1146.81   34.02 
   1  -2   4 1232.27   34.56 
  -2   1   4 1209.02   31.44 
   2  -1  -4 1243.22   20.13 
   2  -1  -4 1256.48   30.73 
   1   1   4 1244.08   29.81 
  -1   2  -4 1182.99   34.01 
  -2   1   4 1220.36   32.53 
  -2   1   4 1223.02   32.01 
   1  -2  -4 3688.74   57.03 
  -1  -1   4 3514.17   68.54 
   2  -1   4 3642.97   58.69 
   1  -2  -4 3733.78   54.77 
  -2   1  -4 3608.07   58.14 
  -2   1  -4 3677.64   63.81 
   1   1  -4 3656.09   58.64 
  -1   2   4 3641.63   60.75 
   2  -1   4 3662.04   61.79 
  -1  -1   4 3676.33   61.11 
   1  -2  -4 3670.38   60.90 
  -1  -1   4 3624.96   54.26 
  -2   1  -4 3664.96   59.69 
  -2   2  -4 3508.96   51.07 
   2   0   4 3587.84   53.52 
   2   0   4 3541.52   62.80 
   2  -2  -4 3525.03   64.66 
   0   2  -4 3555.40   65.10 
  -2   0  -4 3469.30   62.58 
  -2   0   4 3522.47   58.02 
   2  -2   4 3591.56   65.20 
  -2   0  -4 3659.68   64.54 
  -2   2   4 3480.07   62.65 
   0  -2  -4 3503.03   50.85 
   0  -2   4 3528.67   67.84 
   0  -2  -4 3486.36   65.30 
  -2   0  -4 3506.31   63.12 
   0   2   4 3565.09   62.41 
   0   2   4 3605.08   52.88 
   2  -2   4 3669.33   59.78 
  -2   0   4 3615.38   64.66 
  -2   0   4 3468.62   61.46 
   2  -2  -4 3616.86   53.36 
  -2   2  -4 3534.30   64.88 
   2   0  -4 3446.96   47.73 
   2  -2  -4 3548.71   59.80 
  -3   1   4 2408.82   54.77 
   2   1   4 2593.60   46.09 
   1   2   4 2486.33   39.45 
   3  -2  -4 2501.20   51.69 
   3  -1  -4 2404.78   62.47 
   1  -3   4 2459.70   58.58 
   1   2   4 2391.44   53.68 
   3  -1  -4 2375.70   48.46 
  -2  -1  -4 2375.61   54.85 
  -3   1   4 2377.43   55.25 
  -3   2   4 2549.40   56.89 
  -2  -1  -4 2469.16   55.09 
  -2   3  -4 2452.59   57.24 
  -1   3  -4 2417.75   58.09 
  -3   1   4 2406.32   55.60 
  -2   3  -4 2474.29   33.81 
  -3   2   4 2472.22   52.13 
  -3   2   4 2579.36   33.03 
  -2  -1  -4 2391.07   52.00 
  -3   2   4 2465.60   55.73 
   2  -3   4 2482.18   45.74 
   1   2   4 2519.85   47.85 
   3  -2  -4 2475.48   60.65 
  -1  -2  -4 2392.62   56.59 
  -1  -2  -4 2473.93   43.57 
   2  -3   4 2500.29   59.13 
  -2  -2  -4 1420.12   45.74 
   4  -2  -4 1338.08   39.79 
   2  -4   4 1338.14   48.59 
  -4   2   4 1373.25   43.83 
   2   2   4 1383.52   43.85 
  -4   2   4 1372.54   46.09 
  -4   2   4 1278.60   44.19 
   4  -2  -4 1269.14   48.71 
  -2   4  -4 1258.15   45.25 
  -2  -1   4 2859.68   51.77 
  -2  -1   4 2754.23   67.83 
  -1  -2   4 2792.32   65.94 
  -3   1  -4 2797.33   58.08 
   2  -3  -4 2792.01   58.40 
  -1   3   4 2781.68   55.85 
   3  -1   4 2774.55   55.69 
   3  -2   4 2823.29   57.79 
  -3   2  -4 2836.48   57.35 
  -3   2  -4 2837.56   58.43 
  -3   1  -4 2852.47   57.42 
  -1  -2   4 2844.00   46.83 
  -3   1  -4 2781.41   59.96 
  -2  -1   4 2882.88   55.58 
  -1  -2   4 2845.42   56.12 
   1   2  -4 2827.81   58.75 
   3  -2   4 2835.37   59.88 
   2  -3  -4 2902.18   53.56 
   2   1  -4 2787.66   50.83 
  -3   2  -4 2820.02   54.10 
  -2  -1   4 2777.30   59.61 
   2  -3  -4 2846.27   55.82 
   1  -3  -4 2759.71   59.98 
   1  -3  -4 2828.04   54.50 
  -2   3   4 2772.82   56.69 
   0  -3   4  539.42   20.78 
   0  -3  -4  522.01   20.92 
  -3   3   4  519.14   26.75 
  -3   0  -4  487.03   25.22 
   3  -3  -4  519.52   19.24 
  -3   0   4  528.46   25.38 
  -3   0   4  521.81   24.39 
   3   0  -4  512.93   19.44 
  -3   3   4  529.01   20.33 
   0   3   4  563.72   24.86 
   3   0   4  525.00   21.99 
   3  -3   4  526.92   22.38 
  -3   0  -4  532.96   23.86 
  -3   0  -4  524.44   25.92 
  -3   3   4  532.77   25.08 
  -3   3  -4  483.65   24.50 
   3  -3   4  505.60   26.22 
  -3   3  -4  524.57   19.22 
   0  -3  -4  504.00   26.39 
   0   3  -4  523.71   26.75 
  -3   3  -4  548.48   23.62 
   3  -3  -4  555.32   27.45 
   3  -3  -4  559.96   24.70 
  -3   0   4  503.41   25.39 
  -3   0  -4  531.63   25.54 
   3   0  -4  540.59   29.34 
   0  -3   4  509.15   27.79 
  -4   1   4 1747.72   52.75 
  -4   3   4 1744.15   47.81 
  -3   4  -4 1825.19   53.57 
  -1   4  -4 1752.39   55.62 
   4  -1  -4 1731.17   43.16 
  -1  -3  -4 1785.67   55.13 
  -3   4  -4 1832.28   44.28 
   4  -3  -4 1729.48   48.94 
  -4   1   4 1795.81   53.30 
  -1  -3  -4 1758.67   43.98 
   3  -4   4 1682.27   55.86 
  -4   3   4 1758.28   52.03 
  -4   3   4 1729.63   53.61 
   1   3   4 1757.05   48.59 
   3   1   4 1839.15   46.18 
  -3  -1  -4 1709.24   51.96 
   1  -4   4 1740.13   55.90 
  -4   1   4 1702.30   52.09 
  -3  -1  -4 1778.81   51.41 
   4  -3  -4 1752.27   56.95 
   4  -1  -4 1704.19   58.15 
  -3  -1  -4 1701.85   48.46 
   5  -3  -4 1277.91   45.36 
  -3   5  -4 1282.62   49.40 
   5  -2  -4 1276.24   42.57 
  -5   2   4 1305.92   50.04 
  -5   3   4 1324.83   46.27 
  -3  -2  -4 1284.57   45.46 
  -5   3   4 1325.00   51.02 
  -5   2   4 1315.96   48.70 
   5  -2  -4 1220.92   53.25 
   3  -5   4 1291.18   52.92 
  -2  -3  -4 1344.94   49.05 
  -5   2   4 1348.29   50.80 
  -2   5  -4 1319.98   52.17 
   2   3   4 1292.85   45.68 
   5  -3  -4 1271.27   54.67 
  -5   3   4 1320.30   49.52 
   3   2   4 1337.84   48.42 
  -3  -2  -4 1338.04   46.07 
   2  -5   4 1353.34   53.21 
  -3   6  -4  198.63   22.61 
  -6   3   4  190.61   20.82 
   6  -3  -4  186.29   18.37 
  -3  -3  -4  193.66   19.69 
   6  -3  -4  196.25   23.82 
  -6   3   4  206.72   22.71 
   3   3   4  176.91   19.09 
   3  -6   4  176.32   21.82 
  -6   3   4  217.51   21.71 
  -2   4   4  579.60   25.32 
   4  -2   4  590.58   28.55 
   2  -4  -4  585.12   26.90 
  -2  -2   4  599.05   27.88 
  -4   2  -4  573.73   25.30 
  -2  -2   4  565.75   23.96 
   2   2  -4  567.11   25.63 
  -4   2  -4  565.59   28.29 
  -4   2  -4  591.53   27.81 
   4  -2   4  590.09   27.86 
  -2  -2   4  588.58   32.06 
   2  -4  -4  571.11   28.29 
   3  -4  -4 1458.73   48.73 
  -3   4   4 1470.22   48.14 
  -4   3  -4 1488.72   42.55 
   3  -4  -4 1513.00   42.53 
  -4   1  -4 1437.98   46.73 
  -3  -1   4 1546.00   44.70 
  -3  -1   4 1468.27   53.61 
  -4   1  -4 1386.82   47.03 
  -3   4   4 1603.99   45.53 
  -4   1  -4 1532.32   50.97 
  -1   4   4 1508.24   42.81 
   1  -4  -4 1527.09   50.00 
  -1  -3   4 1573.65   41.84 
   1   3  -4 1543.65   48.43 
   4  -3   4 1549.10   50.17 
   4  -3   4 1477.15   44.06 
   1  -4  -4 1480.07   42.97 
  -4   3  -4 1535.52   47.10 
  -3  -1   4 1472.66   47.55 
  -3  -1   4 1513.46   45.56 
   4  -1   4 1581.31   45.46 
  -4   1  -4 1553.73   42.03 
  -4   3  -4 1448.36   43.55 
  -1  -3   4 1445.78   52.01 
  -4   0  -4 1313.55   47.99 
  -4   0   4 1313.09   48.04 
   4  -4  -4 1385.02   51.32 
   0  -4   4 1356.89   52.49 
  -4   4   4 1315.56   44.23 
   0  -4  -4 1294.12   49.32 
  -4   0  -4 1346.44   41.07 
  -4   0  -4 1271.76   48.44 
  -4   0   4 1361.95   46.30 
  -4   0   4 1353.53   47.49 
   0   4  -4 1344.01   50.37 
   4   0   4 1386.58   43.60 
   0   4   4 1343.78   42.86 
   4  -4   4 1285.52   49.87 
   4  -4   4 1374.83   40.44 
  -4   0  -4 1270.39   47.83 
   4   0  -4 1405.37   54.14 
  -4   4  -4 1326.34   45.84 
  -4   4  -4 1359.44   44.38 
  -4   4   4 1292.34   48.11 
   0  -4  -4 1445.56   43.42 
   4   0  -4 1298.57   35.65 
  -5   4   4  370.31   27.57 
   5  -1  -4  323.54   19.98 
  -5   1   4  316.68   26.14 
   4  -5   4  351.60   28.25 
   5  -1  -4  342.54   28.82 
   5  -4  -4  372.06   25.56 
  -4  -1  -4  360.44   22.61 
   1   4   4  342.19   23.24 
  -5   4   4  360.36   25.64 
  -5   1   4  370.15   26.96 
  -5   1   4  320.14   25.22 
  -4   5  -4  329.83   25.00 
  -4  -1  -4  322.61   25.00 
  -4  -1  -4  276.70   23.47 
  -1  -4  -4  338.06   26.27 
   5  -4  -4  292.67   26.71 
   1  -5   4  350.69   28.41 
  -1   5  -4  292.36   25.44 
  -6   4   4  721.28   37.27 
  -2  -4  -4  672.14   39.37 
   2  -6   4  664.72   41.95 
  -4   6  -4  688.37   40.17 
   6  -2  -4  672.48   33.41 
   4   2   4  653.65   38.64 
  -6   2   4  614.96   38.19 
  -6   2   4  697.29   40.54 
   6  -4  -4  724.85   37.85 
   6  -4  -4  640.58   42.96 
  -6   4   4  666.70   40.94 
  -6   2   4  688.58   40.01 
  -2   6  -4  711.13   43.04 
   4  -6   4  664.34   42.00 
  -6   4   4  633.45   37.45 
  -4  -2  -4  687.50   38.35 
   6  -2  -4  626.94   41.35 
  -3   7  -4  493.60   38.89 
   7  -4  -4  592.06   37.59 
  -7   4   4  554.68   35.41 
   4  -7   4  503.31   39.32 
   7  -3  -4  513.04   40.54 
  -7   4   4  567.14   40.49 
  -7   3   4  569.39   38.99 
   7  -3  -4  567.90   34.95 
  -7   3   4  497.94   37.87 
  -3  -4  -4  630.61   40.20 
  -4   7  -4  563.79   40.18 
   3  -7   4  526.18   41.23 
  -7   4   4  552.07   37.78 
  -7   3   4  529.93   37.14 
   4   3   4  532.91   37.16 
   7  -4  -4  485.77   40.59 
  -3   5   4 1250.14   45.96 
  -5   3  -4 1193.26   47.34 
  -2  -3   4 1289.22   43.97 
   2  -5  -4 1194.55   48.56 
   3  -5  -4 1265.18   47.13 
   5  -3   4 1243.76   49.09 
   5  -2   4 1211.71   46.82 
  -5   2  -4 1258.95   48.47 
  -5   3  -4 1190.53   44.33 
  -2  -3   4 1187.85   51.69 
   2   3  -4 1314.38   46.14 
  -3   5   4 1175.39   40.23 
  -3  -2   4 1312.10   43.27 
  -5   2  -4 1168.01   45.14 
  -3  -2   4 1223.66   46.38 
  -3   5   4 1202.48   47.77 
   5  -3   4 1217.71   45.47 
  -3  -2   4 1319.70   54.66 
   2  -5  -4 1237.57   45.19 
   4   1  -4  703.58   40.36 
  -4   5   4  770.15   34.45 
  -5   1  -4  715.95   37.87 
   1  -5  -4  722.55   39.10 
   5  -4   4  727.23   38.42 
  -5   1  -4  836.69   40.93 
   5  -1   4  791.55   36.89 
  -5   4  -4  811.31   33.75 
  -5   1  -4  846.10   41.56 
   1  -5  -4  825.60   36.51 
  -4  -1   4  787.04   37.21 
  -1  -4   4  708.00   40.88 
   5  -4   4  820.61   35.45 
  -5   4  -4  747.62   37.01 
  -4   5   4  750.06   39.10 
   4   1  -4  771.82   25.30 
   4  -5  -4  792.09   40.20 
  -4  -1   4  727.86   38.60 
   1   4  -4  797.13   39.90 
  -4  -1   4  752.31   35.41 
   5   0  -4  983.29   33.59 
   5  -5  -4 1013.74   50.42 
  -5   0   4  879.83   44.34 
  -5   0  -4  945.62   46.82 
  -5   0  -4  988.46   47.67 
   0  -5  -4  885.62   46.67 
  -5   0   4  961.14   43.37 
   0  -5   4  973.87   49.80 
  -5   0   4  973.15   45.88 
  -5   0  -4  990.73   47.09 
   5  -5   4 1016.29   48.47 
  -5   5   4  977.78   46.93 
   5   0  -4  975.42   50.86 
   0   5  -4  992.33   48.33 
  -5   5  -4  995.51   42.68 
  -5   5   4  970.47   41.56 
  -1   6  -4  549.73   39.55 
  -5  -1  -4  654.78   39.71 
  -6   1   4  611.48   39.70 
   1  -6   4  587.52   40.76 
   6  -1  -4  606.64   30.12 
   6  -1  -4  618.74   41.89 
  -6   1   4  646.64   38.58 
   5  -6   4  676.64   42.84 
  -1  -5  -4  655.88   41.47 
  -6   5   4  614.90   35.39 
  -6   1   4  605.51   39.39 
  -5  -1  -4  695.26   41.54 
   6  -5  -4  651.20   44.54 
  -6   5   4  608.43   40.28 
  -7   5   4  355.59   29.72 
  -7   2   4  296.90   30.03 
   2  -7   4  320.06   31.99 
  -2  -5  -4  308.35   30.81 
   7  -2  -4  318.20   25.68 
   7  -5  -4  406.39   38.12 
  -7   5   4  301.80   31.24 
  -7   2   4  377.61   32.36 
  -7   2   4  339.95   32.17 
   5  -7   4  364.49   33.88 
  -2   7  -4  313.36   32.41 
   7  -2  -4  287.43   31.01 
   5   2   4  325.44   29.87 
   5   2   4  330.38   31.67 
  -6   3  -4  170.38   20.38 
  -3  -3   4  200.88   19.89 
  -3   6   4  199.94   22.25 
   6  -3   4  203.51   22.15 
  -3   6   4  197.07   20.53 
  -6   3  -4  210.71   20.63 
   6  -3   4  215.13   21.44 
   3  -6  -4  191.86   20.24 
  -3  -3   4  163.51   22.17 
  -6   2  -4  852.93   44.08 
  -2  -4   4  857.15   47.44 
   4   2  -4  824.72   24.87 
  -6   4  -4  842.72   43.38 
  -4   6   4  818.12   42.29 
   6  -2   4  822.27   45.54 
  -4  -2   4  906.59   41.57 
   6  -4   4  847.91   41.40 
  -4  -2   4  834.81   42.66 
   6  -2   4  872.51   43.91 
   2   4  -4  871.59   43.04 
  -6   2  -4  785.25   45.09 
  -6   4  -4  833.01   40.30 
   4  -6  -4  828.70   45.33 
  -2   6   4  785.71   45.10 
   4   2  -4  903.45   49.87 
   6  -4   4  839.10   46.11 
   5   1  -4  801.95   28.52 
  -6   1  -4  748.92   43.98 
  -6   1  -4  770.68   45.29 
   1  -6  -4  797.12   45.78 
  -6   5  -4  846.20   43.69 
   5  -6  -4  860.95   48.78 
  -5   6   4  812.60   44.04 
  -6   1  -4  773.97   45.68 
  -5  -1   4  742.40   43.04 
   6  -5   4  717.57   44.14 
   5   1  -4  762.71   45.99 
  -5  -1   4  775.33   42.60 
   1   5  -4  781.23   44.34 
  -5  -1   4  832.30   43.07 
  -1  -5   4  790.36   48.03 
   0   6  -4  141.23   21.73 
   6  -6   4  143.99   21.70 
   0  -6  -4  131.61   24.15 
  -6   0   4  122.91   22.43 
  -6   0   4  158.34   21.22 
  -6   0  -4  174.45   23.48 
   6   0  -4  160.39   22.34 
   6  -6  -4  172.56   26.55 
   6   0  -4  159.58   14.96 
  -6   0   4  129.11   19.23 
  -6   6   4  118.64   22.35 
   0  -6   4  142.08   22.74 
  -7   6   4  543.96   41.17 
  -7   1   4  509.71   40.10 
  -7   1   4  474.87   38.88 
   4   3  -4  500.28   40.02 
  -7   3  -4  445.56   37.07 
  -4   7   4  463.92   33.07 
  -7   4  -4  530.81   38.13 
   4   3  -4  488.73   17.85 
  -7   4  -4  512.43   34.72 
  -7   3  -4  512.55   36.35 
   7  -3   4  511.69   37.43 
  -3   7   4  532.79   38.62 
   4  -7  -4  488.55   36.91 
   7  -3   4  507.45   38.14 
  -3  -4   4  516.01   41.93 
   7  -4   4  505.78   35.35 
  -4  -3   4  485.93   34.81 
   7  -4   4  494.03   39.10 
   7  -5   4  151.22   21.75 
  -2   7   4  154.60   23.62 
   2   5  -4  143.64   24.21 
   5   2  -4  166.98   12.26 
  -7   2  -4  164.89   21.91 
  -5   7   4  147.18   20.22 
  -7   5  -4  137.52   20.17 
  -2  -5   4  187.63   27.39 
   5  -7  -4  149.62   26.77 
  -7   2  -4  148.65   22.77 
   7  -2   4  169.54   22.24 
   5   2  -4  172.50   23.01 
  -5  -2   4  111.99   21.59 
  -7   1  -4  306.76   32.35 
  -6  -1   4  329.76   31.36 
   6   1  -4  398.30   37.08 
  -7   6  -4  342.66   29.89 
  -6  -1   4  327.54   31.54 
  -6   7   4  391.61   33.12 
  -1  -6   4  376.37   36.42 
   0   0   5   -1.63    2.32 
   0   0  -5   -2.35    2.59 
   0   0   5   -0.70    2.27 
   1  -1  -5  626.52   20.34 
   1  -1   5  601.07   19.57 
   1   0   5  597.30   13.14 
   0  -1  -5  629.41   19.19 
   1  -1  -5  600.56   20.34 
   0   1  -5  583.62   21.31 
   0  -1   5  618.47   16.13 
   1   0   5  620.90   20.70 
  -1   1   5  611.11   21.44 
  -1   0   5  615.09   22.99 
   1   0   5  600.45   21.02 
  -1   1  -5  592.60   22.87 
   0  -1  -5  617.60   11.28 
   0  -1  -5  597.91   22.75 
   1  -1   5  625.25   21.34 
   0  -1   5  633.70   21.30 
   1  -1   5  591.88   17.39 
   1   0  -5  595.77   18.92 
   0   1   5  636.92   22.09 
   1  -1  -5  611.35   20.03 
   0  -1   5  607.31   22.01 
  -1   0   5  607.35   20.00 
  -1   0   5  617.77   22.24 
  -1   0  -5  578.20   23.55 
  -1   2  -5    1.53    3.48 
   1  -2   5    2.84    3.68 
  -1  -1  -5    0.51    3.13 
   1   1   5   -4.21    2.69 
  -2   1   5   -1.12    3.07 
   1  -2   5    0.12    1.57 
  -2   1   5    1.31    3.45 
   1  -2   5    0.97    2.96 
   2  -1  -5    5.54    4.19 
  -2   1   5    2.48    3.25 
   1   1   5    0.37    3.18 
   2  -1  -5    3.06    2.51 
   2  -1  -5   -0.84    2.48 
   1  -2  -5   -2.71    1.67 
  -1  -1   5    0.03    1.99 
  -2   1  -5    6.96    4.20 
  -1  -1   5   -3.57    3.12 
  -1  -1   5   -2.00    3.17 
   1   1  -5   -3.78    2.32 
   1  -2  -5    1.59    3.04 
   1  -2  -5    0.18    2.77 
  -2   1  -5    0.07    2.44 
  -2   1  -5   -0.35    3.30 
  -1   2   5    1.50    3.46 
   2  -1   5    2.08    3.13 
   2  -1   5    1.68    2.80 
  -2   2   5  406.94   16.80 
   2   0   5  406.32   19.71 
  -2   0  -5  396.95   20.38 
  -2   0   5  443.55   23.68 
   2  -2   5  423.37   20.30 
   2  -2  -5  404.96   15.99 
  -2   0  -5  415.26   19.92 
   0   2  -5  387.51   19.93 
  -2   2  -5  381.61   20.23 
   0   2   5  374.18   19.15 
   0  -2   5  422.16   18.65 
   2  -2   5  431.19   19.37 
   0  -2  -5  382.03   20.34 
   2   0  -5  404.63   14.37 
   0  -2  -5  408.09   12.73 
  -2   2  -5  406.03   14.64 
  -2   2   5  385.71   19.72 
   2  -2  -5  383.13   19.36 
   2  -2  -5  377.65   18.41 
   0  -2   5  406.73   21.96 
  -2   0   5  405.43   20.36 
  -2   0   5  406.28   17.65 
  -2   0   5  371.37   18.00 
   2   0   5  403.32   14.11 
   0  -2   5  398.84   10.40 
  -3   2   5  302.41   19.26 
   2  -3   5  310.93   16.36 
  -2   3  -5  289.00   19.80 
   2   1   5  315.00   18.54 
   2  -3   5  324.99   10.05 
  -2  -1  -5  268.95   18.52 
   1   2   5  314.29   16.03 
   1  -3   5  306.56   20.75 
   3  -2  -5  301.03   20.85 
   2   1   5  287.59   12.78 
  -3   1   5  271.24   17.52 
   2  -3   5  328.78   20.71 
  -1  -2  -5  303.20   12.05 
  -3   1   5  289.78   18.85 
   2   1   5  312.53   19.25 
   1   2   5  285.82   13.48 
  -3   2   5  305.20   17.88 
  -1   3  -5  273.48   18.98 
   3  -2  -5  294.27   17.65 
   3  -1  -5  260.63   20.23 
  -3   2   5  289.04   18.50 
   1  -3   5  320.53   15.64 
  -1  -2  -5  270.97   19.07 
   3  -1  -5  271.07   15.99 
   1   2   5  317.55   19.31 
  -3   1   5  299.83   19.04 
   2  -4   5    0.20    4.10 
   4  -2  -5    2.81    3.82 
   2   2   5    8.65    5.80 
  -4   2   5    2.19    5.11 
  -2   4  -5   19.76    7.50 
   4  -2  -5   -3.78    3.10 
  -4   2   5    4.20    5.36 
  -4   2   5    3.05    4.22 
   2   2   5   -2.30    2.90 
  -2  -2  -5   -0.03    4.02 
  -3   1  -5  380.54   20.79 
   3  -2   5  335.48   19.75 
   3  -1   5  318.15   19.68 
   3  -2   5  335.10   19.25 
  -3   2  -5  375.86   18.45 
  -1  -2   5  341.31   22.90 
  -1  -2   5  351.81   14.61 
   1  -3  -5  340.38   16.69 
   3  -1   5  376.41   17.93 
  -3   1  -5  338.17   19.42 
  -3   2  -5  366.70   19.22 
   2  -3  -5  327.56   17.84 
  -2  -1   5  370.74   16.51 
   2  -3  -5  383.41   18.87 
  -1  -2   5  358.16   19.32 
   2  -3  -5  329.78   18.54 
  -2  -1   5  365.61   21.30 
  -1   3   5  379.13   20.20 
  -3   2  -5  324.78   19.62 
  -2   3   5  386.48   20.41 
  -2  -1   5  382.94   18.91 
  -2  -1   5  334.47   23.18 
   1   2  -5  359.41   20.00 
   2   1  -5  357.77   16.84 
   1  -3  -5  337.82   20.02 
  -3   1  -5  337.64   20.01 
   3   0  -5    3.16    3.15 
  -3   0  -5    1.37    3.72 
  -3   3   5   -1.01    3.61 
  -3   3  -5   -2.06    3.64 
   3   0  -5    1.03    4.90 
   3  -3  -5    0.53    3.62 
  -3   0  -5   -4.28    2.71 
   0   3   5    2.30    4.19 
  -3   3   5    3.93    4.44 
  -3   3  -5    1.00    2.84 
   0  -3  -5   -0.15    3.28 
   3  -3   5    0.96    4.37 
   0  -3   5   -1.09    3.76 
  -3   0  -5    7.27    5.45 
   3  -3  -5    1.27    3.36 
   3   0   5    2.73    3.26 
  -3   0   5   -0.69    3.55 
  -3   0   5    1.10    3.84 
   3   0   5   -2.74    3.91 
   3  -3  -5   -2.37    2.71 
   0  -3  -5   15.09    6.39 
  -3   0   5   -2.83    3.41 
   3  -3   5   -0.62    3.79 
  -3   3  -5   -1.55    4.61 
   0   3  -5   -2.23    3.30 
  -3   3   5    2.55    3.85 
   0  -3   5    2.31    3.91 
   4  -3  -5  256.02   18.62 
  -4   3   5  242.33   20.31 
  -3  -1  -5  245.46   19.77 
   3   1   5  254.87   20.62 
   1  -4   5  242.60   20.75 
  -1   4  -5  236.54   20.62 
  -4   1   5  264.86   20.16 
  -3  -1  -5  231.84   18.33 
   4  -3  -5  248.01   21.77 
  -4   3   5  218.52   17.11 
  -4   1   5  262.18   20.72 
  -4   1   5  279.12   20.89 
   3  -4   5  228.41   20.11 
   4  -1  -5  256.48   16.54 
   3  -4   5  264.62   15.99 
  -3   4  -5  240.22   20.02 
  -1  -3  -5  253.58   20.33 
   4  -1  -5  231.34   21.67 
  -4   3   5  249.41   19.41 
   1   3   5  242.97   18.88 
   3  -5   5  170.74   19.73 
   2  -5   5  175.50   19.72 
  -5   2   5  138.92   17.11 
  -3   5  -5  145.41   17.59 
   5  -2  -5  171.62   20.88 
   5  -3  -5  167.83   19.69 
  -2  -3  -5  220.24   21.12 
  -2   5  -5  127.56   17.05 
   3   2   5  181.05   17.35 
  -5   2   5  166.07   17.66 
   3   2   5  176.95   18.00 
   5  -3  -5  157.59   15.92 
  -5   2   5  154.71   18.18 
   2   3   5  185.66   17.91 
   5  -2  -5  187.60   16.26 
  -5   3   5  176.05   18.18 
  -3  -2  -5  146.56   16.35 
  -5   3   5  170.64   17.65 
  -5   3   5  124.65   16.97 
  -3  -3  -5    9.30    7.48 
  -6   3   5   17.27    8.54 
  -3   6  -5   -2.18    5.89 
   3   3   5   -1.69    6.02 
   6  -3  -5   -2.51    4.59 
   6  -3  -5   -0.14    6.71 
  -6   3   5    4.30    6.72 
  -6   3   5    8.23    5.65 
   3  -6   5   -0.50    6.04 
   2   2  -5    7.01    5.11 
   2  -4  -5   -2.02    3.47 
  -2  -2   5    1.14    4.29 
   4  -2   5    4.73    4.54 
  -2  -2   5   -7.59    3.06 
  -4   2  -5    2.52    4.74 
  -2   4   5    2.98    4.32 
   2  -4  -5    2.11    3.83 
  -2  -2   5    2.33    4.55 
  -4   2  -5    4.53    4.54 
  -4   2  -5    1.32    4.56 
   4  -2   5   -0.82    4.24 
  -3  -1   5  195.14   20.85 
   1  -4  -5  240.60   20.21 
  -4   3  -5  271.94   19.37 
  -3   4   5  259.55   18.97 
  -4   3  -5  210.40   17.46 
  -3  -1   5  227.95   17.78 
   3  -4  -5  203.87   18.09 
   3  -4  -5  251.25   17.64 
   1   3  -5  264.57   19.91 
  -3   4   5  218.69   19.64 
   4  -3   5  246.81   19.42 
  -4   1  -5  217.66   18.45 
   4  -3   5  223.60   17.71 
  -4   1  -5  225.18   16.96 
  -4   3  -5  220.94   15.89 
  -1  -3   5  252.50   22.08 
  -4   1  -5  274.19   20.86 
   4  -1   5  237.50   17.54 
  -3  -1   5  253.43   19.93 
  -3  -1   5  235.39   16.43 
  -1   4   5  258.01   18.52 
   4  -1   5  214.57   18.82 
  -1  -3   5  207.50   16.00 
   0   4  -5  219.00   20.60 
   4  -4   5  208.66   16.95 
  -4   0   5  170.87   17.40 
  -4   0  -5  188.73   16.25 
   0  -4  -5  184.93   19.38 
  -4   4  -5  232.25   18.51 
  -4   4   5  219.65   18.77 
  -4   0   5  236.48   19.01 
  -4   0   5  192.40   18.24 
  -4   0  -5  221.86   20.51 
   4   0  -5  203.45   14.25 
   4  -4  -5  211.99   20.07 
   4  -4   5  217.07   20.08 
   0  -4   5  226.17   21.97 
   4   0  -5  243.51   23.18 
   0   4   5  231.09   18.20 
  -4   4   5  215.30   20.84 
  -4   4  -5  228.26   19.36 
  -4   0  -5  235.37   20.31 
  -1  -4  -5    3.03    5.53 
  -5   4   5    6.53    7.29 
  -4  -1  -5    1.87    5.80 
   1  -5   5   -1.90    4.28 
  -1   5  -5   -2.06    5.51 
  -5   1   5   -2.92   10.54 
   5  -1  -5    4.66    4.04 
  -4   5  -5   -0.17    6.27 
   4  -5   5   -6.47    3.35 
  -5   1   5    0.00    5.45 
  -5   4   5    0.56    4.29 
   1   4   5    2.61    5.30 
   5  -4  -5   -5.94    4.83 
   4   1   5  -10.32    6.56 
  -4  -1  -5    3.51    4.69 
  -5   1   5   -2.31    6.48 
   5  -1  -5   -2.82    4.55 
   2   4   5  108.76   18.65 
   6  -4  -5  113.87   22.61 
  -6   2   5  105.36   16.54 
   6  -2  -5   79.40   17.79 
  -4   6  -5  103.48   19.62 
  -6   2   5  108.48   16.47 
   2  -6   5  104.12   20.50 
  -6   4   5  106.60   15.27 
   4  -6   5  103.89   20.38 
  -6   4   5  106.92   20.60 
   4   2   5  118.18   20.66 
   6  -2  -5  116.03   14.52 
  -6   2   5  106.64   19.73 
  -2  -4  -5   68.94   15.75 
  -4  -2  -5   95.76   17.26 
  -2   6  -5  107.21   20.65 
   4   2   5  112.95   16.15 
   7  -3  -5  103.86   22.56 
  -4   7  -5   92.96   22.04 
   7  -3  -5   93.05   18.29 
  -3   7  -5   65.62   17.70 
  -7   4   5   72.78   18.37 
   3  -7   5   46.63   16.61 
  -7   4   5   79.56   17.06 
   4   3   5  108.71   20.48 
   7  -4  -5   70.17   18.92 
  -7   3   5   77.44   17.79 
  -3  -4  -5   74.29   17.34 
  -7   3   5   84.88   19.04 
   4  -7   5   95.52   21.99 
  -7   4   5   81.81   17.84 
  -7   3   5  106.65   20.36 
   2   3  -5  173.97   17.01 
   3  -5  -5  139.50   15.21 
  -2  -3   5  132.58   18.35 
   5  -3   5  149.48   16.24 
   5  -3   5  141.45   16.93 
  -5   2  -5  157.46   16.76 
   2  -5  -5  123.22   14.79 
  -3  -2   5  125.00   15.39 
  -2  -3   5  140.25   15.14 
   2  -5  -5  162.13   17.58 
  -5   2  -5  144.87   17.93 
   3  -5  -5  130.54   15.30 
  -2   5   5  114.85   12.74 
  -5   3  -5  156.52   17.72 
  -3  -2   5   71.51   16.09 
  -5   3  -5  144.52   15.11 
  -3  -2   5  131.30   14.38 
  -3   5   5  145.23   14.41 
   5  -2   5  104.43   15.32 
   5  -2   5  132.06   15.22 
   5  -1   5   -4.27    6.64 
   1   4  -5   -5.34    4.23 
  -1  -4   5   -0.80    6.93 
   5  -4   5   -2.40    5.53 
  -4  -1   5   -5.58    3.86 
  -4   5   5   -1.40    5.95 
  -5   1  -5    4.79    6.91 
   5  -4   5   -4.74    4.08 
  -4  -1   5    3.01    5.28 
  -4  -1   5    5.69    6.67 
  -5   1  -5    2.94    4.30 
  -5   4  -5   -3.75    5.25 
   4   1  -5    7.15    4.02 
  -4   5   5   -2.43    3.74 
   4  -5  -5   -2.15    5.66 
   1  -5  -5    2.30    5.73 
   4   1  -5    1.13    6.49 
  -5   0   5  124.03   17.24 
   0   5  -5  122.08   18.54 
   0  -5   5  134.64   20.31 
   0  -5  -5  117.25   17.52 
   5   0  -5  120.20   12.32 
   5   0  -5  126.75   18.81 
   5  -5  -5   82.83   17.63 
   5  -5   5  144.66   18.82 
  -5   0  -5  117.65   20.36 
  -5   5   5  116.05   15.08 
  -5   5  -5  137.50   17.51 
  -5   0   5  111.12   16.81 
  -5   0   5  126.82   16.74 
  -5   5   5  112.12   17.00 
   5   0   5  127.72   18.98 
   1  -6   5   52.41   16.24 
  -1   6  -5   74.80   18.55 
   5  -6   5   83.45   18.50 
  -5   6  -5   87.47   18.61 
  -5  -1  -5   65.54   16.67 
   6  -5  -5   74.54   19.04 
  -6   1   5   91.56   18.78 
   5   1   5   78.93   16.52 
   6  -1  -5   94.24   19.89 
   6  -1  -5   77.92   13.53 
  -6   1   5   56.21   15.63 
  -6   5   5   63.36   16.39 
  -6   1   5   84.57   17.39 
  -6   5   5   99.26   17.78 
  -1  -5  -5   76.13   18.14 
   7  -2  -5    1.97    6.11 
  -5   7  -5   13.20   10.02 
  -7   5   5   -2.27    5.96 
  -7   2   5  -12.00    7.84 
  -7   2   5    7.77    8.74 
  -2  -5  -5   11.48    8.76 
   5   2   5   -9.97    6.72 
   7  -5  -5    0.35    6.24 
  -2   7  -5   -0.17    8.73 
   5   2   5   13.25    9.93 
  -7   5   5    2.69    7.76 
   5  -7   5    4.88    7.90 
   2  -7   5   -2.85    9.49 
   7  -2  -5    5.19    8.57 
  -7   2   5    1.20    8.92 
  -6   3  -5    2.37    5.21 
  -3   6   5    3.28    6.64 
  -6   3  -5   -3.00    5.36 
   6  -3   5   -0.34    5.75 
  -3  -3   5    2.94    8.41 
  -3  -3   5    1.44    6.86 
   6  -3   5    1.33    7.07 
   3  -6  -5    7.05    6.53 
  -6   2  -5  113.62   16.72 
   6  -4   5  107.94   20.02 
   2   4  -5  100.35   18.24 
  -6   4  -5  129.50   17.46 
  -2  -4   5  115.36   18.49 
   4   2  -5  110.63    9.71 
   4  -6  -5  119.70   17.88 
  -4  -2   5  115.23   17.32 
  -4   6   5  126.53   18.35 
  -4  -2   5  154.43   18.11 
   2  -6  -5  106.12   16.61 
   6  -4   5  131.38   16.77 
   4   2  -5  169.67   22.88 
   6  -2   5  137.08   18.26 
  -6   2  -5  111.12   17.20 
  -6   4  -5  112.09   14.89 
   5   1  -5  109.94   17.67 
   5  -6  -5  129.55   19.39 
  -6   1  -5  126.41   23.49 
   1  -6  -5   95.78   20.09 
  -6   5  -5  106.78   19.02 
  -5  -1   5  115.50   20.97 
   6  -5   5  124.87   18.88 
   1   5  -5   90.75   19.44 
  -5   6   5   91.05   18.42 
  -1  -5   5   73.34   18.31 
  -6   1  -5  120.21   17.90 
  -5  -1   5  129.27   22.09 
   6  -1   5  111.59   20.79 
   5   1  -5  120.65   11.62 
   6  -6  -5   -0.97   10.78 
  -6   0   5   -0.54    6.99 
  -6   0  -5   -7.36    7.06 
   6   0  -5   -0.68    3.98 
   0   6  -5    1.41    7.89 
   0  -6  -5  -12.91    6.54 
   0  -6   5   -5.26    8.55 
  -6   0   5    1.58    6.62 
  -6   6   5   -3.40    5.91 
  -6   0   5    7.31    8.09 
   6   0   5   12.07    8.38 
   6   0  -5    3.15    6.19 
   6  -6   5   -0.44    6.41 
   6   1   5   50.38   15.44 
  -7   1   5   99.05   20.95 
  -7   6   5   55.22   16.80 
  -7   1   5   64.20   17.49 
   7  -4   5  147.78   19.85 
  -7   4  -5   80.94   17.21 
  -4   7   5   70.76   16.58 
   4   3  -5  105.42   23.65 
  -7   3  -5   88.13   18.11 
   7  -3   5   87.42   18.90 
  -3  -4   5   89.14   22.43 
  -3   7   5   76.87   18.04 
   7  -4   5   88.27   20.28 
  -3   7   5   81.37   18.64 
  -7   4  -5   76.86   17.98 
   4   3  -5   76.68    8.54 
  -4  -3   5   63.42   16.55 
  -7   3  -5   94.36   19.92 
   2   5  -5  -15.71    6.49 
   7  -2   5   -4.23    5.91 
   5  -7  -5  -14.00    9.26 
   5   2  -5   21.93   10.02 
   5   2  -5   10.35    4.46 
  -7   2  -5   -2.19    6.99 
   7  -5   5   -2.49    7.28 
  -7   5  -5    5.75    8.61 
  -7   2  -5    3.88    8.66 
  -2   7   5    7.27    9.94 
  -2  -5   5   -1.90   10.51 
  -5   7   5   -3.22    6.09 
  -5  -2   5   16.00    9.06 
  -6  -1   5   54.84   16.76 
  -6  -1   5   50.76   15.89 
  -6   7   5   69.08   17.15 
   7  -1   5   62.25   18.67 
   0   0   6 2444.77   44.93 
   0   0   6 2499.40   48.03 
   0   0   6 2479.42   42.37 
   0   0  -6 2501.41   50.17 
  -1   1   6  130.66   10.62 
   1  -1  -6  107.36    9.52 
  -1   1   6  120.70   10.72 
   0  -1  -6  116.37    9.45 
   0  -1  -6  120.73    4.90 
   1  -1  -6  115.31   10.11 
   1  -1   6  103.37    8.79 
   0   1   6  119.21   10.55 
  -1   0  -6  126.34   12.18 
   0  -1  -6  115.93   10.96 
  -1   0   6  106.33    9.22 
   1   0   6  116.34    5.98 
   0   1   6  117.15   10.43 
   1   0   6  103.21    9.36 
   1   0  -6  113.94    9.54 
  -1   1  -6  115.10   11.12 
  -1   0   6  111.30   10.48 
   1  -1  -6  123.13    9.62 
   1   0   6  102.58   10.02 
   0   1  -6  118.64   10.54 
   0  -1   6  110.23   10.33 
   0  -1   6  113.60   10.05 
   1  -1   6  126.92   11.25 
   0  -1   6  106.12    7.57 
   1  -1   6  101.13    8.17 
  -1   0   6  118.68   10.97 
   2  -1  -6   61.57    8.90 
  -1   2  -6   74.75   10.07 
  -2   1   6   59.66    8.69 
  -1  -1  -6   77.43   10.01 
   1  -2   6   61.14    4.93 
   1   1   6   64.33    9.01 
   1   1   6   68.13    8.46 
  -2   1   6   58.97    7.97 
   2  -1  -6   69.01    6.81 
   2  -1  -6   61.29    7.73 
   1  -2   6   64.61    8.76 
  -2   1   6   56.40    9.98 
   1   1  -6   44.14    6.96 
   2  -1   6   41.31    8.53 
   1  -2  -6   46.51    6.40 
  -1  -1   6   57.62   10.87 
  -1  -1   6   48.35    6.12 
   1  -2  -6   38.33    7.81 
   1  -2  -6   33.27    4.85 
  -2   1  -6   50.73    7.59 
   2  -1   6   43.53    6.56 
   2  -1   6   46.69    6.29 
  -2   1  -6   45.82    9.30 
  -1  -1   6   47.87    9.31 
  -1   2   6   31.43    7.23 
  -2   0   6  133.73   10.54 
  -2   0   6  152.76   12.48 
   2   0  -6  157.96   10.20 
   0  -2   6  169.92    8.02 
   2  -2  -6  153.61   12.64 
  -2   0   6  156.83   15.30 
   2   0   6  149.26   12.64 
   2  -2  -6  165.98   12.76 
   2   0   6  163.53   13.31 
   2   0   6  164.88    8.92 
  -2   2  -6  157.77   14.04 
   0  -2  -6  167.86    7.37 
   2  -2   6  169.11   13.23 
   0  -2  -6  181.71   15.30 
  -2   0   6  135.98   13.01 
   2  -2  -6  183.43   11.30 
   2  -2   6  161.21   10.22 
   0  -2   6  175.35   15.14 
  -2   2   6  172.92   12.09 
   2  -2   6  150.35   12.53 
   0  -2   6  161.81   12.78 
  -2   2   6  166.09   13.75 
   0   2  -6  155.80   13.43 
   0   2   6  154.68   13.57 
  -2   0  -6  165.77   14.55 
   0   2   6  156.65   11.44 
  -3   1   6   72.96   11.16 
   2  -3   6   69.43    9.27 
  -3   2   6   57.68   10.85 
   3  -2  -6   91.03   10.34 
   1  -3   6  101.96   10.26 
   3  -2  -6   60.69   11.86 
   2   1   6   68.61    9.38 
  -2   3  -6   73.03   11.12 
  -3   2   6   69.00   10.25 
   1  -3   6   65.68   10.53 
  -1  -2  -6   36.92    9.48 
  -2  -1  -6   77.75   11.28 
  -3   1   6   64.19    9.44 
  -1   3  -6   84.81   12.10 
   2   1   6   67.17   10.13 
  -3   2   6   80.18   10.60 
   1   2   6   70.82    8.69 
   3  -1  -6   73.50    9.27 
   1   2   6   71.19   10.00 
  -3   1   6   68.72    9.36 
   2  -3   6   66.69   10.51 
   3  -1  -6   76.42   13.96 
  -4   2   6   44.43   10.53 
  -2   4  -6   36.84   10.08 
   4  -2  -6   36.82   11.48 
   2   2   6   55.41   10.96 
  -2  -2  -6   66.66   13.65 
  -4   2   6   24.00    8.24 
  -4   2   6   42.77   10.42 
   4  -2  -6   50.35   10.07 
   2  -4   6   36.15   10.06 
   2   2   6   42.08    9.91 
  -2  -1   6  104.33   10.76 
  -1  -2   6   90.70   12.62 
  -1  -2   6   71.79    7.34 
  -3   1  -6   70.68    9.32 
   3  -2   6   61.88    9.83 
  -1  -2   6   58.20    9.23 
  -2  -1   6   57.91    7.47 
  -3   1  -6   75.87   10.78 
  -1   3   6   79.01   10.32 
   3  -1   6   96.01    9.62 
   2  -3  -6   75.91    9.18 
   1  -3  -6   69.19    7.99 
  -2  -1   6   71.42   10.74 
   3  -2   6   80.64   10.22 
   1  -3  -6   87.43   11.32 
   3  -1   6   83.22   11.27 
   1   2  -6   83.14   10.11 
  -2   3   6   74.95   10.16 
  -2  -1   6   81.30   14.92 
   2  -3  -6   88.73    9.91 
  -3   1  -6   69.68    9.99 
  -3   2  -6   52.48    7.81 
  -3   2  -6   65.14    9.55 
   2   1  -6   67.84    8.46 
  -3   2  -6   82.64   11.08 
   2  -3  -6   83.30    9.86 
   3  -3  -6  735.24   32.39 
  -3   0   6  759.19   29.92 
   3   0  -6  734.06   26.74 
  -3   3   6  745.50   26.62 
  -3   3  -6  748.56   33.81 
   0  -3  -6  669.46   32.98 
   0   3   6  692.05   30.89 
  -3   0  -6  754.64   32.52 
   3   0  -6  699.81   36.38 
   3  -3   6  734.36   32.63 
  -3   0   6  751.57   31.38 
   0   3  -6  699.28   32.22 
  -3   3   6  723.87   33.61 
   0  -3   6  694.45   34.28 
   3  -3   6  786.75   30.66 
  -3   0  -6  724.26   31.78 
   0  -3   6  738.16   27.90 
   3   0   6  805.18   25.14 
  -3   3  -6  768.82   26.96 
   3   0   6  701.99   31.56 
  -3   0   6  759.57   33.64 
  -3   3  -6  770.52   23.65 
   3  -3  -6  783.55   31.35 
  -3   3   6  740.98   32.76 
   3  -3  -6  724.47   24.36 
   4  -3  -6   39.83   11.18 
  -4   3   6   29.19    9.51 
   1  -4   6   16.35    7.17 
   4  -1  -6   22.45    6.58 
  -4   1   6    9.32    6.19 
  -4   1   6   21.58    7.93 
  -3   4  -6   25.99    8.56 
   3  -4   6   21.80    8.35 
  -1   4  -6    8.49    6.32 
   3   1   6   28.07    8.88 
   3  -4   6   25.51    7.36 
   3   1   6   16.35    6.87 
   1   3   6   24.19    8.02 
  -3  -1  -6   22.71    7.37 
  -4   3   6   30.14    8.49 
   4  -1  -6   23.07    9.71 
  -1  -3  -6   40.84   10.78 
  -4   3   6   26.05    8.22 
  -4   1   6   35.51    9.71 
   4  -3  -6   28.69    8.31 
  -5   3   6   35.14   10.87 
   5  -2  -6   22.98   10.72 
   5  -3  -6   73.88   16.31 
  -2   5  -6   49.25   12.84 
   2  -5   6   41.93   11.87 
   2   3   6   49.97   11.87 
   5  -3  -6   38.91    9.88 
   3   2   6   68.91   14.39 
  -3   5  -6   62.09   15.02 
  -5   3   6   83.24   15.86 
  -5   3   6   39.69   11.41 
   5  -2  -6   62.11   11.93 
  -5   2   6   48.08   12.50 
  -2  -3  -6   70.55   14.54 
   3  -5   6   33.70   11.00 
   3   2   6   74.57   14.48 
  -5   2   6   33.99   10.54 
  -3  -2  -6   62.38   13.97 
  -5   2   6   81.44   15.63 
  -3  -3  -6  236.43   22.87 
  -3   6  -6  222.89   25.34 
   6  -3  -6  211.62   20.26 
  -6   3   6  208.49   22.71 
   3   3   6  239.10   23.67 
   6  -3  -6  204.85   24.57 
  -6   3   6  208.91   21.07 
  -6   3   6  241.38   24.48 
   3  -6   6  185.75   23.18 
   2  -4  -6   57.09   10.45 
   2  -4  -6   57.36   11.29 
  -4   2  -6   64.47   13.22 
   4  -2   6   60.86   11.79 
  -2  -2   6   49.81   12.54 
  -4   2  -6   48.14   10.62 
  -2   4   6   72.88   12.54 
  -4   2  -6   45.38    9.94 
   4  -2   6   47.66   10.69 
   2   2  -6   67.43    9.68 
  -2  -2   6   45.31   10.39 
   3  -4  -6   30.57    8.99 
   4  -3   6   28.73    9.05 
  -3   4   6   20.21    8.84 
  -4   1  -6   29.02    9.21 
  -3  -1   6   14.66    8.18 
  -4   1  -6   23.94    7.84 
   1  -4  -6   24.57    7.36 
   3  -4  -6   24.69    8.38 
  -3  -1   6   35.27    8.73 
  -4   3  -6   32.65    9.08 
  -4   1  -6   20.87    6.77 
  -4   3  -6   31.81    7.58 
  -3  -1   6   22.99    8.26 
  -3  -1   6   38.09    9.41 
   1  -4  -6   24.65    9.06 
  -3   4   6   23.96    7.05 
   4  -1   6   12.19    6.96 
  -1  -3   6   29.25    8.75 
   4  -3   6   23.63    8.08 
  -4   3  -6   29.59    9.61 
  -1  -3   6   24.22    9.39 
  -1   4   6   16.30    7.37 
   4  -1   6   25.23    7.20 
   1   3  -6   17.73    7.09 
  -4   0   6    2.85    5.50 
  -4   4   6   12.53    6.97 
  -4   4  -6   12.56    6.98 
  -4   0   6   20.46    7.29 
  -4   0  -6    6.18    5.23 
  -4   4   6    7.85    8.49 
   4  -4   6    8.41    6.24 
   0   4   6   13.79    6.90 
  -4   0  -6    5.05    6.20 
  -4   4  -6    2.30    5.75 
   0  -4  -6   18.04    7.62 
   4  -4  -6    0.72    5.33 
   0   4  -6   11.28    7.05 
   4   0   6   11.86    7.22 
   4   0  -6   19.66    6.52 
   0  -4   6   14.33    7.80 
   4   0  -6   12.68    8.69 
   4  -4   6   17.65    7.07 
  -4   0   6   18.30    7.70 
   4   1   6   41.19   12.80 
  -5   1   6   45.53   12.96 
   5  -4  -6   31.88   11.90 
  -5   1   6   49.52   12.36 
   1   4   6   30.13    9.80 
   5  -1  -6   36.56    9.34 
  -4   5  -6   43.42   13.09 
   5  -1  -6   42.64   13.40 
   1  -5   6   35.62   12.03 
  -1   5  -6   36.95   12.25 
   4  -5   6   35.17   11.04 
  -4  -1  -6   38.25   10.49 
  -5   1   6   42.26   12.07 
  -1  -4  -6   31.31   10.51 
  -5   4   6   33.16   10.64 
  -5   4   6   33.89   11.57 
  -2   6  -6   15.65    9.16 
   2  -6   6    5.13    7.72 
   2   4   6   26.03   10.84 
  -4  -2  -6   -4.78    5.78 
  -2  -4  -6   16.03    9.33 
  -4   6  -6    3.68    7.23 
   4   2   6    7.16    8.42 
   4  -6   6    6.41    7.56 
   6  -2  -6   15.00    9.41 
  -6   4   6   17.78   10.19 
  -6   2   6   10.76    8.48 
  -6   4   6   15.20    7.15 
  -6   2   6    6.10    8.01 
   6  -4  -6   15.00    9.46 
  -6   2   6    4.94    8.03 
   6  -2  -6   21.95    8.30 
   4   2   6    1.44    6.51 
   4   3   6    7.15    9.49 
  -7   3   6   -2.58    6.23 
   3  -7   6   -2.28    7.44 
  -7   4   6   10.83    8.50 
   7  -3  -6    2.97    9.27 
  -7   3   6   12.64    7.49 
  -3   7  -6    5.35   10.23 
  -3  -4  -6    9.63    9.75 
  -4   7  -6    6.24   10.06 
   4  -7   6   -1.42    7.06 
   7  -4  -6    4.38    7.91 
  -7   4   6   18.61    8.83 
  -7   3   6    3.74    8.02 
   7  -3  -6   -1.40    7.52 
  -3  -2   6   48.99   12.09 
  -2   5   6   64.62   11.87 
   2   3  -6   58.28   12.63 
   3  -5  -6   74.58   12.05 
  -3  -2   6   64.37   16.06 
   5  -3   6   48.91   12.72 
   5  -3   6   56.26   12.71 
   2  -5  -6   49.38   12.03 
   5  -2   6   59.38   12.38 
   5  -2   6   65.12   14.11 
  -5   2  -6   48.12   11.03 
  -5   3  -6   50.84   11.19 
  -2  -3   6   46.33   13.37 
  -3   5   6   53.52   11.38 
  -5   2  -6   63.51   14.00 
  -5   3  -6   66.01   13.74 
  -3  -2   6   56.60   11.89 
   3  -5  -6   41.32   10.42 
  -2  -3   6   46.77   11.00 
  -5   4  -6   38.21   10.65 
  -1  -4   6   27.17   10.95 
  -5   4  -6   33.03   10.76 
   1  -5  -6   25.41    9.67 
  -5   1  -6   26.70    9.37 
  -1   5   6   37.82    9.40 
   4   1  -6   30.80    7.26 
   5  -1   6   52.03   14.11 
   4   1  -6   52.80   15.16 
   5  -4   6   17.51    9.01 
  -4  -1   6   34.97   10.62 
  -4   5   6   31.82    9.19 
  -4   5   6   34.77   12.05 
   1   4  -6   47.65   12.64 
   5  -4   6   30.18   10.76 
  -5   1  -6   27.67   10.85 
   4  -5  -6   14.40    9.66 
  -4  -1   6   19.10    8.39 
  -5   0   6   53.41   13.76 
  -5   5  -6   60.65   14.28 
  -5   5   6   47.14   14.11 
   5   0  -6   52.81   14.85 
  -5   5   6   55.49   12.74 
   0  -5  -6   72.47   16.21 
   0   5  -6   70.03   16.60 
  -5   0  -6   68.89   15.24 
   5   0   6   78.94   17.69 
   5  -5   6   45.26   12.95 
  -5   0   6   39.37   12.39 
  -5   0   6   60.82   14.63 
   5   0  -6   52.56   10.02 
   0  -5   6   46.67   15.37 
   5  -5  -6   63.54   15.50 
  -6   1   6   15.73   10.48 
  -6   1   6   10.16    8.47 
  -1  -5  -6   17.05   10.70 
   5   1   6   21.10    9.39 
   5  -6   6   11.81    8.07 
  -5   6  -6   17.17    8.96 
  -6   5   6   12.96    8.40 
   5   1   6    7.87    9.94 
   6  -1  -6   53.29   15.56 
   6  -1  -6   22.00    8.63 
  -1   6  -6    5.52    7.88 
  -6   1   6    7.79    8.77 
  -6   5   6   23.42   10.87 
   6  -5  -6   28.74   12.33 
   1  -6   6   29.45   12.60 
  -7   5   6   11.24   11.29 
   5   2   6   27.78   10.93 
  -7   5   6   -2.78    7.50 
  -5   7  -6   33.01   13.80 
   7  -2  -6   26.68    8.04 
  -2  -5  -6    5.51    7.58 
  -7   2   6    1.86    7.01 
   7  -5  -6   10.68    9.20 
  -7   2   6   24.50   11.46 
   5   2   6   35.30   12.56 
   2  -7   6   16.42   10.82 
  -6   3  -6  232.47   24.52 
  -3  -3   6  208.53   26.09 
  -6   3  -6  226.74   22.07 
   6  -3   6  227.51   23.00 
  -3  -3   6  225.66   22.23 
   6  -3   6  241.50   23.81 
  -4  -2   6   21.36    8.86 
   4   2  -6   14.12    5.65 
  -6   2  -6   -2.16    6.62 
  -6   2  -6   14.68    7.93 
  -6   4  -6   27.70    9.73 
  -4   6   6    9.01    8.37 
   2   4  -6   10.33    8.14 
   4   2  -6   18.13   10.62 
   2  -6  -6   20.03   10.30 
   6  -2   6    8.47    7.45 
   4  -6  -6   10.44    8.42 
   6  -4   6   14.01    8.54 
   6  -4   6   15.26    8.64 
  -2  -4   6    3.84    7.05 
   5   1  -6   17.88    6.20 
  -6   1  -6   43.43   12.58 
  -6   1  -6   16.74    9.94 
  -5  -1   6   32.31   11.77 
   1   5  -6   18.88    9.88 
  -1  -5   6   16.30   12.11 
  -5  -1   6   30.12   11.17 
   6  -1   6   24.42   11.61 
   5  -6  -6   24.47   11.60 
   1  -6  -6   36.78   11.89 
  -6   5  -6   19.09   10.59 
   6  -5   6   22.76   10.00 
  -5   6   6   23.49   11.26 
   5   1  -6   15.10    9.57 
  -6   0   6  151.12   21.13 
  -6   6   6  131.57   19.38 
  -6   0   6  125.18   19.64 
  -6   0  -6  146.98   22.15 
  -6   0   6  196.25   24.36 
   0   6  -6  151.28   22.02 
   6  -6  -6  138.11   26.84 
   6   0  -6  143.43   15.03 
   0  -6   6  162.57   24.62 
   6  -6   6  144.29   21.03 
   0  -6  -6  178.72   24.00 
   6   0  -6  166.40   23.61 
   6   0   6  174.71   23.48 
  -3   7   6    0.06    8.08 
  -3   7   6   23.40    9.73 
   4   3  -6   -3.21    3.92 
  -4   7   6   -8.77    6.71 
   7  -4   6   11.90    8.55 
  -4  -3   6   -3.78    6.50 
  -7   3  -6    4.33    8.46 
   4   3  -6   22.55   11.59 
  -3  -4   6   12.33   12.53 
   7  -3   6   13.41    9.17 
  -7   3  -6    3.88    6.62 
  -7   4  -6   -3.42    6.80 
   7  -4   6    1.84    8.83 
  -7   2  -6   30.61   13.73 
  -2  -5   6    4.85   10.60 
  -5   7   6   44.76   13.38 
   7  -5   6   21.97   12.23 
  -7   2  -6   27.60   10.95 
  -2   7   6    7.83   10.33 
   5   2  -6    3.91    8.76 
   7  -2   6   27.45   12.00 
  -5  -2   6   -9.87    7.20 
  -7   5  -6   26.33   12.94 
   5   2  -6   24.65    6.62 
   5  -7  -6   17.90   11.47 
   0   0   7    2.75    3.28 
   0   0  -7    4.11    4.19 
   0   0   7    1.60    3.04 
   0   0   7    1.02    3.78 
   0   1   7 1461.79   38.30 
  -1   0   7 1485.17   40.42 
  -1   0  -7 1438.11   43.41 
   1   0  -7 1415.11   36.93 
   0  -1  -7 1498.86   22.94 
   0  -1   7 1444.54   39.34 
   1  -1   7 1491.14   34.77 
   0  -1   7 1473.83   38.93 
  -1   1   7 1469.07   37.45 
   0  -1  -7 1475.67   41.66 
   0  -1   7 1451.39   31.30 
   1  -1  -7 1415.23   37.82 
   0   1   7 1553.70   37.63 
   1  -1  -7 1390.24   34.66 
  -1   0   7 1471.01   36.61 
  -1   1   7 1421.75   38.62 
   0   1  -7 1471.05   39.86 
   1   0   7 1461.25   38.25 
  -1   0   7 1498.97   40.60 
   1   0   7 1479.18   37.97 
  -1   1  -7 1426.18   42.01 
   1  -1   7 1485.65   33.83 
   1  -1   7 1472.70   39.08 
   1  -1  -7 1473.59   38.29 
   0  -1  -7 1536.82   36.58 
  -2   1   7   -1.12    2.61 
   1  -2   7    0.68    2.20 
  -2   1   7   -0.64    3.03 
   2  -1  -7    5.63    4.06 
   2  -1  -7    0.08    4.00 
  -1   2  -7   28.95    8.07 
   1   1   7   -5.00    3.73 
   1  -2   7   -0.76    3.11 
  -2   1   7   -0.20    3.72 
   1   1   7   -2.60    2.94 
   2  -1  -7    4.70    3.41 
  -1  -1  -7    2.37    4.12 
   1  -2   7   -2.17    3.02 
   1  -2  -7   -4.22    2.81 
   1  -2  -7    0.25    3.89 
  -1  -1   7   -5.60    3.14 
   1  -2  -7   -3.27    1.86 
   2  -1   7   -2.82    2.21 
  -1   2   7    1.73    3.74 
  -1  -1   7    1.91    3.61 
   2  -1   7    1.86    3.17 
  -2   1  -7   -6.33    2.67 
  -1  -1   7    1.62    2.48 
   1   1  -7   -2.69    3.68 
  -1   2   7    3.72    4.06 
   2  -1   7    4.80    4.18 
  -2   0   7 1061.69   40.33 
   2  -2  -7 1067.04   34.26 
   2   0   7 1064.92   34.88 
  -2   2   7 1068.89   31.93 
   2   0  -7 1100.37   29.63 
   0  -2   7 1146.24   35.59 
   2   0   7 1068.99   35.63 
   0  -2   7 1096.12   23.36 
  -2   2   7 1072.28   36.85 
  -2   2  -7 1168.15   28.95 
  -2   0   7 1187.36   38.06 
  -2   0   7 1083.30   33.96 
  -2   0  -7 1140.74   39.63 
   2  -2   7 1113.49   35.29 
   2  -2  -7 1113.34   31.09 
   2   0   7 1100.90   22.55 
   0  -2  -7 1140.32   39.06 
  -2   2  -7 1043.84   38.22 
   0  -2   7 1051.62   38.32 
   0   2  -7 1103.96   36.98 
   2  -2  -7 1094.75   34.70 
   2  -2   7 1134.62   28.88 
  -2   0   7 1114.55   30.39 
   2  -2   7 1100.68   34.51 
   0   2   7 1096.87   36.51 
   3  -2  -7  924.66   33.61 
   3  -1  -7  892.58   39.13 
  -3   1   7  940.99   36.22 
  -3   1   7  928.85   32.75 
   1   2   7  915.17   36.04 
   1  -3   7  941.79   31.55 
   2   1   7  930.24   34.11 
   3  -1  -7  940.08   33.21 
  -3   1   7  812.32   34.18 
   2  -3   7  939.50   36.45 
   1  -3   7  919.70   37.13 
  -2   3  -7  940.92   38.36 
  -2  -1  -7  886.75   36.69 
  -3   2   7  847.76   35.25 
   2  -3   7  937.69   32.31 
  -3   2   7  914.98   33.26 
  -3   2   7  957.51   36.05 
   3  -2  -7  924.68   37.99 
   1   2   7  933.67   31.30 
  -1   3  -7  890.81   37.41 
  -1  -2  -7  836.32   36.48 
   2   1   7  826.72   34.41 
   2   2   7    2.83    5.14 
   2   2   7    6.47    5.68 
   2  -4   7   -3.37    3.60 
  -4   2   7   -3.62    3.35 
  -2   4  -7    1.91    4.61 
  -2  -2  -7   -3.32    3.82 
  -4   2   7   -1.67    4.52 
  -4   2   7    6.53    4.86 
   2  -4   7   -3.26    3.93 
   4  -2  -7    9.51    5.32 
   4  -2  -7    0.89    5.16 
  -2   3   7  827.11   25.74 
   3  -1   7  848.79   34.81 
  -2   3   7  897.57   34.59 
  -1   3   7  867.74   34.19 
  -3   1  -7  868.53   34.16 
  -2  -1   7  893.36   26.62 
  -3   1  -7  886.95   32.47 
   2  -3  -7  862.55   30.31 
   3  -2   7  831.96   32.82 
   3  -2   7  881.67   31.77 
  -1  -2   7  923.91   25.53 
   1   2  -7  840.96   32.89 
   1  -3  -7  895.44   25.80 
  -3   1  -7  874.16   36.26 
  -2  -1   7  849.36   35.07 
  -3   2  -7  885.77   29.58 
  -1  -2   7  798.53   37.37 
  -3   2  -7  826.44   30.16 
   2   1  -7  902.51   29.82 
   2  -3  -7  924.84   32.35 
   1  -3  -7  860.48   35.02 
   3  -1   7  883.42   28.07 
  -1  -2   7  893.35   33.90 
  -3   2  -7  858.46   35.94 
  -2  -1   7  917.06   40.67 
  -2  -1   7  851.23   30.60 
   3  -3  -7    2.74    3.99 
  -3   0   7   24.09    7.33 
   0   3   7   -4.34    3.79 
   3   0   7   -0.37    3.60 
   0  -3  -7    9.75    5.39 
   0  -3   7    0.83    4.87 
   3   0  -7    0.72    3.69 
   3  -3   7    1.88    3.34 
   0  -3   7    7.40    4.81 
  -3   0   7    2.15    5.38 
   3  -3  -7   -1.70    3.17 
   3   0   7   -4.86    3.91 
   3  -3  -7    1.25    3.46 
   3  -3   7   -0.02    4.67 
  -3   3   7   -1.62    3.15 
  -3   3   7    0.86    4.83 
   0   3  -7    3.17    4.49 
  -3   3  -7    1.83    4.32 
  -3   0   7   -0.05    3.73 
  -3   3  -7   -0.40    4.30 
  -3   0  -7    1.04    4.60 
   3   0  -7   -2.65    3.84 
   3  -3   7    7.12    5.52 
  -3   3   7   -2.22    2.95 
   1   3   7  628.49   31.99 
   3   1   7  629.55   32.01 
   1  -4   7  599.71   35.18 
   3  -4   7  630.12   28.19 
  -4   3   7  636.66   33.44 
   4  -3  -7  618.11   30.36 
  -4   1   7  629.27   31.23 
   3  -4   7  638.94   34.26 
   4  -1  -7  584.42   28.01 
  -4   3   7  623.55   28.95 
  -3   4  -7  574.92   33.34 
  -4   1   7  638.31   33.47 
  -1   4  -7  643.95   35.06 
   4  -3  -7  585.36   33.88 
   4  -1  -7  650.64   38.28 
  -4   3   7  591.44   32.39 
  -1  -3  -7  588.43   34.64 
  -4   1   7  655.68   34.01 
   3   1   7  663.78   34.20 
  -3  -1  -7  610.03   31.90 
  -2   5  -7  375.37   29.63 
   5  -2  -7  348.77   23.63 
  -5   3   7  351.51   25.69 
  -5   3   7  367.16   28.03 
  -3   5  -7  402.91   29.37 
  -2  -3  -7  461.08   31.24 
   2  -5   7  360.23   29.24 
   3   2   7  395.04   28.57 
   5  -2  -7  389.07   31.50 
  -5   3   7  398.13   28.90 
   5  -3  -7  426.37   27.04 
  -5   2   7  390.87   28.90 
   5  -3  -7  363.25   30.47 
  -5   2   7  387.99   27.86 
   3  -5   7  418.38   30.42 
   3   2   7  446.28   28.20 
   2   3   7  367.28   27.14 
  -5   2   7  413.03   28.28 
  -3  -2  -7  404.58   28.21 
  -6   3   7    4.27    6.11 
  -3   6  -7    2.40    7.69 
  -3  -3  -7    9.15    7.63 
   6  -3  -7   -9.45    4.36 
   3  -6   7    1.53    5.78 
   3   3   7   -6.19    5.58 
   6  -3  -7   -6.52    4.18 
  -6   3   7    2.66    5.35 
  -6   3   7   -0.42    6.04 
   4  -2   7   -3.47    4.53 
  -2   4   7    5.08    4.24 
   2  -4  -7    2.48    4.75 
  -2  -2   7    5.68    4.72 
   4  -2   7    6.90    6.52 
   2  -4  -7    5.27    5.29 
  -4   2  -7    4.07    4.21 
  -2  -2   7    3.14    5.70 
  -2  -2   7    6.36    5.97 
   2   2  -7   -1.55    4.59 
  -4   2  -7    3.17    5.13 
  -4   2  -7    9.78    6.68 
   1   3  -7  606.44   30.76 
   4  -1   7  662.44   34.60 
  -4   1  -7  652.11   34.08 
  -4   3  -7  638.18   29.76 
  -3  -1   7  633.47   33.83 
  -1  -3   7  701.64   31.30 
   4  -3   7  643.11   31.40 
  -3  -1   7  743.26   32.31 
  -3  -1   7  704.04   40.23 
  -4   1  -7  664.68   32.35 
  -1   4   7  660.59   32.11 
  -4   1  -7  702.17   32.42 
   1  -4  -7  560.77   32.35 
  -4   3  -7  662.18   27.60 
   3  -4  -7  689.21   32.80 
  -4   3  -7  679.90   33.18 
  -3   4   7  675.11   32.81 
   3  -4  -7  630.70   28.63 
   4  -3   7  680.60   32.71 
  -1  -3   7  655.38   37.16 
   0   4  -7  474.47   30.87 
  -4   0   7  604.83   30.81 
   0  -4   7  576.67   36.17 
   4  -4   7  614.44   30.09 
   0   4   7  576.91   30.95 
  -4   0  -7  557.07   31.95 
   4  -4   7  543.21   33.08 
  -4   4   7  575.79   34.38 
  -4   4   7  521.99   30.94 
  -4   4  -7  562.62   32.86 
   4   0   7  541.55   32.16 
   4   0  -7  506.19   35.68 
  -4   0   7  556.12   31.51 
   4  -4  -7  609.51   34.27 
  -4   0   7  560.87   32.80 
  -4   0  -7  586.70   31.31 
   0  -4  -7  507.62   33.25 
   4   0  -7  556.78   26.39 
  -5   1   7    7.77    6.68 
   4   1   7   -3.71    5.46 
  -1   5  -7    0.79    4.71 
   5  -1  -7   -4.11    4.48 
   5  -1  -7    0.27    3.85 
  -5   4   7    1.88    6.56 
   1   4   7   -1.54    4.97 
  -5   4   7    1.89    4.82 
  -1  -4  -7   11.65    7.01 
  -5   1   7    4.00    5.86 
  -4  -1  -7    2.75    5.25 
   4  -5   7   -2.66    4.48 
   1  -5   7   13.84    8.45 
   4   1   7    3.42    4.76 
  -5   1   7    5.41    5.81 
   5  -4  -7    4.80    6.25 
  -4   5  -7    9.60    8.67 
  -4   6  -7  335.87   29.74 
  -6   2   7  327.36   28.92 
   2   4   7  290.36   25.76 
  -6   4   7  377.15   31.84 
   4   2   7  354.01   29.69 
   4   2   7  331.71   27.78 
   6  -2  -7  303.34   23.81 
  -4  -2  -7  332.01   27.41 
  -2  -4  -7  341.07   30.25 
   4  -6   7  338.82   30.54 
   6  -2  -7  354.41   32.86 
  -2   6  -7  317.38   30.24 
   6  -4  -7  318.51   31.60 
  -6   4   7  267.34   26.07 
  -6   2   7  320.73   28.10 
   2  -6   7  269.97   29.60 
  -6   2   7  334.79   29.52 
  -7   3   7  190.79   24.42 
  -4   7  -7  207.14   26.30 
   3  -7   7  175.78   24.73 
  -7   4   7  219.18   26.35 
   3   4   7  204.82   24.89 
  -3  -4  -7  241.58   26.61 
   4  -7   7  210.12   26.56 
   7  -3  -7  195.21   25.96 
   4   3   7  234.01   26.34 
  -7   3   7  214.43   25.62 
   7  -3  -7  210.14   22.29 
  -3   7  -7  220.46   27.04 
  -7   4   7  176.55   23.39 
   7  -4  -7  233.54   28.56 
  -7   3   7  254.81   26.82 
  -5   3  -7  473.29   28.74 
   3  -5  -7  445.11   28.00 
  -5   3  -7  455.71   30.14 
  -3  -2   7  480.23   35.69 
  -2  -3   7  429.21   32.71 
   2  -5  -7  502.36   31.61 
  -5   3  -7  489.94   28.28 
  -5   2  -7  460.76   29.40 
  -3   5   7  483.89   29.14 
   3  -5  -7  476.51   28.81 
   5  -3   7  504.47   29.77 
  -2  -3   7  458.55   27.79 
  -2   5   7  442.31   27.59 
  -5   2  -7  487.74   31.66 
  -3  -2   7  406.84   28.56 
   5  -3   7  484.06   30.78 
   5  -2   7  433.13   30.21 
   2   3  -7  397.18   26.08 
   4   1  -7    0.51    4.22 
  -5   1  -7    6.43    5.28 
  -4   5   7    4.51    5.71 
   5  -4   7    0.14    4.63 
  -4   5   7    4.01    4.94 
   4  -5  -7   -3.95    4.92 
  -4  -1   7   -8.78    5.11 
  -4  -1   7    7.28    6.53 
   5  -1   7   -5.12    5.07 
   1  -5  -7    3.54    5.32 
  -5   4  -7   -8.39    4.42 
  -5   1  -7   -1.66    4.19 
  -1  -4   7   14.76    8.68 
   4   1  -7    0.86    6.74 
  -5   4  -7   -0.28    6.22 
   5  -4   7    1.06    6.27 
  -1   5   7   11.37    5.64 
   1   4  -7   -4.49    5.18 
  -5   0   7  342.90   27.87 
   0  -5   7  317.89   31.40 
  -5   0   7  379.54   30.37 
  -5   5   7  329.31   26.24 
  -5   0  -7  353.55   28.73 
  -5   0   7  338.94   25.71 
   5   0   7  336.01   29.04 
   5  -5   7  361.64   29.95 
   0  -5  -7  340.48   30.04 
  -5   5  -7  325.26   28.38 
   5   0  -7  333.07   30.57 
   5   0  -7  352.60   21.88 
   0   5  -7  323.21   28.78 
   5  -5  -7  320.99   29.74 
  -5   5   7  275.11   26.41 
   6  -1  -7  286.64   22.59 
  -1   6  -7  259.36   27.07 
   5   1   7  278.28   27.70 
   6  -5  -7  299.81   31.01 
  -6   5   7  256.29   27.75 
  -6   1   7  296.94   28.77 
   6  -1  -7  274.18   29.66 
  -6   1   7  268.26   25.81 
   1  -6   7  274.49   29.96 
  -6   1   7  284.45   28.55 
   5   1   7  284.47   27.42 
   5  -6   7  288.57   28.85 
  -6   5   7  283.97   26.75 
  -5   6  -7  317.74   30.73 
  -1  -5  -7  329.17   31.31 
  -5   7  -7   12.99   11.33 
   5   2   7   -0.51    7.45 
  -7   2   7   15.19    9.12 
  -7   5   7    1.07    6.92 
  -7   5   7    6.83    9.86 
  -7   2   7   -6.41    6.83 
  -3  -3   7   11.02    9.38 
   6  -3   7    4.43    6.36 
   3  -6  -7   15.72    7.43 
  -6   3  -7   -4.14    5.22 
  -6   3  -7   -1.66    6.41 
  -3  -3   7   10.63    7.48 
   6  -4   7  296.41   25.63 
  -4  -2   7  282.52   26.46 
  -6   2  -7  312.67   28.54 
   4  -6  -7  266.58   24.93 
   2   4  -7  301.32   25.91 
  -4   6   7  291.66   27.37 
   6  -4   7  260.95   25.19 
   4   2  -7  284.19   29.48 
  -2  -4   7  228.75   26.52 
   6  -2   7  261.68   25.76 
  -6   4  -7  245.54   24.11 
   4   2  -7  311.97   18.45 
  -6   2  -7  287.39   25.80 
   2  -6  -7  256.64   25.78 
   5  -6  -7  242.62   26.57 
   1  -6  -7  231.62   26.23 
  -1  -5   7  153.65   24.35 
   5   1  -7  232.83   18.08 
   5   1  -7  211.24   25.76 
   1   5  -7  229.49   24.67 
  -6   1  -7  229.94   24.42 
  -5   6   7  275.87   27.49 
  -5  -1   7  241.19   26.80 
   6  -5   7  229.84   25.45 
   6  -1   7  240.13   26.24 
  -5  -1   7  309.65   27.55 
  -6   0   7   -9.98    5.72 
   6   0  -7   -4.48    6.62 
   0   6  -7   -5.35    6.22 
   6  -6   7    7.49    7.84 
   6   0  -7   -3.74    4.81 
   6   0   7    2.59    8.45 
   0  -6   7    9.22   11.12 
   0  -6  -7   -0.22    7.31 
  -6   6   7    3.35    6.68 
  -6   0   7   16.70   11.21 
   6  -6  -7  -17.42    7.93 
  -7   4  -7  264.35   27.79 
   4   3  -7  245.87   17.12 
  -7   3  -7  231.18   24.64 
   4   3  -7  197.12   27.71 
  -7   3  -7  262.95   28.72 
  -3  -4   7  216.70   30.24 
   7  -4   7  258.57   26.43 
   7  -3   7  203.54   24.27 
  -4   7   7  273.92   27.94 
  -3   7   7  243.93   28.23 
  -7   5  -7    4.33    8.39 
   7  -5   7    4.63    8.32 
   7  -2   7   -5.17    7.01 
  -5  -2   7   -9.93    6.93 
  -5   7   7  -12.55    6.10 
  -7   2  -7    6.74    9.48 
   0   0   8 5646.00   84.43 
   0   0   8 5702.56   81.61 
   0   0  -8 5784.70   95.16 
   0   0   8 5818.44   90.62 
   1  -1   8    0.73    3.31 
   0  -1   8    1.83    3.35 
  -1   0   8    2.94    3.35 
   1   0   8   10.16    3.07 
  -1   0   8   -2.24    3.02 
  -1   1   8    3.32    3.69 
  -1   0  -8   -1.20    4.50 
   0  -1  -8   -1.02    1.63 
   1   0   8    1.01    3.20 
   0   1  -8    4.67    4.59 
   1  -1  -8    4.27    3.34 
  -1   1  -8    3.70    4.40 
   0   1   8    5.71    4.82 
   1  -1  -8   -2.00    3.35 
   1  -1  -8   -3.30    2.79 
   0  -1  -8    1.01    3.77 
  -1   1   8    0.09    4.20 
   1  -1   8   -3.07    2.61 
   1   0  -8    4.64    4.59 
   0  -1   8    8.31    5.01 
   0   1   8    2.00    3.73 
   1  -1   8   -3.70    2.49 
  -1   0   8    5.25    4.74 
   1   0   8    1.01    4.25 
   0  -1   8    3.47    2.97 
   0  -1  -8    4.46    4.82 
  -2   1   8 8127.03  119.81 
  -1  -1  -8 7929.17  127.51 
  -1   2  -8 8001.31  126.87 
   1  -2   8 7878.96  119.55 
  -2   1   8 8190.22  113.13 
   1  -2   8 7883.92  116.93 
   2  -1  -8 8114.38  116.34 
  -2   1   8 7978.15  118.70 
   2  -1  -8 8067.68  109.29 
   1   1   8 7925.47  119.39 
   1   1   8 7870.71  115.17 
   1  -2   8 8035.47   95.49 
   2  -1  -8 7822.21  124.42 
   1  -2  -8 5623.80   95.29 
   1  -2  -8 5543.49   78.49 
   2  -1   8 5622.84   88.48 
  -1  -1   8 5561.14   82.88 
   1   1  -8 5570.40   92.32 
  -1   2   8 5724.10   87.65 
  -1  -1   8 5592.85  100.47 
   2  -1   8 5638.96   81.33 
  -1  -1   8 5624.26   96.75 
   1  -2  -8 5774.61   88.08 
  -1   2   8 5627.00   94.87 
  -2   1  -8 5376.90   99.68 
   2  -1   8 5643.91   95.48 
   2   0   8    5.42    4.12 
   2  -2   8    2.90    4.52 
  -2   2   8   -1.46    4.69 
   0  -2   8    5.33    3.06 
  -2   0   8    0.20    3.88 
   2  -2  -8    9.02    4.68 
  -2   0   8    3.07    4.65 
   0  -2  -8    0.88    4.49 
  -2   0   8    2.67    4.76 
   0   2  -8    3.35    4.66 
  -2   0  -8   -0.36    4.04 
   2  -2  -8    2.40    4.16 
  -2   2   8    2.55    4.04 
   2   0   8    5.75    4.86 
   0   2   8    9.73    5.54 
   2  -2  -8    4.94    4.22 
   2   0  -8    3.80    4.14 
  -2   0   8    2.12    3.37 
   0  -2   8    5.76    4.73 
   0  -2   8    4.16    4.94 
   2  -2   8   -1.87    2.72 
  -2   2  -8   -1.69    4.18 
   2  -2   8   10.18    5.84 
   0   2   8    5.76    4.80 
  -2   3  -8    3.52    5.14 
  -2  -1  -8    3.07    3.98 
   3  -2  -8    8.81    4.68 
   2   1   8    5.36    5.49 
   2   1   8    2.47    4.10 
  -3   2   8   -2.48    4.50 
   2  -3   8    4.53    4.85 
  -3   1   8    2.32    4.61 
  -1  -2  -8   -0.49    5.22 
  -1   3  -8    6.47    5.27 
   1   2   8    7.39    4.99 
   3  -2  -8    9.87    6.40 
   1   2   8   13.56    6.24 
   1  -3   8   -0.08    3.78 
  -3   1   8    2.81    4.85 
   2  -3   8    6.55    5.32 
  -3   1   8    4.52    5.45 
   1  -3   8    9.69    4.44 
   3  -1  -8    1.25    4.28 
  -3   2   8    7.47    5.01 
   3  -1  -8    6.28    6.05 
  -3   2   8    1.35    4.75 
   2   2   8 2906.74   73.93 
   4  -2  -8 3017.05   69.78 
  -4   2   8 3008.61   76.73 
   2  -4   8 2929.36   79.05 
  -2   4  -8 3000.22   78.97 
  -4   2   8 2898.16   72.15 
  -2  -2  -8 3078.68   79.21 
   2   2   8 3065.48   68.98 
   2  -4   8 3020.30   64.53 
  -4   2   8 2971.28   72.85 
  -1   3   8    4.18    4.73 
  -1  -2   8    5.74    4.48 
   3  -2   8   10.94    5.85 
   1  -3  -8   10.03    6.84 
  -2  -1   8    3.92    5.83 
   1   2  -8    4.37    5.04 
  -2   3   8    9.49    5.05 
   3  -1   8    6.33    5.44 
   3  -1   8    2.28    3.64 
   2  -3  -8   -1.74    4.34 
  -3   2  -8   -3.19    4.04 
  -3   2  -8    3.63    4.92 
  -2   3   8    3.86    4.76 
  -1  -2   8    4.35    5.44 
  -1  -2   8    4.41    3.52 
  -2  -1   8    2.69    5.49 
   2   1  -8    3.82    4.42 
   2  -3  -8    3.65    3.97 
  -2  -1   8    0.34    3.88 
   3  -2   8   -0.54    3.19 
   3  -2   8    7.47    5.48 
   3  -1   8    5.89    4.46 
  -3   0   8 3198.40   66.16 
   3  -3   8 3329.97   58.64 
   3  -3  -8 3146.75   73.43 
  -3   0   8 3158.69   71.96 
   3  -3   8 3205.53   71.45 
   0   3   8 3158.43   73.95 
  -3   3   8 3168.45   75.65 
   0   3  -8 3085.53   76.89 
  -3   0  -8 3164.41   76.29 
  -3   3   8 3196.01   76.07 
   3   0  -8 3089.70   83.81 
   0  -3   8 3155.49   68.78 
  -3   0   8 3183.91   77.37 
  -3   3  -8 3272.93   79.71 
   3   0   8 3134.10   74.55 
  -3   3   8 3100.30   64.04 
   3   0   8 3187.47   74.63 
   3  -3  -8 3256.32   71.19 
   0  -3  -8 3196.01   79.15 
   3  -3   8 3121.85   72.51 
   3   0  -8 3192.82   66.07 
   0  -3   8 3198.21   81.71 
  -4   1   8   -3.59    5.03 
  -1  -3  -8   -2.97    3.90 
   4  -1  -8    1.28    4.42 
  -3  -1  -8   11.05    6.97 
   4  -1  -8    0.49    5.49 
   3   1   8    0.05    5.61 
   4  -3  -8   -5.20    4.23 
   3   1   8    7.36    5.54 
  -3   4  -8    6.49    6.04 
  -1   4  -8    7.74    6.69 
   1  -4   8    2.77    4.91 
   1   3   8    3.18    6.02 
  -4   1   8    4.77    5.84 
   3  -4   8   -1.52    4.14 
  -4   3   8    5.75    5.04 
   1  -4   8   -8.89    2.83 
  -4   1   8   -3.35    4.57 
  -4   3   8    7.76    5.64 
  -4   3   8   -1.43    4.93 
   4  -3  -8    6.23    5.09 
   3  -4   8    6.03    5.98 
   5  -3  -8    8.65    7.16 
  -2  -3  -8   -2.70    4.41 
  -5   2   8   13.69    8.27 
  -5   2   8   -5.32    4.88 
  -3   5  -8    5.28    7.14 
  -5   3   8   -0.06    5.21 
  -2   5  -8    5.79    7.68 
   5  -3  -8    5.89    6.12 
  -5   3   8   -1.04    4.86 
   3  -5   8   -0.48    5.31 
  -5   2   8    5.70    6.20 
   2   3   8    5.73    6.75 
   5  -2  -8    7.39    5.27 
  -3  -2  -8    4.14    6.37 
   5  -2  -8   -6.41    5.82 
   3   2   8   -2.79    4.70 
   2  -5   8    4.76    6.38 
   3   2   8    4.99    6.74 
  -5   3   8    7.35    6.48 
  -3   6  -8 1266.49   59.30 
  -6   3   8 1261.78   56.95 
  -3  -3  -8 1283.49   56.50 
   6  -3  -8 1221.67   62.62 
  -6   3   8 1149.35   55.32 
   3   3   8 1242.01   55.26 
   3  -6   8 1266.19   61.01 
  -6   3   8 1244.13   54.63 
   6  -3  -8 1320.76   52.18 
   4  -2   8 4554.65   86.49 
   2  -4  -8 4379.13   91.93 
   2   2  -8 4342.75   86.06 
  -2  -2   8 4376.91   93.14 
  -4   2  -8 4354.85   90.18 
   4  -2   8 4343.03   94.15 
  -2  -2   8 4075.10  103.09 
  -2   4   8 4187.74   91.02 
  -4   2  -8 4338.57   86.15 
  -2  -2   8 4504.62   78.88 
  -4   2  -8 4363.14   93.38 
   1  -4  -8    5.99    5.77 
   3  -4  -8   -0.11    4.19 
  -1  -3   8   -1.74    4.19 
   3  -4  -8    5.31    5.72 
  -3  -1   8    4.54    5.92 
  -3  -1   8    1.96    5.47 
   4  -1   8    5.36    6.99 
   1   3  -8    0.16    4.10 
  -3   4   8    8.25    5.56 
  -4   1  -8    3.01    5.82 
   4  -3   8    3.77    6.35 
  -1   4   8   10.62    6.89 
  -4   3  -8    8.64    5.91 
   4  -3   8    9.01    5.84 
  -4   3  -8    1.80    5.70 
  -3  -1   8    1.14    4.12 
  -4   3  -8    8.42    5.68 
  -1  -3   8    1.62    5.75 
  -4   0  -8    7.91    5.84 
   4  -4  -8    5.69    5.84 
  -4   4  -8    5.25    7.01 
   4  -4   8   -1.43    4.35 
   4  -4   8   -5.48    4.00 
   0  -4  -8    0.50    4.46 
   4   0  -8    5.22    4.85 
   4   0   8    5.93    5.58 
   4   0  -8    0.78    5.25 
   4   0   8   -4.07    5.41 
  -4   0   8   12.61    5.87 
   0   4  -8    2.71    4.67 
  -4   4   8    0.04    5.62 
  -4   0   8    6.68    7.09 
   0   4   8   17.45    7.22 
  -4   0   8    2.01    6.36 
  -4   4   8    1.94    4.96 
   0  -4   8    3.09    6.28 
   5  -1  -8 2643.23   89.38 
  -5   1   8 2579.37   73.73 
  -4  -1  -8 2788.46   77.17 
   4   1   8 2532.20   79.18 
   5  -1  -8 2610.91   67.17 
  -1  -4  -8 2649.77   83.90 
  -4   5  -8 2661.23   81.39 
   1   4   8 2497.54   73.77 
   4   1   8 2630.87   78.24 
   4  -5   8 2643.72   82.28 
  -5   1   8 2506.67   76.27 
  -5   1   8 2485.95   78.76 
  -5   4   8 2688.82   82.08 
  -1   5  -8 2669.65   83.35 
   5  -4  -8 2550.78   84.46 
  -5   4   8 2708.58   79.69 
   1  -5   8 2495.02   83.72 
  -4   6  -8   10.83   11.47 
  -6   4   8   16.74    7.88 
  -4  -2  -8    8.11    8.19 
  -6   4   8   10.03    8.74 
  -2   6  -8    1.72    9.47 
  -2  -4  -8    5.63    9.02 
   4   2   8   22.59    9.76 
   2  -6   8   -0.12    8.31 
   6  -2  -8   -4.53    5.71 
   4  -6   8    1.94    6.55 
   6  -4  -8    4.75    8.56 
  -6   2   8   11.97    8.21 
   4   2   8    2.37    8.32 
  -6   2   8    2.51    7.30 
  -6   2   8    8.89    7.70 
   2   4   8   16.96    8.82 
   6  -2  -8   10.10    9.38 
   4   3   8   -5.42    8.14 
  -7   3   8   12.11    9.85 
  -7   3   8    5.58    8.39 
  -4  -3  -8    1.78    7.90 
  -4   7  -8   -6.78    8.17 
  -7   4   8   -3.87    8.37 
   7  -3  -8  -14.66    6.20 
   3   4   8   -1.35    8.23 
  -3  -4  -8    7.24    9.26 
  -3   5   8   11.89    6.84 
   2   3  -8   25.30    8.44 
   5  -2   8    6.48    6.84 
  -3  -2   8    0.01    7.17 
  -2  -3   8   18.21    9.26 
  -2   5   8    2.22    4.39 
  -5   2  -8   10.00    5.37 
  -5   3  -8    8.98    6.79 
   2  -5  -8   10.66    7.61 
  -3  -2   8    9.71    6.32 
   5  -3   8    0.58    5.53 
  -5   2  -8   21.33    8.98 
   3  -5  -8    7.01    5.99 
  -5   3  -8    9.09    7.73 
  -5   3  -8   -0.04    4.70 
  -5   2  -8   10.39    7.07 
   5  -3   8   13.07    7.93 
  -2  -3   8    6.50    6.94 
   4   1  -8 1927.78   51.66 
   5  -4   8 1867.06   61.23 
  -4   5   8 1939.93   68.41 
  -1  -4   8 1954.89   74.80 
  -5   1  -8 1937.33   66.01 
   5  -4   8 1942.29   66.52 
  -4  -1   8 1965.29   62.98 
   5  -1   8 1929.47   69.05 
  -5   4  -8 2015.34   67.03 
   4   1  -8 1951.17   75.97 
  -1   5   8 2041.44   63.82 
   4  -5  -8 1962.52   66.59 
   1   4  -8 1834.81   64.48 
   1  -5  -8 1970.53   69.35 
  -4  -1   8 1923.80   67.16 
  -4   5   8 1930.40   64.43 
   5   0   8   14.54    9.48 
   5  -5  -8    8.10    7.72 
  -5   5   8    2.07    6.85 
   0   5   8    0.30    6.18 
  -5   0   8   10.23    6.85 
   0  -5   8    1.27    7.90 
   5   0   8   20.98    9.83 
  -5   5   8    4.95    6.60 
   5   0  -8    8.15    7.17 
  -5   5  -8    4.94    8.33 
  -5   0   8   -9.90    5.18 
   0   5  -8   -1.10    5.75 
   0  -5  -8    2.82    6.59 
   5  -5   8   15.79    8.40 
   5   0  -8   -1.83    4.53 
   5  -6   8    6.39    7.81 
  -6   1   8    7.04    9.56 
   6  -5  -8   13.87   11.46 
  -6   5   8   17.49    9.15 
   5   1   8   -1.20    6.93 
  -6   1   8    3.75    8.42 
  -1  -5  -8   -2.41    7.85 
  -6   1   8    2.76    7.26 
  -5   6  -8    7.91   10.36 
   6  -1  -8    3.88    5.91 
   5   1   8   -7.06    5.16 
  -1   6  -8    9.98    8.04 
  -6   5   8    2.42    6.73 
   6  -1  -8    7.21    6.71 
   1  -6   8   -1.76    9.79 
  -7   5   8  925.76   55.26 
  -7   2   8  882.73   49.33 
  -7   2   8  917.29   53.29 
  -6   3  -8 1390.33   58.84 
  -3  -3   8 1425.53   57.33 
  -6   3  -8 1472.05   57.00 
   6  -3   8 1365.75   58.72 
   3  -6  -8 1407.82   58.74 
  -3  -3   8 1267.71   66.42 
   6  -4   8   12.88    7.36 
  -4   6   8   10.67    8.08 
   6  -2   8   -8.00    4.81 
  -4  -2   8   11.73    7.62 
   6  -4   8    8.34    7.86 
   4   2  -8    8.96    9.12 
   2  -6  -8   10.36    8.64 
   4   2  -8   -6.05    3.49 
  -6   2  -8   -5.98    6.45 
  -6   2  -8   16.07    7.92 
  -6   4  -8   -1.79    6.50 
  -2  -4   8    3.82    9.13 
  -6   1  -8    9.45    7.35 
   1  -6  -8   15.91    8.66 
  -5   6   8   -7.17    5.79 
   5  -6  -8   18.12   10.23 
   5   1  -8    9.36    7.98 
  -5   6   8   -0.57    5.58 
  -5  -1   8   10.27    8.68 
   6  -5   8    7.32    8.18 
   5   1  -8   -4.26    3.66 
  -5  -1   8   -0.93    6.53 
   6  -1   8    8.24    8.24 
  -1  -5   8   18.22   11.66 
   1   5  -8   -8.22    5.67 
   6  -6   8  994.66   54.58 
  -6   6   8  903.59   48.53 
   6  -6  -8  960.77   56.98 
   0  -6   8  974.76   58.69 
  -6   0   8  782.58   49.75 
   6   0   8  801.56   50.12 
  -6   6   8  896.84   52.18 
  -6   0   8  992.20   52.85 
   7  -4   8    2.52    7.75 
  -7   4  -8   -4.77    6.78 
  -4   7   8    3.87    7.57 
  -3   7   8   15.93   10.94 
   7  -3   8    2.70    7.86 
  -7   3  -8    4.82    8.00 
  -7   3  -8   11.97    9.71 
  -4  -3   8  -20.27    7.10 
   7  -2   8 1283.70   63.64 
  -5  -2   8 1279.73   62.74 
  -5   7   8 1150.98   60.95 
   7  -5   8 1348.05   65.33 
   0   0   9    2.46    3.37 
   0   0  -9    1.82    4.95 
   0   0   9    8.05    5.02 
   0   0   9    7.11    4.20 
   1  -1   9  203.08   15.85 
   0  -1   9  194.79   12.73 
   0   1  -9  205.80   16.61 
   1   0   9  198.37    9.59 
   0  -1   9  206.01   15.53 
  -1   0   9  204.95   14.72 
  -1   1   9  194.32   15.39 
   0   1   9  208.63   15.75 
   1  -1  -9  188.02   13.24 
   0  -1  -9  201.11    8.81 
  -1   0  -9  202.76   18.29 
   1  -1  -9  181.31   15.51 
   1   0   9  186.97   15.58 
  -1   0   9  213.90   16.64 
   0   1   9  200.97   15.81 
  -1   1  -9  199.97   17.70 
   0  -1  -9  223.46   17.65 
   0  -1   9  193.85   15.47 
   1   0   9  187.95   15.14 
   1   0  -9  193.72   15.44 
  -1   1   9  188.10   15.40 
   1  -1  -9  203.95   15.94 
   1  -1   9  196.38   13.42 
   0  -1  -9  238.75   16.34 
  -1   0   9  219.47   17.12 
   1  -1   9  196.94   13.63 
   2  -1  -9   -4.48    3.48 
  -2   1   9    7.40    4.40 
   1   1   9    4.27    5.64 
  -1   2  -9    1.77    4.14 
  -1  -1  -9   -1.67    4.50 
   1  -2   9   -1.28    2.58 
   1   1   9   -0.12    3.58 
   2  -1  -9   11.37    5.57 
  -2   1   9    5.86    5.08 
  -2   1   9   -1.27    3.44 
   2  -1  -9    1.12    4.12 
   1  -2   9   -5.87    2.50 
   1  -2   9   -3.24    2.63 
  -1  -1   9    1.15    3.79 
   1   1  -9   -0.91    3.96 
  -2   1  -9    0.47    4.22 
  -1  -1   9    0.32    3.20 
  -1   2   9    3.51    4.60 
   2  -1   9    6.15    4.87 
   1  -2  -9   -0.02    4.26 
   2  -1   9   -2.21    2.57 
   1  -2  -9   -0.84    2.36 
  -1   2   9   -4.15    3.34 
  -1  -1   9   -2.79    3.52 
   2  -1   9   -1.39    2.58 
   0   2   9  188.78   15.46 
   2  -2   9  181.57   14.41 
   0   2  -9  179.85   16.65 
  -2   0   9  161.52   14.36 
  -2   0   9  204.85   18.64 
   2  -2  -9  208.47   15.32 
  -2   2   9  186.00   16.43 
   2  -2  -9  200.79   16.87 
   2   0   9  152.94   15.83 
   0  -2   9  185.54   16.25 
   2  -2   9  200.76   13.25 
   0   2   9  195.66   16.95 
  -2   0  -9  168.45   16.95 
   2   0  -9  197.42   14.60 
  -2   0   9  186.10   17.37 
   2  -2  -9  179.38   14.68 
  -2   2   9  203.49   16.08 
   2   0   9  183.15   15.75 
   0  -2  -9  200.22   18.35 
  -2   0   9  183.21   13.29 
   0  -2   9  196.09   11.47 
  -2   2  -9  193.01   18.37 
   2  -2   9  176.26   16.10 
   0  -2   9  157.91   16.68 
  -2   3  -9  151.30   17.45 
   3  -1  -9  184.53   16.18 
   1   2   9  158.34   16.93 
   3  -2  -9  167.10   17.70 
  -3   1   9  154.95   15.95 
  -1  -2  -9  158.91   17.47 
  -3   1   9  147.41   16.54 
  -3   2   9  139.06   15.23 
  -2  -1  -9  140.54   16.55 
  -3   2   9  170.49   16.96 
   2   1   9  169.16   16.27 
   2   1   9  132.09   14.64 
  -3   1   9  143.77   14.05 
   3  -1  -9  169.48   18.05 
   1  -3   9  139.64   14.72 
   1  -3   9  166.05   16.96 
   3  -2  -9  155.85   15.99 
  -1   3  -9  159.72   17.47 
  -3   2   9  161.86   15.75 
   1   2   9  173.96   15.43 
   2  -3   9  128.03   13.66 
   2  -3   9  162.77   15.77 
  -2   4  -9   -1.97    4.94 
   2  -4   9   -1.03    3.48 
   2   2   9    3.42    5.63 
   4  -2  -9  -15.14    3.99 
  -2  -2  -9   -7.85    3.86 
   2  -4   9   -5.54    3.76 
  -4   2   9   -1.82    4.79 
  -4   2   9   -0.82    4.71 
   2   2   9    8.20    7.44 
  -4   2   9    3.78    6.31 
   4  -2  -9   -1.81    3.64 
   2  -3  -9  141.43   12.39 
   2   1  -9  140.42   13.90 
   1   2  -9  156.10   16.25 
   3  -1   9  136.30   14.17 
  -2  -1   9  163.31   18.04 
   3  -2   9  140.35   13.49 
  -3   1  -9  145.00   16.44 
  -2  -1   9  144.63   13.64 
  -2   3   9  162.63   16.45 
  -1  -2   9  159.72   17.66 
   2  -3  -9  160.53   15.09 
  -1  -2   9  150.28   15.61 
  -3   2  -9  156.39   17.37 
  -2  -1   9  144.46   15.87 
   3  -2   9  133.65   12.88 
  -1   3   9  174.40   16.49 
   3  -2   9  143.95   15.84 
   3  -1   9  132.66   15.39 
   1  -3  -9  176.88   17.10 
  -1  -2   9  162.01   12.10 
  -2   3   9  144.50   13.44 
   3  -3   9   -1.86    3.61 
   3   0   9    6.53    5.11 
   0   3   9   -9.63    3.26 
   3  -3   9   -0.10    5.92 
  -3   0   9   -2.56    5.93 
  -3   0   9   -4.99    4.56 
  -3   0   9   -3.09    4.26 
  -3   3   9   -3.95    4.04 
  -3   0  -9   14.81    7.28 
  -3   3  -9    4.78    5.86 
   0  -3  -9    5.00    5.77 
   0   3  -9    4.31    5.58 
  -3   3   9   -1.99    5.36 
   3   0  -9    1.29    3.98 
   3  -3  -9    6.99    5.22 
  -3   3   9    4.45    4.47 
   0  -3   9    4.30    4.52 
   3   0   9   -5.46    5.02 
   0  -3   9    3.16    4.56 
   3   0  -9    1.81    4.82 
  -4   1   9   95.47   17.58 
   1  -4   9   79.69   16.53 
   4  -3  -9  100.87   13.82 
   3   1   9  124.70   16.28 
  -3  -1  -9   90.76   14.05 
  -4   3   9   92.28   13.73 
   1  -4   9   81.24   11.87 
  -1  -3  -9   99.99   15.52 
   4  -1  -9   77.69   17.01 
   3  -4   9   91.94   13.75 
   3   1   9  106.81   15.23 
  -3   4  -9   83.65   17.04 
  -1   4  -9  106.11   15.25 
   4  -1  -9  100.06   13.18 
  -4   1   9  102.25   14.89 
  -4   1   9   89.39   12.94 
  -4   3   9   91.20   17.11 
   1   3   9  111.84   15.07 
  -4   3   9   84.22   16.00 
   4  -3  -9   78.11   15.75 
   3  -4   9   84.73   12.94 
   5  -3  -9   59.71   15.51 
  -5   3   9   89.36   17.31 
  -2   5  -9   84.76   18.01 
   5  -2  -9   95.63   16.61 
  -3   5  -9   94.81   19.74 
   3  -5   9   97.76   19.00 
  -5   2   9   98.18   15.08 
  -5   2   9  110.54   16.15 
  -3  -2  -9   95.01   18.34 
  -2  -3  -9   89.87   18.50 
   2  -5   9   62.09   15.42 
  -5   3   9   83.05   15.94 
  -5   2   9   94.71   18.30 
   5  -2  -9   78.54   18.46 
  -5   3   9  100.57   15.22 
   3   2   9  101.21   18.06 
   3   2   9   81.28   17.01 
   2   3   9  102.82   18.32 
   5  -3  -9  110.98   15.02 
  -3   6  -9    0.57    8.77 
   3   3   9   -1.83    7.97 
   3  -6   9   -2.49    4.54 
   6  -3  -9   -2.69    6.06 
   6  -3  -9   -3.91    6.76 
  -6   3   9    4.50    7.62 
  -6   3   9   -0.78    7.34 
  -3  -3  -9    8.38    8.46 
  -6   3   9   -6.29    4.09 
  -4   2  -9    1.25    6.09 
   4  -2   9   -3.53    4.04 
  -2   4   9    1.82    4.58 
  -4   2  -9    0.92    5.91 
   2   2  -9   -3.42    4.12 
   2  -4  -9   -1.92    3.80 
   4  -2   9   -7.43    4.63 
  -2  -2   9   -3.59    4.97 
  -2  -2   9    9.74    6.34 
  -4   3  -9  108.89   14.07 
   4  -1   9   72.44   15.89 
   4  -3   9  104.01   14.75 
   1  -4  -9   59.23   13.71 
  -3  -1   9  123.03   18.08 
  -4   1  -9   78.57   14.68 
   1   3  -9   92.80   13.31 
  -1  -3   9   80.06   14.96 
   3  -4  -9   90.12   12.87 
  -3  -1   9   92.28   17.49 
   4  -3   9  100.22   12.08 
  -1   4   9   93.84   13.57 
  -4   3  -9  118.48   16.34 
  -3  -1   9  106.33   12.91 
  -3   4   9  103.32   14.54 
   4  -1   9   80.71   14.81 
  -1  -3   9   89.07   17.40 
   4  -3   9   92.89   12.93 
  -4   4  -9   66.36   15.38 
   0   4  -9   87.09   17.06 
   0   4   9   74.57   14.25 
   4   0  -9   53.68   15.59 
   0  -4   9   76.74   13.72 
   4   0  -9   52.19   11.03 
  -4   4   9   90.69   16.63 
  -4   0  -9   74.34   15.11 
  -4   0   9   57.87   14.15 
  -4   4   9   69.51   15.78 
   4  -4   9   73.16   15.01 
   0  -4   9   69.75   16.03 
   4  -4  -9   73.33   15.33 
   4  -4   9   68.53   14.47 
   4   0   9   87.13   16.93 
   0  -4  -9   86.14   17.22 
  -4   0   9   73.18   13.92 
   4   0   9   80.77   16.26 
  -1  -4  -9   -4.16    5.45 
   1  -5   9    6.15    7.19 
  -5   4   9    1.39    7.74 
  -1   5  -9   -9.12    4.47 
   5  -4  -9   -6.02    5.15 
   5  -1  -9   13.95    9.33 
  -4  -1  -9   -6.55    5.04 
   4  -5   9    3.38    6.32 
   5  -1  -9    7.56    4.67 
  -5   1   9    3.01    6.26 
  -4   5  -9    2.54    8.12 
   1   4   9   -0.14    6.36 
   4   1   9   -4.63    5.66 
  -5   4   9   13.69    7.69 
   4   1   9    1.85    6.12 
  -5   1   9    4.36    6.10 
  -5   1   9    5.33    7.26 
  -2  -4  -9   70.81   17.85 
   2  -6   9   71.71   17.73 
   4   2   9   46.48   14.12 
  -4  -2  -9   34.81   12.70 
  -6   2   9   37.96   12.78 
   6  -4  -9   64.03   16.53 
   4  -6   9   72.60   16.92 
   4   2   9   69.11   17.10 
  -6   2   9   68.90   15.44 
  -6   4   9   56.71   15.57 
  -2   6  -9   56.28   15.86 
   6  -2  -9   44.48   12.77 
   6  -2  -9   46.95   15.67 
  -6   2   9   70.63   17.00 
  -4   6  -9   66.99   18.50 
   2   4   9   71.70   16.25 
  -6   4   9   58.50   15.88 
  -4  -3  -9    0.24   11.75 
  -7   3   9   19.86   11.78 
   7  -3  -9   38.76   12.49 
  -7   4   9   24.23   13.80 
  -7   3   9   13.38   10.89 
   3   4   9   12.63   13.08 
   2   3  -9   95.00   13.70 
   5  -3   9   75.83   15.68 
  -3   5   9   84.20   15.57 
  -5   3  -9   88.61   16.88 
  -5   2  -9  105.92   19.09 
   3  -5  -9   94.96   14.31 
  -5   2  -9   60.66   14.10 
  -2   5   9   80.29   15.70 
  -3  -2   9   98.14   19.74 
   5  -2   9   76.66   16.63 
  -2  -3   9   92.31   14.32 
   2  -5  -9  115.29   16.68 
  -3  -2   9   89.50   17.12 
  -5   3  -9   67.45   14.68 
  -2  -3   9  102.35   20.95 
   1  -5  -9   -3.17    4.93 
   5  -1   9    3.59    6.10 
   4   1  -9   -2.35    6.13 
  -4  -1   9   14.84    7.67 
   5  -1   9    1.57    6.45 
   1   4  -9   -8.78    5.33 
  -4   5   9    4.42    5.85 
  -1   5   9  -12.64    4.91 
   5  -4   9    3.20    6.72 
  -4   5   9    1.77    5.74 
  -5   4  -9    7.21    8.05 
  -4  -1   9   -2.45    5.51 
  -5   1  -9    9.91    7.24 
  -1  -4   9   -1.74    6.41 
   4   1  -9    3.26    4.42 
   5  -4   9   -5.01    5.19 
   4  -5  -9   -7.49    5.93 
  -5   0   9   82.46   17.51 
   5   0  -9   73.77   17.61 
   5   0   9   91.00   18.95 
   5   0  -9   86.69   12.78 
   0  -5  -9   51.88   15.36 
   5  -5   9   92.21   18.35 
  -5   5   9   57.34   15.25 
   5  -5  -9   70.54   17.57 
  -5   5  -9  122.17   18.64 
   0  -5   9   49.59   17.08 
   0   5  -9   76.63   17.61 
  -5   0   9   98.13   20.33 
   0   5   9   80.65   15.46 
   5   0   9   80.14   17.96 
  -5   5   9   49.51   13.37 
   5   1   9   47.76   13.70 
  -5   6  -9   68.79   18.24 
   1  -6   9   52.89   18.10 
  -1   6  -9   48.01   14.21 
  -6   1   9   55.67   16.69 
   5  -6   9   52.18   15.31 
  -6   5   9   56.91   16.40 
  -1  -5  -9   56.93   17.89 
  -6   1   9   65.56   16.92 
  -6   5   9   47.16   13.90 
   6  -5  -9   69.22   19.32 
   6  -1  -9   32.02   12.79 
  -6   1   9   57.83   14.59 
   5   1   9   47.00   14.01 
   6  -1  -9   52.98   13.55 
   6  -3   9    2.90    7.89 
   3  -6  -9   -3.62    5.63 
  -3  -3   9   -1.50    9.07 
  -6   3  -9  -11.13    6.12 
  -6   3  -9   -1.76    6.26 
  -3  -3   9   15.47    8.21 
   6  -4   9   73.82   16.85 
  -2  -4   9   56.90   17.71 
  -4   6   9   79.06   19.12 
  -4  -2   9   63.31   16.39 
   4   2  -9   46.68   14.23 
   2  -6  -9   60.22   15.17 
   4   2  -9   55.11   10.77 
   6  -2   9   47.23   15.26 
  -6   4  -9   52.71   14.31 
   6  -1   9   74.97   18.01 
   5   1  -9   29.17   12.65 
   1  -6  -9   65.95   17.49 
   6  -1   9   75.44   19.33 
  -5   6   9   39.94   15.09 
   1   5  -9   61.26   15.10 
  -5  -1   9   48.54   15.48 
  -5   6   9   57.38   13.20 
  -1  -5   9   69.30   19.39 
   6  -5   9   53.71   14.22 
   5   1  -9   48.70   10.64 
  -6   6   9    1.20    8.53 
   6  -6  -9    8.16   10.39 
  -6   6   9    2.40    7.90 
  -6   0   9   -0.34    8.73 
   6   0   9    6.88    8.76 
  -6   0   9   -2.71    7.07 
  -4   7   9   34.04   13.46 
   7  -3   9   48.01   14.78 
  -4  -3   9   24.18   11.62 
  -7   3  -9   17.91   11.54 
  -7   4  -9   19.18   12.40 
   7  -4   9   20.39   11.65 
   0   0 -10   98.82   12.69 
   0   0  10   92.64    9.76 
   0   0  10  110.23   12.58 
   0   0  10   91.70   10.72 
   0  -1 -10  166.87   16.86 
  -1   0 -10  193.62   18.49 
   1   0  10  185.30   16.42 
   1  -1 -10  160.04   15.40 
  -1   0  10  178.47   15.78 
  -1   1  10  178.79   15.72 
   0  -1  10  186.26   15.18 
  -1   0  10  157.20   15.70 
   1  -1  10  189.25   13.69 
   0   1  10  161.15   14.82 
   1  -1  10  154.94   15.12 
   0   1  10  198.52   16.28 
  -1   1  10  154.87   14.68 
   0  -1  10  156.02   14.63 
  -1   1 -10  174.65   16.93 
   1   0 -10  178.63   15.61 
  -1   0  10  164.81   14.16 
   0   1 -10  157.96   15.91 
   1  -1 -10  163.80   15.07 
   1   0  10  158.66   14.59 
   0  -1  10  176.88   13.13 
   1  -1 -10  186.77   13.71 
   1  -1  10  161.65   13.08 
  -2   1  10  116.32   12.37 
   1   1  10  107.68   13.07 
   2  -1 -10  116.67   13.75 
   1  -2  10   97.48   12.60 
  -2   1  10   88.55   11.99 
   1   1  10  130.83   14.72 
   1  -2  10  103.23    9.33 
   1  -2  10  115.64   13.39 
  -1  -1 -10   79.52   14.69 
  -1   2 -10   83.49   12.44 
  -2   1  10  104.91   13.90 
   2  -1 -10   92.06   11.97 
   2  -1 -10  130.36   12.97 
   2  -1  10   95.61   11.44 
  -1  -1  10   88.30   12.75 
   2  -1  10  113.74   14.07 
  -1  -1  10   88.74   10.13 
   1   1 -10   97.30   12.63 
  -2   1 -10  102.74   13.78 
   2  -1  10   99.62    9.53 
  -1   2  10   90.26   11.81 
   1  -2 -10   95.50   12.95 
  -1   2  10  112.08   12.93 
  -1  -1  10  121.16   14.25 
  -2   2  10  182.39   16.35 
   0  -2  10  179.06   17.86 
  -2   2 -10  212.02   19.71 
  -2   2  10  203.15   18.21 
  -2   0  10  204.30   16.69 
   0  -2  10  148.27   15.58 
   2   0  10  213.05   18.70 
   2  -2  10  200.30   15.69 
   0   2  10  193.78   16.18 
   0  -2 -10  163.21   16.84 
   2  -2  10  157.59   16.31 
   2   0 -10  189.16   15.13 
  -2   0  10  195.06   18.04 
   0   2 -10  190.15   18.07 
   2  -2 -10  162.29   14.39 
   0  -2  10  183.46   11.93 
   2  -2  10  179.09   14.14 
   2  -2 -10  221.33   16.90 
   0   2  10  149.92   15.41 
   2  -2 -10  169.32   16.53 
  -2   0 -10  171.72   18.19 
   2   0  10  184.95   16.71 
  -2   0  10  203.22   13.83 
   2  -3  10  107.69   13.33 
  -2   3 -10  114.94   16.09 
   1   2  10  137.44   16.21 
  -1  -2 -10  128.26   16.37 
   3  -2 -10  116.63   14.78 
   3  -2 -10  112.37   14.85 
   1   2  10  154.20   16.25 
   1  -3  10  115.10   13.77 
   2  -3  10  120.44   14.27 
  -3   1  10  134.91   13.95 
  -2  -1 -10  110.55   15.89 
   3  -1 -10  100.53   13.24 
  -3   2  10  102.51   14.76 
   2   1  10  141.97   16.13 
  -3   2  10  118.32   14.54 
   3  -1 -10  108.19   15.04 
   1  -3  10  102.20   14.31 
  -3   1  10  112.75   14.51 
  -1   3 -10  123.35   15.49 
  -3   2  10  124.99   14.64 
   2   1  10  120.61   15.03 
  -3   1  10  111.94   14.72 
  -4   2  10   40.27   11.43 
  -4   2  10   61.16   13.93 
   4  -2 -10   47.99   14.13 
   2  -4  10   39.21   10.31 
   4  -2 -10   54.23   12.74 
   2   2  10   56.18   13.22 
  -4   2  10   31.57   10.86 
  -2  -2 -10   56.36   13.98 
  -2   4 -10   60.97   15.62 
   2   2  10   23.21    9.88 
   2  -4  10   52.63   12.69 
   3  -2  10  163.75   14.66 
  -2   3  10  160.12   17.03 
  -2   3  10  154.69   14.82 
  -3   2 -10  169.88   18.82 
   1   2 -10  172.67   16.91 
  -2  -1  10  150.63   16.47 
  -3   1 -10  177.60   18.70 
   3  -1  10  162.56   15.70 
   3  -2  10  190.79   18.47 
   1  -3 -10  144.06   15.95 
   2  -3 -10  206.33   17.92 
   3  -1  10  160.40   18.13 
   3  -2  10  166.67   14.54 
   2   1 -10  179.99   15.97 
  -2  -1  10  182.26   19.66 
  -1  -2  10  161.02   16.92 
  -1   3  10  170.39   17.43 
  -1  -2  10  182.66   19.53 
   3  -3 -10   68.95   13.01 
   3   0 -10   37.06   11.81 
   3  -3  10   47.46   10.67 
  -3   3 -10   43.84   12.69 
   3  -3  10   45.25   11.23 
   3   0  10   52.08   12.09 
  -3   0 -10   47.57   11.50 
  -3   0  10   41.19   10.04 
   0   3 -10   34.67   10.32 
   3   0  10   41.11   11.76 
  -3   3  10   50.32   11.11 
   0  -3 -10   65.05   14.12 
  -3   0  10   58.49   13.80 
   0  -3  10   43.05   11.08 
  -3   3  10   65.62   13.51 
   0   3  10   26.71    9.10 
   3   0 -10   39.89    9.75 
   0  -3  10   56.90   14.39 
  -3   3  10   47.70   12.86 
  -1  -3 -10  112.12   20.28 
   3  -4  10  110.89   15.30 
   1  -4  10  111.36   16.36 
  -4   1  10  115.58   15.67 
  -4   1  10  113.94   16.77 
   3   1  10  110.06   15.62 
  -3  -1 -10   92.81   18.11 
   4  -3 -10  119.65   17.03 
   3  -4  10  114.29   14.72 
   1  -4  10   84.98   14.90 
  -4   1  10  106.65   14.46 
  -3   4 -10  107.25   19.52 
  -1   4 -10  109.13   15.90 
   3   1  10  118.97   16.21 
   4  -1 -10  136.34   15.62 
  -4   3  10  111.63   16.16 
   1   3  10  112.62   16.03 
  -4   3  10  125.29   16.57 
   4  -1 -10   96.50   19.32 
  -4   3  10  129.90   15.93 
   2   3  10   99.14   18.87 
   5  -2 -10  137.32   16.95 
  -3   5 -10  115.46   17.61 
  -5   3  10   92.83   18.57 
  -2  -3 -10  110.60   20.46 
   5  -3 -10   95.50   19.84 
   2  -5  10  119.51   18.32 
  -3  -2 -10  131.24   18.08 
   5  -2 -10   94.38   19.96 
   3   2  10  132.22   18.67 
  -2   5 -10  120.12   18.14 
  -5   3  10   96.20   17.87 
   5  -3 -10   77.40   15.60 
  -5   2  10  137.26   19.08 
   3  -5  10  113.07   17.16 
  -5   2  10  123.01   17.43 
  -5   3  10  120.71   16.63 
  -5   2  10   75.56   15.94 
   3   2  10   98.51   18.53 
  -3   6 -10   41.34   15.70 
  -6   3  10    8.48    8.72 
   3   3  10    6.00    9.52 
   6  -3 -10   21.58    8.58 
   6  -3 -10   32.62   14.00 
  -3  -3 -10   17.79   11.04 
   3  -6  10   10.32    8.73 
  -6   3  10   24.68   10.68 
  -6   3  10   10.28    8.08 
   2  -4 -10   55.58   12.29 
  -4   2 -10   38.38   11.63 
   4  -2  10   41.13   12.13 
   4  -2  10   30.50    9.50 
   2   2 -10   60.22   12.62 
  -2  -2  10   55.96   14.61 
  -2   4  10   40.99   11.58 
  -2  -2  10   51.82   13.32 
  -3  -1  10   68.79   15.90 
   4  -1  10  100.57   14.71 
   1  -4 -10   80.66   16.48 
  -3  -1  10   82.02   14.31 
  -4   1 -10   93.76   14.30 
  -3   4  10   64.84   13.70 
  -1   4  10   75.89   14.88 
   4  -3  10   75.36   14.93 
  -3  -1  10   88.57   17.53 
  -4   3 -10   72.26   16.16 
  -1  -3  10  112.13   16.99 
   1   3 -10   75.88   15.00 
  -1  -3  10   80.12   15.10 
   4  -3  10   76.91   11.61 
   4  -1  10   74.48   15.85 
  -4   0  10   73.77   16.68 
  -4   4  10   74.81   15.65 
  -4   0  10   73.82   14.81 
  -4   4 -10   56.49   14.68 
   0  -4  10   82.72   18.28 
   0   4  10   83.58   15.82 
   4  -4  10   62.95   13.75 
   0   4 -10   55.45   13.50 
   4   0 -10   75.09   17.99 
   4   0 -10   42.28   10.69 
  -4   4  10   71.50   15.89 
  -4   0 -10   81.05   16.00 
   0  -4  10   95.40   13.66 
   4  -4 -10  107.23   15.31 
   4   0  10   78.17   16.33 
   4  -4  10   98.54   14.32 
   4   0  10   44.29   13.21 
   0  -4 -10   57.23   15.01 
   4   1  10   27.73   12.10 
   5  -4 -10   28.84   11.63 
  -4   5 -10   40.95   13.86 
   4   1  10   32.17   11.44 
  -4  -1 -10   30.39   10.44 
   1  -5  10   38.99   12.59 
  -1  -4 -10   35.28   13.30 
  -5   1  10   27.77   10.60 
  -1   5 -10   35.17   11.73 
  -5   1  10   24.30   11.39 
  -5   1  10   27.21   11.29 
   5  -1 -10   49.16   15.72 
  -5   4  10   33.71   13.12 
  -5   4  10   50.00   13.85 
   4  -5  10   39.52   12.03 
   1   4  10   46.34   12.22 
   5  -1 -10   20.62    8.37 
  -6   2  10   50.78   14.77 
  -6   4  10   43.38   13.22 
   6  -2 -10   43.06   16.36 
  -6   4  10   64.20   15.57 
   2   4  10   44.15   12.87 
  -2   6 -10   29.45   11.70 
  -6   2  10   29.62   12.62 
  -4  -2 -10   12.46   11.39 
  -2  -4 -10   55.76   16.45 
   6  -4 -10   52.50   15.50 
   6  -2 -10   28.65   11.14 
   4   2  10   42.59   15.03 
   4  -6  10   58.47   16.26 
   4   2  10   30.72   11.68 
  -4   6 -10   47.33   17.08 
   2  -6  10   42.44   14.04 
  -6   2  10   41.29   13.59 
  -5   3 -10   88.20   17.22 
   2  -5 -10   85.91   17.51 
   5  -3  10   97.12   14.60 
   5  -2  10   77.69   16.68 
  -3   5  10   65.80   14.67 
  -2   5  10   87.63   17.34 
  -3  -2  10   72.66   16.16 
   5  -3  10   62.41   14.37 
  -5   3 -10   94.76   18.07 
   5  -2  10   69.10   15.06 
  -3  -2  10  100.81   20.94 
  -2  -3  10   89.16   17.53 
  -5   2 -10   63.67   15.95 
  -2  -3  10   94.74   19.59 
  -4   5  10   27.58    9.93 
   4   1 -10   43.15   14.86 
  -1   5  10   25.51    9.90 
   4   1 -10   33.60    9.58 
  -1  -4  10    9.64    7.68 
   5  -4  10   24.85   10.41 
   5  -4  10   28.72   10.53 
   5  -1  10   12.62    9.35 
  -5   4 -10   20.85   11.45 
  -4  -1  10   37.98   13.01 
  -4  -1  10   23.69    9.93 
  -4   5  10    8.11    7.89 
   1   4 -10   35.65   11.41 
  -5   1 -10   31.91   11.16 
   1  -5 -10   21.75    9.27 
   5  -1  10   23.33   10.06 
   0   5 -10  119.85   18.49 
   5  -5  10   83.57   17.68 
  -5   5  10   85.42   17.64 
   5   0 -10   73.60   18.59 
   0   5  10   98.48   18.06 
   5  -5 -10   82.48   19.11 
  -5   0  10   92.22   20.25 
   0  -5  10   59.34   15.75 
   5   0  10   98.13   19.39 
   5   0  10   77.63   19.51 
   5   0 -10   98.66   16.38 
  -5   5  10   67.94   17.33 
  -5   5 -10   52.97   16.97 
  -5   0  10   70.61   16.20 
   0  -5 -10   69.35   16.27 
  -6   1  10   62.29   17.53 
   5   1  10   36.64   13.57 
   5  -6  10   31.84   12.34 
  -1  -5 -10   50.57   17.02 
   1  -6  10   45.01   14.16 
   5   1  10   51.46   16.66 
   6  -1 -10   34.43   11.73 
  -5   6 -10   64.47   18.66 
  -6   1  10   19.40   10.41 
  -6   5  10   55.75   15.50 
  -6   5  10   33.21   13.38 
   6  -5 -10   44.00   15.83 
  -1   6 -10   44.66   14.61 
   6  -1 -10   54.43   17.81 
   6  -3  10    8.72    8.73 
  -6   3 -10    6.93    8.46 
   6  -3  10   19.11   10.22 
  -3  -3  10   32.20   13.84 
  -3  -3  10   30.89   11.00 
   4   2 -10   73.94   13.39 
   6  -4  10   61.65   15.58 
  -4  -2  10   65.83   15.98 
  -2  -4  10   67.30   18.90 
  -4   6  10   60.73   16.80 
   4   2 -10   75.03   18.72 
   6  -2  10   95.48   20.07 
   2  -6 -10  115.02   21.85 
  -4   6  10  103.72   19.00 
   6  -2  10   61.65   16.56 
   5   1 -10   55.64   11.69 
   5   1 -10   46.37   15.55 
   6  -5  10   56.52   14.05 
  -5   6  10   28.98   12.36 
   1   5 -10   72.06   16.46 
  -5  -1  10   75.54   18.90 
  -1  -5  10  109.51   23.08 
   6  -1  10   62.26   16.52 
  -5   6  10   86.04   17.55 
   1  -6 -10   62.79   17.89 
   6  -1  10   47.66   16.43 
   0   0  11   -5.06    4.37 
   0   0 -11   10.71    6.41 
   0   0  11    2.08    4.52 
   0   0  11    7.63    4.78 
   0   1  11 1066.03   39.21 
   1  -1 -11 1063.06   34.33 
   1  -1  11 1087.63   40.75 
  -1   1 -11 1049.92   42.92 
   0  -1  11 1125.54   38.89 
  -1   1  11 1075.99   39.54 
  -1   0  11 1040.62   37.98 
   1   0 -11  994.81   38.68 
  -1   0 -11  996.18   42.98 
   0   1  11 1095.14   39.42 
   1  -1 -11 1061.53   39.90 
  -1   1  11 1077.07   39.39 
  -1   0  11 1065.63   37.11 
   1  -1  11 1092.09   35.12 
  -1   0  11 1093.32   41.82 
   0  -1  11 1095.54   40.67 
   1  -1 -11 1079.38   41.56 
   1  -1  11 1140.43   35.97 
   0  -1 -11 1049.48   42.56 
   1   0  11 1017.68   39.94 
   0   1 -11 1034.28   41.28 
   0  -1  11 1074.88   34.18 
   1   0  11 1058.70   38.24 
  -1   2 -11    2.15    4.81 
  -2   1  11   -4.68    3.36 
   2  -1 -11   -0.72    3.94 
  -1  -1 -11    8.29    5.94 
  -2   1  11   -1.98    3.65 
   2  -1 -11   -4.82    5.05 
   1   1  11    3.91    5.43 
   2  -1 -11   -0.89    4.65 
  -2   1  11    7.14    6.53 
   1   1  11    6.63    6.85 
   1  -2  11    2.79    3.73 
   1  -2  11    1.47    5.01 
   1  -2  11   -5.10    4.33 
  -1   2  11   -4.00    4.12 
  -1  -1  11   19.20    6.31 
  -2   1 -11    6.55    5.93 
   1  -2 -11   -2.35    3.70 
  -1  -1  11    6.78    5.13 
  -1   2  11   -1.17    4.55 
  -1  -1  11   -3.35    4.05 
   2  -1  11    0.09    3.95 
   1   1 -11   20.30    8.96 
   2  -1  11    1.88    4.76 
   2  -2  11  879.77   33.66 
   2   0  11  853.73   37.38 
   2  -2 -11  929.95   34.81 
   0  -2 -11  866.50   40.30 
  -2   2  11  867.04   36.03 
   2  -2  11  940.65   32.51 
   0  -2  11  808.44   36.65 
  -2   0  11  791.83   34.15 
   2   0 -11  822.82   32.75 
   0  -2  11  896.84   39.64 
  -2   2 -11  886.79   42.03 
  -2   0  11  917.59   40.03 
  -2   2  11  796.09   36.89 
   0   2  11  925.54   36.19 
   2  -2 -11  935.11   36.15 
  -2   0 -11  870.51   41.78 
   2  -2  11  896.06   38.77 
   0   2  11  834.18   37.98 
   0   2 -11  806.67   38.17 
   2   0  11  883.07   37.21 
   1  -3  11  707.57   37.11 
   3  -1 -11  751.84   35.05 
   2  -3  11  670.34   33.60 
   1   2  11  746.85   33.84 
  -3   1  11  724.12   35.52 
   3  -2 -11  729.73   35.78 
  -2   3 -11  667.46   38.24 
   1   2  11  625.21   34.62 
  -3   1  11  683.93   31.01 
  -3   2  11  729.34   34.58 
  -3   2  11  762.88   36.07 
  -3   2  11  749.98   37.90 
   3  -2 -11  653.50   35.46 
  -3   1  11  729.17   37.43 
   2  -3  11  739.90   35.06 
  -2  -1 -11  653.39   37.75 
   2   1  11  701.96   34.40 
  -1  -2 -11  737.65   39.49 
   3  -1 -11  705.16   37.68 
   2   1  11  682.78   35.44 
   1  -3  11  674.54   33.64 
  -1   3 -11  714.29   38.92 
  -2  -2 -11    4.16    6.09 
   2  -4  11    0.12    4.66 
   4  -2 -11   -6.34    3.95 
   4  -2 -11   -9.27    4.74 
   2  -4  11   10.16    6.03 
  -4   2  11   -4.52    6.64 
   2   2  11    3.16    6.74 
   2   2  11    7.03    7.16 
  -2   4 -11    5.25    5.76 
  -4   2  11    3.95    6.70 
  -4   2  11    7.46    6.44 
  -1  -2  11  756.82   37.51 
  -3   1 -11  729.01   39.25 
  -2  -1  11  751.17   31.60 
   3  -1  11  754.66   37.39 
   2  -3 -11  803.74   35.77 
   2   1 -11  801.56   33.77 
   1   2 -11  742.26   36.37 
   3  -2  11  774.30   32.44 
   3  -2  11  720.05   37.48 
  -2  -1  11  822.65   42.49 
  -1  -2  11  735.17   39.43 
   1  -3 -11  733.74   37.13 
  -3   2 -11  799.31   40.52 
  -2  -1  11  713.72   37.45 
  -2   3  11  739.98   36.92 
  -1   3  11  714.95   36.43 
   3  -1  11  763.82   35.07 
  -2   3  11  751.36   32.26 
   3  -3 -11    2.43    4.93 
   3   0 -11   -6.50    3.19 
  -3   0 -11    9.41    7.40 
  -3   0  11   -0.04    6.38 
   3  -3  11    6.82    4.83 
  -3   3 -11    4.30    6.43 
   3   0  11   15.69    7.92 
   0  -3 -11    5.36    5.98 
   0  -3  11   -0.76    5.27 
   3  -3  11   10.01    6.34 
  -3   3  11   -1.07    3.75 
   3   0  11   -7.45    3.89 
   0   3  11   -4.28    4.46 
   0   3 -11    4.92    4.82 
  -3   3  11    3.97    5.00 
  -3   3  11    1.36    6.37 
   3   0 -11    9.71    7.39 
  -3   0  11    5.07    5.31 
   0  -3  11    2.66    5.25 
   3  -4  11  491.25   32.18 
   3   1  11  659.92   36.00 
  -4   1  11  563.50   35.78 
   3   1  11  609.36   36.23 
  -4   3  11  627.39   37.47 
   1  -4  11  613.12   32.07 
   3  -4  11  574.41   31.76 
  -1   4 -11  553.73   36.62 
   4  -1 -11  556.55   32.61 
  -4   1  11  591.99   35.40 
  -4   1  11  554.85   30.82 
   1  -4  11  641.85   38.98 
   4  -3 -11  679.26   39.29 
  -4   3  11  613.86   36.14 
   1   3  11  528.43   33.92 
  -1  -3 -11  573.46   37.62 
  -3  -1 -11  548.22   36.33 
  -4   3  11  628.93   33.98 
   4  -1 -11  637.58   40.87 
  -3   4 -11  655.58   40.63 
  -2   5 -11  438.74   34.65 
  -5   3  11  404.34   30.98 
  -5   3  11  409.21   31.95 
  -5   2  11  388.13   31.30 
   2  -5  11  384.22   32.39 
   5  -3 -11  395.73   34.05 
   3   2  11  424.95   33.52 
   2   3  11  414.15   32.40 
  -5   2  11  457.09   34.69 
  -5   2  11  436.93   30.79 
   5  -2 -11  444.55   30.12 
  -3  -2 -11  371.27   31.26 
   5  -2 -11  440.90   36.47 
   3  -5  11  406.93   32.29 
  -5   3  11  429.58   30.85 
   3   2  11  442.51   30.64 
  -2  -3 -11  431.67   34.48 
  -3   5 -11  413.11   34.75 
  -3  -3 -11   -8.93    7.44 
  -6   3  11  -12.91    6.31 
  -6   3  11   -3.79    6.98 
   3  -6  11    5.68    6.54 
  -3   6 -11    3.54    9.70 
   6  -3 -11    2.87    9.23 
  -6   3  11    3.14    8.39 
   3   3  11    3.15    7.81 
  -4   2 -11   10.35    7.57 
  -2   4  11    6.08    6.92 
   2  -4 -11   -2.67    4.62 
   4  -2  11    3.50    6.14 
   4  -2  11    1.32    5.34 
  -2  -2  11   -8.93    4.58 
  -2  -2  11    0.78    5.28 
   4  -1  11  557.03   33.00 
  -1   4  11  559.28   33.99 
  -3  -1  11  578.97   31.63 
  -1  -3  11  508.84   31.83 
   1   3 -11  586.22   34.63 
   4  -3  11  557.08   33.59 
   1  -4 -11  521.01   35.06 
  -1  -3  11  576.82   38.96 
   4  -1  11  513.84   33.48 
  -4   1 -11  522.47   34.03 
  -4   3 -11  562.21   36.78 
  -3  -1  11  484.09   33.62 
  -3   4  11  571.91   34.78 
   4   0 -11  471.88   37.21 
   4  -4  11  503.36   32.30 
  -4   4  11  496.45   34.22 
   0  -4 -11  473.61   35.28 
  -4   0  11  499.41   35.66 
  -4   4 -11  463.98   34.70 
   4   0 -11  522.94   29.98 
  -4   4  11  485.16   34.37 
   4   0  11  523.89   34.72 
   4  -4 -11  474.95   31.95 
   0  -4  11  494.85   36.67 
   4  -4  11  504.71   32.46 
  -4   0 -11  506.71   34.54 
   4   0  11  488.59   33.92 
   0   4 -11  514.73   34.73 
   0  -4  11  501.82   30.69 
  -4   0  11  522.79   32.83 
   0   4  11  492.88   32.80 
   1   4  11    0.44    6.47 
   1  -5  11    4.13    6.17 
   5  -1 -11    1.43    5.03 
   5  -4 -11   -2.55    6.33 
  -5   4  11   -8.96    4.67 
  -5   4  11    3.44    6.76 
   4   1  11   -6.74    5.65 
  -1  -4 -11    1.78    5.40 
  -5   1  11    5.03    8.29 
   4  -5  11   -1.47    5.56 
   5  -1 -11   -0.50    8.83 
   4   1  11    4.20    7.29 
  -4   5 -11   -0.38    8.05 
  -5   1  11    3.55    7.91 
  -4  -1 -11  -11.04    5.93 
  -1   5 -11    5.10    6.78 
  -6   4  11  299.66   29.36 
  -6   2  11  244.12   26.90 
   6  -2 -11  242.75   29.88 
  -2   6 -11  323.68   31.96 
  -6   4  11  275.42   28.48 
   4  -6  11  233.63   27.13 
  -6   2  11  261.96   28.02 
  -4   6 -11  315.43   32.72 
   2   4  11  302.90   28.37 
  -4  -2 -11  276.95   28.53 
   2  -6  11  297.16   31.37 
   6  -4 -11  282.90   29.88 
  -6   2  11  256.70   25.95 
  -2  -4 -11  279.47   30.18 
   4   2  11  283.19   30.16 
   6  -2 -11  299.88   26.43 
   4   2  11  323.17   29.36 
  -2  -3  11  432.64   35.79 
  -3   5  11  394.54   29.75 
  -5   2 -11  394.96   30.42 
   5  -3  11  369.34   29.70 
   2  -5 -11  385.55   29.79 
  -5   3 -11  381.05   30.75 
  -3  -2  11  391.59   31.29 
  -2  -3  11  374.63   30.25 
  -3  -2  11  368.20   33.64 
  -2   5  11  349.19   28.79 
   5  -2  11  434.12   30.85 
   5  -2  11  368.29   30.14 
  -4  -1  11    6.54    6.81 
   5  -1  11   -5.28    7.03 
  -1   5  11   -1.06    6.02 
   4   1 -11    7.20    8.64 
   5  -4  11    6.65    8.09 
   1  -5 -11   -0.59    6.38 
  -1  -4  11   -3.22    4.56 
  -4   5  11   -4.20    4.92 
   5  -1  11    8.67    8.13 
   4   1 -11    0.81    5.82 
  -4   5  11   -9.13    6.13 
  -5   4 -11   10.87    8.65 
  -5   1 -11    4.52    8.05 
  -1  -4  11   -2.60    6.52 
   1   4 -11   15.49    7.62 
   5   0 -11  280.98   30.80 
   5  -5  11  280.90   28.01 
   5   0  11  338.02   30.71 
   0  -5  11  346.94   33.69 
  -5   0 -11  333.01   29.02 
   5   0  11  288.30   28.61 
   0  -5 -11  307.52   30.25 
  -5   5 -11  307.94   29.93 
   5   0 -11  304.98   24.60 
   0   5  11  287.45   26.34 
  -5   0  11  323.01   31.08 
  -5   5  11  345.83   31.86 
  -5   0  11  333.48   28.65 
  -5   5  11  305.30   28.56 
   0   5 -11  345.92   31.03 
  -5   6 -11  283.06   31.18 
   5  -6  11  246.57   27.53 
   1   5  11  275.15   27.24 
   6  -5 -11  242.18   28.74 
  -6   1  11  219.26   25.29 
  -6   1  11  217.49   27.05 
   5   1  11  209.52   25.15 
  -6   5  11  280.10   30.02 
   6  -3  11   12.84    9.59 
  -3  -3  11   17.88   12.49 
  -3  -3  11  -13.54    6.96 
  -3   6  11   -7.23    6.20 
  -4  -2  11  324.25   30.75 
   4   2 -11  323.28   33.20 
  -4   6  11  386.35   31.85 
   4   2 -11  290.14   22.27 
   2  -6 -11  312.61   30.11 
   6  -4  11  243.02   25.92 
   6  -2  11  316.57   30.70 
  -4   6  11  279.54   30.47 
   6  -2  11  281.61   28.89 
  -2  -4  11  273.56   31.90 
  -5   6  11  295.57   28.39 
   6  -1  11  221.75   26.90 
  -5  -1  11  276.12   29.07 
   1   5 -11  288.56   28.80 
  -5   6  11  300.02   30.99 
   0   0  12 1514.04   49.46 
   0   0 -12 1498.28   52.28 
   0   0  12 1387.11   44.85 
   1  -1  12 1180.34   44.38 
   0  -1  12 1168.48   41.02 
   0  -1  12 1117.74   43.55 
   0   1  12 1206.51   43.61 
  -1   0  12 1172.82   40.78 
  -1   1  12 1250.81   44.35 
   1   0  12 1142.62   41.67 
   1   0  12 1165.69   44.96 
   0   1  12 1192.24   42.92 
   0  -1  12 1224.59   38.12 
  -1   0  12 1129.41   44.70 
   1  -1 -12 1141.00   44.85 
   0  -1 -12 1216.25   47.53 
  -1   0 -12 1123.95   47.25 
   1  -1  12 1182.58   39.27 
   1  -1  12 1256.17   37.97 
   0   1 -12 1110.28   44.82 
  -1   1 -12 1173.09   46.70 
   1  -1 -12 1267.22   38.60 
  -1   0  12 1189.11   41.80 
   1   0 -12 1168.43   43.76 
  -1   1  12 1120.88   42.77 
  -1  -1 -12  405.89   28.85 
   2  -1 -12  389.02   25.55 
  -2   1  12  394.65   25.72 
  -1   2 -12  412.42   28.94 
  -2   1  12  415.20   27.26 
   1   1  12  408.88   26.63 
   2  -1 -12  391.15   24.44 
   1   1  12  391.82   25.89 
   1  -2  12  375.90   25.50 
   2  -1 -12  448.89   27.03 
  -2   1  12  355.43   22.44 
   1  -2  12  374.08   24.56 
  -1  -1  12  341.75   20.71 
  -1   2  12  297.73   22.83 
   1   1 -12  341.29   23.18 
   1  -2 -12  323.12   24.46 
  -1   2  12  308.66   22.34 
  -1  -1  12  348.77   25.42 
   2  -1  12  301.34   24.28 
  -1  -1  12  334.80   23.91 
  -2   1 -12  297.80   25.33 
   2  -1  12  342.50   22.42 
  -2   2  12  895.72   38.32 
   0  -2 -12  804.55   40.97 
  -2   2 -12  903.42   44.23 
   0   2  12  964.21   38.86 
   2  -2 -12  871.78   37.32 
  -2   0  12  859.25   41.05 
   0  -2  12  876.16   40.24 
   2  -2  12  886.21   32.72 
   2   0 -12  872.22   35.44 
   2   0  12  863.47   40.37 
   0   2 -12  919.15   41.98 
   2   0 -12  871.70   37.76 
   2  -2  12  853.40   40.02 
   2  -2  12  910.44   35.43 
  -2   0  12  785.84   35.15 
  -2   2  12  855.27   39.45 
   2   0 -12  832.72   40.30 
   0  -2  12  870.33   39.67 
   2   0  12  957.10   39.74 
   0   2  12  829.66   39.26 
  -2   0 -12  848.16   43.00 
   3  -2 -12  842.10   40.99 
  -2   3 -12  853.74   44.27 
  -3   2  12  815.23   37.57 
  -3   1  12  824.42   39.51 
  -3   2  12  839.69   41.50 
   2   1  12  802.04   39.26 
   2  -3  12  784.43   37.70 
   1   2  12  821.42   40.54 
   1  -3  12  841.13   41.46 
  -3   1  12  807.35   34.28 
  -3   2  12  796.62   38.76 
   2   1  12  781.84   39.55 
   3  -1 -12  846.54   38.64 
  -3   1  12  780.30   40.09 
   3  -1 -12  752.04   40.05 
   2  -3  12  806.22   38.30 
   1  -3  12  830.26   39.20 
  -1   3 -12  805.43   42.42 
  -2  -1 -12  785.37   42.85 
   1   2  12  838.25   38.36 
  -1  -2 -12  782.32   42.84 
   3  -2 -12  903.03   40.67 
   2  -4  12  184.14   18.95 
  -4   2  12  197.74   22.06 
  -4   2  12  200.72   20.68 
  -4   2  12  197.79   21.41 
   2   2  12  215.21   22.17 
  -2  -2 -12  216.44   23.51 
   2  -4  12  229.48   22.67 
   4  -2 -12  204.03   23.20 
   2   2  12  211.82   22.40 
  -2   4 -12  198.85   23.32 
   4  -2 -12  243.55   22.05 
   1   2 -12  893.07   40.79 
  -2   3  12  858.07   36.33 
  -2  -1  12  833.68   34.80 
  -1  -2  12  838.54   41.05 
   2  -3 -12  823.62   38.08 
   1  -3 -12  818.79   41.08 
  -3   1 -12  768.27   41.81 
  -2  -1  12  788.02   40.52 
  -2   3  12  849.49   40.76 
   3  -1  12  786.03   39.39 
   3  -1  12  805.23   37.00 
  -1   3  12  783.80   39.25 
   3  -2  12  835.37   35.13 
   3  -2  12  833.59   40.92 
  -2  -1  12  784.96   42.38 
  -1  -2  12  778.50   41.59 
  -3   2 -12  872.95   44.71 
   0  -3  12  878.31   45.08 
  -3   0 -12  815.01   43.45 
   0   3  12  834.62   41.81 
   3   0 -12  845.66   38.01 
   3   0 -12  795.60   43.40 
  -3   0  12  816.05   43.16 
  -3   3  12  828.16   37.90 
  -3   3 -12  809.28   44.54 
   3   0  12  820.09   40.92 
   3  -3  12  810.63   40.77 
   0   3 -12  785.79   42.22 
  -3   3  12  872.66   42.98 
   3   0  12  792.59   39.93 
  -3   0  12  845.41   38.76 
   0  -3 -12  853.78   44.39 
   0  -3  12  830.12   39.82 
   3  -3  12  853.46   37.83 
  -3   3  12  812.57   42.01 
  -1   4 -12  750.07   43.05 
  -4   1  12  675.89   41.21 
   3   1  12  656.82   39.60 
  -4   3  12  759.18   42.55 
   4  -1 -12  738.80   44.53 
  -4   1  12  733.45   40.01 
   1   3  12  671.46   38.91 
   4  -3 -12  700.42   40.64 
   3   1  12  700.97   38.43 
  -4   3  12  665.45   38.89 
   1  -4  12  708.93   42.29 
   4  -1 -12  692.97   37.56 
   1  -4  12  661.38   35.22 
  -1  -3 -12  692.93   42.42 
   3  -4  12  728.46   37.97 
  -3  -1 -12  723.99   42.33 
  -3   4 -12  706.30   43.26 
  -4   3  12  669.63   37.84 
  -4   1  12  690.19   35.09 
   3  -4  12  672.78   37.98 
  -5   2  12  420.10   30.40 
   3  -5  12  445.70   33.70 
   2   3  12  428.82   33.22 
   2  -5  12  379.51   32.45 
  -5   3  12  421.49   31.26 
   5  -2 -12  380.52   34.57 
  -2   5 -12  366.54   32.04 
  -3   5 -12  440.99   36.41 
   3   2  12  453.92   31.94 
  -5   3  12  409.88   31.43 
  -2  -3 -12  447.22   35.52 
  -5   2  12  389.64   32.94 
  -3  -2 -12  368.77   32.31 
   5  -2 -12  453.50   31.10 
   5  -3 -12  427.18   35.83 
  -5   3  12  400.85   33.41 
  -5   2  12  348.37   29.64 
   3   2  12  383.95   32.40 
  -3  -3 -12  417.84   36.75 
  -6   3  12  395.29   33.68 
  -6   3  12  387.68   32.29 
  -3   6 -12  372.59   35.70 
   3   3  12  327.44   32.38 
   3  -6  12  430.80   36.71 
  -6   3  12  381.50   35.09 
   6  -3 -12  405.38   38.54 
   4  -2  12  240.26   23.13 
  -4   2 -12  258.16   25.58 
   2  -4 -12  264.06   23.71 
   4  -2  12  247.84   21.66 
  -2  -2  12  212.62   24.31 
  -2   4  12  291.79   25.46 
  -2  -2  12  310.57   26.52 
  -1  -3  12  664.73   42.47 
  -1   4  12  626.14   37.30 
   4  -1  12  616.25   38.04 
  -4   1 -12  586.46   37.60 
   4  -1  12  649.80   36.88 
  -4   3 -12  757.19   42.60 
   4  -3  12  679.34   39.54 
   1   3 -12  678.97   38.01 
  -3   4  12  671.63   38.85 
  -3  -1  12  647.99   40.14 
   1  -4 -12  622.55   40.19 
  -1  -3  12  668.13   36.87 
  -3  -1  12  707.63   35.25 
   4   0  12  571.70   37.22 
  -4   4 -12  618.09   40.41 
  -4   0 -12  595.82   38.95 
   0  -4  12  628.04   35.31 
   0  -4  12  640.63   42.70 
   0   4 -12  609.88   39.29 
   4   0  12  549.84   36.27 
   4  -4  12  586.53   36.22 
   0  -4 -12  578.86   40.83 
  -4   0  12  503.72   36.58 
  -4   4  12  532.57   36.25 
  -4   4  12  621.22   39.51 
  -4   0  12  592.30   35.55 
   0   4  12  623.24   37.39 
   4   0 -12  628.06   42.65 
   4   0 -12  572.02   32.58 
   4  -4  12  600.32   35.63 
   4  -5  12  217.50   23.99 
   4   1  12  130.99   19.35 
  -5   4  12  183.60   22.81 
   1   4  12  164.30   20.88 
   5  -1 -12  215.02   21.88 
  -1  -4 -12  168.73   22.99 
   1  -5  12  165.01   22.87 
  -1   5 -12  169.86   22.73 
  -5   1  12  167.14   21.61 
  -5   1  12  158.45   22.18 
  -5   4  12  172.63   22.77 
  -4   5 -12  199.51   25.62 
  -4  -1 -12  184.87   22.74 
   4   1  12  171.37   21.33 
   5  -4 -12  208.51   24.26 
   5  -1 -12  156.92   23.65 
  -6   2  12  353.96   30.76 
  -6   2  12  350.69   32.34 
   2   4  12  387.06   32.67 
  -6   2  12  359.44   32.82 
   6  -2 -12  412.66   32.66 
  -4  -2 -12  441.92   36.30 
   4   2  12  376.85   32.94 
  -6   4  12  378.40   33.87 
   6  -4 -12  368.26   34.83 
  -4   6 -12  390.40   35.76 
   6  -2 -12  324.86   33.42 
   4  -6  12  437.91   37.08 
  -5   2 -12  381.77   31.21 
   2  -5 -12  437.18   32.46 
   5  -2  12  370.76   29.36 
  -3  -2  12  407.08   35.96 
   5  -3  12  409.09   32.04 
  -2  -3  12  428.86   36.61 
  -3  -2  12  454.37   34.36 
  -2  -3  12  378.96   30.73 
   5  -2  12  383.85   32.19 
  -3   5  12  431.99   32.31 
  -2   5  12  399.39   31.59 
  -5   3 -12  482.12   36.02 
   4   1 -12  123.65   23.64 
  -1  -4  12  148.75   21.70 
  -4   5  12  120.99   22.76 
   1   4 -12  146.03   19.98 
  -1  -4  12  129.91   19.82 
  -5   4 -12  143.58   21.41 
  -5   1 -12  146.65   20.19 
   5  -4  12  150.11   20.80 
  -1   5  12  185.81   21.75 
  -4   5  12  162.19   20.53 
   5  -1  12  130.93   19.94 
   1  -5 -12  135.77   20.05 
   5  -1  12  158.48   21.47 
  -4  -1  12  141.12   19.91 
   4   1 -12  161.90   18.17 
   0   5 -12  303.89   29.78 
  -5   0  12  296.15   29.75 
   0   5  12  261.69   25.99 
   5   0  12  307.30   29.94 
  -5   0  12  289.23   28.14 
  -5   5  12  371.42   31.60 
   5   0 -12  294.62   25.11 
   5  -5  12  300.97   28.31 
  -5   5  12  284.21   30.09 
  -5   5 -12  308.80   31.72 
  -5   0 -12  330.95   30.44 
   0  -5 -12  312.65   31.98 
   5   0 -12  357.31   34.52 
   5   0  12  303.28   30.41 
   0  -5  12  357.37   34.31 
  -3  -3  12  349.54   30.83 
  -3   6  12  318.30   29.66 
   6  -3  12  321.37   30.90 
  -4   6  12  452.65   35.51 
  -4   6  12  331.63   33.58 
   6  -2  12  324.59   31.54 
  -4  -2  12  428.20   35.52 
   6  -4  12  403.75   33.02 
   2  -6 -12  358.13   32.82 
   6  -2  12  343.47   33.03 
   0   0  13    8.68    7.47 
   0   0  13    6.99    5.12 
   0   0 -13   15.44    7.33 
   1  -1  13   90.94   11.57 
   0  -1  13   86.34   11.70 
   0   1 -13   97.71   14.05 
   1  -1 -13   91.50   13.48 
  -1   0  13   88.57   13.96 
   1   0  13   70.07   14.56 
   1   0 -13   83.66   12.71 
   1  -1  13   82.59   15.24 
   1   0  13   93.81   12.80 
   0  -1  13   78.20   15.03 
  -1   1 -13   98.08   14.64 
  -1   1  13   80.03   14.47 
  -1   0  13   97.64   12.94 
  -1   1  13  104.56   14.38 
  -1   0  13  100.98   13.33 
   0   1  13   95.97   13.73 
   0  -1  13   99.15   12.91 
   0   1  13   97.68   14.97 
  -1   0 -13   79.36   15.78 
   0  -1 -13   86.65   16.35 
   2  -1 -13   -1.79    4.76 
   1  -2  13    4.60    5.91 
   1  -2  13    2.36    5.69 
   2  -1 -13   -7.86    4.95 
  -2   1  13   -3.30    4.33 
   1   1  13   -3.15    4.42 
   2  -1 -13    6.76    6.63 
  -1   2 -13   -1.12    4.03 
  -2   1  13   -0.60    4.52 
   1   1  13    5.42    7.36 
  -2   1  13    0.02    6.24 
  -1  -1 -13    6.38    5.65 
  -1  -1  13    3.34    4.57 
  -1  -1  13    2.60    5.18 
  -2   1 -13    4.07    6.78 
  -1   2  13    3.23    4.60 
   1   1 -13    1.17    5.36 
  -1   2  13   -7.55    4.56 
  -1  -1  13   -1.83    4.70 
   1  -2 -13    3.62    5.73 
   2  -1  13   -5.75    6.12 
   2  -1  13    1.18    5.60 
  -2   2 -13   68.75   16.25 
   0  -2  13   66.83   14.75 
  -2   0  13   83.53   12.43 
   0  -2  13   76.32   14.78 
   0  -2 -13   62.66   14.59 
  -2   0  13   61.50   14.79 
   2   0  13   60.45   14.43 
   0   2  13   76.85   14.80 
   2   0 -13   93.21   13.76 
  -2   0 -13   54.83   14.55 
   0   2 -13   39.48   11.32 
   2   0  13   75.43   14.26 
  -2   2  13   62.86   13.79 
   2   0 -13   66.90   14.24 
   2  -2  13   57.25   13.78 
   2  -2 -13   84.71   12.60 
   0   2  13   51.75   12.35 
  -2   2  13   63.10   14.12 
   1   2  13   68.74   14.86 
   1  -3  13   72.39   15.74 
   2  -3  13   62.39   14.05 
   3  -2 -13   75.76   15.42 
  -3   2  13   70.76   15.39 
  -2  -1 -13   46.18   13.90 
   2  -3  13   56.82   13.58 
   3  -1 -13   74.09   15.15 
   1  -3  13   50.47   12.31 
  -2   3 -13   72.41   16.41 
   1   2  13   70.97   15.01 
  -3   1  13   47.46   13.91 
  -1   3 -13   68.67   16.08 
  -3   1  13   85.00   16.41 
  -3   2  13   71.19   16.23 
   2   1  13   47.50   12.92 
  -1  -2 -13   77.55   17.48 
  -3   2  13   64.30   13.70 
  -3   1  13   53.63   11.72 
   2   1  13   78.03   16.07 
   3  -1 -13   49.11   12.70 
   2   2  13   17.63   10.55 
   2   2  13    0.57    5.54 
  -4   2  13   -1.25    6.30 
   4  -2 -13   -6.23    5.70 
  -4   2  13   10.42    7.71 
   2  -4  13    4.00    5.67 
  -2  -2 -13    6.81    7.34 
  -4   2  13    5.08    8.12 
  -2   4 -13  -10.99    4.63 
   2  -4  13   -4.70    4.69 
   4  -2 -13   -3.38    5.92 
   3  -1  13   64.57   13.27 
  -2   3  13   50.53   12.98 
  -3   2 -13   48.35   13.67 
  -2   3  13   49.71   12.26 
  -2  -1  13   40.68   10.19 
  -2  -1  13   29.60    9.82 
  -2  -1  13   45.13   12.92 
  -1  -2  13   58.30   14.56 
   3  -2  13   47.46   13.39 
   3  -1  13   69.20   16.46 
   3  -2  13   60.64   12.54 
   1  -3 -13   54.44   14.07 
  -1   3  13   70.35   14.90 
  -3   1 -13   58.05   15.11 
   2  -3 -13   37.10   10.15 
  -1  -2  13   46.16   12.51 
   1   2 -13   69.31   14.72 
   0  -3  13   10.12    7.19 
   0  -3  13   -3.14    5.06 
  -3   3 -13   -4.96    6.51 
   3   0  13   14.61    8.45 
   3   0 -13    6.93    6.34 
   0  -3 -13    9.18    7.98 
  -3   3  13  -10.75    4.53 
   0   3  13    7.26    6.77 
   0   3 -13    5.44    6.57 
  -3   0  13    7.74    7.17 
   3  -3  13   -1.47    5.97 
   3   0 -13   -6.34    4.46 
  -3   3  13   12.52    8.12 
  -3   3  13    4.53    6.13 
  -3   0 -13   17.03    8.63 
   3   0  13   -2.33    5.57 
  -3   0  13  -13.48    3.97 
   1  -4  13   59.74   14.84 
  -1  -3 -13   47.83   13.73 
  -3   4 -13   36.66   13.74 
   3  -4  13   32.85   10.95 
  -4   3  13   31.89   12.67 
  -4   3  13   48.99   13.51 
  -4   1  13   35.28   12.60 
   1   3  13   45.51   13.00 
  -4   3  13   55.47   14.69 
  -4   1  13   53.04   13.86 
   4  -1 -13   52.85   12.79 
   1  -4  13   38.76   11.31 
   3   1  13   46.44   13.42 
  -3  -1 -13   26.70   11.44 
   4  -1 -13   26.61   11.06 
   3   1  13   49.83   13.94 
  -1   4 -13   24.54   11.07 
   3  -4  13   60.53   13.52 
   4  -3 -13   44.89   13.49 
  -5   2  13   41.18   13.12 
   5  -2 -13   32.60   10.78 
  -5   2  13   39.70   11.42 
  -5   2  13   27.09   12.19 
  -5   3  13   28.79   11.20 
   2   3  13   17.99    9.37 
  -3   5 -13   14.30   10.58 
   3   2  13   25.79   11.20 
  -5   3  13   12.04    9.26 
   3  -5  13   26.93   11.77 
  -3  -2 -13   38.16   13.54 
   2  -5  13   22.12   10.46 
   5  -2 -13   43.76   16.35 
  -2  -3 -13   13.74   10.59 
  -5   3  13    9.59   10.55 
   5  -3 -13   40.56   14.28 
  -2   5 -13   28.80   12.25 
   3   2  13   16.80    9.74 
  -6   3  13   -1.34    7.58 
  -6   3  13   10.82    9.50 
   4  -2  13    4.36    6.61 
  -2  -2  13   -2.17    6.15 
  -2  -2  13   -2.34    4.49 
   2  -4 -13   -7.50    5.33 
   4  -2  13    2.99    6.00 
  -2   4  13    1.46    5.15 
  -4   2 -13    8.35    7.96 
  -1  -3  13   70.94   16.05 
   1   3 -13   86.25   17.99 
  -1  -3  13   41.21   13.12 
   3   1 -13   38.49   11.69 
   1  -4 -13   49.93   13.90 
  -3   4  13   41.22   11.01 
  -3  -1  13   41.63   14.45 
   4  -3  13   68.17   16.07 
  -4   3 -13   61.00   15.81 
   4  -1  13   57.24   13.17 
   4  -1  13   36.25   12.48 
  -4   1 -13   75.24   17.33 
  -1   4  13   51.78   13.41 
   3   1 -13   27.87   12.50 
   0  -4  13   55.29   15.54 
   0   4 -13   36.88   12.73 
   4   0  13   42.48   12.96 
  -4   0  13   52.81   15.66 
   0   4  13   66.71   14.71 
  -4   4 -13   54.65   16.17 
  -4   0  13   41.55   13.02 
   0  -4  13   26.30   10.80 
   4  -4  13   44.98   13.48 
  -4   0 -13   47.04   15.41 
   4   0 -13   47.04   15.56 
  -4   4  13   25.59   11.75 
   4   0  13   35.21   11.88 
   4   0 -13   55.16   12.81 
  -4   4  13   31.33   11.68 
   0  -4 -13   33.63   13.13 
  -4   5 -13   -0.18    9.36 
   4   1  13    0.91    7.21 
  -5   1  13    1.73    7.21 
   5  -1 -13    0.90   10.20 
   1  -5  13   -3.95    5.73 
  -4  -1 -13    4.25    8.43 
  -5   1  13   15.35    9.32 
   4   1  13    8.91    8.28 
  -5   4  13   -7.56    5.88 
  -1   5 -13   -1.67    5.54 
   1   4  13    3.64    5.98 
  -1  -4 -13    1.06    6.85 
   5  -1 -13   -1.33    6.64 
   4  -5  13   -8.31    5.62 
  -5   4  13    1.10    7.45 
   4   2  13   34.21   13.85 
   6  -2 -13   31.18   12.09 
   6  -4 -13   36.47   13.01 
  -6   4  13   27.32   12.92 
  -6   2  13   26.09   12.55 
  -3  -2  13   60.66   16.69 
  -2   5  13   21.95   10.12 
   5  -3  13   26.44   12.34 
   2  -5 -13   48.84   13.64 
   5  -2  13   49.42   13.80 
  -2  -3  13   42.35   14.93 
  -5   2 -13   56.32   14.89 
  -3   5  13   42.14   13.06 
  -2  -3  13   34.34   13.93 
   5  -2  13   36.61   13.28 
  -5   3 -13   34.63   14.27 
  -3  -2  13   31.06   12.56 
  -5   4 -13   22.90   13.25 
  -4   5  13   -4.53    7.30 
   5  -4  13   -1.84    6.68 
  -1  -4  13   -4.84    7.48 
  -4  -1  13   -0.15    6.54 
  -1  -4  13   -1.96    5.98 
   4   1 -13   -4.00    6.50 
   1  -5 -13   -0.10    8.26 
   4   1 -13   14.84    9.42 
  -4   5  13   -7.53    5.50 
   1   4 -13    0.74    7.38 
   5  -1  13   -2.36    7.49 
  -1   5  13   -1.79    5.86 
  -5   1 -13    5.26    8.68 
   5  -1  13    6.01    9.03 
  -5   0  13    4.74    9.82 
   5   0 -13   31.40   13.83 
   5   0 -13   27.10   10.46 
   5   0  13   14.91   10.84 
  -5   5 -13   43.43   16.35 
  -5   0 -13   18.99   12.30 
   0   5 -13   19.76   10.69 
   5   0  13   29.94   12.79 
   0   5  13    4.43    8.63 
   0  -5 -13   37.71   14.79 
  -5   5  13   30.66   12.07 
  -5   5  13   17.40   10.47 
  -5   0  13   14.98   11.14 
   6  -3  13   -5.90    7.41 
  -3  -3  13   -2.43    7.29 
  -3   6  13   -6.47    7.16 
   6  -2  13   19.62   11.67 
  -4   6  13   24.72   12.23 
  -4  -2  13    9.56    8.18 
   6  -4  13   25.62   13.70 
  -2   6  13   26.33   12.44 
   0   0 -14  315.69   25.78 
   0   0  14  298.82   24.39 
   0   0  14  270.66   21.21 
   0  -1  14   99.86   12.78 
   0   1  14   80.33   15.14 
  -1   1 -14   79.02   16.37 
  -1   1  14  121.85   16.26 
   0  -1  14   94.97   14.78 
  -1   1  14   98.38   14.11 
  -1   0  14   90.15   13.09 
   1   0  14   96.06   14.08 
   0   1 -14   66.04   14.11 
   1  -1 -14   93.36   14.20 
   1  -1  14  104.08   15.17 
   1  -1  14   90.88   13.06 
  -1   0 -14  112.95   16.71 
   0   1  14   99.66   15.28 
   0  -1 -14   85.40   16.56 
  -1   0  14   96.78   14.97 
   1   0 -14  143.14   17.17 
   1   0  14  106.36   16.27 
   2  -1 -14  870.68   39.10 
   1   1  14  769.18   39.52 
  -1   2 -14  872.31   45.48 
  -1  -1 -14  829.98   44.71 
   1  -2  14  807.58   41.05 
   1  -2  14  848.88   38.90 
  -2   1  14  776.60   39.16 
   1   1  14  851.54   41.15 
  -2   1  14  843.69   41.47 
  -2   1  14  833.03   35.40 
   2  -1  14  444.86   27.19 
  -1   2  14  518.80   31.10 
   2  -1  14  387.70   29.55 
  -1  -1  14  416.18   24.65 
  -1  -1  14  442.58   29.15 
  -1  -1  14  364.27   29.01 
   1  -2 -14  437.99   30.98 
  -2   1 -14  389.14   31.30 
   1   1 -14  439.29   28.94 
  -1   2  14  459.00   30.84 
   0  -2  14   78.49   16.18 
  -2   0  14   73.58   17.04 
   2  -2  14   52.01   13.17 
   0  -2  14   79.00   16.09 
  -2   0 -14  105.70   20.32 
   0  -2 -14   69.22   16.09 
   0   2  14   80.69   16.12 
  -2   0  14   67.23   13.48 
   0   2  14   75.13   16.44 
   2   0  14   98.43   14.94 
   2   0 -14   64.90   13.83 
  -2   2  14   63.65   14.47 
   2  -2 -14   68.79   13.73 
   2   0  14   81.15   17.04 
  -2   2  14   75.84   15.64 
   2   0 -14   72.14   15.30 
  -2   2 -14   75.10   16.48 
   0   2 -14   49.71   13.80 
   2   1  14   54.39   14.25 
  -3   1  14   66.79   14.56 
   1   2  14   36.15   11.83 
   3  -1 -14   70.12   16.11 
   1  -3  14   70.43   16.35 
  -3   2  14   69.55   15.62 
  -1   3 -14   55.34   14.48 
   1   2  14   78.86   16.54 
   3  -1 -14   73.85   15.01 
   2  -3  14   55.72   13.08 
  -3   2  14   50.72   12.68 
  -1  -2 -14   87.72   19.08 
   2   1  14   84.67   17.11 
  -2  -1 -14   20.22   10.44 
  -2   3 -14   38.46   13.04 
  -3   1  14   51.55   13.42 
  -3   2  14   77.33   16.55 
   2  -3  14   75.94   17.01 
   1  -3  14   53.44   14.39 
  -2  -2 -14  325.96   30.76 
   2   2  14  275.21   26.68 
  -4   2  14  307.25   27.59 
   2  -4  14  282.74   25.49 
   4  -2 -14  274.75   27.41 
   2   2  14  264.69   24.47 
  -4   2  14  328.09   29.13 
   2  -4  14  268.45   26.16 
  -4   2  14  320.42   26.49 
  -2   4 -14  214.81   25.32 
  -2   3  14   78.91   15.83 
  -3   1 -14   57.09   15.10 
   3  -2  14   59.18   15.09 
  -3   2 -14   95.02   19.79 
   3  -1  14   91.24   16.36 
  -2  -1  14   69.76   15.35 
  -1  -2  14   89.97   17.64 
   1  -3 -14   72.10   15.48 
  -2  -1  14   73.33   16.38 
   3  -1  14   67.42   15.64 
  -1  -2  14   85.82   17.38 
   1   2 -14  101.82   15.40 
  -1   3  14   69.76   14.69 
   2  -3 -14  115.23   15.57 
   3   0 -14  220.36   21.21 
  -3   3  14  215.90   21.50 
  -3   3  14  175.19   21.43 
   0  -3  14  178.65   20.37 
   3   0 -14  193.73   22.09 
   3  -3  14  199.03   21.80 
   0  -3  14  226.50   24.62 
   0  -3 -14  199.72   23.19 
   0   3  14  234.47   23.03 
  -3   0 -14  223.06   24.73 
  -3   0  14  176.97   21.63 
   0   3 -14  246.82   25.27 
  -3   3  14  218.76   22.70 
  -3   3 -14  188.38   24.04 
   3   0  14  232.92   23.99 
   3   0  14  214.77   22.48 
  -3   0  14  206.87   21.04 
  -4   1  14   88.37   19.01 
   3  -4  14   86.30   17.47 
  -4   3  14   61.58   15.78 
  -1  -3 -14   90.65   20.05 
   3  -4  14   88.52   17.73 
   3   1  14   72.36   16.59 
   1  -4  14   98.97   20.22 
   1   3  14   96.39   18.72 
  -4   3  14  103.24   15.75 
   3   1  14   63.24   16.58 
  -1   4 -14   75.16   17.59 
  -4   3  14   92.52   18.56 
  -3  -1 -14  101.71   20.64 
  -4   1  14   64.07   15.97 
   1  -4  14   94.63   17.87 
  -3   4 -14   58.55   17.30 
   4  -1 -14   82.30   16.86 
   4  -1 -14   93.33   19.87 
   3  -5  14   42.53   13.71 
   3   2  14   15.42   10.20 
   2  -5  14   79.32   18.64 
  -2   5 -14   38.45   14.32 
  -2  -3 -14   18.17   12.21 
  -5   3  14   42.11   14.14 
   5  -2 -14   47.69   16.83 
   3   2  14   21.56   11.34 
  -5   3  14   43.84   13.35 
   2   3  14   33.35   12.84 
  -5   2  14   52.55   14.73 
  -3  -2 -14   46.50   15.41 
  -5   2  14   49.65   16.01 
  -5   3  14   70.55   16.27 
  -3   5 -14   50.26   16.75 
   5  -3 -14   57.14   17.20 
  -2  -2  14  433.42   36.04 
  -2   4  14  537.45   36.44 
  -4   2 -14  550.91   39.27 
   4  -2  14  597.92   34.47 
   4  -2  14  488.37   36.43 
   2  -4 -14  563.71   37.05 
  -2  -2  14  516.85   36.77 
   4  -1  14   45.21   14.39 
  -3  -1  14   71.53   17.67 
   4  -1  14   55.49   15.16 
   1   3 -14   80.45   17.49 
  -3   4  14   51.11   13.16 
  -4   3 -14   55.59   16.16 
   3   1 -14   48.40   14.37 
   3   1 -14   70.67   14.35 
  -4   1 -14   73.31   16.93 
  -1   4  14   36.48   11.18 
   1  -4 -14   46.85   14.69 
  -1  -3  14   45.07   14.16 
  -1  -3  14   47.07   14.81 
   4  -3  14   44.04   14.08 
   0   4  14   62.79   16.39 
  -4   0 -14   65.67   17.35 
  -4   4 -14   48.12   16.27 
  -4   4  14   50.11   14.55 
   0  -4  14   94.28   18.16 
   4  -4  14   59.46   16.03 
  -4   4  14   50.39   13.34 
   4   0 -14   56.53   15.72 
   0   4 -14   65.17   17.12 
  -4   0  14   63.36   15.83 
  -4   0  14   78.04   18.86 
   0  -4  14   70.35   17.55 
   4   0 -14   70.80   15.46 
   0  -4 -14   79.76   18.25 
   4   0  14   60.35   16.39 
   4   0  14   45.35   14.53 
  -5   4  14  362.06   33.35 
  -1   5 -14  392.12   35.86 
   1  -5  14  361.99   34.85 
   5  -1 -14  343.79   30.12 
  -5   1  14  380.64   32.78 
  -5   4  14  365.38   33.63 
  -4  -1 -14  395.10   34.50 
  -4   5 -14  381.53   35.99 
   1   4  14  356.88   31.88 
   5  -1 -14  330.85   34.45 
  -5   1  14  325.14   31.44 
   4   1  14  327.29   30.30 
   4   1  14  297.47   30.34 
  -1  -4 -14  411.96   37.73 
   2  -5 -14   27.93   11.92 
  -2  -3  14   56.04   16.56 
   5  -2  14   24.89   12.43 
   5  -3  14   45.18   15.72 
  -2   5  14   38.90   12.29 
  -2  -3  14   49.62   15.51 
  -3  -2  14   24.79   12.72 
  -3  -2  14   27.02   12.06 
   5  -2  14   41.56   14.10 
  -5   3 -14   46.87   15.76 
  -5   2 -14   27.80   13.25 
  -3   5  14   44.23   13.16 
  -5   1 -14  184.48   25.17 
  -1   5  14  187.42   23.25 
  -4  -1  14  216.60   26.91 
   5  -4  14  190.23   24.32 
   1  -5 -14  177.72   23.80 
  -5   4 -14  257.52   30.22 
   5  -1  14  195.44   24.14 
  -1  -4  14  195.99   24.20 
   4   1 -14  208.34   26.82 
   4   1 -14  182.03   20.08 
   5  -1  14  166.90   23.64 
  -1  -4  14  170.26   24.75 
  -4   5  14  182.37   23.52 
  -4   5  14  164.26   22.91 
  -5   0 -14   29.45   13.17 
  -5   5  14   48.39   15.64 
  -5   0  14   45.37   15.44 
   5   0  14   33.09   13.92 
   0   0 -15    2.03    5.62 
   0   0  15    8.35    6.25 
   0   0  15   13.78    8.62 
   1   0  15  748.96   36.81 
  -1   1  15  746.06   39.05 
  -1   0 -15  699.36   40.83 
  -1   0  15  657.21   38.66 
   0   1 -15  690.58   39.08 
  -1   0  15  700.62   35.68 
   1  -1 -15  665.52   37.21 
  -1   1  15  800.94   41.17 
   1  -1  15  655.65   33.06 
   1  -1  15  662.24   38.47 
  -1   1 -15  718.89   41.73 
   1   0  15  622.97   36.79 
   0   1  15  755.80   38.95 
   0   1  15  718.98   38.73 
   0  -1  15  716.63   39.23 
   0  -1 -15  693.76   40.50 
   1   0 -15  707.12   38.26 
   0  -1  15  725.36   33.65 
  -2   1  15   -8.27    5.33 
  -2   1  15   -3.67    5.32 
  -1   2 -15   -2.74    5.17 
   1   1  15    1.13    6.47 
  -1  -1 -15   -1.49    4.93 
   1   1  15    1.76    6.71 
   1  -2  15   -2.94    4.78 
   1   1 -15   13.84    7.28 
  -2   1 -15    3.02    7.01 
  -1  -1  15   -1.48    5.63 
  -1   2  15   13.25    7.42 
   2  -1  15    6.88    6.47 
  -1  -1  15   -3.25    5.24 
   1  -2 -15   -1.54    4.98 
  -1   2  15   -1.32    5.07 
   2  -1  15    9.50    8.01 
  -2   0 -15  729.55   43.65 
  -2   2  15  598.41   35.88 
   0  -2 -15  674.73   41.80 
   0  -2  15  676.84   39.39 
   2   0  15  594.41   36.03 
   0   2 -15  625.96   39.10 
  -2   0  15  617.14   34.58 
   0  -2  15  704.30   38.29 
  -2   2 -15  652.96   41.60 
   2   0  15  621.30   35.35 
   2  -2  15  647.47   38.83 
   2   0 -15  659.08   37.47 
   0   2  15  650.67   36.31 
  -2   2  15  607.79   37.15 
   2   0 -15  623.46   35.27 
   0   2  15  623.53   38.03 
  -2   0  15  605.63   38.28 
  -2   3 -15  566.41   40.29 
   2   1  15  544.94   35.41 
  -3   1  15  512.16   34.25 
   3  -1 -15  542.70   36.05 
   1   2  15  493.86   35.11 
  -1  -2 -15  545.02   39.63 
   2  -3  15  594.75   36.68 
  -2  -1 -15  537.57   39.82 
   1  -3  15  499.51   34.12 
  -3   2  15  621.47   35.43 
   2   1  15  566.52   36.66 
  -3   1  15  519.00   35.76 
  -3   2  15  490.50   33.84 
  -3   2  15  545.76   36.87 
   1  -3  15  580.02   36.85 
   1   2  15  594.94   35.83 
  -1   3 -15  537.60   38.37 
   2  -4  15   -1.14    6.71 
   2   2  15    1.80    7.78 
  -2   4 -15    7.33    7.59 
  -4   2  15    2.12    7.96 
   4  -2 -15  -10.37    7.14 
  -4   2  15   -8.46    6.51 
  -4   2  15    3.56    8.46 
   2   2  15   -5.34    7.56 
   2  -4  15    3.35    6.04 
  -2  -2 -15   -4.88    6.15 
   1   2 -15  541.81   34.69 
   3  -1  15  512.29   33.08 
  -1   3  15  564.94   36.76 
  -2   3  15  524.78   35.39 
  -3   1 -15  570.49   39.48 
  -2  -1  15  500.84   35.63 
  -1  -2  15  530.48   36.75 
   1  -3 -15  596.09   39.27 
   3  -2  15  479.34   34.32 
  -3   2 -15  577.86   40.67 
  -2  -1  15  612.40   39.63 
   3  -1  15  540.00   36.60 
  -1  -2  15  533.11   36.37 
  -3   3 -15   11.69   10.57 
   3  -3  15   10.14    7.74 
  -3   3  15    5.59    7.80 
  -3   3  15   -8.35    6.96 
   0   3  15   16.94    7.92 
   0  -3  15   -2.72    6.03 
   3   0  15   -9.16    6.57 
   0   3 -15   -4.91    6.17 
   3   0  15    1.34    6.58 
  -3   0  15    2.61    6.76 
   0  -3 -15    5.35    6.21 
   3   0 -15    0.19    5.95 
  -3   3  15    6.72    8.04 
  -3   0 -15    5.03    7.52 
   0  -3  15    0.37    6.27 
  -3   0  15   -3.28    5.83 
   4  -1 -15  404.16   34.07 
  -4   1  15  395.37   33.83 
   1   3  15  388.91   32.74 
   4  -1 -15  379.11   30.76 
  -4   3  15  467.30   34.36 
  -1   4 -15  402.50   34.77 
   3   1  15  402.18   33.84 
   1  -4  15  364.72   29.64 
  -4   3  15  431.33   35.03 
   1  -4  15  495.28   37.29 
   3  -4  15  390.93   31.05 
  -4   1  15  457.80   34.26 
  -1  -3 -15  418.14   35.77 
  -4   3  15  453.21   32.97 
   3   1  15  348.59   30.63 
  -3   4 -15  397.07   35.58 
  -3  -1 -15  440.31   36.83 
   5  -2 -15  344.03   33.15 
  -2  -3 -15  412.31   36.89 
  -2   5 -15  367.41   35.94 
  -5   3  15  374.76   33.28 
   3   2  15  379.71   32.16 
  -5   2  15  326.02   31.88 
  -5   3  15  408.33   33.90 
   2  -5  15  397.34   36.03 
  -5   2  15  366.41   33.73 
  -3  -2 -15  361.57   34.43 
   3  -5  15  453.10   35.84 
  -5   3  15  380.14   31.96 
  -2  -2  15    6.67    8.78 
   4  -2  15    9.96    9.15 
  -2  -2  15    0.41    7.20 
   2  -4 -15   -5.19    6.42 
  -2   4  15   -2.05    5.43 
  -4   2 -15   -3.35    7.46 
  -3  -1  15  392.68   34.63 
  -1   4  15  402.28   32.62 
  -3   4  15  409.46   33.29 
   4  -1  15  347.22   31.84 
  -4   3 -15  421.02   36.62 
   1   3 -15  387.32   31.60 
  -1  -3  15  396.49   34.40 
  -4   1 -15  439.04   35.91 
  -1  -3  15  417.93   33.45 
   4  -1  15  391.83   30.68 
   3   1 -15  374.05   33.84 
   4  -3  15  407.21   33.64 
   3   1 -15  413.04   30.15 
   1  -4 -15  418.30   34.77 
   4  -4  15  353.03   30.42 
  -4   4  15  317.98   30.56 
   0  -4  15  340.66   29.10 
   0  -4 -15  364.41   34.10 
  -4   0  15  388.49   31.33 
   0  -4  15  354.08   33.39 
   4   0  15  361.10   31.55 
  -4   4  15  390.16   33.84 
   4   0 -15  365.11   33.53 
   4   0  15  292.47   29.48 
  -4   0 -15  320.46   32.33 
   0   4 -15  325.34   31.29 
   4   0 -15  307.38   26.45 
   0   4  15  407.64   33.61 
  -4   0  15  334.44   32.95 
  -4   4 -15  367.86   35.59 
   5  -1 -15   -9.02    8.84 
   5  -1 -15  -10.42    8.45 
   4   1  15    5.05    8.52 
  -5   1  15  -15.93    7.29 
  -5   4  15   11.13    9.44 
  -5   1  15    6.22    9.02 
  -5   3 -15  395.44   36.27 
   5  -3  15  356.50   32.41 
   5  -2  15  370.85   34.82 
  -2  -3  15  382.20   33.72 
  -2   5  15  389.71   33.36 
  -5   2 -15  402.03   35.09 
  -3  -2  15  337.34   33.81 
  -4  -1  15   -6.37    7.28 
   5  -1  15  -12.49    6.70 
  -1  -4  15   -6.18    8.31 
  -4   5  15   -0.32    7.01 
   5  -1  15   15.49   11.12 
  -5   4 -15    4.87   10.14 
  -5   1 -15   26.68   11.78 
   5  -4  15    8.49    9.37 
   0   0  16 1304.07   55.01 
   0   0 -16 1361.89   57.02 
   0   0  16 1330.28   52.02 
   0  -1  16    1.36    5.84 
   1  -1  16    9.70    7.14 
  -1   0 -16   22.86    9.07 
  -1   0  16    8.29    6.98 
   1   0  16   17.16    9.11 
   0   1  16   -1.46    6.38 
  -1   1  16   19.54    9.69 
   1  -1  16    6.09    7.68 
   0   1 -16    8.53    6.17 
   1   0  16   -5.84    5.67 
  -1   1  16    6.45    7.08 
   0  -1 -16   -1.63    5.93 
   1   0 -16   -8.97    4.53 
  -1   0  16    2.64    7.04 
  -1   1 -16    1.61    6.25 
   0   1  16   13.15    8.33 
   1  -1 -16   14.52    7.43 
  -1  -1 -16 1117.02   55.92 
  -2   1  16 1149.94   52.41 
   1  -2  16 1178.63   53.34 
  -1   2 -16 1074.58   53.74 
   1   1  16 1200.47   51.88 
   1   1  16 1111.50   50.51 
  -2   1  16 1146.05   51.11 
  -1   2  16 1828.95   64.59 
   2  -1  16 1872.80   61.77 
   1  -2 -16 1776.28   67.62 
  -1   2  16 1696.83   64.24 
  -2   1 -16 1786.54   71.76 
   1   1 -16 1838.46   65.08 
  -1  -1  16 1824.19   68.12 
   2  -1  16 1638.83   64.28 
  -2   2  16   19.62    9.65 
  -2   0 -16    3.36    6.72 
   2   0  16   22.09    9.14 
   0   2  16   24.15   11.36 
   0  -2  16   -1.24    6.88 
  -2   2 -16    7.09    6.88 
  -2   2  16   21.46    9.90 
   0   2 -16   21.33    9.79 
   2   0  16   11.73    9.17 
  -2   0  16   10.77    8.37 
   0   2  16   13.31    9.64 
  -2   0  16   18.54    8.38 
   2  -2  16   17.30    9.14 
   0  -2 -16    2.98    6.09 
   2  -3  16  -15.85    4.90 
   2   1  16    6.78    8.02 
  -1   3 -16    9.78    8.86 
   2   1  16    9.38    7.57 
  -3   1  16    5.20    7.59 
  -2  -1 -16    6.90    7.07 
  -3   2  16    7.13    7.32 
   1   2  16   -7.78    7.06 
  -1  -2 -16   -0.62    7.24 
  -3   1  16    0.63    6.06 
  -3   2  16    4.80    7.95 
  -2   3 -16   -6.00    5.92 
  -3   2  16   -1.34    7.77 
   1  -3  16   -0.09    5.87 
   1   2  16   -8.12    6.98 
   2   2  16 1279.53   60.40 
  -4   2  16 1239.52   59.34 
  -4   2  16 1220.28   58.56 
  -2   4 -16 1196.23   62.79 
  -2  -2 -16 1157.74   61.20 
   2   2  16 1255.25   55.87 
   2  -4  16 1141.34   54.32 
  -3   2 -16    0.12    8.22 
  -1  -2  16   -2.21    6.58 
  -1  -2  16   17.29    8.93 
  -3   1 -16   -1.63    7.62 
   1  -3 -16   11.89    7.95 
  -2  -1  16   38.07   13.14 
  -2   3  16   15.85   10.34 
  -1   3  16   13.56    7.54 
   3  -2  16   21.89   11.08 
   3  -1  16   -0.23    8.17 
   1   2 -16   19.52    8.82 
   3  -1  16   16.84   10.51 
   0  -3  16  896.94   50.08 
  -3   3  16  922.28   50.51 
   3  -3  16  901.39   49.29 
  -3   3 -16  905.99   53.86 
   0   3 -16  988.04   52.87 
   3   0  16  908.10   48.18 
  -3   3  16  853.14   45.31 
   3   0 -16  896.82   45.08 
  -3   0 -16  917.18   53.25 
   0  -3 -16  847.40   50.87 
   0  -3  16  912.60   48.05 
   0   3  16  866.41   48.46 
   3   0 -16  847.81   48.67 
  -3   0  16  882.24   50.17 
  -3   0  16  902.46   45.69 
   3   0  16  890.92   48.52 
  -1   4 -16    8.31    9.09 
  -1  -3 -16    7.45    7.03 
  -3  -1 -16   17.25   10.68 
   1  -4  16    2.94    8.41 
   1  -4  16    8.83    8.24 
  -3   4 -16    3.90   10.15 
  -4   1  16   17.43   10.15 
   1   3  16   17.57    9.06 
  -4   3  16    5.25    7.94 
   3   1  16   16.96   10.51 
   3   1  16    8.24    9.23 
  -4   3  16    7.43    9.93 
  -4   1  16   14.22   10.19 
  -4   3  16   10.64    9.14 
   3  -4  16    9.24    9.09 
   4  -1 -16   33.34   13.34 
  -5   3  16    5.75    8.59 
  -5   2  16   27.51   13.36 
   5  -2 -16    7.05   10.00 
  -5   3  16   18.18   12.46 
   3   2  16   22.25   10.21 
  -4   2 -16  737.83   48.44 
  -2  -2  16  793.19   49.23 
   4  -2  16  726.31   46.12 
  -2  -2  16  817.04   49.09 
  -2   4  16  890.26   49.55 
   3   1 -16    6.90    8.10 
  -3  -1  16    3.82   10.02 
  -1  -3  16    9.67    8.60 
   4  -3  16    8.36    9.50 
   4  -1  16   -3.33    6.92 
  -4   3 -16   -0.60   10.50 
   1  -4 -16    0.74    7.60 
   3   1 -16   -9.46    7.35 
  -1   4  16   -4.70    5.59 
   4  -1  16   -0.58    8.11 
  -4   1 -16    1.07   10.45 
  -3   4  16   -0.40    6.84 
  -1  -3  16   13.75    8.58 
   0   4  16   15.61    9.68 
   0  -4  16    2.16    6.86 
   4   0 -16   -8.18    8.51 
   4   0  16    0.52    7.45 
   0   4 -16   -2.56    9.70 
   4   0  16   -0.27    7.69 
   4   0 -16   -3.98    8.87 
  -4   4 -16   -1.01    7.56 
  -4   4  16   21.49    9.76 
   4  -4  16    1.63    9.41 
  -4   0  16    3.00    8.69 
  -4   0 -16   -1.46    8.83 
   0  -4 -16   14.01    9.47 
   0  -4  16   18.08   10.84 
  -2  -3  16   14.26   11.51 
   5  -3  16    3.28    8.93 
  -3  -2  16  -13.13    8.29 
   5  -2  16   -5.97    7.66 
   0   0  17   24.88    9.86 
   0   0 -17   26.48    9.75 
   0   0  17    5.34    6.95 
  -1   0  17   52.63   14.37 
   1   0  17   14.06    9.43 
   0   1 -17   20.09    9.09 
   1   0  17   18.32    9.68 
  -1   1 -17   37.77   13.23 
   1  -1  17   39.34   14.27 
   0  -1  17   45.48   13.84 
  -1   0  17   15.77    8.32 
  -1   1  17   31.92   11.07 
   1  -1 -17   26.78   10.88 
   1   0 -17   23.80   11.36 
  -1   0 -17   27.42   11.86 
  -1   1  17   29.09   11.09 
   0   1  17   19.21    9.91 
   0   1  17   32.77   11.54 
   0  -1 -17   28.30   10.72 
  -2   1  17   -3.73    7.60 
  -1   2 -17    4.93    6.94 
   1  -2  17    4.18    6.54 
   1   1  17   -2.53    5.78 
  -1  -1 -17    5.97    6.68 
   1   1  17    3.59    6.99 
  -2   1  17   -6.76    6.13 
   2  -1  17    0.31    7.38 
   1  -2 -17   -5.29    5.99 
  -1   2  17    8.14    7.53 
   1   1 -17    0.26    6.03 
   2  -1  17    0.82    6.18 
  -2   1 -17    9.86    7.00 
  -1  -1  17   -4.46    5.61 
  -1   2  17  -10.27    5.72 
   0  -2 -17   31.04   11.65 
  -2   2 -17   22.56   11.47 
   0   2 -17   15.99    9.17 
  -2   2  17   27.19   11.20 
   0   2  17   29.54   11.62 
   2   0  17   24.07   10.35 
   0  -2  17   30.46   12.59 
  -2   0 -17   17.23    8.71 
  -2   0  17   12.58   11.08 
   0   2  17   33.22   11.92 
   2   0  17   14.98    9.09 
  -2   2  17   28.73   11.10 
  -2   0  17   24.32   10.18 
   2  -2  17   12.05   10.24 
   1   2  17    5.02    8.26 
  -1  -2 -17   10.71    8.23 
   1   2  17   29.55   11.14 
  -1   3 -17   27.67   11.41 
  -2   3 -17   31.10   10.69 
  -3   2  17   27.03   11.96 
  -3   1  17   10.03    9.07 
   2   1  17   26.18   10.58 
   2   1  17   38.72   14.28 
  -3   1  17   24.02   11.28 
  -2  -1 -17   33.17   11.91 
   2  -3  17   12.35    9.89 
  -3   2  17   22.15   12.11 
   1  -3  17   34.16   12.28 
   2   2  17    4.89    8.46 
   2  -4  17   -2.56    7.94 
  -2  -2 -17   -7.07    7.39 
  -2   4 -17   12.61   10.25 
  -4   2  17    3.05    9.23 
  -4   2  17   -2.37    7.63 
   2   2  17    1.48    9.14 
   2   1 -17   15.60   11.22 
  -2  -1  17   19.25   12.24 
  -2   3  17   18.55   10.85 
  -1   3  17   44.35   14.53 
   1  -3 -17   16.19    9.85 
  -3   1 -17   19.29   10.97 
   3  -1  17   18.45   10.86 
  -1  -2  17   39.75   13.71 
  -3   2 -17   25.34   13.43 
   3  -1  17   28.59   11.55 
  -1  -2  17   32.25   11.59 
   2   1 -17   18.16   10.38 
   3  -2  17   40.57   14.18 
  -3   3  17    0.83    7.34 
   0  -3 -17  -10.18    6.42 
   0  -3  17   -5.13    7.30 
  -3   3  17    4.72    8.64 
  -3   3 -17  -17.39    7.00 
   0   3  17   17.13    8.99 
   0   3 -17   -6.59    7.04 
  -3   0 -17  -11.39    6.88 
   0  -3  17  -11.18    6.48 
   3   0  17    4.75    7.70 
   3  -3  17    2.40    8.76 
   3   0  17    3.76    7.31 
  -3   0  17    5.89    8.26 
  -4   3  17   24.33   12.77 
   1  -4  17   16.23   10.07 
  -4   1  17   18.84   11.45 
   3   1  17   17.92   10.78 
  -1   4 -17   26.12   11.48 
  -4   3  17   28.13   11.76 
   3  -4  17   23.58   11.87 
  -4   1  17   29.14   16.17 
   4  -2  17    0.33    7.84 
  -2  -2  17   -9.18    6.80 
  -4   2 -17   -0.17    8.13 
  -2   4  17    0.82    6.27 
  -2  -2  17   -6.86    6.80 
   4  -3  17   14.98    9.48 
   3   1 -17   11.14   10.59 
   1  -4 -17   32.28   13.38 
   4  -1  17    8.10    8.81 
   3   1 -17   10.84   12.16 
   4  -1  17   25.49   12.36 
  -1  -3  17   28.25   12.74 
  -3  -1  17   36.33   15.51 
  -1  -3  17   28.15   13.46 
  -3   4  17    9.91   10.04 
  -4   1 -17   19.09    9.87 
   0   0 -18   66.28   16.55 
   0   0  18   32.87   13.18 
   0   0  18   34.68   12.84 
  -1   1  18  236.61   25.94 
  -1   0 -18  232.10   26.17 
   0   1 -18  203.64   24.37 
   1  -1  18  180.86   22.99 
   1   0 -18  228.24   23.22 
   0   1  18  237.09   25.30 
  -1   0  18  217.85   24.93 
  -1   0  18  292.21   25.69 
   0   1  18  199.27   23.19 
  -1   1 -18  205.58   24.73 
   0  -1 -18  186.55   23.21 
   1  -1 -18  241.66   24.46 
   1   0  18  266.72   25.22 
  -1   1  18  211.11   23.47 
   0  -1  18  230.52   25.51 
   1   0  18  209.31   24.14 
  -2   1  18    4.77    9.39 
   1  -2  18   22.24   11.03 
   1   1  18   12.14    9.73 
  -2   1  18   18.47   11.20 
  -1   2 -18   42.21   13.35 
   1   1  18   10.88    9.37 
  -1  -1 -18   12.09    8.79 
  -1   2  18   44.51   14.75 
   1  -2 -18   26.23   10.64 
  -1  -1  18   -2.37    6.85 
   2  -1  18   19.68   10.84 
  -1   2  18   24.03   10.69 
  -2   1 -18   13.03    8.11 
  -2   2  18  137.29   24.00 
   0  -2  18  205.18   24.69 
   0   2  18  136.05   20.32 
   0  -2 -18  170.67   22.73 
   0   2 -18  170.55   22.45 
  -2   2  18  152.81   22.34 
  -2   0  18  170.57   21.05 
  -2   0  18  209.01   24.74 
  -2   2 -18  174.47   23.59 
   2  -2  18  138.52   20.11 
  -2   0 -18  170.74   23.16 
   2   0  18  186.19   22.84 
   2   0  18  164.81   21.68 
   0   2  18  149.08   21.21 
   1  -3  18  177.21   23.12 
  -3   1  18  144.52   21.29 
   2   1  18  170.98   23.31 
  -2  -1 -18  192.97   25.35 
   1   2  18  178.53   22.32 
  -3   2  18  161.97   23.73 
  -1   3 -18  148.37   21.34 
   2   1  18  159.43   21.08 
  -1  -2 -18  167.00   23.99 
  -3   2  18  147.77   21.13 
  -3   1  18  154.72   21.78 
   2  -3  18  156.24   22.29 
  -2   3 -18  188.09   24.98 
   1   2  18  173.76   22.29 
  -2  -1  18  139.55   21.34 
   3  -1  18  204.79   24.83 
   3  -1  18  220.63   24.67 
  -2   3  18  237.39   26.61 
   3  -2  18  152.88   22.03 
  -1  -2  18  132.05   24.56 
  -3   2 -18  226.03   28.40 
  -3   1 -18  170.79   25.13 
  -1   3  18  213.24   25.38 
   1  -3 -18  162.00   22.76 
   0   3 -18   24.28   13.22 
   3   0  18   -0.74    9.79 
   0  -3  18   22.02   11.15 
  -3   0  18   14.81   10.01 
  -3   3  18   49.06   14.96 
   3  -3  18   49.42   15.06 
   0  -3 -18   22.72   10.55 
   3   0  18   16.37    9.02 
   0   0  19   -3.77    6.95 
   0   0  19   -3.73    7.77 
   0   0 -19   -5.23    6.61 
  -1   0  19  516.85   39.14 
   0  -1  19  379.86   33.98 
  -1   0 -19  460.74   36.99 
  -1   1  19  417.50   34.70 
   0   1  19  381.52   33.43 
   0   1 -19  423.93   35.12 
   1  -1 -19  460.37   34.79 
  -1   1 -19  475.19   37.89 
  -1   1  19  480.26   35.98 
   1   0  19  416.45   34.93 
   1   0  19  458.01   33.67 
   0  -1 -19  486.92   37.84 
   1  -1  19  488.73   37.80 
   0   1  19  487.06   36.04 
  -1   0  19  556.83   37.94 
  -2   1  19    8.92   10.19 
   1   1  19   10.82    9.86 
   1   1  19    8.80    8.14 
  -1   2 -19    9.69    7.29 
  -2   1  19    2.98   10.17 
   1  -2  19   -1.30    6.56 
  -1  -1 -19   -0.39    6.03 
   2  -1  19   -5.10    6.92 
   1  -2 -19   -5.21    7.09 
  -1   2  19   13.93   10.16 
  -2   1 -19   -1.78    6.56 
  -1   2  19   -5.69    8.59 
  -1  -1  19    4.05    8.91 
  -2   2  19  349.39   32.24 
   0   2  19  445.96   35.38 
   2  -2  19  342.09   32.24 
  -2   2  19  414.95   34.74 
   0   2  19  370.36   32.67 
   0   2 -19  429.19   36.01 
   2   0  19  361.81   32.61 
   0  -2  19  405.85   34.92 
   2   0  19  391.82   32.03 
   0  -2 -19  407.84   36.77 
  -2   0  19  439.22   36.66 
  -3   1  19  419.81   34.88 
  -3   1  19  397.40   35.21 
  -3   2  19  391.29   33.89 
   2  -3  19  375.70   34.35 
   2   1  19  374.41   32.50 
   1   2  19  363.08   31.46 
   1  -3  19  325.97   32.50 
   3  -2  19  291.23   30.96 
  -1  -2  19  339.98   32.67 
  -2  -1  19  347.99   34.03 
   1  -3 -19  351.16   33.32 
   3  -1  19  280.01   29.50 
   0   0  20  160.16   21.37 
   0   0 -20  142.71   21.29 
   0   0  20  108.66   21.95 
  -1   1  20  192.09   24.56 
   0   1 -20  153.87   22.18 
  -1   0 -20  143.13   21.87 
   0   1  20  205.13   24.66 
   1  -1  20  177.19   24.96 
   1   0  20  140.94   22.07 
  -1   0  20  152.67   22.73 
   0  -1  20  119.90   23.97 
  -1   1 -20  171.81   24.02 
   0  -1 -20  180.12   24.31 
   0   1  20  164.40   22.47 
  -1   1  20  157.73   22.42 
   1   0  20  153.28   21.16 
   1   1  20  382.90   33.51 
  -2   1  20  364.17   33.97 
  -2   1  20  363.10   32.35 
   1  -2  20  314.17   31.56 
  -1   2  20  201.85   25.12 
   2  -1  20  192.43   25.17 
  -1  -1  20  181.12   24.79 
   2  -2  20  175.49   24.01 
   2   0  20  131.47   24.62 
   0  -2  20  160.42   24.35 
   0   2  20  197.27   24.88 
   0   0   0    0.00    0.00 
;
_shelx_hkl_checksum              91543
loop_
_space_group_symop_operation_xyz
'x, y, z'
'-y, x-y, z'
'-x+y, -x, z'
'-y, -x, -z+1/2'
'-x+y, y, -z+1/2'
'x, x-y, -z+1/2'
'-x, -y, -z'
'y, -x+y, -z'
'x-y, x, -z'
'y, x, z-1/2'
'x-y, -y, z-1/2'
'-x, -x+y, z-1/2'
loop_
_atom_site_label
_atom_site_type_symbol
_atom_site_fract_x
_atom_site_fract_y
_atom_site_fract_z
_atom_site_U_iso_or_equiv
_atom_site_adp_type
_atom_site_occupancy
_atom_site_site_symmetry_order
_atom_site_calc_flag
_atom_site_refinement_flags_posn
_atom_site_refinement_flags_adp
_atom_site_refinement_flags_occupancy
Ba1 Ba 0.6667 0.3333 0.2500 0.01055(11) Uani 1 6 d S T P
Fe1 Fe 0.0000 0.0000 0.11593(4) 0.00652(14) Uani 1 3 d S T P
Fe2 Fe 0.3333 0.6667 0.00871(4) 0.00696(13) Uani 1 3 d S T P
O1 O 0.0000 0.0000 0.2500 0.0146(9) Uani 1 6 d S T P
O2 O 0.3556(4) 0.0091(4) 0.08184(13) 0.0083(3) Uani 1 1 d . . .
loop_
_atom_site_aniso_label
_atom_site_aniso_U_11
_atom_site_aniso_U_22
_atom_site_aniso_U_33
_atom_site_aniso_U_23
_atom_site_aniso_U_13
_atom_site_aniso_U_12
Ba1 0.01154(13) 0.01154(13) 0.00857(17) 0.000 0.000 0.00577(7)
Fe1 0.00685(19) 0.00685(19) 0.0059(3) 0.000 0.000 0.00342(10)
Fe2 0.00634(18) 0.00634(18) 0.0082(3) 0.000 0.000 0.00317(9)
O1 0.0194(15) 0.0194(15) 0.0050(18) 0.000 0.000 0.0097(7)
O2 0.0073(8) 0.0065(8) 0.0104(8) 0.0005(6) 0.0016(7) 0.0029(7)
loop_
_atom_type_symbol
_atom_type_description
_atom_type_scat_dispersion_real
_atom_type_scat_dispersion_imag
_atom_type_scat_source
O O 0.0106 0.0060 'International Tables Vol C Tables 4.2.6.8 and 6.1.1.4'
Fe Fe 0.3463 0.8444 'International Tables Vol C Tables 4.2.6.8 and 6.1.1.4'
Ba Ba -0.3244 2.2819 'International Tables Vol C Tables 4.2.6.8 and 6.1.1.4'
loop_
_geom_angle_atom_site_label_1
_geom_angle_atom_site_label_2
_geom_angle_atom_site_label_3
_geom_angle
_geom_angle_site_symmetry_1
_geom_angle_site_symmetry_3
O2 Ba1 O2 177.62(7) . 4_665
O2 Ba1 O2 118.79(8) . 5_655
O2 Ba1 O2 59.87(6) 4_665 5_655
O2 Ba1 O2 59.87(6) . 2_655
O2 Ba1 O2 118.79(8) 4_665 2_655
O2 Ba1 O2 121.54(7) 5_655 2_655
O2 Ba1 O2 121.54(7) . 6
O2 Ba1 O2 59.87(6) 4_665 6
O2 Ba1 O2 59.87(6) 5_655 6
O2 Ba1 O2 177.62(7) 2_655 6
O2 Ba1 O2 59.87(6) . 3_665
O2 Ba1 O2 121.54(7) 4_665 3_665
O2 Ba1 O2 177.62(7) 5_655 3_665
O2 Ba1 O2 59.87(6) 2_655 3_665
O2 Ba1 O2 118.79(8) 6 3_665
O2 Ba1 O1 88.81(3) . 1_655
O2 Ba1 O1 88.81(3) 4_665 1_655
O2 Ba1 O1 60.77(3) 5_655 1_655
O2 Ba1 O1 60.77(3) 2_655 1_655
O2 Ba1 O1 120.60(4) 6 1_655
O2 Ba1 O1 120.60(4) 3_665 1_655
O2 Ba1 O1 60.77(3) . .
O2 Ba1 O1 120.60(4) 4_665 .
O2 Ba1 O1 88.81(3) 5_655 .
O2 Ba1 O1 120.60(4) 2_655 .
O2 Ba1 O1 60.77(3) 6 .
O2 Ba1 O1 88.81(3) 3_665 .
O1 Ba1 O1 120.0 1_655 .
O2 Ba1 O1 120.60(4) . 1_665
O2 Ba1 O1 60.77(3) 4_665 1_665
O2 Ba1 O1 120.60(4) 5_655 1_665
O2 Ba1 O1 88.81(3) 2_655 1_665
O2 Ba1 O1 88.81(3) 6 1_665
O2 Ba1 O1 60.77(3) 3_665 1_665
O1 Ba1 O1 120.0 1_655 1_665
O1 Ba1 O1 120.0 . 1_665
O2 Ba1 Fe1 63.28(3) . 1_655
O2 Ba1 Fe1 114.47(4) 4_665 1_655
O2 Ba1 Fe1 91.00(3) 5_655 1_655
O2 Ba1 Fe1 32.17(3) 2_655 1_655
O2 Ba1 Fe1 149.78(4) 6 1_655
O2 Ba1 Fe1 90.02(4) 3_665 1_655
O1 Ba1 Fe1 31.904(8) 1_655 1_655
O1 Ba1 Fe1 115.117(2) . 1_655
O1 Ba1 Fe1 115.117(2) 1_665 1_655
O2 Ba1 Fe1 114.47(4) . 4_655
O2 Ba1 Fe1 63.28(3) 4_665 4_655
O2 Ba1 Fe1 32.17(3) 5_655 4_655
O2 Ba1 Fe1 91.00(3) 2_655 4_655
O2 Ba1 Fe1 90.02(4) 6 4_655
O2 Ba1 Fe1 149.78(4) 3_665 4_655
O1 Ba1 Fe1 31.904(8) 1_655 4_655
O1 Ba1 Fe1 115.117(2) . 4_655
O1 Ba1 Fe1 115.117(2) 1_665 4_655
Fe1 Ba1 Fe1 63.807(15) 1_655 4_655
O2 Ba1 Fe1 149.78(4) . 4_665
O2 Ba1 Fe1 32.17(3) 4_665 4_665
O2 Ba1 Fe1 90.02(4) 5_655 4_665
O2 Ba1 Fe1 114.47(4) 2_655 4_665
O2 Ba1 Fe1 63.28(3) 6 4_665
O2 Ba1 Fe1 91.00(3) 3_665 4_665
O1 Ba1 Fe1 115.117(2) 1_655 4_665
O1 Ba1 Fe1 115.117(2) . 4_665
O1 Ba1 Fe1 31.904(8) 1_665 4_665
Fe1 Ba1 Fe1 129.766(5) 1_655 4_665
Fe1 Ba1 Fe1 94.649(10) 4_655 4_665
O1 Fe1 O2 104.59(6) . .
O1 Fe1 O2 104.59(6) . 3
O2 Fe1 O2 113.88(4) . 3
O1 Fe1 O2 104.59(6) . 2
O2 Fe1 O2 113.88(4) . 2
O2 Fe1 O2 113.88(4) 3 2
O1 Fe1 Ba1 58.096(8) . 1_445
O2 Fe1 Ba1 98.71(6) . 1_445
O2 Fe1 Ba1 54.03(5) 3 1_445
O2 Fe1 Ba1 146.64(6) 2 1_445
O1 Fe1 Ba1 58.096(8) . .
O2 Fe1 Ba1 54.03(5) . .
O2 Fe1 Ba1 146.64(6) 3 .
O2 Fe1 Ba1 98.71(6) 2 .
Ba1 Fe1 Ba1 94.648(10) 1_445 .
O1 Fe1 Ba1 58.096(8) . 1_455
O2 Fe1 Ba1 146.64(6) . 1_455
O2 Fe1 Ba1 98.71(6) 3 1_455
O2 Fe1 Ba1 54.03(6) 2 1_455
Ba1 Fe1 Ba1 94.648(10) 1_445 1_455
Ba1 Fe1 Ba1 94.648(10) . 1_455
O2 Fe2 O2 96.43(7) 1_565 2
O2 Fe2 O2 96.43(7) 1_565 3_665
O2 Fe2 O2 96.43(7) 2 3_665
O2 Fe2 O2 91.37(9) 1_565 8_565
O2 Fe2 O2 84.97(7) 2 8_565
O2 Fe2 O2 171.86(7) 3_665 8_565
O2 Fe2 O2 84.97(7) 1_565 7_665
O2 Fe2 O2 171.86(7) 2 7_665
O2 Fe2 O2 91.37(9) 3_665 7_665
O2 Fe2 O2 86.99(7) 8_565 7_665
O2 Fe2 O2 171.86(7) 1_565 9
O2 Fe2 O2 91.37(9) 2 9
O2 Fe2 O2 84.97(7) 3_665 9
O2 Fe2 O2 86.99(8) 8_565 9
O2 Fe2 O2 86.99(7) 7_665 9
O2 Fe2 Ba1 120.57(5) 1_565 7_665
O2 Fe2 Ba1 120.57(5) 2 7_665
O2 Fe2 Ba1 120.57(5) 3_665 7_665
O2 Fe2 Ba1 52.63(5) 8_565 7_665
O2 Fe2 Ba1 52.63(5) 7_665 7_665
O2 Fe2 Ba1 52.63(5) 9 7_665
Fe1 O1 Fe1 180.0 4 .
Fe1 O1 Ba1 90.0 4 1_445
Fe1 O1 Ba1 90.0 . 1_445
Fe1 O1 Ba1 90.0 4 .
Fe1 O1 Ba1 90.0 . .
Ba1 O1 Ba1 120.0 1_445 .
Fe1 O1 Ba1 90.0 4 1_455
Fe1 O1 Ba1 90.0 . 1_455
Ba1 O1 Ba1 120.0 1_445 1_455
Ba1 O1 Ba1 120.0 . 1_455
Fe1 O2 Fe2 119.03(9) . 1_545
Fe1 O2 Fe2 121.88(9) . 7_665
Fe2 O2 Fe2 95.03(7) 1_545 7_665
Fe1 O2 Ba1 93.80(7) . .
Fe2 O2 Ba1 134.68(8) 1_545 .
Fe2 O2 Ba1 92.18(7) 7_665 .
loop_
_geom_bond_atom_site_label_1
_geom_bond_atom_site_label_2
_geom_bond_distance
_geom_bond_site_symmetry_2
Ba1 O2 2.8409(18) .
Ba1 O2 2.8410(18) 4_665
Ba1 O2 2.8410(18) 5_655
Ba1 O2 2.8410(18) 2_655
Ba1 O2 2.8410(18) 6
Ba1 O2 2.8410(18) 3_665
Ba1 O1 2.97353(6) 1_655
Ba1 O1 2.97353(6) .
Ba1 O1 2.97353(5) 1_665
Ba1 Fe1 3.5026(3) 1_655
Ba1 Fe1 3.5026(3) 4_655
Ba1 Fe1 3.5026(3) 4_665
Fe1 O1 1.8512(5) .
Fe1 O2 1.8690(17) .
Fe1 O2 1.8690(17) 3
Fe1 O2 1.8690(17) 2
Fe1 Ba1 3.5026(3) 1_445
Fe1 Ba1 3.5027(3) 1_455
Fe2 O2 1.9848(19) 1_565
Fe2 O2 1.9848(19) 2
Fe2 O2 1.9848(19) 3_665
Fe2 O2 2.0598(18) 8_565
Fe2 O2 2.0598(19) 7_665
Fe2 O2 2.0598(18) 9
Fe2 Ba1 3.5720(6) 7_665
O1 Fe1 1.8511(5) 4
O1 Ba1 2.97351(6) 1_445
O1 Ba1 2.97355(6) 1_455
O2 Fe2 1.9849(19) 1_545
O2 Fe2 2.0599(18) 7_665
