#------------------------------------------------------------------------------
#$Date: 2021-05-04 03:49:28 +0300 (Tue, 04 May 2021) $
#$Revision: 264820 $
#$URL: file:///home/coder/svn-repositories/cod/cif/4/00/39/4003900.cif $
#------------------------------------------------------------------------------
#
# This file is available in the Crystallography Open Database (COD),
# http://www.crystallography.net/
#
# All data on this site have been placed in the public domain by the
# contributors.
#
data_4003900
loop_
_publ_author_name
'Smart, Megan M.'
'Smith Pellizzeri, Tiffany M.'
'Morrison, Gregory'
'McMillen, Colin D.'
'zur Loye, Hans-Conrad'
'Kolis, Joseph W.'
_publ_section_title
;
 Ferrite Materials Containing Kagom\'e Layers: Chemistry of Ba2Fe11Ge2O22
 and K2Co4V9O22 Hexaferrites
;
_journal_issue                   7
_journal_name_full               'Chemistry of Materials'
_journal_page_first              2258
_journal_page_last               2266
_journal_paper_doi               10.1021/acs.chemmater.0c03852
_journal_volume                  33
_journal_year                    2021
_chemical_formula_sum            'Ba2 Fe11 Ge2 O22'
_chemical_formula_weight         1386.21
_space_group_crystal_system      trigonal
_space_group_IT_number           164
_space_group_name_Hall           '-P 3 2"'
_space_group_name_H-M_alt        'P -3 m 1'
_atom_sites_solution_primary     dual
_atom_sites_solution_secondary   difmap
_audit_creation_method           SHELXL-2014/7
_cell_angle_alpha                90
_cell_angle_beta                 90
_cell_angle_gamma                120
_cell_formula_units_Z            1
_cell_length_a                   5.8532(3)
_cell_length_b                   5.8532(3)
_cell_length_c                   14.2601(7)
_cell_measurement_reflns_used    8311
_cell_measurement_temperature    300(2)
_cell_measurement_theta_max      30.53
_cell_measurement_theta_min      2.86
_cell_volume                     423.10(4)
_computing_cell_refinement       'Bruker SAINT'
_computing_data_collection       'Bruker APEX3'
_computing_data_reduction        'Bruker SAINT'
_computing_molecular_graphics    'DIAMOND (Bradenburg, 1999)'
_computing_publication_material  'SHELXL-2016/6 (Sheldrick, 2016)'
_computing_structure_refinement  'SHELXL-2016/6 (Sheldrick, 2016)'
_computing_structure_solution    'SHELXT-2014 (Sheldrick 2014)'
_diffrn_ambient_temperature      300(2)
_diffrn_measured_fraction_theta_full 0.991
_diffrn_measured_fraction_theta_max 0.995
_diffrn_measurement_device_type  'Bruker Photon 100'
_diffrn_measurement_method       '\f and \w scans'
_diffrn_radiation_type           MoK\a
_diffrn_radiation_wavelength     0.71073
_diffrn_reflns_av_R_equivalents  0.0413
_diffrn_reflns_av_unetI/netI     0.0171
_diffrn_reflns_Laue_measured_fraction_full 0.991
_diffrn_reflns_Laue_measured_fraction_max 0.995
_diffrn_reflns_limit_h_max       8
_diffrn_reflns_limit_h_min       -7
_diffrn_reflns_limit_k_max       8
_diffrn_reflns_limit_k_min       -8
_diffrn_reflns_limit_l_max       20
_diffrn_reflns_limit_l_min       -20
_diffrn_reflns_number            8960
_diffrn_reflns_point_group_measured_fraction_full 0.991
_diffrn_reflns_point_group_measured_fraction_max 0.995
_diffrn_reflns_theta_full        25.242
_diffrn_reflns_theta_max         30.534
_diffrn_reflns_theta_min         2.857
_diffrn_source                   Ius
_exptl_absorpt_coefficient_mu    17.293
_exptl_absorpt_correction_T_max  1.000
_exptl_absorpt_correction_T_min  0.5621
_exptl_absorpt_correction_type   multi-scan
_exptl_absorpt_process_details   'SADABS, Bruker'
_exptl_crystal_colour            black
_exptl_crystal_density_diffrn    5.440
_exptl_crystal_description       plate
_exptl_crystal_F_000             638
_exptl_crystal_size_max          0.160
_exptl_crystal_size_mid          0.160
_exptl_crystal_size_min          0.050
_refine_diff_density_max         1.928
_refine_diff_density_min         -2.477
_refine_diff_density_rms         0.338
_refine_ls_extinction_method     none
_refine_ls_goodness_of_fit_ref   1.191
_refine_ls_hydrogen_treatment    undef
_refine_ls_matrix_type           full
_refine_ls_number_parameters     46
_refine_ls_number_reflns         558
_refine_ls_number_restraints     0
_refine_ls_restrained_S_all      1.191
_refine_ls_R_factor_all          0.0264
_refine_ls_R_factor_gt           0.0261
_refine_ls_shift/su_max          0.000
_refine_ls_shift/su_mean         0.000
_refine_ls_structure_factor_coef Fsqd
_refine_ls_weighting_details
'w=1/[\s^2^(Fo^2^)+(0.0497P)^2^+2.8381P] where P=(Fo^2^+2Fc^2^)/3'
_refine_ls_weighting_scheme      calc
_refine_ls_wR_factor_gt          0.0818
_refine_ls_wR_factor_ref         0.0819
_reflns_Friedel_coverage         0.000
_reflns_number_gt                548
_reflns_number_total             558
_reflns_threshold_expression     'I > 2\s(I)'
_cod_data_source_file            cm0c03852_si_002.cif
_cod_data_source_block           BaFeGe
_cod_depositor_comments
'Adding full bibliography for 4003899--4003900.cif.'
_cod_original_cell_volume        423.10(5)
_cod_database_code               4003900
_shelx_shelxl_version_number     2014/7
_shelx_space_group_comment
;
The symmetry employed for this shelxl refinement is uniquely defined
by the following loop, which should always be used as a source of
symmetry information in preference to the above space-group names.
They are only intended as comments.
;
_shelx_estimated_absorpt_t_min   0.168
_shelx_estimated_absorpt_t_max   0.478
_shelx_res_file
;

    BaFeGe.res created by SHELXL-2014/7


TITL d8-2446-2 in P-3m1
CELL 0.71073   5.85320   5.85320  14.26010  90.0000  90.0000 120.0000
ZERR    1.00   0.00030   0.00030   0.00070   0.0000   0.0000   0.0000
LATT  1
SYMM -Y, X-Y, Z
SYMM -X+Y, -X, Z
SYMM Y, X, -Z
SYMM X-Y, -Y, -Z
SYMM -X, -X+Y, -Z
SFAC O FE GE BA
UNIT 22 11 2 2
TEMP 26.570
SIZE 0.05 0.16 0.16

L.S. 4
BOND
FMAP 2
PLAN 20
ACTA
TWIN -1 0 0 0 -1 0 0 0 1
OMIT -2 4 0
WGHT    0.049700    2.838100
BASF   0.63326
FVAR       0.10758
MOLE   1
BA1   4   -1.333333   -0.666667    0.574507    10.16667    0.00879    0.00879 =
         0.01080    0.00000    0.00000    0.00439
FE1   2   -1.333333   -0.666667    0.315439    10.16667    0.00415    0.00415 =
         0.00492    0.00000    0.00000    0.00208
FE2   2   -0.826348    0.347304    0.175416    10.50000    0.00538    0.00527 =
         0.00366   -0.00010   -0.00005    0.00263
FE3   2   -1.000000    0.000000    0.000000    10.08333    0.00109    0.00109 =
         0.00073    0.00000    0.00000    0.00055
FE4   2   -1.333333   -0.666667    0.046776    10.16667    0.00342    0.00342 =
         0.00374    0.00000    0.00000    0.00171
GE5   3   -1.000000    0.000000    0.375117    10.16667    0.00356    0.00356 =
         0.00256    0.00000    0.00000    0.00178
O1    1   -1.333333   -0.666667   -0.088216    10.16667    0.00706    0.00706 =
         0.00333    0.00000    0.00000    0.00353
O2    1   -1.000000    0.000000    0.246882    10.16667    0.00332    0.00332 =
         0.00220    0.00000    0.00000    0.00166
O3    1   -1.154451   -0.308901    0.085769    10.50000    0.00738    0.00775 =
         0.00428   -0.00115   -0.00058    0.00388
O4    1   -1.501486   -0.498514    0.246881    10.50000    0.00544    0.00544 =
         0.00749    0.00170   -0.00170    0.00214
O5    1   -1.166155   -0.332310    0.407066    10.50000    0.00578    0.00220 =
         0.00374   -0.00065   -0.00032    0.00110
MOLE   2
HKLF 4

REM  d8-2446-2 in P-3m1
REM R1 =  0.0261 for     548 Fo > 4sig(Fo)  and  0.0264 for all     558 data
REM     46 parameters refined using      0 restraints

END

WGHT      0.0496      2.8430

REM Highest difference peak  1.928,  deepest hole -2.477,  1-sigma level  0.338
Q1    1  -1.5000 -0.5000  0.5000  10.25000  0.05    1.93
Q2    1  -0.8344  0.3312  0.0870  10.50000  0.05    1.58
Q3    1  -1.0000  0.0000  0.1975  10.16667  0.05    1.44
Q4    1  -1.1513 -0.3026  0.1751  10.50000  0.05    1.26
Q5    1  -1.3333 -0.6667  0.1005  10.16667  0.05    1.16
Q6    1  -1.1804 -0.8196  0.5900  10.50000  0.05    0.87
Q7    1  -1.3333 -0.6667  0.7017  10.16667  0.05    0.87
Q8    1  -1.4824 -0.9647 -0.0787  10.50000  0.05    0.78
Q9    1  -1.3322 -0.1661  0.3413  10.50000  0.05    0.78
Q10   1  -0.8159  0.3682  0.2445  10.50000  0.05    0.76
Q11   1  -1.2353 -0.4707  0.1679  10.50000  0.05    0.65
Q12   1  -1.4186 -0.8372 -0.0990  10.50000  0.05    0.64
Q13   1  -1.7290 -0.6980  0.3073  11.00000  0.05    0.61
Q14   1  -1.2079 -0.4158 -0.0246  10.50000  0.05    0.57
Q15   1  -1.4448 -0.5552  0.2489  10.50000  0.05    0.56
Q16   1  -1.2107 -0.4213  0.3821  10.50000  0.05    0.51
Q17   1  -1.2447 -0.4893  0.2508  10.50000  0.05    0.50
Q18   1  -1.1957 -0.0979  0.3134  10.50000  0.05    0.47
Q19   1  -1.1466 -0.4121  0.1219  11.00000  0.05    0.46
Q20   1  -1.4125 -0.5875  0.4484  10.50000  0.05    0.46
;
_shelx_res_checksum              19049
_shelx_hkl_file
;
   0  -1   0    2.86    0.17
   0  -1   0    2.88    0.17
   0  -1   0    2.82    0.16
   1   0   0    2.72    0.16
   1   0   0    2.98    0.16
   1   0   0    2.67    0.15
   1   0   0    2.79    0.17
  -1   1   0    2.90    0.16
  -1   1   0    2.48    0.24
  -1   0   0    2.70    0.17
   1  -1   0    2.88    0.16
   0   1   0    2.86    0.17
   1  -1   0    2.88    0.23
   0   1   0    2.62    0.16
   0   1   0    2.58    0.17
  -1   0   0    2.74    0.16
  -1   0   0    3.10    0.15
  -1   0   0    2.83    0.15
   2  -1   0  379.09   18.93
   2   0   0   47.57    2.40
   2   0   0   47.46    2.43
   0  -2   0   48.47    2.41
   2   0   0   48.43    2.40
   0  -2   0   48.69    2.43
  -2   2   0   47.73    2.40
   0  -2   0   45.97    2.43
   2   0   0   47.57    2.41
  -2   0   0   47.71    2.39
  -2   0   0   49.37    2.42
  -2   0   0   47.24    2.40
  -2   0   0   46.88    2.43
   2  -2   0   48.20    2.55
   0   2   0   47.34    2.41
   0   2   0   48.40    2.43
   2  -2   0   48.95    2.42
   2  -3   0    4.60    0.29
  -3   1   0    4.40    0.33
   1   2   0    4.46    0.30
   1   2   0    4.77    0.31
   2  -3   0    4.63    0.30
   2  -3   0    4.61    0.26
  -2   3   0    4.92    0.47
  -1  -2   0    4.82    0.31
  -1  -2   0    4.46    0.31
   3  -1   0    4.74    0.48
  -2   3   0    4.99    0.29
   3  -1   0    4.97    0.29
  -1  -2   0    4.83    0.30
   3  -1   0    4.63    0.32
   1  -3   0    4.44    0.27
   2   1   0    4.54    0.30
   2   1   0    4.55    0.30
   1  -3   0    4.79    0.31
   2   1   0    5.10    0.31
  -3   2   0    4.69    0.45
   1  -3   0    4.46    0.31
  -1   3   0    4.62    0.28
  -2  -1   0    4.50    0.32
   3  -2   0    4.83    0.27
   3  -2   0    4.63    0.30
   3  -2   0    3.69    0.52
  -2  -1   0    4.47    0.30
  -2  -1   0    4.64    0.29
  -2  -1   0    4.38    0.29
   3  -2   0    4.98    0.33
  -1   3   0    4.88    0.30
   3   0   0  276.30   13.80
   3   0   0  276.74   13.78
   3   0   0  269.57   13.78
   3   0   0  278.68   13.83
   0  -3   0  287.76   13.82
   0  -3   0  276.99   13.82
   0  -3   0  283.95   13.79
   0   3   0  274.37   13.79
   3  -3   0  260.49   13.81
   0   3   0  281.76   13.82
  -3   0   0  268.11   13.83
  -3   0   0  285.48   13.80
   3  -3   0  285.52   13.99
   3  -3   0  280.39   13.77
   1   3   0    1.04    0.21
   3  -4   0    0.85    0.13
   1   3   0    0.73    0.16
   3  -4   0    0.49    0.12
   3  -4   0    0.57    0.10
   3  -4   0    0.67    0.15
  -4   1   0    1.16    0.21
   4  -1   0    1.04    0.36
  -3   4   0    1.44    0.44
  -3   4   0    0.88    0.12
  -1  -3   0    0.84    0.17
   4  -1   0    0.94    0.22
  -1  -3   0    1.03    0.20
   4  -1   0    0.79    0.14
   4  -1   0    0.82    0.11
   4  -1   0    0.75    0.12
  -1  -3   0    0.83    0.18
   4  -2   0 1000.00   49.91
   1  -4   0    1.03    0.16
   1  -4   0    0.83    0.17
   1  -4   0    1.00    0.19
   3   1   0    0.90    0.16
   3   1   0    0.67    0.15
   3   1   0    1.20    0.19
  -4   3   0    0.98    0.37
  -3  -1   0    0.75    0.13
   4  -3   0    0.74    0.11
   4  -3   0    0.95    0.16
  -3  -1   0    0.65    0.18
  -3  -1   0    1.22    0.19
  -1   4   0    0.89    0.14
   4  -3   0    1.16    0.41
   4  -3   0    0.98    0.23
  -1   4   0    0.79    0.17
  -4   4   0   18.56    1.44
   4   0   0   19.91    1.13
   4   0   0   19.91    1.09
   0  -4   0   20.19    1.08
   0  -4   0   21.25    1.13
   4   0   0   21.47    1.08
   4   0   0   19.55    1.07
   0  -4   0   20.09    1.14
   4  -4   0   19.73    1.06
   4  -4   0   20.92    1.16
   0   4   0   19.76    1.08
  -4   0   0   19.47    1.14
   4  -4   0   20.88    1.05
   0   4   0   19.05    1.12
  -4   0   0   20.01    1.10
  -5   1   0  177.42    8.90
   4  -5   0  178.66    8.82
   4  -5   0  184.09    8.82
   1   4   0  177.74    8.84
   4  -5   0  177.13    8.78
   4  -5   0  182.36    8.76
   5  -1   0  178.86    8.83
   5  -1   0  183.72    8.79
   5  -1   0  171.47    9.20
  -1  -4   0  169.05    8.87
   5  -1   0  178.34    8.88
  -1  -4   0  182.14    8.84
  -1  -4   0  182.88    8.88
   5  -1   0  170.32    8.88
  -4   5   0  149.33    9.27
   2   3   0    0.09    0.12
  -5   2   0    0.06    0.16
   2   3   0    0.17    0.16
   3  -5   0    0.16    0.16
   3  -5   0    0.08    0.09
   3  -5   0    0.11    0.11
  -2  -3   0    0.18    0.13
  -3   5   0    0.11    0.09
  -3   5   0    0.29    0.34
   5  -2   0    0.25    0.19
  -2  -3   0    0.26    0.16
   5  -2   0    0.84    0.56
   5  -2   0    0.09    0.12
  -2  -3   0    0.24    0.14
   5  -2   0    0.15    0.10
  -2  -3   0    0.22    0.15
   2  -5   0    0.16    0.17
   2  -5   0    0.14    0.11
   3   2   0    0.07    0.16
   3   2   0    0.22    0.12
   2  -5   0    0.22    0.13
   5  -3   0    0.12    0.12
  -3  -2   0    0.11    0.12
   5  -3   0   -0.13    0.19
   5  -3   0    0.51    0.60
  -3  -2   0    0.29    0.15
   5  -3   0   -0.03    0.09
  -2   5   0    0.44    0.20
  -2   5   0    0.56    0.15
  -3  -2   0    0.05    0.11
   1  -5   0  171.37    8.99
   4   1   0  179.51    8.89
   4   1   0  186.10    8.89
  -5   4   0  182.51    9.21
   1  -5   0  185.14    8.86
   1  -5   0  173.66    8.92
  -4  -1   0  173.98    8.85
   5  -4   0  174.04    8.82
  -4  -1   0  175.90    8.82
   5  -4   0  181.21    8.91
  -4  -1   0  173.74    8.89
  -1   5   0  175.26    8.86
   5  -4   0  172.88    8.92
   5  -4   0  175.82    9.21
  -1   5   0  180.87    8.89
   5  -4   0  174.92    8.81
  -4  -1   0  176.78    8.94
   0  -5   0    5.03    0.45
   0  -5   0    5.60    0.46
  -5   5   0    5.09    0.87
   5   0   0    5.58    0.42
   5   0   0    4.46    0.40
   5  -5   0    4.77    0.36
   0   5   0    4.40    0.46
   5  -5   0    4.61    0.37
   5  -5   0    4.35    0.44
   5  -5   0    4.79    0.54
   5  -5   0    4.74    0.31
   0   5   0    4.99    0.39
  -5   0   0    4.65    0.46
  -6   1   0    1.64    0.36
   5  -6   0    1.03    0.29
   1   5   0    1.22    0.30
   5  -6   0    0.99    0.29
  -1  -5   0    0.87    0.28
  -5   6   0    1.56    0.76
  -1  -5   0    1.13    0.26
   6  -1   0    1.34    0.33
   6  -1   0    1.41    0.30
   6  -1   0    1.50    0.37
   4  -6   0    9.98    0.74
  -6   2   0   11.09    0.80
   4  -6   0   11.38    0.69
   2   4   0    8.94    0.67
   6  -2   0    9.11    1.58
   6  -2   0   11.17    0.61
  -2  -4   0   10.61    0.71
  -4   6   0   10.72    1.26
   6  -2   0   10.45    0.65
  -2  -4   0   10.23    0.73
   6  -2   0   10.60    0.73
   3  -6   0  141.79    7.29
   3  -6   0  122.16    7.37
   3   3   0  156.76    7.39
   3  -6   0  152.20    7.40
  -3  -3   0  159.95    7.39
  -3  -3   0  125.73    7.40
   6  -3   0  150.45    7.33
  -3   6   0  151.79    7.83
  -3  -3   0  146.97    7.38
  -3   6   0  152.34    7.32
   6  -3   0  148.84    7.40
   4   2   0   11.17    0.71
   2  -6   0    9.43    0.71
   2  -6   0   10.77    0.65
   6  -4   0   10.53    0.71
  -4  -2   0   10.09    0.74
  -4  -2   0   10.81    0.65
   6  -4   0    9.28    1.41
  -2   6   0   10.84    0.67
  -4  -2   0   10.66    0.67
   6  -4   0   10.66    0.60
  -2   6   0    8.90    0.80
   1  -6   0    1.15    0.29
   5   1   0    1.22    0.25
   5   1   0    1.30    0.32
  -6   5   0    1.17    0.57
   6  -5   0    1.32    0.19
   6  -5   0    1.41    0.26
  -1   6   0    1.10    0.29
   6  -5   0    1.61    0.78
  -1   6   0    1.47    0.36
   6  -5   0    1.39    0.23
  -5  -1   0    1.07    0.29
   6  -5   0    1.69    0.38
   0  -6   0  462.57   22.64
   6   0   0  457.45   22.65
   6   0   0  469.92   22.58
  -6   6   0  384.68   22.98
   6   0   0  439.71   22.55
   6  -6   0  465.55   22.52
  -6   0   0  463.20   22.67
   6  -6   0  485.46   22.53
   0   6   0  447.79   22.55
   1   6   0   -0.22    0.27
  -7   1   0    0.98    0.41
   6  -7   0    0.23    0.27
   7  -1   0    0.25    0.27
  -6   7   0   -0.13    0.95
  -1  -6   0    0.82    0.33
   7  -1   0    0.43    0.31
  -1  -6   0    0.37    0.34
   2   5   0   89.85    4.63
  -7   2   0   92.55    4.77
   5  -7   0   91.60    4.63
  -5   7   0   76.62    5.32
  -2  -5   0   92.93    4.68
  -2  -5   0   91.97    4.69
   7  -2   0   93.43    4.61
   7  -2   0   89.43    4.69
   3   4   0    1.61    0.42
   4  -7   0    2.69    0.46
   7  -3   0    3.06    0.37
  -3  -4   0    3.06    0.50
  -3  -4   0    2.74    0.46
  -4   7   0    2.76    1.14
   7  -3   0    3.02    0.47
   4   3   0    2.11    0.42
   3  -7   0    2.30    0.46
   7  -4   0    2.92    0.31
  -4  -3   0    2.15    0.45
  -3   7   0    2.43    0.82
  -4  -3   0    2.52    0.44
   7  -4   0    2.52    0.47
  -4  -3   0    2.03    0.45
   5   2   0   93.57    4.82
   2  -7   0   92.25    4.85
  -2   7   0   97.53    5.33
  -2   7   0   93.45    4.79
  -5  -2   0   90.95    4.87
   7  -5   0   92.86    4.69
   7  -5   0   93.35    4.87
   1  -7   0    0.24    0.31
   6   1   0    0.55    0.29
   6   1   0    0.58    0.34
  -1   7   0    0.09    0.29
  -6  -1   0    0.14    0.34
  -7   7   0    0.59    0.96
   0  -7   0    0.07    0.39
   7   0   0    0.63    0.40
   7   0   0   -0.27    0.33
   0  -7   0   -0.32    0.40
   0   7   0   -0.35    0.34
  -7   0   0    0.91    0.50
   2   6   0    4.85    0.68
   6  -8   0    3.84    0.72
   8  -2   0    3.58    0.72
  -2  -6   0    2.55    0.73
   8  -2   0    5.13    0.65
  -2  -6   0    5.33    0.80
  -6   8   0    2.84    1.48
   5  -8   0   -0.46    0.36
   3   5   0    0.39    0.36
  -3  -5   0    0.25    0.40
   8  -3   0   -0.30    0.30
   8  -3   0    0.27    0.36
  -5   8   0    1.25    1.31
  -3  -5   0    0.14    0.38
   4  -8   0  328.22   15.42
   4   4   0  317.99   15.38
   8  -4   0  312.15   15.42
  -4  -4   0  301.04   15.43
   8  -4   0  264.67   15.26
  -4  -4   0  318.30   15.37
  -4   8   0  301.87   16.13
   5   3   0    0.74    0.38
   3  -8   0    0.44    0.38
  -3   8   0   -0.90    1.03
   8  -5   0    0.50    0.53
  -5  -3   0   -0.79    0.40
   6   2   0    2.78    0.69
  -2   8   0    4.23    1.48
  -1   0  -1   14.25    0.75
   0   1  -1   15.14    0.75
  -1   0  -1   15.09    0.74
   1  -1  -1   13.30    0.84
   1  -1  -1   14.17    0.73
  -1   0  -1   15.22    0.74
   0   1  -1   15.02    0.74
  -1   0  -1   14.34    0.75
   0  -1   1   14.54    0.74
   0  -1   1   14.36    0.75
   1   0   1   14.64    0.74
   1   0   1   14.89    0.75
   1   0   1   14.27    0.76
   0  -1   1   14.88    0.75
   0  -1  -1    8.14    0.43
  -1   1  -1    8.12    0.44
  -1   1  -1    7.32    0.48
   1   0  -1    7.85    0.42
   1   0  -1    8.61    0.44
   0  -1  -1    8.13    0.44
   1   0  -1    8.04    0.43
  -1   1  -1    7.99    0.42
   1   0  -1    8.53    0.42
   0   1   1    8.37    0.44
   0   1   1    7.91    0.43
  -1   0   1    8.44    0.42
   1  -1   1    7.90    0.42
   1  -1   1    8.93    0.45
   1  -1   1    8.92    0.47
  -1   0   1    8.02    0.44
  -1   0   1    8.44    0.42
  -1  -1  -1   65.93    3.39
  -1   2  -1   66.42    3.35
  -1  -1  -1   69.34    3.39
   2  -1  -1   65.91    3.38
   2  -1  -1   67.06    3.54
  -1  -1  -1   68.09    3.38
  -1  -1  -1   70.41    3.38
  -1   2  -1   67.57    3.40
  -1   2  -1   64.91    3.38
   1   1   1   66.73    3.38
  -2   1   1   66.17    3.39
   1   1   1   70.50    3.39
  -2   1   1   67.20    3.50
   1  -2   1   69.82    3.38
   1  -2   1   66.54    3.38
   1  -2   1   66.72    3.35
  -1   3  -1    4.10    0.25
   3  -2  -1    3.11    0.53
  -2  -1  -1    4.46    0.28
  -2  -1  -1    4.28    0.27
  -2  -1  -1    3.96    0.27
   3  -2  -1    4.10    0.29
  -2  -1  -1    4.07    0.29
   3  -2  -1    4.05    0.26
  -1   3  -1    3.95    0.28
  -3   2   1    4.02    0.45
   1  -3   1    4.07    0.24
   1  -3   1    4.30    0.28
   2   1   1    3.81    0.26
   1  -3   1    3.83    0.28
   2   1   1    3.98    0.28
   0   2  -1   56.89    2.61
  -2   0  -1   53.26    2.57
  -2   0  -1   53.15    2.59
   2  -2  -1   49.42    2.75
  -2   0  -1   47.36    2.59
  -2   0  -1   49.78    2.61
   0   2  -1   50.05    2.60
   0   2  -1   50.40    2.58
   2  -2  -1   51.29    2.57
   0  -2   1   50.56    2.58
   2   0   1   50.68    2.59
   0  -2   1   52.86    2.60
   0  -2   1   54.86    2.61
   2   0   1   53.56    2.61
   2   0   1   49.78    2.58
  -2   2   1   46.58    2.80
   2   0   1   52.74    2.58
   1   1  -1   68.58    3.38
   1  -2  -1   67.02    3.36
   1   1  -1   65.34    3.38
   1  -2  -1   64.04    3.37
  -2   1  -1   68.90    3.36
   1   1  -1   66.21    3.38
  -2   1  -1   66.73    3.40
  -1   2   1   71.17    3.36
  -1   2   1   66.54    3.37
   2  -1   1   64.83    3.48
  -1   2   1   66.76    3.37
   2  -1   1   68.00    3.38
   2  -1   1   67.10    3.36
   2  -1   1   68.77    3.40
  -1  -1   1   66.24    3.38
  -1  -1   1   71.15    3.38
  -1  -1   1   68.06    3.37
  -2   2  -1   75.81    3.91
   2   0  -1   79.57    3.90
   2   0  -1   83.59    3.90
   2   0  -1   78.31    3.93
   0  -2  -1   85.30    3.93
   0  -2  -1   76.57    3.93
   2   0  -1   78.61    3.91
   0  -2  -1   81.81    3.91
   2  -2   1   75.36    4.00
   0   2   1   77.96    3.91
   2  -2   1   76.12    3.89
  -2   0   1   78.58    3.89
   2  -2   1   69.97    3.93
   0   2   1   78.22    3.93
  -2   0   1   76.50    3.93
  -1  -2  -1    2.52    0.21
   3  -1  -1    2.59    0.18
  -1  -2  -1    2.14    0.19
  -2   3  -1    2.99    0.35
  -1  -2  -1    2.25    0.20
   3  -1  -1    2.48    0.22
  -1  -2  -1    2.64    0.21
   2  -3   1    2.37    0.19
   2  -3   1    2.64    0.20
  -3   1   1    2.48    0.23
   2  -3   1    2.43    0.15
   1   2   1    2.23    0.19
   1   2   1    2.61    0.22
   4  -2  -1    1.32    0.48
   4  -2  -1    0.73    0.17
  -2   4  -1    1.14    0.15
   4  -2  -1    0.80    0.14
  -2  -2  -1    0.67    0.18
  -2  -2  -1    1.08    0.17
  -2  -2  -1    0.98    0.18
  -2  -2  -1    0.98    0.17
   4  -2  -1    0.95    0.20
  -2   4  -1    0.99    0.25
   2  -4   1    0.69    0.16
  -4   2   1    1.39    0.22
   2  -4   1    0.63    0.14
   2   2   1    0.91    0.16
   2   2   1    1.06    0.21
   2  -4   1    0.94    0.11
  -3  -2  -1    7.91    0.52
  -2   5  -1    7.65    0.49
   5  -3  -1    7.80    0.52
  -3  -2  -1    8.20    0.56
  -3  -2  -1    8.56    0.52
   5  -3  -1    8.03    0.58
   5  -3  -1    8.05    0.48
   5  -3  -1    6.32    1.09
   2  -5   1    8.10    0.57
   3   2   1    8.86    0.54
   2  -5   1    8.34    0.54
   3   2   1    8.14    0.57
   2  -5   1    8.26    0.47
  -3  -1  -1    3.40    0.26
  -3  -1  -1    3.18    0.23
   4  -3  -1    3.09    0.29
   4  -3  -1    2.94    0.24
  -3  -1  -1    2.93    0.26
  -1   4  -1    3.33    0.28
  -1   4  -1    3.09    0.23
   4  -3  -1    2.99    0.22
  -3  -1  -1    2.87    0.28
   4  -3  -1    3.18    0.63
   1  -4   1    3.25    0.28
  -4   3   1    3.05    0.50
   3   1   1    2.83    0.25
   1  -4   1    2.75    0.23
   1  -4   1    2.93    0.29
   3   1   1    3.75    0.29
  -3   0  -1   65.79    3.34
   3  -3  -1   65.17    3.33
   0   3  -1   65.45    3.33
   3  -3  -1   67.65    3.57
   3  -3  -1   69.00    3.37
  -3   0  -1   63.94    3.37
   0   3  -1   68.24    3.36
   0   3  -1   63.33    3.36
   3  -3  -1   68.24    3.31
   0  -3   1   62.81    3.36
   0  -3   1   67.71    3.33
   3   0   1   66.55    3.37
   3   0   1   65.31    3.33
   3   0   1   65.03    3.33
   0  -3   1   66.41    3.36
  -3   1  -1    4.30    0.30
   2  -3  -1    4.12    0.25
   1   2  -1    4.30    0.29
   1   2  -1    3.97    0.27
   2  -3  -1    3.69    0.26
  -3   1  -1    4.20    0.26
  -1  -2   1    4.27    0.27
   3  -1   1    4.16    0.43
  -1  -2   1    4.13    0.29
   3  -1   1    3.80    0.27
  -2   3   1    4.04    0.45
   3  -1   1    3.95    0.30
   3  -1   1    4.65    0.30
   3  -1   1    4.07    0.25
  -1  -2   1    4.19    0.29
   2   1  -1    2.28    0.19
   2   1  -1    2.49    0.20
   1  -3  -1    2.49    0.21
  -3   2  -1    2.79    0.31
   1  -3  -1    2.23    0.18
   2   1  -1    2.85    0.21
   1  -3  -1    2.42    0.22
  -2  -1   1    2.77    0.19
  -2  -1   1    2.38    0.22
  -1   3   1    2.70    0.18
   3  -2   1    2.53    0.43
   3  -2   1    2.53    0.17
  -1   3   1    2.86    0.21
   3  -2   1    2.42    0.20
  -1   3   1    2.59    0.19
  -2  -1   1    2.40    0.19
  -2  -1   1    2.69    0.21
   3  -2   1    2.51    0.24
  -3   3  -1   44.10    2.69
   3   0  -1   48.94    2.43
   0  -3  -1   47.55    2.47
   3   0  -1   48.41    2.45
   3   0  -1   46.70    2.46
  -3   3  -1   47.78    2.43
   0  -3  -1   49.41    2.47
   3   0  -1   48.77    2.43
   3  -3   1   46.48    2.42
   0   3   1   49.71    2.47
   0   3   1   47.04    2.44
   3  -3   1   48.45    2.39
   3  -3   1   47.57    2.49
   3  -3   1   51.49    2.60
  -3   0   1   47.37    2.48
  -1  -3  -1    5.41    0.39
  -1  -3  -1    5.44    0.38
   4  -1  -1    5.37    0.35
   4  -1  -1    5.49    0.40
  -1  -3  -1    5.42    0.38
  -3   4  -1    5.50    0.34
  -1  -3  -1    5.86    0.40
  -3   4  -1    5.53    0.65
   4  -1  -1    5.56    0.32
   4  -1  -1    5.22    0.63
   4  -1  -1    5.48    0.32
   3  -4   1    5.14    0.36
   1   3   1    5.19    0.40
  -4   1   1    5.10    0.41
   3  -4   1    5.32    0.36
   3  -4   1    5.29    0.36
   1   3   1    5.58    0.37
  -2  -3  -1    5.48    0.42
  -3   5  -1    5.90    0.39
  -2  -3  -1    5.31    0.44
   5  -2  -1    5.05    0.98
  -3   5  -1    5.61    0.73
   5  -2  -1    5.51    0.37
   5  -2  -1    5.65    0.46
  -2  -3  -1    5.36    0.42
  -2  -3  -1    5.07    0.42
   5  -2  -1    6.17    0.43
   3  -5   1    5.19    0.32
   2   3   1    5.51    0.47
  -5   2   1    6.19    0.49
   2   3   1    5.42    0.40
   3  -5   1    5.01    0.42
   3  -5   1    5.36    0.40
  -3   6  -1   22.04    1.67
   6  -3  -1   21.79    1.27
  -3  -3  -1   19.45    1.28
  -3  -3  -1   22.41    1.27
  -3  -3  -1   22.34    1.27
   6  -3  -1   23.37    1.21
  -3   6  -1   22.92    1.25
   3  -6   1   22.42    1.16
   3   3   1   23.42    1.27
   3  -6   1   22.58    1.28
   7  -4  -1    1.67    0.30
   7  -4  -1    1.82    0.43
  -3   7  -1    1.27    0.72
  -4  -3  -1    1.53    0.46
  -4  -3  -1    1.58    0.41
  -4  -3  -1    1.55    0.44
   4   3   1    1.54    0.31
   3  -7   1    1.67    0.43
  -4  -2  -1   14.99    0.94
  -4  -2  -1   15.27    0.86
  -2   6  -1   15.58    0.86
   6  -4  -1   12.82    0.96
  -4  -2  -1   14.91    0.89
  -2   6  -1   13.63    1.02
   6  -4  -1   13.65    1.74
   6  -4  -1   15.76    0.90
   6  -4  -1   14.95    0.82
   4   2   1   15.48    0.91
   2  -6   1   13.03    0.91
   2  -6   1   15.46    0.84
  -4  -1  -1   27.14    1.52
  -4  -1  -1   26.16    1.49
   5  -4  -1   28.55    1.52
  -4  -1  -1   27.73    1.45
   5  -4  -1   27.43    1.93
   5  -4  -1   27.87    1.43
  -4  -1  -1   27.54    1.55
   5  -4  -1   26.84    1.54
  -1   5  -1   28.25    1.48
   5  -4  -1   27.89    1.45
  -1   5  -1   30.82    1.55
   1  -5   1   28.77    1.48
   4   1   1   28.20    1.51
   1  -5   1   27.63    1.54
  -5   4   1   28.66    1.88
   4   1   1   28.78    1.52
   0   4  -1   39.89    2.04
  -4   0  -1   41.17    2.10
   4  -4  -1   38.58    2.33
   4  -4  -1   39.24    2.01
   4  -4  -1   38.50    2.03
   4  -4  -1   40.02    2.01
   4  -4  -1   38.81    2.08
  -4   0  -1   38.51    2.05
   0  -4   1   39.72    2.08
   4   0   1   40.10    2.05
   0  -4   1   40.91    2.04
   0  -4   1   40.67    2.09
   4   0   1   38.09    2.09
   4   0   1   38.05    2.03
   3  -4  -1    3.21    0.25
  -4   1  -1    2.87    0.29
   1   3  -1    3.07    0.30
   1   3  -1    3.29    0.26
   3  -4  -1    2.78    0.26
   1   3  -1    3.25    0.28
   3  -4  -1    3.29    0.22
   4  -1   1    3.35    0.32
  -1  -3   1    3.21    0.26
   4  -1   1    3.26    0.23
   4  -1   1    2.77    0.24
  -1  -3   1    3.33    0.29
  -3   4   1    3.26    0.56
  -1  -3   1    3.01    0.28
   4  -1   1    3.34    0.52
   4  -1   1    3.32    0.29
   2  -4  -1    1.02    0.14
   2  -4  -1    0.76    0.19
   2   2  -1    0.95    0.18
   2   2  -1    0.96    0.19
   2   2  -1    0.62    0.15
   2  -4  -1    0.95    0.17
  -2  -2   1    1.18    0.19
  -2  -2   1    1.02    0.17
   4  -2   1    1.17    0.51
   4  -2   1    1.06    0.18
   4  -2   1    0.84    0.23
  -2  -2   1    0.69    0.17
  -2   4   1    0.92    0.19
  -2   4   1    1.02    0.33
  -2  -2   1    1.19    0.18
   4  -2   1    0.77    0.12
   3   1  -1    5.82    0.38
   1  -4  -1    5.93    0.41
  -4   3  -1    5.61    0.55
   1  -4  -1    5.78    0.36
   3   1  -1    5.53    0.37
   1  -4  -1    5.23    0.39
   3   1  -1    5.65    0.37
  -3  -1   1    5.19    0.40
  -3  -1   1    5.11    0.35
   4  -3   1    5.52    0.65
  -1   4   1    5.86    0.40
  -3  -1   1    5.45    0.34
   4  -3   1    5.55    0.32
   4  -3   1    5.59    0.31
  -1   4   1    5.27    0.35
   4  -3   1    4.95    0.43
   4  -3   1    5.23    0.38
  -1   4   1    5.01    0.35
  -3  -1   1    5.69    0.38
  -4   4  -1   27.24    1.80
   4   0  -1   27.25    1.51
   4   0  -1   29.12    1.45
   4   0  -1   27.41    1.47
   0  -4  -1   30.13    1.52
   0  -4  -1   28.57    1.47
   0  -4  -1   28.85    1.51
   4   0  -1   27.94    1.45
   4  -4   1   27.37    1.43
   0   4   1   28.17    1.46
  -4   0   1   27.44    1.52
   0   4   1   28.30    1.50
   4  -4   1   23.15    1.52
   4  -4   1   26.57    1.54
   5  -1  -1   37.48    1.88
  -4   5  -1   35.93    1.87
  -1  -4  -1   36.81    1.95
   5  -1  -1   34.95    1.96
   5  -1  -1   34.30    2.32
  -1  -4  -1   34.35    1.95
  -1  -4  -1   37.45    1.97
  -1  -4  -1   37.59    1.93
   5  -1  -1   38.34    1.92
   5  -1  -1   36.92    1.87
  -5   1   1   37.93    2.00
   4  -5   1   35.73    1.89
   4  -5   1   36.49    1.91
   1   4   1   37.52    1.93
   4  -5   1   35.48    1.91
  -2  -4  -1   19.86    1.20
  -2  -4  -1   21.11    1.20
  -4   6  -1   19.38    1.09
   6  -2  -1   21.51    1.22
   6  -2  -1   21.28    1.15
  -4   6  -1   17.44    1.67
   6  -2  -1   20.69    1.08
   2   4   1   21.78    1.18
  -6   2   1   19.63    1.27
   4  -6   1   22.20    1.18
   4  -6   1   20.08    1.21
  -3  -4  -1    1.21    0.30
  -4   7  -1    1.53    0.88
   7  -3  -1    0.81    0.30
   7  -3  -1    1.09    0.24
  -3  -4  -1    0.96    0.30
   4  -7   1    1.34    0.42
   3   4   1    1.50    0.30
  -4  -4  -1    1.07    0.40
   8  -4  -1    2.18    0.45
  -4   8  -1    0.49    1.16
  -4  -4  -1    1.28    0.41
   8  -4  -1    1.44    0.44
   4   4   1    0.93    0.39
   4  -8   1    1.73    0.43
  -3   8  -1    0.07    1.01
  -5  -3  -1    0.09    0.43
   3  -8   1    0.16    0.37
   5   3   1    0.07    0.35
   5   3   1    0.68    0.43
   7  -5  -1   27.42    1.63
  -5  -2  -1   28.72    1.54
  -2   7  -1   26.31    1.52
   7  -5  -1   27.51    1.44
  -5  -2  -1   26.75    1.61
   2  -7   1   26.01    1.60
   5   2   1   27.06    1.56
  -1   6  -1    1.45    0.28
  -1   6  -1    1.21    0.37
   6  -5  -1    1.48    0.26
   6  -5  -1    1.44    0.34
   6  -5  -1    1.24    0.22
   6  -5  -1    1.00    0.20
  -5  -1  -1    1.40    0.38
   1  -6   1    1.16    0.27
   5   1   1    1.81    0.39
   5   1   1    1.18    0.31
  -6   5   1    1.60    0.61
   5   1   1    1.64    0.48
   1  -6   1    1.64    0.29
  -5   0  -1    2.01    0.34
   5  -5  -1    2.24    0.42
   5  -5  -1    1.48    0.25
   0   5  -1    1.84    0.37
   5  -5  -1    1.55    0.22
   0   5  -1    2.17    0.26
   5  -5  -1    1.66    0.29
   0  -5   1    1.70    0.32
   0  -5   1    1.93    0.33
   5   0   1    1.38    0.32
   5   0   1    1.32    0.30
  -5   5   1    1.82    0.79
   5   0   1    1.20    0.25
   4  -5  -1   27.72    1.48
   4  -5  -1   27.10    1.42
  -5   1  -1   27.65    1.56
   4  -5  -1   28.21    1.47
   1   4  -1   27.59    1.49
  -1  -4   1   27.22    1.49
  -4   5   1   25.84    1.98
  -1  -4   1   28.83    1.53
   5  -1   1   28.30    1.48
  -1  -4   1   27.30    1.53
   5  -1   1   25.65    1.55
   5  -1   1   27.94    1.88
   5  -1   1   29.29    1.45
   5  -1   1   28.95    1.55
  -5   2  -1    8.76    0.60
   2   3  -1    7.69    0.56
   2   3  -1    8.14    0.55
   3  -5  -1    8.03    0.55
   3  -5  -1    7.63    0.52
   2   3  -1    8.41    0.52
   3  -5  -1    8.25    0.47
  -2  -3   1    7.29    0.54
   5  -2   1    8.16    0.48
   5  -2   1    8.23    0.60
  -3   5   1    7.61    0.84
   5  -2   1    7.67    0.47
  -2  -3   1    7.82    0.53
   5  -2   1    8.47    0.55
  -2  -3   1    8.39    0.55
   5  -2   1    6.52    0.98
  -2  -3   1    7.49    0.53
   3   2  -1    5.83    0.42
   3   2  -1    4.97    0.43
   2  -5  -1    5.52    0.37
   2  -5  -1    5.21    0.46
   2  -5  -1    5.70    0.42
   3   2  -1    5.10    0.40
   5  -3   1    5.66    0.42
  -3  -2   1    5.31    0.39
  -2   5   1    5.56    0.40
  -2   5   1    6.85    0.71
   5  -3   1    6.67    0.94
  -3  -2   1    5.20    0.39
   5  -3   1    5.89    0.51
   5  -3   1    5.39    0.34
  -3  -2   1    5.72    0.45
  -3  -2   1    5.39    0.60
  -2   5   1    5.10    0.44
   1  -5  -1   38.85    1.91
   1  -5  -1   36.32    1.96
   1  -5  -1   35.48    1.99
   4   1  -1   35.10    1.92
   4   1  -1   37.71    1.93
   4   1  -1   35.46    1.92
  -5   4  -1   37.71    2.18
   5  -4   1   37.50    1.86
   5  -4   1   35.91    1.84
   5  -4   1   34.83    1.98
   5  -4   1   36.45    1.96
  -4  -1   1   34.81    1.97
  -1   5   1   34.90    1.90
  -4  -1   1   38.08    1.86
  -1   5   1   36.55    1.92
   5  -4   1   36.73    2.21
  -4  -1   1   36.24    1.88
   5   0  -1    2.21    0.26
   5   0  -1    2.01    0.31
  -5   5  -1    2.05    0.70
   0  -5  -1    1.77    0.37
   0  -5  -1    2.44    0.34
   5   0  -1    2.37    0.29
   5  -5   1    2.42    0.46
  -5   0   1    2.14    0.36
   5  -5   1    2.30    0.26
   5  -5   1    2.08    0.28
   5  -5   1    1.26    0.40
   0   5   1    2.08    0.28
  -5   6  -1    1.24    0.74
  -1  -5  -1    0.70    0.25
   6  -1  -1    0.90    0.21
   6  -1  -1    0.80    0.26
   6  -1  -1    1.03    0.22
  -1  -5  -1    0.52    0.24
   1   5   1    1.14    0.24
   5  -6   1    0.54    0.26
  -6   1   1    1.23    0.32
   5  -6   1    0.79    0.21
   5  -6   1    1.30    0.23
  -5   7  -1   15.83    1.92
   7  -2  -1   17.59    1.05
  -2  -5  -1   17.33    1.13
   7  -2  -1   17.29    1.13
  -2  -5  -1   17.76    1.13
   5  -7   1   17.04    1.09
  -7   2   1   18.24    1.24
   2   5   1   18.40    1.09
  -5   8  -1   -0.04    1.31
  -3  -5  -1    1.69    0.48
  -3  -5  -1    1.32    0.42
   8  -3  -1    1.31    0.42
   8  -3  -1    1.27    0.34
   3   5   1    2.21    0.56
   5  -8   1    1.03    0.39
  -6  -2  -1    3.95    0.99
  -2   8  -1    8.43    1.67
   2  -8   1    6.33    0.93
  -1   7  -1    1.57    0.35
  -6  -1  -1    1.80    0.45
   6   1   1    2.16    0.50
  -7   6   1    3.38    1.12
   1  -7   1    2.37    0.55
   6   1   1    1.52    0.41
   0   6  -1    1.60    0.30
  -6   0  -1    2.37    0.48
   6  -6  -1    1.66    0.33
   6  -6  -1    2.13    0.34
   6   0   1    2.15    0.54
   6   0   1    1.74    0.46
   6   0   1    1.65    0.38
   0  -6   1    2.02    0.45
  -6   6   1    2.78    1.13
   1   5  -1    1.24    0.32
   5  -6  -1    1.40    0.43
  -6   1  -1    1.45    0.33
   5  -6  -1    1.46    0.30
   5  -6  -1    1.37    0.43
   6  -1   1    1.27    0.28
   6  -1   1    1.37    0.34
  -5   6   1    1.90    0.79
  -1  -5   1    2.02    0.37
   6  -1   1    1.25    0.29
   4  -6  -1   14.11    0.96
   4  -6  -1   16.55    0.92
  -6   2  -1   16.10    1.03
   2   4  -1   14.38    0.91
   4  -6  -1   15.27    0.83
   6  -2   1   15.56    0.88
   6  -2   1   15.07    0.84
  -2  -4   1   14.81    0.96
  -4   6   1   17.17    1.53
   6  -2   1   15.87    0.96
   6  -2   1   11.63    1.68
  -2  -4   1   15.42    0.95
   3   3  -1   22.92    1.25
   3  -6  -1   22.69    1.27
   3  -6  -1   18.20    1.28
   3  -6  -1   22.78    1.18
  -3  -3   1   21.99    1.24
  -3   6   1   22.26    1.67
   6  -3   1   22.76    1.18
  -3  -3   1   22.78    1.30
  -3  -3   1   21.18    1.24
   6  -3   1   21.81    1.26
   4   2  -1   20.25    1.16
   2  -6  -1   18.33    1.18
   2  -6  -1   21.42    1.12
  -4  -2   1   21.01    1.22
  -2   6   1   20.12    1.14
   6  -4   1   20.26    1.19
  -4  -2   1   20.90    1.11
   6  -4   1   20.06    1.07
   6  -4   1   20.10    1.72
  -4  -2   1   21.09    1.14
  -2   6   1   17.64    1.49
   1  -6  -1    0.36    0.29
   5   1  -1    0.92    0.24
   1  -6  -1    1.12    0.35
   5   1  -1    2.16    0.45
  -6   5  -1    1.38    0.52
   6  -5   1    0.99    0.38
   6  -5   1    0.95    0.28
  -5  -1   1    0.84    0.28
  -1   6   1    0.85    0.22
  -1   6   1    1.75    0.45
   0  -6  -1    2.37    0.46
  -6   6  -1    2.66    0.94
   6   0  -1    1.73    0.45
   6   0  -1    1.61    0.36
   6   0  -1    1.93    0.38
   6  -6   1    0.90    0.32
   0   6   1    2.20    0.39
   6  -6   1    1.89    0.43
  -6   0   1    2.36    0.50
   6  -6   1    1.28    0.25
  -1  -6  -1    2.96    0.54
   7  -1  -1    2.67    0.56
  -6   7  -1    1.38    0.89
  -1  -6  -1    3.12    0.57
   7  -1  -1    2.38    0.46
   6  -7   1    2.73    0.49
   1   6   1    2.99    0.50
  -7   1   1    3.41    0.57
  -6   8  -1    7.75    2.02
   8  -2  -1    7.00    0.69
  -2  -6  -1    6.16    0.83
   8  -2  -1    6.82    0.81
  -2  -6  -1    5.89    0.81
   2   6   1    6.38    0.78
   6  -8   1    7.22    0.79
   0   7  -1    5.40    0.64
  -7   0  -1    4.82    0.82
  -7   7   1    5.88    1.58
   0  -7   1    4.85    0.76
   7   0   1    4.86    0.74
   7   0   1    4.60    0.64
  -7   1  -1    2.44    0.63
   1   6  -1    2.74    0.48
   6  -7  -1    1.50    0.46
  -1  -6   1    2.78    0.56
  -1  -6   1    1.80    0.54
   7  -1   1    2.49    0.53
  -6   7   1    3.55    1.44
   7  -1   1    2.00    0.46
   2   5  -1   25.38    1.49
   5  -7  -1   26.73    1.50
  -2  -5   1   28.09    1.58
  -5   7   1   23.20    2.29
   7  -2   1   24.98    1.54
  -2  -5   1   25.24    1.53
   7  -2   1   27.49    1.46
   3   4  -1    1.86    0.40
   4  -7  -1    1.42    0.44
   7  -3   1    1.42    0.31
  -3  -4   1    1.64    0.46
   7  -3   1    1.35    0.32
  -4   7   1    1.33    0.83
  -3  -4   1    1.41    0.31
   3  -7  -1    0.93    0.27
   4   3  -1    1.07    0.29
   7  -4   1    0.90    0.31
  -4  -3   1    1.35    0.30
  -4  -3   1    1.17    0.37
  -3   7   1    1.78    0.69
  -4  -3   1    1.13    0.28
   7  -4   1    1.09    0.20
   5   2  -1   17.62    1.15
   2  -7  -1   18.67    1.20
  -2   7   1   19.67    1.17
   7  -5   1   19.08    1.27
   7  -5   1   17.53    1.00
  -5  -2   1   17.55    1.21
  -2   7   1   22.22    1.72
   1  -7  -1    3.10    0.58
   6   1  -1    3.78    0.53
   7  -6   1    2.73    0.86
  -6  -1   1    2.03    0.60
  -1   7   1    3.07    0.51
   0  -7  -1    2.67    0.71
   7   0  -1    4.18    0.71
  -7   7  -1    4.90    1.28
   7   0  -1    4.31    0.61
   0  -7  -1    3.26    0.68
  -7   0   1    4.44    0.82
   0   7   1    3.51    0.60
   2   6  -1    9.50    0.84
   6  -8  -1    7.38    0.83
   8  -2   1    8.12    0.89
  -2  -6   1    9.03    0.92
   8  -2   1   10.12    0.80
  -2  -6   1   10.08    0.97
  -6   8   1    5.11    2.10
   5  -8  -1   -0.06    0.36
   3   5  -1    0.21    0.36
  -3  -5   1    0.26    0.47
  -3  -5   1    0.96    0.42
   8  -3   1    1.00    0.41
  -5   8   1    0.32    1.35
   8  -3   1   -0.07    0.30
   4   4  -1    1.01    0.37
   4  -8  -1    1.17    0.42
   8  -4   1    1.08    0.42
  -4   8   1    1.43    1.16
  -4  -4   1    1.43    0.44
  -4  -4   1    1.21    0.42
   5   3  -1    0.53    0.38
   3  -8  -1    1.73    0.43
   8  -5   1    0.63    0.53
  -5  -3   1    1.61    0.46
  -3   8   1    1.99    1.07
   6   2  -1    3.68    0.97
   2  -8  -1    4.34    0.86
  -2   8   1    7.35    1.56
   0   0  -2    1.95    0.14
   0   0  -2    1.93    0.15
   0   0   2    1.62    0.14
   0   0   2    1.83    0.14
   0   1  -2    4.22    0.24
   0   1  -2    4.18    0.22
   1  -1  -2    3.83    0.21
  -1   0  -2    4.04    0.24
   1  -1  -2    3.29    0.33
   1  -1  -2    4.14    0.22
  -1   0  -2    4.25    0.23
   1  -1  -2    3.99    0.22
   0   1  -2    3.73    0.24
  -1   0  -2    3.88    0.26
  -1   0  -2    4.04    0.24
   1   0   2    4.16    0.23
   0  -1   2    4.26    0.24
   1   0   2    4.08    0.24
   1   0   2    4.13    0.24
  -1   1   2    3.64    0.36
  -1   1   2    3.91    0.21
   1   0   2    3.73    0.25
  -1   1  -2    2.06    0.17
  -1   1  -2    2.06    0.14
   1   0  -2    2.34    0.15
  -1   1  -2    2.40    0.17
   0  -1  -2    2.25    0.15
   0  -1  -2    2.16    0.14
   1  -1   2    2.44    0.18
   0   1   2    2.23    0.15
  -1   0   2    2.34    0.16
  -1   0   2    2.48    0.15
   1  -1   2    2.14    0.14
   0   1   2    2.12    0.14
  -1   0   2    2.37    0.13
   0   1   2    2.16    0.14
  -1   2  -2  102.97    5.30
  -1  -1  -2  102.44    5.30
  -1  -1  -2  107.36    5.30
  -1   2  -2  106.26    5.35
  -1  -1  -2  110.86    5.31
   2  -1  -2  107.67    5.49
  -1   2  -2  105.54    5.27
  -1  -1  -2  101.10    5.31
   2  -1  -2  106.06    5.30
   1   1   2  108.87    5.31
  -2   1   2  106.29    5.31
   1  -2   2  106.90    5.30
   1   1   2  109.16    5.31
   1   1   2  104.87    5.30
   1  -2   2  107.54    5.27
  -2   1   2  104.07    5.46
   1  -2   2  108.08    5.32
   3  -2  -2   12.72    1.11
  -1   3  -2   15.17    0.80
  -2  -1  -2   16.25    0.83
  -2  -1  -2   15.12    0.84
  -2  -1  -2   16.60    0.83
  -1   3  -2   15.16    0.86
  -2  -1  -2   15.18    0.83
   3  -2  -2   16.00    0.83
  -1   3  -2   15.18    0.84
  -3   2   2   15.25    1.06
   1  -3   2   15.35    0.79
   2   1   2   15.32    0.83
   1  -3   2   15.09    0.84
   2   1   2   14.98    0.84
   1  -3   2   16.45    0.84
   2  -2  -2  155.03    8.23
   0   2  -2  171.93    8.05
  -2   0  -2  166.20    8.03
  -2   0  -2  166.06    8.02
   0   2  -2  161.38    8.02
   2  -2  -2  164.44    8.04
   2  -2  -2  163.25    8.01
   0   2  -2  167.03    8.05
  -2   0  -2  145.28    8.05
  -2   0  -2  153.97    8.05
   0  -2   2  164.82    8.05
   2   0   2  155.62    8.03
   0  -2   2  165.93    8.05
   2   0   2  167.18    8.04
  -2   2   2  150.03    8.28
   2   0   2  167.99    8.06
   2   0   2  161.08    8.06
   0  -2   2  158.34    8.02
   1   1  -2  107.67    5.26
  -2   1  -2  107.42    5.27
   1   1  -2  104.63    5.27
  -2   1  -2  108.91    5.24
   1   1  -2  104.79    5.26
   1  -2  -2  100.30    5.26
   1  -2  -2  105.82    5.25
   2  -1   2  107.60    5.25
  -1   2   2  106.07    5.26
  -1  -1   2  103.81    5.26
  -1   2   2  104.75    5.25
   2  -1   2  102.38    5.34
   2  -1   2  102.47    5.27
  -1  -1   2  104.41    5.26
   2  -1   2  102.52    5.24
   2  -1   2  109.66    5.29
  -1  -1   2  108.45    5.26
   2   0  -2  214.28   10.49
   0  -2  -2  209.45   10.50
   2   0  -2  217.40   10.48
   2   0  -2  219.21   10.50
  -2   2  -2  178.68   10.60
   2   0  -2  206.24   10.47
   0  -2  -2  219.75   10.49
  -2   2  -2  214.27   10.50
  -2   0   2  208.98   10.51
   0   2   2  207.45   10.49
   0   2   2  216.37   10.51
  -2   0   2  220.29   10.48
   2  -2   2  205.58   10.53
   2  -2   2  216.90   10.48
   3  -1  -2    8.70    0.72
  -2   3  -2    8.53    0.54
  -1  -2  -2    8.33    0.51
  -1  -2  -2    8.14    0.50
  -1  -2  -2    8.29    0.50
   3  -1  -2    8.42    0.51
  -1  -2  -2    9.97    0.52
  -2   3  -2    8.94    0.64
   3  -1  -2    8.21    0.49
   2  -3   2    8.98    0.53
   1   2   2    8.81    0.52
   2  -3   2    8.58    0.49
   1   2   2    8.24    0.49
  -3   1   2    8.98    0.53
  -2   4  -2    0.45    0.19
  -2  -2  -2    0.14    0.10
  -2  -2  -2    0.09    0.09
  -2  -2  -2    0.21    0.11
   4  -2  -2    0.46    0.12
   4  -2  -2    0.40    0.13
   4  -2  -2    0.58    0.40
  -2   4  -2    0.25    0.07
   2   2   2    0.25    0.09
   2  -4   2    0.11    0.09
   2   2   2    0.17    0.12
  -4   2   2    0.36    0.15
   2  -4   2    0.31    0.08
   2  -4   2    0.15    0.11
   5  -3  -2    0.65    0.65
  -3  -2  -2    0.06    0.13
   5  -3  -2    0.41    0.14
  -2   5  -2    0.46    0.12
  -2   5  -2    0.64    0.27
  -3  -2  -2    0.34    0.15
   5  -3  -2    0.23    0.18
  -3  -2  -2    0.43    0.15
   5  -3  -2    0.41    0.12
   2  -5   2    0.35    0.10
   3   2   2    0.40    0.13
   2  -5   2    0.50    0.14
   2  -5   2    0.31    0.18
   3   2   2    0.84    0.20
  -3  -1  -2    1.95    0.24
  -1   4  -2    1.75    0.18
  -1   4  -2    2.50    0.27
   4  -3  -2    1.71    0.63
  -3  -1  -2    1.71    0.22
   4  -3  -2    1.98    0.19
  -3  -1  -2    1.78    0.22
  -3  -1  -2    1.99    0.19
   4  -3  -2    2.57    0.25
   1  -4   2    2.12    0.23
   1  -4   2    1.85    0.24
   3   1   2    1.93    0.23
   3   1   2    1.67    0.27
   3   1   2    1.96    0.21
  -4   3   2    1.62    0.47
   1  -4   2    1.81    0.18
  -3   0  -2   69.17    3.36
   3  -3  -2   64.94    3.62
   3  -3  -2   69.12    3.34
  -3   0  -2   57.50    3.35
   0   3  -2   66.85    3.38
  -3   0  -2   68.43    3.32
  -3   0  -2   65.69    3.39
   0   3  -2   66.00    3.38
   0   3  -2   65.55    3.35
   3  -3  -2   69.32    3.37
   0  -3   2   64.85    3.38
   0  -3   2   65.86    3.34
   0  -3   2   70.07    3.38
   3   0   2   64.70    3.35
   3   0   2   66.71    3.39
  -3   3   2   60.92    3.69
   3   0   2   69.52    3.40
   3   0   2   70.32    3.36
   2  -3  -2   17.43    0.83
   1   2  -2   15.00    0.85
   1   2  -2   15.65    0.83
  -3   1  -2   16.52    0.82
  -3   1  -2   15.29    0.86
   1   2  -2   15.24    0.85
   2  -3  -2   14.88    0.82
   3  -1   2   14.96    0.81
  -1  -2   2   15.42    0.85
   3  -1   2   15.87    0.99
   3  -1   2   13.17    0.84
   3  -1   2   15.70    0.86
  -2   3   2   15.04    1.04
   3  -1   2   15.53    0.87
  -1  -2   2   15.87    0.84
  -1  -2   2   16.13    0.83
   2   1  -2    8.34    0.49
  -3   2  -2    8.40    0.50
   2   1  -2    8.18    0.49
   1  -3  -2    8.47    0.50
   2   1  -2    8.71    0.49
   1  -3  -2    8.33    0.48
  -1   3   2    9.44    0.50
  -2  -1   2    8.45    0.48
   3  -2   2    8.04    0.45
   3  -2   2    9.31    0.55
  -2  -1   2    8.17    0.49
   3  -2   2    8.50    0.45
   3  -2   2    8.67    0.51
   3  -2   2    7.82    0.67
  -2  -1   2    8.60    0.48
  -1   3   2    8.45    0.48
  -2  -1   2    8.23    0.51
  -3   3  -2   89.64    4.50
   0  -3  -2   98.32    4.54
   0  -3  -2   85.99    4.52
   3   0  -2   89.74    4.51
   3   0  -2   88.46    4.48
   3   0  -2   92.77    4.53
  -3   3  -2   77.12    4.69
   0  -3  -2   94.05    4.50
   3   0  -2   89.36    4.49
   0   3   2   95.28    4.53
   3  -3   2   84.85    4.56
   0   3   2   87.60    4.50
  -3   0   2   89.85    4.54
   3  -3   2   90.53    4.48
   4  -1  -2    4.11    0.61
  -1  -3  -2    3.21    0.30
   4  -1  -2    3.65    0.31
   4  -1  -2    3.68    0.27
  -3   4  -2    3.45    0.28
  -1  -3  -2    3.65    0.30
  -1  -3  -2    3.67    0.32
  -1  -3  -2    3.32    0.28
  -3   4  -2    3.27    0.54
   4  -1  -2    3.55    0.23
   4  -1  -2    3.65    0.23
   1   3   2    3.41    0.33
   3  -4   2    3.71    0.28
   3  -4   2    3.60    0.32
  -4   1   2    3.43    0.33
   1   3   2    3.19    0.27
  -2  -3  -2    0.37    0.18
  -2  -3  -2    0.57    0.16
   5  -2  -2    0.47    0.13
   5  -2  -2    0.27    0.14
  -2  -3  -2    0.41    0.15
  -3   5  -2    0.40    0.37
  -3   5  -2    0.23    0.17
   5  -2  -2    0.26    0.51
   5  -2  -2    0.24    0.18
  -2  -3  -2    0.35    0.17
  -5   2   2    0.34    0.19
   3  -5   2    0.19    0.16
   2   3   2    0.44    0.14
   2   3   2    0.36    0.20
   3  -5   2    0.41    0.14
  -3   6  -2   32.38    2.13
   6  -3  -2   25.45    2.59
   6  -3  -2   33.21    1.68
  -3  -3  -2   32.87    1.73
  -3  -3  -2   32.28    1.73
  -3  -3  -2   29.36    1.74
   6  -3  -2   31.90    1.72
  -3   6  -2   33.22    1.75
   6  -3  -2   29.96    1.76
   3   3   2   32.09    1.72
   3  -6   2   32.43    1.61
   3  -6   2   32.24    1.74
   7  -4  -2   11.23    0.68
  -4  -3  -2   10.96    0.77
   7  -4  -2   10.40    0.77
  -4  -3  -2   10.23    0.78
  -4  -3  -2   10.55    0.78
  -3   7  -2   10.32    1.30
   4   3   2    9.96    0.74
   3  -7   2   10.40    0.79
  -2   6  -2   53.33    2.71
  -2   6  -2   48.81    2.86
   6  -4  -2   52.75    2.69
  -4  -2  -2   51.69    2.79
   6  -4  -2   48.94    2.78
   6  -4  -2   54.74    2.75
  -4  -2  -2   53.50    2.75
  -4  -2  -2   54.06    2.72
   2  -6   2   53.79    2.68
   2  -6   2   52.89    2.80
   4   2   2   53.90    2.76
   5  -4  -2   49.28    2.54
   5  -4  -2   47.94    2.47
  -4  -1  -2   48.98    2.59
  -4  -1  -2   50.17    2.50
  -4  -1  -2   48.46    2.56
   5  -4  -2   44.77    3.00
  -1   5  -2   50.33    2.60
  -1   5  -2   47.62    2.51
   5  -4  -2   49.70    2.50
   5  -4  -2   49.62    2.57
  -4  -1  -2   51.20    2.56
   1  -5   2   47.92    2.59
  -5   4   2   49.02    2.97
   4   1   2   50.70    2.57
   4   1   2   50.63    2.55
   4   1   2   48.74    2.60
   1  -5   2   49.30    2.51
   0   4  -2  102.99    5.13
  -4   0  -2  105.42    5.11
  -4   0  -2  100.03    5.15
   4  -4  -2  101.73    5.12
   4  -4  -2  101.60    5.11
   0   4  -2  101.85    5.14
   4  -4  -2  101.14    5.44
   4  -4  -2  100.93    5.06
   0   4  -2  102.54    5.09
   4   0   2  104.83    5.16
   4   0   2  102.45    5.10
   4   0   2  101.90    5.10
  -4   4   2   88.21    5.51
   0  -4   2  101.74    5.08
   0  -4   2  102.94    5.14
   0  -4   2   99.68    5.14
   4   0   2   99.97    5.15
  -4   1  -2    1.91    0.25
  -4   1  -2    2.21    0.20
   3  -4  -2    1.72    0.19
   1   3  -2    2.21    0.23
   1   3  -2    2.11    0.25
   3  -4  -2    2.11    0.19
   1   3  -2    1.73    0.20
   4  -1   2    1.82    0.28
  -1  -3   2    1.80    0.21
  -1  -3   2    1.62    0.22
   4  -1   2    1.89    0.23
   4  -1   2    1.92    0.18
   4  -1   2    2.11    0.20
   4  -1   2    2.15    0.46
  -3   4   2    2.07    0.52
  -1  -3   2    1.93    0.23
   2   2  -2    0.22    0.09
   2  -4  -2    0.33    0.09
   2  -4  -2   -0.02    0.11
   2   2  -2    0.22    0.10
   2   2  -2    0.17    0.10
   2  -4  -2    0.21    0.09
   4  -2   2    0.71    0.36
  -2  -2   2    0.62    0.16
   4  -2   2    0.12    0.07
  -2  -2   2    0.22    0.11
  -2  -2   2    0.38    0.11
   4  -2   2    0.14    0.16
  -2  -2   2    0.19    0.10
  -2   4   2    0.28    0.21
   4  -2   2    0.43    0.10
   4  -2   2    0.26    0.10
   3   1  -2    3.27    0.28
  -4   3  -2    3.79    0.42
   1  -4  -2    3.32    0.30
   3   1  -2    3.75    0.28
   1  -4  -2    3.85    0.28
   3   1  -2    3.38    0.28
   1  -4  -2    3.44    0.32
  -1   4   2    3.02    0.30
   4  -3   2    3.36    0.31
   4  -3   2    3.43    0.37
  -3  -1   2    3.46    0.26
  -3  -1   2    3.46    0.25
   4  -3   2    3.60    0.21
  -3  -1   2    3.62    0.32
   4  -3   2    3.75    0.24
   4  -3   2    3.52    0.51
  -4   4  -2   87.38    4.41
   4   0  -2   90.12    4.40
   0  -4  -2   85.69    4.45
   4   0  -2   87.40    4.40
  -4   4  -2   88.99    4.72
   4   0  -2   88.03    4.43
   0  -4  -2   89.60    4.42
   0  -4  -2   89.68    4.46
   0   4   2   88.65    4.45
   4  -4   2   73.97    4.49
   0   4   2   89.09    4.42
   4  -4   2   88.73    4.39
  -4   0   2   88.39    4.47
  -1  -4  -2   38.21    2.04
  -1  -4  -2   38.10    2.08
   5  -1  -2   39.41    1.98
   5  -1  -2   40.56    2.49
  -4   5  -2   38.70    2.47
   5  -1  -2   39.06    2.03
  -1  -4  -2   41.64    2.08
  -1  -4  -2   37.04    2.05
  -4   5  -2   38.18    2.00
   5  -1  -2   38.97    1.98
   5  -1  -2   35.59    2.06
   4  -5   2   38.18    2.02
   4  -5   2   39.21    2.04
  -5   1   2   39.28    2.11
   4  -5   2   39.61    2.03
   1   4   2   37.75    2.03
  -4   6  -2   50.92    2.98
   6  -2  -2   60.36    2.95
  -2  -4  -2   59.71    3.07
   6  -2  -2   59.54    3.08
   6  -2  -2   61.23    3.02
  -4   6  -2   49.94    3.48
  -2  -4  -2   60.31    3.07
  -6   2   2   61.43    3.15
   4  -6   2   60.97    3.05
   4  -6   2   57.49    3.05
   2   4   2   60.68    3.05
   7  -3  -2    5.59    0.57
   7  -3  -2    5.87    0.49
  -4   7  -2    4.44    1.27
  -3  -4  -2    6.66    0.59
  -3  -4  -2    5.49    0.58
   3   4   2    6.17    0.55
   4  -7   2    6.46    0.59
   8  -4  -2    0.71    0.30
  -4  -4  -2   -0.22    0.37
  -4  -4  -2    0.54    0.40
  -4   8  -2   -0.19    1.16
   8  -4  -2    0.35    0.40
   4   4   2    0.69    0.35
   4   4   2    0.19    0.40
   4  -8   2    0.02    0.38
  -5  -3  -2    0.73    0.44
  -3   8  -2    2.13    1.12
   5   3   2    1.34    0.37
   3  -8   2    0.98    0.42
   5   3   2    0.72    0.43
   7  -5  -2   21.57    1.18
  -5  -2  -2   17.62    1.29
   7  -5  -2   22.28    1.35
  -5  -2  -2   21.90    1.35
  -2   7  -2   23.44    1.26
   5   2   2   21.84    1.37
   5   2   2   22.68    1.30
   2  -7   2   21.95    1.36
  -5  -1  -2    6.46    0.58
   6  -5  -2    5.17    0.66
   6  -5  -2    6.31    0.44
   6  -5  -2    6.52    0.41
  -1   6  -2    5.90    0.68
   6  -5  -2    6.98    0.42
  -1   6  -2    6.48    0.47
   6  -5  -2    5.72    0.59
  -6   5   2    6.32    1.05
   5   1   2    7.36    0.60
   5   1   2    5.33    0.60
   5   1   2    6.05    0.52
   1  -6   2    7.10    0.54
   1  -6   2    5.72    0.56
   5  -5  -2    7.27    0.56
  -5   0  -2    8.86    0.64
   0   5  -2    9.17    0.66
   5  -5  -2    9.53    0.53
   5  -5  -2    8.43    0.65
   5  -5  -2    8.73    0.55
   0   5  -2    8.69    0.56
   5   0   2    9.19    0.59
   5   0   2    8.40    0.64
  -5   5   2    8.00    1.11
   0  -5   2    8.92    0.63
   0  -5   2    8.03    0.58
   5   0   2    8.20    0.57
   4  -5  -2   48.49    2.47
   1   4  -2   50.16    2.57
   1   4  -2   50.22    2.52
  -5   1  -2   48.35    2.58
   4  -5  -2   47.85    2.50
   4  -5  -2   51.56    2.52
  -1  -4   2   48.72    2.51
  -1  -4   2   49.20    2.56
  -4   5   2   45.72    3.04
   5  -1   2   49.31    2.57
   5  -1   2   48.00    2.49
   5  -1   2   48.70    2.50
  -1  -4   2   47.00    2.55
   5  -1   2   46.04    2.86
   2   3  -2    0.54    0.19
   3  -5  -2    0.23    0.14
   2   3  -2    0.30    0.15
   2   3  -2    0.60    0.15
   3  -5  -2    0.25    0.17
   3  -5  -2    0.17    0.12
   5  -2   2    0.54    0.16
   5  -2   2    0.58    0.16
  -2  -3   2    0.35    0.16
   5  -2   2    0.21    0.23
   5  -2   2    0.70    0.55
  -2  -3   2    0.42    0.15
  -2  -3   2    0.42    0.18
  -3   5   2    0.05    0.34
   5  -2   2    0.48    0.12
  -2  -3   2    0.22    0.17
   3   2  -2    0.27    0.16
   2  -5  -2   -0.01    0.18
   2  -5  -2    0.39    0.14
   3   2  -2    0.20    0.13
   2  -5  -2    0.29    0.14
   3   2  -2    0.15    0.13
  -3  -2   2    0.20    0.17
   5  -3   2    0.60    0.50
  -3  -2   2    0.29    0.18
   5  -3   2    0.30    0.25
  -2   5   2    0.39    0.17
  -2   5   2    0.56    0.16
  -3  -2   2    0.67    0.19
  -3  -2   2    0.06    0.12
  -2   5   2    0.79    0.36
   5  -3   2    0.16    0.14
   5  -3   2    0.31    0.10
   5  -3   2    0.33    0.09
  -5   4  -2   40.24    2.25
   4   1  -2   38.00    2.05
   1  -5  -2   35.56    2.09
   1  -5  -2   39.72    2.03
   4   1  -2   38.74    2.04
   1  -5  -2   37.74    2.07
   4   1  -2   39.37    2.04
  -4  -1   2   38.47    2.10
  -1   5   2   37.58    2.03
   5  -4   2   39.91    2.11
  -1   5   2   40.58    2.08
  -1   5   2   41.47    2.04
  -4  -1   2   38.13    1.98
   5  -4   2   40.26    2.28
   5  -4   2   37.85    2.13
   5  -4   2   39.15    1.99
  -4  -1   2   37.94    1.99
   0  -5  -2   16.71    0.99
   0  -5  -2   16.47    0.96
   5   0  -2   16.40    0.92
   5   0  -2   16.44    0.91
   5   0  -2   16.42    0.94
  -5   5  -2   15.49    1.27
   5  -5   2   16.62    0.91
   5  -5   2   14.40    1.09
   5  -5   2   13.22    1.02
   0   5   2   15.94    0.93
  -5   0   2   17.11    1.03
  -1  -5  -2    4.34    0.43
   6  -1  -2    4.01    0.39
   6  -1  -2    3.88    0.34
  -5   6  -2    5.02    1.06
  -1  -5  -2    4.28    0.46
   6  -1  -2    3.50    0.40
   5  -6   2    3.62    0.39
   5  -6   2    3.69    0.37
  -6   1   2    3.75    0.53
   5  -6   2    3.79    0.49
   1   5   2    3.83    0.42
  -2  -5  -2   30.53    1.83
   7  -2  -2   33.42    1.86
  -2  -5  -2   33.21    1.84
  -5   7  -2   27.52    2.54
   7  -2  -2   33.66    1.78
   5  -7   2   32.75    1.81
  -7   2   2   36.06    1.98
   2   5   2   31.49    1.80
  -3  -5  -2    1.25    0.43
  -3  -5  -2    2.89    0.67
  -5   8  -2    1.98    1.37
   8  -3  -2    1.22    0.44
   8  -3  -2    2.01    0.51
   5  -8   2    1.79    0.43
   3   5   2    1.69    0.42
  -6  -1  -2   -0.01    0.34
  -1   7  -2   -0.25    0.29
   6   1   2    0.46    0.30
   6   1   2    0.31    0.33
   1  -7   2    0.90    0.36
  -7   6   2    0.54    0.79
   6  -6  -2    0.48    0.41
   6  -6  -2    0.43    0.14
  -6   0  -2    0.39    0.28
   6  -6  -2    0.42    0.19
   0   6  -2    0.21    0.23
  -6   6   2    0.45    0.75
   6   0   2    0.44    0.22
   0  -6   2    0.59    0.27
   6   0   2   -0.09    0.26
   6   0   2   -0.02    0.33
   5  -6  -2    6.93    0.58
  -6   1  -2    6.88    0.60
   1   5  -2    6.52    0.52
   5  -6  -2    6.57    0.49
   5  -6  -2    5.51    0.66
   5  -6  -2    5.95    0.43
   6  -1   2    5.90    0.57
   6  -1   2    6.00    0.49
  -1  -5   2    6.43    0.56
  -5   6   2    5.45    1.22
   6  -1   2    5.58    0.51
   2   4  -2   47.57    2.74
   4  -6  -2   54.10    2.68
   4  -6  -2   52.61    2.77
   4  -6  -2   55.65    2.76
   6  -2   2   53.25    2.69
  -2  -4   2   53.83    2.82
  -2  -4   2   50.70    2.77
   6  -2   2   52.60    2.80
  -4   6   2   53.01    3.36
   6  -2   2   53.06    2.71
   3   3  -2   31.70    1.74
   3  -6  -2   32.94    1.68
   3  -6  -2   34.09    1.76
   3   3  -2   32.71    1.77
  -3   6   2   33.33    2.20
   6  -3   2   31.52    1.67
   6  -3   2   31.92    1.77
  -3  -3   2   32.49    1.81
   6  -3   2   29.74    1.72
   6  -3   2   29.11    2.40
  -3  -3   2   32.14    1.74
  -3  -3   2   33.01    1.74
   4   2  -2   62.77    3.18
   4   2  -2   60.52    3.16
   2  -6  -2   56.29    3.18
   2  -6  -2   63.28    3.12
   6  -4   2   58.57    3.51
  -2   6   2   58.26    3.53
  -4  -2   2   59.59    3.22
  -4  -2   2   61.89    3.13
   6  -4   2   60.73    3.06
  -4  -2   2   61.29    3.11
   6  -4   2   62.13    3.21
  -2   6   2   64.42    3.16
   6  -4   2   60.53    3.08
   1  -6  -2    2.81    0.49
   5   1  -2    3.53    0.40
   5   1  -2    3.47    0.50
  -6   5  -2    3.99    0.67
   1  -6  -2    2.98    0.44
   5   1  -2    3.22    0.39
  -1   6   2    3.75    0.49
  -1   6   2    3.10    0.38
  -5  -1   2    3.09    0.47
   6  -5   2    3.98    0.38
   6  -5   2    4.27    0.64
   6   0  -2    0.98    0.25
   6   0  -2    0.13    0.20
  -6   6  -2    0.22    0.58
   6   0  -2    0.16    0.31
   0  -6  -2    0.43    0.28
   0  -6  -2    0.47    0.28
   0   6   2    0.16    0.35
  -6   0   2    0.42    0.31
   6  -6   2    0.29    0.30
   0   6   2    0.46    0.23
   6  -6   2    0.20    0.31
   6  -6   2    0.22    0.20
   7  -1  -2    0.55    0.28
   7  -1  -2    0.08    0.29
  -6   7  -2    0.58    0.83
  -1  -6  -2    0.18    0.30
  -1  -6  -2    0.21    0.33
   6  -7   2    0.47    0.28
  -7   1   2    0.14    0.43
   1   6   2    0.33    0.30
  -2  -6  -2   24.62    1.58
   0   7  -2   -0.25    0.35
  -7   0  -2    0.11    0.45
   7   0   2   -0.03    0.39
  -7   7   2    0.54    1.11
   7   0   2   -0.57    0.34
   0  -7   2    0.55    0.40
   1   6  -2    0.46    0.29
   6  -7  -2    0.07    0.28
  -7   1  -2    0.21    0.40
  -6   7   2    0.45    1.01
   7  -1   2    0.53    0.35
  -1  -6   2    0.24    0.39
  -1  -6   2    1.04    0.35
   7  -1   2    0.98    0.29
   2   5  -2   21.81    1.29
   5  -7  -2   19.81    1.26
  -2  -5   2   21.97    1.32
  -5   7   2   21.80    2.18
  -2  -5   2   21.14    1.36
   7  -2   2   22.47    1.23
   7  -2   2   21.53    1.33
   3   4  -2   10.07    0.76
   4  -7  -2   10.23    0.78
  -3  -4   2   10.42    0.84
  -3  -4   2   10.54    0.78
   7  -3   2   10.47    0.80
   7  -3   2   11.25    0.68
  -4   7   2   10.71    1.44
   3  -7  -2    5.95    0.57
   4   3  -2    5.67    0.56
  -4  -3   2    6.43    0.54
   7  -4   2    5.57    0.41
  -4  -3   2    4.70    0.58
  -4  -3   2    5.48    0.61
   7  -4   2    5.52    0.61
   7  -4   2    3.29    1.17
   5   2  -2   32.66    1.81
   2  -7  -2   33.02    1.86
  -2   7   2   29.23    1.80
  -5  -2   2   33.03    1.90
   7  -5   2   34.28    1.94
  -2   7   2   31.02    2.29
   6   1  -2    0.43    0.30
   1  -7  -2    0.40    0.34
  -1   7   2    1.84    0.48
  -6  -1   2    0.67    0.40
   7  -6   2    0.24    0.54
   7   0  -2    0.04    0.32
   0  -7  -2    0.48    0.39
  -7   7  -2    0.77    0.77
   0  -7  -2    0.30    0.40
   7   0  -2   -0.13    0.38
  -7   0   2   -0.20    0.52
   0   7   2    0.27    0.35
  -2  -6   2   30.05    1.91
   3   5  -2    2.57    0.60
   5  -8  -2    0.39    0.38
  -3  -5   2    0.79    0.47
  -3  -5   2    0.50    0.39
   8  -3   2    1.22    0.32
   8  -3   2    0.53    0.42
  -5   8   2    0.94    1.39
   4   4  -2    0.41    0.33
   4  -8  -2   -0.28    0.34
  -4  -4   2    0.40    0.38
   8  -4   2    0.48    0.42
  -4   8   2   -1.42    1.02
  -4  -4   2   -0.10    0.43
   5   3  -2    0.74    0.41
   3  -8  -2    1.28    0.44
   8  -5   2    0.95    0.60
  -3   8   2    1.35    0.98
  -5  -3   2    0.89    0.49
   0   0  -3    3.29    0.23
   0   0  -3    2.77    0.22
   0   0  -3    3.07    0.24
   0   0   3    3.00    0.23
   0   0   3    3.16    0.24
   0   0   3    3.47    0.23
  -1   0  -3   34.22    1.68
   1  -1  -3   33.74    1.68
   1  -1  -3   28.73    1.82
   1  -1  -3   34.56    1.66
  -1   0  -3   34.81    1.73
   1  -1  -3   33.37    1.68
  -1   0  -3   33.31    1.69
   0   1  -3   32.01    1.70
   0   1  -3   34.54    1.70
  -1   0  -3   34.27    1.70
  -1   1   3   29.05    1.83
   1   0   3   32.40    1.72
   0  -1   3   35.29    1.69
   1   0   3   32.27    1.70
   0  -1   3   32.84    1.71
   1   0   3   34.64    1.70
  -1   1   3   33.61    1.68
   1   0   3   35.72    1.68
  -1   1  -3   21.20    1.15
   0  -1  -3   21.36    1.09
  -1   1  -3   22.35    1.09
  -1   1  -3   20.85    1.11
   0  -1  -3   20.84    1.10
   1   0  -3   23.76    1.20
   1   0  -3   22.64    1.13
   1  -1   3   22.57    1.16
  -1   0   3   18.74    1.13
   0   1   3   22.25    1.12
   1  -1   3   21.39    1.11
   0   1   3   22.30    1.11
   0   1   3   21.69    1.11
  -1   2  -3  241.72   11.98
  -1  -1  -3  243.29   11.99
  -1  -1  -3  246.42   11.98
  -1   2  -3  231.99   12.04
   2  -1  -3  244.61   12.19
  -1   2  -3  242.03   11.95
   2  -1  -3  237.98   11.96
  -1  -1  -3  233.93   11.98
   2  -1  -3  246.97   11.97
   1  -2   3  253.07   11.99
   1   1   3  244.36   11.99
   1   1   3  240.43   11.98
  -2   1   3  227.93   12.16
  -2   1   3  244.52   11.98
   1   1   3  236.76   11.99
   1  -2   3  240.07   12.02
   1   1   3  243.31   11.99
   3  -2  -3   16.15    0.84
   3  -2  -3   14.48    1.18
  -1   3  -3   15.47    0.81
  -1   3  -3   15.74    0.86
  -2  -1  -3   16.77    0.85
  -1   3  -3   16.65    0.90
  -2  -1  -3   15.39    0.86
  -2  -1  -3   14.67    0.86
  -2  -1  -3   15.52    0.85
   1  -3   3   16.66    0.86
   2   1   3   15.62    0.86
  -3   2   3   14.44    1.09
   2   1   3   15.72    0.87
   2   1   3   15.14    0.84
   2   1   3   17.22    0.88
   1  -3   3   15.34    0.86
   2  -2  -3  173.30   10.03
   0   2  -3  196.86    9.84
   2  -2  -3  199.91    9.80
   0   2  -3  218.35    9.85
   2  -2  -3  190.77    9.81
  -2   0  -3  194.01    9.82
   0   2  -3  188.16    9.81
   2   0   3  199.79    9.85
   0  -2   3  197.04    9.84
   2   0   3  192.44    9.82
   0  -2   3  197.92    9.84
   2   0   3  209.90    9.85
   2   0   3  208.99    9.85
   1  -2  -3  241.51   11.97
   1  -2  -3  237.42   11.97
   1   1  -3  239.60   11.96
  -2   1  -3  248.12   11.98
  -2   1  -3  247.21   11.94
   1   1  -3  237.44   11.97
  -2   1  -3  244.33   11.94
   2  -1   3  222.49   12.01
   2  -1   3  247.71   11.97
   2  -1   3  228.42   11.98
  -1  -1   3  241.36   11.97
  -1   2   3  234.84   12.10
   2  -1   3  253.78   12.00
   2  -1   3  245.09   11.94
  -1   2   3  245.96   11.96
  -1  -1   3  238.31   11.97
  -2   2  -3  340.31   16.20
   0  -2  -3  337.94   16.16
   0  -2  -3  307.44   16.17
   2   0  -3  334.97   16.16
   0   2   3  325.45   16.18
   0   2   3  322.03   16.15
   2  -2   3  302.54   16.22
  -2   0   3  336.18   16.17
   0   2   3  319.61   16.16
  -2   0   3  329.86   16.18
  -1  -2  -3   14.23    0.77
   3  -1  -3   14.50    1.01
  -2   3  -3   13.08    0.82
  -2   3  -3   14.06    0.89
  -1  -2  -3   13.19    0.78
   3  -1  -3   14.37    0.72
  -2   3  -3   14.11    0.75
   3  -1  -3   13.49    0.75
  -1  -2  -3   14.45    0.77
  -1  -2  -3   14.66    0.79
   3  -1  -3   14.19    0.77
   1   2   3   14.05    0.77
   2  -3   3   13.99    0.76
   2  -3   3   14.26    0.82
   1   2   3   13.94    0.79
  -3   1   3   14.03    0.79
   4  -2  -3    0.63    0.18
  -2  -2  -3    0.91    0.17
  -2  -2  -3    0.80    0.16
   4  -2  -3    0.61    0.43
  -2   4  -3    0.68    0.10
  -2  -2  -3    0.35    0.13
  -2   4  -3    0.41    0.21
   2  -4   3    0.52    0.16
   2  -4   3    0.75    0.17
  -4   2   3    0.54    0.16
   2   2   3    0.71    0.21
   2   2   3    0.70    0.15
  -2   5  -3   23.17    1.20
  -3  -2  -3   23.86    1.29
   5  -3  -3   19.83    1.88
   5  -3  -3   23.73    1.23
   5  -3  -3   24.16    1.26
   5  -3  -3   23.19    1.27
  -3  -2  -3   22.35    1.27
  -3  -2  -3   24.60    1.26
   3   2   3   22.49    1.30
   2  -5   3   22.07    1.28
   2  -5   3   22.56    1.28
   3   2   3   23.52    1.26
  -3  -1  -3   12.82    0.77
  -1   4  -3   15.21    0.81
   4  -3  -3   11.73    1.19
   4  -3  -3   13.03    0.75
  -1   4  -3   12.71    0.71
  -3  -1  -3   13.51    0.73
   4  -3  -3   13.09    0.72
  -3  -1  -3   12.07    0.75
  -3  -1  -3   12.96    0.75
  -1   4  -3   13.61    0.77
   1  -4   3   13.35    0.77
   3   1   3   13.40    0.76
  -4   3   3   12.08    1.07
   3   1   3   13.10    0.78
   1  -4   3   12.80    0.77
   3   1   3   12.95    0.74
   1  -4   3   12.64    0.70
   3   1   3   13.71    0.80
   3  -3  -3  167.70    8.28
  -3   0  -3  163.99    8.32
   0   3  -3  164.66    8.31
   3  -3  -3  156.53    8.58
   0   3  -3  170.01    8.31
   0   3  -3  168.99    8.28
  -3   0  -3  167.41    8.29
  -3   0  -3  171.34    8.26
   3  -3  -3  163.84    8.26
  -3   0  -3  149.06    8.29
   0  -3   3  167.78    8.27
   3   0   3  161.95    8.28
   3   0   3  176.03    8.30
   3   0   3  175.82    8.33
   0  -3   3  165.68    8.31
   3   0   3  170.15    8.33
  -3   3   3  155.15    8.65
   0  -3   3  172.24    8.31
   2  -3  -3   14.69    0.81
   1   2  -3   14.71    0.82
   1   2  -3   15.70    0.84
   2  -3  -3   16.38    0.83
  -3   1  -3   15.64    0.86
  -3   1  -3   16.17    0.80
   3  -1   3   13.63    0.86
   3  -1   3   15.63    0.87
  -2   3   3   15.83    1.06
  -1  -2   3   12.69    0.82
   3  -1   3   15.66    0.96
  -2   3   3   15.54    0.80
   3  -1   3   15.02    0.80
   3  -1   3   15.69    0.85
  -1  -2   3   15.10    0.83
   2   1  -3   13.89    0.77
   1  -3  -3   14.21    0.76
   1  -3  -3   14.31    0.78
   2   1  -3   13.89    0.76
  -3   2  -3   14.23    0.78
   2   1  -3   14.29    0.77
   3  -2   3   13.73    0.90
   3  -2   3   13.42    0.78
  -2  -1   3   13.98    0.79
  -1   3   3   14.03    0.77
  -2  -1   3   13.97    0.76
   3  -2   3   14.04    0.82
  -1   3   3   14.04    0.72
   3  -2   3   13.98    0.72
  -2  -1   3   13.62    0.75
  -1   3   3   13.83    0.76
   3  -2   3   14.40    0.74
   0  -3  -3  182.51    8.79
   0  -3  -3  178.31    8.78
   3   0  -3  172.57    8.74
  -3   3  -3  169.76    8.92
  -3   3  -3  179.46    8.78
   3   0  -3  172.06    8.76
   0  -3  -3  180.60    8.76
   3   0  -3  175.25    8.74
   3  -3   3  162.70    8.83
   0   3   3  171.06    8.76
  -3   0   3  174.82    8.79
   3  -3   3  185.37    8.75
   0   3   3  177.08    8.78
  -1  -3  -3   22.47    1.15
   4  -1  -3   20.37    1.08
  -3   4  -3   17.78    1.36
   4  -1  -3   21.14    1.46
  -3   4  -3   21.82    1.16
  -1  -3  -3   20.92    1.14
   4  -1  -3   21.70    1.13
  -1  -3  -3   20.21    1.16
   4  -1  -3   21.08    1.09
  -1  -3  -3   20.70    1.16
   4  -1  -3   21.75    1.15
   1   3   3   21.61    1.17
   3  -4   3   21.65    1.13
  -4   1   3   21.80    1.19
   3  -4   3   20.48    1.19
   1   3   3   20.77    1.14
  -2  -3  -3   13.34    0.80
   5  -2  -3   16.04    1.39
  -2  -3  -3   13.11    0.78
  -3   5  -3   13.19    1.09
  -2  -3  -3   11.63    0.78
  -2  -3  -3   12.73    0.79
  -3   5  -3   13.84    0.83
   5  -2  -3   12.33    0.79
   5  -2  -3   12.17    0.74
  -5   2   3   13.54    0.84
   2   3   3   13.04    0.77
   2   3   3   12.87    0.83
   3  -5   3   13.57    0.78
   3  -5   3   12.01    0.78
  -3  -3  -3   68.15    3.42
  -3  -3  -3   67.10    3.40
   6  -3  -3   66.03    3.35
   6  -3  -3   61.03    3.40
  -3   6  -3   62.50    3.43
   6  -3  -3   66.85    3.39
  -3  -3  -3   63.91    3.40
  -3   6  -3   62.54    3.76
   3  -6   3   67.89    3.41
   3   3   3   68.24    3.40
  -4  -3  -3    5.15    0.60
   7  -4  -3    5.51    0.56
  -4  -3  -3    5.96    0.60
  -3   7  -3    6.21    1.13
  -4  -3  -3    5.56    0.59
   7  -4  -3    5.46    0.47
   4   3   3    6.17    0.56
   4   3   3    5.80    0.61
   3  -7   3    4.78    0.57
  -4  -2  -3   43.57    2.55
   6  -4  -3   45.32    2.57
   6  -4  -3   47.69    2.53
  -4  -2  -3   46.95    2.59
  -2   6  -3   56.11    2.74
  -4  -2  -3   48.18    2.51
  -2   6  -3   51.61    2.49
   6  -4  -3   47.27    2.49
   4   2   3   49.00    2.55
   2  -6   3   49.04    2.59
   4   2   3   49.14    2.61
  -4  -1  -3   87.23    4.57
   5  -4  -3   76.98    5.03
   5  -4  -3   92.47    4.49
  -4  -1  -3   90.52    4.61
  -1   5  -3   92.03    4.53
  -4  -1  -3   93.01    4.52
   5  -4  -3   90.87    4.55
  -4  -1  -3   88.87    4.59
   5  -4  -3   91.19    4.57
  -1   5  -3   92.69    4.63
   4   1   3   91.65    4.58
   4   1   3   87.01    4.63
   4   1   3   92.48    4.63
  -5   4   3   88.10    5.03
   1  -5   3   90.48    4.61
   1  -5   3   90.64    4.52
   4   1   3   91.42    4.57
   0   4  -3  140.62    7.27
   4  -4  -3  143.92    7.62
  -4   0  -3  147.51    7.29
   0   4  -3  146.31    7.22
   4  -4  -3  140.21    7.20
   4  -4  -3  147.93    7.24
   0   4  -3  148.62    7.28
  -4   0  -3  151.47    7.24
   4   0   3  151.09    7.30
   0  -4   3  143.65    7.27
   0  -4   3  134.58    7.27
   0  -4   3  148.66    7.22
   4   0   3  144.66    7.23
   4   0   3  139.94    7.23
  -4   4   3  135.72    7.70
   1   3  -3   12.99    0.75
   3  -4  -3   13.38    0.75
  -4   1  -3   13.64    0.80
   3  -4  -3   12.96    0.74
   1   3  -3   12.31    0.78
  -4   1  -3   13.39    0.74
  -3   4   3   15.28    1.16
  -1  -3   3   13.19    0.78
  -1  -3   3   13.34    0.78
   4  -1   3   12.47    0.73
  -1  -3   3   12.99    0.74
   4  -1   3   14.01    0.77
   4  -1   3   13.69    0.80
   4  -1   3   13.33    0.99
   4  -1   3   13.67    0.82
   2   2  -3    0.62    0.15
   2  -4  -3    0.49    0.15
   2   2  -3    0.27    0.12
   2   2  -3    0.64    0.16
   2  -4  -3    0.59    0.16
   4  -2   3    0.52    0.11
  -2   4   3    0.57    0.24
  -2  -2   3    0.87    0.19
   4  -2   3    0.85    0.20
   4  -2   3    0.41    0.32
  -2  -2   3    0.38    0.11
   4  -2   3    0.54    0.17
   1  -4  -3   22.21    1.13
   1  -4  -3   22.25    1.18
   3   1  -3   20.35    1.13
   1  -4  -3   19.69    1.15
   3   1  -3   22.43    1.15
  -4   3  -3   20.91    1.15
   3   1  -3   20.70    1.14
   4  -3   3   20.26    1.18
  -3  -1   3   21.78    1.12
  -1   4   3   21.44    1.16
   4  -3   3   20.58    1.22
  -3  -1   3   21.08    1.19
   4  -3   3   22.36    1.11
   4  -3   3   21.52    1.07
   4  -3   3   20.40    1.27
  -1   4   3   19.70    1.13
  -3  -1   3   20.60    1.11
   4   0  -3   80.44    4.26
   0  -4  -3   83.56    4.29
  -4   4  -3   81.30    4.25
   0  -4  -3   81.28    4.29
   4   0  -3   85.80    4.23
   4   0  -3   94.77    4.58
   4   0  -3   81.42    4.23
   0  -4  -3   82.11    4.25
   4  -4   3   85.54    4.23
   0   4   3   91.24    4.30
  -4   0   3   82.30    4.31
   4  -4   3   77.67    4.36
   0   4   3   84.45    4.26
  -4   5  -3   84.59    4.87
  -1  -4  -3   86.93    4.53
  -4   5  -3   87.98    4.48
  -1  -4  -3   88.91    4.50
  -1  -4  -3   86.97    4.49
   5  -1  -3   86.95    4.92
   5  -1  -3   88.56    4.44
   5  -1  -3   86.84    4.51
   5  -1  -3   87.65    4.43
  -1  -4  -3   87.77    4.52
   5  -1  -3   90.72    4.49
  -5   1   3   94.70    4.57
   1   4   3   89.82    4.49
   4  -5   3   88.31    4.52
   4  -5   3   87.83    4.48
  -2  -4  -3   88.89    4.37
   6  -2  -3   89.09    4.33
   6  -2  -3   86.52    4.25
   6  -2  -3   86.50    4.25
   6  -2  -3   86.58    4.38
  -4   6  -3   71.26    4.73
  -4   6  -3   86.31    4.32
   4  -6   3   82.66    4.35
   2   4   3   84.74    4.35
  -6   2   3   85.15    4.44
   4  -6   3   84.07    4.35
  -3  -4  -3    6.60    0.61
  -4   7  -3    5.94    1.29
   7  -3  -3    5.30    0.59
  -3  -4  -3    6.01    0.59
   7  -3  -3    6.62    0.54
   4  -7   3    6.82    0.61
   3   4   3    6.77    0.59
   3   4   3    6.51    0.62
   8  -4  -3   -0.06    0.29
  -4  -4  -3    0.35    0.41
  -4  -4  -3    0.67    0.39
   8  -4  -3   -0.28    0.39
  -4   8  -3    0.80    1.11
   4   4   3   -0.07    0.37
   4   4   3    0.23    0.34
   4  -8   3    0.55    0.38
  -3   8  -3    5.21    1.67
  -5  -3  -3    5.02    0.75
   5   3   3    4.73    0.77
   5   3   3    3.60    0.68
   3  -8   3    6.18    0.78
  -5  -2  -3   44.54    2.54
  -5  -2  -3   46.40    2.58
   7  -5  -3   47.44    2.55
  -2   7  -3   47.85    2.47
   7  -5  -3   46.19    2.43
   2  -7   3   47.52    2.58
   5   2   3   48.37    2.53
   5   2   3   47.71    2.60
   6  -5  -3    9.27    0.54
  -5  -1  -3    9.32    0.70
  -1   6  -3    8.85    0.82
  -1   6  -3    8.70    0.60
   6  -5  -3    9.39    0.55
   6  -5  -3    7.93    0.74
   6  -5  -3    7.71    0.66
   5   1   3    9.30    0.64
   5   1   3    9.04    0.71
   1  -6   3    9.09    0.64
   1  -6   3    8.89    0.69
  -6   5   3    9.29    1.25
   5  -5  -3    9.59    0.63
   5  -5  -3    9.38    0.65
  -5   0  -3    8.11    0.64
   0   5  -3    9.06    0.58
   5  -5  -3    8.53    0.54
   0   5  -3    8.43    0.68
   5   0   3    9.44    0.62
  -5   5   3    8.58    1.17
   5   0   3    8.41    0.65
   0  -5   3    9.52    0.60
   5   0   3   10.09    0.60
   0  -5   3    6.96    0.61
  -5   1  -3   90.82    4.60
   1   4  -3   95.81    4.61
   4  -5  -3   92.88    4.58
   4  -5  -3   93.52    4.63
   1   4  -3   93.96    4.66
   1   4  -3   92.74    4.66
  -5   1  -3   89.79    4.67
   4  -5  -3   92.09    4.59
  -1  -4   3   90.46    4.65
   5  -1   3   84.21    4.92
  -4   5   3   85.37    5.16
  -1  -4   3   86.92    4.64
  -1  -4   3   87.92    4.59
   5  -1   3   93.68    4.67
   5  -1   3   89.13    4.59
   5  -1   3   93.19    4.59
   3  -5  -3   24.00    1.22
   2   3  -3   23.59    1.26
   3  -5  -3   23.66    1.27
   3  -5  -3   22.80    1.25
   2   3  -3   22.74    1.28
  -2  -3   3   23.71    1.32
  -2  -3   3   22.88    1.26
   5  -2   3   21.56    1.26
  -3   5   3   20.91    1.61
   5  -2   3   22.86    1.20
   5  -2   3   22.88    1.29
  -2  -3   3   22.22    1.25
  -2  -3   3   24.61    1.27
   5  -2   3   20.53    1.62
   2  -5  -3   12.66    0.82
   3   2  -3   13.03    0.79
   3   2  -3   12.80    0.78
   3   2  -3   13.85    0.81
   2  -5  -3   13.08    0.78
   2  -5  -3   12.52    0.75
   5  -3   3   12.74    0.74
   5  -3   3   12.27    0.70
   5  -3   3   12.45    0.88
   5  -3   3   15.33    1.14
  -3  -2   3   13.01    0.76
  -3  -2   3   12.56    0.83
  -2   5   3   15.23    1.10
  -3  -2   3   12.84    0.76
   5  -3   3   13.44    0.81
   4   1  -3   89.20    4.54
   1  -5  -3   91.02    4.57
   1  -5  -3   90.23    4.52
   4   1  -3   88.06    4.53
   4   1  -3   89.64    4.54
   1  -5  -3   84.96    4.58
  -4  -1   3   89.78    4.48
   5  -4   3   93.67    4.49
   5  -4   3   89.58    4.69
   5  -4   3   89.43    4.61
   5  -4   3   82.30    4.62
  -1   5   3   89.79    4.56
  -1   5   3   93.99    4.51
  -4  -1   3   89.78    4.60
  -4  -1   3   88.47    4.48
  -1   5   3   87.21    4.53
   0  -5  -3    6.55    0.58
   0  -5  -3    7.49    0.52
   5   0  -3    7.17    0.52
   5   0  -3    7.33    0.52
  -5   5  -3    7.95    0.83
   5   0  -3    7.26    0.49
  -5   5  -3    6.71    0.51
   0   5   3    7.44    0.51
   5  -5   3    7.22    0.51
   5  -5   3    5.59    0.65
  -5   0   3    7.74    0.61
   6  -1  -3    6.97    0.48
  -1  -5  -3    6.81    0.59
  -1  -5  -3    6.63    0.56
  -5   6  -3    6.92    1.07
  -5   6  -3    6.98    0.53
   6  -1  -3    7.25    0.54
   6  -1  -3    7.35    0.55
  -6   1   3    5.89    0.65
   1   5   3    6.84    0.54
   5  -6   3    7.48    0.56
   5  -6   3    7.44    0.54
   5  -6   3    6.91    0.62
  -2  -5  -3   50.73    2.69
   7  -2  -3   48.68    2.65
  -2  -5  -3   51.08    2.67
  -5   7  -3   43.78    3.26
   7  -2  -3   48.44    2.61
   7  -2  -3   49.45    2.69
   5  -7   3   50.77    2.65
  -7   2   3   51.22    2.80
   2   5   3   49.30    2.64
  -3  -5  -3    8.07    0.80
  -5   8  -3    5.93    1.87
   8  -3  -3    7.67    0.69
   8  -3  -3    7.99    0.81
  -3  -5  -3    7.91    0.85
   3   5   3    7.66    0.83
   3   5   3    6.61    0.78
   5  -8   3    7.70    0.82
  -1   7  -3    6.07    0.61
  -6  -1  -3    6.50    0.72
   6   1   3    6.61    0.73
   6   1   3    6.73    0.64
  -7   6   3    6.26    1.40
   1  -7   3    6.98    0.74
   6  -6  -3    0.10    0.19
   0   6  -3    0.10    0.23
  -6   0  -3    0.38    0.31
   0  -6   3    0.18    0.26
  -6   6   3   -0.03    0.73
   6   0   3    0.02    0.26
   6   0   3   -0.15    0.21
  -6   1  -3    9.20    0.72
   5  -6  -3    8.96    0.60
   5  -6  -3    9.19    0.59
   5  -6  -3    7.96    0.71
   5  -6  -3    8.80    0.71
   1   5  -3    8.26    0.62
   6  -1   3    9.34    0.66
  -1  -5   3    8.75    0.68
   6  -1   3    8.41    0.60
   6  -1   3    8.65    1.43
   6  -1   3    9.59    0.70
  -5   6   3    8.25    1.38
   4  -6  -3   47.82    2.58
   4  -6  -3   47.15    2.49
   4  -6  -3   50.21    2.56
   2   4  -3   46.02    2.60
  -2  -4   3   46.68    2.58
   6  -2   3   45.56    2.60
   6  -2   3   48.29    2.51
  -4   6   3   55.92    3.25
  -2  -4   3   48.53    2.64
   6  -2   3   51.69    2.53
   3  -6  -3   67.52    3.39
   3  -6  -3   69.01    3.33
   3   3  -3   66.55    3.41
   3   3  -3   66.96    3.38
   6  -3   3   61.65    3.87
   6  -3   3   65.87    3.30
  -3  -3   3   66.97    3.37
  -3  -3   3   67.67    3.45
  -3  -3   3   61.92    3.36
   6  -3   3   55.27    3.36
   6  -3   3   66.00    3.41
  -3   6   3   66.14    3.83
   2  -6  -3   88.40    4.33
   4   2  -3   90.34    4.37
   4   2  -3   84.34    4.37
   2  -6  -3   86.19    4.39
   6  -4   3   88.36    4.26
  -2   6   3   79.41    4.71
   6  -4   3   77.43    4.29
  -4  -2   3   87.84    4.44
   6  -4   3   82.75    4.41
  -4  -2   3   85.06    4.32
   6  -4   3   80.76    4.61
  -4  -2   3   89.13    4.32
   1  -6  -3    6.01    0.62
   1  -6  -3    7.86    0.62
   5   1  -3    7.37    0.56
   5   1  -3    6.84    0.65
   5   1  -3    6.81    0.55
  -1   6   3    7.12    0.60
  -1   6   3    7.18    0.56
  -5  -1   3    8.00    0.67
   6  -5   3    8.06    0.79
   6  -5   3    6.66    0.54
   0  -6  -3   -0.29    0.23
   6   0  -3   -0.01    0.21
   6   0  -3    0.03    0.29
  -6   6  -3    0.01    0.51
   6   0  -3    0.28    0.19
   0  -6  -3    0.32    0.27
  -6   0   3    0.31    0.34
   0   6   3    0.34    0.23
   6  -6   3   -0.38    0.34
   6  -6   3    0.47    0.32
   6  -6   3    0.09    0.21
  -1  -6  -3   12.11    0.86
  -1  -6  -3   11.97    0.91
   7  -1  -3   11.11    0.91
   7  -1  -3   11.60    0.83
  -6   7  -3   11.44    1.42
   1   6   3   10.79    0.84
  -7   1   3   12.97    1.05
   1   6   3   12.10    0.84
   6  -7   3    9.20    0.80
   0   7  -3   10.70    0.90
  -7   0  -3   11.65    1.07
  -7   7   3   12.49    1.98
   7   0   3   12.01    0.91
   0  -7   3   11.73    1.01
   7   0   3   11.91    1.04
   6  -7  -3    7.11    0.63
  -7   1  -3    5.63    0.79
   1   6  -3    5.88    0.65
  -1  -6   3    6.82    0.72
  -6   7   3    6.62    1.69
  -1  -6   3    6.85    0.79
   7  -1   3    6.59    0.74
   7  -1   3    7.94    0.62
   5  -7  -3   42.43    2.45
   2   5  -3   46.81    2.47
   7  -2   3   45.94    2.54
  -5   7   3   45.06    3.34
  -2  -5   3   46.75    2.57
  -2  -5   3   45.98    2.51
   7  -2   3   48.67    2.43
   3   4  -3    5.55    0.54
   4  -7  -3    4.66    0.55
  -3  -4   3    5.10    0.56
   7  -3   3    2.39    1.46
   7  -3   3    4.95    0.57
  -3  -4   3    5.84    0.66
   7  -3   3    5.65    0.44
  -4   7   3    5.35    1.27
   3  -7  -3    6.36    0.61
   4   3  -3    7.22    0.62
   4   3  -3    7.02    0.61
   7  -4   3    6.41    0.45
  -4  -3   3    7.00    0.69
  -4  -3   3    6.53    0.58
  -3   7   3    6.40    1.15
   7  -4   3    6.32    1.50
   7  -4   3    6.57    0.70
   5   2  -3   49.24    2.67
   5   2  -3   49.12    2.68
   2  -7  -3   50.41    2.72
  -5  -2   3   49.85    2.76
  -2   7   3   48.90    3.14
   7  -5   3   51.55    2.82
   1  -7  -3   12.18    0.92
   6   1  -3   11.66    0.84
  -6  -1   3   10.71    0.98
  -1   7   3   11.94    0.84
  -1   7   3    8.86    0.82
   7  -6   3   11.18    1.14
   7   0  -3    5.56    0.68
   0  -7  -3    6.10    0.69
   0  -7  -3    6.58    0.83
   7   0  -3    5.71    0.79
  -7   7  -3    7.49    1.13
  -7   0   3    4.83    0.94
   0   7   3    6.45    0.73
   5  -8  -3    4.82    0.71
   3   5  -3    5.95    0.69
   8  -3   3    4.61    0.56
  -5   8   3    4.88    1.56
   8  -3   3    5.04    0.76
  -3  -5   3    4.99    0.74
  -3  -5   3    3.19    0.82
   4  -8  -3   -0.12    0.37
   4   4  -3    0.30    0.34
  -4  -4   3    0.20    0.45
  -4   8   3    0.03    1.04
   8  -4   3    0.26    0.45
  -4  -4   3   -0.11    0.36
   3  -8  -3    7.54    0.84
   5   3  -3    9.73    0.84
  -3   8   3    6.10    1.60
   8  -5   3    8.12    1.03
  -5  -3   3    8.08    0.94
   0   0  -4   90.67    4.39
   0   0  -4   88.54    4.41
   0   0  -4   83.27    4.38
   0   0   4   87.05    4.38
   0   0   4   84.30    4.40
   0   1  -4  363.13   17.02
  -1   0  -4  325.59   17.06
   1  -1  -4  343.83   17.02
   0   1  -4  349.53   17.04
   1  -1  -4  332.29   17.18
   1  -1  -4  364.97   17.01
   1   0   4  361.99   17.02
   1   0   4  326.05   17.05
  -1   1   4  317.74   17.18
   0  -1  -4  287.48   14.07
  -1   1  -4  284.57   14.05
   0  -1  -4  268.11   14.07
  -1   1  -4  285.72   14.07
   1   0  -4  304.23   14.17
   1   0  -4  268.33   14.09
  -1   1  -4  275.34   14.12
   1  -1   4  284.78   14.13
   1  -1   4  276.10   14.07
   0   1   4  281.11   14.06
   0   1   4  284.59   14.07
   0   1   4  296.44   14.08
  -1   0   4  279.30   14.10
   0   1   4  290.10   14.14
  -1   2  -4    6.86    0.46
   2  -1  -4    6.78    0.35
  -1   2  -4    6.02    0.33
  -1  -1  -4    5.85    0.36
  -1   2  -4    5.99    0.37
   2  -1  -4    6.36    0.37
  -1  -1  -4    6.45    0.37
   2  -1  -4    6.06    0.56
  -1  -1  -4    5.89    0.38
  -2   1   4    6.21    0.36
  -2   1   4    5.77    0.53
   1   1   4    6.12    0.38
   1   1   4    6.00    0.37
   1   1   4    6.37    0.37
   1  -2   4    6.02    0.42
   1  -2   4    6.32    0.37
   1   1   4    5.70    0.36
   3  -2  -4  237.05   11.49
   3  -2  -4  228.09   11.88
  -1   3  -4  229.16   11.47
  -2  -1  -4  232.94   11.53
  -1   3  -4  232.75   11.57
   3  -2  -4  230.97   11.47
  -2  -1  -4  226.91   11.52
  -2  -1  -4  234.26   11.51
  -2  -1  -4  239.35   11.51
  -1   3  -4  226.13   11.52
   2   1   4  231.41   11.53
  -3   2   4  226.53   11.53
   2   1   4  243.28   11.54
  -3   2   4  213.18   11.80
   1  -3   4  238.40   11.52
   2   1   4  231.75   11.53
   2   1   4  227.42   11.51
  -2   0  -4   58.69    3.06
   0   2  -4   60.43    3.04
   2  -2  -4   59.21    3.02
   2  -2  -4   60.16    3.04
   0   2  -4   60.25    3.08
   0   2  -4   63.66    3.07
  -2   0  -4   55.57    3.10
   2  -2  -4   61.63    3.02
  -2   0  -4   63.52    3.05
   2  -2  -4   51.82    3.27
   0  -2   4   62.64    3.07
   2   0   4   60.80    3.08
   2   0   4   62.83    3.08
   2   0   4   62.43    3.04
  -2   2   4   61.81    3.02
   2   0   4   61.79    3.09
   1   1  -4    6.00    0.36
   1  -2  -4    5.99    0.36
   1   1  -4    6.14    0.37
  -2   1  -4    6.23    0.36
   1  -2  -4    6.42    0.39
   1   1  -4    6.58    0.38
  -2   1  -4    6.01    0.34
  -2   1  -4    6.42    0.39
  -1   2   4    5.99    0.36
  -1   2   4    6.33    0.50
   2  -1   4    5.73    0.39
  -1   2   4    6.07    0.35
  -1  -1   4    5.99    0.37
   2  -1   4    6.73    0.41
   2  -1   4    5.85    0.38
  -1  -1   4    6.20    0.37
   2  -1   4    5.99    0.40
   2   0  -4   54.42    2.75
  -2   2  -4   54.25    2.73
  -2   2  -4   53.08    2.78
   0  -2  -4   50.78    2.72
   0  -2  -4   56.09    2.75
  -2   0   4   53.64    2.76
  -2   0   4   57.48    2.72
   2  -2   4   54.82    2.74
   2  -2   4   49.25    2.81
   0   2   4   58.39    2.76
   0   2   4   54.13    2.73
   3  -1  -4  209.13    9.30
  -1  -2  -4  177.87    8.99
  -2   3  -4  170.15    9.07
  -2   3  -4  178.98    8.99
  -2   3  -4  176.25    9.10
  -1  -2  -4  186.74    9.00
   3  -1  -4  180.24    9.00
   3  -1  -4  181.30    8.99
  -1  -2  -4  183.15    9.01
   1   2   4  192.87    9.02
   2  -3   4  168.82    9.06
   1   2   4  180.17    9.00
  -3   1   4  182.19    9.01
   2  -3   4  160.45    8.99
   1   2   4  176.63    8.99
  -2  -2  -4   41.59    2.13
  -2   4  -4   39.81    2.23
   4  -2  -4   42.25    2.12
   4  -2  -4   39.42    2.55
  -2  -2  -4   40.84    2.14
  -2  -2  -4   40.17    2.13
  -2  -2  -4   43.74    2.14
  -2   4  -4   40.59    2.12
  -4   2   4   39.71    2.16
   2   2   4   40.28    2.12
   2  -4   4   41.35    2.13
   2   2   4   40.74    2.15
   2  -4   4   42.11    2.15
   2   2   4   39.95    2.14
   5  -3  -4  142.17    8.15
  -2   5  -4  154.47    7.50
  -3  -2  -4  161.10    7.56
   5  -3  -4  153.33    7.55
  -3  -2  -4  153.96    7.58
   5  -3  -4  156.24    7.56
  -3  -2  -4  150.48    7.58
  -2   5  -4  137.07    7.67
   3   2   4  146.53    7.59
   2  -5   4  147.10    7.59
   3   2   4  151.14    7.56
   2  -5   4  149.43    7.58
   3   2   4  151.52    7.60
  -3  -1  -4  142.59    7.09
  -3  -1  -4  150.88    7.08
   4  -3  -4  140.79    7.55
  -1   4  -4  138.34    7.10
  -1   4  -4  157.33    7.16
   4  -3  -4  137.99    7.05
  -3  -1  -4  135.82    7.11
   4  -3  -4  144.84    7.07
  -3  -1  -4  134.52    7.10
  -1   4  -4  137.55    7.04
   4  -3  -4  147.40    7.03
   3   1   4  142.53    7.12
   3   1   4  144.13    7.11
  -4   3   4  122.08    7.43
   3   1   4  138.50    7.08
   3   1   4  146.10    7.14
   1  -4   4  142.19    7.11
   1  -4   4  139.23    7.11
  -3   0  -4    4.95    0.36
  -3   0  -4    5.05    0.34
   0   3  -4    5.85    0.39
  -3   0  -4    5.09    0.31
  -3   0  -4    5.20    0.39
   0   3  -4    4.97    0.32
   3  -3  -4    4.98    0.31
   3  -3  -4    4.21    0.65
   3  -3  -4    5.30    0.33
   0   3  -4    5.25    0.37
   3   0   4    5.47    0.38
   3   0   4    5.14    0.40
   3   0   4    4.89    0.37
   0  -3   4    4.93    0.37
   0  -3   4    5.10    0.37
   3   0   4    5.09    0.33
  -3   3   4    5.54    0.68
  -3   1  -4  236.10   11.46
   1   2  -4  227.67   11.51
   2  -3  -4  222.39   11.50
   2  -3  -4  246.74   11.53
  -3   1  -4  242.21   11.49
   1   2  -4  227.55   11.53
  -2   3   4  227.51   11.49
   3  -1   4  231.94   11.57
  -2   3   4  221.87   11.77
   3  -1   4  224.51   11.49
  -1  -2   4  241.19   11.53
   3  -1   4  226.72   11.54
  -1  -2   4  217.36   11.52
   3  -1   4  243.73   11.57
  -3   2  -4  181.45    9.10
   2   1  -4  175.16    9.14
   1  -3  -4  180.78    9.14
   1  -3  -4  181.38    9.16
   2   1  -4  176.00    9.15
  -3   2  -4  181.66    9.17
   3  -2   4  179.80    9.13
  -2  -1   4  179.65    9.14
  -2  -1   4  181.16    9.18
   3  -2   4  199.35    9.22
   3  -2   4  184.89    9.10
  -1   3   4  187.73    9.16
  -1   3   4  185.65    9.10
  -1   3   4  183.51    9.15
  -1   3   4  184.10    9.33
   3  -2   4  192.92    9.22
   3  -2   4  186.21    9.18
  -2  -1   4  179.04    9.13
   0  -3  -4    7.74    0.46
  -3   3  -4    8.02    0.51
   0  -3  -4    7.46    0.49
  -3   3  -4    7.24    0.58
   3   0  -4    8.00    0.48
   0  -3  -4    8.33    0.48
   3   0  -4    8.57    0.69
   3   0  -4    7.90    0.46
   0   3   4    7.89    0.51
   0   3   4    7.77    0.48
   3  -3   4    8.08    0.47
   0   3   4    7.67    0.46
  -3   0   4    8.00    0.51
   3  -3   4    7.08    0.57
  -1  -3  -4  187.92    8.89
   4  -1  -4  173.94    8.85
  -3   4  -4  164.57    9.06
   4  -1  -4  175.34    9.18
  -1  -3  -4  168.40    8.88
  -3   4  -4  183.83    8.91
  -1  -3  -4  186.87    8.86
   4  -1  -4  176.62    8.82
   4  -1  -4  186.70    8.87
  -1  -3  -4  175.13    8.85
   3  -4   4  183.49    8.85
  -4   1   4  178.53    8.90
   1   3   4  170.08    8.85
   3  -4   4  166.11    8.92
   1   3   4  180.72    8.89
   1   3   4  174.28    8.86
  -2  -3  -4  119.60    6.22
  -3   5  -4  127.91    6.27
  -2  -3  -4  125.10    6.22
   5  -2  -4  128.36    6.76
   5  -2  -4  122.95    6.19
   5  -2  -4  124.82    6.21
  -3   5  -4  113.75    6.46
  -2  -3  -4  121.78    6.21
   3  -5   4  127.60    6.22
   2   3   4  118.34    6.21
   2   3   4  124.43    6.20
   2   3   4  117.61    6.23
   3  -5   4  120.40    6.20
   3  -5   4  126.47    6.22
  -5   2   4  124.47    6.27
  -3  -3  -4    3.61    0.46
  -3  -3  -4    3.94    0.42
  -3   6  -4    4.18    0.81
   6  -3  -4    4.30    0.40
  -3  -3  -4    3.91    0.43
   6  -3  -4    3.72    0.51
   6  -3  -4    3.63    0.36
  -3   6  -4    4.05    0.62
   3  -6   4    4.22    0.43
   3   3   4    3.45    0.39
   3   3   4    3.32    0.42
  -4  -3  -4   68.21    3.55
  -3   7  -4   60.37    3.98
  -4  -3  -4   67.45    3.54
   7  -4  -4   68.54    3.46
   7  -4  -4   68.94    3.52
   4   3   4   67.79    3.57
   3  -7   4   68.17    3.56
   4   3   4   67.40    3.51
   6  -4  -4   12.13    0.86
  -4  -2  -4   13.49    0.79
  -2   6  -4   12.45    0.73
   6  -4  -4   12.01    0.75
  -4  -2  -4   12.75    0.85
   6  -4  -4   13.22    0.79
  -4  -2  -4   12.79    0.84
   2  -6   4   12.56    0.84
   4   2   4   12.89    0.86
   4   2   4   12.44    0.80
  -1   5  -4    6.09    0.49
  -1   5  -4    6.01    0.58
   5  -4  -4    6.52    0.47
  -1   5  -4    5.77    0.41
  -4  -1  -4    6.55    0.49
   5  -4  -4    5.44    1.19
  -4  -1  -4    6.89    0.56
  -4  -1  -4    6.14    0.41
   5  -4  -4    6.35    0.42
   5  -4  -4    6.34    0.38
   1  -5   4    5.97    0.49
  -5   4   4    5.87    0.92
   4   1   4    5.31    0.49
   4   1   4    6.14    0.51
   4   1   4    6.08    0.44
  -4   0  -4   14.49    0.88
  -4   0  -4   15.89    0.92
   4  -4  -4   14.53    0.86
   0   4  -4   15.86    0.92
   4  -4  -4   14.33    1.30
   4  -4  -4   15.72    0.84
   0   4  -4   16.16    0.86
   0   4  -4   15.60    0.93
   0  -4   4   16.57    0.92
   4   0   4   16.54    0.90
   4   0   4   16.17    0.93
   4   0   4   15.13    0.96
  -4   4   4   14.01    1.31
   4   0   4   15.68    0.87
  -4   1  -4  136.19    7.17
   3  -4  -4  134.99    7.11
   3  -4  -4  142.43    7.13
   1   3  -4  134.27    7.16
   1   3  -4  151.31    7.17
   1   3  -4  136.54    7.12
  -4   1  -4  145.07    7.11
   4  -1   4  142.99    7.17
   4  -1   4  144.52    7.19
  -1  -3   4  142.34    7.15
  -1  -3   4  135.26    7.15
   4  -1   4  155.38    7.16
  -3   4   4  152.82    7.58
   4  -1   4  136.94    7.10
   2   2  -4   40.86    2.12
   2   2  -4   40.32    2.10
  -4   2  -4   41.56    2.06
   2  -4  -4   40.89    2.09
   2  -4  -4   40.72    2.11
   4  -2   4   40.55    2.18
   4  -2   4   41.95    2.14
  -2  -2   4   41.12    2.15
   4  -2   4   39.54    2.31
  -2   4   4   40.72    2.37
  -2  -2   4   40.56    2.10
   4  -2   4   39.85    2.14
  -2  -2   4   39.38    2.10
  -2   4   4   40.52    2.09
   4  -2   4   40.09    2.06
   1  -4  -4  173.91    8.93
  -4   3  -4  180.45    8.93
   1  -4  -4  184.87    8.91
   3   1  -4  182.87    8.92
   3   1  -4  177.90    8.92
   4  -3   4  167.12    8.99
  -1   4   4  168.89    8.91
  -3  -1   4  184.65    8.90
  -3  -1   4  177.86    8.89
  -3  -1   4  179.77    8.97
   4  -3   4  174.48    8.99
   4  -3   4  170.82    8.96
  -1   4   4  177.26    8.87
   4  -3   4  189.56    8.89
  -1   4   4  182.81    8.93
   0  -4  -4   20.57    1.16
  -4   4  -4   18.58    1.27
   4   0  -4   19.83    1.11
  -4   4  -4   20.98    1.15
   4   0  -4   20.87    1.12
   4   0  -4   20.77    1.14
   4   0  -4   20.69    1.43
   0  -4  -4   21.80    1.19
   0  -4  -4   21.41    1.14
   0  -4  -4   20.72    1.13
   0   4   4   20.85    1.18
  -4   0   4   21.91    1.20
   4  -4   4   18.19    1.24
   4  -4   4   22.42    1.13
   0   4   4   21.21    1.14
   0   4   4   19.99    1.11
   5  -1  -4    4.09    0.30
  -1  -4  -4    4.27    0.36
   5  -1  -4    4.01    0.97
  -1  -4  -4    3.46    0.42
  -4   5  -4    3.87    0.40
  -1  -4  -4    4.13    0.39
  -4   5  -4    5.72    0.78
   5  -1  -4    3.71    0.34
   1   4   4    4.10    0.36
   1   4   4    3.32    0.35
   4  -5   4    3.93    0.39
   4  -5   4    3.85    0.46
  -5   1   4    3.67    0.44
  -4   6  -4    8.30    0.67
  -4   6  -4    9.87    1.13
  -2  -4  -4    8.63    0.65
  -2  -4  -4    9.22    0.64
   6  -2  -4    8.79    0.60
   6  -2  -4    8.34    0.51
   2   4   4    8.86    0.62
   4  -6   4    8.58    0.63
   2   4   4    8.41    0.63
   7  -3  -4   43.47    2.65
  -3  -4  -4   48.60    2.67
  -3  -4  -4   49.90    2.67
  -4   7  -4   53.48    3.29
   7  -3  -4   49.44    2.61
   3   4   4   49.18    2.68
   4  -7   4   52.19    2.68
   3   4   4   51.00    2.65
  -4   8  -4   11.01    1.89
   8  -4  -4   10.09    0.92
   8  -4  -4   10.41    0.80
  -4  -4  -4    9.94    0.94
  -4  -4  -4   10.48    0.92
   4  -8   4   10.36    0.94
   4   4   4    9.72    0.89
   4   4   4   11.73    0.95
  -5  -3  -4   34.33    2.08
  -3   8  -4   36.35    2.86
   3  -8   4   35.03    2.10
   5   3   4   35.77    2.03
   5   3   4   35.25    2.11
   7  -5  -4    2.02    0.36
  -2   7  -4    3.71    0.44
  -5  -2  -4    2.66    0.52
  -5  -2  -4    2.59    0.70
   7  -5  -4    2.69    0.45
   5   2   4    3.00    0.46
   5   2   4    2.48    0.55
   2  -7   4    2.53    0.52
  -5  -1  -4   81.41    4.11
   6  -5  -4   81.58    3.96
   6  -5  -4   75.88    4.04
  -1   6  -4   77.83    3.99
   5   1   4   77.36    4.03
  -6   5   4   76.51    4.64
   5   1   4   80.04    4.12
   1  -6   4   77.08    4.10
   0   5  -4   80.33    4.04
   0   5  -4   79.88    4.11
   5  -5  -4   78.02    4.08
  -5   0  -4   80.84    4.12
   0   5  -4   78.25    4.12
   5  -5  -4   77.28    4.01
   5  -5  -4   78.42    4.05
   5   0   4   80.11    4.13
   5   0   4   79.61    4.05
   0  -5   4   83.09    4.12
   5   0   4   79.95    4.07
  -5   5   4   76.83    4.66
   4  -5  -4    6.49    0.46
  -5   1  -4    6.29    0.45
  -5   1  -4    6.73    0.52
   1   4  -4    6.16    0.43
   1   4  -4    5.34    0.53
   1   4  -4    5.77    0.48
   4  -5  -4    5.55    0.41
   4  -5  -4    6.38    0.47
   5  -1   4    5.73    0.49
  -4   5   4    5.70    0.97
  -1  -4   4    5.68    0.47
  -1  -4   4    5.67    0.53
   5  -1   4    5.39    0.83
   5  -1   4    5.62    0.40
   5  -1   4    6.09    0.48
   3  -5  -4  155.63    7.50
   3  -5  -4  148.89    7.52
   2   3  -4  153.07    7.56
   2   3  -4  150.90    7.53
  -2  -3   4  151.21    7.54
   5  -2   4  151.31    7.58
  -2  -3   4  157.51    7.54
  -3   5   4  147.59    7.94
   5  -2   4  147.67    7.48
   5  -2   4  135.07    7.54
  -2  -3   4  155.62    7.60
   5  -2   4  142.45    7.83
   2  -5  -4  123.54    6.33
   2  -5  -4  123.72    6.29
   2  -5  -4  123.07    6.34
   3   2  -4  122.28    6.32
   3   2  -4  129.13    6.34
   5  -3   4  132.09    6.54
   5  -3   4  121.64    6.30
   5  -3   4  118.01    6.45
  -3  -2   4  124.21    6.30
  -3  -2   4  125.30    6.38
  -2   5   4  130.46    6.66
   5  -3   4  123.75    6.24
  -3  -2   4  123.07    6.30
   5  -3   4  125.24    6.36
  -2   5   4  133.33    6.32
   4   1  -4    4.09    0.35
   4   1  -4    4.11    0.37
   1  -5  -4    3.29    0.40
   1  -5  -4    3.82    0.47
   1  -5  -4    4.38    0.40
  -4  -1   4    3.87    0.43
   5  -4   4    3.75    0.62
  -1   5   4    4.29    0.36
  -1   5   4    3.93    0.44
  -1   5   4    3.78    0.30
   5  -4   4    4.35    0.35
   5  -4   4    4.30    0.47
   5   0  -4   85.72    5.14
   0  -5  -4  105.50    5.15
  -5   5  -4  102.36    5.34
   0  -5  -4   93.76    5.15
  -5   5  -4  102.78    5.15
   0  -5  -4  104.39    5.20
   5   0  -4  106.30    5.14
   0   5   4  101.27    5.16
   5  -5   4  110.05    5.14
   5  -5   4   99.42    5.28
   0   5   4  101.44    5.13
  -5   0   4  103.87    5.24
   6  -1  -4   61.13    3.23
  -1  -5  -4   63.24    3.28
  -5   6  -4   68.76    3.64
   6  -1  -4   60.92    3.17
  -1  -5  -4   61.52    3.24
  -5   6  -4   59.40    3.21
   5  -6   4   58.17    3.23
   1   5   4   59.83    3.22
   1   5   4   61.28    3.24
   5  -6   4   63.16    3.27
   5  -6   4   65.10    3.24
  -6   1   4   62.93    3.34
  -5   7  -4    5.84    1.32
  -2  -5  -4    4.09    0.56
   7  -2  -4    5.46    0.52
  -2  -5  -4    4.44    0.61
   7  -2  -4    3.87    0.58
   2   5   4    5.31    0.55
   5  -7   4    4.88    0.56
  -7   2   4    5.11    0.75
   2   5   4    5.41    0.57
  -3  -5  -4   45.96    2.54
  -5   8  -4   42.55    3.31
   8  -3  -4   45.03    2.43
  -3  -5  -4   46.31    2.51
   8  -3  -4   44.85    2.53
   5  -8   4   45.61    2.52
   3   5   4   45.54    2.53
   3   5   4   43.12    2.49
  -6  -1  -4   51.17    2.79
  -1   7  -4   52.91    2.67
   7  -6  -4   46.39    2.74
   6   1   4   52.32    2.71
  -7   6   4   51.17    3.49
   1  -7   4   47.17    2.77
   6   1   4   51.64    2.80
   6  -6  -4   15.41    1.06
   6  -6  -4   14.88    0.89
  -6   0  -4   13.72    1.03
   0   6  -4   15.65    0.95
   0  -6   4   16.01    1.04
   6   0   4   15.32    1.04
  -6   6   4   14.21    1.69
   6   0   4   15.42    0.95
   5  -6  -4   78.34    4.02
   5  -6  -4   78.06    3.98
   5  -6  -4   75.11    4.02
   1   5  -4   78.82    4.08
   1   5  -4   75.58    4.01
   5  -6  -4   78.77    3.99
  -6   1  -4   80.67    4.11
   6  -1   4   81.31    4.11
   6  -1   4   79.94    4.00
  -5   6   4   77.20    4.74
   6  -1   4   74.57    4.01
  -1  -5   4   79.52    4.08
   4  -6  -4   12.33    0.78
   4  -6  -4   12.78    0.77
   2   4  -4   13.65    0.80
   4  -6  -4   12.34    0.87
   2   4  -4   12.64    0.84
  -4   6   4   11.19    1.41
  -2  -4   4   11.86    0.81
   6  -2   4   12.91    0.74
  -2  -4   4   13.34    0.90
   6  -2   4   11.70    0.81
   6  -2   4   12.19    0.85
   6  -2   4   11.29    1.50
   3  -6  -4    4.45    0.43
   3   3  -4    4.30    0.43
   3  -6  -4    4.02    0.45
   6  -3   4    4.09    1.08
  -3  -3   4    4.01    0.42
  -3  -3   4    3.89    0.45
   6  -3   4    4.07    0.46
   6  -3   4    4.35    0.60
  -3   6   4    4.76    0.89
  -3  -3   4    4.18    0.51
   6  -3   4    4.14    0.32
   2  -6  -4    8.61    0.64
   4   2  -4    8.43    0.62
   4   2  -4    8.14    0.61
   2  -6  -4    8.63    0.65
  -4  -2   4    8.83    0.71
   6  -4   4    8.73    0.48
  -2   6   4    8.51    0.96
   6  -4   4    8.09    0.89
   6  -4   4    8.89    0.70
  -4  -2   4    9.11    0.57
   6  -4   4    7.59    0.62
  -4  -2   4    7.29    0.57
   5   1  -4   61.83    3.28
   5   1  -4   63.38    3.27
   1  -6  -4   63.92    3.33
  -1   6   4   65.71    3.26
   6  -5   4   59.99    3.24
  -1   6   4   60.11    3.20
   6  -5   4   65.25    3.46
  -1   6   4   63.63    3.28
  -5  -1   4   62.71    3.37
   6   0  -4   14.98    0.91
   0  -6  -4   14.49    1.00
  -6   6  -4   15.30    1.20
   6   0  -4   15.69    0.95
   0  -6  -4   15.52    0.94
   6  -6   4   13.68    1.11
   0   6   4   13.84    0.93
   0   6   4   14.45    0.90
   6  -6   4   14.25    1.01
  -6   0   4   14.47    1.07
  -1  -6  -4   63.79    3.33
   7  -1  -4   64.23    3.31
  -6   7  -4   62.16    3.67
  -1  -6  -4   62.39    3.38
   6  -7   4   64.66    3.31
   1   6   4   60.91    3.32
  -7   1   4   62.92    3.47
   1   6   4   61.03    3.30
  -7   0  -4   59.00    3.39
   0   7  -4   62.03    3.26
  -7   7   4   62.25    4.22
   7   0   4   65.33    3.27
   0  -7   4   59.39    3.37
   7   0   4   61.42    3.40
   6  -7  -4   53.68    2.72
  -7   1  -4   49.76    2.86
   1   6  -4   50.91    2.74
  -6   7   4   50.13    3.66
   7  -1   4   51.53    2.71
  -1  -6   4   50.51    2.82
   7  -1   4   51.90    2.85
   5  -7  -4    3.57    0.49
   2   5  -4    2.80    0.50
  -2  -5   4    2.58    0.59
   7  -2   4    1.99    0.41
  -2  -5   4    3.39    0.53
   7  -2   4    2.88    0.56
  -5   7   4    4.08    1.45
   4  -7  -4   69.11    3.55
   3   4  -4   71.10    3.60
   3   4  -4   67.87    3.54
  -3  -4   4   67.48    3.65
  -4   7   4   63.84    4.20
  -3  -4   4   67.52    3.55
   7  -3   4   66.55    3.45
   7  -3   4   67.24    3.60
   3  -7  -4   50.65    2.78
   4   3  -4   51.38    2.78
   4   3  -4   50.52    2.76
   7  -4   4   52.02    2.64
  -4  -3   4   50.90    2.73
  -4  -3   4   50.49    2.86
   7  -4   4   53.59    2.85
  -3   7   4   54.80    3.35
   2  -7  -4    4.26    0.60
   5   2  -4    5.78    0.56
   5   2  -4    4.05    0.54
  -5  -2   4    5.83    0.70
  -2   7   4    5.35    1.09
   7  -5   4    4.95    0.81
   6   1  -4   64.32    3.32
   1  -7  -4   64.20    3.32
   1  -7  -4   63.23    3.40
   6   1  -4   62.47    3.34
  -1   7   4   59.47    3.33
  -1   7   4   60.84    3.85
   7  -6   4   61.85    3.53
  -6  -1   4   66.99    3.48
   7   0  -4   50.89    2.82
   0  -7  -4   51.31    2.81
   0  -7  -4   50.01    2.89
   0   7   4   54.88    2.84
  -7   0   4   52.81    3.01
   5  -8  -4   38.00    2.14
   3   5  -4   35.60    2.11
  -5   8   4   41.44    3.31
   8  -3   4   36.23    2.20
  -3  -5   4   37.37    2.16
  -3  -5   4   36.24    2.27
   4   4  -4    8.67    0.88
   4  -8  -4   11.13    0.93
  -4  -4   4   11.62    1.07
   8  -4   4    8.74    1.01
  -4  -4   4   10.08    0.89
  -4   8   4   10.43    1.88
   5   3  -4   44.43    2.50
   3  -8  -4   48.12    2.55
   8  -5   4   44.21    2.67
  -5  -3   4   44.93    2.63
  -3   8   4   41.71    3.24
   0   0  -5  325.69   15.85
   0   0  -5  322.95   15.89
   0   0   5  306.83   15.84
   0   0   5  328.22   15.86
   0   0   5  307.34   15.87
  -1   0  -5   45.96    2.22
   0   1  -5   43.95    2.24
   0   1  -5   46.08    2.27
   1  -1  -5   43.56    2.41
  -1   0  -5   39.75    2.28
   1  -1  -5   41.52    2.23
   1  -1  -5   43.45    2.25
  -1   0  -5   46.92    2.26
  -1   1   5   46.86    2.23
   1   0   5   45.80    2.23
   1   0   5   42.09    2.24
  -1   1   5   41.68    2.23
   1   0   5   43.09    2.28
   0  -1   5   44.74    2.27
   1   0   5   43.29    2.21
   0  -1   5   42.12    2.23
  -1   1   5   42.97    2.41
  -1   1  -5   50.22    2.48
  -1   1  -5   45.04    2.52
  -1   1  -5   46.74    2.45
   0  -1  -5   51.32    2.47
   1   0  -5   50.48    2.47
   1   0  -5   41.29    2.49
   0  -1  -5   51.26    2.47
   1   0  -5   50.30    2.57
   0   1   5   50.56    2.43
   1  -1   5   47.80    2.48
   0   1   5   52.80    2.49
   0   1   5   45.84    2.53
   0   1   5   46.73    2.46
  -1   0   5   48.52    2.51
   2  -1  -5   19.05    1.06
  -1  -1  -5   19.04    1.06
  -1   2  -5   20.12    1.14
   2  -1  -5   19.61    1.27
  -1  -1  -5   19.49    1.03
  -1  -1  -5   19.70    1.04
  -1  -1  -5   20.47    1.05
   2  -1  -5   20.76    1.03
  -1   2  -5   20.15    1.05
  -2   1   5   16.93    1.23
   1   1   5   19.53    1.05
   1   1   5   19.46    1.07
  -2   1   5   20.17    1.01
   1  -2   5   18.54    1.11
   1   1   5   20.75    1.04
   1  -2   5   20.03    1.05
   3  -2  -5   54.54    2.68
  -2  -1  -5   54.07    2.71
  -1   3  -5   52.31    2.72
  -2  -1  -5   53.42    2.71
   3  -2  -5   52.77    2.68
  -2  -1  -5   50.21    2.73
  -1   3  -5   50.57    2.78
   3  -2  -5   54.21    3.10
  -1   3  -5   53.60    2.67
  -3   2   5   50.57    3.02
   1  -3   5   54.20    2.72
   2   1   5   56.03    2.74
   1  -3   5   53.63    2.76
  -3   2   5   51.21    2.72
   2   1   5   53.21    2.73
   2   1   5   54.54    2.71
   2   1   5   53.65    2.74
  -2   0  -5  138.15    6.90
  -2   0  -5  132.48    6.97
   0   2  -5  134.60    6.93
   2  -2  -5  134.70    6.90
   2  -2  -5  139.94    7.20
  -2   0  -5  132.42    6.92
   2  -2  -5  140.78    6.87
   0   2  -5  133.30    6.89
   2  -2  -5  143.39    6.90
  -2   0  -5  143.82    6.94
  -2   2   5  135.75    7.21
  -2   2   5  137.84    6.88
   2   0   5  139.69    6.96
   2   0   5  135.24    6.90
   2   0   5  134.19    6.93
   0  -2   5  147.42    6.93
   2   0   5  147.24    6.94
  -2   1  -5   21.32    1.09
   1   1  -5   20.03    1.07
   1  -2  -5   18.73    1.05
  -2   1  -5   20.84    1.06
   1  -2  -5   20.41    1.02
   1  -2  -5   20.45    1.08
  -2   1  -5   19.56    1.02
   1   1  -5   19.07    1.06
  -1   2   5   19.44    1.05
   2  -1   5   18.99    1.08
   2  -1   5   20.76    1.11
   2  -1   5   19.43    1.02
  -1   2   5   19.16    1.20
  -1   2   5   20.14    1.05
  -1  -1   5   20.04    1.06
   2  -1   5   19.17    1.09
  -2   2  -5  153.69    7.37
   2   0  -5  150.26    7.32
  -2   2  -5  144.48    7.28
   0  -2  -5  148.98    7.30
   0  -2  -5  140.94    7.31
  -2   2  -5  148.43    7.25
   2   0  -5  123.41    7.42
  -2   0   5  145.89    7.30
  -2   0   5  153.15    7.32
   2  -2   5  141.19    7.38
   2  -2   5  152.07    7.30
  -2   0   5  143.37    7.27
   0   2   5  145.80    7.28
   0   2   5  153.02    7.32
  -2   3  -5   45.42    2.64
  -1  -2  -5   53.31    2.55
  -2   3  -5   49.74    2.56
  -1  -2  -5   52.33    2.59
  -2   3  -5   45.06    2.63
   3  -1  -5   45.16    2.57
   3  -1  -5   52.01    2.84
  -3   1   5   50.00    2.58
   2  -3   5   53.99    2.57
   1   2   5   51.42    2.59
   1   2   5   51.88    2.57
   1   2   5   50.98    2.57
   4  -2  -5  167.56    8.18
   4  -2  -5  153.95    8.18
  -2   4  -5  171.99    8.33
  -2  -2  -5  163.53    8.22
   4  -2  -5  166.17    8.67
  -2  -2  -5  164.37    8.20
  -2  -2  -5  163.06    8.21
  -2  -2  -5  163.41    8.20
  -2   4  -5  158.64    8.19
  -4   2   5  161.24    8.23
   2   2   5  162.27    8.19
   2   2   5  160.74    8.21
   2  -4   5  169.34    8.25
   2   2   5  165.59    8.23
   2  -4   5  163.32    8.21
  -3  -2  -5    7.79    0.55
   5  -3  -5    7.70    0.47
  -2   5  -5    7.14    0.74
   5  -3  -5    8.56    0.54
  -3  -2  -5    8.41    0.56
  -3  -2  -5    8.51    0.57
  -3  -2  -5    6.84    0.56
  -2   5  -5    8.03    0.55
   5  -3  -5    6.17    1.35
  -2   5  -5    7.91    0.46
   2  -5   5    7.29    0.59
   2  -5   5    8.22    0.57
   3   2   5    8.00    0.57
   3   2   5    7.98    0.53
   3   2   5    7.62    0.61
  -1   4  -5   21.17    1.10
   4  -3  -5   21.44    1.13
  -3  -1  -5   21.08    1.15
   4  -3  -5   19.72    1.64
  -3  -1  -5   20.14    1.19
  -3  -1  -5   21.72    1.17
  -3  -1  -5   21.42    1.14
   4  -3  -5   22.13    1.11
  -1   4  -5   20.61    1.17
  -1   4  -5   20.54    1.23
  -4   3   5   19.72    1.53
   3   1   5   20.98    1.18
   3   1   5   21.55    1.15
   1  -4   5   21.32    1.18
   3   1   5   22.17    1.21
   1  -4   5   21.19    1.18
   3   1   5   21.33    1.19
   0   3  -5   19.89    1.05
  -3   0  -5   20.20    1.07
  -3   0  -5   20.29    1.05
   3  -3  -5   18.45    1.42
  -3   0  -5   19.37    1.12
   3  -3  -5   20.37    1.04
   3  -3  -5   19.63    1.05
  -3   0  -5   19.94    1.10
   0   3  -5   19.69    1.11
   0   3  -5   20.04    1.10
   3   0   5   20.56    1.12
   0  -3   5   20.86    1.10
  -3   3   5   19.30    1.44
   0  -3   5   18.98    1.10
   3   0   5   19.51    1.06
   3   0   5   20.72    1.13
   3   0   5   20.20    1.11
   1   2  -5   55.40    2.78
   2  -3  -5   52.77    2.74
   1   2  -5   53.64    2.77
  -3   1  -5   53.85    2.72
  -3   1  -5   54.70    2.72
   2  -3  -5   53.72    2.78
   1   2  -5   53.02    2.74
  -3   1  -5   55.26    2.79
  -1  -2   5   56.36    2.76
  -2   3   5   54.63    2.73
  -2   3   5   50.74    3.01
   3  -1   5   54.51    2.72
   3  -1   5   53.20    2.80
   3  -1   5   54.71    2.83
   3  -1   5   52.31    2.78
  -1  -2   5   54.15    2.77
   2   1  -5   50.45    2.55
  -3   2  -5   51.37    2.50
   2   1  -5   51.62    2.57
   1  -3  -5   50.98    2.56
  -3   2  -5   50.79    2.59
  -3   2  -5   43.73    2.50
   1  -3  -5   52.51    2.57
   3  -2   5   49.17    2.56
  -1   3   5   50.96    2.74
   3  -2   5   48.90    2.63
  -1   3   5   48.87    2.57
  -1   3   5   51.85    2.56
   3  -2   5   49.89    2.55
  -2  -1   5   50.83    2.59
  -1   3   5   51.08    2.51
  -2  -1   5   48.54    2.55
   3  -2   5   48.08    2.60
  -2  -1   5   49.54    2.54
  -3   3  -5   13.99    0.89
  -3   3  -5   16.06    0.92
   3   0  -5   15.10    0.86
   3   0  -5   15.82    0.86
   0  -3  -5   15.34    0.83
  -3   3  -5   14.97    0.82
   0  -3  -5   14.98    0.88
   0  -3  -5   15.75    0.87
   3   0  -5   16.31    1.08
   0   3   5   16.23    0.89
   0   3   5   15.35    0.86
  -3   0   5   15.87    0.80
   3  -3   5   14.84    0.97
  -3   0   5   16.37    0.90
   3  -3   5   15.68    0.86
   0   3   5   15.55    0.84
  -1  -3  -5   22.29    1.21
  -3   4  -5   22.32    1.17
  -1  -3  -5   22.15    1.22
   4  -1  -5   22.93    1.57
  -1  -3  -5   20.68    1.22
   4  -1  -5   22.44    1.18
  -3   4  -5   22.10    1.27
  -1  -3  -5   21.68    1.18
  -3   4  -5   20.99    1.38
   4  -1  -5   22.50    1.20
   1   3   5   22.03    1.20
   3  -4   5   23.56    1.21
  -4   1   5   22.77    1.24
   1   3   5   22.68    1.20
   1   3   5   22.27    1.24
   3  -4   5   18.93    1.27
  -2  -3  -5    9.13    0.63
  -2  -3  -5    9.83    0.59
   5  -2  -5    8.19    0.54
   5  -2  -5    8.97    0.56
  -3   5  -5    7.26    0.84
   5  -2  -5    7.36    1.21
   5  -2  -5    9.00    0.59
  -3   5  -5    7.14    0.69
  -2  -3  -5   10.00    0.62
   3  -5   5    8.53    0.62
   2   3   5    9.72    0.59
   2   3   5    9.29    0.60
   3  -5   5    8.50    0.62
  -5   2   5    8.34    0.65
   6  -3  -5   10.43    0.67
  -3   6  -5    8.68    0.88
   6  -3  -5   10.48    0.75
  -3  -3  -5    9.45    0.70
  -3   6  -5    8.07    1.04
   6  -3  -5    9.96    0.65
  -3  -3  -5   10.28    0.69
   3  -6   5   10.25    0.71
   3   3   5    9.82    0.67
   3   3   5    9.52    0.70
  -3   7  -5   18.54    1.78
   7  -4  -5   21.08    1.21
   7  -4  -5   19.78    1.15
  -4  -3  -5   20.56    1.25
  -4  -3  -5   17.29    1.25
   3  -7   5   20.11    1.26
   4   3   5   20.30    1.20
   4   3   5   20.16    1.26
  -2   6  -5   38.10    2.28
   6  -4  -5   38.21    2.03
   6  -4  -5   39.07    2.07
   6  -4  -5   37.16    2.02
  -4  -2  -5   38.63    2.04
  -4  -2  -5   37.94    2.10
  -4  -2  -5   38.33    2.09
  -2   6  -5   39.70    1.98
   2  -6   5   37.49    2.10
   4   2   5   39.21    2.06
   4   2   5   37.70    2.11
  -4  -1  -5   10.86    0.78
   5  -4  -5   11.05    0.68
   5  -4  -5   11.05    0.61
  -1   5  -5   12.14    0.86
  -4  -1  -5   10.61    0.71
   5  -4  -5    9.54    1.45
  -4  -1  -5   10.81    0.64
  -1   5  -5    9.94    0.71
   5  -4  -5   11.32    0.63
  -1   5  -5   10.79    0.63
   4   1   5   10.44    0.72
  -5   4   5   10.60    1.20
   4   1   5   11.03    0.75
   4   1   5   10.48    0.67
   1  -5   5   10.75    0.72
   0   4  -5   69.82    3.56
  -4   0  -5   71.11    3.62
   4  -4  -5   71.09    3.55
   0   4  -5   71.51    3.62
   4  -4  -5   71.23    3.55
  -4   0  -5   63.61    3.55
  -4   0  -5   71.72    3.52
   0   4  -5   72.26    3.64
   4  -4  -5   61.92    4.00
  -4   0  -5   72.34    3.58
   4   0   5   72.51    3.64
   0  -4   5   68.65    3.62
   0  -4   5   67.98    3.61
   4   0   5   73.57    3.61
   4   0   5   71.31    3.66
  -4   4   5   72.83    4.11
   4   0   5   69.22    3.56
   1   3  -5   21.47    1.14
  -4   1  -5   20.58    1.19
  -4   1  -5   20.14    1.12
   3  -4  -5   20.79    1.18
   1   3  -5   19.96    1.19
   3  -4  -5   21.99    1.14
   3  -4  -5   21.83    1.12
   1   3  -5   22.39    1.19
   4  -1   5   20.15    1.12
   4  -1   5   20.79    1.19
   4  -1   5   20.44    1.23
  -1  -3   5   22.46    1.18
  -3   4   5   21.80    1.55
  -1  -3   5   21.61    1.18
   4  -1   5   20.43    1.20
  -4   2  -5  165.11    8.14
   2   2  -5  157.13    8.21
  -4   2  -5  162.44    8.22
   2   2  -5  162.24    8.19
   2  -4  -5  169.81    8.19
   2  -4  -5  158.19    8.19
   4  -2   5  174.56    8.25
   4  -2   5  157.32    8.23
  -2  -2   5  162.77    8.19
  -2   4   5  163.48    8.48
  -2  -2   5  157.55    8.19
  -2   4   5  169.99    8.18
   4  -2   5  166.24    8.35
   4  -2   5  163.44    8.14
   4  -2   5  163.16    8.27
   3   1  -5   22.16    1.20
   3   1  -5   21.74    1.19
   1  -4  -5   21.45    1.21
  -4   3  -5   22.79    1.23
   1  -4  -5   22.82    1.20
   4  -3   5   21.77    1.18
   4  -3   5   22.26    1.23
  -3  -1   5   23.33    1.25
  -1   4   5   22.17    1.14
   4  -3   5   20.98    1.25
   4  -3   5   19.92    1.29
  -1   4   5   21.53    1.20
  -1   4   5   22.18    1.21
  -1   4   5   21.67    1.41
  -3  -1   5   22.07    1.18
  -3  -1   5   21.44    1.16
  -4   4  -5   69.60    3.42
   0  -4  -5   65.50    3.39
   0  -4  -5   65.73    3.36
   4   0  -5   63.82    3.38
   4   0  -5   65.60    3.37
  -4   4  -5   66.75    3.47
   0  -4  -5   66.77    3.41
   0   4   5   64.82    3.42
   4  -4   5   65.21    3.52
   0   4   5   64.19    3.36
  -4   0   5   68.45    3.44
   0   4   5   64.09    3.38
   4  -4   5   68.39    3.37
  -1  -4  -5   14.79    0.87
  -1  -4  -5   14.41    0.82
  -4   5  -5   14.10    0.89
  -4   5  -5   13.50    1.12
   5  -1  -5   14.09    0.82
  -1  -4  -5   12.68    0.85
   5  -1  -5   14.31    0.78
   1   4   5   13.16    0.83
   4  -5   5   13.94    0.84
   1   4   5   13.29    0.81
   4  -5   5   12.21    0.92
  -5   1   5   13.75    0.91
  -4   6  -5   41.91    2.28
  -2  -4  -5   40.40    2.26
  -2  -4  -5   43.55    2.24
   6  -2  -5   41.49    2.21
   6  -2  -5   42.01    2.14
  -4   6  -5   41.75    2.64
   4  -6   5   43.31    2.25
  -6   2   5   40.47    2.32
   4  -6   5   41.88    2.25
   2   4   5   42.14    2.23
   2   4   5   39.71    2.23
  -4   7  -5   19.05    1.71
   7  -3  -5   16.63    1.02
   7  -3  -5   14.23    1.06
  -3  -4  -5   16.30    1.10
  -3  -4  -5   16.71    1.07
   3   4   5   17.14    1.10
   3   4   5   18.76    1.09
   4  -7   5   17.63    1.10
  -4  -4  -5   42.36    2.45
   8  -4  -5   45.33    2.36
  -4  -4  -5   42.77    2.47
  -4   8  -5   46.98    3.26
   4   4   5   44.28    2.48
   4  -8   5   43.89    2.47
   4   4   5   39.88    2.42
  -3   8  -5    3.74    1.31
  -5  -3  -5    5.05    0.80
   8  -5  -5    3.67    0.71
   5   3   5    5.54    0.81
   5   3   5    3.78    0.80
   3  -8   5    4.77    0.81
  -2   7  -5    9.09    0.67
   7  -5  -5   10.64    0.69
  -5  -2  -5    9.91    0.81
  -5  -2  -5    9.91    0.93
   5   2   5   10.57    0.84
   5   2   5    9.02    0.73
   2  -7   5    8.73    0.81
   6  -5  -5   18.06    1.11
  -1   6  -5   17.19    1.01
   6  -5  -5   18.40    0.99
  -5  -1  -5   17.40    1.12
   1  -6   5   17.37    1.12
  -6   5   5   17.53    1.73
   5   1   5   17.16    1.05
   5   1   5   18.72    1.14
   5  -5  -5   26.47    1.44
   0   5  -5   26.25    1.51
   5  -5  -5   27.11    1.41
   5  -5  -5   24.48    1.52
  -5   0  -5   25.51    1.51
   0   5  -5   28.29    1.44
   5   0   5   27.16    1.53
   5   0   5   26.52    1.44
  -5   5   5   26.91    2.08
   5   0   5   24.55    1.49
   0  -5   5   26.61    1.51
   4  -5  -5   11.08    0.66
   4  -5  -5   11.40    0.72
   1   4  -5   10.95    0.72
   4  -5  -5   10.80    0.66
   1   4  -5   10.44    0.67
  -5   1  -5   10.37    0.68
  -5   1  -5   10.81    0.74
   5  -1   5   10.67    0.64
  -1  -4   5   10.85    0.73
   5  -1   5    8.87    1.00
   5  -1   5   12.15    0.75
  -4   5   5   11.56    1.24
   5  -1   5   10.92    0.74
   2   3  -5    7.92    0.56
   2   3  -5    8.10    0.52
   3  -5  -5    7.95    0.52
  -5   2  -5    7.66    0.49
   3  -5  -5    7.90    0.54
  -3   5   5    7.57    0.91
  -2  -3   5    7.74    0.54
   5  -2   5    6.75    0.87
   5  -2   5    7.33    0.46
   5  -2   5    6.41    0.63
  -2  -3   5    7.77    0.55
   5  -2   5    8.14    0.58
   3   2  -5    8.31    0.57
   2  -5  -5    9.59    0.59
   2  -5  -5    8.25    0.58
   3   2  -5    8.69    0.58
  -3  -2   5    8.96    0.65
   5  -3   5    9.58    0.64
   5  -3   5    8.69    0.49
   5  -3   5    8.87    0.77
  -3  -2   5    8.14    0.55
  -3  -2   5    7.67    0.56
  -2   5   5    8.60    0.59
   5  -3   5    8.17    0.61
  -2   5   5    8.50    0.86
   4   1  -5   13.48    0.83
  -5   4  -5   14.12    0.87
   4   1  -5   14.35    0.83
   1  -5  -5   13.69    0.85
   1  -5  -5   13.94    0.86
  -4  -1   5   14.54    0.92
   5  -4   5   13.21    0.94
  -4  -1   5   13.89    0.76
   5  -4   5   14.15    0.82
  -1   5   5   13.45    0.76
  -1   5   5   14.29    0.84
  -1   5   5   13.31    0.88
   0  -5  -5   31.65    1.77
  -5   5  -5   31.61    1.85
   5   0  -5   31.69    1.70
   5   0  -5   31.75    1.74
   0  -5  -5   33.24    1.71
  -5   5  -5   30.40    1.74
   0   5   5   31.00    1.73
   5  -5   5   32.27    1.89
   5  -5   5   32.94    1.73
   0   5   5   31.54    1.70
  -5   0   5   33.12    1.83
  -5   6  -5   12.68    0.90
   6  -1  -5   12.99    0.87
   6  -1  -5   13.98    0.82
  -1  -5  -5   15.51    0.89
  -5   6  -5   15.56    1.22
  -1  -5  -5   14.92    0.95
   1   5   5   13.26    0.87
  -6   1   5   12.45    1.00
   5  -6   5   13.21    0.97
   1   5   5   13.68    0.87
   7  -2  -5    7.10    0.59
   7  -2  -5    6.09    0.65
  -2  -5  -5    6.60    0.62
  -5   7  -5    7.29    1.28
  -2  -5  -5    6.04    0.69
   2   5   5    6.57    0.64
   5  -7   5    7.18    0.66
   2   5   5    6.53    0.64
  -7   2   5    6.68    0.85
   8  -3  -5    5.56    0.70
  -3  -5  -5    7.67    0.79
   8  -3  -5    7.50    0.84
  -5   8  -5    5.14    2.01
  -3  -5  -5    6.52    0.83
   3   5   5    6.94    0.84
   3   5   5    6.07    0.83
   5  -8   5    6.04    0.79
  -6  -1  -5    4.56    0.66
   7  -6  -5    2.63    0.42
  -1   7  -5    2.90    0.53
   6   1   5    3.39    0.53
  -7   6   5    3.54    1.18
   6   1   5    4.43    0.67
   1  -7   5    2.84    0.62
   0   6  -5   66.20    3.38
  -6   0  -5   63.39    3.48
   6  -6  -5   68.56    3.35
  -6   6   5   66.55    4.18
   0  -6   5   62.80    3.47
   6   0   5   64.96    3.49
   6   0   5   63.68    3.38
   5  -6  -5   17.63    0.99
   5  -6  -5   17.51    1.05
   1   5  -5   17.14    1.08
   1   5  -5   14.05    1.00
   5  -6  -5   17.78    1.07
  -6   1  -5   17.69    1.11
  -1  -5   5   17.10    1.08
  -5   6   5   17.41    1.75
   6  -1   5   17.53    1.10
   6  -1   5   17.03    0.98
   6  -1   5   16.00    1.76
   6  -1   5   15.58    1.08
   4  -6  -5   38.43    2.03
   2   4  -5   35.41    2.07
   4  -6  -5   37.35    2.01
   2   4  -5   37.33    2.03
   4  -6  -5   34.21    2.06
  -4   6   5   39.19    2.70
   6  -2   5   38.51    2.10
   6  -2   5   36.14    2.55
  -2  -4   5   40.07    2.16
  -2  -4   5   39.54    2.07
   6  -2   5   39.28    2.07
   6  -2   5   38.48    1.98
   3  -6  -5   10.22    0.70
   3  -6  -5    9.24    0.70
   3   3  -5    9.94    0.69
   3   3  -5   10.32    0.72
   6  -3   5   10.12    0.74
   6  -3   5   10.06    0.87
  -3  -3   5   10.43    0.80
   6  -3   5   10.26    0.59
  -3  -3   5    9.70    0.68
  -3   6   5    9.79    1.14
   6  -3   5   10.37    1.15
  -3  -3   5    9.46    0.69
   4   2  -5   41.43    2.24
   2  -6  -5   40.54    2.23
   4   2  -5   41.98    2.24
   2  -6  -5   40.10    2.25
  -4  -2   5   41.83    2.18
  -4  -2   5   42.42    2.33
   6  -4   5   43.40    2.25
  -2   6   5   40.64    2.61
   6  -4   5   41.66    2.37
   6  -4   5   41.38    2.32
  -4  -2   5   43.69    2.20
   1  -6  -5   13.94    0.93
   5   1  -5   13.69    0.88
   5   1  -5   13.53    0.88
   1  -6  -5   13.53    0.85
  -1   6   5   13.77    0.80
  -1   6   5   14.22    0.88
  -1   6   5   15.26    1.30
  -5  -1   5   13.99    0.99
   6  -5   5   13.11    0.92
   6  -5   5   14.13    1.14
  -1   6   5   13.28    0.90
   0  -6  -5   63.78    3.41
   6   0  -5   66.21    3.33
   0  -6  -5   64.96    3.34
  -6   6  -5   65.95    3.49
   6   0  -5   64.53    3.36
   6  -6   5   60.49    3.44
   6  -6   5   59.00    3.48
   0   6   5   64.52    3.36
   0   6   5   63.97    3.31
  -6   0   5   66.16    3.49
  -6   7  -5    3.30    0.93
  -1  -6  -5    3.92    0.56
  -1  -6  -5    2.32    0.64
   7  -1  -5    3.34    0.56
   1   6   5    5.21    0.59
  -7   1   5    4.68    0.85
   6  -7   5    4.35    0.99
   1   6   5    4.06    0.58
   6  -7   5    4.98    0.62
  -7   0  -5    0.20    0.53
   0   7  -5    0.56    0.41
   0  -7   5   -0.18    0.42
   7   0   5    0.39    0.57
   7   0   5    0.59    0.37
  -7   7   5    2.04    1.35
   6  -7  -5    3.38    0.51
   1   6  -5    2.03    0.42
   7  -1   5    3.02    0.48
  -6   7   5    5.32    1.71
  -1  -6   5    3.17    0.63
   7  -1   5    4.00    0.65
   2   5  -5    8.71    0.80
   5  -7  -5    9.96    0.75
   2   5  -5   10.94    0.78
   7  -2   5    9.00    0.82
   7  -2   5    9.49    0.67
  -2  -5   5    9.81    0.92
  -2  -5   5    9.42    0.79
  -5   7   5    9.06    1.68
   3   4  -5   22.98    1.27
   3   4  -5   19.76    1.29
   4  -7  -5   20.95    1.26
   7  -3   5   20.02    1.32
  -3  -4   5   19.33    1.26
   7  -3   5   20.60    1.15
  -4   7   5   21.52    2.04
  -3  -4   5   21.48    1.41
   4   3  -5   15.84    1.07
   4   3  -5   15.58    1.10
   3  -7  -5   18.16    1.11
  -4  -3   5   17.88    1.23
   7  -4   5   18.09    0.98
  -3   7   5   18.19    1.71
  -4  -3   5   17.52    1.06
   7  -4   5   16.56    1.19
   5   2  -5    6.04    0.64
   2  -7  -5    7.21    0.68
   5   2  -5    6.08    0.63
  -2   7   5    8.44    1.21
  -5  -2   5    7.24    0.83
   7  -5   5    5.85    0.92
   6   1  -5    4.42    0.59
   1  -7  -5    4.90    0.54
   1  -7  -5    3.82    0.64
   6   1  -5    3.26    0.56
  -1   7   5    4.82    1.17
   7  -6   5    3.92    0.99
  -6  -1   5    2.76    0.63
  -1   7   5    3.36    0.63
   7   0  -5    1.09    0.43
   0  -7  -5    2.31    0.62
   0   7   5    1.18    0.46
  -7   0   5    1.57    0.67
   3   5  -5    4.75    0.78
   5  -8  -5    5.67    0.75
   8  -3   5    4.76    0.85
  -5   8   5    3.47    1.59
  -3  -5   5    5.35    0.79
   4  -8  -5   45.11    2.59
   4   4  -5   45.03    2.59
   8  -4   5   46.39    2.70
  -4  -4   5   48.87    2.57
  -4   8   5   49.99    3.60
  -4  -4   5   44.26    2.75
   5   3  -5    5.29    0.77
   3  -8  -5    5.84    0.82
   8  -5   5    6.75    1.10
  -3   8   5    5.81    1.62
   0   0  -6   25.93    1.37
   0   0  -6   25.58    1.40
   0   0   6   26.66    1.38
   0   0   6   23.00    1.38
   0   0   6   23.62    1.35
   1  -1  -6   34.14    1.76
   0   1  -6   29.77    1.57
   0   1  -6   33.94    1.61
  -1   0  -6   27.86    1.57
  -1   0  -6   28.52    1.53
   0   1  -6   29.73    1.57
  -1   0  -6   28.55    1.60
  -1   1   6   29.67    1.73
   1   0   6   29.08    1.53
   1   0   6   31.24    1.56
   1   0   6   31.20    1.57
   0  -1   6   25.23    1.57
  -1   1   6   25.40    1.54
   1   0   6   28.40    1.60
   0  -1   6   26.95    1.55
  -1   1   6   32.03    1.56
   1   0   6   31.78    1.55
  -1   1  -6   44.65    2.36
   0  -1  -6   49.68    2.30
   0  -1  -6   44.73    2.31
  -1   1  -6   43.35    2.28
  -1   1  -6   46.59    2.32
   1   0  -6   42.54    2.40
   0  -1  -6   48.43    2.31
   1   0  -6   44.57    2.30
   0   1   6   44.52    2.31
   1  -1   6   40.84    2.35
   0   1   6   41.59    2.29
   0   1   6   45.41    2.24
   0   1   6   41.13    2.36
  -1   0   6   45.02    2.31
   1  -1   6   46.89    2.32
  -1   2  -6   37.39    1.90
   2  -1  -6   34.70    1.78
  -1  -1  -6   32.97    1.81
   2  -1  -6   37.16    2.07
  -1  -1  -6   34.08    1.80
  -1  -1  -6   33.45    1.76
  -1  -1  -6   36.45    1.79
  -1   2  -6   34.94    1.80
   2  -1  -6   34.01    1.83
   1   1   6   34.46    1.78
   1   1   6   37.11    1.83
  -2   1   6   35.32    1.77
   1  -2   6   29.99    1.85
   1   1   6   33.65    1.79
  -2   1   6   31.57    2.00
   1   1   6   32.98    1.78
   1  -2   6   36.19    1.80
   3  -2  -6   44.07    2.08
  -1   3  -6   39.11    2.11
  -2  -1  -6   38.11    2.13
  -1   3  -6   40.02    2.05
  -2  -1  -6   40.93    2.10
  -2  -1  -6   37.65    2.09
   3  -2  -6   40.51    2.06
   3  -2  -6   37.08    2.08
   2   1   6   40.97    2.12
   1  -3   6   42.18    2.17
   2   1   6   42.97    2.13
   2   1   6   42.05    2.10
   1  -3   6   40.21    2.11
   2   1   6   44.36    2.15
  -3   2   6   42.95    2.10
  -3   2   6   36.02    2.39
   2  -2  -6   34.20    1.98
  -2   0  -6   30.62    1.71
   0   2  -6   30.15    1.69
   0   2  -6   33.23    1.73
   2  -2  -6   35.90    1.69
   2  -2  -6   31.32    1.67
  -2   0  -6   32.58    1.75
  -2   0  -6   30.89    1.68
  -2   0  -6   32.06    1.66
  -2   2   6   32.59    1.97
   2   0   6   32.67    1.66
  -2   2   6   32.15    1.65
   2   0   6   33.19    1.71
   2   0   6   31.58    1.74
   2   0   6   30.91    1.70
   0  -2   6   32.63    1.69
   1  -2  -6   33.48    1.77
  -2   1  -6   35.00    1.73
   1   1  -6   33.50    1.78
   1  -2  -6   34.28    1.80
   1  -2  -6   35.78    1.74
   1   1  -6   35.17    1.78
  -2   1  -6   33.80    1.78
  -2   1  -6   36.36    1.82
   2  -1   6   33.25    1.80
  -1  -1   6   34.24    1.77
  -1   2   6   35.47    1.77
   2  -1   6   34.60    1.84
  -1   2   6   28.49    1.75
  -1   2   6   33.39    1.94
   2  -1   6   34.63    1.74
   2  -1   6   32.60    1.80
   2   0  -6   39.44    2.08
   0  -2  -6   41.00    2.06
   0  -2  -6   40.99    2.07
   0  -2  -6   42.68    2.01
   2   0  -6   40.60    2.06
  -2   2  -6   40.00    2.04
   2   0  -6   39.82    2.21
  -2   2  -6   41.52    2.00
  -2   2  -6   41.06    2.13
   2  -2   6   35.24    2.13
  -2   0   6   37.95    2.02
  -2   0   6   42.87    2.09
  -2   0   6   38.16    2.05
   0   2   6   37.65    2.05
   0   2   6   37.54    2.03
   0   2   6   39.50    2.07
   3  -1  -6   56.55    3.27
  -2   3  -6   59.02    2.99
  -1  -2  -6   60.55    2.97
  -2   3  -6   58.47    3.10
   3  -1  -6   49.50    3.00
  -1  -2  -6   62.04    3.00
  -1  -2  -6   58.40    3.02
   1   2   6   58.79    3.00
   2  -3   6   64.99    3.01
   1   2   6   58.29    3.02
  -3   1   6   59.90    3.00
   2  -3   6   56.86    3.09
  -3  -2  -6    5.41    0.48
  -2   5  -6    5.64    0.45
  -2   5  -6    5.86    0.35
  -3  -2  -6    5.75    0.45
   5  -3  -6    5.77    0.43
   5  -3  -6    4.69    0.40
   5  -3  -6    7.48    1.30
  -3  -2  -6    5.37    0.47
   2  -5   6    5.31    0.51
   3   2   6    5.82    0.47
   2  -5   6    5.79    0.47
   3   2   6    5.65    0.43
   3   2   6    4.64    0.54
   4  -3  -6   25.13    1.32
   4  -3  -6   25.04    1.33
  -1   4  -6   26.06    1.33
  -3  -1  -6   25.79    1.39
  -3  -1  -6   28.40    1.45
  -1   4  -6   25.27    1.40
  -3  -1  -6   25.57    1.37
   4  -3  -6   27.19    1.34
  -1   4  -6   22.79    1.46
  -3  -1  -6   25.38    1.38
   4  -3  -6   24.27    1.88
   1  -4   6   25.68    1.41
   3   1   6   25.11    1.36
   3   1   6   25.03    1.42
   3   1   6   25.23    1.44
  -4   3   6   27.39    1.82
   3   1   6   24.28    1.40
   1  -4   6   25.52    1.40
   0   3  -6   28.47    1.46
  -3   0  -6   28.08    1.53
  -3   0  -6   28.47    1.47
   3  -3  -6   25.43    1.84
   3  -3  -6   30.17    1.43
   0   3  -6   27.96    1.54
   0   3  -6   27.59    1.51
  -3   0  -6   27.24    1.50
   3  -3  -6   28.25    1.47
   0  -3   6   26.43    1.51
   3   0   6   28.01    1.54
   3   0   6   27.41    1.52
   3   0   6   28.30    1.47
   0  -3   6   28.73    1.51
  -3   3   6   28.46    1.87
   3   0   6   28.52    1.54
   1   2  -6   39.08    2.12
  -3   1  -6   40.49    2.18
   2  -3  -6   36.57    2.16
   1   2  -6   43.80    2.17
  -3   1  -6   40.91    2.10
   2  -3  -6   40.52    2.13
   1   2  -6   39.57    2.15
  -3   1  -6   41.76    2.13
   3  -1   6   41.16    2.17
   3  -1   6   42.82    2.23
   3  -1   6   42.96    2.11
   3  -1   6   44.60    2.21
  -2   3   6   44.67    2.45
  -1  -2   6   39.51    2.14
  -2   3   6   42.54    2.12
  -1  -2   6   40.37    2.15
  -3   2  -6   60.09    3.02
   2   1  -6   62.32    3.07
   1  -3  -6   60.13    2.99
   1  -3  -6   62.52    3.07
   1  -3  -6   62.95    3.07
   2   1  -6   61.21    3.08
  -3   2  -6   60.79    3.00
   2   1  -6   59.06    3.05
  -3   2  -6   65.38    3.11
  -2  -1   6   57.02    3.04
   3  -2   6   56.14    3.10
   3  -2   6   58.41    3.00
  -1   3   6   59.06    3.06
   3  -2   6   60.28    3.07
  -2  -1   6   62.63    3.06
   3  -2   6   53.58    3.12
  -1   3   6   55.13    3.23
   0  -3  -6   25.62    1.38
   3   0  -6   25.51    1.36
   3   0  -6   26.20    1.60
   0  -3  -6   26.16    1.37
  -3   3  -6   24.32    1.32
  -3   3  -6   26.19    1.43
   3   0  -6   25.72    1.37
   0  -3  -6   24.97    1.32
   0   3   6   25.59    1.34
  -3   0   6   25.89    1.39
   3  -3   6   24.10    1.47
   0   3   6   24.97    1.36
   3  -3   6   25.99    1.36
   0   3   6   26.30    1.39
  -3   0   6   24.57    1.34
  -3   0   6   25.03    1.30
  -1  -3  -6   15.96    0.94
  -3   4  -6   15.68    1.01
   4  -1  -6   16.88    0.92
  -1  -3  -6   15.85    0.93
  -3   4  -6   15.23    0.88
  -1  -3  -6   15.60    0.89
   4  -1  -6   15.34    0.91
   4  -1  -6   19.13    1.34
   1   3   6   16.70    0.92
   1   3   6   16.46    0.97
   3  -4   6   15.96    0.93
   1   3   6   15.26    0.90
  -4   1   6   16.04    0.95
   5  -2  -6    8.83    0.62
   5  -2  -6   10.58    0.66
  -2  -3  -6   10.30    0.64
  -2  -3  -6   10.44    0.68
  -3   5  -6    9.71    0.63
  -3   5  -6    9.29    0.89
  -3   5  -6    9.90    0.82
  -2  -3  -6   10.41    0.70
   5  -2  -6   10.43    0.65
  -5   2   6   10.52    0.73
   3  -5   6   10.25    0.73
   2   3   6    9.93    0.64
   3  -5   6    9.76    0.70
   2   3   6    9.63    0.65
  -3  -3  -6   12.93    0.86
  -3  -3  -6   11.83    0.81
   6  -3  -6   12.45    0.77
   6  -3  -6   13.49    0.80
  -3   6  -6   11.79    1.05
   6  -3  -6   12.55    0.86
  -3   6  -6   12.20    1.18
   3  -6   6   12.53    0.86
   3   3   6   13.62    0.82
   3   3   6   11.58    0.83
   7  -4  -6   20.25    1.17
  -4  -3  -6   17.45    1.26
  -3   7  -6   18.78    1.75
  -4  -3  -6   19.18    1.21
   7  -4  -6   18.60    1.12
   4   3   6   19.12    1.18
   4   3   6   18.79    1.22
   3  -7   6   18.87    1.23
   6  -4  -6   10.91    0.69
  -4  -2  -6   10.65    0.74
  -2   6  -6   11.08    0.65
  -4  -2  -6   10.97    0.77
   6  -4  -6   10.18    0.66
  -4  -2  -6   10.92    0.84
   6  -4  -6   11.49    0.78
   2  -6   6   11.00    0.79
   4   2   6   11.19    0.73
   4   2   6   10.94    0.78
  -1   5  -6   15.76    0.89
  -4  -1  -6   17.36    1.06
  -1   5  -6   15.60    0.97
  -1   5  -6   14.58    1.08
   5  -4  -6   16.52    0.88
   5  -4  -6   16.77    0.92
  -4  -1  -6   15.82    0.97
  -4  -1  -6   16.02    0.91
   1  -5   6   16.27    0.99
   4   1   6   15.94    0.93
  -5   4   6   15.67    1.48
   4   1   6   15.11    1.02
   4   1   6   16.34    0.99
  -4   0  -6   19.92    1.11
   4  -4  -6   20.70    1.09
   4  -4  -6   20.87    1.07
   0   4  -6   20.26    1.09
  -4   0  -6   20.21    1.07
  -4   0  -6   20.24    1.15
   0   4  -6   20.51    1.16
  -4   0  -6   18.34    1.11
   4  -4  -6   18.21    1.64
   0   4  -6   19.18    1.19
   0  -4   6   19.30    1.15
   0  -4   6   20.34    1.16
   4   0   6   20.52    1.18
  -4   4   6   22.35    1.64
   4   0   6   18.95    1.09
   4   0   6   20.83    1.22
   4   0   6   20.48    1.17
   1   3  -6   25.19    1.39
   1   3  -6   25.35    1.35
   3  -4  -6   25.30    1.35
   1   3  -6   23.13    1.39
   3  -4  -6   26.18    1.30
  -4   1  -6   26.25    1.34
   3  -4  -6   27.00    1.42
   4  -1   6   24.37    1.45
  -1  -3   6   25.38    1.39
   4  -1   6   25.00    1.41
  -3   4   6   23.41    1.75
   4  -1   6   24.22    1.43
  -1  -3   6   26.33    1.39
   4  -1   6   24.98    1.32
   1  -4  -6   15.36    0.92
  -4   3  -6   15.43    0.96
   1  -4  -6   15.63    0.85
   1  -4  -6   15.89    0.92
   3   1  -6   14.89    0.90
   3   1  -6   15.15    0.91
  -1   4   6   17.81    0.93
  -1   4   6   16.32    0.94
   4  -3   6   15.40    0.91
  -1   4   6   16.59    0.85
   4  -3   6   15.85    1.05
  -1   4   6   17.26    1.15
   4  -3   6   17.61    1.00
  -3  -1   6   16.06    0.96
  -3  -1   6   14.42    0.90
  -3  -1   6   15.52    0.87
  -4   4  -6   17.61    1.07
  -4   4  -6   17.90    1.03
   0  -4  -6   17.79    1.04
   4   0  -6   17.97    1.00
   0  -4  -6   17.39    0.97
   0  -4  -6   16.78    1.03
   4   0  -6   16.75    1.00
   4  -4   6   18.59    1.16
  -4   0   6   17.81    1.07
   0   4   6   17.49    1.01
   0   4   6   18.14    1.07
   0   4   6   17.59    0.98
   4  -4   6   18.87    1.02
   5  -1  -6   18.26    0.99
  -1  -4  -6   18.36    1.01
  -4   5  -6   17.04    1.23
  -4   5  -6   17.74    1.12
   5  -1  -6   18.19    1.03
  -1  -4  -6   18.00    1.07
   1   4   6   17.54    1.03
   4  -5   6   18.50    1.06
  -5   1   6   17.56    1.11
   4  -5   6   15.97    1.14
   1   4   6   17.60    1.02
   6  -2  -6   12.62    0.80
  -4   6  -6   11.64    1.20
  -2  -4  -6   12.56    0.81
   6  -2  -6   12.94    0.74
  -4   6  -6   12.39    0.97
  -2  -4  -6   12.25    0.86
  -6   2   6   12.06    0.94
   4  -6   6   12.63    0.88
   2   4   6   13.88    0.83
   4  -6   6   12.09    0.84
   2   4   6   11.93    0.81
  -3  -4  -6   28.72    1.64
   7  -3  -6   27.45    1.55
  -4   7  -6   27.03    2.13
  -3  -4  -6   29.01    1.60
   7  -3  -6   24.62    1.58
   4  -7   6   28.28    1.62
   3   4   6   27.84    1.59
   3   4   6   26.62    1.60
  -5  -2  -6   11.40    0.90
  -5  -2  -6   12.80    1.02
   7  -5  -6   10.20    0.77
   2  -7   6   10.74    0.92
   5   2   6   12.07    0.83
   5   2   6   11.37    0.92
   6  -5  -6   14.15    0.83
  -5  -1  -6   14.02    0.96
  -1   6  -6   15.05    0.86
  -5  -1  -6   13.91    0.89
   6  -5  -6   13.91    0.94
  -1   6  -6   13.81    0.95
   1  -6   6   15.02    0.98
   5   1   6   15.46    0.99
  -6   5   6   13.18    1.58
   5   1   6   14.16    0.89
   0   5  -6   42.16    2.28
   5  -5  -6   40.76    2.32
   5  -5  -6   43.33    2.19
   5  -5  -6   42.95    2.19
   0   5  -6   43.44    2.20
  -5   0  -6   42.80    2.29
   0  -5   6   40.26    2.28
   5   0   6   42.34    2.30
   5   0   6   40.22    2.20
  -5   5   6   45.61    2.90
   5   0   6   38.06    2.27
   1   4  -6   16.14    0.93
   1   4  -6   16.71    0.99
   4  -5  -6   14.69    0.89
   4  -5  -6   16.53    0.92
   4  -5  -6   16.87    1.01
  -5   1  -6   15.62    0.93
   5  -1   6   13.65    1.24
   5  -1   6   16.88    1.02
   5  -1   6   16.45    0.90
   5  -1   6   16.27    1.03
  -4   5   6   16.81    1.53
  -1  -4   6   16.42    0.99
  -5   2  -6    5.52    0.41
   3  -5  -6    5.59    0.43
   3  -5  -6    5.18    0.49
   2   3  -6    4.85    0.46
   2   3  -6    5.59    0.43
  -2  -3   6    4.96    0.46
   5  -2   6    6.40    0.64
   5  -2   6    5.93    0.38
   5  -2   6    5.57    0.49
  -3   5   6    7.71    0.92
   5  -2   6    5.00    0.74
  -2  -3   6    6.22    0.47
   3   2  -6    9.94    0.66
   2  -5  -6    9.96    0.68
   3   2  -6   10.17    0.65
   2  -5  -6    9.90    0.65
  -3  -2   6   10.34    0.65
  -2   5   6    8.82    0.95
  -2   5   6    9.83    0.68
  -3  -2   6   10.34    0.63
   5  -3   6   11.60    0.77
   5  -3   6    8.92    0.70
  -3  -2   6   10.64    0.74
   5  -3   6    8.97    0.72
   5  -3   6   10.51    0.56
   1  -5  -6   16.56    1.05
  -5   4  -6   17.00    1.07
   1  -5  -6   17.53    0.97
   1  -5  -6   17.60    1.04
   4   1  -6   17.63    1.02
   4   1  -6   17.34    1.02
  -4  -1   6   17.58    0.94
  -4  -1   6   17.63    1.11
  -1   5   6   17.00    0.95
   5  -4   6   17.81    1.16
  -1   5   6   16.81    1.08
  -1   5   6   18.13    1.33
  -4  -1   6   19.22    1.01
   5  -4   6   17.55    1.03
  -1   5   6   17.13    1.03
   0  -5  -6   29.52    1.59
  -5   5  -6   27.81    1.66
   0  -5  -6   29.14    1.66
   5   0  -6   28.48    1.62
   5   0  -6   29.49    1.60
  -5   5  -6   30.11    1.67
   0   5   6   31.33    1.63
   5  -5   6   30.69    1.81
   0   5   6   29.09    1.58
   5  -5   6   28.98    1.64
  -5   0   6   29.55    1.71
  -5   6  -6   19.52    1.43
   6  -1  -6   22.77    1.26
   6  -1  -6   21.96    1.20
  -5   6  -6   20.08    1.32
  -1  -5  -6   22.11    1.32
  -1  -5  -6   22.70    1.25
   5  -6   6   22.49    1.39
   1   5   6   20.96    1.24
   1   5   6   20.90    1.25
  -6   1   6   21.69    1.39
  -2  -5  -6    9.03    0.82
  -2  -5  -6    8.56    0.74
  -5   7  -6   10.84    1.26
   7  -2  -6    9.27    0.73
  -7   2   6    8.30    0.95
   2   5   6    9.94    0.77
   5  -7   6    9.45    0.78
   2   5   6    8.98    0.75
   7  -6  -6    5.24    0.54
  -6  -1  -6    4.68    0.73
  -1   7  -6    4.52    0.63
   6   1   6    5.74    0.74
   6   1   6    4.81    0.60
   1  -7   6    5.08    0.73
  -7   6   6    5.81    1.61
   0   6  -6    2.12    0.46
   6   0   6    1.42    0.38
  -6   6   6    0.92    0.84
   6   0   6    1.57    0.49
   0  -6   6    0.54    0.32
   5  -6  -6   14.76    1.04
   1   5  -6   13.42    0.96
   5  -6  -6   15.05    0.89
   1   5  -6   14.96    0.92
   5  -6  -6   14.24    0.90
   6  -1   6   12.41    1.65
  -5   6   6   15.76    1.70
   6  -1   6   12.88    0.85
   6  -1   6   14.74    1.06
  -1  -5   6   14.34    0.97
   6  -1   6   14.73    1.00
   2   4  -6   10.32    0.77
   2   4  -6   10.20    0.74
   4  -6  -6   10.82    0.72
   4  -6  -6   10.76    0.72
   4  -6  -6   10.90    0.79
   6  -2   6   11.19    0.80
   6  -2   6   10.08    0.90
  -4   6   6   10.92    1.39
   6  -2   6   11.59    1.39
  -2  -4   6   11.40    0.87
   6  -2   6   11.68    0.67
  -2  -4   6   10.23    0.78
   3  -6  -6   11.10    0.81
   3  -6  -6   12.58    0.88
   3   3  -6   12.92    0.86
   3   3  -6   13.12    0.83
  -3   6   6   14.09    1.32
   6  -3   6   13.45    0.93
  -3  -3   6   13.01    0.83
   6  -3   6   13.50    0.74
  -3  -3   6   13.50    0.96
  -3  -3   6   11.98    0.84
   6  -3   6   13.31    1.16
   6  -3   6   13.01    1.07
   4   2  -6   10.45    0.79
   2  -6  -6   12.20    0.82
   4   2  -6   12.45    0.79
  -4  -2   6   12.05    0.74
   6  -4   6   11.77    0.92
   6  -4   6   13.18    0.95
  -2   6   6   11.46    1.17
  -4  -2   6   11.84    0.80
  -4  -2   6   12.44    0.91
   1  -6  -6   22.85    1.21
   1  -6  -6   22.16    1.30
   5   1  -6   21.55    1.27
   5   1  -6   22.84    1.27
  -1   6   6   21.44    1.28
  -1   6   6   20.64    1.16
  -1   6   6   20.11    1.64
  -5  -1   6   22.61    1.39
   6  -5   6   20.65    1.49
   6  -5   6   19.82    1.31
   6   0  -6    0.03    0.24
   0  -6  -6    0.11    0.31
   0   6   6    0.34    0.29
  -6   0   6    0.77    0.46
   6  -6   6   -0.34    0.48
   0   6   6    1.33    0.37
  -1  -6  -6    2.45    0.56
  -1  -6  -6    3.17    0.67
   7  -1  -6    3.52    0.57
   1   6   6    2.91    0.55
  -7   1   6    3.60    0.87
   1   6   6    3.33    0.59
   6  -7   6    2.38    0.64
   6  -7   6    2.98    0.73
   1   6  -6    5.39    0.68
   6  -7  -6    5.11    0.63
  -1  -6   6    6.58    0.77
  -6   7   6    6.98    1.72
   7  -1   6    4.40    0.76
   7  -1   6    5.91    0.59
   2   5  -6   10.49    0.91
   5  -7  -6   11.72    0.84
   2   5  -6   11.21    0.87
   7  -2   6   11.85    0.77
  -2  -5   6   11.30    0.91
  -5   7   6   11.16    1.81
  -2  -5   6   12.44    1.06
   7  -2   6   12.19    0.96
   3   4  -6   20.73    1.26
   3   4  -6   20.75    1.30
   4  -7  -6   19.38    1.24
   7  -3   6   21.45    1.15
  -3  -4   6   18.19    1.40
  -4   7   6   23.89    2.13
   7  -3   6   21.26    1.36
  -3  -4   6   19.04    1.26
   4   3  -6   26.90    1.61
   3  -7  -6   28.09    1.60
   4   3  -6   29.53    1.61
  -3   7   6   26.71    2.19
   7  -4   6   25.35    1.70
  -4  -3   6   27.84    1.55
  -4  -3   6   26.66    1.73
   5   2  -6   10.04    0.81
   2  -7  -6   10.04    0.83
   5   2  -6    9.35    0.79
   2  -7  -6   10.09    0.73
  -5  -2   6   10.99    0.97
  -2   7   6   10.46    1.37
   7  -5   6   12.14    1.12
   1  -7  -6    2.95    0.63
   6   1  -6    3.05    0.58
   6   1  -6    2.88    0.55
   1  -7  -6    1.75    0.51
  -6  -1   6    2.69    0.62
  -1   7   6    3.15    0.91
  -1   7   6    4.28    0.67
   7  -6   6    1.64    0.72
   0   0  -7   29.31    1.59
   0   0  -7   28.84    1.56
   0   0  -7   28.21    1.55
   0   0   7   27.73    1.58
   0   0   7   26.74    1.54
   0   0   7   29.94    1.57
   0   1  -7   36.88    2.01
   0   1  -7   36.15    1.99
   1  -1  -7   37.34    1.98
  -1   0  -7   43.77    2.01
   0   1  -7   35.75    1.98
   1  -1  -7   39.90    1.99
  -1   0  -7   42.11    1.95
  -1   0  -7   37.66    2.01
   1  -1  -7   38.39    2.15
  -1   1   7   38.40    1.97
   1   0   7   35.62    1.97
  -1   1   7   39.43    2.15
   1   0   7   34.22    1.94
   1   0   7   33.36    1.97
  -1   1   7   35.55    1.96
   0  -1   7   37.05    2.01
   0  -1   7   33.24    1.96
   1   0   7   43.31    2.04
  -1   1  -7   25.74    1.39
   0  -1  -7   21.42    1.31
   1   0  -7   26.81    1.36
   0  -1  -7   21.78    1.31
  -1   1  -7   24.18    1.34
   1   0  -7   28.16    1.46
  -1   1  -7   22.48    1.29
   1   0  -7   26.50    1.33
   0   1   7   24.48    1.34
   0   1   7   25.81    1.25
   0   1   7   26.96    1.42
   1  -1   7   24.19    1.38
  -1   0   7   20.44    1.33
   1  -1   7   21.47    1.33
   0   1   7   27.23    1.34
  -1   0   7   23.36    1.32
  -1  -1  -7   17.61    0.98
  -1   2  -7   19.06    1.03
  -1  -1  -7   17.86    1.05
  -1  -1  -7   18.79    1.02
  -1   2  -7   20.47    1.14
   2  -1  -7   18.57    1.07
   2  -1  -7   19.26    1.29
   2  -1  -7   18.99    1.01
  -1  -1  -7   19.95    1.04
  -2   1   7   18.26    1.25
   1  -2   7   19.04    1.03
  -2   1   7   18.00    1.00
   1   1   7   17.78    1.02
   1   1   7   18.65    1.07
   1   1   7   19.03    1.00
   1  -2   7   17.47    1.10
   1   1   7   17.35    1.00
  -1   3  -7   29.31    1.48
  -1   3  -7   29.30    1.55
  -2  -1  -7   30.51    1.59
   3  -2  -7   27.23    1.49
  -2  -1  -7   28.95    1.51
  -2  -1  -7   30.23    1.53
   3  -2  -7   29.73    1.53
   3  -2  -7   26.24    1.88
  -3   2   7   24.75    1.50
   2   1   7   30.20    1.59
   1  -3   7   29.03    1.54
  -3   2   7   32.62    1.90
   1  -3   7   28.49    1.61
   2   1   7   27.80    1.51
   2   1   7   28.27    1.55
   2   1   7   27.60    1.54
   2  -2  -7  357.37   15.83
  -2   0  -7  299.62   15.45
  -2   0  -7  309.17   15.51
  -2   0  -7  308.13   15.54
   0   2  -7  337.66   15.53
   0   2  -7  289.50   15.49
   2  -2  -7  282.68   15.46
  -2   2   7  318.56   15.45
   0  -2   7  314.77   15.54
   2   0   7  314.83   15.55
   2   0   7  306.13   15.45
   2   0   7  294.41   15.49
  -2   2   7  314.52   15.78
   0  -2   7  305.49   15.48
   1  -2  -7   17.80    1.04
   1  -2  -7   18.04    1.01
   1   1  -7   19.02    1.03
  -2   1  -7   17.79    1.04
  -2   1  -7   19.40    1.07
   1   1  -7   17.98    1.10
  -2   1  -7   19.20    0.98
   1  -2  -7   18.37    0.99
   1   1  -7   19.36    1.05
  -1   2   7   18.50    1.02
   2  -1   7   18.18    1.05
  -1  -1   7   19.15    1.03
  -1   2   7   18.76    1.02
   2  -1   7   18.87    1.09
  -1   2   7   17.75    1.19
   2  -1   7   17.05    1.05
   2   0  -7  408.01   19.99
  -2   2  -7  425.54   19.94
   0  -2  -7  403.33   20.01
   0  -2  -7  435.37   20.01
   2   0  -7  392.99   20.16
  -2   2  -7  415.54   19.99
   2   0  -7  376.71   20.02
   0  -2  -7  411.98   19.93
  -2   2  -7  397.96   20.07
   0  -2  -7  427.83   19.98
  -2   0   7  385.56   19.98
   0   2   7  375.93   20.10
   2  -2   7  425.20   20.00
   0   2   7  415.59   20.01
   0   2   7  371.67   19.98
   0   2   7  381.99   19.97
   2  -2   7  384.00   20.08
  -2   3  -7   19.12    1.07
   3  -1  -7   19.50    0.97
  -2   3  -7   15.86    0.84
   3  -1  -7   17.78    0.91
  -1  -2  -7   14.29    0.92
  -2   3  -7   14.57    0.85
  -1  -2  -7   17.27    0.93
  -1  -2  -7   15.35    0.87
  -2   3  -7   15.14    0.91
   1   2   7   16.75    0.91
  -3   1   7   16.57    0.92
   1   2   7   17.30    0.97
   2  -3   7   13.28    0.99
   2  -3   7   15.46    0.92
   1   2   7   16.72    0.92
   4  -2  -7   18.55    1.56
  -2  -2  -7   18.34    1.04
   4  -2  -7   19.25    1.06
   4  -2  -7   19.00    1.01
  -2  -2  -7   17.83    1.06
  -2   4  -7   20.60    1.21
  -2   4  -7   18.25    1.03
  -2  -2  -7   17.36    1.01
   2   2   7   17.73    1.04
   2   2   7   17.71    1.09
   2  -4   7   17.38    1.04
   2  -4   7   17.95    1.11
  -4   2   7   16.73    1.04
   2   2   7   18.57    1.02
   5  -3  -7   20.48    1.10
  -3  -2  -7   20.25    1.14
  -2   5  -7   20.10    1.15
  -2   5  -7   19.44    1.04
   5  -3  -7   20.01    1.10
  -3  -2  -7   20.53    1.15
  -3  -2  -7   20.81    1.19
  -2   5  -7   17.09    1.32
   5  -3  -7   20.77    1.13
   2  -5   7   19.25    1.18
   3   2   7   19.68    1.12
   3   2   7   19.21    1.16
  -1   4  -7   13.87    0.82
  -3  -1  -7   13.46    0.81
  -3  -1  -7   13.09    0.80
  -3  -1  -7   11.21    0.85
   4  -3  -7   13.80    0.78
  -3  -1  -7   13.24    0.80
   4  -3  -7   13.70    0.75
   4  -3  -7   14.61    0.76
  -1   4  -7   12.93    0.74
  -4   3   7   13.03    1.20
   3   1   7   14.01    0.88
   1  -4   7   13.68    0.85
   3   1   7   13.82    0.84
   3   1   7   15.16    0.90
   3   1   7   13.85    0.78
   3  -3  -7   13.42    1.20
   3  -3  -7   13.44    0.71
   0   3  -7   15.33    0.88
  -3   0  -7   12.95    0.80
  -3   0  -7   13.59    0.78
   0   3  -7   12.92    0.75
   3  -3  -7   13.19    0.77
  -3   0  -7   13.51    0.85
   0   3  -7   12.85    0.81
   3   0   7   13.70    0.83
   3   0   7   14.63    0.89
   3   0   7   14.12    0.86
   0  -3   7   13.79    0.83
   0  -3   7   13.42    0.82
   3   0   7   14.39    0.77
  -3   3   7   14.61    1.17
  -3   1  -7   30.97    1.49
  -3   1  -7   31.37    1.59
   2  -3  -7   29.57    1.58
  -3   1  -7   27.44    1.52
   1   2  -7   29.08    1.51
   2  -3  -7   28.95    1.52
   1   2  -7   28.01    1.55
   1   2  -7   30.17    1.55
   3  -1   7   26.05    1.58
  -1  -2   7   31.09    1.54
  -2   3   7   28.55    1.50
   3  -1   7   28.22    1.48
  -2   3   7   25.06    1.78
  -1  -2   7   26.93    1.53
   3  -1   7   27.50    1.56
  -3   2  -7   15.14    0.84
   1  -3  -7   15.93    0.91
   2   1  -7   15.63    0.90
  -3   2  -7   15.90    0.88
   2   1  -7   17.39    0.93
   2   1  -7   15.76    0.92
  -3   2  -7   15.30    0.97
   1  -3  -7   15.62    0.93
  -1   3   7   17.69    1.12
   3  -2   7   17.38    1.01
  -2  -1   7   14.58    0.91
   3  -2   7   18.04    0.99
  -1   3   7   17.09    0.92
  -2  -1   7   15.87    0.89
   3  -2   7   13.95    0.93
  -3   3  -7   19.20    1.14
  -3   3  -7   18.67    1.01
   3   0  -7   18.84    1.06
   3   0  -7   18.24    1.29
   0  -3  -7   19.43    1.06
   3   0  -7   18.52    1.06
   0  -3  -7   18.86    1.06
   0  -3  -7   19.25    0.99
   3  -3   7   17.09    1.15
  -3   0   7   20.27    1.04
  -3   0   7   18.43    1.07
   3  -3   7   18.71    1.05
   0   3   7   19.10    1.05
   0   3   7   18.47    1.02
   0   3   7   18.31    1.08
  -3   0   7   18.21    0.99
  -3   4  -7   23.99    1.25
  -3   4  -7   21.97    1.35
  -1  -3  -7   23.33    1.30
   4  -1  -7   21.44    1.85
   4  -1  -7   21.28    1.28
  -1  -3  -7   24.72    1.31
  -1  -3  -7   24.50    1.24
   3  -4   7   24.15    1.29
   1   3   7   23.15    1.27
  -4   1   7   22.08    1.30
   1   3   7   22.35    1.26
   1   3   7   22.63    1.33
   3  -4   7   24.02    1.40
   5  -2  -7   13.25    0.82
  -2  -3  -7   12.45    0.85
  -3   5  -7   13.38    0.80
  -2  -3  -7   13.39    0.80
  -3   5  -7   13.35    1.01
  -3   5  -7   15.38    1.07
   2   3   7   14.29    0.82
   3  -5   7   13.56    0.92
   3  -5   7   11.93    0.87
   2   3   7   13.04    0.83
  -5   2   7   13.17    0.89
  -3  -3  -7    6.25    0.61
   6  -3  -7    6.22    0.55
  -3  -3  -7    6.13    0.56
   6  -3  -7    6.88    0.56
  -3   6  -7    7.71    0.94
   6  -3  -7    6.47    0.61
   3   3   7    7.16    0.56
   3   3   7    6.40    0.58
   3  -6   7    7.37    0.62
  -3   7  -7    8.73    1.39
  -4  -3  -7   12.00    0.87
   7  -4  -7   10.98    0.80
   7  -4  -7   11.69    0.84
  -4  -3  -7   12.69    1.00
   4   3   7   11.27    0.83
   4   3   7   11.32    0.89
   3  -7   7   11.62    0.91
   6  -4  -7   88.94    4.58
  -4  -2  -7   92.50    4.65
   6  -4  -7   99.65    4.57
  -2   6  -7   89.83    4.65
   6  -4  -7   91.71    4.60
  -4  -2  -7   86.15    4.61
   6  -4  -7   78.96    4.57
  -4  -2  -7   83.34    4.69
  -2   6  -7   91.06    4.53
   2  -6   7   93.36    4.70
   4   2   7   93.08    4.68
   4   2   7   92.76    4.62
  -4  -1  -7   11.39    0.73
  -1   5  -7   11.50    0.78
   5  -4  -7   11.17    0.66
  -4  -1  -7   12.39    0.78
   5  -4  -7   12.14    0.70
   5  -4  -7   11.50    0.70
  -1   5  -7   11.80    0.69
  -4  -1  -7   13.35    0.88
   1  -5   7   11.61    0.80
   4   1   7   11.38    0.80
   4   1   7   11.13    0.72
  -5   4   7   12.23    1.31
   4  -4  -7  221.72   10.75
   4  -4  -7  232.16   10.71
  -4   0  -7  220.86   10.81
   0   4  -7  217.41   10.74
   0   4  -7  203.65   10.83
  -4   0  -7  225.40   10.73
  -4   0  -7  195.49   10.77
   0   4  -7  219.41   10.82
  -4   0  -7  215.71   10.76
   0  -4   7  210.65   10.79
  -4   4   7  231.98   11.34
   4   0   7  214.85   10.83
   4   0   7  204.04   10.85
   4   0   7  205.00   10.82
   0  -4   7  210.99   10.82
   4   0   7  213.73   10.75
   1   3  -7   14.99    0.90
  -4   1  -7   13.93    0.77
  -4   1  -7   13.78    0.79
   1   3  -7   13.66    0.80
   1   3  -7   13.52    0.85
   3  -4  -7   13.95    0.81
   3  -4  -7   13.54    0.74
   3  -4  -7   11.44    0.88
  -4   1  -7   13.80    0.75
  -1  -3   7   12.95    0.84
   4  -1   7   14.70    0.95
   4  -1   7   14.37    0.79
  -3   4   7   15.80    1.28
  -3   4   7   14.79    0.76
   4  -1   7   14.25    0.87
   4  -1   7   15.73    0.96
  -1  -3   7   13.64    0.85
   2   2  -7   18.18    1.07
   2   2  -7   18.14    1.04
  -4   2  -7   17.87    0.96
  -4   2  -7   18.72    1.09
   2  -4  -7   18.57    1.03
   2   2  -7   18.11    1.02
   2  -4  -7   17.71    1.06
  -2  -2   7   17.93    1.02
  -2  -2   7   16.80    1.02
  -2   4   7   18.25    1.32
   4  -2   7   17.73    1.07
   4  -2   7   18.59    0.96
   4  -2   7   18.78    1.06
   4  -2   7   16.74    1.14
  -2   4   7   18.04    1.01
   4  -2   7   19.25    1.14
   3   1  -7   23.00    1.33
   3   1  -7   22.67    1.54
   1  -4  -7   24.54    1.23
  -4   3  -7   24.48    1.37
   1  -4  -7   25.23    1.32
   3   1  -7   24.06    1.30
   3   1  -7   24.00    1.31
   1  -4  -7   24.05    1.32
   4  -3   7   21.34    1.37
   4  -3   7   24.82    1.32
   4  -3   7   20.11    1.42
  -1   4   7   21.78    1.52
  -1   4   7   23.41    1.32
  -1   4   7   22.18    1.24
  -3  -1   7   23.41    1.35
  -3  -1   7   27.67    1.34
  -3  -1   7   23.54    1.26
   0  -4  -7  144.87    7.71
   4   0  -7  150.89    7.72
  -4   4  -7  152.08    7.63
  -4   4  -7  151.94    7.79
   0  -4  -7  154.59    7.75
   0  -4  -7  152.49    7.66
   4   0  -7  155.48    7.71
  -4   0   7  153.61    7.76
   0   4   7  155.81    7.72
   4  -4   7  151.32    7.71
   0   4   7  149.64    7.75
   0   4   7  156.99    7.68
   4  -4   7  162.68    7.87
   5  -1  -7    8.35    0.56
   5  -1  -7    7.31    0.58
  -1  -4  -7    8.04    0.55
  -1  -4  -7    9.04    0.64
  -4   5  -7    9.77    0.74
  -4   5  -7    6.83    0.73
   4  -5   7    7.52    0.73
   1   4   7    8.12    0.57
  -5   1   7    8.57    0.68
   1   4   7    8.59    0.59
   4  -5   7    6.94    0.67
   6  -2  -7  133.53    6.65
  -2  -4  -7  137.13    6.64
  -4   6  -7  123.79    6.89
   6  -2  -7  134.53    6.60
  -2  -4  -7  132.89    6.69
   4  -6   7  133.91    6.73
   2   4   7  131.23    6.65
   2   4   7  126.75    6.64
  -6   2   7  124.13    6.72
   7  -3  -7    5.94    0.58
  -3  -4  -7    5.35    0.63
   7  -3  -7    6.18    0.66
  -3  -4  -7    5.96    0.70
   3   4   7    5.61    0.65
   3   4   7    7.38    0.66
   4  -7   7    5.57    0.69
   7  -5  -7    4.80    0.56
  -5  -2  -7    5.89    0.68
  -5  -2  -7    7.42    0.90
   5   2   7    5.00    0.63
   2  -7   7    5.03    0.74
   5   2   7    6.51    0.71
  -1   6  -7   13.60    0.85
  -5  -1  -7   13.45    0.96
   6  -5  -7   14.95    0.84
  -5  -1  -7   13.51    0.91
  -1   6  -7   13.25    0.95
   1  -6   7   13.42    0.97
  -6   5   7   16.55    1.65
   5   1   7   13.44    0.97
   5   1   7   13.23    0.87
  -5   0  -7    7.44    0.65
   5  -5  -7    8.44    0.57
   5  -5  -7    6.11    0.88
   5  -5  -7    8.09    0.57
   0   5  -7    8.65    0.66
   0   5  -7    8.29    0.58
   5   0   7    8.83    0.58
  -5   5   7    8.65    1.24
   0  -5   7    9.21    0.68
   5   0   7    7.91    0.67
  -5   1  -7   10.76    0.71
   4  -5  -7   11.94    0.66
   4  -5  -7   11.69    0.71
   1   4  -7    9.93    0.76
   4  -5  -7   11.66    0.85
   1   4  -7   11.90    0.72
  -4   5   7   11.87    1.29
   5  -1   7   10.02    0.88
   5  -1   7   11.01    1.05
   5  -1   7   11.70    0.80
  -1  -4   7   11.93    0.78
   5  -1   7   10.98    0.68
  -5   2  -7   20.50    1.09
   3  -5  -7   19.19    1.13
   3  -5  -7   20.87    1.06
   2   3  -7   19.79    1.17
   3  -5  -7   20.23    1.18
   2   3  -7   19.51    1.13
  -2  -3   7   19.39    1.15
  -2  -3   7   20.52    1.16
   5  -2   7   20.13    1.34
   5  -2   7   20.98    1.30
  -3   5   7   17.63    1.54
   5  -2   7   20.60    1.08
   5  -2   7   18.85    1.19
   2  -5  -7   12.15    0.85
   3   2  -7   12.49    0.81
   2  -5  -7   12.80    0.82
   3   2  -7   12.81    0.82
  -3  -2   7   12.54    0.90
  -2   5   7   14.17    0.84
   5  -3   7   14.20    0.82
  -2   5   7   14.31    1.17
  -3  -2   7   12.30    0.81
   5  -3   7   13.41    0.90
   5  -3   7   11.68    0.95
   5  -3   7   13.96    0.72
  -3  -2   7   13.57    0.80
   1  -5  -7    8.25    0.61
   1  -5  -7    7.66    0.50
   4   1  -7    7.28    0.58
   4   1  -7    8.63    0.59
  -4  -1   7    8.01    0.50
  -4  -1   7    7.77    0.68
   5  -4   7    7.51    0.64
  -4  -1   7    7.62    0.57
  -1   5   7    8.58    0.51
  -1   5   7    8.04    0.60
  -1   5   7    8.89    0.90
   5  -4   7    9.00    0.77
   5   0  -7   14.60    0.93
   5   0  -7   15.59    0.91
   0  -5  -7   14.53    0.96
   0  -5  -7   15.73    0.88
   0   5   7   14.36    0.93
   5  -5   7   17.00    1.15
   5  -5   7   14.95    1.00
   0   5   7   15.46    0.89
  -5   0   7   12.84    1.01
   6  -1  -7    7.63    0.62
  -5   6  -7    9.44    0.78
  -1  -5  -7    6.74    0.68
   6  -1  -7    7.83    0.58
  -1  -5  -7    7.14    0.60
   5  -6   7    6.77    0.83
   1   5   7    8.17    0.65
   1   5   7    7.86    0.61
  -6   1   7    7.49    0.81
  -2  -5  -7    9.52    0.77
   7  -2  -7   10.18    0.79
  -2  -5  -7    9.94    0.87
   2   5   7    9.80    0.78
  -7   2   7    9.04    0.98
   5  -7   7    8.60    0.83
   2   5   7   10.76    0.81
  -6  -1  -7    5.55    0.80
   1  -7   7    4.93    0.79
   6   1   7    6.33    0.80
  -7   6   7    5.75    1.67
   6   1   7    5.30    0.65
  -6   0  -7    7.61    0.78
   0   6  -7    8.45    0.70
   6  -6  -7    9.38    0.69
   0   6  -7    9.59    0.81
   0  -6   7    9.43    0.82
  -6   6   7    8.88    1.61
   6   0   7    8.60    0.79
   6   0   7    8.61    0.66
   5  -6  -7   14.93    0.88
   5  -6  -7   14.77    1.07
   1   5  -7   12.41    0.88
   1   5  -7   13.01    0.94
   6  -1   7   12.46    1.63
  -5   6   7   13.23    1.65
   6  -1   7   14.36    0.98
  -1  -5   7   12.55    0.94
   6  -1   7   13.76    0.84
   4  -6  -7   90.64    4.77
   4  -6  -7   83.23    4.78
  -6   2  -7   87.92    4.73
   4  -6  -7   90.72    4.70
   2   4  -7   89.92    4.83
   2   4  -7   91.50    4.77
   6  -2   7   94.62    4.71
   6  -2   7  101.91    5.14
  -2  -4   7   95.72    4.82
   6  -2   7   92.18    4.87
   6  -2   7   96.68    4.87
  -4   6   7  104.15    5.53
   3  -6  -7    5.98    0.55
   3   3  -7    6.33    0.59
   3   3  -7    6.83    0.55
  -3  -3   7    6.33    0.69
  -3  -3   7    6.95    0.57
  -3   6   7    7.23    1.07
   6  -3   7    7.15    0.95
  -3  -3   7    7.13    0.62
   6  -3   7    6.45    0.81
   6  -3   7    7.05    0.66
   6  -3   7    7.06    0.46
   4   2  -7  130.78    6.74
   2  -6  -7  133.78    6.76
   4   2  -7  137.44    6.77
   2  -6  -7  140.09    6.66
   6  -4   7  123.25    6.84
  -2   6   7  122.27    7.13
  -4  -2   7  133.01    6.84
  -4  -2   7  135.57    6.73
   6  -4   7  137.78    6.82
  -4  -2   7  132.33    6.69
   5   1  -7    6.44    0.61
   5   1  -7    7.48    0.63
   1  -6  -7    7.34    0.55
   1  -6  -7    8.21    0.69
   6  -5   7    9.76    0.97
  -1   6   7    8.37    1.05
  -5  -1   7    8.16    0.78
  -1   6   7    7.84    0.66
   6  -5   7    6.72    0.79
  -1   6   7    7.97    0.54
   0  -6  -7    9.95    0.68
   6   0  -7    8.55    0.69
   6   0  -7    8.69    0.73
   0  -6  -7    8.43    0.79
   0   6   7    9.31    0.67
   0   6   7    8.83    0.75
   6  -6   7    8.10    1.04
  -6   0   7    8.79    0.90
   7  -1  -7    9.99    0.85
  -1  -6  -7   10.59    0.84
  -1  -6  -7   10.66    0.95
  -7   1   7    9.42    1.12
   6  -7   7    9.91    1.06
   1   6   7   10.71    0.83
   6  -7   7    9.85    0.91
   1   6   7    9.13    0.87
   1   6  -7    6.21    0.80
   1   6  -7    7.04    0.77
   6  -7  -7    5.67    0.71
  -6   7   7    6.14    1.78
  -1  -6   7    6.81    0.82
   7  -1   7    6.39    0.64
   7  -1   7    6.77    0.86
   2   5  -7    5.43    0.68
   5  -7  -7    4.97    0.62
   2   5  -7    6.62    0.71
  -2  -5   7    5.56    0.88
   7  -2   7    5.20    0.77
  -5   7   7    5.82    1.63
   7  -2   7    5.34    0.56
  -2  -5   7    5.60    0.70
   4  -7  -7   10.47    0.83
   3   4  -7   10.45    0.83
   3   4  -7   11.33    0.89
   7  -3   7   11.98    0.72
  -4   7   7    9.22    1.63
   7  -3   7   10.58    0.95
  -3  -4   7   11.31    0.86
  -3  -4   7   10.94    1.05
   4   3  -7    7.20    0.66
   4   3  -7    5.35    0.64
   3  -7  -7    6.17    0.65
  -4  -3   7    5.56    0.83
  -4  -3   7    5.44    0.62
   5   2  -7    9.97    0.83
   2  -7  -7    9.73    0.85
   5   2  -7   10.39    0.82
   2  -7  -7   10.20    0.73
  -5  -2   7   11.77    1.01
   7  -5   7    8.70    1.15
  -2   7   7   11.04    1.43
   6   1  -7   10.95    0.86
   6   1  -7   10.64    0.91
   1  -7  -7    9.49    0.95
  -6  -1   7    9.56    1.10
  -1   7   7   11.15    1.46
   7  -6   7   11.76    1.27
   0   0  -8  160.19    8.67
   0   0  -8  179.87    8.73
   0   0   8  164.49    8.67
   0   0   8  187.29    8.70
   0   0   8  169.81    8.72
  -1   0  -8  170.59    7.99
   0   1  -8  151.04    7.97
   1  -1  -8  168.70    7.96
  -1   0  -8  165.09    7.92
  -1   0  -8  164.62    7.99
   0   1  -8  146.97    7.97
   1  -1  -8  156.95    7.97
   0   1  -8  146.20    7.98
   1  -1  -8  169.12    8.14
   1   0   8  179.94    8.02
   0  -1   8  145.07    7.98
   1   0   8  145.36    7.91
   1   0   8  153.00    7.96
  -1   1   8  152.81    7.95
  -1   1   8  166.46    8.13
  -1   1   8  149.62    7.94
   1   0   8  147.95    7.96
   0  -1   8  166.35    7.97
  -1   1  -8  125.00    6.42
   0  -1  -8  118.31    6.39
   1   0  -8  131.09    6.40
   1   0  -8  137.14    6.55
   0  -1  -8  110.41    6.40
   0  -1  -8  115.46    6.38
  -1   1  -8  138.42    6.47
  -1   1  -8  133.86    6.37
   1   0  -8  127.35    6.43
   0   1   8  128.82    6.50
   1  -1   8  115.52    6.42
   1  -1   8  126.19    6.45
   0   1   8  132.44    6.42
  -1   0   8  135.58    6.43
   0   1   8  128.93    6.41
   0   1   8  131.34    6.31
  -1   0   8  117.88    6.40
  -1   2  -8    6.29    0.53
   2  -1  -8    5.38    0.40
  -1   2  -8    5.72    0.38
  -1  -1  -8    5.28    0.44
   2  -1  -8    5.85    0.46
  -1   2  -8    5.71    0.42
   2  -1  -8    6.61    0.69
  -1  -1  -8    6.03    0.44
  -1  -1  -8    5.72    0.41
   1   1   8    6.05    0.46
   1   1   8    5.35    0.38
   1   1   8    5.74    0.48
   1   1   8    5.55    0.41
  -2   1   8    5.38    0.61
   1  -2   8    5.10    0.48
  -2   1   8    5.53    0.35
   1  -2   8    5.60    0.43
   1   1   8    5.57    0.39
  -2   1   8    5.62    0.41
  -1   3  -8  102.31    5.16
  -1   3  -8   90.60    5.24
   3  -2  -8   99.02    5.12
   3  -2  -8  101.69    5.52
   3  -2  -8   99.26    5.16
  -2  -1  -8  103.39    5.12
  -2  -1  -8  106.34    5.22
  -1   3  -8  102.87    5.09
  -2  -1  -8  106.00    5.14
   1  -3   8  102.73    5.24
   2   1   8   98.06    5.12
  -3   2   8  110.83    5.53
   2   1   8   97.38    5.15
   1  -3   8  108.45    5.17
   2   1   8  101.17    5.16
  -3   2   8   98.11    5.10
   2   1   8   99.36    5.21
   2  -2  -8  435.35   21.34
  -2   0  -8  443.77   21.32
  -2   0  -8  464.55   21.39
   2  -2  -8  462.64   21.67
   0   2  -8  430.23   21.37
  -2   0  -8  442.33   21.40
   0   2  -8  402.66   21.39
   2  -2  -8  414.76   21.34
   2   0   8  402.09   21.31
  -2   2   8  427.42   21.63
   2   0   8  405.27   21.35
  -2   2   8  440.77   21.32
   2   0   8  421.98   21.41
   0  -2   8  423.55   21.41
   2   0   8  407.22   21.36
   0  -2   8  441.45   21.35
   1  -2  -8    5.71    0.42
   1  -2  -8    5.71    0.41
   1   1  -8    5.52    0.44
   1  -2  -8    5.69    0.47
  -2   1  -8    6.58    0.50
   1   1  -8    5.99    0.45
  -2   1  -8    4.78    0.44
   2  -1   8    5.55    0.45
  -1   2   8    5.73    0.59
   2  -1   8    6.23    0.48
   2  -1   8    6.82    0.54
  -1   2   8    6.60    0.43
  -1  -1   8    6.03    0.45
  -1   2   8    6.51    0.44
   2   0  -8  366.06   17.36
   0  -2  -8  347.91   17.14
  -2   2  -8  326.56   17.23
   2   0  -8  346.22   17.15
   0  -2  -8  345.65   17.16
   2   0  -8  319.21   17.19
   0  -2  -8  328.06   17.17
  -2   2  -8  329.53   17.10
  -2   2  -8  354.70   17.16
   0   2   8  371.94   17.19
  -2   0   8  371.29   17.19
   0   2   8  346.17   17.29
   2  -2   8  354.06   17.26
   2  -2   8  336.48   17.17
  -2   0   8  326.76   17.13
   0   2   8  340.50   17.14
  -2   3  -8   89.53    4.15
  -2   3  -8   75.00    3.94
   3  -1  -8   84.15    4.36
   3  -1  -8   84.67    4.05
   3  -1  -8   82.05    4.00
  -2   3  -8   76.87    4.00
  -1  -2  -8   76.21    3.95
  -1  -2  -8   72.46    4.02
  -1  -2  -8   77.52    4.01
   1   2   8   80.31    4.06
  -3   1   8   75.98    3.98
  -3   1   8   76.50    3.93
   2  -3   8   78.21    4.01
   1   2   8   78.18    4.00
   1   2   8   76.73    3.99
  -3   1   8   76.14    3.93
   2  -3   8   75.48    4.11
  -2   4  -8   93.17    4.53
  -2   4  -8   83.56    4.27
  -2   4  -8   86.38    4.37
   4  -2  -8   88.54    4.34
   4  -2  -8   90.99    4.40
  -2  -2  -8   86.84    4.34
  -2  -2  -8   84.79    4.37
  -2  -2  -8   83.22    4.41
   2   2   8   84.09    4.35
   2   2   8   85.60    4.38
   2  -4   8   86.48    4.38
  -4   2   8   80.47    4.36
   2  -4   8   81.98    4.46
   2   2   8   82.21    4.42
  -3  -2  -8   90.76    4.64
   5  -3  -8   90.61    4.60
  -2   5  -8   88.74    4.66
  -3  -2  -8   95.70    4.72
  -2   5  -8   89.93    4.54
   5  -3  -8   92.51    4.66
  -3  -2  -8   90.48    4.65
   3   2   8   87.83    4.67
  -3  -1  -8   70.69    3.74
  -1   4  -8   71.97    3.77
   4  -3  -8   67.49    3.72
   4  -3  -8   74.72    3.70
  -1   4  -8   73.28    3.68
  -3  -1  -8   69.93    3.73
  -1   4  -8   76.39    3.88
  -3  -1  -8   69.26    3.82
   3   1   8   71.87    3.72
  -4   3   8   75.40    4.20
   3   1   8   76.77    3.82
   3   1   8   75.46    3.78
   3   1   8   75.49    3.81
   3  -3  -8    4.90    0.36
   0   3  -8    4.98    0.41
  -3   0  -8    4.32    0.36
   0   3  -8    4.74    0.34
   3  -3  -8    4.42    0.35
   0   3  -8    4.10    0.48
   3  -3  -8    4.01    0.80
  -3   0  -8    4.79    0.44
   3   0   8    3.73    0.50
   3   0   8    4.77    0.34
  -3   3   8    4.69    0.70
   3   0   8    4.40    0.39
  -3   3   8    4.48    0.29
   3   0   8    4.63    0.48
   0  -3   8    4.82    0.41
  -3   1  -8  110.59    5.17
   1   2  -8  105.19    5.14
  -3   1  -8  106.20    5.06
   1   2  -8   99.47    5.13
   1   2  -8  103.70    5.08
   2  -3  -8  106.61    5.10
   2  -3  -8  107.70    5.03
   2  -3  -8   99.11    5.14
  -3   1  -8   91.15    5.10
  -2   3   8   90.64    5.06
   3  -1   8   96.28    5.13
   3  -1   8   92.40    5.14
  -2   3   8   94.55    5.41
   3  -1   8   99.08    5.05
  -1  -2   8  103.00    5.11
  -1  -2   8  103.57    5.12
   2   1  -8   82.22    4.02
   1  -3  -8   77.32    4.03
   1  -3  -8   75.92    4.01
  -3   2  -8   79.74    3.98
  -3   2  -8   76.39    3.93
   2   1  -8   78.43    4.03
  -3   2  -8   75.07    4.07
   2   1  -8   82.69    4.18
  -2  -1   8   72.81    4.02
   3  -2   8   74.26    4.05
  -1   3   8   80.58    3.99
  -1   3   8   80.36    4.23
  -2  -1   8   80.78    3.99
  -1   3   8   82.11    4.01
   3  -2   8   76.43    4.08
   3  -2   8   79.77    4.08
   3   0  -8    4.31    0.66
   0  -3  -8    3.63    0.38
   3   0  -8    3.61    0.36
   0  -3  -8    3.85    0.26
  -3   3  -8    3.22    0.47
   3   0  -8    4.61    0.38
  -3   3  -8    3.57    0.31
   0  -3  -8    3.74    0.35
   3  -3   8    3.62    0.38
   3  -3   8    4.12    0.47
   0   3   8    3.57    0.32
   0   3   8    4.50    0.43
  -3   0   8    3.61    0.37
  -3   0   8    3.45    0.28
   0   3   8    3.67    0.33
  -3   0   8    3.99    0.35
   0   3   8    4.05    0.49
   4  -1  -8   95.25    4.71
  -1  -3  -8   94.80    4.75
  -3   4  -8   91.99    4.83
  -1  -3  -8   98.72    4.67
   4  -1  -8   81.53    5.06
   4  -1  -8   82.33    4.72
  -3   4  -8   94.44    4.69
   1   3   8   95.34    4.71
   3  -4   8   98.97    4.86
  -4   1   8   88.82    4.73
   1   3   8   88.21    4.77
   3  -4   8   98.59    4.73
   1   3   8   93.57    4.72
   5  -2  -8   63.33    3.38
  -2  -3  -8   65.97    3.43
  -3   5  -8   67.49    3.55
   5  -2  -8   68.05    3.37
  -3   5  -8   66.27    3.36
  -2  -3  -8   65.71    3.36
   2   3   8   66.55    3.38
   2   3   8   64.01    3.38
  -5   2   8   63.10    3.42
   3  -5   8   61.09    3.47
  -3   6  -8    3.89    0.48
   6  -3  -8    2.88    0.50
  -3  -3  -8    2.60    0.45
  -3  -3  -8    4.14    0.57
  -3   6  -8    4.45    0.79
   6  -3  -8    3.85    0.48
   6  -3  -8    3.06    0.44
   3   3   8    3.18    0.46
   3   3   8    3.44    0.43
   3  -6   8    3.82    0.54
   7  -4  -8   28.36    1.69
  -4  -3  -8   31.15    1.85
  -3   7  -8   29.72    2.20
  -4  -3  -8   30.99    1.74
   3  -7   8   30.68    1.82
   4   3   8   29.33    1.76
   4   3   8   28.90    1.72
  -2   6  -8  137.78    7.06
   6  -4  -8  145.61    7.12
  -4  -2  -8  146.68    7.27
  -4  -2  -8  134.01    7.15
   6  -4  -8  140.13    7.16
   6  -4  -8  147.06    7.12
  -2   6  -8  144.14    7.20
  -4  -2  -8  145.98    7.19
   2  -6   8  136.28    7.24
   4   2   8  140.12    7.16
   4   2   8  137.79    7.21
  -4  -1  -8    3.71    0.55
  -4  -1  -8    2.98    0.38
   5  -4  -8    2.90    0.33
   5  -4  -8    2.94    0.31
  -4  -1  -8    3.38    0.42
  -1   5  -8    2.23    0.40
  -1   5  -8    2.49    0.30
   1  -5   8    2.92    0.44
   4   1   8    2.49    0.41
  -5   4   8    3.72    0.90
   4   1   8    2.40    0.34
  -4   0  -8  193.16    9.61
   4  -4  -8  195.12    9.65
   4  -4  -8  186.96    9.48
  -4   0  -8  184.46    9.56
  -4   0  -8  188.07    9.53
   0   4  -8  191.56    9.54
   0   4  -8  182.56    9.61
   4  -4  -8  193.69    9.56
  -4   0  -8  188.48    9.59
   4   0   8  195.29    9.55
   4   0   8  187.46    9.66
   4   0   8  184.08    9.66
   0  -4   8  193.48    9.63
   4   0   8  193.12    9.64
  -4   4   8  204.66   10.13
   3  -4  -8   73.18    3.71
   3  -4  -8   61.38    3.76
  -4   1  -8   73.19    3.69
   1   3  -8   72.73    3.78
  -4   1  -8   72.61    3.68
   1   3  -8   71.92    3.70
   1   3  -8   72.50    3.76
   4  -1   8   74.26    3.82
   4  -1   8   73.47    3.83
  -1  -3   8   74.87    3.76
   4  -1   8   74.75    3.78
   4  -1   8   74.61    3.68
  -1  -3   8   69.35    3.73
  -3   4   8   75.35    3.66
  -4   2  -8   85.75    4.43
   2   2  -8   87.26    4.39
   2  -4  -8   86.33    4.37
   2   2  -8   85.05    4.35
  -4   2  -8   85.54    4.29
   2  -4  -8   86.78    4.40
  -4   2  -8   81.95    4.29
   4  -2   8   87.92    4.30
   4  -2   8   78.36    4.45
   4  -2   8   84.69    4.42
  -2   4   8   88.83    4.35
  -2   4   8   81.57    4.68
  -2  -2   8   83.69    4.36
   4  -2   8   93.88    4.47
  -2  -2   8   84.09    4.36
   1  -4  -8   96.97    4.82
   3   1  -8   99.77    4.82
  -4   3  -8   96.21    4.69
   3   1  -8   92.92    4.82
   1  -4  -8   96.20    4.70
   1  -4  -8   97.66    4.82
  -4   3  -8   95.52    4.72
   3   1  -8   91.42    5.04
   3   1  -8   95.62    4.80
  -4   3  -8   97.45    4.88
  -1   4   8   87.58    4.74
   4  -3   8   88.10    4.89
  -3  -1   8   92.77    4.84
   4  -3   8   95.09    4.82
  -1   4   8   89.87    5.04
   4  -3   8   80.37    4.89
  -3  -1   8  105.50    4.83
  -1   4   8   93.19    4.81
  -3  -1   8   94.98    4.76
  -4   4  -8  230.91   11.50
  -4   4  -8  233.31   11.33
   4   0  -8  231.85   11.41
   0  -4  -8  204.57   11.40
   0  -4  -8  238.80   11.44
   4   0  -8  235.26   11.42
   4   0  -8  213.31   11.41
   0  -4  -8  236.12   11.34
  -4   0   8  220.72   11.44
   0   4   8  223.13   11.36
   0   4   8  224.93   11.41
   0   4   8  227.69   11.66
   4  -4   8  227.38   11.40
   4  -4   8  237.84   11.55
   5  -1  -8    3.08    0.39
   5  -1  -8    4.31    0.42
  -4   5  -8    2.91    0.34
  -1  -4  -8    3.75    0.35
  -4   5  -8    3.30    0.41
  -1  -4  -8    3.50    0.45
   4  -5   8    3.71    0.61
   1   4   8    3.26    0.40
   1   4   8    3.33    0.39
  -5   1   8    4.23    0.52
   6  -2  -8  122.12    6.09
  -2  -4  -8  117.30    6.17
   6  -2  -8  117.84    6.13
  -4   6  -8  133.86    6.35
  -2  -4  -8  121.78    6.10
  -6   2   8  114.18    6.19
   2   4   8  117.01    6.12
   2   4   8  119.07    6.12
   4  -6   8  117.58    6.23
  -4   7  -8   26.80    1.85
  -3  -4  -8   22.24    1.35
   7  -3  -8   21.24    1.33
  -3  -4  -8   18.56    1.41
   3   4   8   21.24    1.37
   4  -7   8   22.47    1.43
   3   4   8   22.64    1.36
   7  -5  -8    2.24    0.52
  -5  -2  -8    2.15    0.47
   5   2   8    2.25    0.54
   2  -7   8    2.29    0.48
   5   2   8    1.38    0.43
  -1   6  -8   43.71    2.27
  -5  -1  -8   43.16    2.38
  -5  -1  -8   42.66    2.32
  -1   6  -8   41.95    2.39
   6  -5  -8   45.37    2.29
   5   1   8   42.27    2.40
  -6   5   8   48.77    3.11
   1  -6   8   40.89    2.40
   5   1   8   40.72    2.30
  -5   0  -8   29.79    1.77
   5  -5  -8   29.37    1.63
   5  -5  -8   31.62    1.70
   0   5  -8   30.29    1.77
   0   5  -8   30.84    1.68
   5   0   8   31.09    1.69
  -5   5   8   33.66    2.36
   0  -5   8   31.36    1.79
   5   0   8   33.81    1.81
   1   4  -8    2.43    0.41
  -5   1  -8    3.06    0.40
   4  -5  -8    2.97    0.26
   1   4  -8    2.76    0.37
   4  -5  -8    3.18    0.36
   4  -5  -8    2.81    0.65
   5  -1   8    2.96    0.74
   5  -1   8    2.93    0.33
   5  -1   8    2.60    0.70
  -1  -4   8    2.47    0.42
  -4   5   8    3.46    0.91
   5  -1   8    2.88    0.45
   2   3  -8   80.90    4.50
  -5   2  -8   92.46    4.42
   3  -5  -8   89.62    4.52
   2   3  -8   88.90    4.47
   3  -5  -8   89.82    4.48
  -3   5   8   80.57    4.92
   5  -2   8   85.55    4.56
  -2  -3   8   83.88    4.49
  -2  -3   8   85.63    4.49
  -3   5   8   90.17    4.43
   5  -2   8   90.80    4.60
   5  -2   8   89.86    4.41
   2  -5  -8   64.38    3.36
  -5   3  -8   66.71    3.25
   2  -5  -8   60.68    3.37
   2  -5  -8   63.62    3.24
   3   2  -8   67.85    3.38
   3   2  -8   55.93    3.33
  -3  -2   8   67.56    3.34
   5  -3   8   59.45    3.45
  -3  -2   8   63.20    3.42
  -2   5   8   67.13    3.36
  -2   5   8   70.91    3.77
  -3  -2   8   61.09    3.34
   5  -3   8   69.64    3.46
   1  -5  -8    3.00    0.41
   1  -5  -8    3.42    0.30
   4   1  -8    3.00    0.39
   4   1  -8    3.68    0.41
   5  -4   8    3.00    0.57
  -4  -1   8    3.69    0.45
  -1   5   8    3.00    0.69
  -1   5   8    3.77    0.34
  -4  -1   8    3.42    0.31
   5  -4   8    2.64    0.60
  -4  -1   8    2.02    0.50
   5   0  -8   43.88    2.31
   5   0  -8   43.91    2.30
   0  -5  -8   40.46    2.33
   0  -5  -8   42.45    2.23
   5  -5   8   46.32    2.49
  -5   0   8   43.09    2.39
   0   5   8   42.08    2.63
   0   5   8   42.60    2.25
   0   5   8   41.00    2.31
   6  -1  -8   31.99    1.83
  -1  -5  -8   33.60    1.89
  -1  -5  -8   33.11    1.78
   6  -1  -8   33.21    1.79
  -5   6  -8   32.54    1.81
   5  -6   8   29.03    1.98
  -6   1   8   31.18    1.94
   1   5   8   34.15    1.84
   1   5   8   34.23    1.81
  -2  -5  -8    2.10    0.66
   7  -2  -8    0.81    0.36
  -2  -5  -8    2.18    0.54
   2   5   8    1.53    0.39
  -7   2   8    2.96    0.80
   5  -7   8    2.36    0.67
   5  -7   8    1.64    0.53
   2   5   8    1.88    0.41
  -6  -1  -8   29.28    1.86
  -7   6   8   31.95    2.85
   6   1   8   32.46    1.94
   6   1   8   32.17    1.77
   1  -7   8   27.11    1.88
   0   6  -8   33.72    1.92
   6  -6  -8   36.29    1.91
   0   6  -8   34.70    2.02
   6   0   8   35.94    2.05
   6   0   8   33.63    1.89
   0  -6   8   33.06    2.03
  -6   6   8   34.76    2.78
   1   5  -8   41.32    2.42
   1   5  -8   44.38    2.35
   5  -6  -8   45.16    2.35
   6  -1   8   43.59    2.31
   6  -1   8   43.44    2.46
  -1  -5   8   43.82    2.43
  -5   6   8   44.12    3.11
   2   4  -8  139.42    7.17
   2   4  -8  140.64    7.10
  -6   2  -8  136.21    7.06
   4  -6  -8  134.81    7.10
  -2  -4   8  142.49    7.15
   6  -2   8  145.32    7.21
   6  -2   8  148.61    7.05
  -4   6   8  132.45    7.73
   3   3  -8    3.08    0.47
   3  -6  -8    3.35    0.46
   3   3  -8    3.59    0.43
  -3   6   8    4.23    0.99
   6  -3   8    3.81    0.98
   6  -3   8    3.45    0.34
  -3  -3   8    3.55    0.48
  -3  -3   8    3.68    0.61
   6  -3   8    2.81    0.55
   2  -6  -8  119.03    5.82
   2  -6  -8  115.32    5.95
   4   2  -8  120.40    5.96
   4   2  -8  114.49    5.93
  -4  -2   8  123.81    5.88
   6  -4   8  102.13    6.02
  -4  -2   8  104.17    6.00
   6  -4   8  122.26    6.08
  -2   6   8  122.37    6.41
  -4  -2   8  116.41    6.04
   5   1  -8   30.96    1.84
   5   1  -8   32.68    1.84
   1  -6  -8   33.08    1.74
   1  -6  -8   31.26    1.87
   6  -5   8   34.96    2.08
  -5  -1   8   32.04    1.96
  -1   6   8   35.01    2.30
   6   0  -8   34.68    1.91
   0  -6  -8   34.00    1.86
   6   0  -8   34.13    1.94
   0  -6  -8   33.61    2.00
   0   6   8   34.16    2.40
   0   6   8   34.83    1.96
   6  -6   8   35.87    2.17
   0   6   8   34.52    1.86
  -6   0   8   32.19    2.07
   7  -1  -8   40.96    2.29
  -1  -6  -8   44.55    2.24
  -1  -6  -8   41.50    2.38
   1   6   8   38.61    2.39
   6  -7   8   38.30    2.43
   1   6   8   39.05    2.30
  -7   1   8   40.33    2.49
   1   6  -8   32.00    1.90
   1   6  -8   31.51    1.97
   6  -7  -8   31.93    1.91
   7  -1   8   34.50    2.05
  -1  -6   8   30.76    1.98
  -6   7   8   32.13    2.88
   7  -1   8   33.23    1.82
   2   5  -8    0.78    0.40
   5  -7  -8    1.68    0.39
   2   5  -8    2.01    0.42
  -2  -5   8    2.64    0.65
  -2  -5   8    1.63    0.46
  -5   7   8    3.03    1.17
   7  -2   8    2.41    0.50
   7  -2   8    3.16    0.72
   3   4  -8   30.12    1.74
   3   4  -8   31.12    1.80
   4  -7  -8   30.16    1.74
  -4   7   8   26.65    2.52
  -3  -4   8   32.71    1.95
  -3  -4   8   29.34    1.75
   7  -3   8   28.76    1.85
   3  -7  -8   21.40    1.37
   4   3  -8   21.04    1.37
   4   3  -8   20.77    1.35
  -4  -3   8   21.02    1.54
   7  -4   8   23.15    1.53
  -4  -3   8   21.95    1.33
  -3   7   8   23.69    2.09
   5   2  -8    1.93    0.42
   2  -7  -8    1.19    0.39
   5   2  -8    1.96    0.55
  -2   7   8    2.66    0.87
  -5  -2   8    1.34    0.57
   7  -5   8    2.20    0.70
   6   1  -8   41.07    2.30
   6   1  -8   39.43    2.31
   1  -7  -8   40.06    2.37
   7  -6   8   45.01    2.61
  -6  -1   8   40.68    2.50
  -1   7   8   39.52    2.86
   0   0  -9   86.17    4.32
   0   0  -9   86.79    4.36
   0   0  -9   77.63    4.30
   0   0   9   82.11    4.30
   0   0   9   80.14    4.34
   0   0   9   89.14    4.33
  -1   0  -9   53.50    2.76
   1  -1  -9   54.57    2.77
   0   1  -9   44.04    2.74
   0   1  -9   46.78    2.74
   1  -1  -9   55.72    2.92
   0   1  -9   46.68    2.76
  -1   0  -9   57.43    2.78
   1  -1  -9   56.51    2.75
  -1   0  -9   56.11    2.71
   1   0   9   49.60    2.68
  -1   1   9   53.27    2.73
  -1   1   9   46.49    2.72
   1   0   9   45.57    2.74
   0  -1   9   53.59    2.77
  -1   1   9   58.33    2.92
   1   0   9   48.53    2.74
   0  -1   9   61.39    2.78
  -1   1  -9   36.70    1.83
  -1   1  -9   32.69    1.88
   1   0  -9   34.75    1.89
   1   0  -9   37.51    1.88
   0   1   9   34.19    1.87
   0   1   9   34.84    1.89
   0   1   9   36.41    1.99
   1  -1   9   33.79    1.90
   0   1   9   34.44    1.76
  -1   0   9   30.35    1.86
   2  -1  -9   17.12    1.21
  -1   2  -9   14.95    0.90
   2  -1  -9   16.85    0.97
   2  -1  -9   15.62    0.93
  -1   2  -9   17.87    1.05
  -1   2  -9   16.21    0.96
  -1  -1  -9   16.51    0.93
  -1  -1  -9   15.24    0.97
  -1  -1  -9   16.69    0.96
  -2   1   9   14.69    0.85
   1  -2   9   16.59    0.95
   1   1   9   15.38    0.93
  -2   1   9   16.98    1.17
   1   1   9   15.74    0.99
   1   1   9   15.16    0.89
   1   1   9   16.06    1.01
  -2   1   9   14.24    0.92
   1  -2   9   17.08    1.02
  -2  -1  -9   49.49    2.48
  -2  -1  -9   51.73    2.53
  -1   3  -9   48.26    2.42
  -1   3  -9   49.13    2.50
  -2  -1  -9   51.89    2.57
   3  -2  -9   45.62    2.84
  -1   3  -9   40.53    2.57
   3  -2  -9   50.19    2.52
   2   1   9   43.19    2.55
   2   1   9   41.89    2.47
   1  -3   9   50.73    2.50
   1  -3   9   46.51    2.57
   2   1   9   45.88    2.45
   2   1   9   44.15    2.48
  -3   2   9   46.29    2.39
  -3   2   9   53.46    2.86
  -3   2   9   45.14    2.40
   2  -2  -9   27.99    1.78
   2  -2  -9   29.81    1.50
   0   2  -9   27.04    1.52
   2  -2  -9   27.38    1.48
  -2   0  -9   28.18    1.54
   0   2  -9   29.16    1.52
  -2   0  -9   29.03    1.46
  -2   0  -9   30.01    1.55
   0   2  -9   24.05    1.53
   2   0   9   24.38    1.49
   0  -2   9   27.03    1.55
   2   0   9   22.50    1.47
   2   0   9   24.67    1.46
   0  -2   9   29.12    1.50
  -2   2   9   27.66    1.46
   2   0   9   27.18    1.58
  -2   2   9   28.54    1.76
   2   0   9   26.12    1.44
   1  -2  -9   16.13    0.97
   1   1  -9   15.11    0.95
  -2   1  -9   16.13    0.89
   1  -2  -9   15.16    0.92
   1   1  -9   15.30    1.02
  -2   1  -9   14.34    0.95
   1   1  -9   15.58    0.96
  -2   1  -9   16.25    1.01
   1  -2  -9   14.88    0.92
  -1   2   9   16.88    0.93
  -1   2   9   16.41    0.94
  -1  -1   9   16.47    0.97
   2  -1   9   15.54    0.98
   2  -1   9   18.02    1.03
   2  -1   9   16.19    0.96
  -1   2   9   15.61    1.13
   2   0  -9   17.46    1.01
   0  -2  -9   14.46    0.96
   0  -2  -9   15.42    0.95
  -2   2  -9   14.50    0.90
   2   0  -9   18.39    0.98
   0  -2  -9   15.47    0.98
  -2   2  -9   17.27    0.98
   2   0  -9   19.51    1.21
  -2   2  -9   16.33    1.06
  -2   0   9   15.24    0.93
   0   2   9   17.80    1.11
   0   2   9   17.70    0.96
   0   2   9   18.34    1.02
   2  -2   9   13.52    0.98
   2  -2   9   18.34    1.06
  -2   0   9   16.04    0.99
  -2   3  -9   27.75    1.45
   3  -1  -9   32.87    1.93
  -2   3  -9   25.26    1.51
   3  -1  -9   30.08    1.51
  -1  -2  -9   23.49    1.51
  -1  -2  -9   25.60    1.45
   1   2   9   31.14    1.60
  -3   1   9   27.28    1.44
   2  -3   9   25.39    1.52
   2  -3   9   26.48    1.61
   1   2   9   29.07    1.51
   1   2   9   30.70    1.66
   1   2   9   28.31    1.51
  -3   1   9   26.46    1.48
  -3   1   9   27.81    1.45
  -2  -2  -9   35.25    2.01
   4  -2  -9   36.90    1.97
  -2   4  -9   38.70    2.01
  -2   4  -9   38.75    1.90
  -2  -2  -9   38.14    1.96
   4  -2  -9   39.71    2.04
  -2   4  -9   38.65    2.17
  -2  -2  -9   35.99    2.05
   2   2   9   39.81    1.99
   2  -4   9   33.11    2.09
  -4   2   9   34.70    1.97
   2  -4   9   36.39    2.02
   2   2   9   38.50    2.01
  -2   5  -9   25.05    1.32
   5  -3  -9   26.57    1.47
   5  -3  -9   25.08    1.39
  -2   5  -9   24.30    1.45
  -3  -2  -9   27.03    1.53
  -3  -2  -9   26.73    1.43
   3   2   9   23.08    1.41
  -1   4  -9   18.52    1.02
  -3  -1  -9   17.57    1.07
  -1   4  -9   18.63    1.12
  -1   4  -9   17.38    1.28
   4  -3  -9   20.81    1.07
  -3  -1  -9   16.89    1.10
  -3  -1  -9   17.02    1.17
   3   1   9   19.56    1.07
   3   1   9   19.51    1.13
   3   1   9   20.51    1.25
  -4   3   9   18.58    1.51
   3   1   9   20.52    1.19
   0   3  -9   16.19    0.96
   0   3  -9   15.80    0.89
  -3   0  -9   16.70    0.92
   0   3  -9   14.82    1.03
  -3   0  -9   16.29    1.02
   3  -3  -9   15.18    1.36
   3  -3  -9   16.02    0.92
  -3   0  -9   17.88    1.00
   3  -3  -9   17.14    0.91
   3   0   9   13.24    0.98
   3   0   9   16.49    0.90
  -3   3   9   15.22    0.85
   0  -3   9   15.06    0.95
  -3   3   9   16.79    1.31
   3   0   9   15.59    0.96
   3   0   9   13.64    1.05
   2  -3  -9   48.65    2.57
   1   2  -9   48.39    2.49
   1   2  -9   45.03    2.55
   2  -3  -9   50.61    2.52
  -3   1  -9   49.03    2.47
   2  -3  -9   52.73    2.46
  -3   1  -9   53.08    2.61
   1   2  -9   49.13    2.56
   3  -1   9   43.54    2.55
  -1  -2   9   49.68    2.53
  -2   3   9   47.28    2.49
  -2   3   9   41.07    2.79
   3  -1   9   45.41    2.46
   2   1  -9   29.44    1.59
  -3   2  -9   23.78    1.62
   1  -3  -9   25.00    1.54
   2   1  -9   30.41    1.74
  -3   2  -9   27.98    1.53
  -3   2  -9   26.04    1.47
   2   1  -9   28.74    1.57
   3  -2   9   28.46    1.63
  -1   3   9   31.80    1.80
  -1   3   9   28.90    1.56
   3  -2   9   29.82    1.64
  -1   3   9   30.86    1.53
  -2  -1   9   27.45    1.53
   3   0  -9   12.01    1.03
   0  -3  -9   10.88    0.72
   3   0  -9   11.96    0.76
  -3   3  -9   11.18    0.69
  -3   3  -9    9.68    0.84
   0  -3  -9   11.35    0.61
   3   0  -9   11.28    0.73
   0  -3  -9   10.53    0.76
  -3   3  -9   11.11    0.60
  -3   0   9   11.06    0.65
   0   3   9   11.43    0.79
   3  -3   9   10.24    0.74
   0   3   9   11.32    0.69
   3  -3   9   11.36    0.82
  -3   0   9   10.59    0.72
   0   3   9   11.73    0.89
  -3   0   9   11.49    0.71
  -3   4  -9   30.64    1.87
   4  -1  -9   30.91    1.72
  -1  -3  -9   34.60    1.77
  -3   4  -9   32.25    1.70
  -1  -3  -9   33.65    1.66
   4  -1  -9   26.29    1.73
   3  -4   9   35.27    1.88
   1   3   9   31.43    1.71
   3  -4   9   32.45    1.76
  -4   1   9   29.21    1.72
   1   3   9   30.60    1.71
  -2  -3  -9   15.99    1.05
  -3   5  -9   16.60    0.99
   5  -2  -9   17.56    1.02
  -2  -3  -9   15.91    0.96
   5  -2  -9   17.06    1.03
  -5   2   9   16.92    1.05
   2   3   9   16.85    1.01
   3  -5   9   14.24    1.12
   2   3   9   16.80    1.00
   6  -3  -9    5.34    0.63
  -3   6  -9    4.62    0.82
  -3  -3  -9    4.66    0.64
   6  -3  -9    5.21    0.58
  -3   6  -9    4.34    0.55
  -3  -3  -9    5.16    0.52
   3  -6   9    4.49    0.63
   3   3   9    4.83    0.50
   3   3   9    4.86    0.54
  -3   7  -9   19.46    1.74
  -4  -3  -9   21.46    1.31
   7  -4  -9   19.91    1.28
  -4  -3  -9   24.49    1.53
   4   3   9   19.45    1.34
   3  -7   9   19.15    1.41
   4   3   9   20.04    1.29
   6  -4  -9    9.36    0.75
  -4  -2  -9    9.33    0.93
   6  -4  -9    7.76    0.60
  -2   6  -9    7.68    0.53
  -2   6  -9    7.41    0.71
  -4  -2  -9    8.01    0.70
   2  -6   9    8.28    0.77
   4   2   9    8.64    0.65
   4   2   9    7.90    0.72
  -1   5  -9    6.77    0.58
  -4  -1  -9    5.86    0.55
   5  -4  -9    5.09    0.49
  -4  -1  -9    6.16    0.55
  -1   5  -9    6.31    0.46
  -4  -1  -9    7.30    0.67
  -5   4   9    5.59    1.03
   1  -5   9    5.98    0.60
   4   1   9    5.82    0.57
   4   1   9    6.39    0.50
  -4   0  -9    9.38    0.65
   4  -4  -9    7.97    0.56
   0   4  -9    8.39    0.54
  -4   0  -9    7.47    0.60
  -4   0  -9    8.11    0.55
   0   4  -9    5.92    0.59
   4  -4  -9    7.55    0.79
   4   0   9    8.25    0.84
   0  -4   9    7.41    0.63
   4   0   9    8.07    0.54
   4   0   9    7.31    0.62
  -4   4   9    7.23    1.01
   1   3  -9   19.52    1.16
  -4   1  -9   19.29    1.10
   3  -4  -9   18.27    1.10
  -4   1  -9   18.65    1.07
   1   3  -9   18.82    1.08
   3  -4  -9   15.84    1.21
  -1  -3   9   16.89    1.13
   4  -1   9   20.54    1.18
  -1  -3   9   19.19    1.15
   4  -1   9   17.03    1.16
  -3   4   9   22.94    1.61
   4  -1   9   20.55    1.28
  -3   4   9   20.26    1.05
   4  -1   9   20.51    1.07
   4  -1   9   21.49    1.31
   2  -4  -9   39.97    2.01
  -4   2  -9   35.38    2.08
  -4   2  -9   37.82    1.92
   2   2  -9   38.65    1.99
   2  -4  -9   34.25    2.05
  -4   2  -9   39.18    1.94
   2   2  -9   39.72    2.04
  -2   4   9   40.64    2.00
   4  -2   9   31.53    2.10
  -2  -2   9   38.89    2.00
  -2  -2   9   33.74    2.00
   4  -2   9   35.80    2.06
  -2   4   9   36.28    2.32
   4  -2   9   37.54    2.10
  -4   3  -9   33.15    1.62
   3   1  -9   28.69    1.70
   1  -4  -9   33.20    1.74
  -4   3  -9   33.39    1.57
   1  -4  -9   34.22    1.71
  -4   3  -9   26.92    1.78
   3   1  -9   33.94    1.70
   3   1  -9   26.92    1.95
   3   1  -9   32.80    1.72
  -3  -1   9   30.15    1.72
  -1   4   9   30.83    1.72
  -1   4   9   28.42    1.93
   4  -3   9   27.50    1.78
   4  -3   9   32.40    1.75
  -3  -1   9   31.46    1.64
  -1   4   9   26.99    1.63
   0  -4  -9   13.21    0.71
   4   0  -9   12.13    0.85
   4   0  -9   13.37    0.83
   4   0  -9   10.65    0.80
  -4   4  -9   13.59    0.74
   0  -4  -9   10.31    0.81
  -4   0   9   13.27    0.87
   0   4   9   12.07    0.77
   0   4   9   12.60    0.82
   4  -4   9   12.97    0.89
   0   4   9   12.72    1.05
   4  -4   9   13.92    0.98
  -1  -4  -9    8.89    0.69
   5  -1  -9    8.04    0.64
  -4   5  -9    9.03    0.58
   5  -1  -9    8.05    0.65
  -1  -4  -9    8.43    0.57
  -5   1   9    7.17    0.71
   4  -5   9    8.95    0.82
   1   4   9    8.17    0.64
   1   4   9    8.69    0.62
  -2  -4  -9    5.46    0.54
  -4   6  -9    6.27    0.75
   6  -2  -9    4.70    0.56
  -2  -4  -9    4.19    0.61
   6  -2  -9    5.96    0.57
  -6   2   9    5.34    0.72
   2   4   9    5.36    0.58
   2   4   9    6.51    0.58
  -3  -4  -9    8.43    1.01
   7  -3  -9   11.63    0.89
  -3  -4  -9   10.43    0.87
   3   4   9   12.96    0.94
   3   4   9   12.01    0.89
   4  -7   9   12.17    1.03
  -5  -2  -9    6.52    0.81
   5   2   9    5.97    0.81
   2  -7   9    6.73    0.87
   5   2   9    5.89    0.70
  -1   6  -9   19.44    1.33
   6  -5  -9   22.14    1.26
  -5  -1  -9   21.54    1.33
  -5  -1  -9   20.40    1.30
  -1   6  -9   21.18    1.21
   5   1   9   21.73    1.37
   5   1   9   19.62    1.23
  -6   5   9   22.97    2.05
   1  -6   9   21.11    1.38
   5  -5  -9   16.36    1.01
   0   5  -9   16.36    1.09
  -5   0  -9   16.26    0.99
  -5   0  -9   13.85    0.95
   0   5  -9   17.35    1.01
  -5   5   9   20.60    1.72
   5   0   9   16.80    0.99
   5   0   9   17.94    1.13
   0  -5   9   16.50    1.12
   1   4  -9    5.90    0.52
   4  -5  -9    6.33    0.54
   1   4  -9    6.16    0.59
  -5   1  -9    6.28    0.56
   5  -1   9    6.63    0.62
  -4   5   9    6.58    1.09
  -1  -4   9    6.81    0.60
   5  -1   9    5.68    0.85
   5  -1   9    5.87    0.48
   3  -5  -9   26.92    1.44
  -5   2  -9   25.36    1.37
   2   3  -9   24.55    1.47
   2   3  -9   24.86    1.42
  -3   5   9   23.41    1.91
   5  -2   9   27.27    1.64
   5  -2   9   25.28    1.36
  -2  -3   9   25.48    1.45
   5  -2   9   24.33    1.51
  -3   5   9   24.62    1.39
   3   2  -9   16.30    1.00
  -5   3  -9   16.25    0.90
   2  -5  -9   16.58    1.02
   3   2  -9   17.65    1.05
  -3  -2   9   14.60    1.04
   5  -3   9   13.64    1.22
  -3  -2   9   15.52    1.09
   5  -3   9   17.78    1.14
  -3  -2   9   16.71    0.99
  -2   5   9   16.61    1.05
  -2   5   9   18.61    1.45
   1  -5  -9    9.02    0.67
   1  -5  -9    8.92    0.51
   4   1  -9    7.34    0.63
   4   1  -9    8.35    0.65
  -1   5   9    8.18    0.96
  -4  -1   9    8.25    0.54
  -1   5   9    7.36    0.56
  -4  -1   9    9.66    0.66
   5  -4   9    7.93    0.84
  -4  -1   9    8.13    0.75
   5  -4   9    8.08    0.81
   0  -5  -9   29.93    1.56
   5   0  -9   30.47    1.66
   0  -5  -9   30.80    1.70
   5   0  -9   29.41    1.67
   0   5   9   27.85    1.98
   5  -5   9   31.88    1.86
   0   5   9   27.82    1.66
   0   5   9   27.82    1.60
  -5   0   9   27.23    1.75
  -1  -5  -9   10.38    0.88
   6  -1  -9   11.07    0.80
   6  -1  -9   11.22    0.84
  -1  -5  -9   10.81    0.75
   1   5   9   11.88    0.84
   5  -6   9    8.56    1.02
  -6   1   9   10.22    0.98
   1   5   9   11.69    0.80
   7  -2  -9    4.50    0.64
  -2  -5  -9    3.93    0.75
  -2  -5  -9    2.56    0.62
   5  -7   9    4.02    0.92
  -7   2   9    5.89    0.90
   5  -7   9    5.12    0.82
   2   5   9    4.76    0.70
   2   5   9    3.39    0.65
   6  -6  -9   14.47    0.98
   0   6  -9   15.11    1.00
   0   6  -9   12.48    1.07
   6   0   9   13.86    0.93
   0  -6   9   13.11    1.09
  -6   6   9   15.39    1.90
   6   0   9   13.91    1.11
   1   5  -9   20.48    1.22
   5  -6  -9   17.42    1.20
   1   5  -9   19.95    1.30
  -1  -5   9   20.62    1.31
  -5   6   9   22.66    2.04
   6  -1   9   20.50    1.35
   6  -1   9   19.35    1.17
  -6   2  -9    8.27    0.70
   2   4  -9    9.14    0.69
   4  -6  -9    8.64    0.68
   2   4  -9    7.75    0.73
   6  -2   9    8.28    0.80
  -2  -4   9    7.55    0.73
   6  -2   9    8.86    0.60
  -4   6   9    7.17    1.35
   3  -6  -9    5.20    0.54
   3   3  -9    4.39    0.56
   3   3  -9    4.47    0.52
   6  -3   9    5.96    0.68
  -3  -3   9    5.59    0.71
  -3  -3   9    4.61    0.57
   6  -3   9    5.00    0.44
  -3   6   9    5.94    1.17
   4   2  -9    5.13    0.58
   2  -6  -9    5.47    0.38
   2  -6  -9    5.29    0.59
   4   2  -9    4.84    0.56
   6  -4   9    6.79    0.82
  -2   6   9    5.03    1.06
  -4  -2   9    5.63    0.52
  -4  -2   9    6.95    0.77
   1  -6  -9   10.53    0.67
   5   1  -9   11.12    0.84
   1  -6  -9   10.84    0.87
   5   1  -9   11.03    0.82
  -5  -1   9    8.67    0.97
   6  -5   9   13.26    1.13
   0  -6  -9   16.31    1.09
   6   0  -9   13.93    1.00
   0  -6  -9   14.29    1.08
   6   0  -9   13.87    1.02
   6  -6   9   15.92    1.30
   0   6   9   15.12    1.52
  -6   0   9   12.08    1.19
   0   6   9   13.74    1.06
   2   5  -9    8.04    0.83
   5  -7  -9    8.81    0.78
   2   5  -9    7.23    0.84
  -5   7   9    7.45    1.82
  -2  -5   9    6.73    0.89
  -2  -5   9    6.48    1.05
   7  -2   9    6.79    0.67
   7  -2   9    6.46    0.94
   4  -7  -9   19.94    1.31
   3   4  -9   20.83    1.37
   3   4  -9   23.06    1.36
  -3  -4   9   20.33    1.35
  -4   7   9   17.24    2.09
   7  -3   9   18.67    1.45
  -3  -4   9   22.00    1.55
   3  -7  -9   12.22    0.97
   4   3  -9   12.06    0.98
   4   3  -9   11.58    0.97
  -4  -3   9    9.69    1.16
   7  -4   9   15.67    1.21
  -4  -3   9   11.92    0.94
  -3   7   9   14.26    1.73
   2  -7  -9    3.98    0.71
   5   2  -9    3.68    0.69
   5   2  -9    4.31    0.70
   7  -5   9    5.10    1.11
  -5  -2   9    4.50    0.91
  -2   7   9    5.23    1.41
   0   0 -10    2.19    0.36
   0   0 -10    2.70    0.31
   0   0 -10    1.86    0.29
   0   0 -10    2.22    0.37
   0   0  10    2.72    0.38
   0   0  10    1.93    0.32
   0   1 -10    7.70    0.62
  -1   0 -10    8.11    0.58
  -1   0 -10    7.67    0.62
   0   1 -10    6.64    0.57
   1  -1 -10    7.11    0.58
   0   1 -10    8.74    0.65
   1  -1 -10    9.47    0.76
  -1   0 -10    6.81    0.54
   1  -1 -10    8.72    0.60
  -1   1  10    7.32    0.59
   1   0  10    7.49    0.58
   1   0  10    8.50    0.65
   1   0  10    8.26    0.53
   0  -1  10    6.32    0.60
   0  -1  10    7.22    0.59
   1   0  10    7.52    0.59
  -1   1  10    8.15    0.71
  -1   1  10    8.08    0.56
   1   0 -10    8.47    0.64
  -1   1 -10    8.07    0.63
   0  -1 -10    8.98    0.64
   1   0 -10    8.59    0.76
   0  -1 -10    8.83    0.63
   1   0 -10    8.60    0.62
  -1   1 -10    9.95    0.59
  -1   1 -10   10.31    0.71
   0  -1 -10    8.73    0.64
   1  -1  10    9.34    0.69
  -1   0  10   10.10    0.67
   0   1  10    9.12    0.62
   0   1  10    8.04    0.50
   0   1  10    8.25    0.66
   0   1  10    7.83    0.70
   1  -1  10    8.79    0.64
  -1   0  10    7.51    0.61
  -1   2 -10    0.29    0.17
  -1   2 -10    0.30    0.17
   2  -1 -10    0.71    0.37
  -1  -1 -10    0.20    0.21
  -1   2 -10    0.46    0.27
  -1  -1 -10    0.43    0.20
   2  -1 -10    0.37    0.20
   2  -1 -10    0.16    0.16
  -1  -1 -10    0.44    0.20
   1   1  10    0.38    0.15
   1  -2  10    1.17    0.33
   1   1  10    0.44    0.17
   1  -2  10    0.39    0.21
  -2   1  10    0.28    0.27
   1   1  10    0.16    0.19
  -2   1  10    0.47    0.13
   1   1  10    0.84    0.29
  -2   1  10    0.14    0.18
  -1   3 -10    6.51    0.51
  -2  -1 -10    6.89    0.59
  -1   3 -10    5.77    0.68
   3  -2 -10    6.49    0.94
  -2  -1 -10    7.27    0.59
  -2  -1 -10    6.32    0.51
   3  -2 -10    5.97    0.54
   3  -2 -10    5.75    0.50
   1  -3  10    5.53    0.58
   2   1  10    6.16    0.45
   2   1  10    5.66    0.50
   2   1  10    5.96    0.54
   2   1  10    5.78    0.51
   2   1  10    5.94    0.66
  -3   2  10    6.15    0.41
  -3   2  10    6.68    0.79
  -2   0 -10  104.84    5.01
  -2   0 -10  103.92    5.08
   0   2 -10   96.82    5.07
   2  -2 -10  104.85    5.33
   0   2 -10   94.31    5.06
   2  -2 -10  108.02    5.03
  -2   0 -10  102.24    5.09
   0   2 -10   88.87    5.08
   2  -2 -10   93.86    5.04
   2   0  10  107.95    5.13
  -2   2  10   98.60    5.00
   0  -2  10   93.53    5.09
   2   0  10   91.83    5.01
  -2   2  10  103.03    5.31
   0  -2  10   96.68    5.04
   2   0  10   93.06    5.05
   2   0  10   92.65    5.01
   1   1 -10    0.19    0.16
   1  -2 -10    0.32    0.19
  -2   1 -10    0.42    0.19
  -2   1 -10    0.33    0.15
   1  -2 -10    0.32    0.23
  -2   1 -10    0.61    0.29
   1  -2 -10    0.36    0.16
   1   1 -10    0.34    0.25
   1   1 -10    0.41    0.19
  -1   2  10    0.31    0.19
   2  -1  10    0.31    0.19
  -1   2  10    0.44    0.30
  -1  -1  10    0.18    0.20
   2  -1  10    0.60    0.25
  -1   2  10    0.27    0.18
   2  -1  10    0.80    0.24
   0  -2 -10   74.28    4.18
   2   0 -10   84.04    4.40
  -2   2 -10   86.85    4.28
  -2   2 -10   74.84    4.10
  -2   2 -10   84.82    4.20
   0  -2 -10   80.76    4.16
   2   0 -10   84.10    4.18
   2   0 -10   80.17    4.21
   0  -2 -10   75.46    4.18
   0   2  10   82.92    4.18
   0   2  10   81.69    4.32
  -2   0  10   72.73    4.12
  -2   0  10   90.80    4.20
   2  -2  10   74.43    4.20
   2  -2  10   84.68    4.26
   0   2  10   86.25    4.22
  -2   3 -10    4.57    0.43
  -1  -2 -10    4.06    0.44
   3  -1 -10    5.29    0.47
  -2   3 -10    4.65    0.35
  -2   3 -10    5.11    0.62
   3  -1 -10    4.52    0.44
   3  -1 -10    4.75    0.86
  -1  -2 -10    3.63    0.47
   2  -3  10    4.59    0.52
   1   2  10    5.00    0.53
   1   2  10    4.38    0.56
   1   2  10    5.14    0.42
  -3   1  10    4.16    0.39
   2  -3  10    4.31    0.48
  -3   1  10    4.42    0.37
  -3   1  10    4.17    0.35
   1   2  10    4.75    0.39
  -2  -2 -10    0.68    0.19
  -2  -2 -10    0.91    0.27
   4  -2 -10    0.73    0.24
  -2   4 -10    0.40    0.20
   4  -2 -10    0.73    0.24
   2   2  10    0.71    0.22
   2  -4  10    0.38    0.29
   2   2  10    1.34    0.23
  -4   2  10    0.72    0.24
  -2   5 -10    3.40    0.49
   5  -3 -10    3.62    0.51
  -3  -2 -10    3.30    0.59
  -2   5 -10    3.64    0.32
  -3  -2 -10    3.30    0.43
   5  -3 -10    4.20    0.48
   3   2  10    3.79    0.48
   3   2  10    3.98    0.42
  -3  -1 -10    4.54    0.56
  -1   4 -10    3.43    0.45
   4  -3 -10    4.30    0.46
  -1   4 -10    4.34    0.36
   4  -3 -10    4.20    0.45
  -4   3  10    4.03    0.82
   3   1  10    4.65    0.41
   3   1  10    3.13    0.59
   3   1  10    4.85    0.47
  -3   0 -10    2.66    0.36
   0   3 -10    1.97    0.52
   3  -3 -10    2.51    0.34
  -3   0 -10    2.16    0.53
   3  -3 -10    3.29    0.89
   0   3 -10    2.67    0.31
  -3   0 -10    2.74    0.41
   0   3 -10    2.66    0.37
   3  -3 -10    2.95    0.35
   3   0  10    2.63    0.38
   3   0  10    2.66    0.49
  -3   3  10    2.90    0.28
   3   0  10    2.19    0.61
   0  -3  10    2.85    0.43
  -3   3  10    2.62    0.65
   3   0  10    3.02    0.31
   1   2 -10    6.51    0.54
   2  -3 -10    6.79    0.62
   1   2 -10    6.34    0.63
   2  -3 -10    6.91    0.50
  -3   1 -10    6.59    0.46
  -3   1 -10    5.94    0.52
   2  -3 -10    6.74    0.46
  -2   3  10    6.30    0.50
  -2   3  10    5.35    0.43
   3  -1  10    7.01    0.69
  -2   3  10    5.81    0.74
   3  -1  10    4.93    0.51
  -1  -2  10    6.20    0.54
   3  -1  10    5.95    0.61
   2   1 -10    5.26    0.68
   1  -3 -10    3.30    0.51
   1  -3 -10    5.20    0.43
  -3   2 -10    4.42    0.60
   2   1 -10    4.21    0.48
  -3   2 -10    5.15    0.43
   1  -3 -10    4.03    0.40
   2   1 -10    4.56    0.46
  -3   2 -10    3.85    0.34
  -2  -1  10    4.38    0.41
  -1   3  10    4.39    0.50
  -1   3  10    5.08    0.42
   3  -2  10    5.29    0.59
   3  -2  10    4.62    0.52
  -1   3  10    4.98    0.61
  -2  -1  10    4.61    0.50
   3  -2  10    3.83    0.57
   3   0 -10    3.38    0.42
  -3   3 -10    3.11    0.35
   3   0 -10    2.66    0.76
  -3   3 -10    2.86    0.60
  -3   3 -10    3.19    0.25
   3   0 -10    2.64    0.41
   0  -3 -10    3.10    0.38
   0   3  10    3.03    0.35
   3  -3  10    3.08    0.47
   0   3  10    3.13    0.51
   0   3  10    3.55    0.54
  -3   0  10    3.69    0.41
  -3   0  10    3.51    0.32
   3  -3  10    2.49    0.49
  -3   0  10    2.26    0.38
  -3   4 -10    4.80    0.43
  -1  -3 -10    4.78    0.36
   4  -1 -10    3.77    0.48
   4  -1 -10    4.94    0.50
  -1  -3 -10    3.85    0.46
   1   3  10    4.55    0.62
  -4   1  10    3.49    0.46
   1   3  10    4.47    0.44
   3  -4  10    5.36    0.61
   1   3  10    4.70    0.44
  -2  -3 -10    5.33    0.45
   5  -2 -10    4.69    0.57
   5  -2 -10    5.23    0.54
  -3   5 -10    4.40    0.50
  -2  -3 -10    4.89    0.57
   2   3  10    4.60    0.48
   3  -5  10    5.64    0.69
  -5   2  10    5.03    0.57
   2   3  10    4.75    0.51
  -3  -3 -10    0.39    0.29
   6  -3 -10    0.47    0.34
  -3  -3 -10    0.19    0.36
  -3   6 -10    0.14    0.48
  -3   6 -10    0.32    0.30
   3  -6  10    0.33    0.36
   3   3  10   -0.12    0.26
   3   3  10    0.51    0.29
  -4  -3 -10    5.75    1.04
  -4  -3 -10    3.82    0.69
   7  -4 -10    3.49    0.66
   4   3  10    2.83    0.69
   4   3  10    3.93    0.66
   3  -7  10    3.08    0.84
  -2   6 -10   37.01    2.18
  -4  -2 -10   39.94    2.16
   6  -4 -10   37.02    2.09
   6  -4 -10   41.28    2.19
  -4  -2 -10   43.20    2.33
   2  -6  10   41.75    2.27
   4   2  10   37.06    2.12
   4   2  10   35.31    2.17
  -4  -1 -10    2.32    0.49
  -1   5 -10    1.49    0.43
  -1   5 -10    1.85    0.34
  -4  -1 -10    2.97    0.57
   5  -4 -10    2.20    0.42
   1  -5  10    1.91    0.50
   4   1  10    1.78    0.36
  -5   4  10    2.06    0.88
   4   1  10    2.26    0.46
   4  -4 -10   50.23    2.74
   0   4 -10   51.16    2.70
   0   4 -10   50.07    2.79
  -4   0 -10   54.02    2.78
   4   0  10   51.54    2.81
   0  -4  10   53.53    2.82
  -4   4  10   53.67    3.24
   4   0  10   52.00    2.71
   1   3 -10    4.33    0.48
   3  -4 -10    4.30    0.42
  -4   1 -10    4.24    0.43
  -4   1 -10    3.98    0.46
   1   3 -10    4.48    0.41
   3  -4 -10    4.37    0.67
  -1  -3  10    4.65    0.49
   4  -1  10    4.03    0.48
  -3   4  10    4.14    0.39
   4  -1  10    4.03    0.77
  -3   4  10    4.33    0.85
   4  -1  10    5.23    0.39
  -4   2 -10    0.72    0.18
   2   2 -10    1.23    0.31
   2   2 -10    0.78    0.24
   2  -4 -10    0.60    0.21
   2   2 -10    1.29    0.47
  -4   2 -10    0.76    0.20
   2  -4 -10    1.29    0.40
  -2  -2  10    1.16    0.32
  -2   4  10    0.88    0.28
  -2  -2  10    1.09    0.29
  -2   4  10    1.35    0.54
   4  -2  10    0.80    0.40
   4  -2  10   -0.10    0.46
   4  -2  10    1.66    0.40
   3   1 -10    4.98    0.49
  -4   3 -10    4.40    0.30
   1  -4 -10    4.08    0.44
  -4   3 -10    4.41    0.39
   3   1 -10    4.87    0.46
  -3  -1  10    3.88    0.50
  -1   4  10    4.30    0.43
   4  -3  10    3.72    0.65
  -1   4  10    3.57    0.70
  -1   4  10    4.32    0.58
  -3  -1  10    3.63    0.39
   4  -3  10    4.25    0.59
  -3  -1  10    4.18    0.49
   0  -4 -10   62.64    3.13
   4   0 -10   58.08    3.12
  -4   4 -10   59.59    3.02
   4   0 -10   59.63    3.10
   0  -4 -10   59.53    2.97
   4  -4  10   62.32    3.23
   0   4  10   57.14    3.34
  -4   0  10   52.66    3.10
   0   4  10   56.24    3.04
  -1  -4 -10    1.27    0.31
   5  -1 -10    1.57    0.34
  -4   5 -10    1.40    0.27
   5  -1 -10    1.76    0.44
  -1  -4 -10    0.99    0.31
  -5   1  10    2.05    0.51
   4  -5  10    0.91    0.40
   1   4  10    2.25    0.40
   1   4  10    1.54    0.41
   6  -2 -10   32.96    1.87
  -2  -4 -10   33.80    1.78
  -4   6 -10   33.71    1.80
   6  -2 -10   32.92    1.86
  -2  -4 -10   31.37    1.90
   2   4  10   32.70    1.85
  -6   2  10   34.52    1.92
   2   4  10   31.92    1.83
   4  -6  10   27.74    1.98
  -3  -4 -10    1.42    0.42
  -3  -4 -10    1.37    0.54
   7  -3 -10    3.02    0.68
   3   4  10    2.54    0.65
   4  -7  10    1.68    0.53
   3   4  10    2.15    0.48
  -5  -2 -10    2.77    0.72
  -2   7 -10    3.00    0.60
   2  -7  10    1.78    0.58
   5   2  10    2.75    0.49
   5   2  10    3.72    0.79
  -1   6 -10    2.86    0.63
  -1   6 -10    4.31    0.51
  -5  -1 -10    2.28    0.64
   6  -5 -10    2.48    0.56
   5   1  10    2.43    0.49
   5   1  10    2.62    0.66
  -6   5  10    4.39    1.31
   1  -6  10    2.76    0.69
   0   5 -10    2.47    0.55
  -5   0 -10    3.02    0.50
   0   5 -10    3.09    0.47
   5  -5 -10    3.21    0.49
   5   0  10    3.41    0.44
  -5   5  10    2.71    0.88
   5   0  10    3.73    0.58
   0  -5  10    2.85    0.58
   1   4 -10    2.20    0.47
   1   4 -10    1.86    0.40
   4  -5 -10    2.41    0.42
   5  -1  10    2.00    0.50
  -4   5  10    1.82    0.74
   5  -1  10    1.84    0.36
   5  -1  10    2.33    0.71
  -1  -4  10    2.18    0.48
   2   3 -10    3.18    0.49
  -5   2 -10    3.76    0.43
   3  -5 -10    4.02    0.46
   2   3 -10    3.99    0.47
  -3   5  10    4.76    0.95
  -2  -3  10    2.81    0.48
  -3   5  10    4.23    0.50
   5  -2  10    4.53    0.58
   5  -2  10    4.03    0.38
   2  -5 -10    4.76    0.52
   3   2 -10    5.68    0.52
  -5   3 -10    5.36    0.41
   3   2 -10    5.18    0.56
  -3  -2  10    5.28    0.51
  -3  -2  10    5.05    0.64
  -2   5  10    5.62    0.91
   5  -3  10    3.48    1.09
  -2   5  10    4.62    0.64
   5  -3  10    4.68    0.66
  -3  -2  10    5.23    0.65
   4   1 -10    1.45    0.32
   1  -5 -10    0.92    0.30
   4   1 -10    1.39    0.41
   1  -5 -10    0.98    0.22
  -1   5  10    1.80    0.40
   5  -4  10    0.99    0.42
  -4  -1  10    1.49    0.33
  -1   5  10    2.16    0.74
  -4  -1  10    2.15    0.44
  -4  -1  10    1.67    0.30
   0  -5 -10    5.24    0.58
   5   0 -10    4.29    0.56
   5   0 -10    4.14    0.57
   0  -5 -10    4.43    0.41
   0   5  10    5.10    0.89
   5  -5  10    5.85    0.77
   0   5  10    4.88    0.52
  -5   0  10    3.87    0.70
  -1  -5 -10    1.79    0.44
  -1  -5 -10    1.66    0.44
   6  -1 -10    1.41    0.39
   6  -1 -10    1.83    0.55
   1   5  10    2.41    0.95
  -6   1  10    2.90    0.74
   5  -6  10    0.77    0.53
   1   5  10    2.65    0.57
   1   5  10    2.22    0.55
  -2  -5 -10    3.11    0.52
   7  -2 -10    4.30    0.74
  -2  -5 -10    3.51    0.82
   5  -7  10    3.17    0.72
  -7   2  10    4.37    0.93
   2   5  10    3.01    0.69
   5  -7  10    4.97    0.90
   2   5  10    2.82    0.71
   0   6 -10    0.52    0.43
   0   6 -10    0.30    0.39
   6  -6 -10    0.13    0.39
  -6   6  10    0.65    1.02
   0  -6  10   -0.28    0.42
   6   0  10   -0.46    0.45
   6   0  10    1.32    0.36
   1   5 -10    3.77    0.59
   1   5 -10    2.56    0.62
   5  -6 -10    2.56    0.57
  -1  -5  10    2.70    0.65
  -5   6  10    4.05    1.37
   6  -1  10    3.75    0.71
   6  -1  10    2.95    0.48
   2   4 -10   37.30    2.17
   4  -6 -10   38.06    2.09
   2   4 -10   38.84    2.09
   6  -2  10   36.43    2.20
  -4   6  10   35.19    2.73
   6  -2  10   38.55    2.02
  -2  -4  10   38.72    2.16
   3  -6 -10   -0.11    0.27
   3   3 -10    0.23    0.30
   3   3 -10   -0.25    0.29
  -3  -3  10    0.19    0.32
   6  -3  10    0.42    0.39
  -3  -3  10    0.61    0.44
  -3   6  10    1.04    0.77
   4   2 -10   33.52    1.90
   4   2 -10   33.16    1.91
   2  -6 -10   30.91    1.89
   6  -4  10   34.18    2.08
  -4  -2  10   30.45    1.99
  -2   6  10   36.16    2.43
  -4  -2  10   33.95    1.82
   5   1 -10    2.24    0.57
   5   1 -10    2.11    0.41
   1  -6 -10    1.31    0.39
   6  -5  10    2.50    0.63
  -5  -1  10    1.48    0.52
  -1   6  10    2.68    1.05
   6   0 -10    1.18    0.43
   6   0 -10    0.19    0.38
   0  -6 -10    0.67    0.42
   0   6  10    0.84    0.75
   6  -6  10    1.17    0.63
  -6   0  10    0.13    0.60
   5  -7 -10    3.67    0.75
   2   5 -10    4.54    0.87
   2   5 -10    5.00    0.79
  -2  -5  10    3.77    0.87
  -5   7  10    2.37    1.38
  -2  -5  10    4.42    1.04
   7  -2  10    3.32    0.92
   3   4 -10    4.38    0.75
   3   4 -10    2.86    0.73
   4  -7 -10    3.18    0.67
   7  -3  10    2.66    0.65
  -3  -4  10    5.05    0.99
  -4   7  10    3.22    1.18
  -3  -4  10    4.84    0.76
   4   3 -10    2.52    0.71
   3  -7 -10    2.88    0.66
   4   3 -10    1.52    0.48
   7  -4  10    3.17    0.71
  -4  -3  10    2.15    0.66
  -3   7  10    4.66    1.60
   5   2 -10    3.14    0.74
   5   2 -10    4.67    0.76
   2  -7 -10    2.89    0.77
  -5  -2  10    5.57    1.01
  -2   7  10    4.79    1.50
   7  -5  10    3.39    0.81
   0   0 -11   16.90    1.03
   0   0 -11   17.05    1.06
   0   0 -11   16.86    1.00
   0   0 -11   16.88    1.08
   0   0  11   16.97    1.07
   0   0  11   17.05    1.04
   0   0  11   15.77    1.06
   1  -1 -11   94.84    5.12
  -1   0 -11   91.62    5.12
  -1   0 -11  102.51    5.13
  -1   0 -11   86.79    5.05
   0   1 -11  109.49    5.16
   1   0  11  107.41    5.15
   1   0  11  108.85    5.04
   1   0  11  102.37    5.11
  -1   1  11   99.90    5.25
  -1   1  11   93.66    5.08
   1   0  11   99.20    5.14
   0  -1  11   91.83    5.12
  -1   1  11  103.65    5.12
   1   0 -11  142.00    8.27
   0  -1 -11  177.54    8.30
  -1   1 -11  175.62    8.34
   1   0 -11  155.12    8.28
   1   0 -11  144.85    8.38
  -1   1 -11  145.65    8.28
   0  -1 -11  172.22    8.32
   0  -1 -11  178.13    8.27
  -1   1 -11  180.30    8.23
   0   1  11  153.20    8.15
   0   1  11  161.52    8.27
   1  -1  11  171.75    8.32
   0   1  11  149.68    8.36
   0   1  11  160.32    8.30
  -1   0  11  161.68    8.29
   1  -1  11  188.29    8.34
  -1   2 -11   30.59    1.76
   2  -1 -11   34.33    2.01
  -1  -1 -11   29.21    1.72
  -1  -1 -11   30.63    1.77
  -1   2 -11   32.14    1.69
  -1  -1 -11   29.93    1.78
  -1   2 -11   34.18    1.84
   2  -1 -11   31.04    1.75
   2  -1 -11   34.54    1.76
   1   1  11   30.58    1.80
   1  -2  11   30.35    1.77
  -2   1  11   29.56    1.72
  -2   1  11   29.03    1.61
   1   1  11   30.42    1.74
  -2   1  11   34.88    1.98
   1  -2  11   32.82    1.80
   1   1  11   29.24    1.80
   1   1  11   29.97    1.65
   3  -2 -11   74.14    4.22
  -1   3 -11   85.52    4.20
  -2  -1 -11   70.41    4.25
  -2  -1 -11   73.55    4.19
  -2  -1 -11   68.97    4.23
  -1   3 -11   84.77    4.25
   2   1  11   84.90    4.19
  -3   2  11   79.89    4.51
  -3   2  11   85.55    4.13
   2   1  11   90.84    4.29
   2   1  11   88.90    4.19
   2   1  11   88.75    4.24
  -2   0 -11   25.14    1.33
   2  -2 -11   23.40    1.64
   0   2 -11   22.55    1.38
   2  -2 -11   23.84    1.33
  -2   0 -11   23.97    1.38
   2  -2 -11   24.08    1.37
  -2   0 -11   25.91    1.45
   2   0  11   20.58    1.32
   0  -2  11   22.60    1.41
   2   0  11   19.61    1.34
  -2   2  11   21.30    1.32
   0  -2  11   25.32    1.39
   2   0  11   24.94    1.46
   2   0  11   23.14    1.34
  -2   2  11   25.19    1.60
  -2   1 -11   29.93    1.68
   1  -2 -11   31.84    1.75
   1  -2 -11   30.43    1.72
   1   1 -11   28.10    1.76
   1   1 -11   30.30    1.77
  -2   1 -11   30.95    1.76
  -2   1 -11   29.16    1.81
   1   1 -11   30.51    1.85
   1  -2 -11   34.42    1.77
  -1   2  11   31.07    1.94
   2  -1  11   28.67    1.78
  -1   2  11   30.84    1.75
   2  -1  11   35.77    1.84
  -1  -1  11   30.33    1.77
  -1   2  11   34.44    1.72
   2  -1  11   34.31    1.74
   2   0 -11   16.79    1.19
   0  -2 -11   11.87    0.92
  -2   2 -11   13.50    0.84
  -2   2 -11   14.66    0.93
   2   0 -11   15.39    0.94
   0  -2 -11   11.79    0.90
  -2   0  11   12.13    0.84
   0   2  11   16.11    0.93
  -2   0  11   14.73    0.92
   0   2  11   15.24    1.07
   2  -2  11   15.28    0.98
   0   2  11   15.35    0.99
  -1  -2 -11  147.43    6.70
  -1  -2 -11  135.76    6.68
   3  -1 -11  113.46    6.96
  -1  -2 -11  142.32    6.73
   3  -1 -11  118.04    6.63
  -2   3 -11  135.99    6.69
  -2   3 -11  131.23    6.77
  -2   3 -11  140.27    6.58
   3  -1 -11  130.79    6.69
  -3   1  11  122.49    6.59
  -3   1  11  117.84    6.59
   1   2  11  122.42    6.65
   1   2  11  122.33    6.77
   2  -3  11  150.07    6.80
   2  -3  11  136.57    6.69
  -2   4 -11    7.70    0.54
  -2  -2 -11    6.51    0.68
   4  -2 -11    7.21    0.62
  -2   4 -11    8.19    0.64
  -2   4 -11    8.01    0.49
   4  -2 -11    8.29    0.65
  -2   4 -11    8.51    0.53
  -4   2  11    8.17    0.55
   2  -4  11    5.71    0.71
   2   2  11    7.10    0.62
   2   2  11    6.36    0.57
   2   2  11    8.48    0.76
  -2   5 -11   43.98    2.35
  -3  -2 -11   42.97    2.44
  -2   5 -11   42.81    2.50
   5  -3 -11   49.73    2.47
   5  -3 -11   48.18    2.51
   3   2  11   46.56    2.51
   3   2  11   47.77    2.46
   4  -3 -11   83.77    5.02
  -1   4 -11   98.73    5.11
   4  -3 -11  104.50    5.12
  -1   4 -11  103.85    4.99
  -3  -1 -11  107.20    5.15
  -4   3  11  113.33    5.57
   3   1  11   82.54    5.08
   3   1  11   96.59    5.03
   0   3 -11   24.26    1.46
  -3   0 -11   23.02    1.39
   0   3 -11   25.81    1.37
   0   3 -11   26.19    1.51
   3  -3 -11   20.48    1.46
  -3   0 -11   27.19    1.47
   3  -3 -11   27.81    1.39
   3  -3 -11   23.37    1.42
   3   0  11   25.38    1.37
   3   0  11   24.79    1.46
  -3   3  11   24.96    1.76
   3   0  11   24.92    1.40
  -3   3  11   24.53    1.34
   3   0  11   24.67    1.60
   3   0  11   22.96    1.46
   1   2 -11   84.34    4.30
  -3   1 -11   89.02    4.27
   1   2 -11   90.43    4.39
   2  -3 -11   66.91    4.21
  -3   1 -11   77.16    4.17
   2  -3 -11   79.65    4.27
  -2   3  11   87.58    4.22
  -2   3  11   88.99    4.60
  -1  -2  11   67.91    4.23
   3  -1  11   87.81    4.29
   3  -1  11   76.95    4.31
   3  -1  11   88.01    4.31
  -3   2 -11  140.42    6.66
   2   1 -11  119.88    6.91
   2   1 -11  115.03    6.77
   1  -3 -11  152.07    6.71
  -3   2 -11  128.17    6.74
   1  -3 -11  142.01    6.77
   2   1 -11  120.09    6.75
  -1   3  11  117.21    6.96
  -1   3  11  137.39    6.70
   3  -2  11  111.97    6.80
   3  -2  11  147.30    6.84
   3  -2  11  142.51    6.80
  -1   3  11  129.12    6.75
  -2  -1  11  153.61    6.80
   0  -3 -11   28.21    1.57
  -3   3 -11   29.27    1.53
   3   0 -11   26.05    1.56
  -3   3 -11   28.42    1.43
   3   0 -11   23.34    1.56
  -3   0  11   25.72    1.52
   0   3  11   26.58    1.52
   3  -3  11   25.23    1.61
   3  -3  11   29.37    1.65
   0   3  11   28.01    1.75
  -3   0  11   28.35    1.48
  -1  -3 -11   56.13    3.13
  -3   4 -11   57.84    3.21
   4  -1 -11   66.89    3.30
   4  -1 -11   60.18    3.24
  -4   1  11   56.98    3.20
   1   3  11   62.57    3.23
   1   3  11   66.83    3.46
   1   3  11   65.23    3.23
   5  -2 -11   72.44    4.14
  -3   5 -11   81.70    4.14
  -2  -3 -11   87.24    4.24
  -2  -3 -11   84.86    4.08
   5  -2 -11   70.48    4.12
  -5   2  11   85.35    4.12
   2   3  11   73.53    4.12
   3  -5  11   80.77    4.29
   6  -3 -11   10.41    0.87
  -3   6 -11   11.77    0.87
  -3  -3 -11   10.43    0.81
  -3  -3 -11   10.13    0.99
   3   3  11    9.62    0.81
   3   3  11   10.28    0.86
  -4  -3 -11   26.56    2.07
  -4  -3 -11   31.68    1.84
  -3   7 -11   32.54    1.92
   7  -4 -11   31.62    1.88
   4   3  11   26.52    1.82
   3  -7  11   30.28    2.08
   4   3  11   35.72    1.92
  -4  -2 -11   13.07    1.13
   6  -4 -11   13.52    1.00
  -4  -2 -11   12.72    0.93
  -2   6 -11   12.50    1.00
   4   2  11   12.49    0.98
   4   2  11   11.91    0.90
   2  -6  11   13.11    1.10
  -1   5 -11   17.45    1.00
   5  -4 -11   16.07    1.11
  -4  -1 -11   16.80    1.18
  -1   5 -11   17.45    1.15
   4   1  11   16.66    1.14
   1  -5  11   16.83    1.19
  -5   4  11   18.70    1.65
   4   1  11   16.90    1.05
  -4   0 -11   11.21    0.82
   0   4 -11   10.70    0.72
   0   4 -11   10.76    0.82
   4  -4 -11    9.05    0.76
   4   0  11   11.04    0.83
  -4   4  11   10.99    1.23
   0  -4  11   11.52    0.87
   4   0  11   10.72    0.72
   3  -4 -11  106.13    4.97
   1   3 -11  103.36    4.93
  -4   1 -11  101.48    4.90
  -4   1 -11   83.47    4.92
   1   3 -11   98.41    5.01
  -3   4  11   95.68    4.88
   4  -1  11   88.12    5.00
   4  -1  11   97.24    4.89
  -1  -3  11   97.57    5.00
  -3   4  11   90.49    5.35
  -4   2 -11    7.38    0.51
   2   2 -11    7.09    0.64
  -4   2 -11    7.61    0.57
   2   2 -11    5.18    0.88
   2  -4 -11    7.26    0.59
   2   2 -11    6.79    0.58
  -2  -2  11    6.39    0.68
  -2   4  11    6.59    0.93
  -2  -2  11    6.67    0.59
   4  -2  11    7.48    0.70
   4  -2  11    6.41    0.85
  -2   4  11    7.24    0.65
   1  -4 -11   54.63    3.05
  -4   3 -11   58.07    2.98
   3   1 -11   61.14    3.11
  -4   3 -11   54.66    2.91
   3   1 -11   59.37    3.05
  -1   4  11   65.96    3.00
  -3  -1  11   49.07    3.02
   4  -3  11   62.88    3.19
  -3  -1  11   49.90    3.04
  -3  -1  11   59.00    3.00
  -4   4 -11   17.59    1.01
   0  -4 -11   18.49    1.11
   0  -4 -11   17.81    0.92
   4   0 -11   14.61    1.10
   4   0 -11   19.31    1.11
  -4   0  11   16.58    1.10
   0   4  11   15.54    1.33
   0   4  11   15.00    1.02
   4  -4  11   17.23    1.20
  -1  -4 -11   14.48    1.03
   5  -1 -11   14.16    1.04
  -4   5 -11   15.05    0.93
   5  -1 -11   14.19    1.03
  -1  -4 -11   14.04    0.86
   1   4  11   14.61    1.00
   4  -5  11   15.95    1.17
  -5   1  11   14.35    1.04
   1   4  11   14.90    0.98
   1   4  11   15.27    1.28
  -2  -4 -11    5.52    0.82
   6  -2 -11    6.73    0.76
  -4   6 -11    8.93    0.73
  -2  -4 -11    7.72    0.65
   6  -2 -11    7.89    0.80
  -6   2  11    7.14    0.79
   2   4  11    7.89    0.74
   2   4  11    8.63    0.75
  -3  -4 -11   54.85    2.96
   7  -3 -11   54.62    3.05
  -3  -4 -11   62.39    3.20
   3   4  11   51.57    3.03
   4  -7  11   52.77    3.18
  -5  -1 -11   36.65    2.03
  -1   6 -11   35.78    2.09
   5   1  11   35.93    2.09
  -6   5  11   35.50    2.70
   1  -6  11   31.79    2.12
   5   1  11   34.21    1.95
   0   5 -11   79.30    4.05
  -5   0 -11   73.47    4.04
   0   5 -11   79.56    4.18
   5  -5 -11   84.42    4.11
   5   0  11   74.94    4.04
   5   0  11   73.66    4.16
  -5   5  11   82.46    4.72
   0  -5  11   79.28    4.19
   1   4 -11   16.62    1.14
   1   4 -11   16.93    1.05
   4  -5 -11   15.60    1.07
  -5   1 -11   17.19    0.99
  -4   5  11   17.58    1.64
   5  -1  11   17.66    1.01
  -1  -4  11   16.08    1.13
   5  -1  11   15.45    1.15
   2   3 -11   44.82    2.47
   3  -5 -11   41.40    2.48
  -5   2 -11   41.41    2.40
  -5   2 -11   43.06    2.35
   2   3 -11   46.00    2.55
  -3   5  11   53.98    3.12
   5  -2  11   51.76    2.63
  -3   5  11   47.88    2.45
  -2  -3  11   45.63    2.52
   2  -5 -11   81.92    4.03
   3   2 -11   79.73    4.01
  -5   3 -11   79.95    3.88
   3   2 -11   77.44    4.06
  -2   5  11   65.28    4.37
  -3  -2  11   82.29    3.99
  -3  -2  11   75.44    4.06
  -3  -2  11   82.41    4.07
   5  -3  11   64.37    4.09
   1  -5 -11   13.47    0.99
   4   1 -11   14.19    0.99
   4   1 -11   14.50    1.02
   5  -4  11   14.59    1.14
  -1   5  11   14.56    1.37
  -4  -1  11   13.37    1.09
  -4  -1  11   14.43    0.86
  -1   5  11   15.30    0.91
   5   0 -11   48.93    2.74
   5   0 -11   51.71    2.75
   0  -5 -11   45.84    2.57
   0  -5 -11   45.75    2.74
   0   5  11   55.06    2.67
   0   5  11   55.93    3.14
  -5   0  11   44.50    2.76
   5  -5  11   52.70    2.88
   6  -1 -11   59.38    3.18
   6  -1 -11   60.12    3.20
  -1  -5 -11   59.91    3.24
   1   5  11   52.10    3.16
  -6   1  11   62.85    3.25
   1   5  11   56.01    3.53
   1   5  11   54.86    3.12
   5  -6  11   64.69    3.37
   0   6 -11    2.27    0.58
   0   6 -11    1.81    0.53
   6   0  11    2.81    0.84
   0  -6  11    3.24    0.93
   6   0  11    1.74    0.41
  -6   6  11    1.04    1.05
   5  -6 -11   32.58    2.00
   1   5 -11   35.45    2.11
   1   5 -11   34.46    2.00
  -5   6  11   36.58    2.74
   6  -1  11   36.24    1.94
   6  -1  11   36.34    2.14
  -1  -5  11   33.80    2.10
   2   4 -11   13.72    0.95
   4  -6 -11   13.64    0.96
   2   4 -11   12.19    1.02
   6  -2  11   12.37    0.86
   6  -2  11   11.37    1.09
  -4   6  11   12.07    1.64
  -2  -4  11   12.60    1.02
   3   3 -11   12.38    0.93
   3  -6 -11   10.30    0.86
   3   3 -11   10.73    0.87
  -3   6  11   10.89    1.52
  -3  -3  11    9.71    1.04
   6  -3  11   10.71    1.03
  -3  -3  11   10.57    0.88
   4   2 -11    7.82    0.77
   4   2 -11    7.56    0.78
   2  -6 -11    6.88    0.75
  -4  -2  11    7.64    0.66
  -2   6  11    7.73    1.34
   6  -4  11    8.16    1.00
  -4  -2  11    6.52    0.94
   5   1 -11   57.11    3.09
   1  -6 -11   57.64    3.10
   5   1 -11   59.53    3.09
  -1   6  11   53.01    3.53
  -5  -1  11   55.09    3.16
   6  -5  11   55.68    3.23
   0  -6 -11    2.59    0.78
   6   0 -11    2.55    0.72
   6   0 -11    1.24    0.49
  -6   0  11    2.74    0.69
   0   6  11    0.91    0.86
   6  -6  11    4.00    1.06
   4  -7 -11   30.83    1.91
   3   4 -11   30.15    1.99
   3   4 -11   32.23    1.93
  -3  -4  11   26.70    2.10
   7  -3  11   36.90    2.20
  -3  -4  11   34.18    1.97
   4   3 -11   52.11    2.89
   3  -7 -11   50.44    2.83
   4   3 -11   51.96    2.83
   7  -4  11   48.01    3.04
  -4  -3  11   48.89    2.99
   0   0 -12  186.99    9.19
   0   0 -12  182.16    9.09
   0   0 -12  175.83    9.13
   0   0 -12  182.39    9.14
   0   0  12  177.05    9.17
   0   0  12  181.73    9.14
   0   0  12  176.64    9.13
   1  -1 -12   76.55    3.60
   0   1 -12   75.00    3.65
   1  -1 -12   75.12    3.77
   0   1 -12   69.51    3.63
  -1   0 -12   63.54    3.54
   1  -1 -12   63.59    3.58
   0   1 -12   72.79    3.64
   1  -1 -12   71.25    3.57
  -1   0 -12   64.82    3.62
  -1   0 -12   71.46    3.60
  -1   1  12   63.84    3.56
  -1   1  12   65.16    3.59
   1   0  12   66.88    3.60
  -1   1  12   65.05    3.71
   1   0  12   66.30    3.62
   0  -1  12   63.53    3.60
   1   0  12   65.37    3.57
   1   0  12   70.36    3.51
   0  -1 -12   90.60    4.59
   1   0 -12   80.82    4.62
  -1   1 -12   82.88    4.62
   1   0 -12   84.94    4.62
  -1   1 -12   95.11    4.56
   0  -1 -12   89.54    4.64
   0  -1 -12   92.81    4.63
   1   0 -12   81.20    4.72
  -1   1 -12   94.15    4.67
   0   1  12   87.17    4.47
  -1   0  12   86.89    4.62
   0   1  12   82.97    4.69
  -1   0  12  103.69    4.64
   1  -1  12   89.07    4.64
   1  -1  12   97.38    4.68
   0   1  12   86.66    4.59
   0   1  12   89.36    4.65
  -1  -1 -12    4.97    0.53
  -1   2 -12    4.44    0.42
  -1  -1 -12    3.58    0.52
   2  -1 -12    4.09    0.55
   2  -1 -12    6.06    0.49
   2  -1 -12    5.81    0.81
  -1  -1 -12    3.70    0.60
  -1   2 -12    5.08    0.54
   1   1  12    4.75    0.58
  -2   1  12    5.92    0.69
   1   1  12    4.19    0.42
  -2   1  12    5.07    0.35
   1   1  12    5.21    0.51
   1   1  12    4.27    0.68
  -2   1  12    3.99    0.53
   1  -2  12    4.85    0.53
  -1   3 -12   44.01    2.41
  -1   3 -12   44.37    2.35
  -2  -1 -12   43.91    2.43
  -2  -1 -12   37.23    2.43
   3  -2 -12   42.10    2.38
   3  -2 -12   48.38    2.38
   1  -3  12   41.60    2.45
  -3   2  12   39.15    2.28
   2   1  12   44.84    2.34
  -3   2  12   45.31    2.68
   2   1  12   47.03    2.40
   2   1  12   45.30    2.43
   0   2 -12   38.51    2.36
  -2   0 -12   42.77    2.30
   2  -2 -12   44.98    2.62
   2  -2 -12   47.71    2.32
   0   2 -12   39.27    2.37
  -2   0 -12   44.31    2.35
  -2   0 -12   42.55    2.43
   2  -2 -12   45.76    2.38
   2   0  12   38.31    2.35
   2   0  12   46.19    2.31
   0  -2  12   43.93    2.41
  -2   2  12   45.98    2.58
   2   0  12   40.71    2.30
  -2   2  12   38.45    2.30
   0  -2  12   44.90    2.40
   1   1 -12    3.75    0.59
  -2   1 -12    4.09    0.44
   1  -2 -12    3.69    0.51
   1   1 -12    4.33    0.65
   1   1 -12    4.30    0.51
  -2   1 -12    5.33    0.52
   1  -2 -12    4.39    0.48
  -2   1 -12    4.59    0.67
   2  -1  12    5.72    0.53
  -1   2  12    3.75    0.55
   2  -1  12    4.33    0.52
   2  -1  12    4.31    0.71
  -1  -1  12    3.81    0.55
  -1   2  12    4.77    0.65
   0  -2 -12   29.19    1.89
   2   0 -12   34.93    1.92
   2   0 -12   36.12    1.93
   0  -2 -12   30.58    1.88
   2   0 -12   36.50    2.17
  -2   2 -12   33.63    1.81
  -2   2 -12   34.04    1.91
  -2   0  12   32.43    1.80
   0   2  12   31.57    1.95
   0   2  12   35.50    1.88
   0   2  12   36.72    2.08
  -2   0  12   36.35    1.89
   2  -2  12   28.86    2.00
   2  -2  12   35.62    1.94
  -1  -2 -12   58.99    3.04
   3  -1 -12   58.43    2.99
  -2   3 -12   59.57    2.88
  -1  -2 -12   58.36    3.01
  -2   3 -12   55.59    2.99
   3  -1 -12   50.38    2.95
   1   2  12   52.36    3.08
  -3   1  12   55.90    2.87
   1   2  12   51.18    2.95
   2  -3  12   61.94    3.07
  -3   1  12   51.40    2.90
  -2   4 -12   97.10    4.56
  -2  -2 -12   86.78    4.73
   4  -2 -12   83.53    4.63
  -2   4 -12   92.37    4.54
   4  -2 -12   91.03    4.67
   2   2  12   91.26    4.79
   2   2  12   87.84    4.66
   2  -4  12   86.91    4.76
  -4   2  12   94.95    4.55
   2   2  12   86.03    4.62
  -2   5 -12   35.57    1.91
  -2   5 -12   37.52    2.10
   5  -3 -12   37.22    2.07
  -3  -2 -12   32.76    2.15
   3   2  12   38.90    2.10
   3   2  12   38.10    2.03
  -1   4 -12   51.70    2.89
  -1   4 -12   55.56    2.93
  -3  -1 -12   56.81    2.94
  -1   4 -12   56.28    2.79
   4  -3 -12   54.33    2.92
   4  -3 -12   50.80    2.83
   3   1  12   52.32    2.92
   3   1  12   52.39    2.83
   3   1  12   51.72    2.90
   3   1  12   49.16    2.90
  -4   3  12   59.56    3.31
   0   3 -12    5.98    0.50
   0   3 -12    4.55    0.56
   3  -3 -12    4.82    0.52
   3  -3 -12    4.69    0.52
  -3   0 -12    5.19    0.56
   0   3 -12    5.29    0.65
  -3   0 -12    5.31    0.57
  -3   3  12    4.08    0.46
   3   0  12    4.38    0.55
   3   0  12    4.75    0.48
   3   0  12    3.80    0.63
  -3   3  12    5.59    0.84
   1   2 -12   45.58    2.47
  -3   1 -12   40.70    2.24
   2  -3 -12   39.11    2.30
   2  -3 -12   36.62    2.24
   1   2 -12   42.24    2.36
  -3   1 -12   46.05    2.33
   3  -1  12   43.43    2.38
   3  -1  12   46.28    2.36
  -2   3  12   37.26    2.22
  -2   3  12   44.41    2.63
  -2   3  12   44.22    2.30
   1  -3 -12   61.68    3.01
   2   1 -12   48.43    3.00
   1  -3 -12   62.59    2.95
   2   1 -12   51.46    3.17
  -3   2 -12   50.67    2.95
  -3   2 -12   57.69    2.88
  -1   3  12   51.40    3.22
   3  -2  12   49.35    3.02
  -1   3  12   60.17    2.92
  -1   3  12   54.54    3.00
  -2  -1  12   59.20    2.99
   3  -2  12   60.88    3.02
  -3   3 -12    3.61    0.49
  -3   3 -12    3.34    0.37
   3   0 -12    3.07    0.51
   0  -3 -12    2.49    0.48
   3   0 -12    3.74    0.60
   0   3  12    3.47    0.65
  -3   0  12    3.69    0.50
   0   3  12    3.70    0.47
  -3   0  12    4.10    0.43
   3  -3  12    4.00    0.55
  -3   0  12    4.06    0.47
   4  -1 -12   42.26    2.24
   4  -1 -12   37.37    2.20
  -3   4 -12   39.03    2.17
  -1  -3 -12   34.53    2.21
   3  -4  12   40.79    2.30
   1   3  12   42.62    2.41
   1   3  12   40.65    2.18
  -4   1  12   39.07    2.13
  -2  -3 -12   58.42    2.94
  -3   5 -12   51.06    2.82
   5  -2 -12   46.22    2.82
   5  -2 -12   49.12    2.84
  -5   2  12   57.35    2.77
   2   3  12   51.25    3.03
   2   3  12   50.18    2.82
   2   3  12   50.02    2.80
   3  -5  12   57.14    3.00
  -3   6 -12    0.82    0.42
  -3  -3 -12    1.02    0.55
  -3  -3 -12    1.24    0.37
   6  -3 -12    0.23    0.40
   3   3  12    3.06    0.58
   3   3  12    1.27    0.44
  -4  -2 -12   21.02    1.46
   6  -4 -12   20.05    1.33
  -2   6 -12   20.01    1.37
   4   2  12   18.85    1.25
   2  -6  12   20.26    1.48
   4   2  12   18.71    1.35
   5  -4 -12    2.32    0.64
  -1   5 -12    1.30    0.39
  -1   5 -12    1.69    0.44
  -4  -1 -12    2.41    0.67
  -5   4  12    2.53    1.00
   1  -5  12    1.20    0.43
   4   1  12    1.82    0.43
  -4   0 -12   23.05    1.38
   0   4 -12   22.25    1.41
   4  -4 -12   18.91    1.34
   0   4 -12   22.71    1.30
   4   0  12   24.25    1.31
  -4   4  12   22.95    1.80
   0  -4  12   21.92    1.45
   4   0  12   22.13    1.33
   4   0  12   22.49    1.41
  -4   1 -12   54.80    2.83
  -4   1 -12   49.76    2.85
   1   3 -12   56.78    2.86
   3  -4 -12   59.10    2.91
   1   3 -12   51.86    2.94
   1   3 -12   51.13    3.05
   4  -1  12   50.66    2.94
  -1  -3  12   58.95    2.95
  -3   4  12   51.42    3.28
  -3   4  12   52.98    2.81
   2  -4 -12   85.37    4.56
  -4   2 -12   88.09    4.46
  -4   2 -12   85.58    4.52
   2   2 -12   92.47    4.56
   2   2 -12   87.80    4.63
   4  -2  12   83.97    4.65
  -2   4  12   88.47    4.55
  -2  -2  12   91.05    4.57
  -2   4  12   87.09    4.97
  -4   3 -12   38.45    2.08
  -4   3 -12   35.16    1.98
   1  -4 -12   36.05    2.13
   3   1 -12   39.97    2.21
   3   1 -12   39.03    2.14
   4  -3  12   40.13    2.26
  -3  -1  12   37.73    2.07
  -1   4  12   43.41    2.51
  -3  -1  12   35.49    2.12
  -3  -1  12   35.19    2.12
  -1   4  12   41.89    2.07
   0  -4 -12   27.43    1.60
  -4   4 -12   27.92    1.51
   4   0 -12   27.53    1.61
   4   0 -12   23.88    1.60
   0   4  12   25.46    1.53
   4  -4  12   29.37    1.70
  -4   0  12   26.19    1.44
  -4   0  12   26.58    1.58
  -4   0  12   26.11    1.41
   0   4  12   26.04    1.85
  -1  -4 -12    2.08    0.60
  -4   5 -12    2.63    0.52
   5  -1 -12    1.27    0.42
   5  -1 -12    2.44    0.61
  -1  -4 -12    2.16    0.38
   1   4  12    1.88    0.53
  -5   1  12    3.17    0.60
   1   4  12    3.43    0.83
   4  -5  12    2.16    0.53
  -2  -4 -12   12.93    0.93
  -2  -4 -12   14.03    1.18
   6  -2 -12   13.41    1.10
  -4   6 -12   12.21    1.03
   6  -2 -12   13.90    1.10
   2   4  12   15.72    1.42
   4  -6  12   12.18    1.25
   2   4  12   14.95    1.07
   2   4  12   15.20    1.06
  -6   2  12   14.85    1.04
  -1   6 -12   19.02    1.34
   6  -5 -12   14.16    1.31
   5   1  12   17.77    1.18
   1  -6  12   18.41    1.43
  -6   5  12   18.39    2.01
   5   1  12   19.31    1.36
  -5   0 -12   25.97    1.56
   5  -5 -12   28.38    1.63
   0   5 -12   27.20    1.69
   0   5 -12   23.62    1.52
  -5   5  12   28.84    2.23
   5   0  12   24.65    1.67
   5   0  12   25.32    1.52
   0  -5  12   27.55    1.73
   1   4 -12    1.31    0.37
   1   4 -12    1.80    0.57
  -5   1 -12    1.80    0.49
   4  -5 -12    2.39    0.53
   5  -1  12    2.74    0.47
   5  -1  12    2.51    0.65
  -1  -4  12    2.14    0.61
  -4   5  12    1.52    0.78
   2   3 -12   35.91    2.13
   3  -5 -12   33.71    2.05
  -5   2 -12   32.25    1.97
  -5   2 -12   36.46    1.93
   2   3 -12   36.41    2.04
  -3   5  12   40.37    2.64
  -2  -3  12   38.27    2.10
   5  -2  12   39.57    2.20
  -5   3 -12   51.54    2.63
   2  -5 -12   53.52    2.80
   3   2 -12   52.46    2.85
   3   2 -12   54.22    2.79
  -3  -2  12   50.94    2.76
   5  -3  12   47.87    2.92
  -3  -2  12   51.10    2.83
  -2   5  12   47.39    3.21
  -5   4 -12    2.67    0.36
   4   1 -12    2.14    0.45
   1  -5 -12    4.00    0.58
   4   1 -12    2.66    0.58
  -1   5  12    1.85    0.70
  -1   5  12    2.06    0.47
   5  -4  12    1.20    0.50
  -4  -1  12    1.99    0.51
  -4  -1  12    2.24    0.42
   5   0 -12   21.76    1.41
   5   0 -12   20.65    1.41
   0  -5 -12   20.79    1.42
   0   5  12   21.75    1.79
  -5   0  12   20.32    1.42
   0   5  12   21.85    1.32
   5  -5  12   22.61    1.54
   6  -1 -12   25.82    1.68
   6  -1 -12   24.53    1.65
  -1  -5 -12   24.48    1.70
  -6   1  12   29.55    1.72
   1   5  12   24.78    1.59
   5  -6  12   27.49    1.84
   1   5  12   25.27    2.04
   5  -6 -12   19.09    1.31
   1   5 -12   18.45    1.32
   1   5 -12   19.50    1.43
  -5   6  12   17.20    2.02
   6  -1  12   17.53    1.44
   6  -1  12   20.38    1.23
  -1  -5  12   19.95    1.43
   4  -6 -12   19.69    1.30
   2   4 -12   19.76    1.30
   2   4 -12   19.82    1.38
  -2  -4  12   18.81    1.37
   6  -2  12   17.46    1.43
  -4   6  12   18.98    2.01
   3   3 -12    1.29    0.40
   3  -6 -12    1.27    0.41
   3   3 -12    0.42    0.40
  -3  -3  12    0.39    0.41
  -3   6  12    0.88    0.91
  -3  -3  12    0.70    0.54
   6  -3  12    0.17    0.56
   2  -6 -12   13.82    1.09
   4   2 -12   13.76    1.11
   4   2 -12   14.04    1.09
  -4  -2  12   12.27    0.99
   6  -4  12   13.30    1.29
  -4  -2  12   13.33    1.24
  -2   6  12   17.80    1.77
   5   1 -12   27.81    1.69
   5   1 -12   26.31    1.69
   1  -6 -12   24.56    1.68
  -5  -1  12   29.57    1.80
   6  -5  12   26.05    1.82
  -1   6  12   23.20    2.16
   0   0 -13    2.12    0.42
   0   0 -13    2.31    0.53
   0   0 -13    1.73    0.37
   0   0  13    2.35    0.55
   0   0  13    1.58    0.38
  -1   0 -13   49.89    2.76
  -1   0 -13   53.35    2.68
  -1   0 -13   51.31    2.71
   1  -1 -13   51.64    2.87
   1  -1 -13   50.09    2.70
   0   1 -13   45.15    2.72
   1  -1 -13   48.82    2.70
   1  -1 -13   47.99    2.68
   0   1 -13   45.48    2.73
   1   0  13   54.24    2.62
   0  -1  13   51.81    2.74
  -1   1  13   50.84    2.83
  -1   1  13   50.73    2.68
   1   0  13   51.27    2.68
   0  -1  13   50.17    2.74
   1   0  13   46.29    2.70
  -1   1  13   51.08    2.72
   0  -1 -13   40.42    2.26
   0  -1 -13   39.66    2.29
  -1   1 -13   42.10    2.30
   1   0 -13   41.38    2.28
   1   0 -13   44.00    2.42
   0  -1 -13   39.35    2.28
  -1   1 -13   42.35    2.35
   1   0 -13   42.36    2.31
  -1   1 -13   43.24    2.22
   0   1  13   40.18    2.33
   0   1  13   41.07    2.36
   0   1  13   41.40    2.12
   1  -1  13   42.39    2.30
  -1   0  13   39.70    2.28
  -1   0  13   40.81    2.28
   0   1  13   40.82    2.25
  -1   2 -13    1.18    0.30
  -1   2 -13    1.07    0.31
  -1  -1 -13    0.39    0.35
   2  -1 -13    1.65    0.51
  -1   2 -13    1.05    0.27
  -1  -1 -13    0.97    0.32
   2  -1 -13    1.11    0.51
  -1  -1 -13    0.15    0.39
   2  -1 -13    0.89    0.28
   1   1  13    0.98    0.40
   1   1  13    1.42    0.33
  -2   1  13    0.90    0.34
   1  -2  13    1.77    0.45
   1   1  13    0.81    0.30
   3  -2 -13   31.04    1.73
   3  -2 -13   33.10    1.74
  -2  -1 -13   29.08    1.75
  -1   3 -13   29.21    1.77
  -1   3 -13   28.14    1.69
  -3   2  13   32.85    2.03
   2   1  13   30.39    1.67
   1  -3  13   31.05    1.82
   2   1  13   27.95    1.73
  -3   2  13   26.41    1.63
   2   1  13   28.91    1.77
  -2   0 -13   96.18    4.52
  -2   0 -13   85.22    4.45
   0   2 -13   72.15    4.50
   2  -2 -13   96.38    4.54
   2  -2 -13   89.44    4.45
   2  -2 -13   83.52    4.73
   0  -2  13   92.58    4.58
   2   0  13   94.97    4.45
   2   0  13   82.92    4.43
  -2   2  13   93.43    4.74
  -2   2  13   72.79    4.44
   2   0  13   74.17    4.50
   1  -2 -13    1.02    0.31
   1   1 -13    0.83    0.42
  -2   1 -13    1.04    0.31
  -2   1 -13    1.27    0.30
   1  -2 -13    1.16    0.35
   1   1 -13    0.91    0.30
   1   1 -13    0.91    0.46
  -1  -1  13    0.69    0.35
  -1   2  13    1.02    0.40
   2  -1  13    0.72    0.30
   2  -1  13    1.70    0.47
  -1   2  13    0.68    0.25
  -1   2  13    0.78    0.37
   2   0 -13   57.03    3.02
  -2   2 -13   52.03    2.88
  -2   2 -13   54.12    2.99
   2   0 -13   60.47    3.01
   0   2  13   61.67    3.20
  -2   0  13   49.75    2.86
   2  -2  13   54.66    3.01
  -2   0  13   51.71    2.94
   0   2  13   56.89    2.95
  -1  -2 -13   24.99    1.70
   3  -1 -13   29.73    1.63
  -2   3 -13   28.68    1.51
   3  -1 -13   25.75    1.64
  -2   3 -13   28.10    1.65
  -1  -2 -13   25.78    1.67
  -3   1  13   28.79    1.48
   2  -3  13   29.68    1.69
  -3   1  13   25.46    1.55
   1   2  13   27.86    1.75
   1   2  13   26.64    1.61
  -2   4 -13    2.13    0.41
  -2   4 -13    1.17    0.37
   4  -2 -13    1.87    0.49
  -2  -2 -13    1.99    0.61
   4  -2 -13    0.75    0.47
  -2   4 -13    1.92    0.37
   2  -4  13    2.11    0.60
   2   2  13    1.58    0.61
   2   2  13    2.02    0.52
  -2   5 -13   32.81    1.94
  -3  -2 -13   34.64    2.01
   5  -3 -13   35.52    1.91
  -2   5 -13   32.02    1.72
   3   2  13   31.52    1.86
   3   2  13   30.77    2.02
   3   2  13   30.91    1.90
   4  -3 -13   28.01    1.54
  -1   4 -13   26.50    1.46
   4  -3 -13   23.92    1.57
  -3  -1 -13   26.69    1.61
  -1   4 -13   26.46    1.62
  -1   4 -13   26.28    1.59
   3   1  13   24.23    1.60
  -4   3  13   26.19    1.93
   3   1  13   25.25    1.59
   3   1  13   26.41    1.61
   3  -3 -13    3.32    0.53
   3  -3 -13    2.60    0.53
   0   3 -13    1.81    0.67
   0   3 -13    4.46    0.51
  -3   0 -13    3.44    0.53
   0   3 -13    2.57    0.54
  -3   3  13    2.62    0.81
   3   0  13    2.88    0.48
   3   0  13    2.51    0.53
  -3   3  13    3.77    0.50
   3   0  13    2.35    0.66
  -3   1 -13   30.90    1.71
   1   2 -13   29.24    1.88
   2  -3 -13   29.65    1.71
   2  -3 -13   29.29    1.65
   1   2 -13   27.21    1.74
  -3   1 -13   29.11    1.63
   3  -1  13   29.86    1.73
   3  -1  13   27.06    1.75
  -2   3  13   28.61    1.70
  -2   3  13   28.68    1.97
  -2   3  13   29.92    1.62
  -3   2 -13   25.13    1.56
   2   1 -13   23.72    1.59
   2   1 -13   25.78    1.84
  -3   2 -13   25.63    1.47
   1  -3 -13   25.69    1.58
   1  -3 -13   26.22    1.55
   3  -2  13   26.13    1.63
  -1   3  13   30.81    1.52
  -1   3  13   26.59    1.84
  -2  -1  13   27.38    1.60
  -3   3 -13    1.55    0.37
   0  -3 -13    1.31    0.35
  -3   3 -13    2.00    0.49
   3   0 -13    1.68    0.50
  -3   0  13    1.74    0.52
   3  -3  13    1.70    0.52
  -3   0  13    2.44    0.46
  -3   0  13    1.98    0.42
   0   3  13    2.45    0.70
   0   3  13    2.21    0.47
  -1  -3 -13   31.28    1.83
  -3   4 -13   27.75    1.75
   4  -1 -13   29.27    1.79
  -3   4 -13   27.49    1.57
  -3   4 -13   30.73    1.58
   1   3  13   29.78    1.97
   3  -4  13   32.30    1.86
  -4   1  13   33.56    1.68
   1   3  13   28.78    1.74
  -3   5 -13   24.31    1.49
   5  -2 -13   21.78    1.48
  -2  -3 -13   19.78    1.55
  -5   2  13   24.10    1.36
   3  -5  13   24.29    1.64
   2   3  13   25.84    1.46
   2   3  13   25.38    1.73
   2   3  13   24.55    1.48
   6  -3 -13    1.62    0.49
  -3  -3 -13    0.99    0.63
  -3   6 -13    0.64    0.48
   3   3  13    0.66    0.66
   3   3  13    0.23    0.44
   3   3  13    0.35    0.42
  -2   6 -13   39.56    2.33
  -4  -2 -13   45.31    2.37
   6  -4 -13   41.10    2.26
   4   2  13   34.89    2.27
   2  -6  13   36.86    2.42
   4   2  13   35.84    2.19
  -1   5 -13    1.04    0.45
  -4  -1 -13    1.22    0.44
   5  -4 -13    1.52    0.49
  -1   5 -13    1.53    0.35
  -5   4  13    1.70    0.76
   4   1  13    1.12    0.43
   1  -5  13    1.37    0.54
   4   1  13    1.16    0.35
   4   1  13    1.89    0.67
   0   4 -13   34.49    2.21
   0   4 -13   34.73    1.98
  -4   0 -13   38.06    2.07
   0   4 -13   35.10    2.13
   4   0  13   38.27    2.13
  -4   4  13   35.17    2.48
   0  -4  13   32.73    2.13
   4   0  13   38.96    2.02
   1   3 -13   23.29    1.48
   3  -4 -13   23.53    1.53
  -4   1 -13   25.99    1.51
   1   3 -13   25.24    1.59
   4  -1  13   26.92    1.62
  -1  -3  13   24.52    1.57
  -3   4  13   24.51    1.46
  -3   4  13   26.76    1.93
  -4   2 -13    2.16    0.51
   2   2 -13    1.25    0.40
   2  -4 -13    1.53    0.35
  -4   2 -13    1.79    0.45
   2   2 -13    1.57    0.36
  -2  -2  13    1.29    0.39
   4  -2  13    2.13    0.62
  -2   4  13    1.65    0.65
  -2   4  13    1.35    0.45
   1  -4 -13   32.73    1.82
   3   1 -13   30.96    1.80
  -4   3 -13   30.68    1.74
  -4   3 -13   29.42    1.63
   3   1 -13   27.27    1.83
  -1   4  13   28.27    2.11
  -3  -1  13   31.17    1.77
  -1   4  13   32.13    1.70
  -3  -1  13   32.85    1.80
  -3  -1  13   31.36    1.74
   4  -3  13   28.58    1.87
  -4   4 -13   57.99    2.99
   0  -4 -13   60.69    3.10
   0   4  13   48.36    2.99
   4  -4  13   60.88    3.16
  -4   0  13   60.94    3.02
   0   4  13   51.07    3.31
  -4   0  13   54.22    2.88
  -4   5 -13    2.26    0.60
  -1  -4 -13    2.97    0.73
   5  -1 -13    2.40    0.69
   5  -1 -13    2.60    0.69
   1   4  13    1.72    0.44
   1   4  13    2.29    0.92
  -5   1  13    2.56    0.63
   4  -5  13    1.94    0.57
  -4   6 -13   22.31    1.52
   6  -2 -13   25.20    1.62
   6  -2 -13   21.06    1.61
   2   4  13   26.60    1.95
   4  -6  13   21.89    1.77
   2   4  13   26.90    1.60
   2   4  13   25.94    1.57
  -1   6 -13   13.47    1.25
   5   1  13   13.10    1.05
   5   1  13   13.53    1.20
   0   5 -13   16.79    1.24
   0   5 -13   15.19    1.07
  -5   0 -13   13.42    1.07
   5  -5 -13   12.88    1.12
   5   0  13   13.35    1.19
   0  -5  13   15.33    1.26
   5   0  13   15.00    1.02
  -5   5  13   14.81    1.70
  -5   1 -13    1.99    0.55
   1   4 -13    1.69    0.42
   1   4 -13    1.24    0.45
   4  -5 -13    2.61    0.61
   5  -1  13    0.84    0.50
  -1  -4  13    2.77    0.72
  -4   5  13    1.92    0.84
   3  -5 -13   33.83    1.88
   2   3 -13   32.10    1.86
  -5   2 -13   32.40    1.75
   2   3 -13   32.20    1.96
  -3   5  13   28.47    2.35
  -2  -3  13   34.40    1.92
   5  -2  13   29.19    1.98
   3   2 -13   24.64    1.56
  -5   3 -13   23.79    1.33
   3   2 -13   24.28    1.49
   2  -5 -13   22.45    1.48
  -3  -2  13   22.12    1.51
  -2   5  13   27.97    2.06
  -3  -2  13   19.59    1.42
   5  -3  13   25.49    1.67
   1  -5 -13    2.74    0.63
  -5   4 -13    1.90    0.56
   4   1 -13    1.63    0.48
   4   1 -13    2.17    0.49
  -1   5  13    1.88    0.77
   5  -4  13    2.36    0.58
  -4  -1  13    2.20    0.53
  -4  -1  13    2.02    0.47
   5   0 -13   10.62    1.08
   5   0 -13   14.11    1.11
   0  -5 -13   13.00    1.10
  -5   0  13   14.46    1.11
   0   5  13   14.26    1.51
   5  -5  13   12.48    1.20
   6  -1 -13   10.22    1.13
  -1  -5 -13    9.45    1.32
   5  -6  13   14.31    1.32
   1   5  13   12.31    1.60
  -6   1  13   15.07    1.21
   5  -6 -13   14.42    1.20
   1   5 -13   13.18    1.14
  -1  -5  13   11.01    1.27
   6  -1  13   14.68    1.06
   2   4 -13   40.58    2.30
   4  -6 -13   44.94    2.33
   2   4 -13   39.65    2.41
  -4   6  13   34.77    2.93
   6  -2  13   34.42    2.45
  -2  -4  13   42.46    2.39
   3  -6 -13    0.66    0.44
   3   3 -13   -0.27    0.47
   3   3 -13    0.83    0.48
  -3   6  13    0.12    0.93
   6  -3  13    0.47    0.61
  -3  -3  13   -0.14    0.48
  -3  -3  13   -0.58    0.57
   2  -6 -13   20.38    1.55
   4   2 -13   22.51    1.57
   4   2 -13   24.69    1.65
  -4  -2  13   21.47    1.66
  -2   6  13   26.31    2.30
   6  -4  13   26.10    1.80
   5   1 -13   12.68    1.21
  -5  -1  13   12.62    1.28
  -1   6  13   14.84    1.84
   6  -5  13   13.06    1.33
   0   0 -14   32.86    1.95
   0   0 -14   32.99    1.90
   0   0  14   33.94    1.90
   0   0  14   34.41    1.79
   0   1 -14    0.32    0.33
   1  -1 -14    0.64    0.26
  -1   0 -14    0.30    0.25
   0   1 -14    0.54    0.28
   1  -1 -14    0.58    0.44
   1  -1 -14    0.83    0.35
  -1   0 -14    0.59    0.43
  -1   0 -14    0.20    0.33
   1   0  14    0.22    0.28
  -1   1  14    0.63    0.28
   1   0  14    0.50    0.27
  -1   1  14    0.44    0.35
   0  -1  14    0.45    0.29
   1   0  14    0.47    0.27
  -1   1  14    0.40    0.39
   0  -1 -14    0.16    0.40
   0  -1 -14    0.85    0.28
  -1   1 -14    0.62    0.30
   1   0 -14    0.29    0.44
  -1   1 -14    0.91    0.31
   1   0 -14    0.69    0.39
   1   0 -14    1.28    0.40
   1  -1  14    0.49    0.29
  -1   0  14    0.16    0.27
   0   1  14    0.52    0.35
  -1   0  14    0.81    0.37
   0   1  14    0.56    0.26
   2  -1 -14   23.92    1.45
  -1   2 -14   27.08    1.40
   2  -1 -14   23.55    1.73
  -1  -1 -14   20.29    1.58
  -1  -1 -14   24.31    1.49
   2  -1 -14   24.36    1.50
  -1   2 -14   23.09    1.51
   1   1  14   25.99    1.35
   1   1  14   23.87    1.48
  -2   1  14   24.67    1.48
   1   1  14   23.96    1.54
   1  -2  14   25.61    1.52
  -1   3 -14    2.19    0.51
   3  -2 -14    2.07    0.46
  -2  -1 -14    1.47    0.39
  -1   3 -14    2.67    0.59
  -3   2  14    1.69    0.61
   1  -3  14    2.36    0.59
  -3   2  14    1.68    0.53
   2   1  14    1.66    0.59
   2   1  14    2.16    0.57
   2   1  14    2.14    0.53
   2  -2 -14   10.32    0.82
   2  -2 -14    8.96    0.77
  -2   0 -14    8.04    0.74
   0   2 -14    8.09    0.81
   0   2 -14    8.35    0.88
   2   0  14    8.91    0.82
   2   0  14    9.79    0.69
   2   0  14   11.28    0.79
  -2   2  14   11.20    1.00
   0  -2  14   10.49    0.86
  -2   2  14    7.66    0.82
  -2   1 -14   25.53    1.51
   1  -2 -14   24.63    1.53
   1   1 -14   23.56    1.51
   1   1 -14   24.65    1.69
  -2   1 -14   21.92    1.42
   1  -2 -14   25.95    1.52
  -1   2  14   26.24    1.44
  -1   2  14   23.41    1.65
   2  -1  14   22.97    1.51
   2  -1  14   26.86    1.47
  -2   2 -14    6.43    0.60
   2   0 -14    7.54    0.66
   0  -2 -14    4.79    0.67
   0  -2 -14    4.37    0.82
   2   0 -14    6.02    0.99
  -2   2 -14    5.41    0.67
   0   2  14    6.77    0.84
   2  -2  14    5.41    0.65
  -2   0  14    5.97    0.52
  -2   0  14    5.77    0.69
   0   2  14    7.16    0.63
  -2   3 -14    2.25    0.57
   3  -1 -14    1.89    0.48
  -1  -2 -14    1.10    0.40
  -2   3 -14    2.78    0.46
  -1  -2 -14    0.46    0.51
   3  -1 -14    2.69    0.76
   1   2  14    1.73    0.42
   2  -3  14    2.98    0.57
  -3   1  14    1.82    0.34
   1   2  14    1.68    0.53
  -3   1  14    2.58    0.55
   4  -2 -14   19.03    1.23
  -2  -2 -14   18.57    1.32
  -2   4 -14   19.14    1.09
  -2   4 -14   17.10    1.27
   4  -2 -14   15.95    1.37
   2  -4  14   20.45    1.36
   2   2  14   18.34    1.25
   2   2  14   17.73    1.37
  -2   5 -14    1.31    0.49
  -3  -2 -14    1.13    0.51
   5  -3 -14    0.61    0.41
   3   2  14    1.12    0.46
   3   2  14    0.92    0.60
   4  -3 -14    0.10    0.36
  -3  -1 -14    0.13    0.36
  -1   4 -14    0.12    0.32
  -1   4 -14    0.86    0.42
   3   1  14    0.48    0.51
   3   1  14    0.40    0.43
   3   1  14    0.15    0.37
  -4   3  14   -0.10    0.56
   3  -3 -14   16.90    1.27
   3  -3 -14   21.04    1.22
   0   3 -14   20.07    1.39
   0   3 -14   19.35    1.21
  -3   0 -14   20.72    1.26
   0   3 -14   17.64    1.30
  -3   3  14   19.54    1.56
   3   0  14   15.25    1.27
  -3   3  14   18.39    1.18
   3   0  14   18.51    1.30
   1   2 -14    1.72    0.44
  -3   1 -14    1.97    0.55
   2  -3 -14    1.38    0.39
   2  -3 -14    1.80    0.44
   1   2 -14    1.20    0.62
  -3   1 -14    2.39    0.56
  -2   3  14    2.84    0.80
   3  -1  14    1.90    0.57
  -2   3  14    2.70    0.72
  -3   2 -14    2.30    0.57
   1  -3 -14    2.24    0.49
   2   1 -14    0.34    0.68
   1  -3 -14    1.67    0.53
   2   1 -14    1.54    0.41
  -3   2 -14    1.71    0.37
   3  -2  14    2.51    0.57
  -1   3  14    1.84    0.45
  -1   3  14    2.25    0.78
   3   0 -14   20.13    1.40
  -3   3 -14   20.65    1.26
   0  -3 -14   23.05    1.44
   0   3  14   21.59    1.68
  -3   0  14   23.42    1.37
   3  -3  14   21.95    1.43
  -3   0  14   21.93    1.32
   0   3  14   20.67    1.35
  -3   0  14   24.34    1.32
   4  -1 -14   -0.24    0.36
  -3   4 -14    0.80    0.39
  -1  -3 -14    0.14    0.38
   1   3  14    0.35    0.39
   1   3  14   -0.52    0.49
  -4   1  14    0.98    0.30
   3  -4  14    0.24    0.40
  -3   5 -14    0.87    0.46
   5  -2 -14    0.20    0.41
  -2  -3 -14    0.58    0.52
   2   3  14    0.38    0.43
   3  -5  14    0.13    0.49
   2   3  14    0.29    0.61
  -3  -3 -14    9.40    1.27
  -3   6 -14   10.58    1.09
   6  -3 -14   10.70    1.06
   3   3  14    9.30    1.05
   3   3  14    9.18    1.30
   3   3  14    7.72    0.94
  -1   5 -14   16.35    1.27
  -4  -1 -14   16.71    1.17
   5  -4 -14   13.38    1.17
  -1   5 -14   13.59    1.00
   1  -5  14   13.81    1.33
  -5   4  14   16.14    1.68
   4   1  14   13.64    1.05
   4   1  14   13.93    1.20
   0   4 -14    3.35    0.64
   0   4 -14    3.68    0.76
  -4   0 -14    3.25    0.72
   4  -4 -14    3.05    0.68
   4   0  14    4.53    0.77
  -4   4  14    4.19    1.05
   0  -4  14    3.60    0.79
   3  -4 -14   -0.16    0.34
   1   3 -14   -0.01    0.36
  -4   1 -14    0.54    0.40
   1   3 -14    0.18    0.38
  -1  -3  14    0.60    0.40
  -3   4  14    0.48    0.63
   4  -1  14    0.44    0.45
  -4   2 -14   16.04    1.17
   2   2 -14   19.23    1.21
  -4   2 -14   16.56    1.11
   2   2 -14   17.42    1.28
   2  -4 -14   17.55    1.22
   4  -2  14   17.12    1.30
  -2   4  14   19.33    1.60
  -2  -2  14   16.77    1.22
   3   1 -14    0.54    0.41
   1  -4 -14    0.74    0.36
  -4   3 -14    0.24    0.37
   3   1 -14    0.17    0.37
  -1   4  14    0.62    0.64
   4  -3  14    0.13    0.43
  -3  -1  14    0.31    0.34
  -1   4  14   -0.14    0.31
  -3  -1  14    0.19    0.40
  -3  -1  14    0.09    0.44
  -4   4 -14    6.96    0.75
   0  -4 -14    6.70    0.83
   4  -4  14    7.45    0.85
   0   4  14    5.78    0.75
   0   4  14    5.73    1.09
  -4   0  14    6.37    0.73
  -4   0  14    6.26    0.55
  -4   5 -14   13.53    1.04
  -1  -4 -14   10.64    1.15
   5  -1 -14   12.07    1.10
   1   4  14   12.42    1.41
  -5   1  14   12.56    0.98
   1   4  14   13.48    1.08
   4  -5  14   13.65    1.20
   0   5 -14    3.75    0.94
   0   5 -14    2.40    0.52
   5  -5 -14    4.23    0.89
   5   0  14    2.09    0.62
  -5   5  14    2.15    1.00
   0  -5  14    2.54    0.67
   1   4 -14   15.14    1.22
   1   4 -14   14.40    1.09
  -5   1 -14   14.02    1.04
   4  -5 -14   13.77    1.15
  -1  -4  14   13.80    1.23
  -4   5  14   13.71    1.64
   5  -1  14   13.31    1.28
   3  -5 -14    0.81    0.43
   2   3 -14    1.61    0.49
  -5   2 -14    1.27    0.38
   2   3 -14    0.62    0.48
  -2  -3  14    0.71    0.46
   5  -2  14    0.57    0.57
  -3   5  14    1.26    0.82
   2  -5 -14    0.37    0.41
  -5   3 -14    0.63    0.36
   3   2 -14   -0.07    0.43
   3   2 -14    0.43    0.45
  -3  -2  14    0.58    0.42
  -3  -2  14   -0.47    0.45
   5  -3  14    3.15    0.88
  -2   5  14    0.90    0.80
   4   1 -14   11.90    1.13
   1  -5 -14   11.63    1.09
   4   1 -14   12.47    1.13
  -1   5  14   11.90    1.59
   5  -4  14   13.63    1.22
  -4  -1  14   13.96    1.09
   5   0 -14    3.30    0.64
   0  -5 -14    4.07    0.91
   5   0 -14    4.24    0.93
   5  -5  14    2.72    0.66
   0   5  14    3.01    0.98
  -5   0  14    2.74    0.80
   3   3 -14    9.60    1.18
   3  -6 -14    9.35    1.04
   3   3 -14    9.01    1.07
  -3   6  14    9.37    1.84
  -3  -3  14   10.18    1.17
   6  -3  14    9.07    1.28
  -3  -3  14   10.81    1.10
   0   0 -15  109.98    5.76
   0   0  15  112.59    5.62
   0   0  15  111.59    5.76
   0   1 -15   24.84    1.59
   1  -1 -15   24.52    1.56
   0   1 -15   26.77    1.61
   1  -1 -15   25.82    1.62
  -1   0 -15   26.45    1.58
  -1   1  15   26.11    1.56
  -1   1  15   27.06    1.71
   1   0  15   24.73    1.57
   1   0  15   28.73    1.49
   0  -1  15   27.64    1.62
   1   0 -15   23.35    1.41
   1   0 -15   21.70    1.56
   0  -1 -15   21.58    1.38
   0  -1 -15   22.28    1.50
  -1   1 -15   25.35    1.45
  -1   0  15   21.38    1.41
   0   1  15   22.04    1.37
   1  -1  15   22.63    1.42
   0   1  15   22.16    1.47
  -1   2 -15   19.11    1.14
   2  -1 -15   18.66    1.27
  -1   2 -15   19.74    1.28
  -1  -1 -15   18.62    1.21
   2  -1 -15   18.66    1.19
  -2   1  15   17.45    1.24
   1   1  15   17.59    1.05
   1   1  15   15.45    1.18
   1  -2  15   18.68    1.23
   1   1  15   17.70    1.26
   3  -2 -15   22.36    1.37
  -2  -1 -15   22.38    1.39
  -1   3 -15   21.43    1.46
  -1   3 -15   21.03    1.30
   3  -2 -15   20.89    1.44
  -3   2  15   20.13    1.35
   2   1  15   20.12    1.47
   2   1  15   23.38    1.33
   2   1  15   20.89    1.44
   1  -3  15   23.84    1.49
  -2   0 -15  147.26    7.09
   0   2 -15  143.64    7.14
   0   2 -15  139.61    7.15
   2  -2 -15  141.07    7.05
   2  -2 -15  127.96    7.08
  -2   2  15  119.42    7.05
  -2   2  15  134.67    7.28
   2   0  15  147.76    7.01
   2   0  15  140.60    7.14
   2   0  15  137.12    6.97
   0  -2  15  137.51    7.15
   1   1 -15   18.07    1.25
  -2   1 -15   18.96    1.24
   1  -2 -15   19.10    1.29
   1  -2 -15   17.55    1.24
   1   1 -15   16.87    1.41
  -1   2  15   19.43    1.17
  -1   2  15   18.27    1.40
   2  -1  15   16.82    1.22
   2  -1  15   19.29    1.19
   0  -2 -15  159.77    8.52
   2   0 -15  177.04    8.55
   0  -2 -15  166.42    8.55
  -2   2 -15  154.96    8.52
  -2   2 -15  167.62    8.41
   0   2  15  161.31    8.67
   0   2  15  164.37    8.46
   2  -2  15  170.06    8.55
  -2   0  15  177.57    8.37
  -1  -2 -15   18.97    1.41
  -2   3 -15   18.57    1.39
   3  -1 -15   21.72    1.34
  -2   3 -15   21.16    1.25
  -3   1  15   21.96    1.16
   1   2  15   20.92    1.59
   2  -3  15   23.54    1.43
   1   2  15   20.86    1.39
  -3   1  15   20.09    1.32
  -2   4 -15   64.39    3.49
  -2   4 -15   63.45    3.68
  -2  -2 -15   69.13    3.70
   4  -2 -15   69.56    3.62
   2   2  15   67.62    3.80
   2   2  15   67.01    3.67
   2  -4  15   70.89    3.74
  -2   5 -15   15.64    1.32
  -3  -2 -15   17.63    1.33
   5  -3 -15   15.70    1.16
   3   2  15   13.31    1.23
   3   2  15   14.35    1.42
  -3  -1 -15   16.12    1.18
  -1   4 -15   16.78    1.30
   4  -3 -15   14.84    1.14
  -1   4 -15   14.54    1.08
   3   1  15   16.87    1.28
  -4   3  15   15.86    1.56
   3   1  15   16.91    1.27
   0   3 -15   10.99    1.08
   3  -3 -15   13.12    1.05
  -3   0 -15   13.87    1.00
  -3   3  15   13.63    1.31
   3   0  15   12.91    1.09
   2  -3 -15   21.50    1.45
   1   2 -15   19.10    1.43
   2  -3 -15   22.26    1.42
  -3   1 -15   23.72    1.40
   1   2 -15   18.80    1.64
  -2   3  15   22.54    1.69
   3  -1  15   21.01    1.45
  -3   2 -15   20.98    1.34
   2   1 -15   19.46    1.36
   1  -3 -15   18.73    1.37
   1  -3 -15   17.65    1.40
  -3   2 -15   15.61    1.22
  -1   3  15   21.41    1.22
  -1   3  15   20.80    1.63
   3  -2  15   21.50    1.37
  -3   3 -15   13.08    1.12
   0  -3 -15   14.65    1.17
   3   0 -15   14.75    1.10
  -3   0  15   14.74    1.05
  -3   0  15   13.86    1.08
   3  -3  15   16.18    1.16
  -3   0  15   16.64    0.99
   0   3  15   14.98    1.44
   0   3  15   14.16    1.05
  -3   4 -15   18.17    1.37
   4  -1 -15   20.42    1.34
  -1  -3 -15   19.47    1.47
  -4   1  15   20.57    1.16
   1   3  15   18.80    1.64
   3  -4  15   19.71    1.41
   1   3  15   17.72    1.37
  -3   5 -15   12.66    1.17
  -2  -3 -15    9.64    1.23
   5  -2 -15   12.04    1.05
   2   3  15   11.32    1.35
   3  -5  15   11.11    1.19
   2   3  15   12.55    1.12
  -4  -1 -15   11.21    1.06
  -1   5 -15   10.36    1.20
   5  -4 -15   10.45    1.07
  -5   4  15   10.27    1.57
   4   1  15   11.84    1.16
   1  -5  15    8.62    1.28
   4  -4 -15  117.10    5.88
   0   4 -15  110.06    5.92
   0   4 -15  107.02    5.73
  -4   0 -15  120.19    5.79
   0  -4  15  107.35    5.91
  -4   4  15  112.77    6.21
   4   0  15  103.67    5.88
   1   3 -15   15.27    1.13
   3  -4 -15   13.50    1.18
  -4   1 -15   16.22    1.17
   1   3 -15   14.66    1.26
  -1  -3  15   14.19    1.24
  -3   4  15   17.30    1.57
   4  -1  15   15.51    1.29
   2   2 -15   63.31    3.47
   2  -4 -15   66.10    3.53
  -4   2 -15   62.24    3.45
   2   2 -15   58.94    3.56
   4  -2  15   66.89    3.61
  -2  -2  15   64.21    3.50
  -2   4  15   67.18    3.89
  -4   3 -15   17.29    1.27
   3   1 -15   15.40    1.34
   1  -4 -15   19.84    1.36
  -1   4  15   20.01    1.16
  -1   4  15   17.24    1.70
  -3  -1  15   20.39    1.26
   4  -3  15   17.82    1.36
  -3  -1  15   17.73    1.25
   4   0 -15   87.28    4.75
  -4   4 -15   86.05    4.65
   0  -4 -15   75.86    4.73
  -4   0  15   90.79    4.61
   0   4  15   90.64    4.64
   0   4  15   95.43    5.12
   4  -4  15   93.98    4.79
  -4   5 -15    9.78    1.01
   5  -1 -15   10.26    1.11
  -1  -4 -15    9.20    1.17
   1   4  15   10.35    1.09
   1   4  15    9.47    1.42
   4  -5  15   10.56    1.17
   4  -5 -15   12.71    1.14
   1   4 -15   10.71    1.07
   1   4 -15    9.47    1.22
   5  -1  15   11.39    1.29
  -1  -4  15   10.80    1.23
  -4   5  15   12.48    1.64
   2   3 -15   16.56    1.24
   3  -5 -15   15.37    1.26
   2   3 -15   12.31    1.28
  -2  -3  15   14.60    1.28
   5  -2  15   12.80    1.35
  -3   5  15   15.84    1.76
   3   2 -15   10.68    1.11
   2  -5 -15    9.25    1.08
   3   2 -15   11.42    1.14
  -3  -2  15   10.97    1.03
   5  -3  15   10.96    1.21
  -3  -2  15   11.05    1.07
  -2   5  15   13.36    1.67
   4   1 -15   10.02    1.14
   1  -5 -15    8.26    1.08
   4   1 -15    8.69    1.09
  -1   5  15   11.16    1.68
   5  -4  15   10.69    1.16
  -4  -1  15    8.92    1.01
   0   0 -16   82.48    4.42
   0   0  16   84.07    4.42
   0   0  16   85.20    4.26
   1  -1 -16   19.05    1.26
   0   1 -16   21.81    1.32
   0   1 -16   20.92    1.32
  -1   0 -16   19.45    1.27
  -1   1  16   19.33    1.26
   1   0  16   18.43    1.16
   1   0  16   19.52    1.28
   0  -1  16   17.34    1.28
   0  -1 -16   29.77    1.76
   1   0 -16   25.86    1.88
   1   0 -16   30.17    1.79
  -1   1 -16   30.94    1.81
   1  -1  16   33.24    1.71
  -1   0  16   32.10    1.81
   0   1  16   26.88    1.74
   0   1  16   30.34    1.85
   1  -1  16   29.87    1.78
   2  -1 -16   50.20    2.65
  -1   2 -16   48.14    2.72
  -1  -1 -16   48.25    2.66
   1   1  16   47.07    2.66
   1  -2  16   50.96    2.70
   1   1  16   41.31    2.51
   1   1  16   48.75    2.70
  -1   3 -16   14.96    1.22
   3  -2 -16   13.90    1.06
  -2  -1 -16   14.55    1.11
   2   1  16   16.68    1.20
   2   1  16   15.18    1.19
   1  -3  16   13.66    1.17
   2  -2 -16   16.91    1.23
  -2   0 -16   19.28    1.23
   2  -2 -16   18.44    1.32
   0   2 -16   20.48    1.36
  -2   2  16   17.62    1.46
   0  -2  16   17.71    1.31
   2   0  16   19.33    1.30
   2   0  16   17.20    1.19
   1   1 -16   46.04    2.89
   1  -2 -16   48.96    2.77
  -2   1 -16   51.50    2.75
   1   1 -16   49.32    2.78
   1  -2 -16   49.70    2.76
  -1   2  16   50.83    2.68
   2  -1  16   48.90    2.76
  -1   2  16   48.76    2.91
   2  -1  16   49.89    2.68
   2   0 -16   30.66    1.89
  -2   2 -16   29.15    1.89
   0  -2 -16   33.11    1.93
   0   2  16   31.18    1.84
  -2   0  16   36.03    1.72
   0   2  16   29.09    2.04
   2  -2  16   31.56    1.91
   3  -1 -16   25.43    1.50
  -1  -2 -16   28.04    1.61
  -2   3 -16   20.93    1.56
   1   2  16   21.09    1.51
   1   2  16   20.27    1.70
   2  -3  16   26.01    1.58
  -2   4 -16   53.46    3.16
   4  -2 -16   55.94    3.06
  -2   4 -16   52.23    2.94
  -2  -2 -16   58.32    3.15
   2   2  16   56.48    3.30
   2  -4  16   58.44    3.19
   2   2  16   55.29    3.16
  -3  -2 -16    9.75    1.18
  -2   5 -16   11.49    1.27
   5  -3 -16   11.89    1.06
   3   2  16   11.60    1.25
  -3  -1 -16   20.34    1.35
  -1   4 -16   18.43    1.49
   4  -3 -16   20.05    1.31
  -1   4 -16   17.05    1.25
   3   1  16   14.99    1.40
   0   3 -16   35.20    2.45
   3  -3 -16   43.49    2.42
  -3   0 -16   46.28    2.39
   3   0  16   40.38    2.48
  -3   3  16   41.67    2.68
   2  -3 -16   12.73    1.19
  -3   1 -16   16.88    1.15
   1   2 -16   15.59    1.24
   3  -1  16   16.90    1.26
  -2   3  16   15.26    1.43
   2   1 -16   21.78    1.60
   1  -3 -16   26.92    1.67
  -3   2 -16   25.63    1.59
  -2  -1  16   27.36    1.47
  -1   3  16   21.86    1.83
  -1   3  16   24.21    1.46
   3  -2  16   22.19    1.59
  -3   3 -16   34.64    2.21
   0  -3 -16   36.11    2.29
   3   0 -16   37.76    2.21
   3  -3  16   38.93    2.24
  -3   0  16   32.60    2.12
   0   3  16   38.04    2.13
  -3   0  16   40.97    2.05
   0   3  16   39.25    2.56
  -1  -3 -16    9.94    1.21
   4  -1 -16   12.68    1.06
  -3   4 -16   12.41    1.18
   1   3  16   12.87    1.10
   3  -4  16   12.56    1.16
   1   3  16   12.20    1.48
  -2  -3 -16   17.49    1.51
   5  -2 -16   16.73    1.33
  -3   5 -16   14.89    1.42
   2   3  16   15.05    1.42
   2   3  16   16.47    1.65
   3  -5  16   17.85    1.49
  -4   0 -16   21.67    1.43
   0   4 -16   19.58    1.40
   0   4 -16   17.49    1.57
   4  -4 -16   21.22    1.52
   4   0  16   17.84    1.55
  -4   4  16   21.13    1.86
   0  -4  16   19.08    1.58
   1   3 -16   13.49    1.25
   1   3 -16   13.92    1.37
   3  -4 -16   19.83    1.43
  -4   1 -16   19.40    1.27
   4  -1  16   15.21    1.42
  -1  -3  16   19.25    1.45
  -3   4  16   17.69    1.70
   2  -4 -16   59.18    3.12
   2   2 -16   50.28    3.00
   2   2 -16   48.53    3.09
  -4   2 -16   54.78    2.98
   4  -2  16   53.35    3.12
  -2  -2  16   53.35    3.03
  -2   4  16   56.37    3.43
   3   1 -16   12.02    1.14
   1  -4 -16    9.32    1.12
  -4   3 -16   10.25    1.03
  -3  -1  16    9.28    0.99
  -1   4  16   13.58    1.54
  -3  -1  16   11.60    0.97
   4  -3  16   10.69    1.10
  -1   4  16   10.26    0.87
  -4   4 -16   13.59    1.17
   4   0 -16   14.87    1.24
   0   4  16   15.95    1.73
   4  -4  16   11.62    1.22
   0   4  16   11.40    1.08
   2   3 -16   11.93    1.19
   3  -5 -16    9.72    1.18
   2   3 -16    9.99    1.28
  -2  -3  16   10.56    1.22
  -3   5  16   12.62    1.77
   5  -2  16    8.51    1.28
   2  -5 -16   21.28    1.52
   3   2 -16   15.57    1.42
   3   2 -16   14.10    1.46
  -3  -2  16   17.79    1.35
  -2   5  16   17.08    1.95
   5  -3  16   14.66    1.46
  -3  -2  16   19.02    1.35
   0   0 -17   22.01    1.44
   0   0  17   22.63    1.42
  -1   0 -17   15.05    1.13
   1  -1 -17   16.74    1.14
   0   1 -17   14.82    1.16
   0  -1  17   16.99    1.17
  -1   1  17   15.93    1.14
   1   0  17   16.00    1.15
   0  -1 -17   14.78    1.10
   1   0 -17   16.44    1.14
  -1   1 -17   16.49    1.15
   1   0 -17   14.97    1.32
  -1   0  17   15.29    1.14
   0   1  17   15.44    1.19
   1  -1  17   15.18    1.07
   0   1  17   14.20    1.08
   1  -1  17   15.25    1.11
   2  -1 -17   12.68    0.93
  -1  -1 -17    9.63    0.93
  -1   2 -17   12.15    1.05
   1  -2  17   10.59    0.98
   1   1  17   11.52    0.99
   1   1  17    9.80    0.93
  -1   3 -17   13.44    1.27
  -2  -1 -17   15.83    1.17
   3  -2 -17   15.37    1.13
   1  -3  17   16.86    1.27
   2   1  17   13.47    1.25
   2  -2 -17   31.59    1.90
   0   2 -17   29.89    1.97
  -2   0 -17   34.34    1.91
  -2   2  17   32.69    2.13
   2   0  17   29.36    1.93
   1   1 -17   10.12    0.98
   1  -2 -17   11.92    0.98
  -2   1 -17   12.59    0.97
  -1   2  17   10.74    1.13
  -1   2  17   10.26    0.90
   2  -1  17   10.85    0.98
  -2   2 -17   21.17    1.41
   0  -2 -17   16.36    1.33
   2   0 -17   20.32    1.34
  -2   0  17   17.56    1.12
   2  -2  17   19.82    1.36
   0   2  17   20.57    1.55
   0   2  17   19.26    1.30
  -1  -2 -17   11.40    1.10
   3  -1 -17   10.41    0.98
  -2   3 -17   12.86    1.19
   2  -3  17   13.06    1.11
   1   2  17   13.89    1.34
   1   2  17   11.98    1.08
   4  -2 -17   15.00    1.15
  -2   4 -17   13.82    1.38
  -2  -2 -17   15.58    1.28
   2   2  17   15.17    1.37
   2  -4  17   14.31    1.32
  -3  -1 -17   10.65    1.06
   4  -3 -17   12.74    1.04
  -1   4 -17    9.83    1.06
  -1   4 -17    8.14    1.25
   3   1  17   10.76    1.27
   3  -3 -17    9.14    0.96
   0   3 -17    8.50    1.09
  -3   0 -17   10.54    0.98
   3   0  17    6.99    1.10
  -3   3  17    8.76    1.27
  -3   1 -17   15.26    1.21
   2  -3 -17   18.20    1.32
   1   2 -17   14.03    1.28
  -2   3  17   15.92    1.51
   3  -1  17   15.10    1.28
  -3   2 -17   12.94    1.11
   2   1 -17   12.94    1.14
   1  -3 -17   10.96    1.13
   3  -2  17   11.14    1.07
  -2  -1  17   12.20    0.93
  -1   3  17   11.45    0.93
  -1   3  17   12.50    1.38
   0  -3 -17   11.63    1.13
   3   0 -17   11.73    1.02
  -3   3 -17    9.70    1.11
   3  -3  17    9.70    1.02
  -3   0  17    9.32    1.01
   0   3  17    8.40    0.92
   0   3  17   10.68    1.40
   4  -1 -17    9.50    1.05
  -1  -3 -17    9.99    1.23
  -3   4 -17   11.47    1.26
   3  -4  17   11.21    1.16
   1   3  17    9.20    1.11
   1   3  17   10.83    1.55
  -4   0 -17   13.44    1.24
   0   4 -17   15.27    1.27
   4  -4 -17   13.74    1.31
   4   0  17   12.30    1.43
   3  -4 -17   10.93    1.22
   1   3 -17    8.91    1.10
   1   3 -17    8.47    1.22
  -4   1 -17   10.27    1.08
  -3   4  17   11.28    1.52
  -1  -3  17    8.24    1.23
   4  -1  17   10.01    1.25
   2   2 -17   14.35    1.29
  -4   2 -17   16.19    1.27
   2  -4 -17   12.64    1.38
   2   2 -17   11.91    1.33
  -2   4  17   17.30    1.73
  -2  -2  17   13.22    1.32
   4  -2  17   15.23    1.35
  -4   3 -17    9.91    1.12
   3   1 -17   10.76    1.18
   1  -4 -17   10.66    1.30
  -3  -1  17   11.17    0.97
  -1   4  17   12.19    1.64
  -3  -1  17   10.00    1.05
   4  -3  17   10.76    1.17
   4   0 -17   19.83    1.56
   0   0 -18    0.81    0.41
   0   0  18    0.90    0.41
   1  -1 -18    6.71    0.80
  -1   0 -18    6.67    0.84
   0   1 -18    6.07    0.83
   0  -1  18    6.71    0.83
   1   0  18    6.91    0.82
  -1   1  18    6.58    0.79
   1   0 -18    5.04    0.78
   0  -1 -18    4.54    0.75
  -1   1 -18    4.86    0.78
   1  -1  18    5.11    0.78
   0   1  18    5.10    0.74
  -1  -1 -18    2.16    0.52
   2  -1 -18    4.02    0.68
  -1   2 -18    3.54    0.84
   1   1  18    2.61    0.75
   1  -2  18    3.43    0.79
  -2  -1 -18    8.95    0.97
   3  -2 -18    8.20    0.90
  -1   3 -18    8.54    1.10
   2   1  18    6.53    1.06
   1  -3  18    7.94    1.05
  -2   0 -18   13.73    1.11
   2  -2 -18   12.77    1.09
   0   2 -18   12.11    1.18
   2   0  18   11.95    1.12
   1   1 -18    3.56    0.80
   1  -2 -18    2.34    0.72
  -2   1 -18    2.78    0.73
  -1   2  18    3.17    0.78
  -1   2  18    2.44    0.67
   2  -1  18    3.12    0.78
   2   0 -18   12.81    1.03
  -2   2 -18   11.31    1.11
   0  -2 -18   11.01    1.07
   0   2  18   11.37    0.99
   2  -2  18   10.52    1.06
   0   2  18   11.90    1.27
  -2   3 -18    6.33    1.10
   3  -1 -18    6.69    0.88
  -1  -2 -18    5.32    0.94
   1   2  18    5.19    0.93
   2  -3  18    5.44    0.92
   0   3 -18    5.55    1.10
   3  -3 -18    2.84    0.87
  -3   0 -18    3.35    0.90
   3   0  18    5.60    1.06
  -3   3  18    3.42    1.24
  -3   1 -18    7.17    0.98
   2  -3 -18    8.84    1.04
   1   2 -18    7.39    1.05
  -2   3  18    8.78    1.29
   3  -1  18    7.84    1.04
  -3   2 -18    5.99    0.97
   2   1 -18    7.23    1.00
   1  -3 -18    6.62    1.04
  -1   3  18    6.73    1.27
  -1   3  18    6.42    0.80
   3  -2  18    5.54    0.98
   0  -3 -18    1.25    0.68
  -3   3 -18    2.95    0.71
   3   0 -18    4.65    0.86
  -3   0  18    2.22    0.59
   3  -3  18    4.14    0.95
   0   3  18    2.82    0.97
   0   3  18    4.21    0.83
   0   0 -19   25.43    1.61
   0   0  19   22.12    1.57
  -1   0 -19   18.73    1.30
   1  -1 -19   15.25    1.23
   0   1 -19   16.03    1.29
   1   0  19   15.66    1.29
   0  -1  19   16.36    1.30
  -1   1  19   18.54    1.29
  -1   1 -19   16.77    1.36
   1   0 -19   19.33    1.39
   0  -1 -19   19.22    1.37
   0   1  19   19.57    1.35
   1  -1  19   19.67    1.40
   2  -1 -19   84.42    4.55
  -1   2 -19   86.55    4.62
  -1  -1 -19   81.41    4.55
   1  -2  19   85.38    4.59
   1   1  19   87.96    4.57
   2  -2 -19    9.53    1.03
  -2   0 -19   10.24    1.03
   0   2 -19    7.73    1.12
   2   0  19    9.15    1.08
   1   1 -19   88.40    4.73
  -2   1 -19   88.50    4.68
   1  -2 -19   83.78    4.69
   2  -1  19   85.91    4.71
  -1   2  19   90.41    4.63
  -1   2  19   88.66    4.86
  -2   2 -19    8.92    1.04
   2   0 -19    5.51    0.93
   0  -2 -19    6.01    0.99
   2  -2  19    6.38    0.99
   0   2  19    6.56    0.89
   0   0 -20   51.58    3.06
   0   0  20   56.40    3.06
  -1   0 -20    2.35    0.63
   1  -1 -20    0.06    0.50
   0   1 -20    2.45    0.64
   0  -1  20    1.50    0.59
   1   0  20    1.60    0.61
  -1   1 -20    2.09    0.62
   0  -1 -20    2.68    0.62
   1   0 -20    0.51    0.52
   1  -1  20    1.62    0.57
   0   1  20    1.73    0.57
   0   0   0    0.00    0.00
;
_shelx_hkl_checksum              43649
loop_
_space_group_symop_operation_xyz
'x, y, z'
'-y, x-y, z'
'-x+y, -x, z'
'y, x, -z'
'x-y, -y, -z'
'-x, -x+y, -z'
'-x, -y, -z'
'y, -x+y, -z'
'x-y, x, -z'
'-y, -x, z'
'-x+y, y, z'
'x, x-y, z'
loop_
_atom_site_label
_atom_site_type_symbol
_atom_site_fract_x
_atom_site_fract_y
_atom_site_fract_z
_atom_site_U_iso_or_equiv
_atom_site_adp_type
_atom_site_occupancy
_atom_site_site_symmetry_order
_atom_site_calc_flag
_atom_site_refinement_flags_posn
_atom_site_refinement_flags_adp
_atom_site_refinement_flags_occupancy
_atom_site_disorder_assembly
_atom_site_disorder_group
Ba1 Ba -1.3333 -0.6667 0.57451(6) 0.0095(2) Uani 1 6 d S T P . .
Fe1 Fe -1.3333 -0.6667 0.31544(12) 0.0044(3) Uani 1 6 d S T P . .
Fe2 Fe -0.82635(12) 0.3473(2) 0.17542(7) 0.0048(2) Uani 1 2 d S T P . .
Fe3 Fe -1.0000 0.0000 0.0000 0.0010(4) Uani 1 12 d S T P . .
Fe4 Fe -1.3333 -0.6667 0.04678(12) 0.0035(3) Uani 1 6 d S T P . .
Ge5 Ge -1.0000 0.0000 0.37512(8) 0.0032(3) Uani 1 6 d S T P . .
O1 O -1.3333 -0.6667 -0.0882(6) 0.0058(16) Uani 1 6 d S T P . .
O2 O -1.0000 0.0000 0.2469(6) 0.0029(14) Uani 1 6 d S T P . .
O3 O -1.1545(5) -0.3089(10) 0.0858(3) 0.0064(9) Uani 1 2 d S T P . .
O4 O -1.5015(6) -0.4985(6) 0.2469(3) 0.0064(10) Uani 1 2 d S T P . .
O5 O -1.1662(5) -0.3323(11) 0.4071(3) 0.0043(8) Uani 1 2 d S T P . .
loop_
_atom_site_aniso_label
_atom_site_aniso_U_11
_atom_site_aniso_U_22
_atom_site_aniso_U_33
_atom_site_aniso_U_23
_atom_site_aniso_U_13
_atom_site_aniso_U_12
Ba1 0.0088(2) 0.0088(2) 0.0108(4) 0.000 0.000 0.00439(12)
Fe1 0.0042(4) 0.0042(4) 0.0049(7) 0.000 0.000 0.0021(2)
Fe2 0.0054(3) 0.0053(4) 0.0037(4) -0.0001(4) -0.0001(2) 0.0026(2)
Fe3 0.0011(6) 0.0011(6) 0.0007(10) 0.000 0.000 0.0005(3)
Fe4 0.0034(4) 0.0034(4) 0.0037(8) 0.000 0.000 0.0017(2)
Ge5 0.0036(3) 0.0036(3) 0.0026(6) 0.000 0.000 0.00178(17)
O1 0.007(2) 0.007(2) 0.003(3) 0.000 0.000 0.0035(11)
O2 0.003(2) 0.003(2) 0.002(3) 0.000 0.000 0.0017(11)
O3 0.0074(16) 0.008(2) 0.0043(18) -0.001(2) -0.0006(10) 0.0039(11)
O4 0.0054(16) 0.0054(16) 0.007(2) 0.0017(11) -0.0017(11) 0.0021(17)
O5 0.0058(15) 0.0022(18) 0.0037(18) -0.0006(17) -0.0003(9) 0.0011(9)
loop_
_atom_type_symbol
_atom_type_description
_atom_type_scat_dispersion_real
_atom_type_scat_dispersion_imag
_atom_type_scat_source
O O 0.0106 0.0060 'International Tables Vol C Tables 4.2.6.8 and 6.1.1.4'
Fe Fe 0.3463 0.8444 'International Tables Vol C Tables 4.2.6.8 and 6.1.1.4'
Ge Ge 0.1547 1.8001 'International Tables Vol C Tables 4.2.6.8 and 6.1.1.4'
Ba Ba -0.3244 2.2819 'International Tables Vol C Tables 4.2.6.8 and 6.1.1.4'
loop_
_geom_angle_atom_site_label_1
_geom_angle_atom_site_label_2
_geom_angle_atom_site_label_3
_geom_angle
_geom_angle_site_symmetry_1
_geom_angle_site_symmetry_3
_geom_angle_publ_flag
O5 Ba1 O5 60.17(17) 3_335 2_355 ?
O5 Ba1 O5 60.17(17) 3_335 . ?
O5 Ba1 O5 60.17(17) 2_355 . ?
O5 Ba1 O5 64.73(16) 3_335 7_346 ?
O5 Ba1 O5 124.87(6) 2_355 7_346 ?
O5 Ba1 O5 94.24(10) . 7_346 ?
O5 Ba1 O5 64.73(16) 3_335 8_436 ?
O5 Ba1 O5 94.24(10) 2_355 8_436 ?
O5 Ba1 O5 124.87(6) . 8_436 ?
O5 Ba1 O5 59.5(2) 7_346 8_436 ?
O5 Ba1 O5 94.24(10) 3_335 9_566 ?
O5 Ba1 O5 124.87(6) 2_355 9_566 ?
O5 Ba1 O5 64.73(16) . 9_566 ?
O5 Ba1 O5 59.9(2) 7_346 9_566 ?
O5 Ba1 O5 119.21(3) 8_436 9_566 ?
O5 Ba1 O5 94.24(10) 3_335 9_456 ?
O5 Ba1 O5 64.73(16) 2_355 9_456 ?
O5 Ba1 O5 124.87(6) . 9_456 ?
O5 Ba1 O5 119.21(3) 7_346 9_456 ?
O5 Ba1 O5 59.9(2) 8_436 9_456 ?
O5 Ba1 O5 169.74(18) 9_566 9_456 ?
O5 Ba1 O5 124.87(6) 3_335 8_446 ?
O5 Ba1 O5 94.24(10) 2_355 8_446 ?
O5 Ba1 O5 64.73(16) . 8_446 ?
O5 Ba1 O5 119.21(3) 7_346 8_446 ?
O5 Ba1 O5 169.74(18) 8_436 8_446 ?
O5 Ba1 O5 59.5(2) 9_566 8_446 ?
O5 Ba1 O5 119.21(3) 9_456 8_446 ?
O5 Ba1 O5 124.87(6) 3_335 7_246 ?
O5 Ba1 O5 64.73(16) 2_355 7_246 ?
O5 Ba1 O5 94.24(10) . 7_246 ?
O5 Ba1 O5 169.74(18) 7_346 7_246 ?
O5 Ba1 O5 119.21(3) 8_436 7_246 ?
O5 Ba1 O5 119.21(3) 9_566 7_246 ?
O5 Ba1 O5 59.5(2) 9_456 7_246 ?
O5 Ba1 O5 59.9(2) 8_446 7_246 ?
O5 Ba1 O4 121.49(11) 3_335 9_566 ?
O5 Ba1 O4 177.96(18) 2_355 9_566 ?
O5 Ba1 O4 121.49(11) . 9_566 ?
O5 Ba1 O4 56.76(14) 7_346 9_566 ?
O5 Ba1 O4 85.66(10) 8_436 9_566 ?
O5 Ba1 O4 56.76(14) 9_566 9_566 ?
O5 Ba1 O4 113.56(13) 9_456 9_566 ?
O5 Ba1 O4 85.66(10) 8_446 9_566 ?
O5 Ba1 O4 113.56(12) 7_246 9_566 ?
O5 Ba1 O4 121.49(11) 3_335 8_436 ?
O5 Ba1 O4 121.49(11) 2_355 8_436 ?
O5 Ba1 O4 177.96(18) . 8_436 ?
O5 Ba1 O4 85.66(10) 7_346 8_436 ?
O5 Ba1 O4 56.76(14) 8_436 8_436 ?
O5 Ba1 O4 113.56(12) 9_566 8_436 ?
O5 Ba1 O4 56.76(14) 9_456 8_436 ?
O5 Ba1 O4 113.56(12) 8_446 8_436 ?
O5 Ba1 O4 85.66(10) 7_246 8_436 ?
O4 Ba1 O4 56.82(19) 9_566 8_436 ?
O5 Ba1 O4 177.96(17) 3_335 7_246 ?
O5 Ba1 O4 121.49(11) 2_355 7_246 ?
O5 Ba1 O4 121.49(11) . 7_246 ?
O5 Ba1 O4 113.56(12) 7_346 7_246 ?
O5 Ba1 O4 113.56(13) 8_436 7_246 ?
O5 Ba1 O4 85.66(10) 9_566 7_246 ?
O5 Ba1 O4 85.66(10) 9_456 7_246 ?
O5 Ba1 O4 56.76(14) 8_446 7_246 ?
O5 Ba1 O4 56.76(14) 7_246 7_246 ?
O4 Ba1 O4 56.82(19) 9_566 7_246 ?
O4 Ba1 O4 56.82(19) 8_436 7_246 ?
O4 Fe1 O4 97.4(2) 2_355 3_335 ?
O4 Fe1 O4 97.4(2) 2_355 . ?
O4 Fe1 O4 97.4(2) 3_335 . ?
O4 Fe1 O5 87.72(15) 2_355 3_335 ?
O4 Fe1 O5 87.72(15) 3_335 3_335 ?
O4 Fe1 O5 172.2(2) . 3_335 ?
O4 Fe1 O5 172.2(2) 2_355 . ?
O4 Fe1 O5 87.72(15) 3_335 . ?
O4 Fe1 O5 87.72(15) . . ?
O5 Fe1 O5 86.6(2) 3_335 . ?
O4 Fe1 O5 87.72(15) 2_355 2_355 ?
O4 Fe1 O5 172.2(2) 3_335 2_355 ?
O4 Fe1 O5 87.72(15) . 2_355 ?
O5 Fe1 O5 86.6(2) 3_335 2_355 ?
O5 Fe1 O5 86.6(2) . 2_355 ?
O4 Fe1 Ba1 119.83(16) 2_355 . ?
O4 Fe1 Ba1 119.83(16) 3_335 . ?
O4 Fe1 Ba1 119.83(16) . . ?
O5 Fe1 Ba1 52.37(14) 3_335 . ?
O5 Fe1 Ba1 52.37(14) . . ?
O5 Fe1 Ba1 52.37(14) 2_355 . ?
O4 Fe1 Ba1 127.08(3) 2_355 7_246 ?
O4 Fe1 Ba1 127.08(3) 3_335 7_246 ?
O4 Fe1 Ba1 54.74(15) . 7_246 ?
O5 Fe1 Ba1 117.46(15) 3_335 7_246 ?
O5 Fe1 Ba1 51.953(19) . 7_246 ?
O5 Fe1 Ba1 51.953(19) 2_355 7_246 ?
Ba1 Fe1 Ba1 65.09(3) . 7_246 ?
O4 Fe1 Ba1 127.08(3) 2_355 7_346 ?
O4 Fe1 Ba1 54.74(15) 3_335 7_346 ?
O4 Fe1 Ba1 127.08(3) . 7_346 ?
O5 Fe1 Ba1 51.952(19) 3_335 7_346 ?
O5 Fe1 Ba1 51.953(19) . 7_346 ?
O5 Fe1 Ba1 117.46(15) 2_355 7_346 ?
Ba1 Fe1 Ba1 65.09(3) . 7_346 ?
Ba1 Fe1 Ba1 103.53(3) 7_246 7_346 ?
O4 Fe1 Ba1 54.74(16) 2_355 7_236 ?
O4 Fe1 Ba1 127.08(3) 3_335 7_236 ?
O4 Fe1 Ba1 127.08(3) . 7_236 ?
O5 Fe1 Ba1 51.953(19) 3_335 7_236 ?
O5 Fe1 Ba1 117.46(15) . 7_236 ?
O5 Fe1 Ba1 51.953(19) 2_355 7_236 ?
Ba1 Fe1 Ba1 65.09(3) . 7_236 ?
Ba1 Fe1 Ba1 103.53(3) 7_246 7_236 ?
Ba1 Fe1 Ba1 103.53(3) 7_346 7_236 ?
O4 Fe2 O4 96.9(4) 1_665 3_345 ?
O4 Fe2 O2 94.91(17) 1_665 . ?
O4 Fe2 O2 94.91(17) 3_345 . ?
O4 Fe2 O1 90.03(19) 1_665 7_355 ?
O4 Fe2 O1 90.03(18) 3_345 7_355 ?
O2 Fe2 O1 172.5(3) . 7_355 ?
O4 Fe2 O3 171.6(2) 1_665 3_345 ?
O4 Fe2 O3 91.4(2) 3_345 3_345 ?
O2 Fe2 O3 84.39(19) . 3_345 ?
O1 Fe2 O3 89.91(19) 7_355 3_345 ?
O4 Fe2 O3 91.4(2) 1_665 2_465 ?
O4 Fe2 O3 171.6(2) 3_345 2_465 ?
O2 Fe2 O3 84.39(19) . 2_465 ?
O1 Fe2 O3 89.90(19) 7_355 2_465 ?
O3 Fe2 O3 80.2(3) 3_345 2_465 ?
O4 Fe2 Fe2 43.64(13) 1_665 2_575 ?
O4 Fe2 Fe2 91.43(17) 3_345 2_575 ?
O2 Fe2 Fe2 138.55(13) . 2_575 ?
O1 Fe2 Fe2 46.62(15) 7_355 2_575 ?
O3 Fe2 Fe2 136.42(11) 3_345 2_575 ?
O3 Fe2 Fe2 94.59(13) 2_465 2_575 ?
O4 Fe2 Fe2 91.43(16) 1_665 3_355 ?
O4 Fe2 Fe2 43.64(13) 3_345 3_355 ?
O2 Fe2 Fe2 138.55(13) . 3_355 ?
O1 Fe2 Fe2 46.62(15) 7_355 3_355 ?
O3 Fe2 Fe2 94.60(13) 3_345 3_355 ?
O3 Fe2 Fe2 136.42(11) 2_465 3_355 ?
Fe2 Fe2 Fe2 60.0 2_575 3_355 ?
O3 Fe3 O3 180.0(2) 8_445 2_465 ?
O3 Fe3 O3 86.1(2) 8_445 9_565 ?
O3 Fe3 O3 93.9(2) 2_465 9_565 ?
O3 Fe3 O3 93.9(2) 8_445 3_345 ?
O3 Fe3 O3 86.1(2) 2_465 3_345 ?
O3 Fe3 O3 180.0(3) 9_565 3_345 ?
O3 Fe3 O3 86.1(2) 8_445 7_355 ?
O3 Fe3 O3 93.9(2) 2_465 7_355 ?
O3 Fe3 O3 86.1(2) 9_565 7_355 ?
O3 Fe3 O3 93.9(2) 3_345 7_355 ?
O3 Fe3 O3 93.9(2) 8_445 . ?
O3 Fe3 O3 86.1(2) 2_465 . ?
O3 Fe3 O3 93.9(2) 9_565 . ?
O3 Fe3 O3 86.1(2) 3_345 . ?
O3 Fe3 O3 180.0 7_355 . ?
O3 Fe4 O3 111.78(14) . 3_335 ?
O3 Fe4 O3 111.78(14) . 2_355 ?
O3 Fe4 O3 111.78(14) 3_335 2_355 ?
O3 Fe4 O1 107.05(16) . . ?
O3 Fe4 O1 107.05(16) 3_335 . ?
O3 Fe4 O1 107.05(16) 2_355 . ?
O5 Ge5 O5 113.44(12) . 2_465 ?
O5 Ge5 O5 113.44(12) . 3_345 ?
O5 Ge5 O5 113.44(12) 2_465 3_345 ?
O5 Ge5 O2 105.13(15) . . ?
O5 Ge5 O2 105.14(15) 2_465 . ?
O5 Ge5 O2 105.13(15) 3_345 . ?
O5 Ge5 Ba1 152.87(16) . 7_356 ?
O5 Ge5 Ba1 58.237(14) 2_465 7_356 ?
O5 Ge5 Ba1 58.238(14) 3_345 7_356 ?
O2 Ge5 Ba1 102.00(2) . 7_356 ?
O5 Ge5 Ba1 58.237(14) . 7_246 ?
O5 Ge5 Ba1 152.86(16) 2_465 7_246 ?
O5 Ge5 Ba1 58.238(15) 3_345 7_246 ?
O2 Ge5 Ba1 102.00(2) . 7_246 ?
Ba1 Ge5 Ba1 115.796(15) 7_356 7_246 ?
O5 Ge5 Ba1 58.238(14) . 7_346 ?
O5 Ge5 Ba1 58.238(14) 2_465 7_346 ?
O5 Ge5 Ba1 152.86(16) 3_345 7_346 ?
O2 Ge5 Ba1 102.00(2) . 7_346 ?
Ba1 Ge5 Ba1 115.795(15) 7_356 7_346 ?
Ba1 Ge5 Ba1 115.795(15) 7_246 7_346 ?
Fe4 O1 Fe2 127.5(2) . 9 ?
Fe4 O1 Fe2 127.5(2) . 8_335 ?
Fe2 O1 Fe2 86.8(3) 9 8_335 ?
Fe4 O1 Fe2 127.5(2) . 7_355 ?
Fe2 O1 Fe2 86.8(3) 9 7_355 ?
Fe2 O1 Fe2 86.8(3) 8_335 7_355 ?
Ge5 O2 Fe2 120.1(2) . . ?
Ge5 O2 Fe2 120.1(2) . 2_465 ?
Fe2 O2 Fe2 97.1(3) . 2_465 ?
Ge5 O2 Fe2 120.1(2) . 3_345 ?
Fe2 O2 Fe2 97.1(3) . 3_345 ?
Fe2 O2 Fe2 97.1(3) 2_465 3_345 ?
Fe4 O3 Fe3 125.0(3) . . ?
Fe4 O3 Fe2 119.31(18) . 3_345 ?
Fe3 O3 Fe2 96.73(18) . 3_345 ?
Fe4 O3 Fe2 119.31(18) . 2_465 ?
Fe3 O3 Fe2 96.73(18) . 2_465 ?
Fe2 O3 Fe2 92.9(2) 3_345 2_465 ?
Fe2 O4 Fe2 92.7(3) 1_445 2_465 ?
Fe2 O4 Fe1 130.48(18) 1_445 . ?
Fe2 O4 Fe1 130.48(18) 2_465 . ?
Fe2 O4 Ba1 101.2(2) 1_445 7_246 ?
Fe2 O4 Ba1 101.2(2) 2_465 7_246 ?
Fe1 O4 Ba1 93.49(18) . 7_246 ?
Ge5 O5 Fe1 127.2(2) . . ?
Ge5 O5 Ba1 140.5(2) . . ?
Fe1 O5 Ba1 92.26(19) . . ?
Ge5 O5 Ba1 91.44(11) . 7_246 ?
Fe1 O5 Ba1 93.05(10) . 7_246 ?
Ba1 O5 Ba1 85.76(10) . 7_246 ?
Ge5 O5 Ba1 91.44(11) . 7_346 ?
Fe1 O5 Ba1 93.05(10) . 7_346 ?
Ba1 O5 Ba1 85.76(10) . 7_346 ?
Ba1 O5 Ba1 169.74(18) 7_246 7_346 ?
loop_
_geom_bond_atom_site_label_1
_geom_bond_atom_site_label_2
_geom_bond_distance
_geom_bond_site_symmetry_2
_geom_bond_publ_flag
Ba1 O5 2.928(5) 3_335 ?
Ba1 O5 2.928(5) 2_355 ?
Ba1 O5 2.928(5) . ?
Ba1 O5 2.9384(4) 7_346 ?
Ba1 O5 2.9384(4) 8_436 ?
Ba1 O5 2.9384(5) 9_566 ?
Ba1 O5 2.9384(4) 9_456 ?
Ba1 O5 2.9384(4) 8_446 ?
Ba1 O5 2.9384(4) 7_246 ?
Ba1 O4 3.048(5) 9_566 ?
Ba1 O4 3.048(5) 8_436 ?
Ba1 O4 3.048(5) 7_246 ?
Fe1 O4 1.965(6) 2_355 ?
Fe1 O4 1.965(6) 3_335 ?
Fe1 O4 1.965(6) . ?
Fe1 O5 2.140(5) 3_335 ?
Fe1 O5 2.140(5) . ?
Fe1 O5 2.140(5) 2_355 ?
Fe1 Ba1 3.7259(9) 7_246 ?
Fe1 Ba1 3.7260(9) 7_346 ?
Fe1 Ba1 3.7260(9) 7_236 ?
Fe2 O4 1.937(4) 1_665 ?
Fe2 O4 1.937(4) 3_345 ?
Fe2 O2 2.034(4) . ?
Fe2 O1 2.041(6) 7_355 ?
Fe2 O3 2.104(4) 3_345 ?
Fe2 O3 2.104(4) 2_465 ?
Fe2 Fe2 2.804(2) 2_575 ?
Fe2 Fe2 2.804(2) 3_355 ?
Fe3 O3 1.987(5) 8_445 ?
Fe3 O3 1.987(5) 2_465 ?
Fe3 O3 1.987(5) 9_565 ?
Fe3 O3 1.987(5) 3_345 ?
Fe3 O3 1.987(5) 7_355 ?
Fe3 O3 1.987(5) . ?
Fe4 O3 1.897(5) . ?
Fe4 O3 1.897(5) 3_335 ?
Fe4 O3 1.897(5) 2_355 ?
Fe4 O1 1.925(10) . ?
Ge5 O5 1.745(6) . ?
Ge5 O5 1.745(6) 2_465 ?
Ge5 O5 1.745(5) 3_345 ?
Ge5 O2 1.829(8) . ?
Ge5 Ba1 3.4548(3) 7_356 ?
Ge5 Ba1 3.4548(3) 7_246 ?
Ge5 Ba1 3.4549(3) 7_346 ?
O1 Fe2 2.041(6) 9 ?
O1 Fe2 2.041(6) 8_335 ?
O1 Fe2 2.041(6) 7_355 ?
O2 Fe2 2.034(4) 2_465 ?
O2 Fe2 2.034(4) 3_345 ?
O3 Fe2 2.104(4) 3_345 ?
O3 Fe2 2.104(4) 2_465 ?
O4 Fe2 1.937(4) 1_445 ?
O4 Fe2 1.937(4) 2_465 ?
O4 Ba1 3.048(5) 7_246 ?
O5 Ba1 2.9383(4) 7_246 ?
O5 Ba1 2.9384(4) 7_346 ?
