#------------------------------------------------------------------------------
#$Date: 2021-05-04 03:49:28 +0300 (Tue, 04 May 2021) $
#$Revision: 264820 $
#$URL: file:///home/coder/svn-repositories/cod/cif/4/00/38/4003899.cif $
#------------------------------------------------------------------------------
#
# This file is available in the Crystallography Open Database (COD),
# http://www.crystallography.net/
#
# All data on this site have been placed in the public domain by the
# contributors.
#
data_4003899
loop_
_publ_author_name
'Smart, Megan M.'
'Smith Pellizzeri, Tiffany M.'
'Morrison, Gregory'
'McMillen, Colin D.'
'zur Loye, Hans-Conrad'
'Kolis, Joseph W.'
_publ_section_title
;
 Ferrite Materials Containing Kagom\'e Layers: Chemistry of Ba2Fe11Ge2O22
 and K2Co4V9O22 Hexaferrites
;
_journal_issue                   7
_journal_name_full               'Chemistry of Materials'
_journal_page_first              2258
_journal_page_last               2266
_journal_paper_doi               10.1021/acs.chemmater.0c03852
_journal_volume                  33
_journal_year                    2021
_chemical_formula_sum            'Co4 K2 O22 V9'
_chemical_formula_weight         1124.38
_space_group_crystal_system      trigonal
_space_group_IT_number           164
_space_group_name_Hall           '-P 3 2"'
_space_group_name_H-M_alt        'P -3 m 1'
_atom_sites_solution_primary     dual
_atom_sites_solution_secondary   difmap
_audit_creation_method           SHELXL-2014/7
_cell_angle_alpha                90
_cell_angle_beta                 90
_cell_angle_gamma                120
_cell_formula_units_Z            1
_cell_length_a                   5.8392(3)
_cell_length_b                   5.8392(3)
_cell_length_c                   14.5176(8)
_cell_measurement_reflns_used    6664
_cell_measurement_temperature    299(2)
_cell_measurement_theta_max      30.49
_cell_measurement_theta_min      2.81
_cell_volume                     428.68(4)
_computing_cell_refinement       'Bruker SAINT'
_computing_data_collection       'Bruker APEX3'
_computing_data_reduction        'Bruker SAINT'
_computing_molecular_graphics    'Bruker SHELXTL'
_computing_publication_material  'Bruker SHELXTL'
_computing_structure_refinement  'SHELXL-2014 (Sheldrick 2014)'
_computing_structure_solution    'SHELXT-2014 (Sheldrick 2014)'
_diffrn_ambient_temperature      299(2)
_diffrn_measured_fraction_theta_full 0.986
_diffrn_measured_fraction_theta_max 0.988
_diffrn_measurement_device_type  'Bruker D8 Venture Photon 100'
_diffrn_measurement_method       '\f and \w scans'
_diffrn_radiation_type           MoK\a
_diffrn_radiation_wavelength     0.71073
_diffrn_reflns_av_R_equivalents  0.0285
_diffrn_reflns_av_unetI/netI     0.0120
_diffrn_reflns_Laue_measured_fraction_full 0.986
_diffrn_reflns_Laue_measured_fraction_max 0.988
_diffrn_reflns_limit_h_max       7
_diffrn_reflns_limit_h_min       -6
_diffrn_reflns_limit_k_max       7
_diffrn_reflns_limit_k_min       -7
_diffrn_reflns_limit_l_max       18
_diffrn_reflns_limit_l_min       -18
_diffrn_reflns_number            6107
_diffrn_reflns_point_group_measured_fraction_full 0.986
_diffrn_reflns_point_group_measured_fraction_max 0.988
_diffrn_reflns_theta_full        25.242
_diffrn_reflns_theta_max         26.499
_diffrn_reflns_theta_min         2.806
_diffrn_source                   'Incoatec I\mS'
_exptl_absorpt_coefficient_mu    9.017
_exptl_absorpt_correction_T_max  1.000
_exptl_absorpt_correction_T_min  0.816
_exptl_absorpt_correction_type   multi-scan
_exptl_absorpt_process_details   'SADABS, Bruker'
_exptl_crystal_colour            black
_exptl_crystal_density_diffrn    4.355
_exptl_crystal_description       plate
_exptl_crystal_F_000             529
_exptl_crystal_size_max          0.160
_exptl_crystal_size_mid          0.120
_exptl_crystal_size_min          0.120
_refine_diff_density_max         0.842
_refine_diff_density_min         -0.699
_refine_diff_density_rms         0.139
_refine_ls_extinction_coef       0.053(4)
_refine_ls_extinction_expression Fc^*^=kFc[1+0.001xFc^2^\l^3^/sin(2\q)]^-1/4^
_refine_ls_extinction_method     'SHELXL-2014/7 (Sheldrick 2014'
_refine_ls_goodness_of_fit_ref   1.215
_refine_ls_hydrogen_treatment    undef
_refine_ls_matrix_type           full
_refine_ls_number_parameters     46
_refine_ls_number_reflns         398
_refine_ls_number_restraints     0
_refine_ls_restrained_S_all      1.215
_refine_ls_R_factor_all          0.0215
_refine_ls_R_factor_gt           0.0213
_refine_ls_shift/su_max          0.000
_refine_ls_shift/su_mean         0.000
_refine_ls_structure_factor_coef Fsqd
_refine_ls_weighting_details
'w=1/[\s^2^(Fo^2^)+(0.0234P)^2^+2.1368P] where P=(Fo^2^+2Fc^2^)/3'
_refine_ls_weighting_scheme      calc
_refine_ls_wR_factor_gt          0.0601
_refine_ls_wR_factor_ref         0.0602
_reflns_Friedel_coverage         0.000
_reflns_number_gt                392
_reflns_number_total             398
_reflns_threshold_expression     'I > 2\s(I)'
_cod_data_source_file            cm0c03852_si_002.cif
_cod_data_source_block           KCoV
_cod_depositor_comments
'Adding full bibliography for 4003899--4003900.cif.'
_cod_original_cell_volume        428.68(5)
_cod_database_code               4003899
_shelx_shelxl_version_number     2014/7
_shelx_space_group_comment
;
The symmetry employed for this shelxl refinement is uniquely defined
by the following loop, which should always be used as a source of
symmetry information in preference to the above space-group names.
They are only intended as comments.
;
_shelx_estimated_absorpt_t_min   0.326
_shelx_estimated_absorpt_t_max   0.411
_shelx_res_file
;

    KCoV.res created by SHELXL-2014/7


TITL new_a.res in P-3m1
REM Old TITL new in P-3m1

REM SHELXT solution in P-3m1
REM R1 0.073,  Rweak 0.005,  Alpha 0.037,  Orientation as input
REM Formula found by SHELXT:  O22 V11 Co4

CELL  0.71073   5.8392   5.8392  14.5176   90.000   90.000  120.000
ZERR    1.000   0.0003   0.0003   0.0008    0.000    0.000    0.000
LATT  1
SYMM -Y, X-Y, Z
SYMM -X+Y, -X, Z
SYMM Y, X, -Z
SYMM X-Y, -Y, -Z
SYMM -X, -X+Y, -Z
SFAC O V CO K
UNIT 22 9 4 2
TEMP 26.000
SIZE 0.12 0.12 0.16
L.S. 5
BOND $H
LIST 4
ACTA
FMAP 2
OMIT -3 53
PLAN 5
WGHT    0.023400    2.136800
EXTI    0.052722
FVAR       0.80424
K1    4    1.333333    1.666667    1.062994    10.16667    0.01633    0.01633 =
         0.02311    0.00000    0.00000    0.00816
CO1   3    0.333333    0.666667    0.818821    10.16667    0.00724    0.00724 =
         0.00843    0.00000    0.00000    0.00362
V2    2    0.822378    0.644755    0.670315    10.50000    0.00410    0.00779 =
         0.00492   -0.00328   -0.00164    0.00390
V3    2    0.000000    0.000000    0.500000    10.08333    0.00593    0.00593 =
         0.00470    0.00000    0.00000    0.00296
CO4   3    0.666667    0.333333    0.451157    10.16667    0.00622    0.00622 =
         0.00892    0.00000    0.00000    0.00311
V5    2    1.000000    1.000000    0.866685    10.16667    0.00661    0.00661 =
         0.00633    0.00000    0.00000    0.00330
O1    1    0.666667    0.333333    0.586983    10.16667    0.01404    0.01404 =
         0.00608    0.00000    0.00000    0.00702
O2    1    1.000000    1.000000    0.740548    10.16667    0.01041    0.01041 =
         0.00541    0.00000    0.00000    0.00521
O3    1    0.296333    0.148166    0.414986    10.50000    0.00637    0.01159 =
         0.00871   -0.00029   -0.00058    0.00319
O4    1    0.502163    0.497837    0.736651    10.50000    0.02242    0.02242 =
         0.01016   -0.00109    0.00109    0.01652
O5    1    1.160397    1.320795    0.900431    10.50000    0.01510    0.00922 =
         0.01139   -0.00087   -0.00043    0.00461
HKLF 4

REM  new_a.res in P-3m1
REM R1 =  0.0213 for     392 Fo > 4sig(Fo)  and  0.0215 for all     398 data
REM     46 parameters refined using      0 restraints

END

WGHT      0.0234      2.1373

REM Highest difference peak  0.842,  deepest hole -0.699,  1-sigma level  0.139
Q1    1   0.4961  0.5039  0.8487  10.50000  0.05    0.36
Q2    1   1.0000  1.5000  1.0000  10.25000  0.05    0.35
Q3    1   0.2375  0.1187  0.4483  10.50000  0.05    0.32
Q4    1   0.3390  0.1695  0.5218  10.50000  0.05    0.30
Q5    1   1.1744  1.8256  1.0768  10.50000  0.05    0.29
;
_shelx_res_checksum              59351
_shelx_hkl_file
;
  -1   1   0  295.07    9.90
   1   0   0  302.17    9.80
   1   0   0  304.87   10.10
   1   0   0  304.97    9.70
   1   0   0  305.87   10.00
   0  -1   0  314.27   10.30
   0  -1   0  291.27   10.30
   0  -1   0  308.37   10.20
  -1   1   0  307.27   10.00
   0   1   0  298.97   10.30
   0   1   0  285.27   10.30
   0   1   0  315.27   10.30
  -1   0   0  313.37   10.10
   1  -1   0  296.77   10.00
   1  -1   0  308.67   10.00
  -1   0   0  299.17    9.70
   1   1   0 5663.73  174.48
   2   0   0 1475.45   47.20
   2   0   0 1503.35   46.30
   0  -2   0 1452.85   47.70
   2   0   0 1514.95   46.60
   0  -2   0 1493.65   47.40
   0  -2   0 1430.16   47.50
   0   2   0 1457.35   47.40
   0   2   0 1491.15   47.50
   2  -2   0 1500.75   46.90
  -2   0   0 1488.15   46.30
  -2   0   0 1548.74   47.10
   2  -3   0  251.57   10.40
   1   2   0  261.07   10.40
   1   2   0  243.38   10.20
   1   2   0  250.77   10.80
   2  -3   0  278.37   10.40
  -3   1   0  271.47    9.90
  -2   3   0  264.77   10.30
   3  -1   0  254.97   10.00
  -1  -2   0  281.57   11.20
   3  -1   0  265.97    9.60
  -2   3   0  262.07   10.50
  -1  -2   0  273.27   10.40
   3  -1   0  267.77    8.90
  -1  -2   0  257.37   10.30
   1  -3   0  257.37   10.30
   2   1   0  254.87   10.30
   1  -3   0  257.17   10.40
   2   1   0  275.97   10.80
   2   1   0  254.97    9.80
   2   1   0  262.57    9.70
   1  -3   0  237.48   10.40
   3  -2   0  262.37    9.30
  -2  -1   0  246.88    9.50
  -1   3   0  265.97   10.60
  -1   3   0  254.07   10.40
  -2  -1   0  262.07   10.20
  -2  -1   0  262.17    9.80
  -1   3   0  274.57    9.90
   3  -2   0  258.87   10.10
   3  -2   0  256.37    9.20
   3   0   0 4449.96  138.29
   3   0   0 4339.57  136.69
   3   0   0 4369.46  137.89
   0  -3   0 4733.53  138.69
   0  -3   0 4293.37  138.99
   0  -3   0 4133.29  138.49
   3   0   0 4514.95  137.19
   3  -3   0 4300.57  137.69
   0   3   0 4668.73  138.69
   0   3   0 4704.43  138.79
  -3   0   0 4530.55  137.79
   0   3   0 4071.99  138.19
   3  -3   0 4518.85  137.59
   1   3   0   34.50    4.30
   3  -4   0   32.00    2.80
   1   3   0   27.10    3.80
   1   3   0   25.20    3.70
   3  -4   0   25.70    3.50
   3  -4   0   35.00    3.80
  -4   1   0   21.80    3.00
   4  -1   0   36.50    2.70
  -3   4   0   27.70    3.50
  -1  -3   0   27.90    3.70
   4  -1   0   27.10    2.00
  -1  -3   0   27.00    4.10
   4  -1   0   27.70    3.40
  -1  -3   0   29.30    4.40
  -1  -3   0   19.10    4.00
   4  -1   0   27.10    3.30
   1  -4   0   26.40    3.80
   3   1   0   22.70    3.60
   1  -4   0   32.20    3.90
   3   1   0   27.90    3.20
   3   1   0   24.50    4.30
   4  -3   0   22.90    2.70
  -3  -1   0   31.20    2.90
  -3  -1   0   28.00    3.60
  -1   4   0   26.10    3.70
   4  -3   0   28.00    3.10
   4  -3   0   25.20    3.50
  -1   4   0   25.90    4.30
  -1   4   0   27.80    3.30
  -3  -1   0   29.60    3.20
   4   0   0  568.24   21.60
   4   0   0  575.64   21.00
   4   0   0  582.94   19.40
   0  -4   0  596.84   22.10
   4   0   0  558.64   19.90
   0  -4   0  544.65   22.30
   0  -4   0  589.54   22.10
  -4   0   0  595.54   20.90
   0   4   0  574.84   21.70
   4  -4   0  574.84   20.80
   4  -4   0  591.64   19.10
   0   4   0  564.24   22.00
   4  -4   0  596.24   20.70
   0   4   0  589.94   21.80
   4  -4   0  565.14   21.80
   1   4   0 3000.00   96.49
   1   4   0 3033.90   96.79
   4  -5   0 3105.19   95.89
   4  -5   0 2936.41   95.99
  -5   1   0 3062.09   95.19
   1   4   0 2993.60   97.29
   5  -1   0 2924.61   93.79
  -1  -4   0 2980.40   96.49
   5  -1   0 3003.30   95.49
  -1  -4   0 2907.41   97.09
   5  -1   0 3006.40   92.69
  -1  -4   0 2995.50   96.69
   5  -1   0 3067.69   95.79
   2   3   0    7.20    2.90
   3  -5   0   11.40    3.30
   3  -5   0   11.10    2.90
  -5   2   0   19.40    3.90
   2   3   0    9.50    3.60
   2   3   0    7.20    2.40
   3  -5   0    9.40    3.70
   5  -2   0    8.20    2.50
   5  -2   0    9.60    1.70
   5  -2   0    7.90    1.60
  -2  -3   0    9.70    2.70
  -3   5   0   10.30    3.40
  -3   5   0    7.30    2.70
   5  -2   0   10.10    2.50
  -2  -3   0    9.20    3.20
   5  -2   0   13.40    3.20
  -2  -3   0    8.80    3.00
   3   2   0    6.90    2.40
   3   2   0    8.40    2.60
   2  -5   0    5.50    2.50
   2  -5   0    9.00    3.70
   3   2   0    7.20    2.90
   2  -5   0    7.40    2.50
  -2   5   0    7.30    1.80
   5  -3   0    9.90    2.20
  -2   5   0   13.60    3.20
   5  -3   0    6.30    2.70
   5  -3   0   13.50    2.80
  -3  -2   0    7.00    3.00
   5  -3   0    9.60    2.20
  -2   5   0    6.30    1.80
  -2   5   0    8.90    3.30
  -3  -2   0    7.70    2.70
   1  -5   0 3052.99   98.39
   4   1   0 3002.40   96.19
   1  -5   0 3111.59   98.49
   4   1   0 3079.49   98.49
   4   1   0 3063.99   95.69
  -1   5   0 3069.09   97.99
  -4  -1   0 3063.79   96.99
   5  -4   0 2955.70   95.69
  -4  -1   0 2989.40   95.49
  -1   5   0 3094.79   97.09
   5  -4   0 3060.59   95.79
   5  -4   0 2968.50   97.49
   5   0   0  373.96   13.30
   0  -5   0  365.96   16.80
   5   0   0  341.47   16.70
   5   0   0  372.76   15.60
   5   0   0  362.26   14.10
   0   5   0  363.36   16.50
   5  -5   0  383.86   15.60
   5  -5   0  362.96   16.40
   5  -5   0  377.26   15.20
   0   5   0  362.16   16.40
  -5   0   0  365.96   15.40
   1   5   0   35.80    7.00
   5  -6   0   28.40    6.10
  -6   1   0   37.60    6.60
   5  -6   0   31.30    6.10
   5  -6   0   34.70    7.40
  -1  -5   0   48.40    7.40
   6  -1   0   44.50    9.20
   6  -1   0   35.40    4.20
   6  -1   0   31.90    5.80
  -6   2   0  303.17   13.40
   2   4   0  312.77   14.60
   4  -6   0  300.67   14.50
   6  -2   0  291.07   11.30
   6  -2   0  286.87   13.30
  -2  -4   0  290.97   14.30
   6  -2   0  311.57   13.90
  -4   6   0  313.97   14.40
   3  -6   0 2882.21   94.59
   3   3   0 2913.01   93.59
   3   3   0 2977.70   93.59
   6  -3   0 2864.91   93.09
  -3  -3   0 2837.92   92.99
   6  -3   0 2953.30   91.59
   6  -3   0 2923.01   90.69
  -3   6   0 2899.61   93.99
  -3  -3   0 2859.01   93.29
   2  -6   0  301.07   15.10
   4   2   0  288.67   13.20
   4   2   0  297.87   13.50
   6  -4   0  302.27   12.10
   6  -4   0  279.17   14.00
  -2   6   0  290.77   12.50
  -2   6   0  293.67   12.60
  -4  -2   0  302.17   12.80
  -4  -2   0  288.87   14.90
   6  -4   0  295.37   11.40
   6  -4   0  294.07   11.00
   1  -6   0   30.10    7.00
   5   1   0   30.50    5.10
   5   1   0   43.30    5.70
   6  -5   0   39.30    5.10
   6  -5   0   43.50    3.90
  -1   6   0   41.40    7.10
   6  -5   0   31.80    6.80
   6  -5   0   32.70    7.20
  -1   6   0   25.40    6.60
  -5  -1   0   37.70    8.20
   0  -6   0 9999.00  304.37
   6   0   0 9527.45  299.57
   6   0   0 9658.93  301.87
   6  -6   0 9647.53  301.27
   0   6   0 9986.70  303.67
   6  -6   0 9759.22  301.27
  -6   0   0 9260.47  301.37
   6  -6   0 9796.22  303.57
   6  -7   0    2.70    4.40
   1   6   0    6.30    5.70
   6  -7   0    0.90    6.00
   7  -1   0    1.40    4.80
  -1  -6   0   -7.70    4.70
   2   5   0 1337.97   46.00
   5  -7   0 1308.37   45.50
  -2  -5   0 1311.37   45.70
   7  -2   0 1294.57   44.00
   7  -2   0 1063.29   47.90
   4  -7   0  194.58   12.70
   3   4   0  195.18   12.40
   7  -3   0  188.88   11.40
  -4   7   0  201.18   12.60
   7  -3   0  187.08    8.10
  -3  -4   0  194.18   11.90
   4   3   0  201.58   11.90
   3  -7   0  190.38   13.10
  -4  -3   0  184.18   11.20
  -3   7   0  188.58   12.60
   7  -4   0  185.68   11.80
   2  -7   0 1321.47   48.60
   5   2   0 1357.16   45.70
  -2   7   0 1292.27   47.80
   7  -5   0 1316.97   47.10
  -5  -2   0 1340.47   44.80
   7  -5   0 1332.67   43.30
  -2   7   0 1332.67   44.80
   1  -7   0    9.10    5.40
   6   1   0    2.60    4.10
  -1   7   0    7.90    5.10
   7  -6   0   -3.40    3.60
   7  -6   0    1.20    6.10
  -1   7   0    2.00    5.60
   0  -7   0   -6.10    6.80
   7  -7   0   14.30    5.30
   0   7   0    3.40    6.60
   7  -7   0    2.90    6.70
   6  -8   0   49.30   13.90
   6  -8   0   53.89   11.60
   2   6   0   43.90    9.70
  -2  -6   0   71.39   12.60
   3   5   0    1.70    6.10
   5  -8   0    6.00    6.10
  -3  -5   0    6.00    5.70
   4  -8   0 6613.64  213.48
   4   4   0 6679.73  211.78
  -4  -4   0 6732.23  211.18
  -4   8   0 6782.02  212.88
   3  -8   0    7.00    7.10
   5   3   0    1.50    5.80
  -5  -3   0   -6.80    5.20
  -3   8   0    2.90    7.00
   8  -5   0    6.20    6.40
   2  -8   0   30.00    8.50
   8  -6   0   45.50    9.80
  -2   8   0   58.49   13.90
  -1   0  -1   42.30    1.70
   0   1  -1   37.50    2.00
  -1   0  -1   34.50    1.50
   0   1  -1   36.30    2.00
   1  -1  -1   34.00    1.70
   1  -1  -1   35.10    1.60
  -1   0  -1   35.10    1.70
   1   0   1   36.00    1.50
  -1   1   1   34.30    1.70
   1   0   1   37.20    1.60
   1   0   1   37.90    1.80
  -1   1   1   36.80    1.40
   0  -1   1   33.20    2.00
   0  -1   1   31.90    2.00
   1   0  -1   14.50    1.20
   1   0  -1   13.70    0.80
   0  -1  -1   13.30    1.20
   1   0  -1   14.20    1.20
   0  -1  -1   14.00    1.20
   0   1   1   13.10    1.30
  -1   0   1   15.80    1.30
  -1   0   1   14.30    0.70
   1  -1   1   14.50    1.00
   0   1   1   12.60    1.20
  -1  -1  -1  123.29    5.20
  -1   2  -1  121.39    4.80
  -1  -1  -1  128.19    5.40
  -1   2  -1  121.99    5.60
  -1   2  -1  123.89    5.30
  -1  -1  -1  126.29    5.20
   2  -1  -1  131.69    4.80
   2  -1  -1  132.49    4.30
   1   1   1  126.49    5.30
   1   1   1  131.19    5.70
   1  -2   1  130.39    5.20
  -2   1   1  123.99    5.30
   1  -2   1  129.09    5.40
   1  -2   1  129.89    5.60
   1   1   1  131.69    5.20
  -2  -1  -1  268.27   10.20
  -1   3  -1  283.27   11.20
  -2  -1  -1  273.77   10.50
  -1   3  -1  267.17   10.20
  -2  -1  -1  283.37   10.20
   3  -2  -1  280.17   11.00
   3  -2  -1  277.27    9.30
  -1   3  -1  265.97   10.80
   3  -2  -1  278.67    9.60
   2   1   1  294.57   10.40
   2   1   1  281.07   11.20
   1  -3   1  266.17   10.90
   1  -3   1  265.07   10.80
   1  -3   1  270.57   11.20
   2   1   1  270.17   10.20
  -2   0  -1 1262.07   39.70
   0   2  -1 1285.27   40.40
   2  -2  -1 1249.57   39.80
  -2   0  -1 1213.38   39.40
   2  -2  -1 1229.18   39.10
   0   2  -1 1231.58   40.40
   0   2  -1 1316.77   40.60
   2  -2  -1 1271.57   39.90
   2   0   1 1259.07   40.10
   0  -2   1 1163.48   40.50
  -2   2   1 1248.78   39.80
   2   0   1 1272.37   39.30
   0  -2   1 1200.08   40.40
   0  -2   1 1339.97   40.50
   2   0   1 1279.07   39.70
   2   0   1 1260.17   39.50
   1  -2  -1  129.19    5.50
   1   1  -1  131.19    5.20
   1   1  -1  122.09    5.60
   1   1  -1  125.69    5.40
   1  -2  -1  121.19    5.20
   1   1  -1  143.39    5.90
   1  -2  -1  123.69    5.50
  -2   1  -1  133.99    4.90
   2  -1   1  132.49    4.40
  -1   2   1  117.49    5.40
  -1  -1   1  125.39    5.30
  -1  -1   1  133.59    5.60
  -1  -1   1  116.79    5.10
   2  -1   1  126.29    4.90
  -1   2   1  137.09    5.10
  -1  -1   1  118.19    5.70
  -1   2   1  131.39    5.50
  -1   2   1  131.19    5.20
   0  -2  -1 5990.50  180.78
   0   2   1 6035.40  180.88
   0   2   1 5529.35  180.58
   3  -1  -1  381.16   14.30
  -1  -2  -1  391.76   14.30
  -2   3  -1  377.26   14.10
  -1  -2  -1  402.66   14.70
  -1  -2  -1  379.06   14.40
   3  -1  -1  382.96   13.70
   2  -3   1  404.16   14.30
   1   2   1  420.96   14.60
  -3   1   1  387.66   14.10
   1   2   1  381.36   14.20
   1   2   1  391.96   15.00
   2  -3   1  410.16   13.60
   2  -3   1  390.46   14.60
  -2   4  -1  906.91   29.30
  -2   4  -1  946.91   32.00
  -2  -2  -1  884.91   30.90
  -2   4  -1 1000.30   31.60
  -2  -2  -1  951.30   31.00
   4  -2  -1  882.11   31.30
  -2  -2  -1  931.81   31.50
   4  -2  -1  883.31   29.90
  -2   4  -1  897.61   29.40
   4  -2  -1  936.21   28.90
   2   2   1  956.30   31.30
   2  -4   1  959.60   31.70
   2   2   1  938.01   32.40
   2  -4   1  866.21   31.70
  -4   2   1  911.01   31.00
   2  -4   1  895.71   30.90
   2   2   1  905.71   31.00
   5  -3  -1    2.00    1.40
   5  -3  -1    2.80    1.30
  -2   5  -1    4.10    3.50
  -3  -2  -1    4.00    2.70
  -3  -2  -1    3.90    2.40
  -2   5  -1    1.10    1.50
   5  -3  -1    5.60    2.60
  -2   5  -1    1.80    2.40
   5  -3  -1    7.40    2.10
   2  -5   1    5.90    3.70
   3   2   1    8.40    2.80
   2  -5   1    2.60    2.20
   3   2   1    1.60    2.10
   3   2   1    2.90    3.10
   2  -5   1    3.00    2.30
   4  -3  -1   13.30    2.20
  -3  -1  -1   14.30    2.50
  -1   4  -1   15.10    4.00
  -1   4  -1    6.00    2.30
  -3  -1  -1   14.20    2.90
   4  -3  -1   12.60    3.20
   4  -3  -1   20.80    2.90
  -3  -1  -1    9.90    2.50
  -1   4  -1   10.70    2.80
   3   1   1   12.00    2.60
   1  -4   1   10.80    3.10
   1  -4   1   10.00    2.50
   3   1   1   10.10    2.00
   1  -4   1    6.20    2.10
   3   1   1   17.40    3.70
   0   3  -1  993.30   33.80
   3  -3  -1 1008.00   34.10
  -3   0  -1 1018.50   32.90
   0   3  -1 1061.29   34.10
   0   3  -1 1060.09   34.00
   3  -3  -1  987.60   32.00
   3  -3  -1 1003.90   33.10
   3  -3  -1  978.70   32.90
   0  -3   1 1019.80   33.90
   0  -3   1 1001.30   34.00
   0  -3   1  942.11   34.10
   3   0   1  983.50   32.20
   3   0   1 1004.70   32.40
   3   0   1 1012.30   33.60
   0  -3   1 1057.89   34.40
   3   0   1  986.90   32.90
   2  -3  -1  268.97   10.70
   2  -3  -1  262.97   10.10
   1   2  -1  280.17   10.80
   1   2  -1  265.17   10.80
   2  -3  -1  267.17   10.80
  -1  -2   1  292.07   11.00
   3  -1   1  294.17   10.20
  -1  -2   1  269.97   10.70
  -2   3   1  281.77   10.80
   3  -1   1  274.77    9.30
   3  -1   1  283.97    9.70
  -1  -2   1  270.47   11.40
  -1  -2   1  272.27   11.20
  -2   3   1  283.07   10.80
   3  -1   1  274.77   10.00
   2   1  -1  329.17   14.30
   1  -3  -1  373.76   14.20
   1  -3  -1  389.46   14.50
   2   1  -1  386.06   14.40
   2   1  -1  393.46   13.90
   2   1  -1  381.66   13.50
   1  -3  -1  363.76   14.20
  -1   3   1  398.96   13.90
  -2  -1   1  372.46   14.50
  -2  -1   1  387.56   13.40
  -2  -1   1  388.96   14.20
  -2  -1   1  393.16   13.80
  -1   3   1  425.76   14.60
   3  -2   1  388.66   13.80
   3  -2   1  397.96   12.90
  -1   3   1  376.96   14.20
   0  -3  -1   93.39    5.90
   3   0  -1  100.99    5.60
   0  -3  -1   98.79    5.80
   3   0  -1   97.09    5.50
   3   0  -1   96.49    4.90
   0  -3  -1   94.69    5.70
   3   0  -1   97.49    4.10
   0   3   1   98.59    5.60
  -3   0   1   92.59    5.30
   3  -3   1   97.79    5.20
   3  -3   1  106.39    5.00
   0   3   1  105.79    5.90
  -3   0   1   95.09    4.00
   0   3   1   98.69    5.80
  -1  -3  -1  103.89    6.80
   4  -1  -1  101.19    5.00
  -1  -3  -1   92.99    6.20
   4  -1  -1  100.29    5.70
  -1  -3  -1  107.59    6.30
  -3   4  -1   88.29    5.60
   4  -1  -1   98.39    5.90
  -4   1   1   99.19    5.70
   3  -4   1   94.99    4.80
   1   3   1   94.39    6.10
   3  -4   1   95.29    6.00
   1   3   1  100.19    6.40
   1   3   1  103.59    6.80
  -3   5  -1   79.59    5.90
  -2  -3  -1   69.89    6.90
   5  -2  -1   78.39    5.50
  -2  -3  -1   76.39    6.50
  -2  -3  -1   70.69    5.80
   5  -2  -1   76.29    5.90
   3  -5   1   78.19    7.00
   2   3   1   73.89    6.50
   2   3   1   73.29    7.50
  -5   2   1   98.39    6.20
   2   3   1   72.89    6.00
   3  -5   1   71.49    5.30
   3  -5   1   76.89    6.30
   6  -3  -1   -1.00    2.90
   6  -3  -1   -0.90    2.30
  -3   6  -1    1.30    3.10
  -3  -3  -1    1.40    2.60
   6  -3  -1    0.90    2.30
  -3  -3  -1   -0.90    3.70
  -3  -3  -1    0.90    4.10
   3  -6   1    0.30    2.70
   3   3   1    2.20    3.00
   3  -6   1    0.50    2.90
   3   3   1    0.90    3.80
  -3   7  -1   96.49    9.30
  -4  -3  -1   92.89    8.70
   7  -4  -1  103.79    9.70
   4   3   1  108.69    9.00
   3  -7   1   82.29    9.80
  -4  -2  -1  514.05   19.60
   6  -4  -1  520.55   19.10
   6  -4  -1  550.74   18.30
   6  -4  -1  523.35   17.70
   6  -4  -1  496.65   21.10
  -2   6  -1  441.96   18.60
  -2   6  -1  505.55   19.00
  -4  -2  -1  514.35   21.00
   4   2   1  513.05   19.80
   2  -6   1  526.45   21.70
   4   2   1  538.25   20.40
   2  -6   1  534.95   22.10
   5  -4  -1   64.19    6.40
  -4  -1  -1   65.99    4.90
   5  -4  -1   67.69    5.60
  -4  -1  -1   70.49    6.10
  -1   5  -1   68.19    5.80
   5  -4  -1   74.99    4.10
   5  -4  -1   67.69    4.60
  -1   5  -1   62.59    6.30
   4   1   1   74.29    7.70
   1  -5   1   59.79    6.50
   1  -5   1   61.79    6.40
   4   1   1   71.69    5.30
   4   1   1   60.99    4.80
   0   4  -1 3668.73  110.29
   4  -4  -1 3384.56  107.59
  -4   0  -1 3464.75  108.79
   0   4  -1 3443.06  110.09
   4  -4  -1 3503.45  108.99
   0   4  -1 3502.05  110.39
   4  -4  -1 3369.46  108.79
   4  -4  -1 3421.26  110.39
   4   0   1 3383.86  107.89
   4   0   1 3468.45  109.89
   4   0   1 3346.57  107.79
   0  -4   1 3574.64  110.29
   0  -4   1 3509.55  111.09
   4   0   1 3315.67  108.89
   0  -4   1 3724.83  111.19
   0  -4   1 3379.16  110.29
  -4   1  -1   11.50    2.30
   3  -4  -1   12.10    2.40
   1   3  -1   14.80    3.50
   1   3  -1   13.20    3.10
   1   3  -1   12.60    3.60
   3  -4  -1   12.30    3.00
   4  -1   1   14.10    2.60
  -1  -3   1   12.60    3.50
  -1  -3   1   17.00    4.10
  -3   4   1   12.70    3.20
   4  -1   1   10.90    1.90
  -1  -3   1   11.20    3.00
   4  -1   1    9.60    1.90
  -1  -3   1   14.80    3.10
   4  -1   1   12.20    2.70
   2  -4  -1  970.00   31.30
   2   2  -1  846.52   30.70
   2   2  -1  859.51   31.60
   2   2  -1  951.40   30.70
   2  -4  -1  894.81   31.30
   2  -4  -1  872.01   30.60
   4  -2   1  914.21   28.90
  -2   4   1  898.61   29.50
  -2  -2   1  898.01   31.30
  -2   4   1  943.21   29.30
  -2   4   1  934.61   31.10
  -2  -2   1  903.71   30.40
  -2   4   1  911.61   31.20
  -2  -2   1  861.71   31.60
   4  -2   1  888.01   30.20
  -2  -2   1  931.51   30.70
   4  -2   1  914.51   29.10
   1  -4  -1   96.69    6.30
   3   1  -1   98.99    5.10
   3   1  -1   97.29    5.60
   3   1  -1   96.89    6.20
   1  -4  -1  103.59    6.80
   1  -4  -1   94.69    6.30
   3   1  -1   99.79    6.60
  -3  -1   1   95.79    6.10
   4  -3   1   99.79    4.90
  -1   4   1  102.89    6.30
  -1   4   1   96.49    5.70
  -3  -1   1  106.19    5.10
   4  -3   1  105.69    6.00
   4  -3   1   97.49    5.20
  -1   4   1  101.99    6.70
   4   0  -1  928.61   31.30
   4   0  -1  868.81   29.70
   0  -4  -1  844.72   31.10
   0  -4  -1  814.92   31.20
   4   0  -1  903.81   28.50
   4   0  -1  874.01   30.80
   0   4   1  892.41   31.20
   4  -4   1  917.01   30.00
   0   4   1  906.81   31.40
   4  -4   1  866.91   30.30
   4  -4   1  883.61   31.20
  -4   0   1  908.71   30.70
   4  -4   1  887.21   28.00
   0   4   1  916.71   31.60
  -1  -4  -1  322.27   14.40
  -4   5  -1  324.97   13.50
  -1  -4  -1  321.27   14.90
  -1  -4  -1  315.47   15.40
   5  -1  -1  321.77   13.90
   5  -1  -1  312.47   12.30
   5  -1  -1  329.67   14.00
  -5   1   1  313.97   13.50
   1   4   1  344.97   15.40
   4  -5   1  311.27   13.90
   1   4   1  307.37   14.70
   4  -5   1  323.07   14.00
   1   4   1  314.37   14.20
   4  -5   1  310.37   12.10
   6  -2  -1 1893.31   62.09
   6  -2  -1 1905.01   64.39
   6  -2  -1 2023.30   64.09
  -4   6  -1 1943.21   64.49
  -2  -4  -1 1937.91   64.89
   2   4   1 1946.51   64.89
  -6   2   1 2002.40   64.09
   4  -6   1 1963.20   65.39
   4  -6   1 1938.41   63.49
  -4   7  -1  255.37   14.20
   7  -3  -1  254.57   13.80
  -3  -4  -1  220.48   13.30
   7  -3  -1  251.37   10.60
   3   4   1  250.87   13.90
   4  -7   1  247.78   14.40
  -4  -4  -1  114.19   11.70
   8  -4  -1  104.79   12.60
  -4   8  -1  116.39   12.90
   4  -8   1  111.99   13.20
   4   4   1  132.29   12.10
  -5  -3  -1   13.00    5.80
  -3   8  -1   22.40    7.80
   8  -5  -1   13.20    7.00
   5   3   1   19.30    6.00
   3  -8   1   11.90    6.50
  -2   7  -1  620.34   26.30
  -2   7  -1  634.94   23.10
   7  -5  -1  611.44   25.90
  -5  -2  -1  621.84   23.30
   2  -7   1  629.34   27.20
   5   2   1  594.34   23.60
  -1   6  -1  179.18   11.40
   6  -5  -1  197.18   11.80
   6  -5  -1  170.68    8.00
   6  -5  -1  168.08    8.60
  -5  -1  -1  152.98   10.70
  -1   6  -1  170.78   10.80
   6  -5  -1  161.38   10.40
   1  -6   1  168.28   11.90
   5   1   1  170.88    9.40
   1  -6   1  160.68   11.40
   5   1   1  163.38    8.80
   5  -5  -1  426.86   16.70
   5  -5  -1  424.76   18.50
  -5   0  -1  405.86   16.70
   5  -5  -1  431.86   15.40
   5  -5  -1  407.36   17.20
   0   5  -1  420.76   18.10
   0   5  -1  424.16   18.30
   5   0   1  406.36   18.50
   5   0   1  436.76   15.50
   0  -5   1  453.65   19.50
   0  -5   1  423.86   18.60
   5   0   1  419.16   15.40
   5   0   1  411.76   16.90
   1   4  -1   59.49    7.30
   4  -5  -1   63.09    6.50
  -5   1  -1   73.29    5.20
   4  -5  -1   65.29    5.80
   1   4  -1   77.89    7.50
   1   4  -1   70.99    6.30
  -1  -4   1   78.39    8.20
   5  -1   1   68.59    4.00
  -1  -4   1   62.79    6.20
  -1  -4   1   68.39    7.20
   5  -1   1   73.69    4.10
  -1  -4   1   59.09    8.00
   5  -1   1   71.59    6.30
   5  -1   1   60.49    5.10
   2   3  -1   -0.60    2.60
   3  -5  -1    7.20    2.50
   2   3  -1    3.40    2.00
   3  -5  -1    5.30    3.30
   2   3  -1    3.30    2.60
  -3   5   1    5.30    3.00
  -2  -3   1    6.60    2.80
   5  -2   1    5.50    2.30
   5  -2   1    2.80    1.50
  -2  -3   1    4.40    3.10
  -3   5   1    1.00    2.20
   5  -2   1    5.30    2.00
  -2  -3   1    6.20    2.90
  -2  -3   1   13.10    3.00
   5  -2   1   13.10    2.30
   5  -2   1    4.70    1.30
   3   2  -1   80.29    5.80
   3   2  -1   63.79    5.40
   2  -5  -1   76.39    6.30
   2  -5  -1   81.59    7.60
   3   2  -1   77.29    7.10
   5  -3   1   72.89    4.40
  -3  -2   1   69.19    5.10
  -2   5   1   70.29    4.60
  -2   5   1   70.99    6.10
   5  -3   1   78.59    5.70
  -2   5   1   78.19    7.20
   5  -3   1   75.49    3.80
  -2   5   1   79.79    5.10
  -3  -2   1   67.29    6.50
   5  -3   1   72.49    4.20
  -3  -2   1   76.09    6.00
   1  -5  -1  317.47   14.80
   4   1  -1  330.37   12.50
   4   1  -1  303.67   15.00
   4   1  -1  321.67   13.30
   4   1  -1  327.37   14.30
   5  -4   1  312.87   13.90
  -4  -1   1  318.07   12.10
  -1   5   1  323.97   13.80
   5  -4   1  324.87   12.90
  -1   5   1  300.37   14.20
   5  -4   1  333.77   12.60
  -4  -1   1  326.27   14.30
   0  -5  -1   97.69    8.20
   5   0  -1   96.29    6.40
   5   0  -1  103.99    9.10
   5   0  -1   98.89    7.30
   5   0  -1   99.29    4.80
   5  -5   1  100.69    7.00
   0   5   1   99.19    8.50
   0   5   1  100.49    8.10
   5  -5   1  100.49    7.70
   5  -5   1   90.59    7.80
  -5   0   1  103.49    7.90
  -1  -5  -1  121.59    9.70
   6  -1  -1  114.29    8.50
   6  -1  -1  100.49   11.00
   6  -1  -1  111.09    6.80
   5  -6   1  122.99    8.90
   1   5   1  116.09    9.50
   5  -6   1  119.29   11.10
  -6   1   1  109.69    9.00
   7  -2  -1  143.49    7.60
  -2  -5  -1  135.39   11.00
   7  -2  -1  131.39   10.40
   2   5   1  133.69   11.10
   5  -7   1  121.19   10.80
   8  -3  -1  130.49   13.60
  -3  -5  -1  127.69   12.90
   5  -8   1  134.09   13.40
   3   5   1  127.29   13.30
  -2   8  -1  736.63   32.20
  -1   7  -1   46.10    9.60
   7  -6  -1   17.90    4.30
  -1   7  -1   18.80    5.80
   7  -6  -1   12.00    6.10
   1  -7   1   21.10    6.60
   6   1   1   15.60    4.20
  -6   0  -1  248.18   13.40
   6  -6  -1  258.27   12.70
   6  -6  -1  253.17   14.90
   0   6  -1  252.57   14.80
   6   0   1  256.17   10.80
   0  -6   1  234.88   14.90
  -6   1  -1  170.78    9.70
   5  -6  -1  163.88   11.60
   1   5  -1  149.99   10.90
   5  -6  -1  162.48   10.00
   6  -1   1  161.98   12.00
  -1  -5   1  164.08   10.90
   6  -1   1  155.08    9.20
   6  -1   1  173.08    7.30
   6  -1   1  170.28    6.80
   4  -6  -1  529.75   21.40
   2   4  -1  536.25   21.60
   6  -2   1  520.75   17.50
   6  -2   1  529.65   20.10
  -2  -4   1  541.15   21.60
   6  -2   1  518.85   17.60
   6  -2   1  531.35   20.50
   3  -6  -1   -0.10    2.80
   3   3  -1    6.10    3.70
   3   3  -1    2.20    2.80
   6  -3   1    1.30    1.60
  -3   6   1    0.50    3.50
   6  -3   1    3.30    2.00
   6  -3   1    3.90    2.60
  -3  -3   1    6.70    2.80
   6  -3   1    3.20    2.40
   6  -3   1    3.50    1.80
  -3  -3   1    2.80    4.00
   4   2  -1 2052.49   65.39
   4   2  -1 2009.30   64.59
   2  -6  -1 2004.50   67.19
  -4  -2   1 2011.30   64.29
   6  -4   1 1873.81   62.99
   6  -4   1 1968.60   62.19
   6  -4   1 1921.71   65.29
   6  -4   1 1921.11   63.39
  -2   6   1 2008.70   64.09
  -2   6   1 1987.00   64.39
  -2   6   1 2112.29   66.89
   5   1  -1  115.89    7.30
   5   1  -1  112.89    7.90
   1  -6  -1  115.89    9.80
  -1   6   1  122.39    9.10
  -1   6   1  123.79    9.70
   6  -5   1  112.59    7.50
   6  -5   1  120.89    9.40
   6  -5   1  111.79    8.60
  -1   6   1  119.99    9.30
   6   0  -1  158.68    9.10
   0  -6  -1  151.98   12.10
   6   0  -1  152.18   10.80
   6  -6   1  143.29    9.80
   6  -6   1  143.09   11.30
   0   6   1  151.78   11.60
   6  -6   1  151.08   12.40
  -1  -6  -1   19.70    6.40
   7  -1  -1   20.40    5.90
   1   6   1   33.80    7.10
   6  -7   1   20.00    5.30
   6  -7   1   18.50    6.60
   2   6   1  227.68   17.70
   6  -8   1  253.37   19.10
   7  -7  -1   30.00    8.50
   0   7  -1   21.20    7.80
   0  -7   1   12.80    7.80
   6  -7  -1   26.00    7.00
   6  -7  -1   18.00    5.20
   1   6  -1   13.00    6.00
  -1  -6   1   21.60    6.10
   2   5  -1  618.94   25.90
   5  -7  -1  597.04   25.30
   7  -2   1  600.24   23.40
  -2  -5   1  626.34   25.80
   3   4  -1   89.19    9.40
   4  -7  -1   92.19    9.50
  -3  -4   1   72.39    8.40
   7  -3   1   91.29    7.90
   4   3  -1  215.78   13.10
   3  -7  -1  252.17   14.80
   4   3  -1  254.27   14.90
   7  -4   1  253.87    9.70
  -3   7   1  248.98   14.50
   7  -4   1  247.48   12.80
  -4  -3   1  261.37   12.90
   7  -4   1  240.78    9.50
   2  -7  -1  138.59   12.10
   5   2  -1  133.39   10.00
  -5  -2   1  149.99    8.80
   7  -5   1  139.69    8.10
  -2   7   1  140.79   12.10
   7  -5   1  122.79   10.80
  -2   7   1  148.59    9.40
   6   1  -1   26.80    5.10
   1  -7  -1   16.70    6.40
  -1   7   1   18.30    5.90
   7  -6   1   20.70    6.40
  -1   7   1   23.80    5.90
   7  -6   1   28.30    7.20
   0  -7  -1  123.89   14.60
   0   7   1  115.29   13.70
   7  -7   1  143.19   11.60
   7  -7   1  130.59   14.20
   6  -8  -1  771.92   34.10
   5  -8  -1   19.70    6.80
   3   5  -1    8.40    6.90
  -3  -5   1   10.50    6.40
   4  -8  -1  110.89   13.00
   4   4  -1  103.19   12.30
  -4  -4   1  120.49   11.60
   3  -8  -1  119.19   14.20
   5   3  -1  137.79   12.80
  -5  -3   1  124.09   14.30
  -3   8   1  119.59   13.40
  -2   8   1  232.28   18.00
   0   0  -2  794.42   26.00
   0   0  -2  829.32   25.70
   0   0   2  841.42   25.70
   0   1  -2  782.32   25.20
   1  -1  -2  824.32   25.30
   0   1  -2  792.42   25.00
   0   1  -2  754.22   25.10
   1  -1  -2  778.82   24.60
  -1   0  -2  801.22   24.30
   1  -1  -2  770.82   24.90
  -1   0  -2  788.12   24.20
   1   0   2  782.52   24.20
  -1   1   2  743.73   24.70
   0  -1   2  727.03   25.10
   0  -1   2  761.12   25.10
   1   0   2  801.32   24.90
  -1   1   2  788.92   24.60
   0  -1   2  786.42   25.00
   0  -1   2  810.22   25.20
  -1   1  -2  783.62   24.10
   1   0  -2  801.42   24.80
   0  -1  -2  782.62   24.50
   0  -1  -2  742.03   24.60
   1   0  -2  713.83   24.70
  -1   0   2  741.83   24.70
   1  -1   2  795.92   24.10
   0   1   2  760.32   24.50
  -1   0   2  763.02   24.80
   0   1   2  790.42   24.70
   1  -1   2  766.82   24.00
   2  -1  -2 1573.34   53.49
  -1   2  -2 1663.53   53.19
  -1   2  -2 1758.62   52.69
   2  -1  -2 1652.33   52.89
  -1  -1  -2 1621.34   53.19
  -1  -1  -2 1738.43   52.99
  -2   1   2 1679.83   52.39
   1   1   2 1665.43   53.29
   1  -2   2 1704.93   53.09
   1  -2   2 1768.62   53.39
   1   1   2 1600.34   53.69
   1   1   2 1812.32   53.09
   1  -2   2 1668.03   53.59
  -2   1   2 1751.62   53.59
  -1   3  -2   26.00    2.40
  -2  -1  -2   15.70    2.10
  -1   3  -2   21.00    2.60
   3  -2  -2   23.60    2.00
  -2  -1  -2   19.10    2.20
  -2  -1  -2   19.80    2.30
   3  -2  -2   29.60    3.00
  -1   3  -2   21.20    3.00
   3  -2  -2   18.50    1.60
   2   1   2   18.60    2.10
   1  -3   2   20.10    2.70
   2   1   2   13.50    2.70
   1  -3   2   24.20    2.90
   2   1   2   19.40    2.40
   1  -3   2   17.60    2.50
   0   2  -2 1342.27   45.90
  -2   0  -2 1436.16   44.50
   2  -2  -2 1453.35   45.20
   2  -2  -2 1451.45   45.20
   0   2  -2 1287.17   45.80
   2  -2  -2 1332.17   46.10
  -2   0  -2 1451.05   44.90
   0   2  -2 1498.55   46.20
   2  -2  -2 1469.25   45.70
   2   0   2 1407.36   44.60
   2   0   2 1431.96   45.30
   0  -2   2 1500.35   46.00
   2   0   2 1468.65   45.00
  -2   2   2 1446.26   45.20
   0  -2   2 1466.15   46.30
   0  -2   2 1401.06   46.00
   0  -2   2 1553.04   46.40
   1  -2  -2 1619.94   52.29
   1  -2  -2 1750.12   52.49
   1   1  -2 1722.73   52.39
   1   1  -2 1717.23   52.09
   1   1  -2 1573.14   52.59
  -1  -1   2 1671.13   51.99
  -1   2   2 1659.93   52.29
  -1   2   2 1719.73   52.09
  -1   2   2 1647.14   52.39
  -1  -1   2 1680.33   52.69
  -1  -1   2 1674.43   52.29
  -1   2   2 1422.26   51.99
   2  -1   2 1672.13   51.39
   0  -2  -2 5956.60  178.08
   0   2   2 5538.75  177.98
   0   2   2 5790.92  178.28
  -2   0   2 5684.63  178.18
   0   2   2 5848.51  178.38
   3  -1  -2  612.14   20.20
  -1  -2  -2  576.34   20.50
  -1  -2  -2  587.94   20.40
  -2   3  -2  577.44   20.20
   3  -1  -2  587.34   20.70
   1   2   2  623.94   21.30
   1   2   2  621.34   20.80
   1   2   2  574.24   20.30
   2  -3   2  598.34   20.40
   2  -3   2  577.44   19.60
  -3   1   2  586.34   20.60
   2  -3   2  575.44   20.80
   4  -2  -2  236.08    9.20
  -2   4  -2  237.68   10.30
   4  -2  -2  233.78   10.60
  -2   4  -2  228.68    8.30
  -2  -2  -2  228.18   10.00
  -2   4  -2  232.48    8.20
  -2  -2  -2  229.78    9.80
  -2  -2  -2  230.68   10.10
   2  -4   2  220.78    9.80
   2  -4   2  249.28   10.50
   2   2   2  229.28    9.80
   2  -4   2  224.58   10.60
   2   2   2  238.08   11.10
   2   2   2  244.48   10.20
  -4   2   2  239.08   10.20
   5  -3  -2  816.62   26.20
  -2   5  -2  768.42   26.00
   5  -3  -2  766.62   26.60
   5  -3  -2  802.62   24.70
  -3  -2  -2  784.72   27.80
  -2   5  -2  777.52   25.90
  -3  -2  -2  789.92   27.00
   5  -3  -2  764.42   28.40
  -3  -2  -2  769.42   27.30
  -2   5  -2  766.52   28.10
   2  -5   2  761.72   28.00
   3   2   2  780.72   29.40
   2  -5   2  745.43   28.40
   3   2   2  782.22   27.10
   2  -5   2  772.52   28.80
   3   2   2  799.92   27.70
  -3  -1  -2  206.18    8.40
   4  -3  -2  212.08    9.00
   4  -3  -2  206.28    8.00
  -1   4  -2  212.58    9.20
  -3  -1  -2  202.48    8.80
  -3  -1  -2  218.08    9.10
   4  -3  -2  212.58    8.10
  -1   4  -2  214.38   10.40
  -1   4  -2  211.88    9.90
   4  -3  -2  209.68   10.10
   1  -4   2  207.28   10.10
   1  -4   2  198.18   10.10
   3   1   2  208.58   10.20
   3   1   2  197.68    8.40
   3   1   2  203.28    9.00
   1  -4   2  210.18    9.90
   3  -3  -2  223.68    8.30
   3  -3  -2  209.18    9.70
   3  -3  -2  217.68    8.90
   0   3  -2  215.98    9.60
  -3   0  -2  209.28    8.20
   0   3  -2  208.68    9.40
   3  -3  -2  206.18    8.40
   0   3  -2  204.98    9.30
   3   0   2  212.38    8.30
   0  -3   2  202.08    9.70
  -3   3   2  220.38    8.60
   0  -3   2  222.88    9.60
   3   0   2  207.88    8.30
   3   0   2  210.08    7.70
   0  -3   2  201.18    9.50
   0  -3   2  214.48    9.90
   3   0   2  210.28    9.20
   1   2  -2   21.40    3.00
   1   2  -2   19.90    2.70
  -3   1  -2   19.70    1.80
   2  -3  -2   19.50    2.50
   2  -3  -2   28.30    3.00
   1   2  -2   17.50    2.60
   3  -1   2   22.80    2.00
  -2   3   2   21.40    1.60
  -2   3   2   18.90    2.50
  -2   3   2   24.70    2.80
  -1  -2   2   20.00    2.50
  -1  -2   2   18.70    2.70
   3  -1   2   29.10    2.30
  -1  -2   2   18.80    2.90
  -1  -2   2   24.20    3.10
   2   1  -2  585.64   21.00
   2   1  -2  560.84   20.70
   1  -3  -2  600.94   20.70
   1  -3  -2  580.84   20.80
   2   1  -2  598.14   19.70
   2   1  -2  588.94   20.30
  -2  -1   2  587.44   19.60
  -1   3   2  561.04   20.30
  -1   3   2  619.44   20.40
  -2  -1   2  604.14   20.80
   3  -2   2  599.34   19.00
  -1   3   2  600.04   20.80
  -1   3   2  574.24   20.60
  -2  -1   2  595.24   20.20
  -2  -1   2  566.94   20.80
  -3   3  -2 2545.25   80.19
   3   0  -2 2481.05   80.49
   0  -3  -2 2673.33   81.49
   0  -3  -2 2457.45   81.49
   3   0  -2 2537.65   79.19
   3   0  -2 2763.42   81.69
   3   0  -2 2540.85   81.39
  -3   0   2 2465.65   80.69
   3  -3   2 2645.44   80.29
   0   3   2 2521.65   81.29
   0   3   2 2667.43   81.79
  -3   0   2 2465.85   79.09
   0   3   2 2700.23   81.79
  -3   0   2 2580.64   81.29
   3  -3   2 2414.06   80.89
   4  -1  -2  225.58    9.50
  -1  -3  -2  239.28   10.60
  -3   4  -2  235.08   10.00
   4  -1  -2  232.98   10.60
   4  -1  -2  245.58   10.30
  -1  -3  -2  235.58   10.90
  -1  -3  -2  231.38   10.60
   1   3   2  237.98   10.50
   3  -4   2  233.38   10.60
   3  -4   2  241.18    9.10
  -4   1   2  232.28   10.30
   1   3   2  242.78   10.90
   3  -4   2  236.28   10.20
   1   3   2  234.68   11.30
  -3   5  -2  186.78    9.20
  -2  -3  -2  179.28    9.50
   5  -2  -2  170.88    9.40
  -2  -3  -2  178.68    9.30
  -2  -3  -2  180.08   10.10
   5  -2  -2  182.08    8.60
  -5   2   2  176.58    9.30
   3  -5   2  189.18   10.10
   2   3   2  180.88    9.20
   3  -5   2  171.58    9.80
   3  -5   2  172.98    8.60
  -3   6  -2  364.46   16.00
   6  -3  -2  366.36   14.60
  -3  -3  -2  344.27   16.70
   6  -3  -2  351.36   16.20
   6  -3  -2  348.87   14.20
  -3  -3  -2  350.06   15.60
  -3  -3  -2  357.66   15.60
   3   3   2  348.77   16.60
   3   3   2  371.96   15.60
   3  -6   2  363.16   16.80
   3  -6   2  347.37   15.60
  -3   7  -2  122.59   10.70
  -4  -3  -2  132.79    9.70
   7  -4  -2  119.09   10.60
   3  -7   2   91.79    9.90
   3  -7   2  142.99   11.40
   4   3   2  128.99    9.50
  -4  -2  -2  700.63   25.50
  -2   6  -2  687.23   24.50
   6  -4  -2  731.23   24.40
  -4  -2  -2  681.33   25.20
   6  -4  -2  698.03   25.20
  -2   6  -2  731.93   24.60
  -4  -2  -2  705.83   26.50
   6  -4  -2  693.13   27.30
   6  -4  -2  725.63   22.80
   4   2   2  698.03   26.30
   2  -6   2  685.23   27.30
   4   2   2  669.93   25.20
   2  -6   2  679.73   27.60
   5  -4  -2 1256.37   40.60
  -1   5  -2 1248.18   41.10
   5  -4  -2 1233.78   42.50
   5  -4  -2 1266.57   39.40
  -4  -1  -2 1267.97   40.80
  -1   5  -2 1196.78   41.90
   5  -4  -2 1218.98   39.50
  -4  -1  -2 1199.58   40.10
   4   1   2 1117.09   42.30
   4   1   2 1181.68   39.80
   1  -5   2 1156.48   43.10
   1  -5   2 1178.08   42.40
   1  -5   2 1214.38   42.60
   4   1   2 1250.77   40.50
   0   4  -2 2104.69   69.09
  -4   0  -2 2099.39   67.39
   0   4  -2 2123.39   69.49
   4  -4  -2 2067.09   69.49
   4  -4  -2 2107.69   68.19
   0   4  -2 2207.68   69.29
   4  -4  -2 2146.29   67.19
   4  -4  -2 2024.60   67.59
   4   0   2 2105.89   67.69
   0  -4   2 2226.48   70.19
   0  -4   2 2073.69   69.79
   4   0   2 2160.78   68.99
   4   0   2 2142.89   67.29
   0  -4   2 2096.69   69.39
   0  -4   2 2214.48   69.39
   4   0   2 2080.89   66.49
   3  -4  -2  217.48    9.80
   1   3  -2  210.98    9.90
  -4   1  -2  217.28    8.40
   1   3  -2  204.18    9.90
   3  -4  -2  210.58    9.50
   1   3  -2  208.48   10.40
  -1  -3   2  202.58   10.00
   4  -1   2  210.28    8.40
  -1  -3   2  214.08   10.70
   4  -1   2  218.48    9.20
  -1  -3   2  224.78   10.70
   4  -1   2  203.18    8.50
  -3   4   2  230.38    9.70
  -1  -3   2  198.18    9.70
   4  -1   2  217.28    7.40
   2   2  -2  242.68   11.30
   2   2  -2  239.18    9.90
   2   2  -2  231.48   10.30
   2  -4  -2  236.08   10.50
   2  -4  -2  227.18   10.50
   4  -2   2  244.28    8.00
   4  -2   2  230.38    9.20
  -2  -2   2  236.28   10.70
  -2   4   2  231.08   10.40
  -2   4   2  250.47   10.70
  -2  -2   2  225.78   11.00
  -2   4   2  217.08    9.10
  -2   4   2  240.38    9.00
  -2  -2   2  225.98    9.70
  -2  -2   2  230.98   10.10
   3   1  -2  226.08   10.00
   3   1  -2  229.28   10.60
   3   1  -2  240.98    9.30
   1  -4  -2  228.98   10.80
   3   1  -2  236.98   11.10
  -1   4   2  223.48   10.50
   4  -3   2  238.28    8.90
  -1   4   2  249.58   11.00
   4  -3   2  232.18    9.90
  -1   4   2  234.98   10.50
  -3  -1   2  238.28   10.70
  -1   4   2  220.88   10.10
  -3  -1   2  232.88    9.00
   4  -3   2  238.28    9.70
  -3  -1   2  250.87   10.90
   4   0  -2 1237.28   39.00
   4   0  -2 1094.49   38.40
   0  -4  -2 1117.29   38.90
   4   0  -2 1118.79   37.30
   0   4   2 1092.19   38.40
   4  -4   2 1154.08   37.20
   4  -4   2 1070.49   37.80
   0   4   2 1117.59   38.70
   0   4   2 1130.29   38.90
  -4   0   2 1127.59   38.20
   5  -1  -2  135.29    8.20
   5  -1  -2  138.79    8.40
  -1  -4  -2  120.09    9.80
  -1  -4  -2  125.69    9.20
  -4   5  -2  125.59    7.40
  -1  -4  -2  120.89    8.30
   5  -1  -2  129.59    6.90
   4  -5   2  124.69    8.10
   1   4   2  121.99    9.30
   1   4   2  118.69    8.10
   1   4   2  143.69    9.70
  -5   1   2  128.39    8.00
   4  -5   2  138.99    6.40
   6  -2  -2  968.10   33.50
  -2  -4  -2  904.61   34.10
   6  -2  -2  919.91   34.00
  -4   6  -2  946.91   33.60
   6  -2  -2  905.11   31.80
  -6   2   2  910.31   33.50
   2   4   2  949.31   34.00
   4  -6   2  962.60   34.70
   4  -6   2  992.10   32.80
   7  -3  -2  150.98   11.60
  -4   7  -2  173.18   11.60
   7  -3  -2  144.79    8.80
  -3  -4  -2  142.19   10.80
   3   4   2  153.78   11.10
   4  -7   2  174.58   12.20
   4  -7   2  146.19   10.40
  -4   8  -2    9.50    7.10
   8  -4  -2   26.10    7.80
  -4  -4  -2   18.70    6.10
   4   4   2   28.50    6.80
   4  -8   2   15.50    7.10
  -5  -3  -2    3.60    5.50
   8  -5  -2    0.50    7.10
  -3   8  -2   -0.70    6.80
   3  -8   2    3.80    6.70
   5   3   2    3.70    5.70
  -2   7  -2    3.70    4.70
  -2   7  -2    3.60    3.30
   5   2   2    3.60    3.90
   2  -7   2    7.80    5.00
   2  -7   2   -2.40    4.00
   6  -5  -2    2.40    4.50
  -5  -1  -2    2.40    3.90
   6  -5  -2    3.30    2.90
  -1   6  -2   11.00    4.10
   6  -5  -2    5.00    2.30
   6  -5  -2    7.30    4.20
  -1   6  -2    9.40    4.40
   1  -6   2    3.80    4.00
   5   1   2    4.40    3.90
   5   1   2    5.70    2.80
   1  -6   2    5.40    4.10
   5  -5  -2  318.17   13.30
   5  -5  -2  319.47   12.60
   5  -5  -2  310.47   15.30
   5  -5  -2  306.87   14.20
  -5   0  -2  329.57   13.30
   0   5  -2  327.77   15.20
   0   5  -2  323.07   15.10
   0  -5   2  308.47   15.80
   0  -5   2  302.47   15.00
   5   0   2  307.27   15.60
   5   0   2  323.57   12.60
   5   0   2  301.97   11.70
   1   4  -2 1214.58   42.40
   1   4  -2 1244.28   42.30
  -5   1  -2 1267.07   40.00
   4  -5  -2 1206.28   41.70
   1   4  -2 1230.88   42.90
   4  -5  -2 1199.68   41.30
   5  -1   2 1224.28   38.30
   5  -1   2 1200.48   40.20
  -1  -4   2 1261.57   42.30
  -1  -4   2 1292.97   43.80
  -1  -4   2 1144.39   42.80
  -1  -4   2 1157.28   42.20
   5  -1   2 1248.98   39.50
   5  -1   2 1183.98   41.20
   2   3  -2  783.62   28.00
   2   3  -2  718.43   28.80
   2   3  -2  797.72   27.80
   3  -5  -2  762.12   28.00
   3  -5  -2  743.43   28.00
  -2  -3   2  744.63   29.10
   5  -2   2  765.22   26.30
   5  -2   2  810.02   25.90
  -3   5   2  786.12   28.10
  -2  -3   2  761.22   27.40
  -3   5   2  771.92   28.00
   5  -2   2  776.62   26.30
  -2  -3   2  805.42   28.10
  -2  -3   2  785.82   28.80
   2  -5  -2  180.78    9.90
   3   2  -2  182.88    9.30
   3   2  -2  185.28    8.90
   3   2  -2  165.28   10.60
   2  -5  -2  184.28   10.60
   5  -3   2  186.78    7.00
  -3  -2   2  194.18   10.30
  -2   5   2  184.18    9.90
  -3  -2   2  178.68    8.50
  -3  -2   2  176.18   10.10
  -2   5   2  166.78   10.10
  -2   5   2  179.88    8.20
   5  -3   2  180.08    8.00
   5  -3   2  179.48    8.60
  -3  -2   2  176.58    9.40
  -2   5   2  165.58    8.30
   4   1  -2  131.69    6.50
   4   1  -2  117.89    7.30
   1  -5  -2  120.69    8.30
   4   1  -2  113.79    9.30
   4   1  -2  130.29    8.40
  -4  -1   2  122.19    8.60
  -1   5   2  133.59    8.10
  -1   5   2  121.49    8.20
   5  -4   2  130.19    7.70
   5  -4   2  140.79    6.70
   5  -4   2  119.19    7.00
  -1   5   2  137.59    8.30
  -4  -1   2  117.49    6.00
   5   0  -2  228.78   10.60
   0  -5  -2  233.18   12.50
   5   0  -2  200.68   12.70
   5   0  -2  234.28   12.00
   5  -5   2  228.68    8.50
   0   5   2  241.18   12.70
   5  -5   2  234.08   11.30
   5  -5   2  225.58   11.20
  -5   0   2  232.38   12.10
   0   5   2  238.88   12.20
   5  -5   2  222.68   11.80
  -1  -5  -2   67.99    8.30
   6  -1  -2   67.69    7.80
   6  -1  -2   85.09   10.10
   6  -1  -2   72.29    6.10
   5  -6   2   70.59    5.30
   5  -6   2   74.19    9.90
   5  -6   2   77.09    7.70
   1   5   2   77.79    8.20
  -6   1   2   80.59    8.80
   7  -2  -2 1182.28   41.50
   7  -2  -2 1117.49   38.10
  -2  -5  -2 1132.49   41.80
   2   5   2 1086.79   41.20
   5  -7   2 1144.99   41.70
  -3  -5  -2   32.30    7.50
   8  -3  -2   53.19   11.80
   3   5   2   39.40    8.40
   5  -8   2   30.60    7.30
  -1   7  -2   39.80    9.80
   7  -6  -2   26.60    6.70
   1  -7   2   26.30    6.60
  -6   0  -2   19.50    5.40
   6  -6  -2   25.20    5.80
   6  -6  -2   30.80    6.00
   0   6  -2   25.00    5.80
   0  -6   2   21.10    6.10
   0  -6   2   21.00    5.30
   6   0   2   22.60    4.10
   1   5  -2    9.10    4.50
   5  -6  -2    3.70    4.20
  -6   1  -2    2.90    3.20
   5  -6  -2    5.00    3.40
   6  -1   2    5.70    5.20
  -1  -5   2    2.30    3.70
  -1  -5   2    6.30    3.90
   6  -1   2    9.20    2.50
   6  -1   2    1.70    3.00
   2   4  -2  699.73   27.00
   4  -6  -2  695.03   26.70
   6  -2   2  667.43   24.60
   6  -2   2  717.33   25.80
  -2  -4   2  711.53   26.80
   6  -2   2  704.33   23.40
  -2  -4   2  705.13   28.60
   3   3  -2  336.97   16.00
   3   3  -2  372.06   16.20
  -3   6   2  372.66   16.60
   6  -3   2  379.06   14.00
   6  -3   2  363.66   13.90
   6  -3   2  358.76   14.60
  -3  -3   2  362.66   15.40
   6  -3   2  353.36   13.40
   4   2  -2  931.41   33.80
   4   2  -2  979.10   33.00
   2  -6  -2  965.80   35.40
  -4  -2   2  942.81   32.40
  -2   6   2  968.90   32.80
   6  -4   2  915.31   32.10
  -2   6   2  924.61   34.90
   6  -4   2 1058.39   31.30
  -2   6   2  902.11   32.90
   6  -4   2  919.81   33.20
   1  -6  -2   63.29    8.30
   5   1  -2  100.29    7.50
   5   1  -2   70.89    8.00
  -1   6   2   78.19    8.40
   6  -5   2   99.29    7.60
  -1   6   2   77.39    8.20
   6  -5   2   77.49    7.80
   6  -5   2   68.89    6.70
  -1   6   2   67.69    7.70
   6   0  -2   62.99    6.70
   0  -6  -2   77.29    9.80
   6   0  -2   68.49    8.60
   0   6   2   62.39    8.90
   6  -6   2   62.89    7.80
   6  -6   2   76.79   10.80
   6  -6   2   59.79    8.70
  -1  -6  -2  223.78   15.60
   7  -1  -2  267.77   15.10
   7  -1  -2  225.08   13.80
   1   6   2  234.18   15.30
   6  -7   2  223.18   15.60
   6  -7   2  257.37   14.80
   0   7  -2  534.85   26.40
   7  -7  -2  558.64   27.20
   0  -7   2  564.74   27.10
   6  -7  -2   23.80    7.00
   1   6  -2   33.60    7.50
   6  -7  -2   39.60    8.30
  -1  -6   2   26.60    6.80
   5  -7  -2    1.20    4.20
   2   5  -2    1.70    4.90
   5  -7  -2   -7.40    5.00
   7  -2   2    0.60    3.60
  -2  -5   2   -2.40    4.20
   4  -7  -2  124.99   10.40
   3   4  -2  122.79   10.60
   7  -3   2  126.29    8.50
  -3  -4   2  114.99    9.60
   3  -7  -2  166.48   12.10
   4   3  -2  164.88   14.80
   4   3  -2  157.38   11.20
   7  -4   2  156.58    9.80
  -4  -3   2  165.18   10.00
   7  -4   2  157.08    7.90
  -3   7   2  155.88   11.70
   2  -7  -2 1177.48   43.80
   5   2  -2 1147.59   41.00
  -2   7   2 1165.98   40.20
  -2   7   2 1146.59   42.80
   7  -5   2 1158.28   39.10
   7  -5   2 1126.09   40.80
  -5  -2   2 1168.08   39.00
   6   1  -2  225.18   13.30
   1  -7  -2  295.27   17.30
   7  -6   2  249.88   13.20
   7  -6   2  235.48   15.00
  -1   7   2  223.08   14.90
  -1   7   2  260.87   16.30
   0  -7  -2   75.29   13.60
   0   7   2   97.69   13.70
   0   7   2   75.59   12.40
   7  -7   2   43.70   12.50
   7  -7   2   81.59   10.90
   5  -8  -2   14.20    6.50
   3   5  -2   -9.10    6.30
  -3  -5   2   11.40    6.00
   4   4  -2   20.20    7.10
   4  -8  -2   21.90    7.50
  -4  -4   2   13.40    5.80
   5   3  -2   32.90    7.60
   3  -8  -2   22.40    7.40
  -3   8   2   46.20   12.10
   0   0  -3  115.69    4.60
   0   0  -3  122.79    5.00
   0   0   3  127.39    4.70
   0   0   3  129.89    5.10
   0   1  -3   11.40    1.40
   0   1  -3   12.80    1.50
   1  -1  -3   11.50    1.20
  -1   0  -3   12.70    0.90
   1  -1  -3    9.30    1.40
   0   1  -3   14.80    1.60
   1   0   3   15.30    1.50
  -1   1   3   14.60    1.50
  -1   1   3   11.00    1.10
   0  -1   3   10.10    1.40
   0  -1   3   10.20    1.50
  -1   1   3   17.50    1.70
  -1   1  -3  212.28    7.40
  -1   1  -3  228.28    7.50
   1   0  -3  198.38    8.10
   1   0  -3  234.08    8.30
   0  -1  -3  210.28    7.80
   1  -1   3  204.68    7.70
   1  -1   3  227.28    7.40
   0   1   3  211.18    8.30
   1  -1   3  220.88    7.40
  -1   0   3  222.08    8.20
   0   1   3  221.18    8.00
   2  -1  -3 6901.41  220.78
   1   1   3 7404.26  220.38
  -1   3  -3  356.76   14.10
  -2  -1  -3  386.76   13.50
  -2  -1  -3  360.36   13.80
   3  -2  -3  395.46   12.60
   3  -2  -3  379.56   13.50
  -1   3  -3  372.06   13.60
   3  -2  -3  391.86   14.80
  -2  -1  -3  396.36   13.30
   1  -3   3  396.06   14.40
   2   1   3  365.76   14.60
   1  -3   3  357.16   14.20
  -3   2   3  388.76   14.60
  -3   2   3  388.46   12.60
   2   1   3  384.06   13.30
   2   1   3  386.26   14.00
  -2   0  -3  155.68    5.50
   0   2  -3  157.48    6.80
   0   2  -3  147.89    6.70
   2  -2  -3  152.28    6.40
  -2   0  -3  159.08    5.30
   2   0   3  157.68    5.40
   0  -2   3  150.08    7.00
   0  -2   3  152.48    6.70
   0  -2   3  157.18    7.10
  -2   2   3  141.29    5.60
   2   0   3  153.68    6.40
   0  -2  -3 6653.03  210.98
   2   0  -3 7082.59  211.38
  -2   0   3 6785.22  211.28
  -1  -2  -3    8.10    1.70
   3  -1  -3    7.30    1.90
   3  -1  -3   10.80    2.20
  -1  -2  -3    9.10    2.30
  -2   3  -3    7.70    2.00
  -3   1   3    9.90    1.60
   2  -3   3    9.70    2.40
   1   2   3    8.90    2.10
  -3   1   3    8.90    2.30
   1   2   3    6.70    1.80
   2  -3   3   13.50    2.50
   2  -3   3    7.50    1.60
   1   2   3    8.50    2.40
   4  -2  -3    3.40    2.00
  -2  -2  -3   -0.90    1.70
  -2  -2  -3   -0.80    1.40
  -2   4  -3    1.60    0.90
  -2  -2  -3    2.00    1.70
  -2   4  -3    1.00    0.90
  -2   4  -3   -0.40    1.60
   4  -2  -3    0.80    1.40
   2   2   3   -1.60    1.70
   2  -4   3    4.20    2.30
  -4   2   3    1.60    1.80
   2  -4   3    0.00    1.30
   2   2   3    1.20    1.50
   2  -4   3    0.30    1.70
  -3  -2  -3  152.38    7.70
  -3  -2  -3  147.59    8.00
  -2   5  -3  145.99    6.60
   5  -3  -3  145.19    7.30
  -2   5  -3  132.69    8.40
   5  -3  -3  144.49    9.00
  -3  -2  -3  146.39    8.20
   3   2   3  141.19    7.50
   2  -5   3  153.78    9.40
   3   2   3  143.09    8.30
   3   2   3  121.99    9.50
   2  -5   3  130.79    8.10
  -3  -1  -3   62.79    4.60
   4  -3  -3   68.59    4.30
   4  -3  -3   73.29    5.00
  -1   4  -3   70.99    4.70
   4  -3  -3   81.09    6.00
   4  -3  -3   67.19    3.60
  -3  -1  -3   68.89    4.00
  -1   4  -3   65.19    5.20
  -3  -1  -3   66.59    4.40
   1  -4   3   65.29    5.30
   3   1   3   69.09    4.20
   1  -4   3   72.89    6.00
   3   1   3   73.49    5.00
   1  -4   3   71.29    6.30
   3   1   3   64.39    5.80
   1  -4   3   70.19    5.60
   0   3  -3 4876.41  151.38
   3  -3  -3 4723.13  150.08
   0   3  -3 5014.90  151.68
   3  -3  -3 4965.80  150.88
   3  -3  -3 4743.53  150.28
   0   3  -3 4745.53  151.38
  -3   0  -3 4866.11  149.59
   3  -3  -3 4715.63  151.88
   0  -3   3 4896.91  151.98
   3   0   3 4975.70  150.38
   0  -3   3 5101.99  151.98
   3   0   3 4769.62  149.09
  -3   3   3 4940.11  150.18
   0  -3   3 4784.92  151.38
   0  -3   3 4600.54  151.48
  -3   1  -3  390.06   12.80
   1   2  -3  372.86   14.50
   2  -3  -3  365.56   14.10
   2  -3  -3  406.76   14.50
   1   2  -3  392.06   14.40
   2  -3  -3  401.56   14.50
   1   2  -3  380.26   15.00
  -2   3   3  396.26   13.30
  -1  -2   3  385.76   14.50
  -2   3   3  394.96   14.30
  -1  -2   3  385.56   15.20
   3  -1   3  391.36   12.80
  -2   3   3  382.76   13.40
  -1  -2   3  377.66   14.30
   2   1  -3    6.70    1.90
   1  -3  -3   10.10    2.50
   2   1  -3    9.80    2.40
   2   1  -3    7.50    1.90
   1  -3  -3   11.50    2.40
  -2  -1   3   12.60    2.70
  -1   3   3    8.80    2.30
  -1   3   3    7.50    1.80
   3  -2   3    7.00    1.70
   3  -2   3    8.80    1.20
  -1   3   3    4.70    1.30
  -2  -1   3    5.10    1.20
  -2  -1   3    8.10    1.90
  -1   3   3    8.30    1.90
   3   0  -3 7273.67  224.58
   0  -3  -3 7624.94  225.28
   3   0  -3 7342.37  225.38
   3   0  -3 7043.10  225.38
   0  -3  -3 7056.19  225.38
   0   3   3 7717.33  225.58
  -3   0   3 7416.36  225.38
   3  -3   3 7428.26  223.98
   3  -3   3 7109.99  224.98
  -3   0   3 7166.08  224.68
   0   3   3 7067.79  225.08
   0   3   3 6975.30  225.38
  -1  -3  -3   18.80    3.80
   4  -1  -3   15.30    3.30
   4  -1  -3   19.20    3.50
  -3   4  -3   12.00    2.90
  -1  -3  -3   12.70    3.20
  -4   1   3   13.40    2.80
   1   3   3   15.40    3.20
   3  -4   3   12.90    2.60
   1   3   3   13.80    4.20
   3  -4   3    9.60    2.50
   3  -4   3   17.60    2.40
   1   3   3   13.40    3.60
   5  -2  -3  247.68   11.00
  -3   5  -3  224.98   11.00
  -2  -3  -3  260.17   11.70
  -2  -3  -3  249.38   11.60
   5  -2  -3  245.28   11.90
  -2  -3  -3  259.47   12.00
   3  -5   3  244.88   12.00
   3  -5   3  234.68   11.90
   2   3   3  258.87   12.20
  -5   2   3  253.67   11.80
   2   3   3  234.58   11.20
   3  -5   3  245.88   10.80
   6  -3  -3 2149.98   70.79
  -3  -3  -3 2066.19   69.99
  -3  -3  -3 2105.89   69.19
   6  -3  -3 2257.07   68.79
  -3   6  -3 2132.09   69.99
  -3  -3  -3 2145.49   69.79
   3  -6   3 1953.50   70.69
   3   3   3 2158.38   69.39
   3  -6   3 2133.89   69.79
   3   3   3 2093.59   70.29
  -4  -3  -3  288.87   14.60
  -3   7  -3  272.67   15.20
   7  -4  -3  266.47   15.70
   4   3   3  267.87   13.80
   3  -7   3  286.37   16.20
   3  -7   3  302.57   15.90
  -2   6  -3   45.30    5.00
   6  -4  -3   51.99    7.00
  -2   6  -3   39.10    4.80
   6  -4  -3   41.60    5.80
   6  -4  -3   42.80    7.20
  -2   6  -3   54.99    7.00
  -4  -2  -3   42.60    5.70
  -4  -2  -3   44.10    7.10
  -4  -2  -3   43.00    6.00
   4   2   3   37.90    7.40
   4   2   3   42.20    5.20
   2  -6   3   40.80    7.20
   2  -6   3   39.70    6.60
   5  -4  -3 3733.63  116.29
  -1   5  -3 3759.92  119.29
  -4  -1  -3 3939.31  117.59
   5  -4  -3 3788.22  117.89
   5  -4  -3 3758.92  116.89
  -1   5  -3 3841.12  118.19
   5  -4  -3 3816.22  119.99
   4   1   3 3699.93  119.79
   1  -5   3 3600.44  119.99
   1  -5   3 3370.06  118.99
   1  -5   3 3718.13  119.69
   4   1   3 3818.32  117.79
   4   1   3 3618.04  116.59
   1  -5   3 3839.12  120.09
   0   4  -3 2354.26   77.49
   4  -4  -3 2380.76   75.99
   4  -4  -3 2287.47   75.89
   4  -4  -3 2358.76   78.29
   0   4  -3 2441.26   77.49
   4  -4  -3 2415.06   76.79
  -4   0  -3 2406.76   75.49
   0   4  -3 2493.15   78.09
  -4   4   3 2451.85   76.19
   0  -4   3 2532.95   78.59
   4   0   3 2385.96   75.99
   0  -4   3 2316.37   77.59
   4   0   3 2453.45   77.59
   0  -4   3 2354.66   78.39
   0  -4   3 2323.57   77.79
   1   3  -3   70.29    5.50
  -4   1  -3   77.29    3.80
   3  -4  -3   77.89    5.10
   1   3  -3   69.39    6.00
   1   3  -3   74.29    5.70
   3  -4  -3   68.99    5.40
   3  -4  -3   69.59    5.00
   4  -1   3   67.59    3.80
  -1  -3   3   74.79    5.80
  -1  -3   3   63.69    5.80
  -1  -3   3   68.19    5.90
  -3   4   3   71.29    5.10
  -1  -3   3   73.89    5.40
   4  -1   3   72.59    4.50
   2   2  -3    1.50    2.10
   2  -4  -3    2.20    2.00
   2  -4  -3    8.60    2.20
  -2  -2   3    2.10    1.80
  -2  -2   3    2.40    2.10
   3   1  -3   11.80    2.50
   3   1  -3   19.80    3.80
   1  -4  -3   12.60    3.10
   3   1  -3   16.40    4.20
   1  -4  -3   12.00    3.40
  -3  -1   3   13.80    3.40
   4  -3   3   13.30    2.20
  -1   4   3   11.60    3.00
  -3  -1   3   10.20    2.80
  -1   4   3   13.60    3.20
  -1   4   3   11.60    3.40
   4  -3   3   15.90    2.80
  -1   4   3   22.60    3.70
   4   0  -3   20.30    3.50
   0  -4  -3    9.70    3.20
   4   0  -3   18.70    4.20
  -4   4  -3   18.60    3.10
   4   0  -3   15.40    4.50
   0  -4  -3   22.80    4.10
  -4   0   3   21.70    4.50
  -4   0   3   16.60    3.60
   0   4   3   14.80    3.30
   4  -4   3   22.50    3.70
   4  -4   3   17.80    1.90
   0   4   3   13.00    3.10
   4  -4   3   17.00    3.50
   0   4   3   16.60    3.90
   5  -1  -3 2650.43   85.09
  -1  -4  -3 2738.83   87.39
  -4   5  -3 2737.03   85.39
   5  -1  -3 2697.63   86.69
  -1  -4  -3 2741.63   86.69
  -1  -4  -3 2710.53   86.89
   5  -1  -3 2694.63   86.39
   1   4   3 2614.84   86.29
   4  -5   3 2680.23   86.59
  -5   1   3 2638.14   86.19
   4  -5   3 2582.74   83.99
   1   4   3 2576.44   87.49
   1   4   3 2637.44   86.99
   4  -5   3 2752.82   85.69
  -4   6  -3 1228.88   41.10
   6  -2  -3 1195.88   39.90
  -2  -4  -3 1239.78   42.00
   6  -2  -3 1219.98   42.20
   6  -2  -3 1183.68   41.00
   2   4   3 1186.48   41.40
   4  -6   3 1028.10   41.20
   4  -6   3 1211.28   40.10
   4  -6   3 1192.08   42.30
  -6   2   3 1140.49   41.20
   7  -3  -3   54.69    6.90
  -3  -4  -3   58.19    8.30
  -4   7  -3   48.40    8.20
   7  -3  -3   64.39    9.20
   4  -7   3   58.49    7.80
   4  -7   3   51.99    8.90
   3   4   3   62.89    8.80
  -4  -4  -3   40.60    7.40
  -4   8  -3   34.80    7.80
   8  -4  -3   40.80    8.60
   4  -8   3   45.80   11.60
   4  -8   3   40.00   11.20
   4   4   3   37.30    7.60
  -3   8  -3   18.60    7.00
   8  -5  -3   33.60    8.70
   3  -8   3   27.90    8.00
   3  -8   3   23.40    7.80
   5   3   3   42.70    8.40
  -2   7  -3 1574.44   51.69
   7  -5  -3 1590.94   56.09
  -2   7  -3 1630.34   55.59
   5   2   3 1509.95   52.09
   2  -7   3 1539.35   56.09
   2  -7   3 1597.14   56.49
  -5  -1  -3   16.00    4.50
   6  -5  -3   24.10    4.10
   6  -5  -3   13.20    5.60
   6  -5  -3   17.60    5.10
  -1   6  -3   22.60    6.80
   6  -5  -3   26.50    5.90
  -1   6  -3   20.30    5.00
   1  -6   3   31.20    7.40
   5   1   3   26.70    7.20
   5   1   3   27.00    4.40
   1  -6   3   20.60    4.90
   5  -5  -3  115.59    9.30
  -5   0  -3  133.29    7.20
   0   5  -3  122.89    9.60
   0   5  -3  119.49    8.80
   5  -5  -3  118.59    7.20
   5  -5  -3  126.19    7.40
   5  -5  -3  138.39    9.60
   5   0   3  113.69    9.90
   5   0   3  121.09    7.40
   5   0   3  115.59    5.50
   0  -5   3  131.99    9.90
   0  -5   3  130.49    9.30
   1   4  -3 3757.52  121.29
  -5   1  -3 3826.52  117.89
   4  -5  -3 3750.52  119.69
   1   4  -3 3735.93  120.79
   4  -5  -3 3685.33  121.59
   1   4  -3 3703.73  120.59
   4  -5  -3 3800.12  120.19
  -1  -4   3 3725.83  121.99
  -4   5   3 3954.10  119.99
   5  -1   3 3956.70  119.99
  -1  -4   3 3666.33  120.59
   5  -1   3 3800.52  118.09
  -1  -4   3 3682.53  120.59
   5  -1   3 3943.41  118.39
   2   3  -3  137.59    8.40
   3  -5  -3  134.89    9.10
   2   3  -3  133.19    9.70
   3  -5  -3  137.49    8.30
   2   3  -3  134.19    8.30
  -2  -3   3  145.59    8.90
   5  -2   3  143.99    6.50
  -2  -3   3  135.49    9.60
  -2  -3   3  134.29    7.90
   5  -2   3  151.58    7.30
  -2  -3   3  120.99    9.00
  -3   5   3  133.19    8.50
   5  -2   3  148.29    7.20
   2  -5  -3  249.88   12.80
   3   2  -3  270.97   11.20
   3   2  -3  245.08   11.70
   3   2  -3  244.48   15.10
   2  -5  -3  256.37   12.40
  -3  -2   3  258.67   12.80
  -3  -2   3  256.97   12.70
  -2   5   3  239.58   12.10
   5  -3   3  245.38   10.50
  -2   5   3  270.07   11.20
  -3  -2   3  244.98   10.70
  -2   5   3  240.88   12.50
  -2   5   3  274.07   10.90
   4   1  -3 2704.73   86.79
   1  -5  -3 2662.03   88.19
   4   1  -3 2709.93   87.99
   4   1  -3 2546.65   88.19
  -1   5   3 2744.23   87.19
  -1   5   3 2651.73   87.79
   5  -4   3 2814.92   84.99
  -1   5   3 2825.22   87.69
  -4  -1   3 2728.53   87.69
  -4  -1   3 2780.02   87.59
   5  -4   3 2629.54   86.29
   5  -4   3 2702.33   86.49
  -4  -1   3 2695.73   84.69
   0  -5  -3  647.94   25.40
   5   0  -3  636.64   24.90
   5   0  -3  639.14   25.60
   5   0  -3  659.03   23.60
   5  -5   3  645.44   24.40
   5  -5   3  632.94   24.10
   5  -5   3  637.24   23.10
  -5   0   3  621.34   24.90
   5  -5   3  628.54   20.90
   0   5   3  631.84   24.80
   6  -1  -3    5.90    3.10
  -1  -5  -3   -1.30    3.20
   6  -1  -3    0.00    3.70
   5  -6   3    7.70    5.60
   1   5   3   -4.30    3.90
   5  -6   3   -3.10    3.30
   5  -6   3    0.10    2.10
   7  -2  -3 2123.39   82.09
  -2  -5  -3 2549.15   83.19
   7  -2  -3 2514.65   79.99
   2   5   3 2598.64   83.09
   5  -7   3 2555.64   83.39
   5  -7   3 2571.94   80.69
   8  -3  -3   44.40    8.80
  -3  -5  -3   56.59   11.50
   5  -8   3   59.99   12.10
   3   5   3   44.40   11.50
   7  -6  -3  138.89   13.10
  -1   7  -3  122.09   12.30
   1  -7   3  132.69   13.20
   1  -7   3   91.29   12.50
   6  -6  -3   25.00    5.80
   0   6  -3   34.10    8.50
   6  -6  -3   16.50    5.60
   0  -6   3   27.70    6.10
   0  -6   3   15.10    5.40
   6   0   3   28.50    4.10
   5  -6  -3   13.70    5.00
  -6   1  -3   24.80    4.90
   1   5  -3   15.40    4.90
   5  -6  -3   18.30    4.00
   6  -1   3   14.50    3.50
  -1  -5   3   20.30    5.30
  -1  -5   3   16.70    4.80
   6  -1   3   25.30    5.90
   4  -6  -3   45.10    6.20
   2   4  -3   47.20    6.50
   6  -2   3   39.80    4.40
  -2  -4   3   41.20    6.40
   6  -2   3   54.29    5.30
   6  -2   3   45.80    6.60
  -2  -4   3   53.39    8.00
   3   3  -3 2185.48   71.69
   3   3  -3 2197.68   72.49
   3  -6  -3 2224.88   72.99
   6  -3   3 2155.98   69.59
  -3  -3   3 2321.37   74.09
  -3  -3   3 2160.58   71.29
   6  -3   3 2119.99   69.79
   6  -3   3 2280.77   70.19
   6  -3   3 2087.39   69.79
   2  -6  -3 1222.48   44.10
   4   2  -3 1265.57   43.00
  -2   6   3 1289.37   41.80
  -2   6   3 1223.68   42.00
  -4  -2   3 1224.28   41.00
   6  -4   3 1186.08   41.20
   6  -4   3 1185.98   41.40
  -2   6   3 1214.28   43.70
   6  -4   3 1299.17   39.20
   5   1  -3    1.90    3.60
   1  -6  -3   -6.10    3.10
   5   1  -3    0.10    3.30
   6  -5   3    5.90    3.40
   6  -5   3    4.70    3.50
   6  -5   3    6.10    3.20
  -1   6   3   -3.70    3.90
  -1   6   3    0.60    3.50
  -1   6   3   11.70    4.30
   6   0  -3   20.60    5.20
   6   0  -3   38.60    6.70
   0  -6  -3   28.00    6.00
   6  -6   3   27.20    7.60
   0   6   3   33.20    8.50
   0   6   3   24.70    5.30
   6  -6   3   40.50    7.30
   7  -1  -3  107.99   11.50
  -1  -6  -3   96.19   11.80
   7  -1  -3   91.69    8.90
   6  -7   3  107.89   12.10
   1   6   3  106.09   11.70
   6  -7   3  101.29   11.00
   0   7  -3  153.18   15.40
   7  -7  -3  162.88   16.90
   6  -7  -3   92.69   12.70
   6  -7  -3  106.09   10.10
   1   6  -3   99.39   12.40
  -1  -6   3  104.29   14.30
  -1  -6   3  121.19   12.50
   5  -7  -3 1523.55   57.39
   5  -7  -3 1590.84   55.39
   2   5  -3 1633.34   56.39
  -2  -5   3 1627.84   56.09
  -2  -5   3 1622.24   58.69
   3   4  -3  284.37   15.20
   4  -7  -3  295.77   15.70
  -3  -4   3  259.67   14.20
   7  -3   3  269.17   12.00
   7  -3   3  276.47   11.10
   3  -7  -3   72.39    9.50
   4   3  -3   61.09    8.60
   7  -4   3   49.99    5.70
   7  -4   3   59.99    6.60
  -4  -3   3   59.39    7.20
   2  -7  -3 2590.34   87.89
   5   2  -3 2605.64   85.69
   7  -5   3 2602.54   83.99
   7  -5   3 2587.44   84.59
  -5  -2   3 2649.33   83.09
  -2   7   3 2618.74   84.69
  -2   7   3 2614.94   87.39
   6   1  -3  112.39   10.20
   1  -7  -3   95.09   12.40
   7  -6   3  100.19   10.60
  -1   7   3   98.19   12.00
  -1   7   3  104.09   11.00
   7  -6   3   97.39    9.60
   7   0  -3  219.18   16.70
   0  -7  -3  221.38   17.30
   7  -7   3  225.18   15.90
   7  -7   3  203.38   14.90
   0   7   3  244.98   17.40
   0   7   3  193.18   16.60
   3   5  -3   37.30    8.30
   5  -8  -3   24.40    8.60
   5  -8  -3   34.30    7.80
  -3  -5   3   31.40    7.00
   4  -8  -3   64.29   11.70
   4   4  -3   65.49   11.80
  -4  -4   3   40.20    9.40
   5   3  -3   54.19   11.30
   3  -8  -3   35.20    8.30
   0   0  -4 2556.64   78.99
   0   0  -4 2562.04   78.39
   0   0   4 2342.17   78.89
   0   0   4 2647.64   78.49
   0  -1  -4 4099.89  124.39
   1   0  -4 3983.10  124.89
   1   0  -4 4088.59  124.79
   0  -1  -4 3945.41  124.49
  -1   0   4 3784.62  124.69
   0   1   4 3797.92  124.89
  -1   0   4 4275.37  124.89
   0   1   4 4188.48  124.49
  -1   2  -4  104.69    4.90
   2  -1  -4  117.19    5.30
  -1   2  -4  101.09    4.60
  -1  -1  -4   99.49    5.00
   2  -1  -4  101.19    5.40
  -1  -1  -4  106.29    4.60
   1  -2   4  109.09    5.10
  -2   1   4   98.09    4.70
   1  -2   4  101.29    5.00
  -2   1   4  106.09    3.90
  -2   1   4  107.79    5.40
   1   1   4  100.79    4.60
   1   1   4   97.99    5.00
   1  -2   4  102.49    4.80
  -1   3  -4 6387.06  199.58
   3  -2  -4 6460.05  200.98
  -2  -1  -4 6517.75  199.08
  -2  -1  -4 6180.48  199.88
   3  -2  -4 6434.96  199.78
  -1   3  -4 6358.46  200.18
   1  -3   4 6760.82  200.68
   2   1   4 6238.08  198.98
  -3   2   4 6662.83  200.78
   2   1   4 6569.54  200.08
   1  -3   4 6704.33  200.28
   1  -3   4 6120.39  200.58
   1  -3   4 6589.34  200.38
   0   2  -4 1844.62   57.99
   2  -2  -4 1760.62   56.89
   0   2  -4 1770.52   57.69
  -2   0  -4 1826.82   55.99
  -2   0  -4 1856.61   56.09
   2  -2  -4 1973.20   57.99
   2  -2  -4 1856.71   58.39
  -2   2   4 1826.82   56.89
  -2   2   4 1698.13   56.89
   2   0   4 1846.12   57.49
   0  -2   4 1866.61   57.79
   0  -2   4 1743.63   57.89
   0  -2   4 1685.33   58.09
   1  -2  -4  106.99    5.20
   1  -2  -4  100.39    5.00
   1   1  -4  116.19    5.70
   1   1  -4  102.39    5.40
  -2   1  -4  113.59    3.70
   1  -2  -4  105.09    5.50
   1   1  -4  102.89    5.20
  -1  -1   4  107.09    5.50
  -1   2   4  119.79    5.20
  -1  -1   4  100.29    4.90
  -1  -1   4  112.49    5.70
  -1   2   4  104.49    5.30
   2   0  -4 2558.84   74.19
   0  -2  -4 2215.68   73.69
   2   0  -4 2233.58   73.99
   0  -2  -4 2391.56   73.59
  -2   2  -4 2286.77   72.49
   0   2   4 2166.08   74.09
   0   2   4 2332.77   73.49
   2  -2   4 2311.87   72.59
  -2   0   4 2209.28   73.69
   0   2   4 2572.54   73.99
  -2   0   4 2418.76   74.09
   2  -2   4 2352.66   72.69
  -2   0   4 2290.97   72.19
  -1  -2  -4 2259.27   75.09
   3  -1  -4 2339.07   74.99
   3  -1  -4 2346.27   75.69
  -2   3  -4 2352.76   74.59
   2  -3   4 2254.27   75.49
  -3   1   4 2274.67   74.19
   1   2   4 2498.15   76.09
   1   2   4 2404.66   75.29
   2  -3   4 2535.15   74.79
   1   2   4 2295.57   74.69
  -3   1   4 2497.75   75.69
   2  -3   4 2339.77   74.39
   4  -2  -4  854.51   30.90
  -2  -2  -4  965.00   31.00
  -2  -2  -4  881.51   31.50
  -2  -2  -4  933.31   31.30
  -2   4  -4  939.51   29.50
  -2   4  -4  926.41   31.50
   4  -2  -4  914.11   32.40
   2  -4   4  864.91   32.20
   2   2   4  903.41   30.90
   2   2   4  952.50   31.80
  -4   2   4  930.01   32.00
   2  -4   4  967.40   31.80
   2   2   4  946.91   32.90
   2  -4   4  933.81   31.40
  -3  -2  -4 4780.42  147.09
   5  -3  -4 4706.13  146.69
  -2   5  -4 4677.73  145.49
  -2   5  -4 4663.33  147.79
   5  -3  -4 4647.73  148.89
  -3  -2  -4 4807.12  146.49
  -3  -2  -4 4532.35  147.29
   3   2   4 4550.54  149.09
   2  -5   4 4998.00  149.19
   2  -5   4 4582.64  148.79
   2  -5   4 4792.62  148.19
   3   2   4 4532.65  146.39
   2  -5   4 4851.71  148.29
   3   2   4 4586.74  147.49
  -1   4  -4 2090.79   60.99
   4  -3  -4 1902.41   62.39
   4  -3  -4 1841.02   59.09
  -3  -1  -4 1811.42   60.59
  -3  -1  -4 1893.41   59.49
  -3  -1  -4 1895.71   59.99
  -1   4  -4 1754.62   61.19
   4  -3  -4 1844.42   60.29
   1  -4   4 1929.61   61.99
   1  -4   4 1949.70   62.39
   1  -4   4 1779.82   61.99
   3   1   4 1802.82   59.49
   3   1   4 1901.21   60.89
   3   1   4 1960.10   62.29
   1  -4   4 1934.21   61.79
   0   3  -4  392.86   15.90
   0   3  -4  404.26   16.00
  -3   0  -4  413.86   13.60
   3  -3  -4  422.86   16.70
  -3   0  -4  415.56   14.00
   3  -3  -4  435.26   15.60
   3  -3  -4  443.26   15.90
   3  -3  -4  408.76   14.80
   0  -3   4  415.46   16.20
   0  -3   4  430.76   16.60
  -3   3   4  424.16   14.90
   3   0   4  428.66   15.40
   3   0   4  421.96   13.70
   0  -3   4  426.76   16.10
   0  -3   4  393.36   16.40
   1   2  -4 6145.48  197.58
   1   2  -4 5965.90  197.98
   2  -3  -4 6443.06  197.68
   2  -3  -4 6203.18  197.18
   2  -3  -4 6648.94  197.68
   1   2  -4 6344.97  198.08
  -1  -2   4 6687.83  198.28
  -1  -2   4 6563.54  197.68
  -1  -2   4 6386.36  198.38
  -1  -2   4 6320.47  197.38
   2   1  -4 2557.84   75.89
   1  -3  -4 2332.87   75.09
   1  -3  -4 2464.05   75.19
   2   1  -4 2354.86   74.89
   2   1  -4 2169.78   75.19
  -1   3   4 2377.46   75.09
   3  -2   4 2377.56   73.29
   3  -2   4 2369.86   72.69
  -2  -1   4 2497.55   75.59
  -2  -1   4 2296.47   73.89
  -1   3   4 2281.87   75.09
  -2  -1   4 2221.98   75.29
  -1   3   4 2365.46   74.89
  -1   3   4 2355.06   74.99
   3   0  -4    4.00    1.80
   0  -3  -4    1.40    1.60
   3   0  -4    4.10    2.10
  -3   3  -4    3.00    1.30
   3   0  -4    5.30    1.70
   0  -3  -4    1.70    1.40
   3  -3   4    2.10    1.40
  -3   0   4    1.90    1.90
   3  -3   4    6.10    1.60
   0   3   4    1.80    1.50
   0   3   4    0.60    1.50
   0   3   4    3.80    1.80
  -3   0   4    3.90    1.10
  -3   0   4    2.50    1.40
   4  -1  -4 4585.64  148.99
  -1  -3  -4 4590.14  148.69
   4  -1  -4 4861.51  148.39
  -3   4  -4 4643.54  147.49
  -1  -3  -4 4992.30  148.49
   1   3   4 4530.35  148.09
   1   3   4 4974.00  148.99
   1   3   4 4779.22  149.49
  -4   1   4 4836.52  146.89
   3  -4   4 4918.11  147.79
   3  -4   4 4580.54  148.79
   3  -4   4 4571.74  146.89
  -4   1   4 4721.93  148.79
  -2  -3  -4 2196.28   72.49
  -2  -3  -4 2292.87   72.59
  -3   5  -4 2195.98   71.79
   5  -2  -4 2264.97   71.89
   5  -2  -4 2236.18   73.19
  -2  -3  -4 2281.37   71.99
   3  -5   4 2183.88   71.39
   3  -5   4 2178.88   72.19
  -5   2   4 2216.78   72.59
   2   3   4 2260.47   72.89
   2   3   4 2184.88   71.79
   3  -5   4 2189.98   73.09
  -3  -3  -4    5.60    3.90
  -3  -3  -4    1.00    3.10
  -3  -3  -4    4.00    4.10
   6  -3  -4   -1.30    3.40
   6  -3  -4    1.20    3.50
  -3   6  -4    4.40    3.70
   3  -6   4    2.70    3.80
   3  -6   4   -0.30    2.70
   3   3   4    0.70    3.00
   7  -4  -4 1662.43   59.89
  -3   7  -4 1728.73   58.99
  -4  -3  -4 1717.53   58.19
   4   3   4 1692.73   57.19
   3  -7   4 1735.43   59.29
   3  -7   4 1732.03   60.49
  -4  -2  -4  395.36   16.50
  -4  -2  -4  374.46   16.40
  -2   6  -4  382.66   14.70
  -2   6  -4  387.96   17.50
   6  -4  -4  395.66   16.00
  -4  -2  -4  384.16   15.50
   6  -4  -4  375.86   16.60
   6  -4  -4  380.86   18.30
   2  -6   4  385.46   18.40
   2  -6   4  394.16   17.80
   4   2   4  374.36   15.30
   4   2   4  367.96   17.60
   5  -4  -4   15.60    2.90
   5  -4  -4   12.50    2.90
   5  -4  -4   12.00    3.90
  -1   5  -4   20.80    4.80
   5  -4  -4   15.50    3.80
  -4  -1  -4   27.30    4.20
  -1   5  -4   15.30    3.90
  -4  -1  -4   14.00    3.20
   1  -5   4   13.00    3.50
   1  -5   4   18.70    5.10
   1  -5   4    3.90    4.30
   4   1   4   13.60    3.50
   4   1   4   18.50    3.20
   4   1   4   15.00    4.50
   4  -4  -4  412.96   17.20
   4  -4  -4  390.66   15.80
   0   4  -4  390.66   16.30
  -4   0  -4  392.96   13.90
   0   4  -4  428.46   16.50
   4  -4  -4  383.16   15.20
   4  -4  -4  376.16   14.60
   0  -4   4  390.16   16.60
   0  -4   4  398.86   17.30
   4   0   4  386.16   13.10
   0  -4   4  404.26   17.20
   4   0   4  391.86   15.10
   0  -4   4  369.86   16.40
  -4   4   4  395.36   14.80
   4   0   4  381.36   16.20
   3  -4  -4 1832.32   62.39
  -4   1  -4 1892.61   58.69
   1   3  -4 1906.91   62.09
   3  -4  -4 1798.02   60.69
   3  -4  -4 2026.40   61.29
   1   3  -4 1877.21   61.69
   3  -4  -4 1904.01   61.39
  -1  -3   4 1851.61   61.39
   4  -1   4 1955.80   60.49
  -3   4   4 1934.81   60.89
  -1  -3   4 1795.12   61.99
  -1  -3   4 1808.22   62.39
  -1  -3   4 1903.71   61.59
   2  -4  -4  907.81   32.10
   2   2  -4  938.11   32.20
   2  -4  -4  903.91   32.00
   2   2  -4  920.01   32.80
   2   2  -4  938.21   33.00
  -2  -2   4  854.01   32.60
  -2   4   4  954.40   32.10
  -2  -2   4  921.51   31.30
  -2   4   4  989.50   31.50
  -2  -2   4  972.30   32.80
  -2  -2   4  934.51   31.90
   4  -2   4  911.81   29.60
  -2   4   4  950.90   31.00
   3   1  -4 5177.78  151.68
   1  -4  -4 4697.03  150.68
   1  -4  -4 4641.54  150.78
   3   1  -4 4784.52  151.18
   3   1  -4 4742.13  150.28
  -1   4   4 4829.02  150.78
   4  -3   4 4819.82  147.99
  -1   4   4 4776.52  150.78
  -3  -1   4 5014.70  151.08
  -3  -1   4 4555.94  148.49
  -3  -1   4 4755.72  150.88
  -1   4   4 4773.02  150.38
  -1   4   4 4961.40  150.98
   4  -3   4 4705.03  148.99
   0  -4  -4  627.14   24.20
  -4   4  -4  626.24   22.20
   0  -4  -4  645.34   24.30
   4   0  -4  693.43   24.70
   4   0  -4  628.24   24.40
   4   0  -4  611.94   23.20
   4  -4   4  698.63   22.60
   0   4   4  664.63   24.60
  -4   0   4  615.24   24.10
   0   4   4  686.43   24.70
   4  -4   4  655.53   21.20
  -4   0   4  612.04   23.20
   0   4   4  638.64   24.00
   4  -4   4  671.23   23.90
  -4   5  -4  139.79    7.70
   5  -1  -4  150.98    9.60
  -1  -4  -4  149.19   10.00
  -1  -4  -4  140.79    8.90
   5  -1  -4  141.49    8.20
   5  -1  -4  155.68    9.40
   1   4   4  148.29    8.80
   4  -5   4  132.69    8.70
   4  -5   4  147.59    8.70
   1   4   4  110.59    9.70
  -5   1   4  139.89    9.30
   4  -5   4  142.39    6.90
   6  -2  -4   69.69    8.80
  -2  -4  -4   82.49    7.90
   6  -2  -4   71.09    8.40
   6  -2  -4   87.79    7.10
  -4   6  -4   91.69    7.50
   2   4   4   87.39    7.70
   4  -6   4   81.69    8.40
   4  -6   4   82.89    6.50
   4  -6   4   68.39    9.60
   7  -3  -4  485.45   22.10
  -3  -4  -4  441.36   20.50
   7  -3  -4  456.45   19.10
  -4   7  -4  455.55   20.20
   4  -7   4  476.95   20.00
   3   4   4  464.55   20.30
   4  -7   4  457.45   21.80
  -4  -4  -4  150.18   13.90
  -4   8  -4  156.88   13.80
   8  -4  -4  150.08   15.50
   4  -8   4  148.19   14.20
   4   4   4  148.79   13.20
   4  -8   4  153.38   14.70
  -3   8  -4  282.87   18.20
   8  -5  -4  279.57   19.30
   3  -8   4  282.07   18.90
   3  -8   4  271.37   18.90
   7  -5  -4  326.27   18.30
  -2   7  -4  304.47   13.30
  -2   7  -4  312.47   17.20
   2  -7   4  307.17   17.70
   5   2   4  296.07   13.70
   2  -7   4  297.57   17.50
  -1   6  -4 1793.62   60.09
  -1   6  -4 1765.72   58.59
   6  -5  -4 1728.63   56.09
   6  -5  -4 1564.74   60.39
  -5  -1  -4 1763.62   57.29
   6  -5  -4 1789.42   57.59
   1  -6   4 1858.61   61.39
   5   1   4 1719.23   55.99
   5   1   4 1751.62   58.29
   1  -6   4 1756.42   60.69
  -5   0  -4  769.02   27.80
   0   5  -4  821.12   30.90
   5  -5  -4  834.62   29.20
   5  -5  -4  857.71   32.10
   5  -5  -4  763.02   30.10
   5  -5  -4  831.62   28.80
   5   0   4  844.92   26.40
   0  -5   4  863.41   31.60
   5   0   4  794.32   31.20
   5   0   4  845.52   29.10
   0  -5   4  871.71   32.30
   1   4  -4   10.30    4.10
   1   4  -4   11.70    3.30
   4  -5  -4   14.10    3.00
   4  -5  -4   15.30    4.70
   4  -5  -4   15.20    3.80
  -5   1  -4   19.90    2.80
  -1  -4   4   12.10    3.40
   5  -1   4   11.00    3.30
   5  -1   4   16.00    4.10
  -4   5   4   10.50    3.40
  -1  -4   4   13.50    3.40
   3  -5  -4 4525.05  147.39
   3  -5  -4 4703.83  147.39
   2   3  -4 4767.02  148.69
   2   3  -4 4623.64  147.59
  -2  -3   4 4663.83  148.79
   5  -2   4 4798.22  144.29
  -3   5   4 4568.24  143.99
  -2  -3   4 4542.05  148.09
  -2  -3   4 4615.94  147.29
  -3   5   4 4841.52  147.49
  -3   5   4 4648.33  143.99
  -2  -3   4 4522.95  146.69
   5  -2   4 4914.21  146.09
   2  -5  -4 2324.37   73.19
   3   2  -4 2273.97   72.49
   3   2  -4 2299.07   73.59
  -3  -2   4 2193.98   70.89
   5  -3   4 2126.49   69.99
  -2   5   4 2191.78   72.69
  -2   5   4 2088.79   71.29
  -3  -2   4 2226.38   73.29
  -2   5   4 2289.97   72.99
  -2   5   4 2243.38   71.19
  -3  -2   4 2184.68   73.29
   4   1  -4  149.99   10.70
   4   1  -4  152.48    9.60
   1  -5  -4  159.08    9.80
   4   1  -4  145.39    8.60
  -1   5   4  149.09    9.40
  -1   5   4  162.18    9.40
  -4  -1   4  148.89    6.70
  -1   5   4  148.29    9.20
  -4  -1   4  159.18   10.70
   5  -4   4  141.69    8.30
   5  -4   4  152.08    8.10
  -4  -1   4  161.88    9.40
   5  -4   4  155.28    6.90
   0  -5  -4 2998.60   94.49
   5   0  -4 2934.51   92.59
   5   0  -4 2514.25   93.69
   5   0  -4 2959.50   94.29
   5  -5   4 2995.30   91.59
   5  -5   4 2870.11   92.79
   0   5   4 2896.41   93.89
   5  -5   4 2911.81   89.79
   5  -5   4 2894.01   93.29
   6  -1  -4  524.85   20.80
  -1  -5  -4  523.85   22.80
   6  -1  -4  531.65   22.90
   5  -6   4  543.95   22.10
   5  -6   4  541.65   22.40
   1   5   4  532.35   22.30
   5  -6   4  525.55   19.30
   7  -2  -4   40.40    7.50
  -5   7  -4   41.80    8.40
   7  -2  -4   52.79    9.80
  -2  -5  -4   44.10    8.90
   5  -7   4   63.49    9.60
   5  -7   4   47.80    6.90
   2   5   4   56.59    9.00
  -3  -5  -4  829.52   34.40
   8  -3  -4  873.31   35.30
  -5   8  -4  865.21   33.50
   5  -8   4  831.52   35.20
   3   5   4  826.02   33.80
   7  -6  -4  715.03   31.30
  -1   7  -4  731.03   30.70
   1  -7   4  713.13   31.20
   1  -7   4  731.03   31.80
   6  -6  -4  299.57   13.50
   6  -6  -4  302.37   17.10
   0   6  -4  301.17   16.50
   0  -6   4  284.17   16.30
   0  -6   4  282.87   17.60
  -6   1  -4 1747.33   56.29
   1   5  -4 1746.83   60.59
   5  -6  -4 1756.62   58.89
   5  -6  -4 1753.42   61.59
  -1  -5   4 1758.92   60.59
   6  -1   4 1747.43   60.09
  -1  -5   4 1799.82   62.59
   6  -1   4 1834.82   57.79
   4  -6  -4  391.56   17.20
   2   4  -4  398.46   17.90
  -2  -4   4  379.76   17.30
   6  -2   4  384.86   16.70
   6  -2   4  392.16   14.10
  -2  -4   4  395.86   19.40
   6  -2   4  402.46   15.70
   3  -6  -4    1.90    2.90
   6  -3   4    4.20    3.50
  -3  -3   4   -0.90    3.40
   6  -3   4    3.20    2.00
  -3   6   4    0.70    1.70
   6  -3   4    6.50    2.70
  -3  -3   4    1.20    2.80
  -3   6   4    4.30    1.90
   4   2  -4   73.59    7.60
   2  -6  -4   92.19    8.70
   6  -4   4   86.69    6.60
  -2   6   4   83.19    8.30
  -2   6   4   85.99    7.20
  -4  -2   4   83.79    8.60
  -4  -2   4   79.49    6.10
  -2   6   4   80.49    7.10
   1  -6  -4  534.75   23.20
   5   1  -4  538.15   21.60
   6  -5   4  525.55   19.10
  -1   6   4  521.55   22.70
  -5  -1   4  529.55   18.00
   6  -5   4  511.95   20.80
   6  -5   4  553.94   21.30
  -1   6   4  542.55   22.50
   6   0  -4  226.98   14.10
   6   0  -4  214.98   12.20
   0  -6  -4  219.78   14.30
   6  -6   4  240.48   13.20
   0   6   4  222.08   14.00
   6  -6   4  207.68   12.90
   0   6   4  218.78   14.40
   7  -1  -4 1614.54   56.89
   7  -1  -4 1613.04   53.99
  -1  -6  -4 1573.94   57.29
   1   6   4 1625.34   56.79
   6  -7   4 1552.24   56.19
   6  -7   4 1612.64   56.39
   0   7  -4 2000.70   71.89
   7  -7  -4 2057.19   72.99
   0  -7   4 2077.79   72.89
   0  -7   4 2067.69   74.39
   6  -7  -4  701.73   27.90
   6  -7  -4  661.03   30.90
   1   6  -4  715.83   30.60
  -1  -6   4  772.32   32.80
  -1  -6   4  742.53   30.60
   5  -7  -4  295.67   18.20
   5  -7  -4  293.07   15.70
   2   5  -4  297.47   16.90
  -2  -5   4  284.67   16.20
  -2  -5   4  328.07   19.10
   4  -7  -4 1714.03   59.19
   3   4  -4 1728.73   59.19
  -3  -4   4 1633.64   57.89
   7  -3   4 1687.13   55.39
  -3  -4   4 1784.62   61.59
   3  -7  -4  445.86   21.30
   4   3  -4  428.36   20.20
   7  -4   4  453.25   17.80
  -4  -3   4  470.25   18.70
  -3   7   4  465.35   17.50
   7  -4   4  440.46   16.90
   5   2  -4   73.19    9.40
   2  -7  -4   40.90    9.80
   7  -5   4   36.20    7.10
  -2   7   4   37.80    9.50
   7  -5   4   53.69    7.10
  -2   7   4   49.20    7.80
  -5  -2   4   58.19    6.20
   6   1  -4 1567.24   55.59
   1  -7  -4 1606.14   58.39
   6   1  -4 1624.54   57.99
   7  -6   4 1581.24   55.09
  -1   7   4 1639.04   57.89
  -1   7   4 1655.73   56.89
   7  -6   4 1659.23   55.49
   0  -7  -4 1172.98   45.90
   7   0  -4 1154.58   45.10
   0   7   4 1168.48   45.60
   7  -7   4 1229.08   43.50
   0   7   4 1135.29   45.00
   3   5  -4  279.87   18.80
   5  -8  -4  294.57   20.70
   5  -8  -4  271.17   17.60
  -3  -5   4  294.07   17.40
   4   4  -4  146.69   14.10
   4  -8  -4  164.98   14.70
  -4  -4   4  149.49   12.20
   3  -8  -4  794.82   34.70
   5   3  -4  838.42   33.10
   0   0  -5 3773.82  120.99
   0   0   5 4041.30  120.39
   0   0   5 3850.81  121.09
   0   1  -5  511.55   17.30
   0   1  -5  535.15   17.70
   1  -1  -5  484.65   17.50
   1  -1  -5  486.05   17.70
  -1   0  -5  510.95   16.20
   0   1  -5  486.25   17.10
   0  -1   5  476.35   17.60
  -1   1   5  514.85   16.90
   1   0   5  523.25   17.40
   1   0   5  454.65   17.40
  -1   1   5  521.65   17.60
   0  -1   5  556.84   17.40
  -1   1   5  464.05   17.50
   1   0  -5 2812.12   92.29
   0  -1  -5 2942.21   92.79
   0  -1  -5 2919.91   91.99
  -1   1  -5 2985.20   91.29
  -1   1  -5 3009.80   91.49
   1   0  -5 3112.39   92.79
  -1   1  -5 2926.41   91.89
   0  -1  -5 2972.50   92.19
   1  -1   5 2886.91   92.29
   0   1   5 2802.12   92.69
   0   1   5 3019.30   92.19
   1  -1   5 3053.39   91.39
  -1   0   5 2791.52   92.49
  -1   0   5 3092.79   92.49
  -1   2  -5  246.88    9.60
  -1  -1  -5  252.87   10.10
  -1  -1  -5  263.97    9.50
   2  -1  -5  253.67   10.50
   2  -1  -5  261.37   10.30
  -1   2  -5  251.47    9.70
   1   1   5  252.07   10.10
   1  -2   5  261.67    9.80
   1  -2   5  262.97    9.80
  -2   1   5  236.88    9.80
  -2   1   5  273.37    8.90
   1  -2   5  250.47   10.10
  -2   1   5  248.38   10.40
   3  -2  -5 1248.48   39.10
  -2  -1  -5 1168.68   37.90
  -1   3  -5 1191.28   39.10
  -2  -1  -5 1202.28   37.90
  -2  -1  -5 1121.09   38.90
  -1   3  -5 1170.48   38.50
   3  -2  -5 1182.38   40.00
   1  -3   5 1112.39   39.20
   2   1   5 1209.08   39.10
  -3   2   5 1175.38   37.80
  -3   2   5 1180.78   37.30
   1  -3   5 1203.58   39.10
  -3   2   5 1199.08   39.70
   1  -3   5 1138.19   39.60
   1  -3   5 1216.78   39.50
   0   2  -5 1599.04   52.19
  -2   0  -5 1607.74   49.90
  -2   0  -5 1636.34   50.19
   2  -2  -5 1639.24   51.19
   2  -2  -5 1648.64   52.29
   2  -2  -5 1454.85   52.29
   0   2  -5 1709.53   52.29
   0   2  -5 1603.54   51.99
   2   0   5 1641.74   51.89
  -2   2   5 1600.44   51.49
   0  -2   5 1599.74   52.19
   0  -2   5 1591.64   52.49
   0  -2   5 1685.93   52.39
   0  -2   5 1581.04   51.89
  -2   2   5 1642.24   51.09
  -2   1  -5  259.17    8.60
   1  -2  -5  257.37   10.20
   1   1  -5  261.37   10.30
   1   1  -5  258.07   10.60
   1   1  -5  258.37   10.80
   1  -2  -5  286.07   11.00
   1  -2  -5  239.58   10.00
   1  -2  -5  261.27   10.60
  -1   2   5  248.48   10.50
  -1  -1   5  278.07   10.70
   2  -1   5  262.07    9.90
  -1   2   5  265.27   10.10
   0  -2  -5 5897.71  183.18
   2   0  -5 5587.24  183.48
   2   0  -5 6365.36  183.78
   0  -2  -5 6297.97  182.98
  -2   0   5 5776.12  183.38
   0   2   5 5328.67  183.48
   2  -2   5 6123.99  181.88
   0   2   5 6037.10  183.18
  -2   0   5 5750.23  183.18
  -2   3  -5 2825.22   92.09
  -1  -2  -5 2833.12   92.99
   3  -1  -5 3092.89   93.19
  -1  -2  -5 3000.40   92.39
   3  -1  -5 2809.72   93.39
  -3   1   5 2746.23   92.09
   1   2   5 3066.89   93.19
   1   2   5 2823.62   92.29
   2  -3   5 3047.30   92.39
   2  -3   5 2881.31   93.39
  -3   1   5 3168.08   93.69
   2  -3   5 2832.32   92.19
   2  -3   5 3111.49   92.69
  -2  -2  -5 1699.73   53.99
  -2   4  -5 1646.14   52.59
   4  -2  -5 1696.33   55.89
  -2  -2  -5 1738.23   54.29
   4  -2  -5 1669.93   54.59
  -2   4  -5 1604.04   54.39
  -2  -2  -5 1579.74   54.59
   2   2   5 1570.84   55.69
   2  -4   5 1652.43   55.59
   2   2   5 1753.52   55.09
   2  -4   5 1563.54   54.39
   2  -4   5 1761.92   54.89
   2   2   5 1632.24   53.89
   2  -4   5 1820.62   55.49
  -4   2   5 1713.83   55.39
  -4   2   5 1679.93   52.29
  -3  -2  -5    3.40    2.50
  -2   5  -5    4.30    1.90
  -3  -2  -5    9.40    2.50
  -3  -2  -5    3.30    2.40
   5  -3  -5    3.10    3.20
  -2   5  -5    1.70    2.30
   5  -3  -5    3.90    2.70
   3   2   5   -3.10    2.80
   2  -5   5   -0.90    3.70
   3   2   5    6.10    2.20
   2  -5   5    4.10    2.30
   2  -5   5    1.40    2.70
   3   2   5   -0.40    3.40
   2  -5   5    2.40    4.20
   4  -3  -5 1301.27   45.70
   4  -3  -5 1316.67   42.30
  -3  -1  -5 1368.66   43.00
   4  -3  -5 1320.47   44.00
  -3  -1  -5 1340.37   42.60
  -1   4  -5 1341.87   44.00
  -1   4  -5 1298.97   44.60
   3   1   5 1282.47   45.30
   1  -4   5 1258.07   45.20
   1  -4   5 1385.46   45.50
   3   1   5 1400.26   44.50
   1  -4   5 1385.06   45.30
   1  -4   5 1356.16   44.90
   3   1   5 1286.47   42.60
  -4   3   5 1338.57   42.30
   3  -3  -5    9.00    2.30
  -3   0  -5    7.10    1.40
   0   3  -5   17.10    3.20
   3  -3  -5    3.60    1.90
   3  -3  -5    4.60    1.40
   0   3  -5    4.90    1.90
  -3   0  -5    6.10    1.20
   3  -3  -5    4.40    2.00
   0  -3   5    2.40    1.80
  -3   3   5   10.00    1.70
   3   0   5    6.80    2.00
  -3   3   5    7.40    1.70
  -3   3   5    6.50    1.60
   0  -3   5    3.80    2.00
   0  -3   5    3.70    2.00
   2  -3  -5 1182.58   39.00
   1   2  -5 1131.79   39.50
   2  -3  -5 1180.38   39.80
   2  -3  -5 1130.49   38.50
   2  -3  -5 1224.08   39.50
   1   2  -5 1163.38   39.10
   1   2  -5 1213.38   39.70
  -2   3   5 1152.48   38.40
  -1  -2   5 1137.19   39.70
  -1  -2   5 1213.98   39.60
  -1  -2   5 1163.48   38.80
  -2   3   5 1164.88   38.40
  -1  -2   5 1206.68   39.10
   2   1  -5 2924.81   93.99
   1  -3  -5 3023.00   93.49
   1  -3  -5 2903.51   93.39
   2   1  -5 2850.11   93.19
   2   1  -5 3168.58   94.19
  -3   2  -5 2977.80   90.79
   3  -2   5 3059.69   91.09
   3  -2   5 2811.22   91.79
  -1   3   5 2961.50   93.69
  -1   3   5 2914.81   93.19
  -2  -1   5 3074.29   93.89
   3  -2   5 2881.51   91.09
  -2  -1   5 2884.41   93.79
  -2  -1   5 2897.21   92.19
   3   0  -5  493.95   18.90
  -3   3  -5  485.85   17.00
   0  -3  -5  487.75   18.70
   3   0  -5  456.45   18.90
   0  -3  -5  508.45   18.50
   3   0  -5  507.55   18.40
   3  -3   5  503.05   17.10
   0   3   5  501.05   19.30
  -3   0   5  505.55   19.00
  -3   0   5  503.35   18.50
   0   3   5  476.35   18.30
  -3   0   5  501.85   16.10
   0   3   5  521.15   19.10
   0   3   5  513.15   18.80
  -1  -3  -5  294.27   12.10
   4  -1  -5  264.77   12.60
  -1  -3  -5  252.77   11.90
  -3   4  -5  278.17   11.10
   4  -1  -5  290.27   12.30
   3  -4   5  269.27   11.30
   1   3   5  265.77   12.20
  -4   1   5  272.77   10.80
   3  -4   5  250.97   10.60
  -4   1   5  270.37   12.40
   3  -4   5  263.57   12.30
   1   3   5  262.47   12.80
   1   3   5  271.97   11.70
  -3   5  -5  939.21   33.20
   5  -2  -5 1003.90   35.00
   5  -2  -5  951.10   33.50
  -2  -3  -5 1013.20   34.00
  -2  -3  -5  951.70   33.30
  -2  -3  -5  949.31   34.00
   2   3   5  940.61   34.30
   3  -5   5  958.50   33.00
   3  -5   5  964.50   33.80
   3  -5   5  934.21   34.60
   2   3   5  935.21   33.10
  -5   2   5  955.10   34.30
  -3  -3  -5   26.80    6.60
  -3  -3  -5   30.00    6.20
   6  -3  -5   28.30    7.20
   6  -3  -5   27.90    7.30
  -3   6  -5   26.70    6.20
  -3  -3  -5   30.40    7.40
   3  -6   5   29.40    5.80
   3   3   5   33.40    5.60
   3  -6   5   25.00    6.90
   7  -4  -5  586.64   26.60
  -4  -3  -5  590.64   24.70
  -3   7  -5  591.14   25.00
   4   3   5  607.64   23.40
   3  -7   5  600.84   26.70
   3  -7   5  630.04   25.70
  -4  -2  -5  291.07   13.30
  -2   6  -5  269.17   11.50
   6  -4  -5  280.57   13.60
   6  -4  -5  254.57   14.00
   6  -4  -5  278.87   15.50
  -4  -2  -5  277.17   13.10
  -2   6  -5  285.17   14.30
  -4  -2  -5  274.77   12.30
   4   2   5  275.87   12.00
   4   2   5  254.27   14.30
   2  -6   5  271.87   15.00
   2  -6   5  266.27   14.40
  -4  -1  -5  221.88    9.80
  -4  -1  -5  216.68    9.00
  -1   5  -5  243.08   11.10
   5  -4  -5  223.58   10.90
   5  -4  -5  223.38    8.90
  -1   5  -5  221.88   11.70
   5  -4  -5  207.98   11.40
   5  -4  -5  213.88   12.60
   4   1   5  220.68   13.20
   1  -5   5  221.48   12.40
   4   1   5  214.48   11.30
   1  -5   5  244.38   12.50
   4   1   5  214.28    9.00
   0   4  -5 2750.52   87.59
   4  -4  -5 2744.23   88.69
   4  -4  -5 2781.52   87.19
   4  -4  -5 2723.23   86.79
   0   4  -5 2651.23   87.59
  -4   0  -5 2666.53   84.49
   4  -4  -5 2599.94   85.69
   0  -4   5 2643.44   88.19
   0  -4   5 2683.93   88.19
  -4   4   5 2747.33   85.89
   0  -4   5 2723.73   88.09
   0  -4   5 2831.62   88.89
   4   0   5 2773.32   86.59
   1   3  -5 1269.37   44.60
   3  -4  -5 1333.77   44.50
   3  -4  -5 1353.26   45.70
   1   3  -5 1259.87   45.00
   3  -4  -5 1316.57   43.80
   3  -4  -5 1336.57   44.50
  -1  -3   5 1271.07   45.50
  -3   4   5 1330.37   42.10
  -3   4   5 1329.77   43.80
   4  -1   5 1364.26   43.80
  -3   4   5 1362.06   42.00
  -1  -3   5 1323.57   44.60
  -1  -3   5 1375.06   45.40
   2  -4  -5 1610.44   54.39
   2   2  -5 1612.04   54.59
   2   2  -5 1624.34   55.39
   2   2  -5 1635.14   55.39
   2  -4  -5 1651.03   54.69
  -2  -2   5 1622.64   55.49
  -2   4   5 1741.63   53.69
  -2  -2   5 1637.84   53.69
  -2  -2   5 1631.44   55.19
  -2   4   5 1755.82   54.69
  -2   4   5 1729.53   54.09
   3   1  -5  279.17   12.80
   1  -4  -5  289.67   12.50
   3   1  -5  265.57   12.00
   3   1  -5  293.87   13.20
   1  -4  -5  265.27   12.40
   4  -3   5  275.97   10.40
  -3  -1   5  258.87   10.30
   4  -3   5  279.37   10.00
  -1   4   5  275.37   12.30
  -3  -1   5  283.27   13.00
  -3  -1   5  270.97   12.50
  -1   4   5  288.37   12.20
  -1   4   5  259.07   12.20
   4  -3   5  277.57    9.60
  -1   4   5  272.77   12.40
   0  -4  -5  581.84   22.10
   0  -4  -5  548.75   22.10
   4   0  -5  586.04   22.60
   4   0  -5  577.04   21.40
   4   0  -5  606.54   22.60
  -4   4  -5  588.44   20.00
  -4   0   5  562.44   21.30
   0   4   5  582.74   22.00
   4  -4   5  558.54   21.80
  -4   0   5  589.14   22.40
   0   4   5  555.84   22.70
   0   4   5  588.84   22.50
   4  -4   5  554.74   19.40
   5  -1  -5    2.90    3.50
   5  -1  -5    1.20    3.00
  -1  -4  -5    1.70    2.50
  -4   5  -5    4.90    2.40
  -1  -4  -5    7.30    4.40
   5  -1  -5    0.60    2.60
  -5   1   5    0.70    3.70
   4  -5   5    0.80    1.80
   4  -5   5    3.40    3.10
   4  -5   5    2.20    2.70
   6  -2  -5 1374.66   45.70
   6  -2  -5 1361.96   47.80
  -4   6  -5 1310.67   45.50
  -2  -4  -5 1320.27   46.80
   6  -2  -5 1317.87   46.50
   2   4   5 1356.26   46.20
   4  -6   5 1285.47   47.10
   4  -6   5 1362.86   45.10
   7  -3  -5 1063.79   40.50
   7  -3  -5 1082.69   37.90
  -3  -4  -5 1027.70   39.00
  -4   7  -5 1044.00   38.50
   3   4   5 1058.49   38.30
   4  -7   5 1045.90   40.30
   4  -7   5 1085.49   38.30
  -4  -4  -5  373.66   19.60
  -4   8  -5  364.86   19.40
   8  -4  -5  338.67   21.60
   4   4   5  342.27   18.20
   4  -8   5  320.57   20.70
   4  -8   5  359.96   20.10
  -3   8  -5  201.48   16.20
   8  -5  -5  216.58   18.20
   3  -8   5  197.48   17.10
   3  -8   5  241.78   17.80
  -2   7  -5   22.10    6.50
   7  -5  -5   17.50    7.20
  -2   7  -5   30.40    6.70
   2  -7   5   28.50    6.30
   5   2   5   31.30    6.00
   2  -7   5   36.80    9.50
   6  -5  -5  453.35   19.20
   6  -5  -5  464.75   21.60
  -1   6  -5  438.66   20.30
  -5  -1  -5  457.25   17.70
   6  -5  -5  470.65   16.70
  -1   6  -5  446.46   19.20
   5   1   5  439.46   19.80
   1  -6   5  437.26   20.80
   1  -6   5  471.55   21.40
   5   1   5  454.35   16.20
   5  -5  -5 1936.81   61.49
   0   5  -5 1878.11   62.59
   5  -5  -5 1807.72   60.19
  -5   0  -5 1828.22   58.89
   0   5  -5 1909.81   62.89
   5  -5  -5 1843.82   63.89
   5   0   5 1712.83   62.79
   0  -5   5 1966.90   64.39
   0  -5   5 1836.72   63.19
   5   0   5 1889.91   61.19
   1   4  -5  228.88   11.90
   4  -5  -5  213.88   12.50
   4  -5  -5  214.08   12.40
   4  -5  -5  219.48   10.60
   4  -5  -5  230.58   11.60
  -1  -4   5  219.08   12.60
  -4   5   5  238.08   11.20
  -1  -4   5  210.98   11.50
   5  -1   5  229.98   10.70
   5  -1   5  207.98   11.40
   2   3  -5    3.50    3.70
   3  -5  -5    2.00    2.30
   3  -5  -5    1.10    4.00
   2   3  -5    3.00    2.40
  -3   5   5    0.30    1.50
  -3   5   5    4.40    1.50
  -3   5   5    2.20    3.10
  -2  -3   5    2.00    3.70
  -2  -3   5   -1.00    2.60
  -2  -3   5   -0.40    4.10
   5  -2   5    0.40    2.70
  -2  -3   5   -0.10    2.10
   2  -5  -5  962.50   34.60
   3   2  -5  966.60   34.40
   3   2  -5  969.60   35.30
  -2   5   5  968.50   33.20
  -2   5   5  969.70   33.60
  -3  -2   5  985.10   35.30
  -3  -2   5  922.51   35.10
  -2   5   5  958.80   34.70
  -3  -2   5  950.10   32.70
   5  -3   5 1035.50   31.40
   4   1  -5    3.30    2.80
   4   1  -5   -2.40    2.80
   1  -5  -5    0.50    2.50
   4   1  -5   -3.70    4.00
   5  -4   5    5.90    2.30
   5  -4   5   -2.50    2.40
   5  -4   5    2.00    1.50
  -1   5   5   -2.10    2.40
  -1   5   5    2.10    2.90
  -4  -1   5    1.30    1.50
   5  -4   5    0.20    1.60
  -4  -1   5    3.40    2.80
  -1   5   5   -0.50    2.80
  -4  -1   5   -3.90    4.30
   0  -5  -5  883.41   33.50
   5   0  -5  917.91   33.90
   5   0  -5  900.81   32.20
   5  -5   5  916.31   29.40
   5  -5   5  928.31   30.80
   5  -5   5  874.21   32.60
   0   5   5  872.51   33.80
   0   5   5  883.51   33.00
   5  -5   5  890.81   31.80
  -1  -5  -5  734.93   28.60
   6  -1  -5  703.13   26.80
  -5   6  -5  736.93   26.30
   5  -6   5  693.33   27.20
   1   5   5  733.03   28.20
   5  -6   5  691.33   25.00
   5  -6   5  716.83   28.30
  -2  -5  -5  240.08   15.10
  -5   7  -5  253.17   14.00
   7  -2  -5  263.67   16.00
   7  -2  -5  233.28   13.50
   2   5   5  235.18   14.60
   5  -7   5  244.48   12.60
   5  -7   5  244.98   15.70
   8  -3  -5  136.89   15.90
  -3  -5  -5  170.28   15.10
  -5   8  -5  165.48   14.40
   3   5   5  148.99   14.10
   5  -8   5  163.18   15.60
   7  -6  -5  326.57   19.80
  -1   7  -5  329.47   19.20
   1  -7   5  349.17   19.80
   1  -7   5  317.47   20.20
   0   6  -5  531.45   23.30
   6  -6  -5  522.05   24.30
   6  -6  -5  517.75   20.20
   0  -6   5  476.65   23.00
   0  -6   5  529.15   24.80
   5  -6  -5  463.45   21.40
   1   5  -5  438.86   20.20
   5  -6  -5  451.15   18.40
   6  -1   5  479.95   18.50
  -1  -5   5  436.96   21.50
   6  -1   5  451.65   20.60
  -1  -5   5  449.66   20.20
  -5   6   5  369.36   18.80
   4  -6  -5  267.97   13.70
   2   4  -5  293.27   14.80
   4  -6  -5  258.87   15.50
   6  -2   5  270.77   13.70
  -2  -4   5  285.27   14.10
  -2  -4   5  302.77   16.10
   6  -2   5  294.07   13.50
   3  -6  -5   33.60    6.10
   3   3  -5   33.30    6.60
   6  -3   5   26.10    5.10
  -3  -3   5   27.80    5.50
  -3   6   5   28.10    4.30
  -3   6   5   27.40    4.00
  -3  -3   5   32.30    7.30
   4   2  -5 1331.77   47.90
   4   2  -5 1352.66   46.60
   2  -6  -5 1305.17   47.30
  -2   6   5 1391.06   45.50
  -4  -2   5 1319.57   44.00
  -4  -2   5 1316.77   47.40
  -2   6   5 1374.06   45.80
   6  -4   5 1314.97   43.50
   6  -4   5 1342.47   45.50
   1  -6  -5  761.12   29.50
   5   1  -5  705.33   27.70
   5   1  -5  721.63   29.20
   6  -5   5  718.13   27.40
   6  -5   5  709.83   25.90
  -1   6   5  695.13   28.60
  -1   6   5  770.92   28.80
   6  -5   5  708.33   26.20
   6   0  -5  598.94   23.70
   0  -6  -5  570.74   25.50
   6   0  -5  587.74   25.60
   6  -6   5  595.04   24.40
   0   6   5  553.84   24.80
   0   6   5  625.94   26.10
   6  -6   5  530.15   23.10
  -1  -6  -5   38.40   10.40
   7  -1  -5   19.80    6.80
   7  -1  -5   25.10    6.10
   6  -7   5   10.70    6.00
   1   6   5   10.60    6.10
   6  -7   5   18.10    6.90
   1   6   5   16.50    7.40
   0   7  -5   64.39   14.00
   7  -7  -5   68.49   15.50
   0  -7   5   81.79   15.60
   0  -7   5   74.19   14.50
   1   6  -5  315.07   18.80
   6  -7  -5  316.87   16.20
   6  -7  -5  320.27   19.90
  -1  -6   5  316.27   20.60
  -1  -6   5  341.27   19.10
   2   5  -5   28.00    6.90
   5  -7  -5   32.60    8.20
   5  -7  -5   48.70   11.10
  -2  -5   5   27.70    6.20
  -2  -5   5   48.10   11.30
   4  -7  -5  611.84   25.00
   3   4  -5  604.74   25.20
  -3  -4   5  497.35   23.30
  -3  -4   5  619.14   27.20
   4   3  -5 1077.99   40.00
   3  -7  -5 1097.99   40.70
  -4  -3   5 1051.29   37.50
  -4  -3   5 1085.09   41.70
   7  -4   5 1145.89   37.60
  -3   7   5 1027.00   36.20
   2  -7  -5  220.98   15.20
   5   2  -5  239.38   14.50
  -2   7   5  246.18   13.80
   7  -5   5  235.78   13.00
   1  -7  -5   10.40    5.90
   6   1  -5   12.70    5.60
   6   1  -5   14.80    6.70
  -1   7   5   43.30   11.00
   7  -6   5   22.30    6.00
  -1   7   5   34.10    9.90
   7   0  -5  436.36   23.60
   0  -7  -5  376.46   22.60
   7   0  -5  420.96   27.20
   0   7   5  392.16   23.10
   7  -7   5  410.96   21.40
   0   7   5  395.76   22.50
   5  -8  -5  202.58   15.80
   5  -8  -5  200.18   18.80
   3   5  -5  211.58   17.20
  -3  -5   5  230.48   15.90
   4   4  -5  356.56   20.50
   4  -8  -5  382.66   21.00
  -4  -4   5  375.16   18.30
   3  -8  -5  145.69   15.40
   5   3  -5  152.88   14.80
   0   0  -6  460.85   16.20
   0   0  -6  439.26   15.30
   0   0   6  453.35   16.30
   0   0   6  426.76   15.30
   1  -1  -6   50.49    3.80
   1  -1  -6   41.20    3.40
  -1   0  -6   44.60    2.40
   0   1  -6   49.10    3.20
   0   1  -6   43.70    3.50
   0  -1   6   49.20    3.70
  -1   1   6   41.20    3.50
  -1   1   6   45.50    3.50
   1   0   6   46.30    3.40
  -1   1   6   44.30    2.90
   1   0   6   44.00    3.50
   0  -1   6   47.40    3.30
   1   0  -6 1452.45   48.40
   0  -1  -6 1609.44   49.20
  -1   1  -6 1542.85   48.20
   1   0  -6 1652.03   49.10
   0  -1  -6 1484.55   48.00
  -1   1  -6 1445.66   47.20
  -1   1  -6 1473.45   47.50
  -1   0   6 1433.16   48.80
   1  -1   6 1539.25   47.40
  -1   0   6 1552.34   48.60
   0   1   6 1485.55   48.20
   1  -1   6 1388.16   48.40
   2  -1  -6   26.40    3.30
   2  -1  -6   23.30    3.20
  -1  -1  -6   22.20    2.60
  -1   2  -6   24.90    2.60
  -1   2  -6   22.10    2.60
  -1  -1  -6   25.80    2.40
   1   1   6   30.70    3.10
  -2   1   6   31.70    2.10
   1  -2   6   25.10    2.60
   1   1   6   19.40    2.90
  -2   1   6   27.80    3.00
   1  -2   6   23.70    2.90
  -1   3  -6  256.47   10.50
  -1   3  -6  244.38   10.80
   3  -2  -6  270.37   11.90
   3  -2  -6  263.47   11.20
  -2  -1  -6  265.87    9.80
   1  -3   6  248.98   11.50
   2   1   6  267.07   11.20
  -3   2   6  267.07   10.20
   1  -3   6  243.58   11.10
  -3   2   6  282.37    9.40
   1  -3   6  259.47   11.20
   1  -3   6  258.27   11.00
  -3   2   6  243.18   11.40
   2  -2  -6    4.30    1.30
   0   2  -6    3.40    1.70
  -2   0  -6    3.90    0.90
   0   2  -6    2.50    1.40
   0   2  -6    3.70    1.50
   2  -2  -6    4.20    1.70
   2  -2  -6    2.10    1.40
  -2   2   6    2.70    1.30
   0  -2   6    3.40    1.60
   2   0   6    5.40    1.60
   0  -2   6    6.80    1.70
   1   1  -6   25.30    3.30
   1  -2  -6   32.50    2.80
   1   1  -6   27.20    3.00
   1  -2  -6   25.80    3.00
  -2   1  -6   25.70    1.70
   1   1  -6   22.70    3.10
   1  -2  -6   20.90    3.20
   1  -2  -6   21.70    3.00
  -1   2   6   30.70    2.80
  -1  -1   6   33.70    3.50
  -1  -1   6   19.40    3.00
  -1   2   6   24.10    3.10
   2  -1   6   23.60    2.60
   0  -2  -6 1684.13   51.89
  -2   2  -6 1632.24   50.79
   2   0  -6 1566.24   52.49
   2   0  -6 1718.43   52.79
   0  -2  -6 1529.35   51.99
   2  -2   6 1650.83   50.69
   0   2   6 1639.94   52.09
   2  -2   6 1499.45   51.49
   0   2   6 1585.74   52.79
  -2   0   6 1719.43   52.69
  -2   0   6 1472.65   52.09
  -2   3  -6 2863.21   91.69
  -2   3  -6 2895.41   93.09
   3  -1  -6 3243.48   94.59
  -1  -2  -6 3081.39   93.39
   3  -1  -6 2805.52   94.49
  -1  -2  -6 2831.22   93.99
   2  -3   6 2906.51   93.59
  -3   1   6 2911.21   93.49
   2  -3   6 3138.99   93.59
   1   2   6 3019.20   94.19
  -3   1   6 2977.50   94.59
   2  -3   6 3032.10   93.29
  -3   1   6 2878.91   91.39
   4  -2  -6  945.71   33.00
  -2  -2  -6  916.21   32.90
   4  -2  -6  960.30   34.10
  -2   4  -6  955.70   32.50
  -2   4  -6  953.90   30.80
  -2  -2  -6  985.80   32.10
   2  -4   6  915.31   33.60
  -4   2   6  945.61   33.60
   2  -4   6  970.90   32.80
   2   2   6  925.11   31.90
   2  -4   6  910.31   32.70
   2   2   6  922.91   33.10
   2   2   6  987.40   34.40
  -4   2   6  981.50   31.10
   2  -4   6  993.10   33.30
   5  -3  -6  203.08   11.70
   5  -3  -6  188.58   10.40
  -3  -2  -6  194.68    9.20
  -3  -2  -6  207.58   10.50
  -3  -2  -6  200.28    9.60
  -2   5  -6  201.38    8.60
  -2   5  -6  186.38   10.20
   2  -5   6  202.98   12.40
   3   2   6  173.78   12.10
   3   2   6  196.08    9.20
   2  -5   6  193.48   11.50
   2  -5   6  192.38   11.30
   3   2   6  190.58   11.30
   2  -5   6  209.68   10.80
   4  -3  -6  719.03   27.40
  -1   4  -6  706.43   25.50
  -3  -1  -6  734.93   24.40
   4  -3  -6  732.13   24.00
   4  -3  -6  786.62   26.30
  -1   4  -6  708.73   26.30
  -3  -1  -6  729.33   24.20
   1  -4   6  729.53   26.50
   1  -4   6  690.93   26.70
   3   1   6  727.73   26.10
  -4   3   6  728.43   24.00
   1  -4   6  743.03   27.00
   1  -4   6  716.43   27.10
   3  -3  -6    4.40    2.00
  -3   0  -6    6.00    1.30
   3  -3  -6    4.60    2.40
   3  -3  -6    4.40    1.50
   0   3  -6    4.50    2.20
   0   3  -6    5.00    2.30
   3   0   6    7.70    2.20
   0  -3   6    4.40    2.20
   0  -3   6    4.00    2.10
   0  -3   6    9.90    2.90
  -3   3   6    5.90    1.60
   1   2  -6  269.67   11.70
   2  -3  -6  251.17   11.60
   2  -3  -6  264.97   11.10
   1   2  -6  266.27   11.60
   2  -3  -6  257.67   10.60
   1   2  -6  251.37   11.10
   2  -3  -6  248.48   11.40
  -1  -2   6  255.67   11.50
  -1  -2   6  248.18   11.60
  -2   3   6  247.08   10.60
  -1  -2   6  249.08   10.80
  -2   3   6  262.07   10.50
   2   1  -6 2892.31   93.49
   1  -3  -6 2862.71   93.39
   2   1  -6 2975.30   94.29
   1  -3  -6 3008.40   93.59
  -3   2  -6 2949.21   90.89
   2   1  -6 2957.30   94.29
   3  -2   6 2848.22   92.29
  -1   3   6 3057.69   93.59
  -2  -1   6 2899.71   92.39
  -2  -1   6 2836.92   94.09
  -2  -1   6 3175.38   94.29
  -1   3   6 2949.00   93.99
   0  -3  -6   30.30    3.80
   0  -3  -6   36.90    4.30
   3   0  -6   40.10    4.70
  -3   3  -6   32.70    2.90
   3   0  -6   34.00    4.00
   3   0  -6   32.40    4.50
  -3   0   6   35.10    4.00
   3  -3   6   34.10    3.20
   0   3   6   38.40    4.50
  -3   0   6   36.70    2.40
  -3   0   6   37.90    5.00
   0   3   6   35.10    4.50
   0   3   6   25.90    4.30
   3  -3   6   31.80    3.00
   3  -3   6   33.40    3.20
  -1  -3  -6   12.80    3.20
  -1  -3  -6    8.50    2.30
  -3   4  -6    8.50    2.20
   4  -1  -6   11.70    3.10
   4  -1  -6   11.40    3.20
  -4   1   6   10.40    2.40
   3  -4   6   15.60    4.10
   1   3   6   21.00    4.90
   3  -4   6   10.60    3.00
   1   3   6   16.00    3.50
  -4   1   6   19.10    4.70
   3  -4   6   12.60    3.30
   1   3   6   12.00    3.10
   3  -4   6   11.70    2.70
  -2  -3  -6   56.99    6.40
  -2  -3  -6   42.50    6.20
  -2  -3  -6   49.80    5.80
   5  -2  -6   47.80    6.70
  -3   5  -6   47.20    5.40
   2   3   6   50.99    7.40
   3  -5   6   53.09    7.50
   3  -5   6   45.70    6.70
   3  -5   6   53.49    6.40
  -5   2   6   71.89    7.80
   2   3   6   56.69    5.40
   3  -5   6   42.50    5.00
  -3   6  -6   37.30    6.90
  -3  -3  -6   30.60    7.10
  -3  -3  -6   45.90    7.70
   6  -3  -6   42.00    8.50
   6  -3  -6   41.30    7.90
  -3  -3  -6   41.40    6.70
   3  -6   6   38.80    6.60
   3   3   6   35.40    6.00
   3  -6   6   48.50    7.70
   7  -4  -6  286.57   17.70
  -4  -3  -6  257.17   15.20
  -3   7  -6  273.87   15.80
   3  -7   6  287.97   16.20
   3  -7   6  302.77   17.60
   4   3   6  291.17   14.00
  -2   6  -6    0.30    2.70
  -4  -2  -6    2.90    3.90
   6  -4  -6   -2.40    4.10
  -2   6  -6    8.20    4.00
   6  -4  -6   -0.70    4.40
  -4  -2  -6    4.90    3.40
   4   2   6   17.10    4.40
   2  -6   6    5.50    4.10
   2  -6   6    4.80    3.60
  -1   5  -6   48.70    6.00
   5  -4  -6   26.60    6.40
  -4  -1  -6   32.30    3.60
   5  -4  -6   36.30    7.30
  -4  -1  -6   35.70    4.20
   5  -4  -6   32.10    3.60
   5  -4  -6   38.60    6.20
  -1   5  -6   34.30    5.60
   1  -5   6   37.30    6.00
   4   1   6   43.90    6.70
   1  -5   6   38.20    6.40
   4   1   6   39.20    8.00
   4  -4  -6  733.13   28.10
   4  -4  -6  718.63   26.80
   4  -4  -6  753.72   26.80
   4  -4  -6  731.83   25.30
   0   4  -6  742.33   27.20
   0   4  -6  749.62   27.30
  -4   0  -6  767.22   23.50
   0  -4   6  690.83   27.50
   0  -4   6  717.83   27.40
   0  -4   6  694.53   27.70
   4   0   6  744.63   26.40
   0  -4   6  683.83   27.70
  -4   4   6  760.72   25.40
   3  -4  -6  704.13   26.10
   1   3  -6  704.93   26.20
   3  -4  -6  719.13   26.30
   1   3  -6  786.22   27.10
   3  -4  -6  732.13   27.10
   3  -4  -6  705.53   25.20
  -1  -3   6  667.93   26.80
  -1  -3   6  695.13   26.10
  -3   4   6  740.63   25.40
  -3   4   6  718.13   23.90
  -1  -3   6  701.03   25.90
   4  -1   6  743.83   25.60
  -3   4   6  707.53   24.10
  -1  -3   6  692.23   26.60
   2   2  -6 1006.30   34.40
   2   2  -6  963.40   33.30
   2   2  -6  942.11   33.90
   2  -4  -6  901.11   32.80
   2  -4  -6  945.81   33.30
  -2   4   6  967.80   32.30
  -2  -2   6  961.80   32.30
  -2  -2   6  948.71   34.00
  -2   4   6  976.20   33.00
  -2   4   6  903.01   32.50
  -2  -2   6  935.61   33.80
   3   1  -6    9.70    2.70
   3   1  -6   18.20    5.20
   3   1  -6   15.10    3.60
   1  -4  -6   10.90    3.00
  -1   4   6   10.30    3.20
  -3  -1   6   14.50    4.00
   4  -3   6   14.00    2.40
   4  -3   6   10.30    2.30
  -3  -1   6    7.60    3.40
  -3  -1   6   13.10    2.50
   4  -3   6   14.90    2.50
  -1   4   6   10.30    2.70
   0  -4  -6    0.10    2.90
  -4   4  -6    6.00    2.00
   0  -4  -6    0.30    2.00
   4   0  -6    3.50    3.20
   4  -4   6    4.70    2.60
   0   4   6    3.20    2.80
   0   4   6    2.70    2.20
  -4   0   6    6.10    3.40
   0   4   6    4.00    2.90
   4  -4   6    6.40    2.20
   4  -4   6    5.80    1.70
  -4   0   6    4.30    2.50
  -4   5  -6    3.60    2.40
   5  -1  -6    1.70    3.30
  -1  -4  -6    9.80    4.80
   5  -1  -6    2.70    3.00
  -1  -4  -6   -2.90    2.30
   5  -1  -6   -1.80    3.60
   4  -5   6    3.70    3.10
   4  -5   6   -4.30    2.50
  -5   1   6    4.60    2.40
   4  -5   6    3.00    3.60
  -5   1   6    4.40    4.20
   4  -5   6    2.40    1.90
   1   4   6    1.10    2.70
  -4   6  -6  444.06   18.20
   6  -2  -6  392.36   20.00
  -2  -4  -6  464.65   19.80
   6  -2  -6  467.35   19.00
   4  -6   6  428.66   20.00
   4  -6   6  423.76   17.80
   2   4   6  462.95   19.00
  -4   7  -6 1369.16   49.20
   7  -3  -6 1412.96   51.89
  -3  -4  -6 1420.26   50.39
   4  -7   6 1458.75   51.99
   4  -7   6 1424.36   49.50
   3   4   6 1405.76   49.20
   7  -5  -6   15.50    7.00
  -2   7  -6   21.80    6.50
   2  -7   6   23.30    6.10
   2  -7   6   18.60    6.10
   6  -5  -6   47.60    5.00
  -1   6  -6   39.60    8.20
  -1   6  -6   57.29    8.40
   6  -5  -6   34.30    7.20
   6  -5  -6   53.99    9.50
   1  -6   6   40.20    8.50
   1  -6   6   53.19    8.60
   5  -5  -6 2291.57   73.39
   5  -5  -6 2437.76   77.69
  -5   0  -6 2267.07   71.29
   0   5  -6 2313.87   76.09
   5  -5  -6 2347.36   75.09
  -5   5   6 2347.57   73.69
   5   0   6 1948.91   75.59
   5   0   6 2256.57   74.59
   0  -5   6 2388.86   77.59
   1   4  -6   35.10    5.90
   4  -5  -6   44.50    7.10
   4  -5  -6   37.70    4.90
  -1  -4   6   46.50    6.70
  -4   5   6   37.30    5.90
   5  -1   6   38.50    6.20
  -1  -4   6   35.50    6.20
   3  -5  -6  189.68   10.30
   3  -5  -6  212.68   12.10
   2   3  -6  196.28   10.90
  -2  -3   6  200.38   11.90
  -3   5   6  203.68    8.60
  -3   5   6  198.08    8.80
  -3   5   6  201.48   10.80
  -2  -3   6  185.08   10.10
   5  -2   6  199.88   10.60
   3   2  -6   56.09    6.20
   2  -5  -6   52.29    6.00
   3   2  -6   46.50    6.50
  -2   5   6   55.29    5.80
  -2   5   6   54.59    5.50
  -3  -2   6   57.49    6.80
  -3  -2   6   51.49    4.90
   4   1  -6    1.30    2.80
   4   1  -6    0.70    3.20
   5  -4   6    6.60    2.10
  -4  -1   6   -1.30    2.80
   5  -4   6    2.50    1.60
  -1   5   6    4.00    3.20
  -1   5   6    3.40    2.90
   5  -4   6    2.30    2.80
  -4  -1   6    1.40    1.60
   5   0  -6  535.65   22.30
   5   0  -6  500.75   20.50
   0  -5  -6  487.25   21.30
   5  -5   6  494.35   17.80
   5  -5   6  497.75   20.80
   5  -5   6  486.85   18.60
  -5   0   6  517.85   20.00
   6  -1  -6  929.41   33.30
  -5   6  -6  916.61   31.90
  -1  -5  -6  907.71   34.70
   6  -1  -6  928.91   35.40
   5  -6   6  885.71   34.20
   5  -6   6  850.21   32.60
   1   5   6  899.21   35.80
   5  -6   6  899.41   31.10
   1   5   6  913.21   34.00
   7  -2  -6   22.70    6.40
   7  -2  -6   14.10    5.70
  -2  -5  -6   12.00    5.60
  -5   7  -6   16.60    5.50
   5  -7   6   17.70    6.20
   5  -7   6   13.80    4.50
   2   5   6   10.30    5.50
  -1   7  -6   31.60    8.10
   7  -6  -6   41.40    9.00
   1  -7   6   21.20    7.00
   1  -7   6   55.89   12.50
   6  -6  -6  513.75   19.90
   0   6  -6  481.45   22.70
   6  -6  -6  513.75   24.70
   0  -6   6  517.75   23.40
   0  -6   6  484.25   24.40
   1   5  -6   35.90    7.60
   5  -6  -6   43.60    8.80
   5  -6  -6   41.70    6.60
  -1  -5   6   39.20    7.70
  -1  -5   6   53.59    9.50
   6  -1   6   30.80    8.40
   4  -6  -6    6.30    3.60
   2   4  -6   -4.20    4.00
   4  -6  -6    3.30    4.20
   6  -2   6   -0.20    4.60
  -2  -4   6   -0.60    3.80
   6  -2   6    3.40    4.70
  -2  -4   6   10.20    3.90
   3  -6  -6   45.80    6.70
   3   3  -6   40.10    7.30
  -3   6   6   45.90    5.10
  -3   6   6   43.90    5.20
  -3  -3   6   38.30    5.80
  -3  -3   6   41.10    8.20
   6  -3   6   33.30    6.00
   4   2  -6  368.46   18.80
   2  -6  -6  459.25   20.20
   4   2  -6  478.35   21.00
   6  -4   6  452.35   16.10
   6  -4   6  425.26   15.30
  -2   6   6  439.56   18.80
  -4  -2   6  457.75   20.70
  -2   6   6  446.76   18.50
  -4  -2   6  438.56   16.80
   6  -4   6  460.05   18.70
   1  -6  -6  922.91   34.70
   5   1  -6  773.52   32.60
   5   1  -6  905.71   34.90
  -5  -1   6  908.81   33.50
   6  -5   6  929.31   29.30
  -1   6   6  906.21   34.10
   6  -5   6  894.41   33.00
   6  -5   6  892.71   30.90
   6   0  -6  462.75   21.90
   6   0  -6  442.46   19.80
   0  -6  -6  418.06   21.10
   0   6   6  430.66   20.90
   6  -6   6  448.06   20.50
   0   6   6  463.85   22.10
   6  -6   6  427.66   19.00
  -1  -6  -6   98.59   12.40
   7  -1  -6   66.99   10.80
   7  -1  -6   79.79   12.40
   1   6   6   89.49   11.80
   6  -7   6   79.09   12.20
   6  -7   6   58.19   11.40
   1   6   6   97.19   13.80
   6  -7  -6   57.39    9.40
   6  -7  -6   37.20    8.60
   1   6  -6   29.30    7.70
  -1  -6   6   53.49   11.70
  -1  -6   6   43.20   13.40
   5  -7  -6   31.30    8.30
   2   5  -6   14.90    5.60
   5  -7  -6   26.60    7.60
  -2  -5   6   16.60    7.30
  -2  -5   6   21.00    6.10
   4  -7  -6  301.57   18.50
   3   4  -6  299.87   16.90
   4  -7  -6  294.57   16.30
  -3  -4   6  303.37   15.50
  -3  -4   6  304.27   18.60
   4   3  -6 1477.45   51.79
   3  -7  -6 1481.15   52.19
  -4  -3   6 1531.45   53.39
   7  -4   6 1421.36   49.30
  -4  -3   6 1453.85   48.90
  -3   7   6 1345.57   48.00
   2  -7  -6   20.20    5.80
   5   2  -6   15.50    6.10
   7  -5   6    7.90    5.00
  -2   7   6   17.60    5.20
   6   1  -6   63.89   12.50
   1  -7  -6   86.39   12.10
   6   1  -6   91.69   11.70
   7  -6   6   86.69   11.10
  -1   7   6  101.59   12.10
   0   0  -7  151.08    7.40
   0   0  -7  146.39    6.50
   0   0   7  153.58    6.50
   0   0   7  142.59    7.30
   1  -1  -7  490.45   17.70
   0   1  -7  467.25   17.10
   0   1  -7  492.45   17.40
   0   1  -7  482.25   17.90
  -1   0  -7  489.65   16.30
   1   0   7  497.45   17.60
  -1   1   7  518.35   17.10
  -1   1   7  505.25   17.80
   1   0   7  464.15   17.90
   0  -1   7  511.65   17.40
  -1   1   7  489.95   18.10
   0  -1   7  442.26   17.90
  -1   1  -7   38.10    3.10
  -1   1  -7   33.50    2.40
   1   0  -7   31.60    3.50
   0  -1  -7   22.30    3.30
  -1   1  -7   30.90    2.60
   1   0  -7   29.80    3.10
   0  -1  -7   28.50    2.70
   0   1   7   34.70    3.50
   0   1   7   32.10    3.10
  -1   0   7   35.90    3.50
   1  -1   7   28.70    2.50
  -1   0   7   24.40    3.00
   1  -1   7   28.20    3.10
  -1   2  -7  234.28    9.50
  -1   2  -7  225.48    9.40
   2  -1  -7  214.28   10.20
  -1  -1  -7  229.48    9.20
   2  -1  -7  259.97   10.70
  -1  -1  -7  238.48    9.10
  -1   2  -7  239.58    9.70
   1  -2   7  211.48   10.00
  -2   1   7  248.98   10.50
  -2   1   7  238.38    8.80
   1  -2   7  234.78    9.60
  -2   1   7  223.28   10.00
   1   1   7  252.77   10.30
   1   1   7  223.38   10.50
  -2  -1  -7  245.48    9.30
   3  -2  -7  233.48   11.30
   3  -2  -7  237.28   10.90
  -1   3  -7  243.48   10.20
  -1   3  -7  231.98   10.40
   1  -3   7  221.58   10.90
   1  -3   7  241.68   10.70
   1  -3   7  226.48   10.30
   1  -3   7  220.38   10.60
  -3   2   7  238.08    9.90
  -3   2   7  247.48   11.40
   2   1   7  248.18   10.80
  -3   2   7  234.48    8.80
   0   2  -7 6796.42  195.68
   2  -2  -7 6793.72  196.28
   0   2  -7 5965.50  195.08
   0   2  -7 5992.00  195.28
   2  -2  -7 6323.77  195.98
   2  -2  -7 6136.09  194.28
   0  -2   7 6501.25  195.48
   0  -2   7 5918.41  195.88
   2   0   7 5886.41  195.48
  -2   2   7 6017.60  195.18
   2   0   7 6573.64  195.48
  -2   2   7 6551.84  194.38
   1   1  -7  234.58   10.40
  -2   1  -7  224.18    8.10
   1  -2  -7  224.28   10.50
   1  -2  -7  207.58    9.80
   1   1  -7  214.78    9.60
   1  -2  -7  226.48    9.50
   1   1  -7  221.48   10.00
   2  -1   7  216.48    9.60
  -1  -1   7  237.88   10.50
  -1   2   7  244.18    9.60
  -1  -1   7  252.37   10.30
  -1   2   7  219.08   10.20
   3  -1  -7  348.57   14.70
  -1  -2  -7  364.96   13.80
  -1  -2  -7  351.16   14.40
   3  -1  -7  352.96   15.00
  -2   3  -7  343.47   12.40
  -2   3  -7  349.96   13.50
   1   2   7  364.26   15.30
   1   2   7  366.06   14.70
  -3   1   7  341.07   13.90
   2  -3   7  357.46   14.10
  -3   1   7  346.97   14.90
   2  -3   7  365.06   13.60
  -3   1   7  378.96   12.10
   4  -2  -7    6.80    2.80
  -2  -2  -7   10.30    2.50
  -2   4  -7   14.30    2.40
   4  -2  -7    9.70    3.40
  -2   4  -7    4.40    2.30
  -2  -2  -7   10.80    2.80
   2  -4   7    6.80    2.40
   2  -4   7    8.60    2.90
   2  -4   7    6.00    2.60
   2  -4   7    9.90    3.10
   2   2   7   11.20    3.30
  -4   2   7   16.30    3.80
  -4   2   7   11.20    2.90
  -3  -2  -7  255.97   11.30
  -3  -2  -7  243.28   12.10
  -2   5  -7  264.47   10.40
   5  -3  -7  262.27   13.90
  -3  -2  -7  256.47   11.10
  -2   5  -7  234.68   12.00
   5  -3  -7  285.67   13.20
   3   2   7  222.68   13.10
   2  -5   7  230.98   13.80
   2  -5   7  231.38   13.30
   2  -5   7  247.78   13.30
   2  -5   7  246.08   12.60
  -3  -1  -7  101.29    5.20
  -3  -1  -7  102.69    5.10
  -1   4  -7   95.79    6.90
   4  -3  -7   94.99    7.80
  -1   4  -7   96.99    6.50
   4  -3  -7  119.09    7.70
  -4   3   7   96.69    4.90
   1  -4   7   95.39    7.50
   1  -4   7  103.29    7.50
   3   1   7  103.09    7.60
  -4   3   7  104.09    4.90
   1  -4   7   99.69    7.80
   1  -4   7  100.79    7.90
   3  -3  -7  549.85   19.10
   3  -3  -7  572.04   20.90
  -3   0  -7  547.15   17.50
   0   3  -7  542.25   20.40
   0   3  -7  530.65   20.50
   3  -3  -7  526.35   21.10
   0  -3   7  515.55   21.00
   0  -3   7  543.35   20.50
  -3   3   7  547.25   19.00
   0  -3   7  532.45   20.70
  -3   3   7  522.15   19.10
   0  -3   7  537.45   20.70
   3   0   7  555.74   20.40
   1   2  -7  233.18   11.30
   1   2  -7  225.98   11.00
   2  -3  -7  247.28   11.00
   2  -3  -7  250.37   11.50
   1   2  -7  238.38   10.90
   2  -3  -7  281.27   11.80
   2  -3  -7  236.48   10.30
  -1  -2   7  239.18   11.20
  -1  -2   7  226.48   10.50
  -1  -2   7  251.47   11.70
  -2   3   7  237.08   10.20
   3  -1   7  258.97   10.70
  -2   3   7  221.98   10.50
   2   1  -7  347.47   15.20
   1  -3  -7  371.46   14.60
   2   1  -7  349.96   14.40
   2   1  -7  352.96   15.00
  -3   2  -7  349.96   11.90
   1  -3  -7  349.77   14.30
  -2  -1   7  352.96   13.40
   3  -2   7  371.16   13.70
  -1   3   7  358.56   14.30
  -2  -1   7  341.67   14.90
  -2  -1   7  365.36   15.10
  -1   3   7  374.76   15.00
   0  -3  -7   14.70    3.30
   0  -3  -7   13.50    3.40
   3   0  -7   11.60    3.40
   3   0  -7   13.40    2.90
   3   0  -7   16.30    4.10
  -3   3  -7   12.90    2.40
  -3   0   7   30.20    4.90
   3  -3   7   18.00    2.90
   0   3   7   16.40    4.30
   3  -3   7   18.40    2.70
  -3   0   7   17.00    2.20
   0   3   7   13.70    3.20
  -3   0   7   10.70    2.70
  -3   4  -7  369.46   14.50
   4  -1  -7  363.96   16.60
  -1  -3  -7  394.76   15.70
   4  -1  -7  409.56   16.80
  -1  -3  -7  370.16   15.90
   3  -4   7  376.46   16.40
  -4   1   7  376.76   16.50
   3  -4   7  370.36   14.80
   3  -4   7  382.86   14.90
  -4   1   7  361.26   14.90
   1   3   7  376.66   16.40
   1   3   7  400.06   17.30
   1   3   7  348.57   16.60
   3  -4   7  410.66   15.30
  -2  -3  -7   16.60    4.10
   5  -2  -7    9.90    3.80
   5  -2  -7   23.20    6.80
  -2  -3  -7   22.80    5.80
  -3   5  -7   14.90    3.30
  -2  -3  -7   21.10    5.20
   3  -5   7   19.60    5.60
  -5   2   7   23.10    3.20
   3  -5   7   29.30    5.30
   3  -5   7   16.40    4.50
   3  -5   7   17.70    4.60
  -3  -3  -7   79.39    8.50
  -3  -3  -7   80.89    9.00
   6  -3  -7   86.39   10.90
   6  -3  -7   88.29    9.90
  -3   6  -7   86.69    8.10
  -3  -3  -7   79.99    8.60
   3  -6   7   86.19    9.40
   3  -6   7   83.19    8.20
   7  -4  -7   99.89   12.70
  -3   7  -7   79.79   10.40
   3  -7   7   97.59   10.90
   3  -7   7   87.99   11.90
  -4  -2  -7 1738.33   55.69
  -4  -2  -7 1667.43   54.79
  -2   6  -7 1736.73   57.99
  -2   6  -7 1702.63   54.69
   6  -4  -7 1690.33   59.79
   6  -4  -7 1628.64   57.39
   2  -6   7 1629.14   58.39
   2  -6   7 1728.03   59.49
  -4  -1  -7   14.80    3.70
  -1   5  -7    9.00    3.80
  -1   5  -7    8.00    3.40
   5  -4  -7    1.50    3.90
   5  -4  -7   20.70    5.10
  -4  -1  -7   11.70    2.30
   5  -4  -7   17.60    4.60
  -5   4   7   11.90    2.60
   1  -5   7   19.40    5.80
   4   1   7   10.80    4.70
   1  -5   7   12.30    3.70
   4  -4  -7 7839.72  243.78
   4  -4  -7 8604.94  244.48
   4  -4  -7 7733.63  245.28
   0   4  -7 7628.14  243.88
   4  -4  -7 7650.33  241.98
   0   4  -7 7613.14  244.08
   0  -4   7 7502.25  243.98
   0  -4   7 7922.71  244.98
   0  -4   7 7662.33  244.48
   0  -4   7 7982.30  245.28
   4   0   7 7832.52  243.48
  -4   4   7 7906.51  242.08
   3  -4  -7   96.49    6.20
   3  -4  -7   96.09    7.60
   1   3  -7  100.29    7.30
   3  -4  -7  109.99    8.00
   3  -4  -7   94.59    7.70
   1   3  -7   98.59    8.20
  -1  -3   7   91.49    8.30
  -3   4   7  102.39    6.00
  -1  -3   7   95.49    6.90
   4  -1   7  104.39    7.30
  -3   4   7  105.69    5.80
  -1  -3   7  103.39    7.90
  -3   4   7  111.19    6.70
   2  -4  -7    2.10    3.30
   2   2  -7    7.00    2.70
   2   2  -7    6.80    2.60
   2  -4  -7   10.50    2.90
   2   2  -7    8.10    3.40
   2  -4  -7    7.20    2.30
  -2   4   7    6.50    2.50
  -2   4   7    6.30    2.30
  -2   4   7    6.30    2.80
  -2  -2   7   13.60    3.40
  -2  -2   7    9.40    2.80
   4  -2   7    6.70    2.00
   3   1  -7  405.66   17.00
   3   1  -7  362.06   16.80
   3   1  -7  362.66   15.70
   1  -4  -7  393.26   16.20
   1  -4  -7  394.86   16.40
  -4   3  -7  397.46   12.80
  -3  -1   7  364.36   16.30
  -1   4   7  369.26   16.00
  -1   4   7  366.36   16.20
   4  -3   7  374.76   14.30
  -3  -1   7  375.26   14.00
   4  -3   7  380.06   13.00
  -1   4   7  385.46   16.20
   4  -3   7  393.66   12.90
   4   0  -7 3422.06  105.89
   0  -4  -7 3286.67  105.29
   0  -4  -7 3251.47  104.79
  -4   4  -7 3259.57  102.19
   4   0  -7 3247.38  105.79
   4   0  -7 3255.57  104.59
   4  -4   7 3556.24  102.59
   0   4   7 3220.98  105.89
   4  -4   7 3127.39  102.59
   0   4   7 3299.47  105.69
  -4   0   7 2960.50  105.09
  -4   0   7 3356.56  104.59
   5  -1  -7  307.07   14.50
  -1  -4  -7  327.07   15.30
   5  -1  -7  304.37   16.40
  -4   5  -7  306.37   13.10
   5  -1  -7  333.47   16.10
   1   4   7  303.27   16.20
   4  -5   7  329.77   14.70
  -5   1   7  317.07   13.30
   4  -5   7  298.37   12.90
   4  -5   7  312.47   13.80
   4  -5   7  308.07   15.20
  -4   6  -7 4666.23  146.99
   6  -2  -7 4719.03  150.28
  -2  -4  -7 4690.63  148.89
   2   4   7 4671.83  147.79
   4  -6   7 4583.34  146.99
   4  -6   7 4600.94  149.39
  -3  -4  -7  267.37   15.60
   7  -3  -7  238.28   17.00
  -4   7  -7  237.88   14.10
   4  -7   7  257.77   14.50
   4  -7   7  246.28   16.60
   7  -5  -7  367.36   21.40
  -2   7  -7  396.96   20.10
   2  -7   7  365.76   20.90
   2  -7   7  372.46   20.40
  -1   6  -7  219.18   13.20
  -1   6  -7  229.68   13.80
   6  -5  -7  225.08   15.30
   6  -5  -7  204.98   14.80
   1  -6   7  221.58   14.50
   1  -6   7  266.77   15.30
   0   5  -7  290.97   15.10
   5  -5  -7  303.47   16.40
   5  -5  -7  301.67   12.80
   5  -5  -7  292.47   15.50
   5   0   7  298.07   15.10
   0  -5   7  280.67   16.00
   0  -5   7  292.87   15.70
  -5   5   7  306.17   13.30
   4  -5  -7   13.60    4.70
   1   4  -7    9.70    3.60
   4  -5  -7   14.40    3.40
   4  -5  -7   24.30    7.40
  -4   5   7    7.80    3.50
  -1  -4   7   12.20    4.30
  -1  -4   7    8.80    3.60
   5  -1   7    3.70    4.10
   3  -5  -7  252.17   12.30
   2   3  -7  249.58   13.00
   3  -5  -7  255.27   13.90
  -3   5   7  254.77   11.00
  -3   5   7  274.47   11.00
   5  -2   7  256.77   12.80
  -2  -3   7  243.08   13.80
  -3   5   7  235.28   12.60
  -2  -3   7  242.78   12.10
   3   2  -7   12.50    3.60
   3   2  -7   21.90    6.00
   2  -5  -7   28.10    5.20
  -3  -2   7   24.90    4.10
  -2   5   7   18.40    5.10
   5  -3   7   21.60    3.60
  -2   5   7   17.60    5.10
   1  -5  -7  336.77   15.50
   4   1  -7  299.07   14.80
   4   1  -7  302.57   15.80
  -4  -1   7  317.87   15.30
   5  -4   7  315.37   12.00
  -1   5   7  316.97   15.40
   5  -4   7  330.67   12.10
  -1   5   7  321.27   15.40
   5  -4   7  323.17   12.50
  -4  -1   7  321.37   11.90
   5   0  -7   79.09    9.20
  -5   5  -7   77.39    5.70
   5   0  -7   71.39    8.00
   0  -5  -7   69.79    8.00
   0   5   7   66.29    8.50
   5  -5   7   85.19    5.70
   5  -5   7   77.59    7.90
   5  -5   7   67.19    6.50
   5  -5   7   77.29    8.00
  -5   0   7   70.69    7.40
   6  -1  -7  267.07   16.20
  -1  -5  -7  267.27   15.20
  -5   6  -7  274.37   12.80
   6  -1  -7  281.77   14.80
   5  -6   7  281.47   21.10
   5  -6   7  261.17   17.10
   5  -6   7  266.87   12.40
   1   5   7  254.37   16.40
   5  -6   7  250.47   14.90
  -2  -5  -7    7.90    6.00
   7  -2  -7    5.30    6.30
   7  -2  -7    5.90    6.20
  -5   7  -7   15.70    5.30
   5  -7   7    5.10    5.40
   5  -7   7    5.70    6.00
   2   5   7   20.90    7.60
   7  -6  -7   12.60    8.00
  -1   7  -7   12.70    7.20
   1  -7   7    0.50    5.80
   1  -7   7    2.00    7.10
   0   6  -7    6.00    5.20
   6  -6  -7   -1.20    5.80
   6  -6  -7    1.70    3.70
   0  -6   7    2.00    5.40
   0  -6   7    6.60    5.20
   5  -6  -7  217.78   15.00
   1   5  -7  245.48   14.20
   5  -6  -7  225.78   12.10
  -1  -5   7  212.68   13.60
  -1  -5   7  221.58   15.20
   6  -1   7  204.78   14.20
   2   4  -7 1718.93   59.29
   4  -6  -7 1713.03   57.99
   4  -6  -7 1663.03   60.19
   6  -2   7 1670.13   57.69
  -2  -4   7 1798.42   61.09
  -2  -4   7 1711.03   58.19
   3  -6  -7   88.09   10.00
   3   3  -7   91.39    8.80
   3  -6  -7   90.09    8.70
  -3   6   7   76.19    6.70
  -3   6   7   86.29    6.60
  -3  -3   7   85.39    9.90
  -3  -3   7   87.49    7.50
   6  -3   7   67.09   10.30
   4   2  -7 4734.03  152.28
   4   2  -7 4728.03  150.78
   2  -6  -7 4817.92  151.38
   6  -4   7 4655.13  147.19
  -4  -2   7 4939.71  151.78
  -2   6   7 4583.24  149.19
  -4  -2   7 4721.73  147.49
  -2   6   7 4605.74  149.79
   1  -6  -7  257.57   15.00
   5   1  -7  263.97   14.80
   5   1  -7  256.97   15.60
   6  -5   7  268.37   10.90
   6  -5   7  264.37   11.50
   6  -5   7  272.87   14.50
  -5  -1   7  270.17   15.00
  -1   6   7  272.67   15.20
   6   0  -7    3.70    5.50
   6   0  -7    6.70    5.30
   0  -6  -7    3.50    4.60
   0   6   7    7.90    5.60
   6  -6   7    1.20    4.50
   6  -6   7   34.60    8.80
   7  -1  -7  177.58   16.70
  -1  -6  -7  185.18   15.70
   7  -1  -7  195.58   14.70
   1   6   7  189.18   17.20
   6  -7   7  201.68   16.00
   6  -7   7  205.38   14.60
   1   6  -7   17.90    7.30
   6  -7  -7    0.20    5.40
   6  -7  -7    6.90    8.00
  -1  -6   7    8.60    6.40
  -1  -6   7   -1.30    7.70
   5  -7  -7  390.06   21.90
   5  -7  -7  386.66   18.60
   2   5  -7  397.06   20.50
  -2  -5   7  366.46   22.00
  -2  -5   7  368.16   19.40
   4  -7  -7   83.89   10.30
   4  -7  -7   78.59   12.40
  -3  -4   7   87.09    9.90
  -3  -4   7   82.29   12.80
   4   3  -7  235.88   15.70
   3  -7  -7  246.68   15.70
   7  -4   7  254.17   14.00
  -4  -3   7  253.77   13.00
  -4  -3   7  245.48   17.10
  -3   7   7  247.88   14.10
   2  -7  -7   16.80    5.80
   5   2  -7    2.30    5.60
   5   2  -7    7.70    6.50
  -2   7   7    6.60    5.70
   7  -5   7    8.90    5.40
  -5  -2   7   12.10    6.10
   6   1  -7  210.88   15.60
   1  -7  -7  197.78   15.90
   6   1  -7  188.18   16.50
  -1   7   7  199.68   15.70
   7  -6   7  183.68   14.40
   0   0  -8 3366.96  104.89
   0   0  -8 3454.05  106.19
   0   0   8 3405.06  104.99
   0   0   8 3193.48  106.09
   0   1  -8 3419.36  108.39
   1  -1  -8 3319.07  108.69
   0   1  -8 3462.95  108.29
  -1   0  -8 3543.15  107.29
   0   1  -8 3476.05  109.19
   0  -1   8 3735.23  108.59
   1   0   8 3200.38  109.09
   0  -1   8 3590.64  109.69
  -1   1   8 3242.08  109.19
  -1   1   8 3512.15  108.79
   1   0   8 3526.35  108.89
  -1   1  -8 2681.23   85.29
   1   0  -8 2652.23   85.39
   0  -1  -8 2594.14   84.69
  -1   1  -8 2698.13   84.19
   0  -1  -8 2678.13   86.19
   1   0  -8 2686.13   86.09
   1  -1   8 2526.05   85.69
  -1   0   8 2783.72   85.59
   0   1   8 2718.33   86.39
   0   1   8 2768.52   85.39
  -1   0   8 2799.32   86.29
   1  -1   8 2734.23   84.29
  -1   2  -8  267.37   10.80
  -1  -1  -8  283.87   10.80
  -1   2  -8  262.37   11.10
  -1  -1  -8  279.47   10.50
   2  -1  -8  270.77   12.20
  -1   2  -8  268.77   10.90
   2  -1  -8  276.57   12.00
   1  -2   8  249.68   11.70
  -2   1   8  275.17   12.00
   1   1   8  286.37   11.80
  -2   1   8  264.97   11.80
   1   1   8  267.37   12.10
   1  -2   8  282.27   11.10
  -2   1   8  284.07   10.40
   3  -2  -8 1768.02   55.49
  -1   3  -8 1718.03   54.29
  -1   3  -8 1639.84   54.29
  -2  -1  -8 1723.93   53.09
   3  -2  -8 1633.14   55.49
  -2  -1  -8 1653.63   52.69
   1  -3   8 1691.03   54.59
   2   1   8 1637.04   54.69
  -3   2   8 1690.93   54.09
   2   1   8 1526.45   55.29
  -3   2   8 1703.53   52.69
  -3   2   8 1673.83   55.39
   1  -3   8 1528.55   54.79
   1  -2  -8  270.57   11.30
   1   1  -8  296.87   12.40
   1   1  -8  293.57   12.10
  -2   1  -8  263.77    9.90
   1  -2  -8  289.27   12.60
   1   1  -8  274.07   11.60
   1  -2  -8  260.27   11.60
  -1   2   8  278.17   11.30
  -1   2   8  257.57   12.10
   2  -1   8  259.17   11.60
  -1  -1   8  305.67   12.60
  -1  -1   8  282.17   12.00
   2   0  -8 1824.82   59.89
   0  -2  -8 1787.52   59.39
   2   0  -8 1929.11   60.29
   0  -2  -8 1864.31   58.99
  -2   2  -8 1825.82   57.89
   0  -2  -8 1789.12   58.99
   2  -2   8 1863.81   57.69
   0   2   8 1923.31   59.49
   0   2   8 1804.02   60.29
  -2   0   8 1717.13   59.59
  -2   0   8 1877.81   59.99
   2  -2   8 1721.33   59.19
   3  -1  -8 1724.33   54.39
  -2   3  -8 1594.14   52.39
   3  -1  -8 1588.54   54.19
  -1  -2  -8 1696.13   52.79
  -1  -2  -8 1551.14   53.49
  -2   3  -8 1581.44   51.49
  -3   1   8 1641.04   51.09
  -3   1   8 1583.94   53.29
   2  -3   8 1630.14   53.49
   2  -3   8 1703.43   52.69
  -3   1   8 1634.84   54.19
   1   2   8 1518.25   54.39
   1   2   8 1651.83   53.79
   4  -2  -8 1782.32   60.99
   4  -2  -8 1794.22   60.19
  -2   4  -8 1835.32   57.49
  -2  -2  -8 1793.32   59.79
  -2  -2  -8 1833.02   58.39
  -2   4  -8 1793.02   58.99
  -4   2   8 1676.23   60.29
   2  -4   8 1772.52   60.69
   2   2   8 1791.02   59.99
   2   2   8 1859.31   61.39
   2  -4   8 1796.12   59.19
  -4   2   8 1832.52   56.19
  -4   2   8 1838.72   58.29
   2  -4   8 1789.12   59.69
   2  -4   8 1904.71   59.79
  -3  -2  -8 2408.96   74.69
   5  -3  -8 2274.67   76.89
  -3  -2  -8 2462.75   74.89
  -2   5  -8 2348.76   76.39
   5  -3  -8 2353.46   78.59
  -2   5  -8 2383.76   74.19
   2  -5   8 2315.47   77.99
   2  -5   8 2222.78   76.99
   2  -5   8 2260.07   77.19
  -3  -1  -8 1787.82   55.49
   4  -3  -8 1673.83   58.19
  -1   4  -8 1755.12   57.89
  -3  -1  -8 1738.33   55.09
  -1   4  -8 1819.02   57.39
   4  -3  -8 1705.03   59.29
   1  -4   8 1730.73   58.79
  -4   3   8 1710.03   55.69
   1  -4   8 1719.03   57.99
   1  -4   8 1840.82   58.99
   3   1   8 1717.63   57.99
   1  -4   8 1696.63   58.39
  -4   3   8 1787.92   55.49
   0   3  -8  332.77   14.20
   3  -3  -8  321.57   14.80
   3  -3  -8  323.47   14.70
   3  -3  -8  332.67   13.00
   0   3  -8  307.17   13.80
  -3   0  -8  328.97   11.20
   0  -3   8  330.77   14.70
  -3   3   8  330.47   13.20
   3   0   8  343.07   14.50
   0  -3   8  323.37   14.90
  -3   3   8  341.97   12.80
   0  -3   8  322.97   14.40
   1   2  -8 1870.81   56.39
   2  -3  -8 1654.33   54.49
   2  -3  -8 1571.94   54.89
   2  -3  -8 1806.02   56.39
   1   2  -8 1585.14   55.39
   2  -3  -8 1570.84   55.59
   1   2  -8 1665.13   55.19
  -3   1  -8 1694.63   51.79
  -2   3   8 1645.64   54.29
   3  -1   8 1727.63   55.09
  -1  -2   8 1712.73   55.69
  -2   3   8 1641.04   54.99
  -1  -2   8 1667.03   54.99
  -1  -2   8 1605.74   55.99
  -3   2  -8 1572.74   50.49
   1  -3  -8 1607.74   53.29
   1  -3  -8 1588.44   53.59
   2   1  -8 1621.64   53.39
   1  -3  -8 1571.64   53.09
   2   1  -8 1679.83   54.29
   2   1  -8 1671.63   54.39
  -1   3   8 1674.03   53.19
  -1   3   8 1479.55   53.59
   3  -2   8 1624.84   52.69
  -2  -1   8 1722.23   54.19
  -2  -1   8 1643.84   52.39
  -2  -1   8 1534.75   53.89
   3   0  -8   13.00    3.10
   3   0  -8   17.60    4.00
   0  -3  -8   17.60    3.60
   0  -3  -8   20.50    3.70
   3   0  -8   13.80    3.20
  -3   3  -8   14.80    2.60
  -3   0   8   15.40    3.80
  -3   0   8   20.20    5.00
   0   3   8   10.40    3.00
   3  -3   8   15.60    2.80
   0   3   8   19.00    4.60
   3  -3   8   15.10    3.30
  -3   0   8   18.80    2.70
   4  -1  -8 1857.51   62.09
   4  -1  -8 1865.81   61.69
  -1  -3  -8 1857.01   60.29
  -3   4  -8 1784.32   59.19
  -1  -3  -8 1795.52   60.99
   3  -4   8 1759.82   59.89
   3  -4   8 1880.51   61.79
   3  -4   8 1903.11   59.79
   1   3   8 1948.61   62.69
  -4   1   8 1797.72   61.59
   1   3   8 1755.92   61.59
  -4   1   8 1793.62   59.89
   3  -4   8 1881.51   59.49
  -3   5  -8 1160.78   40.90
   5  -2  -8 1224.18   43.00
  -2  -3  -8 1181.28   42.40
   5  -2  -8 1193.38   43.70
  -2  -3  -8 1281.67   41.50
  -5   2   8 1206.18   39.50
   3  -5   8 1235.28   42.20
   3  -5   8 1174.78   41.60
   3  -5   8 1187.58   43.20
   3  -5   8 1227.78   41.80
   6  -3  -8  166.28   13.10
  -3   6  -8  193.08   11.40
  -3  -3  -8  193.28   11.70
  -3  -3  -8  170.68   11.30
  -3  -3  -8  170.58   11.50
   3  -6   8  156.18   12.30
   3  -6   8  190.68   11.50
  -3   7  -8  331.87   17.80
   7  -4  -8  329.37   20.30
   3  -7   8  354.06   20.00
   3  -7   8  304.07   18.00
  -2   6  -8 5300.17  168.28
   6  -4  -8 5441.26  170.98
   2  -6   8 5270.27  170.08
   2  -6   8 5214.78  169.28
  -4  -1  -8   29.40    3.70
  -1   5  -8   32.80    6.20
   5  -4  -8   25.80    7.40
  -1   5  -8   44.30    6.80
   5  -4  -8   26.40    5.70
  -4  -1  -8   25.00    3.70
  -5   4   8   32.30    4.10
   1  -5   8   27.00    6.80
   1  -5   8   21.30    6.00
   0   4  -8  908.91   33.50
   4  -4  -8  934.51   31.60
   0   4  -8  909.31   33.60
   4  -4  -8  906.31   34.70
   4  -4  -8  988.30   34.20
  -4   4   8  949.40   31.60
   0  -4   8  961.50   34.20
  -4   4   8  945.71   30.10
   4   0   8  917.11   33.20
   0  -4   8  855.51   34.20
  -4   4   8  909.91   30.10
   3  -4  -8 1624.74   57.59
   3  -4  -8 1733.83   58.89
   1   3  -8 1660.03   57.69
   3  -4  -8 1709.73   56.69
   3  -4  -8 1730.03   58.49
   1   3  -8 1703.03   58.39
   1   3  -8 1768.22   58.59
  -1  -3   8 1775.52   59.19
  -3   4   8 1746.03   56.39
  -1  -3   8 1692.23   57.59
   4  -1   8 1751.32   57.59
  -1  -3   8 1679.13   58.49
  -3   4   8 1882.41   56.29
  -3   4   8 1764.92   56.69
   2   2  -8 1836.32   60.59
   2   2  -8 1794.22   60.09
   2   2  -8 1816.02   59.59
   2  -4  -8 1798.02   58.99
   2  -4  -8 1834.22   60.29
  -2  -2   8 1790.12   58.39
  -2   4   8 1781.42   58.69
  -2  -2   8 1623.34   59.89
  -2   4   8 1823.12   58.99
   4  -2   8 1723.23   58.09
  -2   4   8 1834.72   59.19
   1  -4  -8 1793.62   60.29
   3   1  -8 1814.12   61.29
  -4   3  -8 1854.81   56.59
   1  -4  -8 1764.72   60.29
   3   1  -8 1854.31   60.39
  -1   4   8 1836.22   60.89
   4  -3   8 1833.72   58.79
  -1   4   8 1874.51   60.49
  -3  -1   8 1789.82   58.09
  -3  -1   8 1878.61   61.09
  -1   4   8 1676.43   59.99
   0  -4  -8 8540.65  261.07
   0  -4  -8 8035.40  260.17
   4   0  -8 8220.48  261.57
   4   0  -8 8470.65  260.57
  -4   4  -8 8378.06  257.67
   4   0  -8 8174.38  261.47
   4  -4   8 8194.58  258.57
   0   4   8 8067.59  261.57
   4  -4   8 8865.81  258.17
  -4   0   8 8563.44  260.47
  -4   0   8 8414.76  256.27
   5  -1  -8  250.17   14.20
  -4   5  -8  249.68   11.40
   5  -1  -8  248.08   13.20
  -1  -4  -8  262.67   13.60
   4  -5   8  253.37   13.90
   1   4   8  253.67   14.70
   4  -5   8  260.07   12.90
   4  -5   8  248.08   12.40
   4  -5   8  260.07   11.80
  -5   1   8  255.27   11.90
   6  -2  -8  683.93   28.80
  -2  -4  -8  645.94   26.90
  -4   6  -8  670.83   25.40
   4  -6   8  679.93   25.70
   4  -6   8  664.03   27.90
   2   4   8  641.44   28.90
  -4   7  -8  442.26   20.40
  -3  -4  -8  445.06   21.80
   7  -3  -8  467.75   24.10
   4  -7   8  470.35   21.10
   4  -7   8  440.46   23.20
  -2   7  -8  124.59   13.10
   7  -5  -8  125.59   14.90
   2  -7   8  133.69   14.00
   2  -7   8  113.99   13.50
   6  -5  -8  566.04   26.40
  -1   6  -8  571.24   24.50
   1  -6   8  564.04   25.60
   1  -6   8  555.74   25.70
   5  -5  -8  476.25   21.80
   5  -5  -8  406.56   20.50
   0   5  -8  455.25   20.20
   5  -5  -8  458.55   17.80
   0  -5   8  447.76   21.60
  -5   5   8  450.75   17.90
   0  -5   8  463.15   21.00
   1   4  -8   17.30    4.50
   4  -5  -8   27.50    7.00
   4  -5  -8   31.20    5.10
   4  -5  -8   27.40    6.00
  -1  -4   8   34.90    7.40
  -1  -4   8   20.50    4.50
   5  -1   8   34.10    8.60
  -4   5   8   28.40    6.30
   2   3  -8 2387.06   78.79
   3  -5  -8 2429.26   79.79
   2   3  -8 2408.16   79.69
   3  -5  -8 2365.16   77.89
  -3   5   8 2171.28   77.59
  -2  -3   8 2395.06   77.79
  -3   5   8 2430.86   76.59
  -3   5   8 2396.36   76.29
   5  -2   8 2316.67   77.99
  -2  -3   8 2549.84   80.59
   3   2  -8 1255.07   44.40
   3   2  -8 1214.58   43.10
   2  -5  -8 1227.68   43.10
  -3  -2   8 1213.28   41.10
   5  -3   8 1214.08   41.00
  -3  -2   8 1200.98   44.10
  -2   5   8 1205.88   42.10
  -2   5   8 1281.17   42.90
   4   1  -8  265.77   13.70
   4   1  -8  279.77   14.90
   1  -5  -8  263.57   13.70
  -1   5   8  244.58   13.90
   5  -4   8  271.67    9.80
  -4  -1   8  257.97   10.20
   5  -4   8  266.27   11.30
   5  -4   8  235.08    9.80
  -5   5  -8  490.55   18.10
   0  -5  -8  485.95   21.70
   5   0  -8  510.75   22.80
   5   0  -8  509.35   21.30
   0   5   8  495.35   22.60
   5  -5   8  500.75   18.90
  -5   0   8  501.25   20.60
   5  -5   8  490.45   21.60
   5  -5   8  503.85   19.30
  -5   6  -8 1014.20   35.10
   6  -1  -8  996.40   39.40
   6  -1  -8 1016.70   37.40
  -1  -5  -8  968.30   38.20
   5  -6   8  996.50   35.20
   5  -6   8 1014.00   38.50
   1   5   8 1058.19   40.20
  -5   7  -8   24.60    6.00
  -2  -5  -8   41.90   10.60
   7  -2  -8   24.00    8.00
   7  -2  -8    7.40    6.70
   2   5   8   20.10    7.80
   5  -7   8   30.10    7.50
   7  -6  -8  825.52   35.70
  -1   7  -8  785.22   33.70
   1  -7   8  749.23   34.80
   1  -7   8  810.42   34.90
   0   6  -8  566.94   25.50
   6  -6  -8  546.95   27.00
   6  -6  -8  568.74   21.80
   0  -6   8  575.14   27.40
   0  -6   8  547.35   25.80
   5  -6  -8  557.44   26.10
   5  -6  -8  573.24   22.70
   1   5  -8  566.54   24.90
  -1  -5   8  562.84   24.80
  -1  -5   8  590.64   26.80
   4  -6  -8 5474.55  173.58
   2   4  -8 5451.55  172.18
   4  -6  -8 5478.65  170.78
  -2  -4   8 5742.53  174.38
  -2  -4   8 5484.05  171.18
   6  -2   8 4755.02  170.08
   3   3  -8  175.18   12.10
   3  -6  -8  168.48   13.10
   3  -6  -8  175.88   11.50
  -3  -3   8  167.68   12.80
  -3   6   8  181.08    9.70
  -3   6   8  166.48    9.80
   6  -3   8  174.18    9.80
  -3  -3   8  188.98   10.60
   2  -6  -8  667.63   26.90
   4   2  -8  660.63   26.80
   4   2  -8  641.64   28.00
  -2   6   8  624.14   25.70
   6  -4   8  646.84   23.50
  -4  -2   8  672.53   27.60
  -2   6   8  652.43   26.20
  -4  -2   8  661.63   23.50
   5   1  -8 1027.80   37.60
   1  -6  -8  964.50   38.20
   5   1  -8  982.90   39.10
  -1   6   8  972.80   38.00
  -5  -1   8 1036.90   37.80
   6  -5   8 1014.00   37.50
   6  -5   8 1014.90   34.30
   6   0  -8  582.74   25.50
   6   0  -8  559.14   27.20
   0  -6  -8  644.64   27.30
   0   6   8  586.14   27.30
   6  -6   8  602.64   26.10
   7  -1  -8  969.80   37.20
   7  -1  -8  987.00   40.40
  -1  -6  -8  912.11   38.30
   1   6   8  920.71   39.90
   6  -7   8  950.20   38.40
   1   6  -8  750.72   33.10
   6  -7  -8  828.02   35.60
  -1  -6   8  795.12   33.40
  -1  -6   8  735.63   35.30
   5  -7  -8  117.09   11.60
   5  -7  -8  126.19   14.50
   2   5  -8  108.99   13.20
  -2  -5   8  134.09   15.30
  -2  -5   8  137.09   12.60
   4  -7  -8  322.37   17.70
   4  -7  -8  357.66   20.50
   3   4  -8  325.67   19.00
  -3  -4   8  358.06   20.80
  -3  -4   8  323.37   17.20
   4   3  -8  479.65   22.90
   3  -7  -8  463.65   24.30
   3  -7  -8  456.85   22.10
  -4  -3   8  462.05   19.50
  -4  -3   8  470.35   24.20
   5   2  -8   17.30    6.90
   5   2  -8   28.50    7.70
   2  -7  -8   30.70    7.50
   7  -5   8   19.10    6.60
  -2   7   8   27.30    6.50
  -5  -2   8   39.20   11.90
   1  -7  -8  950.80   39.80
   6   1  -8  978.50   40.90
   6   1  -8 1035.70   39.00
  -1   7   8  983.30   39.10
   7  -6   8  965.80   38.30
   0   0  -9 2402.86   78.29
   0   0  -9 2753.52   80.19
   0   0   9 2303.77   79.69
   0   0   9 2451.85   78.49
   0   1  -9   76.29    5.10
   1  -1  -9   88.49    6.30
   0   1  -9   77.79    5.20
  -1   0  -9   80.49    4.20
   1  -1  -9   73.69    5.40
   0   1  -9   73.69    5.60
  -1   1   9   78.09    5.70
  -1   1   9   87.69    5.10
  -1   1   9   84.49    5.60
   0  -1   9   68.49    5.70
   0  -1   9   81.79    5.30
   1   0   9   59.19    5.40
   1   0   9   82.09    5.60
  -1   1  -9   72.89    4.40
   1   0  -9   75.39    5.30
   1   0  -9   79.69    6.00
   0  -1  -9   84.59    5.00
   0  -1  -9   83.59    6.20
  -1   0   9   69.09    5.60
   1  -1   9   76.89    5.70
   0   1   9   67.49    5.60
   0   1   9   73.69    5.20
   1  -1   9   76.09    4.50
  -1   0   9   83.09    5.60
   2  -1  -9  975.80   34.70
  -1   2  -9  998.50   33.60
  -1  -1  -9 1026.40   33.40
  -1   2  -9 1049.30   34.20
  -1  -1  -9  970.40   32.90
   2  -1  -9 1021.00   35.50
  -1   2  -9  987.50   33.50
   1   1   9  974.70   35.30
  -2   1   9  968.70   34.70
  -2   1   9 1073.39   33.20
  -2   1   9 1050.49   35.00
   1  -2   9  908.71   34.60
   1  -2   9 1041.40   33.70
  -2  -1  -9  157.18    6.80
   3  -2  -9  150.98    9.20
   3  -2  -9  163.48    9.60
  -1   3  -9  149.49    8.10
  -1   3  -9  154.98    8.20
  -2  -1  -9  151.88    7.20
  -3   2   9  156.48    9.60
   1  -3   9  159.08    8.80
  -3   2   9  155.98    8.20
   2   1   9  158.48    9.10
   2   1   9  156.78    9.30
   1  -3   9  154.58    9.00
  -3   2   9  151.18    6.90
  -2   0  -9 3045.80   91.79
   0   2  -9 2824.02   93.19
   0   2  -9 2779.52   93.29
  -2   0  -9 2834.52   90.69
   2  -2  -9 2818.82   93.99
   2  -2  -9 3138.99   94.99
   0   2  -9 3236.38   94.39
   2   0   9 2846.42   94.09
   2   0   9 3041.80   93.99
  -2   2   9 2939.21   93.99
  -2   2   9 2949.60   92.49
   0  -2   9 2979.70   93.59
   0  -2   9 2731.33   94.29
   1  -2  -9 1004.90   35.30
   1   1  -9  989.40   34.30
   1   1  -9  933.71   33.80
  -2   1  -9  978.80   32.10
   1   1  -9 1076.79   35.20
   1  -2  -9  993.50   34.10
  -2   1  -9  990.20   31.40
   2  -1   9 1012.80   34.50
  -1   2   9  952.50   34.70
  -1  -1   9 1039.20   34.50
  -1   2   9 1055.39   33.90
  -1  -1   9  904.31   34.70
   2   0  -9 1350.26   42.70
   0  -2  -9 1222.88   41.30
   0  -2  -9 1281.27   41.10
  -2   2  -9 1245.98   39.90
   0  -2  -9 1227.58   41.00
   2   0  -9 1224.88   41.90
   2  -2   9 1171.78   41.40
  -2   0   9 1212.78   41.90
   2  -2   9 1258.97   39.60
  -2   0   9 1173.48   41.90
   0   2   9 1248.88   41.50
   0   2   9 1127.19   42.10
  -2   3  -9  461.55   17.40
  -1  -2  -9  464.55   18.40
  -1  -2  -9  468.55   17.60
  -2   3  -9  475.85   16.70
  -1  -2  -9  486.85   17.80
   3  -1  -9  453.85   19.10
   3  -1  -9  479.55   19.50
   1   2   9  474.75   18.90
  -3   1   9  449.36   19.10
   1   2   9  500.75   19.80
   2  -3   9  430.16   18.20
   2  -3   9  474.35   17.50
  -3   1   9  475.15   18.40
  -3   1   9  479.05   16.30
   4  -2  -9 1180.88   43.10
  -2   4  -9 1239.88   39.80
  -2   4  -9 1238.58   41.30
   4  -2  -9 1296.37   43.00
  -2  -2  -9 1276.07   40.70
  -4   2   9 1276.47   38.60
   2   2   9 1141.49   42.20
   2  -4   9 1198.48   42.90
   2  -4   9 1169.98   41.50
  -4   2   9 1222.58   40.80
   2  -4   9 1160.58   41.90
   2   2   9 1172.38   43.30
   5  -3  -9    2.10    4.60
  -3  -2  -9    5.40    3.10
  -3  -2  -9    5.00    3.30
  -2   5  -9   -0.40    2.90
  -5   3   9    0.70    1.70
   2  -5   9   -4.00    2.90
   2  -5   9    1.20    3.00
   2  -5   9    5.80    4.90
   4  -3  -9   23.20    4.90
  -3  -1  -9   23.00    3.00
  -1   4  -9   13.20    3.30
  -3  -1  -9   16.60    3.40
  -3  -1  -9   18.70    2.80
   4  -3  -9   30.00    6.10
  -1   4  -9   15.60    4.60
  -4   3   9   12.80    3.30
   3   1   9   13.00    3.50
   1  -4   9   19.10    5.20
   1  -4   9   19.70    5.30
   3   1   9   12.30    4.30
   1  -4   9   11.20    4.50
  -4   3   9   13.30    3.70
  -3   0  -9 1568.34   49.20
   0   3  -9 1615.84   52.69
   3  -3  -9 1570.64   53.29
   3  -3  -9 1532.45   53.29
   0   3  -9 1560.14   52.29
   3   0   9 1505.75   52.69
   0  -3   9 1578.14   52.79
   3   0   9 1604.74   52.59
  -3   3   9 1613.34   50.89
  -3   3   9 1514.55   51.49
   0  -3   9 1513.95   53.29
   0  -3   9 1582.54   52.89
   2  -3  -9  163.48    9.20
   1   2  -9  150.18    8.50
   1   2  -9  146.69    8.90
   2  -3  -9  140.19    8.80
   2  -3  -9  156.08    9.70
   1   2  -9  152.48    9.40
  -3   1  -9  156.38    5.80
  -3   1  -9  161.88    5.90
   2  -3  -9  151.98    8.10
  -2   3   9  154.78    8.10
  -1  -2   9  150.78    9.40
  -2   3   9  151.88    8.60
   3  -1   9  152.78    8.50
   3  -1   9  155.78    9.00
  -1  -2   9  152.38    9.30
  -1  -2   9  153.38    8.50
   1  -3  -9  483.85   18.60
  -3   2  -9  458.15   15.80
   2   1  -9  455.05   18.40
   1  -3  -9  450.15   18.20
   2   1  -9  470.15   19.10
   2   1  -9  488.15   19.60
   1  -3  -9  477.35   18.70
  -1   3   9  477.15   19.20
  -2  -1   9  437.66   19.10
  -2  -1   9  460.25   19.20
   3  -2   9  478.85   18.10
  -1   3   9  464.15   18.30
   0  -3  -9  329.57   14.20
   3   0  -9  335.37   15.40
   0  -3  -9  309.07   14.10
  -3   3  -9  316.97   12.10
   0  -3  -9  304.67   13.90
   3   0  -9  311.57   14.80
   3  -3   9  300.57   13.30
   0   3   9  327.57   15.20
   3  -3   9  338.87   12.10
  -3   0   9  326.47   12.20
  -3   0   9  325.07   14.40
   0   3   9  310.77   14.40
   4  -1  -9   16.10    4.80
  -1  -3  -9   16.30    4.00
  -1  -3  -9   15.00    3.80
  -3   4  -9   22.10    4.00
   4  -1  -9   20.10    4.70
   3  -4   9   22.40    4.70
   3  -4   9   13.20    3.20
   1   3   9   21.90    5.80
  -4   1   9   17.80    4.40
  -3   5  -9   62.49    6.20
   5  -2  -9   54.29    8.00
  -2  -3  -9   52.59    7.00
  -2  -3  -9   46.60    7.60
   2   3   9   52.79    8.20
   3  -5   9   64.69    8.60
  -5   2   9   49.20    5.40
   3  -5   9   50.99    8.60
   3  -5   9   58.79    7.70
   3  -5   9   45.70    6.20
  -3   6  -9  150.98   10.80
  -3  -3  -9  135.79   11.20
   6  -3  -9  162.88   13.20
  -3  -3  -9  156.38   11.50
   3   3   9  176.08   13.70
   3  -6   9  170.38   11.50
   3  -6   9  163.28   12.50
  -3   7  -9   95.99   11.60
   7  -4  -9   90.49   14.00
   3  -7   9   96.79   12.30
   3  -7   9  122.59   14.30
  -2   6  -9  715.33   28.00
   6  -4  -9  707.83   30.40
   2  -6   9  702.13   29.70
   2  -6   9  684.33   29.00
  -4  -1  -9  133.79    6.00
  -4  -1  -9  140.59    6.10
   5  -4  -9  132.89   12.10
  -1   5  -9  128.09    9.80
  -4  -1  -9  133.59    6.40
  -1   5  -9  134.39    9.50
   5  -4  -9  117.99   10.90
   1  -5   9  129.09   10.50
   1  -5   9  123.39   10.20
   4  -4  -9  678.13   27.00
   4  -4  -9  680.63   23.80
   0   4  -9  628.74   25.40
   4  -4  -9  699.93   26.80
   0   4  -9  621.64   25.50
   4   0   9  643.94   25.70
   0  -4   9  635.74   26.00
  -4   4   9  693.53   23.80
   0  -4   9  634.94   26.60
  -4   4   9  658.63   22.80
   3  -4  -9   26.60    7.30
   1   3  -9   19.60    4.30
   1   3  -9   15.80    3.90
   3  -4  -9   17.90    4.20
   1   3  -9   18.50    4.90
  -3   4   9   15.50    3.40
  -1  -3   9   21.80    5.70
   4  -1   9   13.90    4.40
  -1  -3   9    5.60    3.90
  -3   4   9   18.20    4.40
  -1  -3   9   13.50    3.60
   2   2  -9 1262.07   42.00
   2   2  -9 1120.29   42.60
   2   2  -9 1221.88   42.60
   2  -4  -9 1206.38   42.40
   2  -4  -9 1154.88   41.10
  -2   4   9 1224.88   41.20
  -2  -2   9 1177.08   42.80
   4  -2   9 1188.68   40.80
  -2  -2   9 1192.78   40.70
  -2   4   9 1230.38   41.60
   3   1  -9   17.00    4.50
   1  -4  -9   17.20    4.60
   3   1  -9   22.20    5.10
  -4   3  -9   20.00    2.40
   1  -4  -9   19.70    5.40
   4  -3   9   20.00    4.20
  -1   4   9   25.10    5.50
  -3  -1   9   16.00    2.90
  -1   4   9   26.20    6.10
  -3  -1   9   22.30    5.50
   4   0  -9 1169.38   40.90
  -4   4  -9 1137.09   37.80
   4   0  -9 1156.98   42.00
   0  -4  -9 1131.29   41.00
   0   4   9 1145.09   42.00
  -4   0   9 1195.58   36.80
   4  -4   9 1124.49   39.20
   4  -4   9 1174.08   38.10
  -4   0   9 1184.58   40.80
  -4   5  -9  664.93   24.90
  -1  -4  -9  675.23   27.50
   5  -1  -9  707.83   28.80
   5  -1  -9  718.83   27.50
   1   4   9  726.93   29.30
   4  -5   9  701.93   26.20
   4  -5   9  701.63   28.20
   4  -5   9  728.33   26.00
  -5   1   9  674.53   25.80
  -2  -4  -9  399.76   19.80
   6  -2  -9  419.26   21.70
  -4   6  -9  429.26   18.10
   4  -6   9  428.56   20.80
   4  -6   9  417.86   18.60
   2   4   9  420.86   21.80
   7  -3  -9  332.77   21.00
  -4   7  -9  310.97   17.30
  -3  -4  -9  345.77   19.00
   4  -7   9  351.46   18.30
   3   4   9  298.17   21.10
   4  -7   9  353.56   20.40
  -2   7  -9  770.32   32.00
   7  -5  -9  753.12   34.30
   2  -7   9  765.02   33.80
   2  -7   9  770.02   33.40
   6  -5  -9   27.80    7.20
  -1   6  -9   39.70    8.60
   1  -6   9   34.10    9.50
   1  -6   9   36.80   10.00
   5  -5  -9  619.44   22.90
   5  -5  -9  618.54   27.20
   0   5  -9  617.84   25.70
   0  -5   9  589.44   26.70
   0  -5   9  614.44   26.10
  -5   5   9  611.64   23.00
   4  -5  -9  152.48    9.10
   4  -5  -9  136.49   10.90
   1   4  -9  133.79   10.10
  -4   5   9  128.99    6.70
  -4   5   9  136.89    6.80
  -1  -4   9  140.59   11.20
  -4   5   9  135.89    9.50
  -1  -4   9  147.29   10.50
   2   3  -9   -0.90    3.20
   2   3  -9   -2.30    3.80
   3  -5  -9    1.80    2.90
   3  -5  -9   -6.10    3.50
   5  -2   9   -0.20    2.80
  -2  -3   9   -1.40    2.90
  -2  -3   9   -2.60    3.00
   5  -2   9   -2.00    4.90
  -3   5   9   -1.00    2.70
  -3   5   9   -3.20    2.60
   3   2  -9   52.09    7.30
   2  -5  -9   51.19    6.60
   3   2  -9   60.99    8.30
   2  -5  -9   43.70    7.80
  -2   5   9   54.79    7.20
  -2   5   9   57.59    7.30
  -3  -2   9   47.50    8.00
   5  -3   9   51.59    5.70
  -3  -2   9   53.09    5.80
   4   1  -9  666.63   27.90
   1  -5  -9  674.93   27.00
   4   1  -9  676.13   26.90
  -1   5   9  723.73   27.50
   5  -4   9  663.53   24.40
  -4  -1   9  679.73   23.00
  -4  -1   9  637.64   26.80
   0  -5  -9  183.98   12.10
   5   0  -9  185.48   13.40
  -5   5  -9  184.38    8.80
   5   0  -9  181.68   12.10
  -5   0   9  178.58   11.70
   0   5   9  190.68   13.20
   5  -5   9  174.78   12.40
   5  -5   9  174.88    9.80
   6  -1  -9   91.99   10.90
  -5   6  -9   95.29    8.30
   6  -1  -9   93.99   12.40
  -1  -5  -9   97.99   10.60
   5  -6   9   87.79   11.00
   1   5   9  111.19   12.60
   5  -6   9  102.29    8.60
  -6   1   9  103.29    8.40
   7  -2  -9   45.20    9.40
  -5   7  -9   42.60    9.50
  -2  -5  -9   57.39   11.50
   7  -2  -9   44.10    9.30
   5  -7   9   29.90    8.10
   2   5   9   55.09   13.90
   0   6  -9  449.46   22.10
   6  -6  -9  424.06   23.70
   0  -6   9  441.16   22.70
   0  -6   9  402.46   23.10
   5  -6  -9   34.80    7.60
   1   5  -9   34.50    7.30
   5  -6  -9   30.00    7.40
  -1  -5   9   25.20    6.20
  -1  -5   9   18.40    5.90
   4  -6  -9  716.63   28.10
   4  -6  -9  709.23   30.60
   2   4  -9  704.13   29.60
  -2  -4   9  733.93   31.20
  -2  -4   9  728.33   28.80
   6  -2   9  729.43   28.20
   3  -6  -9  149.39   13.10
   3  -6  -9  161.78   11.30
   3   3  -9  167.58   12.30
   6  -3   9  160.58    9.90
  -3  -3   9  160.98   10.30
  -3   6   9  162.58   10.10
  -3  -3   9  156.68   12.90
   4   2  -9  419.16   21.60
   2  -6  -9  437.96   20.40
   4   2  -9  433.26   20.40
  -2   6   9  427.96   20.00
  -4  -2   9  436.46   21.20
   6  -4   9  435.06   17.50
  -4  -2   9  420.96   16.90
   5   1  -9   81.79   11.70
   5   1  -9   94.09   11.00
   1  -6  -9  101.79   10.80
  -1   6   9   85.79   10.70
   6  -5   9   87.09   10.50
  -5  -1   9   84.19   10.30
   6   0  -9  372.86   21.30
   6   0  -9  358.16   19.40
   0  -6  -9  359.96   19.70
   6  -6   9  367.66   19.60
  -6   0   9  320.27   17.60
   0   6   9  380.16   21.20
   2   5  -9  742.73   32.90
   5  -7  -9  767.32   30.80
   5  -7  -9  770.22   34.40
  -2  -5   9  794.92   35.50
  -2  -5   9  775.32   31.90
   4  -7  -9  100.59   11.50
   3   4  -9  118.99   12.80
   4  -7  -9   98.49   14.10
  -3  -4   9  115.29   14.80
  -3  -4   9  101.89   11.40
   4   3  -9  352.56   19.60
   3  -7  -9  328.27   18.80
   3  -7  -9  331.07   20.80
  -4  -3   9  340.17   20.50
  -4  -3   9  306.77   15.50
   5   2  -9   31.10    8.80
   5   2  -9   29.90    8.00
   2  -7  -9   47.90   11.20
  -5  -2   9   26.50    7.60
   7  -5   9   47.80   11.10
  -2   7   9   36.00    7.50
   0   0 -10  801.82   27.30
   0   0 -10  810.22   28.80
   0   0  10  817.32   27.50
   0   0  10  750.52   28.70
   0   1 -10  423.96   16.30
  -1   0 -10  389.16   14.00
   1  -1 -10  379.46   15.40
   1  -1 -10  390.36   16.60
   0   1 -10  364.56   14.90
   0   1 -10  361.16   14.90
  -1   1  10  393.76   15.00
   0  -1  10  361.86   16.20
   0  -1  10  449.16   15.60
   1   0  10  402.36   15.90
  -1   1  10  360.36   16.00
  -1   1  10  396.76   15.70
   1   0  10  364.36   16.10
  -1   1 -10 2023.40   62.29
   1   0 -10 1809.52   62.89
   0  -1 -10 1864.71   61.29
  -1   1 -10 1901.71   60.69
   1   0 -10 1813.62   61.89
   0  -1 -10 1913.61   63.09
   0   1  10 1943.01   62.09
   1  -1  10 1832.02   62.79
   0   1  10 2001.10   63.49
   1  -1  10 1952.00   60.89
  -1   0  10 1917.91   62.19
  -1   0  10 1903.41   63.19
  -1   2 -10  397.96   15.60
  -1  -1 -10  443.56   15.70
   2  -1 -10  392.16   16.70
   2  -1 -10  419.66   17.60
  -1   2 -10  388.66   15.40
  -1  -1 -10  406.36   15.00
  -1   2 -10  418.96   16.30
   1  -2  10  412.36   15.60
  -2   1  10  389.66   16.80
   1  -2  10  380.86   16.80
   1   1  10  424.06   17.50
  -2   1  10  408.86   15.20
  -2   1  10  406.96   16.90
   1   1  10  417.96   16.80
  -1   3 -10  220.68   10.60
   3  -2 -10  216.98   11.60
  -2  -1 -10  211.88    8.60
   3  -2 -10  237.78   12.40
  -1   3 -10  220.58   10.40
  -2  -1 -10  230.78    9.50
   1  -3  10  193.88   11.00
   1  -3  10  218.28   10.90
   2   1  10  188.18   11.20
  -3   2  10  212.48   10.60
   2   1  10  194.58   11.40
  -3   2  10  217.08    9.20
  -3   2  10  219.88   12.10
  -2   0 -10  658.73   21.30
   2  -2 -10  677.23   24.80
   0   2 -10  639.74   23.70
   2  -2 -10  662.63   25.50
   0   2 -10  664.93   24.60
   0   2 -10  628.24   23.80
  -2   2  10  656.03   23.10
   0  -2  10  631.74   25.00
  -2   2  10  625.04   24.50
   2   0  10  678.33   25.00
   0  -2  10  687.03   24.30
   2   0  10  638.04   24.40
   1   1 -10  382.86   17.10
   1  -2 -10  444.96   18.00
   1  -2 -10  398.66   16.30
   1   1 -10  394.06   16.50
  -2   1 -10  401.06   13.70
  -2   1 -10  398.26   14.50
   1   1 -10  404.86   16.30
  -1   2  10  428.16   16.20
  -1   2  10  411.06   17.20
  -1  -1  10  436.96   16.90
  -1  -1  10  394.36   17.20
   2  -1  10  398.86   16.80
   2   0 -10  308.97   14.50
  -2   2 -10  311.97   12.10
   2   0 -10  316.07   14.00
   0  -2 -10  313.87   13.00
   0  -2 -10  315.47   13.20
   2  -2  10  317.87   11.80
   0   2  10  321.67   13.80
   0   2  10  276.77   14.00
  -2   0  10  290.37   13.90
  -2   0  10  315.47   14.20
   2  -2  10  320.77   13.80
   3  -1 -10  570.84   22.10
  -2   3 -10  507.75   19.00
  -1  -2 -10  543.25   20.00
   3  -1 -10  508.55   21.30
  -2   3 -10  539.95   19.60
  -1  -2 -10  533.55   19.60
  -3   1  10  524.15   22.00
  -3   1  10  551.54   21.00
   1   2  10  512.45   21.90
   2  -3  10  565.44   19.80
  -3   1  10  537.85   18.60
   2  -3  10  498.45   20.70
  -2   4 -10  525.65   20.50
   4  -2 -10  493.15   22.20
  -2  -2 -10  581.84   20.30
  -2  -2 -10  533.65   19.70
  -2   4 -10  549.85   19.40
   4  -2 -10  541.05   22.80
   2  -4  10  531.65   21.20
   2   2  10  526.75   22.80
  -4   2  10  541.85   18.20
  -4   2  10  510.85   20.30
   2  -4  10  513.45   22.20
   2  -4  10  559.74   21.80
  -3  -2 -10  262.47   11.80
  -2   5 -10  276.47   11.90
  -2   5 -10  256.57   13.50
   5  -3 -10  280.57   15.90
  -3  -2 -10  278.47   12.70
   2  -5  10  269.87   15.20
   3   2  10  287.67   15.80
  -5   3  10  277.57   11.30
   2  -5  10  265.77   14.60
  -3  -1 -10  995.80   31.50
  -1   4 -10  945.71   33.80
   4  -3 -10  959.60   35.70
  -3  -1 -10  925.41   30.50
  -1   4 -10 1041.20   33.90
  -3  -1 -10  948.01   30.50
   4  -3 -10  969.40   35.50
   3   1  10  904.11   35.20
   1  -4  10  904.71   34.90
   1  -4  10  897.61   34.80
  -4   3  10  964.30   31.50
   1  -4  10  909.51   34.60
  -4   3  10  903.81   32.40
   3  -3 -10    2.40    3.40
  -3   0 -10   -0.70    1.50
   0   3 -10   -1.50    2.40
   0   3 -10    3.80    3.00
   0   3 -10    0.80    2.40
   3  -3 -10    2.60    3.00
  -3   3  10    1.10    2.30
   0  -3  10   -1.60    2.40
  -3   3  10    1.80    2.20
   3   0  10    0.70    3.40
   0  -3  10    3.00    2.70
   0  -3  10    4.70    4.00
   3   0  10    1.40    2.20
   1   2 -10  220.28   10.90
   2  -3 -10  193.78    9.90
  -3   1 -10  220.58    7.90
   1   2 -10  213.38   11.20
  -3   1 -10  218.28    8.10
   1   2 -10  229.28   12.10
   2  -3 -10  217.18   11.20
   2  -3 -10  202.78   12.00
   2  -3 -10  194.08   11.30
   3  -1  10  209.68   10.90
   3  -1  10  206.98   11.40
  -1  -2  10  218.68   11.90
  -1  -2  10  214.48   11.70
  -2   3  10  207.88   10.90
  -2   3  10  209.58   10.30
   1  -3 -10  518.25   20.70
   1  -3 -10  534.75   20.60
   2   1 -10  529.25   20.80
   2   1 -10  521.35   21.90
  -3   2 -10  510.35   17.90
   1  -3 -10  527.65   20.70
   2   1 -10  544.65   21.50
  -2  -1  10  570.24   22.00
  -1   3  10  512.75   21.40
  -1   3  10  518.55   20.50
   3  -2  10  527.95   20.60
  -2  -1  10  523.95   21.50
   3   0 -10 1073.59   40.40
   3   0 -10 1058.49   40.00
  -3   3 -10 1171.38   37.20
   0  -3 -10 1155.78   39.70
   0  -3 -10 1162.68   39.20
   0  -3 -10 1156.08   39.20
   3  -3  10 1155.18   36.80
   0   3  10 1021.40   39.30
  -3   0  10 1222.68   40.30
   0   3  10 1096.69   40.50
   3  -3  10 1144.19   39.00
  -3   4 -10  168.68    8.70
   4  -1 -10  163.98   11.10
  -1  -3 -10  185.98   10.50
  -1  -3 -10  166.48   10.30
   3  -4  10  179.58   10.00
  -4   1  10  174.38    9.90
  -4   1  10  170.08    6.70
   3  -4  10  167.68    9.30
  -4   1  10  156.78    6.90
  -2  -3 -10 1520.75   51.89
  -2  -3 -10 1493.85   53.09
   5  -2 -10 1518.45   54.79
  -3   5 -10 1495.25   51.59
   3  -5  10 1523.25   52.59
   3  -5  10 1534.55   54.39
   2   3  10 1530.15   55.29
   3  -5  10 1618.54   53.09
  -5   2  10 1624.24   51.19
  -3   6 -10  149.49   10.50
   6  -3 -10  128.29   12.50
   3  -6  10  129.49   11.20
   3  -6  10  134.79   12.50
   3   3  10  130.79   13.20
  -3   7 -10   53.49   11.20
   7  -4 -10   67.49   14.10
   4   3  10   49.00   14.50
   3  -7  10   53.59   13.80
   3  -7  10   77.79   12.70
  -2   6 -10  141.19   11.10
   6  -4 -10  135.39   13.40
   4   2  10  126.29   13.10
   2  -6  10  117.69   11.50
   2  -6  10  138.09   12.90
  -4  -1 -10  632.24   21.40
  -1   5 -10  594.94   25.20
   5  -4 -10  648.34   27.40
  -1   5 -10  634.64   24.80
   1  -5  10  612.84   26.60
   1  -5  10  663.33   27.10
   4   1  10  623.74   27.00
  -5   4  10  647.14   22.40
   0   4 -10  215.78   12.90
   4  -4 -10  269.47   15.30
   4  -4 -10  266.27   14.90
   0   4 -10  263.77   14.30
  -4   4  10  255.97   11.30
   0  -4  10  255.67   14.00
  -4   4  10  267.67   12.00
   0  -4  10  261.67   14.70
   4   0  10  272.77   14.10
   3  -4 -10  930.61   34.60
   3  -4 -10  890.11   34.90
   3  -4 -10  930.21   32.50
   1   3 -10  912.11   34.20
   1   3 -10  934.51   33.70
  -1  -3  10  923.51   33.50
  -3   4  10  930.01   32.40
  -3   4  10  941.21   32.70
   4  -1  10  883.71   33.90
  -1  -3  10  919.11   35.00
   4  -1  10  906.21   33.40
   2   2 -10  510.45   21.60
   2  -4 -10  512.35   21.40
   2  -4 -10  506.95   20.30
   2   2 -10  526.65   21.10
   4  -2  10  502.55   20.20
  -2   4  10  501.85   20.80
  -2  -2  10  528.65   20.10
  -2   4  10  493.75   20.50
  -2  -2  10  503.35   21.90
   1  -4 -10  165.08   10.00
   3   1 -10  155.68   10.90
   3   1 -10  166.38   10.40
  -4   3 -10  164.78    6.60
   1  -4 -10  172.58   10.60
  -1   4  10  162.18   10.70
  -3  -1  10  169.88    8.60
   4  -3  10  179.38    9.50
  -3  -1  10  176.78   11.00
   4   0 -10  280.57   14.10
   4   0 -10  279.67   15.20
  -4   4 -10  273.17   11.30
   0  -4 -10  300.17   14.50
  -4   0  10  267.87   13.90
  -4   0  10  281.67   10.60
   4  -4  10  287.97   11.60
  -4   0  10  279.37   10.40
   0   4  10  276.17   15.20
   4  -4  10  288.67   13.10
   5  -1 -10    1.10    4.60
   5  -1 -10   11.30    5.00
  -4   5 -10    4.40    3.20
  -1  -4 -10   -0.40    3.40
   4  -5  10    2.90    4.30
   4  -5  10    3.70    4.20
  -5   1  10    4.80    3.60
   1   4  10   21.50    5.90
   4  -5  10    7.30    3.50
  -2  -4 -10  140.79   12.00
   6  -2 -10  151.38   14.10
  -4   6 -10  146.79   10.30
  -6   2  10  138.69    8.40
   4  -6  10  174.28   11.50
   2   4  10  160.68   14.10
   4  -6  10  159.08   13.30
  -4   7 -10   49.70   10.80
   7  -3 -10   53.39   13.90
   4  -7  10   36.30   11.00
   4  -7  10   50.19   13.20
   3   4  10   51.39   13.90
   7  -5 -10   49.30   11.20
  -2   7 -10   38.70    8.10
   2  -7  10   74.39   13.40
   2  -7  10   49.99   10.30
  -1   6 -10   59.19    9.60
   6  -5 -10   53.09   11.90
   1  -6  10   62.99   11.40
   1  -6  10   50.39   10.90
   5  -5 -10   73.49   10.60
   0   5 -10   52.79    8.70
   0  -5  10   68.69    9.80
   0  -5  10   68.19    9.90
   5   0  10   63.59    9.50
   1   4 -10  633.04   25.40
   4  -5 -10  612.94   26.40
   4  -5 -10  635.84   23.70
   5  -1  10  584.24   24.80
  -1  -4  10  639.44   27.00
  -4   5  10  617.64   21.70
  -1  -4  10  535.95   24.50
  -4   5  10  622.04   21.60
  -4   5  10  578.84   23.80
   3  -5 -10  262.37   15.20
   2   3 -10  256.57   14.30
   2   3 -10  255.67   14.90
   3  -5 -10  274.07   13.60
  -2  -3  10  283.27   15.60
  -3   5  10  259.37   12.90
   5  -2  10  259.67   13.30
  -3   5  10  264.27   13.00
  -2  -3  10  279.27   13.70
   3   2 -10 1534.15   55.19
   3   2 -10 1578.44   54.49
   2  -5 -10 1514.95   53.79
   2  -5 -10 1544.15   55.09
  -3  -2  10 1613.34   52.29
  -3  -2  10 1600.24   55.59
   5  -3  10 1552.14   52.59
  -2   5  10 1541.95   53.59
  -2   5  10 1631.44   54.19
   4   1 -10    2.80    4.30
   1  -5 -10    1.70    3.30
   4   1 -10    4.70    4.10
   1  -5 -10    1.60    4.50
   5  -4  10   -2.20    2.90
  -4  -1  10    2.70    4.10
  -1   5  10    8.00    4.50
  -4  -1  10    4.60    2.50
   5   0 -10   91.79   11.40
   5   0 -10  104.79   10.50
  -5   5 -10   99.99    6.70
   0  -5 -10   92.69    9.80
  -5   0  10  116.49   10.10
   0   5  10   98.89   11.00
   5  -5  10  108.89    8.30
   5  -5  10   88.89   10.60
  -1  -5 -10  164.68   13.50
   6  -1 -10  153.98   15.20
   6  -1 -10  164.68   13.70
  -5   6 -10  178.38   10.50
   5  -6  10  186.18   11.60
   1   5  10  144.59   14.80
  -6   1  10  183.28   11.20
   5  -6  10  190.28   14.60
   7  -2 -10  768.52   35.00
  -5   7 -10  785.52   29.80
  -2  -5 -10  780.52   33.60
   7  -2 -10  784.52   32.90
   5  -7  10  783.62   34.10
   2   5  10  720.13   35.00
   6  -6 -10  282.37   20.10
   0   6 -10  285.07   18.00
   0  -6  10  265.57   19.50
   0  -6  10  291.37   18.90
   1   5 -10   43.70    8.40
   5  -6 -10   46.00    8.50
   5  -6 -10   61.19   12.10
  -1  -5  10   48.90   10.30
   6  -1  10   46.20   10.00
  -1  -5  10   51.69   11.60
   4  -6 -10  129.19   10.60
   2   4 -10  121.29   11.70
   4  -6 -10  142.99   13.00
   6  -2  10  132.29   10.70
  -2  -4  10  118.29   12.90
  -2  -4  10  115.09   11.10
  -4   6  10  123.49    8.40
   3  -6 -10  125.79   10.80
   3   3 -10  159.88   12.50
   3   3 -10  135.39   12.60
   3  -6 -10  133.49   12.80
  -3  -3  10  129.19   10.20
  -3   6  10  146.99   10.40
   6  -3  10  132.19   10.00
  -3  -3  10  119.79   12.40
   2  -6 -10  170.48   13.80
   4   2 -10  137.59   12.40
   4   2 -10  145.49   13.60
   2  -6 -10  156.28   12.10
  -4  -2  10  161.08    9.20
  -4  -2  10  159.58   13.40
  -2   6  10  150.38   12.60
   6  -4  10  154.18   10.00
   1  -6 -10  147.99   13.00
   5   1 -10  169.18   15.00
   5   1 -10  183.78   14.00
  -1   6  10  172.48   13.90
  -5  -1  10  148.99   13.40
   6  -5  10  168.88   13.60
   6   0 -10  197.78   15.70
   0  -6 -10  178.88   15.00
   6   0 -10  185.08   17.20
  -6   0  10  179.28   13.90
   0   6  10  210.18   16.90
   6  -6  10  190.88   15.50
   5  -7 -10   60.29   14.90
   5  -7 -10   59.19   11.70
   2   5 -10   46.80    9.30
  -2  -5  10   75.59   12.50
   7  -2  10   69.29   12.50
  -2  -5  10   67.39   14.60
   3   4 -10   68.39   13.50
   4  -7 -10   51.79   10.80
   4  -7 -10   53.99   13.50
  -3  -4  10   70.79   14.80
  -3  -4  10   74.19   11.00
   3  -7 -10   46.10    9.50
   3  -7 -10   54.89   11.00
   4   3 -10   47.00   12.30
  -4  -3  10   36.80    8.80
   5   2 -10  817.72   34.20
   5   2 -10  751.72   35.30
   2  -7 -10  761.62   35.10
   2  -7 -10  768.52   33.60
  -2   7  10  800.12   32.80
   7  -5  10  816.32   33.20
  -5  -2  10  833.22   35.00
   0   0 -11  374.66   15.70
   0   0 -11  326.97   13.80
   0   0  11  344.57   15.60
   0   0  11  367.46   14.40
   0   1 -11  801.72   30.50
   0   1 -11  852.01   29.60
   1  -1 -11  826.92   29.90
  -1   0 -11  839.92   28.40
   0   1 -11  849.72   29.60
   1  -1 -11  946.41   32.00
  -1   1  11  852.61   30.30
   1   0  11  869.61   30.60
  -1   1  11  801.12   30.90
   1   0  11  809.22   31.10
  -1   1  11  865.11   29.70
   0  -1  11  887.81   31.50
   0  -1  11  859.31   29.80
  -1   1 -11 4131.69  131.69
   1   0 -11 4556.64  133.29
   0  -1 -11 4488.85  133.19
   0  -1 -11 4030.10  130.59
  -1   1 -11 4096.09  129.99
   1   0 -11 4017.30  131.39
   1  -1  11 4044.60  132.49
   0   1  11 3947.30  132.69
  -1   0  11 4331.97  131.79
   0   1  11 4282.47  131.69
  -1   0  11 3919.61  132.59
  -1   2 -11  401.56   15.80
  -1  -1 -11  382.96   14.80
   2  -1 -11  349.57   16.70
   2  -1 -11  358.46   15.90
  -1   2 -11  412.76   14.90
  -1  -1 -11  365.26   14.10
  -1   2 -11  371.16   14.80
  -2   1  11  375.36   16.40
   1   1  11  353.86   16.00
   1   1  11  360.76   16.50
  -2   1  11  381.26   16.50
   1  -2  11  375.16   14.90
   1  -2  11  345.47   16.20
  -2   1  11  368.76   14.50
   3  -2 -11 1357.66   46.80
   3  -2 -11 1302.97   47.10
  -1   3 -11 1301.07   45.10
  -2  -1 -11 1435.76   44.00
  -1   3 -11 1383.86   45.30
  -2  -1 -11 1331.67   43.00
   1  -3  11 1287.47   46.60
  -3   2  11 1378.06   45.90
   2   1  11 1281.67   46.90
  -3   2  11 1391.56   43.80
   1  -3  11 1349.27   45.40
  -3   2  11 1201.98   46.30
   2  -2 -11  292.67   14.90
   0   2 -11  282.37   12.90
   0   2 -11  303.57   14.10
  -2   0 -11  273.27   10.50
   2  -2 -11  283.47   13.60
   0   2 -11  300.27   13.10
  -2   2  11  314.57   14.10
   2   0  11  279.87   13.80
   0  -2  11  307.37   13.60
   0  -2  11  280.97   14.10
   2   0  11  292.17   13.90
  -2   2  11  307.77   12.60
   1   1 -11  367.96   16.40
   1  -2 -11  368.36   15.40
  -2   1 -11  356.46   12.60
   1   1 -11  364.26   15.50
   1   1 -11  341.97   15.00
   1  -2 -11  340.17   16.40
  -2   1 -11  351.86   13.40
  -1   2  11  373.16   16.40
   2  -1  11  370.56   16.00
  -1   2  11  367.76   15.10
  -1  -1  11  345.47   16.20
  -1  -1  11  379.36   15.80
   0  -2 -11 1546.55   51.39
  -2   2 -11 1562.54   50.29
   0  -2 -11 1558.44   51.59
   2   0 -11 1529.55   52.59
   2  -2  11 1493.65   52.39
  -2   0  11 1496.15   52.89
   0   2  11 1562.34   52.19
   2  -2  11 1603.84   50.09
  -2   0  11 1597.94   52.79
   0   2  11 1588.24   53.59
  -2   3 -11 3262.27  102.49
  -2   3 -11 3188.48  102.69
  -1  -2 -11 3417.96  103.39
   3  -1 -11 3276.07  105.19
  -1  -2 -11 3243.88  102.79
   3  -1 -11 3384.66  105.79
  -3   1  11 3099.79  104.29
   1   2  11 3146.49  105.69
   2  -3  11 3024.30  104.39
   2  -3  11 3357.76  102.89
  -3   1  11 3323.47  101.89
  -2  -2 -11  134.59    8.80
   4  -2 -11  147.09   10.50
  -2   4 -11  134.99    8.60
  -2   4 -11  156.58    8.00
  -2  -2 -11  143.09    7.90
   2   2  11  131.59   10.50
  -4   2  11  151.38    7.00
  -4   2  11  144.29    9.00
   2  -4  11  141.19    9.60
   2  -4  11  131.49   10.20
  -3  -2 -11  157.28    8.50
  -3  -2 -11  136.79    9.40
  -2   5 -11  148.69    8.80
   5  -3 -11  150.48   12.50
  -3  -2 -11  148.29    8.10
  -2   5 -11  155.48   10.30
  -5   3  11  153.08    8.40
  -5   3  11  152.88    6.50
   2  -5  11  146.49   11.20
   3   2  11  133.69   11.90
   2  -5  11  137.89   11.50
   4  -3 -11 2366.06   77.89
  -3  -1 -11 2318.77   71.99
  -3  -1 -11 2337.97   72.09
  -1   4 -11 2267.27   75.49
  -1   4 -11 2319.27   75.89
  -3  -1 -11 2359.96   73.29
   3   1  11 2224.08   77.49
  -4   3  11 2380.96   73.49
   1  -4  11 2338.27   77.39
   1  -4  11 2145.99   76.19
   1  -4  11 2395.86   77.69
  -4   3  11 2245.58   74.69
   0   3 -11  136.39    8.90
   0   3 -11  143.89    9.70
   3  -3 -11  128.19    9.60
  -3   0 -11  138.69    6.30
   3  -3 -11  122.19   10.80
   0   3 -11  128.09    8.90
  -3   3  11  132.79    7.90
  -3   3  11  133.69    8.60
   3   0  11  130.09    9.20
   0  -3  11  123.49    9.50
   0  -3  11  128.39   10.30
   0  -3  11  128.79    9.40
   2  -3 -11 1375.16   46.50
  -3   1 -11 1332.27   42.40
   1   2 -11 1312.87   46.60
   1   2 -11 1380.26   45.90
   2  -3 -11 1313.37   47.30
   1   2 -11 1325.27   46.10
  -1  -2  11 1301.27   46.30
   3  -1  11 1323.17   46.30
   3  -1  11 1439.86   46.50
  -2   3  11 1269.57   45.80
  -2   3  11 1380.36   45.10
  -1  -2  11 1238.38   46.80
   1  -3 -11 3243.18  103.69
   1  -3 -11 3154.98  103.39
  -3   2 -11 3211.08  100.59
   2   1 -11 3264.87  103.79
   2   1 -11 3369.46  104.69
  -2  -1  11 3067.89  104.09
  -2  -1  11 3274.47  104.99
  -1   3  11 3203.78  104.69
   3  -2  11 3255.57  103.89
  -1   3  11 3214.48  103.39
   3   0 -11  731.93   28.80
   0  -3 -11  733.83   27.90
   0  -3 -11  777.72   27.70
  -3   3 -11  745.73   25.60
   0  -3 -11  726.93   27.80
   3  -3  11  724.83   27.50
  -3   0  11  738.83   28.50
   3  -3  11  774.52   25.20
   0   3  11  747.23   29.20
  -1  -3 -11  520.35   21.50
  -1  -3 -11  521.75   20.80
   4  -1 -11  528.05   22.90
  -3   4 -11  529.45   20.00
   1   3  11  531.75   23.50
  -4   1  11  533.25   18.10
  -4   1  11  522.75   21.50
   3  -4  11  534.35   21.70
   3  -4  11  544.55   20.40
  -3   5 -11 1988.30   65.59
   5  -2 -11 2000.60   69.19
  -2  -3 -11 2083.59   65.79
   3  -5  11 1959.70   66.59
   3  -5  11 2004.00   68.69
   2   3  11 1936.01   69.39
   3  -5  11 1952.00   66.99
  -5   2  11 2015.10   65.39
  -3   6 -11   34.40    7.80
   6  -3 -11   33.90    8.60
   3  -6  11   47.50    9.20
   3   3  11   45.40   11.50
   3  -6  11   36.90    9.90
  -3   7 -11  886.21   34.40
   7  -4 -11  812.42   37.70
   3  -7  11  835.22   37.00
   3  -7  11  886.51   36.20
   6  -4 -11   26.90    6.90
  -2   6 -11   37.80    8.60
   2  -6  11   21.50    6.30
   2  -6  11   24.90    6.60
   4   2  11   26.40    7.40
   5  -4 -11  323.17   18.40
  -1   5 -11  317.87   16.30
  -1   5 -11  327.77   16.60
  -5   4  11  327.27   12.50
   1  -5  11  336.87   17.80
   1  -5  11  329.07   17.90
   4   1  11  341.47   18.10
   0   4 -11 1116.09   40.50
   4  -4 -11 1075.69   41.70
  -4   4  11 1171.58   38.50
  -4   4  11 1141.49   38.50
   0  -4  11 1130.39   41.20
   4   0  11 1132.09   41.30
   0  -4  11 1089.99   41.90
   1   3 -11 2180.08   73.79
   3  -4 -11 2192.68   71.89
   1   3 -11 1845.62   72.39
   3  -4 -11 2049.49   73.79
  -1  -3  11 2478.85   75.79
  -1  -3  11 2273.97   73.29
  -3   4  11 2248.48   72.49
   4  -1  11 2264.17   73.49
  -3   4  11 2274.87   71.99
   2   2 -11  152.28   10.70
   2   2 -11  154.78   10.10
   2  -4 -11  141.99   10.20
   2  -4 -11  134.69    9.30
  -2  -2  11  156.78   10.90
   4  -2  11  142.29    9.40
  -2   4  11  158.28   10.20
  -2  -2  11  152.58    9.30
   3   1 -11  505.65   22.10
   3   1 -11  441.16   20.70
   1  -4 -11  526.95   21.40
  -4   3 -11  517.35   17.20
   1  -4 -11  519.25   21.50
  -1   4  11  491.15   21.90
  -3  -1  11  533.75   19.40
  -3  -1  11  504.45   22.10
   4  -3  11  514.85   20.60
   4   0 -11   68.09    9.20
   0  -4 -11   81.99    8.30
   0  -4 -11   81.39    8.40
   4   0 -11   75.19    8.30
  -4   4 -11   68.79    5.40
  -4   0  11   65.29    8.00
   4  -4  11   74.59    5.90
  -4   0  11   77.19    5.00
   0   4  11   81.49    9.00
  -4   0  11   68.79    4.90
   4  -4  11   78.39    7.30
  -1  -4 -11   45.50    8.20
   5  -1 -11   45.50    9.50
   5  -1 -11   42.80    8.90
  -4   5 -11   52.39    6.00
   1   4  11   34.80    9.30
   4  -5  11   34.40    7.00
  -5   1  11   63.49    8.00
   6  -2 -11  836.62   34.30
  -2  -4 -11  794.22   31.90
  -4   6 -11  764.72   29.30
   4  -6  11  743.33   30.50
   2   4  11  790.32   34.20
   4  -6  11  782.92   32.80
  -4   7 -11 1324.97   47.00
   7  -3 -11 1334.77   52.29
   4  -7  11 1295.37   48.40
   4  -7  11 1282.47   50.59
   6  -5 -11  565.94   28.70
  -1   6 -11  624.54   26.60
   1  -6  11  639.94   28.30
   1  -6  11  557.14   27.60
   5   1  11  562.14   27.90
   0   5 -11 2035.60   70.19
   5  -5 -11 2065.39   72.19
   0  -5  11 2035.60   71.99
   0  -5  11 2029.70   70.79
   5   0  11 2078.09   71.09
   4  -5 -11  316.77   18.30
   4  -5 -11  333.47   15.60
   1   4 -11  364.26   17.60
  -1  -4  11  331.17   17.20
  -4   5  11  331.67   14.10
  -1  -4  11  307.87   18.10
   5  -1  11  343.77   17.10
   3  -5 -11  141.79   11.90
   2   3 -11  134.39   11.60
   3  -5 -11  144.39   10.10
   2   3 -11  149.49   11.20
  -3   5  11  165.98   10.40
   5  -2  11  154.78   10.40
  -3   5  11  166.78   10.80
  -2  -3  11  146.49   10.30
  -2  -3  11  129.49   11.90
   3   2 -11 1915.61   67.89
   2  -5 -11 1979.60   67.79
   3   2 -11 1982.30   67.19
   2  -5 -11 1950.40   66.59
  -2   5  11 1974.10   66.79
  -3  -2  11 2029.00   64.89
  -3  -2  11 1987.50   68.29
   5  -3  11 1948.31   65.59
   4   1 -11   49.80    9.60
   1  -5 -11   44.80    7.90
   1  -5 -11   45.60    8.80
   4   1 -11   44.10    8.40
  -1   5  11   46.10    8.80
   5  -4  11   52.69    6.90
  -4  -1  11   46.50    5.30
  -4  -1  11   46.90    9.00
   5   0 -11 1282.77   48.10
   0  -5 -11 1213.58   46.30
   5   0 -11 1266.27   46.20
  -5   5 -11 1255.07   41.50
   0  -5 -11 1306.57   46.60
   5  -5  11 1296.67   44.10
   5  -5  11 1270.37   46.90
  -5   0  11 1301.37   45.70
   0   5  11 1198.88   47.30
  -1  -5 -11 1206.38   46.70
  -5   6 -11 1234.48   42.40
   6  -1 -11 1229.68   46.40
   6  -1 -11 1250.17   48.60
   1   5  11 1236.38   48.60
  -6   1  11 1260.57   43.60
   5  -6  11 1215.28   47.10
   5  -6  11 1319.57   44.40
   0   6 -11   14.30    7.20
   6  -6 -11   25.70    8.90
   0  -6  11   23.00    7.80
   0  -6  11   14.10    7.50
   6   0  11   14.40    7.50
   1   5 -11  584.94   27.40
   5  -6 -11  631.94   29.40
   5  -6 -11  622.44   25.00
  -1  -5  11  638.04   29.80
   6  -1  11  569.64   26.90
  -1  -5  11  610.04   27.70
   4  -6 -11   27.30    5.90
   4  -6 -11   12.20    6.10
   2   4 -11   26.20    6.90
  -2  -4  11   11.40    5.60
   6  -2  11   18.00    5.20
  -2  -4  11   50.39   11.70
   3  -6 -11   52.19   10.80
   3  -6 -11   34.20    8.70
   3   3 -11   84.39   10.90
   3   3 -11   44.10   10.60
  -3  -3  11   46.80   10.80
  -3  -3  11   52.09    8.60
  -3   6  11   40.50    8.50
   6  -3  11   52.19    8.60
   4   2 -11  812.22   33.30
   2  -6 -11  830.52   32.90
   2  -6 -11  786.52   33.60
   4   2 -11  814.22   34.50
   6  -4  11  851.31   30.70
  -2   6  11  802.02   32.30
  -4  -2  11  813.62   33.80
  -4  -2  11  801.42   28.90
   1  -6 -11 1191.78   45.50
   5   1 -11 1215.48   46.90
   5   1 -11 1197.48   44.90
   1  -6 -11 1185.38   45.10
  -1   6  11 1163.38   45.20
   6  -5  11 1188.58   45.00
  -5  -1  11 1174.58   44.50
   6   0 -11   45.30   10.00
   6   0 -11   43.50    9.10
   0  -6 -11   53.89   12.10
   0   6  11   31.20    8.40
   6  -6  11   40.60    8.50
  -6   0  11   57.09   11.70
   3   4 -11  870.21   36.50
   4  -7 -11  860.71   34.60
   4  -7 -11  834.02   37.20
  -3  -4  11  752.12   36.80
  -3  -4  11  890.71   33.50
   3  -7 -11 1340.47   49.70
   3  -7 -11 1326.07   51.69
   4   3 -11 1330.87   50.49
  -4  -3  11 1323.07   51.79
   0   0 -12 4282.07  133.89
   0   0 -12 4123.69  131.89
   0   0  12 4111.99  134.09
   0   0  12 4285.57  132.29
   0   0  12 4193.78  132.69
  -1   0 -12 2219.68   70.69
   1  -1 -12 2193.18   72.39
   0   1 -12 2157.68   71.89
   1  -1 -12 2244.48   74.19
   0   1 -12 2243.78   73.39
   0   1 -12 2179.78   71.89
  -1   1  12 2137.89   73.69
  -1   1  12 2329.97   72.29
   0  -1  12 2297.37   72.29
   1   0  12 2136.09   73.89
  -1   1  12 2276.67   72.89
   0  -1  12 2200.28   73.99
   1   0  12 2314.27   73.19
   1   0 -12 1190.18   41.30
  -1   1 -12 1265.27   41.80
   0  -1 -12 1198.48   40.50
   0  -1 -12 1182.48   42.60
  -1   1 -12 1189.78   39.80
   1   0 -12 1246.18   42.90
   0   1  12 1228.28   41.60
   1  -1  12 1168.68   42.40
  -1   0  12 1199.68   41.50
   1  -1  12 1258.67   40.20
   0   1  12 1180.48   42.70
  -1   0  12 1158.08   42.60
  -1   2 -12  686.63   25.00
  -1   2 -12  747.83   26.40
   2  -1 -12  690.13   26.50
  -1  -1 -12  696.23   24.50
  -1   2 -12  680.83   25.20
   1  -2  12  664.73   27.00
  -2   1  12  715.43   25.10
  -2   1  12  688.63   26.80
   1  -2  12  719.73   25.40
  -2   1  12  696.93   27.20
   1   1  12  734.23   27.80
  -2  -1 -12 2088.79   64.69
  -1   3 -12 2013.80   65.79
   3  -2 -12 2004.60   67.49
  -2  -1 -12 1911.61   63.29
  -1   3 -12 2033.40   66.09
  -3   2  12 1931.91   66.49
  -3   2  12 2010.70   64.39
   2   1  12 1917.51   67.79
   1  -3  12 2085.69   67.99
   1  -3  12 2010.00   66.09
   0   2 -12 1377.56   48.00
   2  -2 -12 1340.97   51.29
  -2   0 -12 1397.16   44.20
   0   2 -12 1378.96   47.00
   2  -2 -12 1398.26   47.90
   0   2 -12 1403.06   47.20
   2   0  12 1421.76   48.70
   0  -2  12 1370.16   47.30
   0  -2  12 1386.76   48.80
  -2   2  12 1369.46   48.20
  -2   2  12 1427.36   46.50
  -2   1 -12  682.63   23.00
   1   1 -12  681.83   26.00
   1  -2 -12  683.63   25.80
  -2   1 -12  684.83   23.90
   1   1 -12  706.93   27.30
   1   1 -12  719.13   26.00
  -1   2  12  673.53   26.90
  -1   2  12  700.93   25.80
   2  -1  12  694.83   26.80
  -1  -1  12  707.73   26.50
  -1  -1  12  684.53   27.20
   0  -2 -12   99.39    6.90
  -2   2 -12   97.49    6.10
   2   0 -12   91.09    7.80
   0  -2 -12  127.79    8.20
   0   2  12   93.69    8.30
   2  -2  12   88.69    7.70
   2  -2  12   91.29    6.00
   0   2  12  105.59    8.60
  -2   0  12   94.49    8.70
  -2   0  12  108.29    8.40
  -2   3 -12  522.65   20.10
  -1  -2 -12  525.05   19.90
   3  -1 -12  525.75   22.30
  -2   3 -12  541.85   20.00
  -1  -2 -12  515.05   20.70
   2  -3  12  534.75   22.10
  -3   1  12  565.04   19.60
   2  -3  12  547.75   20.30
   1   2  12  504.85   22.60
  -3   1  12  544.55   22.00
  -2   4 -12 2144.89   66.39
  -2  -2 -12 1996.90   65.99
  -2  -2 -12 2083.49   66.89
   4  -2 -12 1991.80   69.89
  -2   4 -12 2055.59   67.49
  -4   2  12 2111.89   65.29
   2  -4  12 1900.91   68.89
  -4   2  12 2175.98   68.39
   2  -4  12 2024.70   67.89
   2   2  12 2016.90   70.59
  -3  -2 -12  925.71   31.20
  -2   5 -12  933.81   34.30
   5  -3 -12  897.11   36.70
   2  -5  12  925.61   36.30
   3   2  12  910.91   37.10
  -5   3  12  905.11   32.20
   2  -5  12  961.80   36.20
  -3  -1 -12  741.93   24.40
   4  -3 -12  734.73   30.40
  -1   4 -12  757.12   28.60
  -3  -1 -12  768.12   24.40
  -1   4 -12  713.23   28.20
  -3  -1 -12  774.62   26.10
   1  -4  12  775.42   30.40
   1  -4  12  734.33   30.10
   3   1  12  740.23   30.40
  -4   3  12  774.52   26.40
  -4   3  12  742.93   27.70
   0   3 -12  861.81   32.70
   0   3 -12  837.92   32.00
   0   3 -12  881.41   32.00
  -3   0 -12  919.01   29.00
   3  -3 -12  897.51   33.30
   3   0  12  834.42   33.00
   0  -3  12  781.22   32.50
  -3   3  12  857.11   31.90
   0  -3  12  894.51   32.90
   0  -3  12  874.01   33.60
  -3   3  12  899.71   30.70
   1   2 -12 2004.70   64.39
  -3   1 -12 1933.01   60.69
   2  -3 -12 1972.70   64.99
   1   2 -12 1957.70   64.59
   3  -1  12 1918.31   64.79
  -1  -2  12 1939.41   65.89
  -2   3  12 1915.41   63.39
  -2   3  12 1942.31   64.69
  -1  -2  12 1723.03   64.39
  -3   2 -12  513.95   18.40
   2   1 -12  517.75   22.00
   1  -3 -12  535.65   21.40
   2   1 -12  518.95   21.40
  -1   3  12  554.74   22.60
  -2  -1  12  512.15   22.40
   3  -2  12  529.45   21.70
   3   0 -12  456.55   19.70
  -3   3 -12  450.85   17.00
   3   0 -12  474.75   20.40
   0  -3 -12  463.85   18.90
   3  -3  12  452.95   16.50
   3  -3  12  434.96   19.10
  -3   0  12  463.85   20.20
  -3   0  12  489.75   17.30
   0   3  12  401.16   20.10
  -3   4 -12 1152.28   38.90
  -1  -3 -12 1151.58   39.80
   4  -1 -12 1120.79   42.30
  -4   1  12 1153.48   41.00
   3  -4  12 1151.18   39.00
  -4   1  12 1136.79   37.10
   3  -4  12 1117.09   41.00
   1   3  12 1149.08   42.90
   5  -2 -12  862.51   35.30
  -3   5 -12  865.71   31.80
  -2  -3 -12  865.51   31.40
  -5   2  12  925.31   32.10
   3  -5  12  910.71   33.70
   2   3  12  880.41   35.90
   3  -5  12  845.22   34.90
   3  -5  12  845.02   33.30
  -3  -3 -12  137.09    9.90
  -3   6 -12  133.99   11.30
   6  -3 -12  145.29   15.00
   3   3  12  130.09   14.80
   3  -6  12  129.99   12.70
   3  -6  12  150.88   14.00
   6  -4 -12  584.34   28.90
  -2   6 -12  599.44   25.70
   2  -6  12  613.84   28.20
   2  -6  12  587.34   27.50
   4   2  12  597.14   29.10
  -1   5 -12  204.78   13.20
   5  -4 -12  190.28   15.10
   1  -5  12  217.88   14.70
  -5   4  12  207.48   10.00
   1  -5  12  214.18   14.80
   4   1  12  210.18   14.90
   0   4 -12   35.00    7.50
   4  -4 -12   27.70    6.70
   4   0  12   25.00    7.60
   0  -4  12   19.20    5.50
  -4   4  12   30.70    5.80
   0  -4  12   37.80    8.50
   1   3 -12  716.43   29.30
   1   3 -12  740.03   29.00
   3  -4 -12  739.13   29.90
  -1  -3  12  747.13   30.70
  -1  -3  12  756.42   29.00
   4  -1  12  712.83   29.10
  -3   4  12  793.12   28.60
   2   2 -12 2002.90   67.09
   2   2 -12 1974.50   67.79
   2  -4 -12 1920.71   67.29
   2  -4 -12 2013.60   66.39
  -2  -2  12 1901.11   68.19
  -2  -2  12 2014.70   65.99
  -2   4  12 1990.20   67.09
   4  -2  12 2066.89   66.99
   3   1 -12 1128.19   42.10
   1  -4 -12 1134.09   41.00
  -4   3 -12 1112.59   36.60
   1  -4 -12 1123.19   41.10
   3   1 -12 1136.39   41.20
  -3  -1  12 1093.39   41.80
  -3  -1  12 1179.98   39.10
  -1   4  12 1194.78   42.40
   4  -3  12 1137.39   40.40
   4   0 -12  779.32   31.30
  -4   4 -12  800.22   27.80
   0  -4 -12  847.72   31.10
   4   0 -12  825.32   32.80
   0  -4 -12  787.92   31.40
   4  -4  12  778.02   30.30
  -4   0  12  825.42   31.60
  -4   0  12  799.42   27.50
  -4   0  12  850.01   27.40
   0   4  12  816.52   32.80
   4  -4  12  808.62   27.30
  -1  -4 -12  439.56   19.90
   5  -1 -12  455.65   21.30
   5  -1 -12  431.66   22.30
  -1  -4 -12  442.46   20.80
  -4   5 -12  433.86   17.70
   1   4  12  412.76   22.20
   4  -5  12  430.46   19.60
   4  -5  12  432.16   21.80
  -5   1  12  447.96   20.00
   6  -2 -12   14.10    8.20
  -4   6 -12    8.80    5.20
  -2  -4 -12   10.30    5.80
   2   4  12    7.90    7.00
   4  -6  12   10.60    7.00
   4  -6  12    4.70    5.20
   6  -5 -12  641.84   30.90
  -1   6 -12  624.54   28.10
   5   1  12  624.94   30.10
   1  -6  12  642.24   29.60
   1  -6  12  623.54   29.80
   5  -5 -12   74.39   12.30
   0   5 -12   89.39   10.80
   0  -5  12  102.19   12.40
   5   0  12   84.49   11.60
   0  -5  12   79.59   11.70
   4  -5 -12  210.38   15.30
   1   4 -12  211.98   14.30
   5  -1  12  216.98   14.20
  -1  -4  12  226.68   14.20
  -1  -4  12  232.28   15.70
  -4   5  12  213.68   11.50
   3  -5 -12  909.51   36.20
   2   3 -12  903.21   36.20
   2   3 -12  948.91   35.60
   3  -5 -12  971.90   34.70
  -2  -3  12  945.41   34.60
   5  -2  12  887.61   34.70
  -2  -3  12  888.71   36.80
  -3   5  12  978.20   34.40
  -3   5  12  863.91   33.80
   3   2 -12  841.12   34.00
   2  -5 -12  883.71   34.60
   2  -5 -12  910.91   33.80
   3   2 -12  878.71   35.00
  -3  -2  12  861.31   31.80
  -2   5  12  845.82   33.80
  -3  -2  12  886.21   35.30
   5  -3  12  913.31   33.20
   4   1 -12  419.56   21.80
   4   1 -12  430.66   20.70
   1  -5 -12  443.46   20.90
   1  -5 -12  429.26   20.60
  -4  -1  12  430.46   16.70
   5  -4  12  436.36   19.10
  -4  -1  12  438.06   21.20
  -1   5  12  420.46   21.40
   0  -5 -12 1422.86   50.99
   0  -5 -12 1416.16   51.59
   5   0 -12 1431.66   51.39
   5   0 -12 1387.66   52.79
   5  -5  12 1451.05   52.29
  -5   0  12 1376.36   50.49
   5  -5  12 1413.86   49.10
   0   5  12 1410.46   52.49
   6  -1 -12  267.77   20.40
  -1  -5 -12  278.37   18.30
  -1  -5 -12  305.17   18.10
   6  -1 -12  303.47   19.00
   5  -6  12  265.37   18.50
   1   5  12  281.87   20.10
   5  -6 -12  596.94   30.20
   1   5 -12  626.84   28.80
  -1  -5  12  649.24   29.10
  -1  -5  12  579.34   30.60
   6  -1  12  676.13   29.00
   4  -6 -12  583.34   25.40
   2   4 -12  581.14   27.00
   4  -6 -12  597.14   28.60
   6  -2  12  566.64   26.00
  -2  -4  12  616.84   26.30
  -2  -4  12  612.34   29.50
   3   3 -12  145.99   14.60
   3  -6 -12  136.29   13.90
   3  -6 -12  143.69   12.50
   3   3 -12  135.29   13.50
  -3  -3  12  174.18   15.40
  -3  -3  12  128.59   11.40
  -3   6  12  129.79   11.80
   6  -3  12  152.08   11.90
   2  -6 -12    7.20    5.10
   4   2 -12   10.80    6.90
   4   2 -12   11.40    7.50
   2  -6 -12   14.80    7.40
  -4  -2  12   16.90    6.70
  -2   6  12    7.60    6.20
   1  -6 -12  289.67   19.20
   5   1 -12  271.77   20.30
   5   1 -12  288.67   18.70
   1  -6 -12  296.87   18.30
  -1   6  12  268.17   18.90
  -5  -1  12  317.27   19.20
   6  -5  12  254.67   18.70
   0   0 -13 1783.92   59.79
   0   0 -13 1770.72   57.79
   0   0  13 1729.33   59.99
   0   0  13 1799.42   58.09
   0   0  13 1713.53   58.59
   1  -1 -13  480.05   20.80
  -1   0 -13  437.36   16.70
   0   1 -13  440.26   17.90
   0   1 -13  461.25   19.60
   1  -1 -13  434.06   18.20
   0   1 -13  446.96   18.00
  -1   1  13  429.96   19.60
   1   0  13  417.76   19.20
   0  -1  13  444.46   19.80
  -1   1  13  448.76   18.30
   0  -1  13  457.25   18.40
  -1   1  13  461.85   19.20
   1   0  13  473.65   20.10
   1   0 -13   66.39    6.40
  -1   1 -13   87.69    5.80
  -1   1 -13   72.89    7.50
   0  -1 -13   81.49    8.90
  -1   1 -13   77.19    6.00
  -1   0  13   80.59    6.80
  -1   0  13   80.99    7.70
   1  -1  13   77.59    7.40
   1  -1  13   72.99    6.00
  -1   0  13  102.79    8.20
   0   1  13   71.29    7.50
   0   1  13   72.89    7.80
  -1   2 -13   -0.90    3.10
  -1  -1 -13    5.20    2.30
  -1   2 -13   -2.50    2.30
  -1   2 -13    4.00    2.50
   2  -1 -13   -4.00    2.80
  -2   1  13   -1.10    2.70
  -2   1  13   19.80    5.00
   1  -2  13    3.70    2.80
   1   1  13    5.90    3.10
  -2   1  13    5.70    4.20
   1  -2  13   12.20    3.60
  -1   3 -13   66.59    7.10
  -1   3 -13   73.89    8.00
  -2  -1 -13   76.89    5.10
   3  -2 -13   71.09    8.00
  -2  -1 -13   83.09    7.20
   1  -3  13   64.89    8.10
  -3   2  13   87.79    7.00
   2   1  13   73.89    8.30
   1  -3  13   72.89    8.70
  -3   2  13   72.79    7.80
   0   2 -13 1593.84   54.19
   2  -2 -13 1604.34   55.19
   0   2 -13 1593.54   54.39
  -2   0 -13 1581.44   51.29
   0   2 -13 1653.73   55.59
   0  -2  13 1637.04   54.79
  -2   2  13 1616.44   53.79
  -2   2  13 1639.64   55.89
   2   0  13 1632.34   56.29
   0  -2  13 1607.24   56.29
  -2   1 -13   -2.00    2.10
   1  -2 -13   13.30    3.70
   1   1 -13   -0.50    3.00
  -2   1 -13    1.50    1.70
   1   1 -13    3.60    4.60
   1   1 -13   -0.50    2.70
  -1  -1  13    1.40    3.70
  -1   2  13    2.40    2.90
  -1  -1  13    4.20    3.40
   2  -1  13   -0.70    2.60
  -1   2  13   -2.40    3.60
   2   0 -13  370.56   17.20
   0  -2 -13  342.37   16.70
   0  -2 -13  385.66   16.20
  -2   2 -13  371.66   15.20
  -2   0  13  403.16   16.00
   2  -2  13  405.76   15.10
   0   2  13  380.86   18.30
   2  -2  13  391.26   17.60
  -2   0  13  403.86   18.20
  -2   3 -13  194.78   10.10
  -1  -2 -13  180.68    9.60
  -2   3 -13  195.78    9.90
  -1  -2 -13  175.68   10.80
   3  -1 -13  194.88   11.90
   1   2  13  170.48   12.10
   2  -3  13  171.48   11.20
  -3   1  13  178.28   11.40
   2  -3  13  193.38   10.50
  -3   1  13  186.58    9.50
  -2  -2 -13  898.41   30.30
  -2  -2 -13  857.21   31.50
  -2   4 -13  886.51   31.90
  -2   4 -13  923.41   31.00
   4  -2 -13  876.21   34.40
  -4   2  13  913.41   29.90
   2  -4  13  753.22   33.10
   2  -4  13  865.11   32.70
   2   2  13  879.51   35.10
  -4   2  13  893.61   32.80
   5  -3 -13  599.84   27.60
  -3  -2 -13  588.24   21.30
  -2   5 -13  610.64   24.90
  -5   3  13  622.64   23.50
   2  -5  13  589.74   27.00
   2  -5  13  611.14   26.80
   3   2  13  597.84   28.00
  -1   4 -13   56.09    8.60
  -3  -1 -13   68.79    6.60
   4  -3 -13   71.39    9.50
  -1   4 -13   62.99    8.30
  -4   3  13   59.29    7.50
  -4   3  13   69.99    7.20
   3   1  13   72.99    9.40
   1  -4  13   72.89    9.50
   1  -4  13   61.89    8.80
   0   3 -13  181.78   11.50
   0   3 -13  202.88   12.00
  -3   0 -13  203.48    9.20
   3  -3 -13  211.58   13.00
   0  -3  13  210.58   13.30
  -3   3  13  212.88   12.20
   3   0  13  186.28   12.40
  -3   3  13  196.08   10.90
   1   2 -13   73.29    7.80
  -3   1 -13   72.59    4.90
   2  -3 -13   56.79    7.70
   1   2 -13   67.19    7.40
   3  -1  13   68.09    7.70
  -1  -2  13   69.59    8.50
  -2   3  13   78.19    8.20
   1  -3 -13  167.68   10.60
  -3   2 -13  175.28    8.20
   2   1 -13  131.79    9.90
   2   1 -13  172.68   11.40
   3  -2  13  166.78   10.80
  -2  -1  13  179.48   11.90
  -1   3  13  174.68   11.60
   3   0 -13  212.38   12.50
   3   0 -13  184.88   12.40
  -3   3 -13  182.78    9.30
   0  -3 -13  195.08   11.20
   0   3  13  195.18   13.00
  -3   0  13  185.88    9.80
  -3   0  13  193.98   12.30
   3  -3  13  194.78   11.70
   3  -3  13  191.98    9.10
  -3   4 -13  193.68   10.60
  -1  -3 -13  207.18   11.40
   4  -1 -13  217.78   14.10
  -4   1  13  219.78    9.60
   3  -4  13  210.68   12.90
   1   3  13  202.38   14.00
  -4   1  13  166.98   12.00
   3  -4  13  223.98   12.00
   5  -2 -13   -6.20    5.70
  -3   5 -13    5.40    4.20
  -2  -3 -13    0.70    4.10
   3  -5  13    3.00    4.60
   3  -5  13    2.70    5.10
   2   3  13   -0.40    5.00
  -5   2  13    0.40    4.20
  -3   6 -13    0.70    5.20
   6  -3 -13   10.50    7.80
   3   3  13    2.80    7.50
   3  -6  13   10.60    6.30
   3  -6  13    9.60    6.50
   6  -4 -13  640.84   31.40
  -2   6 -13  638.34   27.80
   2  -6  13  633.94   30.40
   4   2  13  706.23   32.00
   2  -6  13  627.04   29.70
   5  -4 -13  133.89   13.70
  -1   5 -13  137.09   11.70
   4   1  13  130.89   13.50
   1  -5  13  136.49   13.20
  -5   4  13  125.09    8.70
   1  -5  13  146.59   13.30
   4  -4 -13  205.88   14.80
   0   4 -13  226.28   13.70
  -4   4  13  230.28   12.20
   0  -4  13  222.88   14.20
  -4   4  13  207.08   12.50
   4   0  13  202.38   14.20
   0  -4  13  204.58   15.00
   1   3 -13   64.49    8.60
   3  -4 -13   76.79    9.50
   1   3 -13   50.09    8.30
   4  -1  13   63.99    8.40
  -1  -3  13   82.99    8.90
  -3   4  13   61.09    8.20
  -1  -3  13   57.19    9.60
   2  -4 -13  930.61   34.80
   2   2 -13  939.11   34.40
   2   2 -13  869.41   34.80
   4  -2  13  882.81   34.20
  -2  -2  13  881.91   35.70
  -2   4  13  893.71   34.40
  -2  -2  13  929.11   33.60
   1  -4 -13  210.88   12.90
   3   1 -13  207.38   13.20
   3   1 -13  214.98   14.10
  -4   3 -13  214.18    9.00
   4  -3  13  204.58   12.60
  -3  -1  13  205.48   13.70
  -3  -1  13  242.28   11.70
  -1   4  13  216.18   14.20
   4   0 -13  973.10   38.50
  -4   4 -13  993.50   33.30
   0  -4 -13  938.01   36.30
   4   0 -13 1040.10   37.60
  -4   0  13  984.80   33.30
   0   4  13  983.30   38.70
   4  -4  13  976.50   36.60
  -4   0  13  982.90   37.50
  -1  -4 -13   67.39    9.80
   5  -1 -13  111.59   12.20
   5  -1 -13   98.29   12.60
  -4   5 -13   98.69    8.20
   1   4  13  102.59   12.90
   4  -5  13   72.99    9.50
   4  -5  13  113.59   12.90
  -5   1  13  101.79   10.70
  -4   6 -13   91.39   10.20
   6  -2 -13  101.69   14.90
  -2  -4 -13   88.89   11.80
   6  -2 -13  106.29   15.40
   2   4  13   99.49   15.40
   4  -6  13  121.29   14.40
   4  -6  13  108.19   12.90
   6  -5 -13   14.60    8.50
  -1   6 -13    8.70    7.20
   5   1  13    7.20    7.80
   1  -6  13    6.60    8.40
   1  -6  13    7.20    7.40
   0   5 -13  175.38   14.10
   5  -5 -13  172.08   16.10
   0  -5  13  162.28   15.30
   5   0  13  172.88   14.80
   0  -5  13  167.58   14.80
   4  -5 -13  138.89   13.80
   1   4 -13  121.19   12.30
  -1  -4  13  120.99   13.30
   5  -1  13  112.09   11.80
  -4   5  13  135.49   10.00
  -1  -4  13  125.19   12.30
   3  -5 -13  604.34   27.30
   2   3 -13  609.84   26.50
   2   3 -13  614.04   27.30
  -2  -3  13  638.14   25.90
  -2  -3  13  616.44   28.30
   5  -2  13  669.33   26.40
  -3   5  13  556.14   25.00
   3   2 -13    1.50    4.90
   3   2 -13    6.40    5.80
   2  -5 -13    2.00    5.10
   2  -5 -13   -3.10    4.30
  -3  -2  13    4.00    5.10
   5  -3  13   10.20    4.90
  -2   5  13   -0.20    4.80
  -3  -2  13   -3.30    3.90
   1  -5 -13  120.29   11.60
   4   1 -13  116.49   12.20
   4   1 -13   90.09   12.30
   1  -5 -13  100.89   10.90
  -4  -1  13   99.09   11.80
   5  -4  13   91.29    9.80
  -4  -1  13   96.79    7.80
  -1   5  13   91.59   12.00
   0  -5 -13    5.40    5.80
   5   0 -13   25.20    8.30
   0  -5 -13   13.70    6.40
   5   0 -13   10.80    6.60
   5  -5  13    0.60    5.30
  -5   0  13   11.00    6.10
   0   5  13   10.70    6.40
   6  -1 -13  109.39   15.50
   6  -1 -13  129.99   17.70
  -1  -5 -13  117.89   14.40
   1   5  13   92.09   16.30
   5  -6  13  126.49   15.20
   1   5 -13   13.10    8.90
   5  -6 -13   23.90    9.70
  -1  -5  13   22.70    8.20
   6  -1  13    6.50    7.30
  -1  -5  13   11.20    8.50
   4  -6 -13  689.43   31.90
   2   4 -13  654.43   30.00
   6  -2  13  660.63   29.50
  -2  -4  13  689.83   29.30
  -2  -4  13  672.33   32.40
   3  -6 -13   -1.20    5.20
   3  -6 -13   12.70    7.70
   3   3 -13   -1.20    7.10
   3   3 -13    5.70    7.40
   6  -3  13    3.60    5.60
  -3   6  13    6.30    5.60
  -3  -3  13   -2.10    7.20
  -3  -3  13    3.50    5.70
   4   2 -13  110.29   14.60
   4   2 -13   85.29   13.80
   2  -6 -13  108.79   13.00
   2  -6 -13  141.49   14.50
  -2   6  13  112.49   13.70
  -4  -2  13  110.89   15.20
   5   1 -13  120.79   15.00
   1  -6 -13  105.89   14.60
   1  -6 -13  114.49   15.40
   5   1 -13   90.49   17.10
  -1   6  13  135.49   16.10
  -5  -1  13  113.79   15.30
   0   0 -14 1877.11   62.29
   0   0  14 1862.61   62.69
   0   0  14 1961.70   65.19
  -1   0 -14 2354.16   74.89
   0   1 -14 2398.56   76.39
   0   1 -14 2376.86   76.29
   1  -1 -14 2318.67   76.59
   0   1 -14 2071.29   77.39
   0  -1  14 2344.77   76.59
   1   0  14 2420.06   78.89
  -1   1  14 2424.46   77.49
   0  -1  14 2416.36   78.99
  -1   1  14 2289.87   76.59
  -1   1  14 2335.97   78.59
  -1   1 -14   32.70    5.10
   1   0 -14   35.30    5.90
  -1   1 -14   27.30    6.80
  -1   1 -14   26.00    4.50
   0  -1 -14   29.60    5.20
   1  -1  14   32.40    5.50
  -1   0  14   25.60    6.40
   0   1  14   27.30    6.40
  -1   0  14   21.30    6.20
  -1   0  14   33.80    7.20
   1  -1  14   38.60    6.60
  -1   2 -14   98.99    8.80
  -1   2 -14   92.09    7.10
  -1  -1 -14  100.89    6.80
   2  -1 -14   95.99    8.50
  -1   2 -14  105.09    7.50
   1   1  14  108.49    9.70
   1  -2  14  103.79    9.00
  -2   1  14   93.99    8.00
  -2   1  14  109.09    9.50
   1  -2  14  101.19    8.20
  -2  -1 -14  988.40   33.60
  -2  -1 -14  913.41   31.70
  -1   3 -14  960.40   34.60
  -1   3 -14  964.90   35.00
   3  -2 -14  954.70   36.20
   2   1  14  994.50   37.30
  -3   2  14  946.91   35.80
   1  -3  14  976.30   37.00
   1  -3  14  908.51   35.00
  -3   2  14  939.01   33.40
   0   2 -14 1586.94   53.09
   0   2 -14 1576.34   53.09
  -2   0 -14 1578.44   49.80
   2  -2 -14 1561.94   53.89
  -2   2  14 1695.43   55.09
   0  -2  14 1610.64   55.49
   0  -2  14 1524.35   53.39
  -2   2  14 1522.15   52.49
   2   0  14 1385.86   54.39
   1  -2 -14   94.69    8.00
  -2   1 -14   99.09    5.60
   1   1 -14   81.19    8.20
  -2   1 -14  104.09    6.90
   1   1 -14  103.79    8.20
  -1  -1  14  110.39    9.80
  -1   2  14  101.79    9.20
   2  -1  14   92.29    8.90
   0  -2 -14  990.90   34.10
   2   0 -14  991.50   35.50
  -2   2 -14  955.20   32.90
  -2   0  14  943.81   33.60
   2  -2  14  972.10   32.60
  -2   0  14  879.31   35.80
   0   2  14  918.91   36.40
   2  -2  14  952.50   35.90
  -1  -2 -14   81.59    7.10
   3  -1 -14   83.39    9.20
  -2   3 -14   75.19    7.00
  -2   3 -14   78.39    7.60
   1   2  14   66.39    8.90
  -3   1  14   79.59    8.70
   2  -3  14   74.29    8.50
  -3   1  14   71.89    7.20
   2  -3  14   97.19    8.60
  -2  -2 -14 1042.20   34.30
   4  -2 -14  999.10   38.70
  -2   4 -14 1027.70   36.10
  -2   4 -14  967.30   35.20
  -2  -2 -14  980.90   35.70
   2   2  14 1011.70   39.60
   2  -4  14  982.10   38.20
   2  -4  14  970.50   36.70
  -2   5 -14 2090.89   70.89
   5  -3 -14 2103.09   74.19
   2  -5  14 2136.99   73.49
  -5   3  14 2137.69   69.89
   3   2  14 2083.59   74.79
   2  -5  14 2080.59   73.69
  -1   4 -14    3.00    5.20
  -1   4 -14   14.30    4.80
   4  -3 -14    6.30    5.40
   1  -4  14    7.90    5.20
  -4   3  14   -2.10    5.80
   3   1  14    9.30    5.30
  -4   3  14    2.80    3.90
   1  -4  14   10.20    5.30
   3  -3 -14   11.10    4.90
  -3   0 -14    5.00    3.40
   0   3 -14    5.90    4.10
  -3   3  14    9.80    4.30
   3   0  14    3.90    3.70
  -3   3  14   11.60    4.40
   0  -3  14    3.40    4.30
   1   2 -14  935.51   33.60
   2  -3 -14  803.22   33.40
  -3   1 -14  926.01   30.00
   1   2 -14  899.91   33.70
  -1  -2  14  917.11   35.40
  -2   3  14  916.61   34.30
   3  -1  14  839.92   34.20
   2   1 -14   72.69    8.30
   2   1 -14   86.59    9.10
   1  -3 -14   74.59    8.50
  -3   2 -14   76.39    5.70
  -1   3  14   77.19    9.50
  -2  -1  14   69.99    9.10
   3  -2  14   69.59    8.30
   3   0 -14  305.97   16.60
   3   0 -14  317.67   16.40
  -3   3 -14  326.97   13.50
   0  -3 -14  292.87   15.00
   3  -3  14  305.17   16.10
  -3   0  14  322.47   14.10
   0   3  14  300.87   17.40
  -3   0  14  308.57   16.90
   3  -3  14  325.67   13.00
   4  -1 -14 1581.04   56.29
  -3   4 -14 1568.04   52.29
  -1  -3 -14 1568.34   52.99
   1   3  14 1546.85   56.89
   3  -4  14 1552.64   55.19
  -4   1  14 1563.44   55.09
  -2  -3 -14    0.40    4.10
  -3   5 -14    0.70    4.50
   5  -2 -14    8.00    6.70
   3  -5  14    0.90    5.80
   2   3  14    0.50    6.10
  -5   2  14   -5.00    4.70
   3  -5  14   -0.50    4.90
   6  -3 -14   11.70    9.20
  -3   6 -14   24.10    6.80
   3   3  14   16.90    8.60
   3  -6  14   16.50    7.50
   3  -6  14   15.90    6.90
  -2   6 -14  751.92   31.20
   6  -4 -14  730.63   35.00
   2  -6  14  723.53   33.80
   4   2  14  757.02   35.40
   2  -6  14  735.43   33.60
  -1   5 -14  162.38   13.30
   5  -4 -14  161.88   15.70
  -5   4  14  186.18   12.00
   1  -5  14  170.18   15.30
   1  -5  14  168.08   15.10
   4   1  14  148.09   15.00
   0   4 -14  585.04   25.20
   4  -4 -14  575.44   26.80
   0  -4  14  608.64   26.20
   0  -4  14  581.94   27.30
   4   0  14  574.54   26.50
  -4   4  14  562.94   23.50
   1   3 -14   11.70    4.90
   3  -4 -14    7.80    5.20
   1   3 -14    4.60    4.70
   4  -1  14    9.60    4.70
  -1  -3  14    5.50    4.80
  -1  -3  14    3.90    5.00
  -3   4  14   16.10    5.10
   2   2 -14 1026.30   39.80
   2   2 -14 1045.40   39.10
  -4   2 -14  998.60   33.50
   2  -4 -14 1041.40   39.40
  -2   4  14 1100.79   39.80
  -2  -2  14 1069.29   38.50
  -2  -2  14 1074.69   41.20
   3   1 -14 1601.84   55.49
   1  -4 -14 1595.34   55.09
   3   1 -14 1565.24   56.29
  -4   3 -14 1563.44   50.39
   4  -3  14 1514.35   54.89
  -1   4  14 1566.04   56.39
  -3  -1  14 1625.74   53.39
  -3  -1  14 1552.24   56.59
  -4   4 -14  984.40   33.40
   4   0 -14  991.10   37.80
   4   0 -14  973.10   38.90
   0  -4 -14 1015.70   37.00
   4  -4  14  899.41   36.70
  -4   0  14  991.90   33.60
   0   4  14 1002.60   39.50
  -4   0  14  973.30   38.00
   5  -1 -14   -7.40    6.60
   5  -1 -14    7.80    6.80
  -4   5 -14    2.80    4.10
  -1  -4 -14    1.00    5.70
   4  -5  14   -2.20    6.40
  -5   1  14   10.20    5.50
   4  -5  14   -1.20    5.30
   1   4  14    7.60    6.10
  -4   6 -14  500.55   21.40
   6  -2 -14  469.05   27.20
   6  -2 -14  455.95   25.90
   4  -6  14  444.76   25.60
   4  -6  14  506.35   24.40
   5  -5 -14  123.59   15.40
   0   5 -14  120.69   13.80
   0  -5  14   89.79   13.90
   0  -5  14   82.89   14.70
   5   0  14  118.19   14.90
   1   4 -14  170.98   14.50
   4  -5 -14  185.18   16.00
  -4   5  14  162.98   12.00
  -1  -4  14  179.98   14.60
  -1  -4  14  162.58   15.60
   5  -1  14  142.09   13.80
   2   3 -14 2014.60   71.69
   2   3 -14 2065.39   71.09
   3  -5 -14 2047.10   71.69
  -2  -3  14 2083.09   70.09
  -2  -3  14 1999.10   72.89
   5  -2  14 2026.00   70.69
  -3   5  14 2115.29   69.89
   3   2 -14    5.50    6.00
   3   2 -14    7.50    6.00
   2  -5 -14    2.20    5.80
  -3  -2  14    0.60    4.80
  -3  -2  14    8.50    6.30
  -2   5  14   11.10    5.90
   5  -3  14    3.00    4.90
   1  -5 -14   -8.30    5.70
   4   1 -14   10.90    7.20
   4   1 -14   10.70    6.50
   5  -4  14   10.40    5.50
  -4  -1  14    2.80    6.10
  -1   5  14    3.70    6.60
   5   0 -14  225.98   17.10
   0  -5 -14  181.58   15.40
   5   0 -14  203.38   18.10
   0   5  14  196.18   17.50
  -5   0  14  172.48   15.70
   5  -5  14  204.18   14.70
   2   4 -14  725.43   32.80
   4  -6 -14  734.03   34.00
   6  -2  14  721.63   32.00
  -2  -4  14  753.12   31.90
   3   3 -14   24.20    8.30
   3   3 -14   17.80    8.50
   3  -6 -14   33.10    9.40
  -3  -3  14   24.50    8.80
  -3  -3  14   40.10   10.90
   6  -3  14   15.40    6.90
  -3   6  14   13.60    6.40
   4   2 -14  455.55   26.10
   2  -6 -14  490.65   25.50
   4   2 -14  428.26   24.80
   2  -6 -14  473.25   24.30
  -4  -2  14  449.66   26.30
  -2   6  14  548.35   25.40
   0   0 -15 3068.89   96.69
   0   0  15 2988.60   99.79
   0   0  15 2978.90   97.29
   0   1 -15  245.38   12.40
  -1   0 -15  229.68   10.70
   0   1 -15  227.38   11.90
   1  -1 -15  225.78   12.30
   1   0  15  225.18   13.80
   0  -1  15  206.08   12.80
   0  -1  15  217.88   13.80
  -1   1  15  240.68   14.30
  -1   1 -15  546.55   25.70
  -1   1 -15  674.43   24.60
   0  -1 -15  663.83   24.70
  -1   1 -15  645.14   23.80
   1   0 -15  668.23   25.60
   1  -1  15  666.43   24.70
  -1   0  15  671.23   27.70
   1  -1  15  666.23   27.40
   0   1  15  677.63   27.70
  -1  -1 -15   12.60    3.40
   2  -1 -15   12.10    4.30
  -1   2 -15    6.60    4.70
  -1   2 -15   11.00    3.90
  -2   1  15   10.00    4.20
   1  -2  15    4.10    3.60
   1   1  15   18.20    5.40
   1  -2  15   10.90    4.90
  -2   1  15    2.60    4.30
  -2  -1 -15   52.19    5.30
  -1   3 -15   44.30    7.60
   3  -2 -15   65.99    9.10
  -2  -1 -15   58.39    8.30
  -3   2  15   53.19    8.70
  -3   2  15   46.70    8.70
   2   1  15   49.90    9.10
   1  -3  15   58.29    9.20
   0   2 -15 1668.63   57.29
   0   2 -15 1746.53   57.59
  -2   0 -15 1670.63   53.99
  -2   2  15 1744.73   59.39
   0  -2  15 1662.83   59.89
   2   0  15 1658.63   59.69
  -2   1 -15    8.40    2.50
   1  -2 -15    5.70    4.00
   1   1 -15    7.40    4.20
   1   1 -15    9.00    4.20
  -2   1 -15   20.40    4.90
   2  -1  15    7.40    4.40
  -1   2  15    8.00    4.30
  -1  -1  15    5.50    4.20
   2   0 -15 1961.40   67.39
   0  -2 -15 2042.20   65.89
  -2   2 -15 2023.50   64.89
   0   2  15 1929.61   68.69
  -2   0  15 1729.13   65.19
   2  -2  15 2041.40   68.49
   2  -2  15 2074.09   64.59
  -2   0  15 2092.59   69.09
   3  -1 -15 1110.09   41.50
  -1  -2 -15 1093.19   38.20
  -2   3 -15 1098.39   38.70
   1   2  15 1138.79   43.00
   2  -3  15 1159.78   42.00
  -3   1  15 1089.19   38.40
  -3   1  15 1081.69   41.20
   2  -3  15 1096.79   38.90
  -2  -2 -15 1793.62   58.69
   4  -2 -15 1816.82   64.09
  -2   4 -15 1795.32   60.79
   2  -4  15 1767.62   63.49
   2   2  15 1808.42   64.89
  -4   2  15 1835.82   62.39
   5  -3 -15  233.18   17.60
  -2   5 -15  228.98   14.70
   2  -5  15  226.88   17.20
   3   2  15  222.48   18.10
   2  -5  15  209.88   16.50
  -5   3  15  218.08   14.10
  -1   4 -15  493.05   21.90
   4  -3 -15  518.55   24.20
   1  -4  15  516.15   24.30
   3   1  15  443.76   23.70
   1  -4  15  483.65   23.80
  -4   3  15  478.85   21.80
   3  -3 -15   12.10    5.20
   0   3 -15    8.30    4.90
   0   3 -15   10.20    4.80
   0  -3  15    2.80    4.50
  -3   3  15   -0.90    4.30
   3   0  15    5.50    4.50
   1   2 -15   41.30    8.00
   2  -3 -15   52.59    8.50
   1   2 -15   42.50    8.50
  -3   1 -15   52.49    5.30
  -2   3  15   37.00    8.10
   3  -1  15   47.20    8.60
  -1  -2  15   41.80    8.80
  -3   2 -15 1104.49   37.50
   2   1 -15 1137.49   41.70
   1  -3 -15 1148.09   40.90
   2   1 -15 1101.79   41.00
   3  -2  15 1089.29   41.60
  -1   3  15 1128.49   42.40
  -2  -1  15 1132.29   42.90
   3   0 -15   20.10    5.40
   0  -3 -15   11.30    4.90
   3   0 -15    0.40    4.60
  -3   3 -15    8.00    3.60
  -3   0  15    0.50    4.40
  -3   0  15   11.90    4.50
   3  -3  15   10.70    4.90
   0   3  15   10.00    5.30
   4  -1 -15  219.28   16.10
  -3   4 -15  237.58   12.70
  -1  -3 -15  236.88   13.20
   3  -4  15  230.18   15.10
  -4   1  15  258.97   15.50
   1   3  15  257.77   17.10
  -2  -3 -15  142.89   11.30
   5  -2 -15  162.78   16.10
  -3   5 -15  133.89   11.90
  -5   2  15  153.48   13.10
   3  -5  15  162.68   15.30
   3  -5  15  173.28   14.00
   2   3  15  155.28   15.60
  -1   5 -15   21.70    6.60
   5  -4 -15   19.00    8.80
   1  -5  15   27.80    8.00
   4   1  15   30.20    8.00
   1  -5  15   20.10    8.00
   4  -4 -15 1234.48   47.20
   0   4 -15 1234.38   45.40
  -4   4  15 1154.08   43.70
   0  -4  15 1223.18   46.20
   0  -4  15 1266.97   48.10
   4   0  15 1256.87   47.30
   3  -4 -15  483.75   23.40
   1   3 -15  485.65   22.70
   1   3 -15  528.45   22.90
  -1  -3  15  488.65   24.60
  -3   4  15  462.35   22.00
   4  -1  15  473.25   23.20
  -1  -3  15  484.45   22.70
   2   2 -15 2030.50   65.49
   2  -4 -15 1914.91   65.29
   2   2 -15 1859.01   65.59
   4  -2  15 1931.21   65.69
  -2   4  15 1794.92   64.99
  -2  -2  15 1833.62   66.89
  -2  -2  15 1772.72   63.89
  -4   3 -15  236.38   10.60
   1  -4 -15  225.48   14.80
   3   1 -15  257.37   16.50
   3   1 -15  251.67   15.50
  -3  -1  15  251.37   13.80
  -3  -1  15  266.87   16.80
  -1   4  15  240.18   16.40
   4  -3  15  223.08   14.70
   0  -4 -15 1127.79   41.10
   4   0 -15 1131.49   42.50
   4   0 -15 1133.99   44.00
  -4   4 -15 1105.59   37.60
   4  -4  15 1118.59   42.00
  -4   0  15 1025.10   38.70
   0   4  15 1142.19   44.30
  -4   0  15 1123.29   43.00
   5  -1 -15    2.90    7.00
  -1  -4 -15   18.30    6.70
  -4   5 -15   -2.30    4.80
   5  -1 -15   -4.70    7.20
   4  -5  15    3.90    6.10
   1   4  15    3.70    7.20
  -5   1  15    8.80    6.60
   4  -5  15   -0.60    6.90
   1   4 -15   19.00    7.40
   4  -5 -15   41.80    8.90
   5  -1  15   27.80    7.60
  -1  -4  15   16.80    8.40
  -4   5  15   18.10    6.10
  -1  -4  15    2.70    7.10
   3  -5 -15  257.57   18.10
   2   3 -15  245.78   17.30
   2   3 -15  211.88   16.90
  -2  -3  15  252.57   18.50
   5  -2  15  257.97   16.90
  -3   5  15  250.27   16.00
  -2  -3  15  242.68   16.40
   3   2 -15  146.79   14.10
   2  -5 -15  141.59   14.70
   3   2 -15  158.98   15.20
  -2   5  15  170.18   15.00
   5  -3  15  170.38   14.10
  -3  -2  15  160.08   15.70
  -3  -2  15  186.38   13.00
   1  -5 -15    5.60    7.00
   4   1 -15   18.60    7.80
   4   1 -15   16.90    8.50
   5  -4  15    4.00    6.10
  -1   5  15    3.30    7.20
  -4  -1  15    6.40    7.00
   0   0 -16  449.06   19.00
   0   0  16  451.75   20.50
   0   0  16  471.75   22.00
   0   1 -16   49.50    7.30
   0   1 -16   46.60    6.90
  -1   0 -16   54.79    6.00
   1  -1 -16   54.49    7.70
   0  -1  16   55.49    9.80
  -1   1  16   44.50    8.60
   1   0  16   78.09    9.60
   0  -1  16   46.20    8.70
  -1   1 -16  130.49    9.30
   0  -1 -16  129.19    9.20
  -1   1 -16  129.39    8.50
   1   0 -16  138.29   10.20
  -1   0  16  118.49   11.40
   1  -1  16  124.49   11.30
   1  -1  16  131.79   10.60
   0   1  16  139.89   11.80
  -1   2 -16 1573.24   52.99
   2  -1 -16 1579.24   55.19
  -1   2 -16 1595.94   53.49
  -1  -1 -16 1566.34   52.09
   1   1  16 1635.04   57.19
   1  -2  16 1498.95   53.49
   1  -2  16 1549.74   56.49
  -2   1  16 1592.04   56.39
   3  -2 -16    1.20    4.80
  -2  -1 -16    0.40    3.10
  -2  -1 -16    0.60    6.10
  -1   3 -16   -3.80    4.20
  -3   2  16   12.10    5.00
   1  -3  16    1.00    5.00
   2   1  16   -3.50    5.30
  -2   0 -16  785.72   27.00
   2  -2 -16  787.92   31.30
   0   2 -16  819.02   30.70
   0   2 -16  768.62   30.20
   0  -2  16  811.32   33.20
  -2   2  16  810.22   32.40
   2   0  16  791.22   33.00
   1   1 -16 1562.24   53.89
  -2   1 -16 1614.14   51.79
   1  -2 -16 1584.94   53.79
   1   1 -16 1640.54   54.39
  -2   1 -16 1563.44   50.29
  -1  -1  16 1445.06   55.89
  -1   2  16 1512.25   55.59
   2  -1  16 1504.95   55.59
   2   0 -16 3493.95  115.89
  -2   2 -16 3568.14  113.39
   0  -2 -16 3518.55  114.19
   0   2  16 3551.14  117.89
  -2   0  16 3782.22  118.09
   2  -2  16 3466.75  116.99
  -2   3 -16   88.39    8.50
   3  -1 -16   90.09   10.70
  -1  -2 -16  104.89    8.50
   1   2  16   75.39   11.30
  -3   1  16   85.39   10.20
   2  -3  16   87.99   10.90
  -2   4 -16  345.47   17.20
  -2  -2 -16  324.27   15.20
   4  -2 -16  378.46   20.60
   2   2  16  340.07   20.70
  -4   2  16  342.47   18.80
   2  -4  16  356.86   19.90
   5  -3 -16  102.99   15.80
  -2   5 -16   83.19   12.10
   2  -5  16   66.09   13.80
   2  -5  16   91.19   14.50
  -5   3  16  100.19   11.70
   3   2  16   89.49   15.20
   4  -3 -16   62.39   12.20
  -1   4 -16   57.99   10.50
   1  -4  16   60.49   11.50
  -4   3  16   49.20    9.90
   1  -4  16   46.30   12.00
   3   1  16   58.89   12.30
   3  -3 -16 1796.22   62.69
   0   3 -16 1798.32   61.39
   0   3 -16 1811.92   61.39
  -3   3  16 1797.42   62.09
   3   0  16 1726.43   63.59
   0  -3  16 1707.53   63.69
   1   2 -16    7.40    4.80
  -3   2 -16   85.19    7.20
   2   1 -16   76.99   10.20
   2   1 -16   93.69   10.60
   1  -3 -16  105.89   10.30
   3  -2  16   91.39   10.50
  -1   3  16   90.59   11.30
  -2  -1  16   95.09   11.20
   3   0 -16  885.51   35.90
   3   0 -16  883.71   35.00
  -3   3 -16  892.61   31.80
   0  -3 -16  885.61   33.80
  -3   0  16  948.61   36.80
   0   3  16  955.90   37.40
   3  -3  16  826.42   35.40
  -3   4 -16   13.10    5.00
   4  -1 -16   12.70    7.00
  -1  -3 -16    9.70    5.50
   3  -4  16   19.70    6.60
  -4   1  16   11.40    5.70
   1   3  16   11.00    7.10
   5  -2 -16  145.29   17.00
  -3   5 -16  133.99   12.20
   3  -5  16  125.99   14.10
   2   3  16  123.69   16.50
   3  -5  16   81.09   14.90
  -5   2  16  112.09   13.20
   5  -4 -16  681.23   31.80
  -1   5 -16  651.33   28.50
   4   1  16  550.84   30.30
   1  -5  16  596.14   30.80
   1  -5  16  642.94   30.60
   4  -4 -16 2268.27   80.29
   0   4 -16 2266.37   78.49
   0  -4  16 2213.58   79.39
   0  -4  16 2404.96   81.89
  -4   4  16 2304.27   77.29
   4   0  16 2343.47   80.89
   1   3 -16   87.49   11.30
   3  -4 -16   69.09   11.50
   1   3 -16   62.69   10.90
   4  -1  16   54.39   11.40
  -1  -3  16   72.39   13.00
  -3   4  16   53.99   10.50
  -1  -3  16   60.09   11.10
   2   2 -16  328.47   19.30
   2  -4 -16  357.46   19.60
   2   2 -16  336.07   18.90
  -2  -2  16  381.36   19.40
  -2  -2  16  389.76   21.90
  -2   4  16  342.67   19.50
   4  -2  16  349.57   19.50
   3   1 -16   14.00    7.00
   3   1 -16    5.30    5.80
   1  -4 -16    9.50    6.40
  -1   4  16    5.10    6.50
  -3  -1  16    7.70    5.50
  -3  -1  16    9.50    6.40
   4  -3  16   11.90    5.80
   0  -4 -16  442.36   21.70
   4   0 -16  468.25   23.80
   4   0 -16  488.85   25.40
  -4   0  16  463.95   24.00
   4  -4  16  464.25   23.10
   0   4  16  427.06   24.80
   5  -1 -16 1187.08   49.20
   5  -1 -16 1216.38   47.70
  -1  -4 -16 1264.67   45.00
   4  -5  16 1211.48   47.10
   4  -5  16 1175.68   48.90
  -5   1  16 1317.57   47.00
   1   4 -16  626.64   29.40
   4  -5 -16  571.54   29.80
   5  -1  16  628.04   29.90
  -1  -4  16  651.03   30.10
   3  -5 -16  107.69   15.00
   2   3 -16   95.19   14.30
   2   3 -16  107.69   14.70
   5  -2  16   96.29   14.30
  -3   5  16   97.19   13.50
  -2  -3  16   71.09   15.70
  -2  -3  16  104.69   14.10
   3   2 -16  112.39   15.00
   3   2 -16  143.99   14.80
   2  -5 -16  123.29   15.30
  -3  -2  16  106.39   12.90
   5  -3  16  129.09   14.20
  -2   5  16  129.89   15.00
  -3  -2  16  119.49   16.30
   4   1 -16 1238.38   48.30
   4   1 -16 1202.18   49.40
   1  -5 -16 1262.17   47.90
   5  -4  16 1279.47   47.30
  -4  -1  16 1302.77   49.50
  -1   5  16 1211.28   49.00
   0   0 -17  732.53   27.70
   0   0  17  721.73   31.10
  -1   0 -17  288.17   12.70
   1  -1 -17  229.98   14.00
   0   1 -17  244.68   13.80
   0   1 -17  259.97   14.20
   0  -1  17  262.67   16.60
  -1   1  17  266.47   16.50
   1   0  17  250.87   16.30
   0  -1 -17  192.18   11.80
   1   0 -17  173.18   12.20
  -1   1 -17  188.38   10.50
  -1   1 -17  192.38   11.60
   0   1  17  187.28   14.00
   1  -1  17  192.78   13.40
  -1   0  17  218.28   14.80
   1  -1  17  183.98   14.10
  -1   2 -17  180.18   11.30
   2  -1 -17  217.48   14.00
  -1   2 -17  186.08   12.10
  -1  -1 -17  185.38   10.90
   1  -2  17  188.68   14.30
   1   1  17  199.48   15.10
  -2   1  17  211.58   14.90
  -1   3 -17  667.13   27.70
   3  -2 -17  675.43   29.70
   2   1  17  743.93   32.00
  -3   2  17  656.23   29.50
   1  -3  17  715.03   31.20
   2  -2 -17  100.19   11.00
   0   2 -17  123.69   10.50
  -2   0 -17   99.99    6.80
   0   2 -17   94.39   10.00
   0  -2  17   92.59   11.80
   2   0  17  113.89   12.50
  -2   2  17  113.79   11.60
  -2   1 -17  194.98    9.40
  -2   1 -17  183.08   11.00
   1  -2 -17  192.58   12.80
   1   1 -17  175.88   12.50
   1   1 -17  178.48   12.90
  -1   2  17  187.68   14.30
   2  -1  17  185.58   14.10
  -1  -1  17  186.68   14.60
   2   0 -17 1054.29   39.90
   0  -2 -17 1067.79   38.30
  -2   2 -17 1045.50   37.30
  -2   0  17 1008.60   41.20
   2  -2  17 1079.69   41.50
   0   2  17 1090.29   42.00
  -1  -2 -17  404.96   17.90
  -2   3 -17  401.26   18.40
   3  -1 -17  418.16   21.60
   2  -3  17  398.06   21.80
  -3   1  17  429.66   21.60
   1   2  17  428.56   23.20
   4  -2 -17  460.75   25.20
  -2   4 -17  472.95   21.60
  -4   2  17  456.85   23.50
   2   2  17  497.35   26.20
   2  -4  17  466.45   24.10
  -1   4 -17   90.09   12.40
   4  -3 -17  109.49   14.50
  -4   3  17  109.59   12.40
   1  -4  17   99.99   14.60
   3   1  17   98.99   14.70
   1  -4  17   96.29   13.90
   0   3 -17   82.49   11.10
   0   3 -17   93.19   11.10
   3  -3 -17   80.59   12.10
  -3   3  17   78.69   11.50
   0  -3  17   57.89   12.50
   3   0  17   88.39   13.10
   1   2 -17  667.63   27.90
   2  -3 -17  632.04   27.70
   1   2 -17  675.03   27.80
  -3   1 -17  647.24   23.60
  -2   3  17  645.44   28.80
   3  -1  17  635.44   29.20
  -1  -2  17  649.14   29.90
   2   1 -17  410.66   21.00
   1  -3 -17  410.16   19.60
  -3   2 -17  388.96   16.60
   2   1 -17  401.16   20.20
   3  -2  17  397.46   20.90
  -2  -1  17  403.06   22.00
  -1   3  17  394.96   21.60
   0  -3 -17  275.47   15.70
  -3   3 -17  277.17   14.00
   3   0 -17  255.47   17.90
   3   0 -17  269.97   17.20
   3  -3  17  271.37   17.90
   0   3  17  299.17   19.70
  -3   0  17  319.37   19.10
  -3   4 -17  195.38   13.20
  -1  -3 -17  213.18   13.60
   4  -1 -17  205.48   17.40
   3  -4  17  197.88   16.40
   1   3  17  210.38   18.70
  -4   1  17  218.58   16.70
   4  -4 -17  701.73   33.10
   0   4 -17  713.33   31.20
   4   0  17  718.53   33.50
   0  -4  17  705.63   32.20
   0  -4  17  728.53   34.20
  -4   4  17  725.83   30.10
   1   3 -17   72.49   12.50
   1   3 -17   93.39   12.90
   3  -4 -17   74.59   13.20
   4  -1  17   88.79   14.00
  -3   4  17   80.29   12.80
  -1  -3  17   94.09   13.70
  -1  -3  17  102.69   15.30
   2   2 -17  471.05   23.70
   2  -4 -17  479.15   23.90
   2   2 -17  463.35   24.10
  -2  -2  17  494.45   23.50
  -2  -2  17  482.25   26.30
   4  -2  17  490.85   24.80
  -2   4  17  481.95   24.20
   3   1 -17  225.08   17.10
   3   1 -17  164.98   15.70
   1  -4 -17  199.58   16.20
  -3  -1  17  202.38   17.30
  -1   4  17  195.18   17.30
   4  -3  17  212.48   16.10
  -3  -1  17  187.08   14.90
   4   0 -17   63.79   14.10
   0  -4 -17   68.79   12.80
   4   0 -17   68.19   15.50
   4  -4  17   69.49   13.10
   0   4  17   52.29   15.50
  -4   0  17   82.99   14.40
   0   0 -18  973.40   35.50
   0   0  18  968.60   39.40
  -1   0 -18  110.59    8.70
   0   1 -18  109.99   10.30
   1  -1 -18  105.69   11.00
   0   1 -18   78.29    9.90
   0  -1  18  108.49   12.70
   1   0  18  100.89   12.10
  -1   1  18  113.19   12.50
   1   0 -18  681.23   28.10
  -1   1 -18  684.63   26.10
  -1   1 -18  691.93   27.10
   0  -1 -18  681.53   27.20
   1  -1  18  678.93   30.80
  -1   0  18  734.33   31.40
   0   1  18  704.13   31.00
  -1  -1 -18   14.80    4.50
   2  -1 -18   20.90    6.40
  -1   2 -18   12.00    5.00
  -1   2 -18    2.20    5.00
  -2   1  18    1.60    5.50
   1  -2  18    8.90    5.60
   1   1  18   -2.00    5.60
   3  -2 -18  198.88   16.10
  -1   3 -18  194.58   14.20
   1  -3  18  216.48   17.30
  -3   2  18  231.18   16.60
   2   1  18  188.48   17.70
   2  -2 -18  842.42   34.10
   0   2 -18  863.11   33.30
   0   2 -18  833.32   32.90
   0  -2  18  882.41   36.80
  -2   2  18  853.51   35.60
   2   0  18  831.42   36.10
  -2   1 -18    4.20    4.80
   1   1 -18   10.70    5.60
   1  -2 -18   13.60    5.90
   1   1 -18    1.30    5.50
  -1  -1  18  -11.10    5.70
   2  -1  18   10.40    5.90
  -1   2  18   11.90    5.80
   2   0 -18  214.08   15.40
   0  -2 -18  210.48   13.70
   2   0 -18  208.48   15.30
  -2   2 -18  215.18   13.00
   2  -2  18  215.28   16.40
   0   2  18  238.18   17.30
  -2   0  18  231.58   16.70
  -1  -2 -18  176.18   11.40
  -2   3 -18  142.49   11.70
   3  -1 -18  163.88   14.80
   1   2  18  158.98   16.20
   2  -3  18  156.18   15.20
  -3   1  18  163.18   14.90
  -2   4 -18  659.03   27.70
   4  -2 -18  655.43   31.50
  -4   2  18  671.73   30.00
   2   2  18  609.94   34.30
   2  -4  18  631.74   30.70
   0   3 -18   74.99   11.70
   3  -3 -18   68.99   13.50
   0   3 -18   76.99   12.20
  -3   3  18   77.09   12.90
   3   0  18   70.79   14.40
   0  -3  18   49.50   13.80
   2  -3 -18  211.78   16.00
   1   2 -18  207.38   15.50
   1   2 -18  199.78   15.40
   3  -1  18  214.48   17.10
  -2   3  18  206.48   16.60
  -1  -2  18  223.08   17.70
   2   1 -18  167.38   14.80
   1  -3 -18  168.08   13.40
  -3   2 -18  150.58   10.20
   2   1 -18  177.88   14.30
  -1   3  18  149.19   15.30
  -2  -1  18  157.18   15.90
   3  -2  18  148.29   14.70
   3   0 -18    3.00    7.60
  -3   3 -18    2.10    5.20
   3   0 -18   18.70    7.80
   0  -3 -18   14.50    6.40
   3  -3  18   13.20    7.00
   0   3  18    0.40    7.40
  -3   0  18   18.80    8.00
   2   2 -18  684.53   29.90
   2  -4 -18  651.53   29.50
   2   2 -18  622.34   29.60
  -2   4  18  649.54   30.20
   4  -2  18  627.94   30.30
  -2  -2  18  676.23   29.50
  -2  -2  18  564.94   31.30
   0   0 -19  383.06   19.20
   0   0  19  443.86   23.40
  -1   0 -19  417.26   18.30
   1  -1 -19  428.26   21.00
   0   1 -19  415.66   20.00
   0   1 -19  396.06   20.20
  -1   1  19  440.86   23.60
   0  -1  19  407.76   23.40
   1   0  19  455.75   23.90
   0  -1 -19  123.49   11.80
  -1   1 -19  121.09   11.20
  -1   1 -19   93.29    9.50
   1   0 -19   99.09   12.00
  -1   0  19  105.89   14.10
   1  -1  19  114.99   13.80
   0   1  19  100.79   13.90
  -1   2 -19 1153.38   43.80
  -1   2 -19 1299.47   45.30
  -1  -1 -19 1230.68   45.20
   2  -1 -19 1244.48   46.80
  -2   1  19 1304.97   49.00
   1  -2  19 1291.07   49.50
   1   1  19 1237.08   49.10
   3  -2 -19  291.17   20.50
  -1   3 -19  263.97   17.50
   1  -3  19  276.67   20.70
  -3   2  19  338.47   20.40
   2   1  19  297.27   21.80
   2  -2 -19  926.01   37.10
   0   2 -19  902.51   35.90
   0   2 -19  928.61   35.70
   0  -2  19  930.31   39.70
  -2   2  19  899.21   38.40
   2   0  19  899.61   39.10
   1   1 -19 1302.77   46.70
   1   1 -19 1286.77   46.50
   1  -2 -19 1322.57   46.30
  -2   1 -19 1233.88   43.80
  -1  -1  19 1198.28   49.20
  -1   2  19 1228.38   49.00
   2  -1  19 1208.78   48.80
  -2   2 -19  702.13   27.20
   2   0 -19  683.73   29.80
   0  -2 -19  673.63   27.80
   2   0 -19  691.83   30.20
   0   2  19  674.03   32.00
   2  -2  19  655.63   31.50
  -2   0  19  668.13   31.70
   3  -1 -19   60.59   13.20
  -2   3 -19   41.10   10.20
  -3   1  19   29.30    8.60
   2  -3  19   39.00    9.20
   1   2  19   48.20   14.50
   1   2 -19  306.47   18.90
   1   2 -19  277.77   18.50
   2  -3 -19  292.67   19.40
  -2   3  19  274.67   19.70
   3  -1  19  272.47   20.50
  -1  -2  19  258.57   20.20
   1  -3 -19   34.50    8.30
   2   1 -19   16.90    8.10
   2   1 -19   51.29   12.50
   3  -2  19   26.80    8.50
  -1   3  19   27.30    8.80
  -2  -1  19   33.70    8.90
   0   0 -20  348.87   18.80
   0   0 -20  319.37   17.70
   0   0  20  281.17   20.40
  -1   0 -20   54.09   11.50
   0   1 -20   39.40    8.20
   0   1 -20   50.09   10.80
   1  -1 -20   45.40    8.20
   0  -1  20   44.60   10.20
  -1   1  20   36.40    9.10
   1   0  20   55.19   14.20
  -1   1 -20   12.90    6.20
   0  -1 -20   16.50    6.30
   1   0 -20   11.60    7.30
   1   0 -20   11.40    7.70
   1  -1  20   17.10    7.80
   0   1  20   11.30    8.20
  -1   0  20   19.50    8.60
   2  -1 -20   80.89   14.10
  -1   2 -20  112.09   12.90
  -2   1  20   99.19   16.10
   1  -2  20   57.39   14.90
  -2   1 -20   85.59   11.00
   1   1 -20  102.59   13.60
   1   1 -20  103.19   14.00
   1  -2 -20  119.59   14.10
  -1   2  20   94.89   15.00
  -1  -1  20   57.99   16.00
   2  -1  20   71.49   15.60
   0   0   0    0.00    0.00

_computing_structure_solution     'SHELXT 2014/5 (Sheldrick, 2014)'
;
_shelx_hkl_checksum              74586
loop_
_space_group_symop_operation_xyz
'x, y, z'
'-y, x-y, z'
'-x+y, -x, z'
'y, x, -z'
'x-y, -y, -z'
'-x, -x+y, -z'
'-x, -y, -z'
'y, -x+y, -z'
'x-y, x, -z'
'-y, -x, z'
'-x+y, y, z'
'x, x-y, z'
loop_
_atom_site_label
_atom_site_type_symbol
_atom_site_fract_x
_atom_site_fract_y
_atom_site_fract_z
_atom_site_U_iso_or_equiv
_atom_site_adp_type
_atom_site_occupancy
_atom_site_site_symmetry_order
_atom_site_calc_flag
_atom_site_refinement_flags_posn
_atom_site_refinement_flags_adp
_atom_site_refinement_flags_occupancy
_atom_site_disorder_assembly
_atom_site_disorder_group
K1 K 1.3333 1.6667 1.06299(13) 0.0186(4) Uani 1 6 d S T P . .
Co1 Co 0.3333 0.6667 0.81882(7) 0.0076(3) Uani 1 6 d S T P . .
V2 V 0.82238(7) 0.64476(14) 0.67032(4) 0.0052(3) Uani 1 2 d S T P . .
V3 V 0.0000 0.0000 0.5000 0.0055(4) Uani 1 12 d S T P . .
Co4 Co 0.6667 0.3333 0.45116(7) 0.0071(3) Uani 1 6 d S T P . .
V5 V 1.0000 1.0000 0.86668(8) 0.0065(3) Uani 1 6 d S T P . .
O1 O 0.6667 0.3333 0.5870(4) 0.0114(11) Uani 1 6 d S T P . .
O2 O 1.0000 1.0000 0.7405(3) 0.0087(11) Uani 1 6 d S T P . .
O3 O 0.2963(6) 0.1482(3) 0.41499(19) 0.0095(6) Uani 1 2 d S T P . .
O4 O 0.5022(3) 0.4978(3) 0.7367(2) 0.0160(7) Uani 1 2 d S T P . .
O5 O 1.1604(3) 1.3208(6) 0.9004(2) 0.0126(7) Uani 1 2 d S T P . .
loop_
_atom_site_aniso_label
_atom_site_aniso_U_11
_atom_site_aniso_U_22
_atom_site_aniso_U_33
_atom_site_aniso_U_23
_atom_site_aniso_U_13
_atom_site_aniso_U_12
K1 0.0163(6) 0.0163(6) 0.0231(9) 0.000 0.000 0.0082(3)
Co1 0.0072(4) 0.0072(4) 0.0084(5) 0.000 0.000 0.00362(18)
V2 0.0041(3) 0.0078(4) 0.0049(4) -0.0033(3) -0.00164(13) 0.0039(2)
V3 0.0059(5) 0.0059(5) 0.0047(7) 0.000 0.000 0.0030(3)
Co4 0.0062(4) 0.0062(4) 0.0089(5) 0.000 0.000 0.00311(18)
V5 0.0066(4) 0.0066(4) 0.0063(6) 0.000 0.000 0.0033(2)
O1 0.0140(17) 0.0140(17) 0.006(2) 0.000 0.000 0.0070(9)
O2 0.0104(16) 0.0104(16) 0.005(2) 0.000 0.000 0.0052(8)
O3 0.0064(15) 0.0116(11) 0.0087(13) -0.0003(6) -0.0006(11) 0.0032(7)
O4 0.0224(13) 0.0224(13) 0.0102(13) -0.0011(6) 0.0011(6) 0.0165(15)
O5 0.0151(12) 0.0092(15) 0.0114(14) -0.0009(12) -0.0004(6) 0.0046(8)
loop_
_atom_type_symbol
_atom_type_description
_atom_type_scat_dispersion_real
_atom_type_scat_dispersion_imag
_atom_type_scat_source
O O 0.0106 0.0060 'International Tables Vol C Tables 4.2.6.8 and 6.1.1.4'
V V 0.3005 0.5294 'International Tables Vol C Tables 4.2.6.8 and 6.1.1.4'
Co Co 0.3494 0.9721 'International Tables Vol C Tables 4.2.6.8 and 6.1.1.4'
K K 0.2009 0.2494 'International Tables Vol C Tables 4.2.6.8 and 6.1.1.4'
loop_
_geom_angle_atom_site_label_1
_geom_angle_atom_site_label_2
_geom_angle_atom_site_label_3
_geom_angle
_geom_angle_site_symmetry_1
_geom_angle_site_symmetry_3
_geom_angle_publ_flag
O5 K1 O5 62.08(11) . 3_685 ?
O5 K1 O5 62.08(11) . 2_875 ?
O5 K1 O5 62.08(11) 3_685 2_875 ?
O5 K1 O5 99.00(6) . 7_887 ?
O5 K1 O5 130.13(6) 3_685 7_887 ?
O5 K1 O5 68.29(10) 2_875 7_887 ?
O5 K1 O5 68.29(10) . 8_567 ?
O5 K1 O5 130.13(6) 3_685 8_567 ?
O5 K1 O5 99.00(6) 2_875 8_567 ?
O5 K1 O5 61.37(13) 7_887 8_567 ?
O5 K1 O5 130.13(6) . 9_767 ?
O5 K1 O5 99.00(6) 3_685 9_767 ?
O5 K1 O5 68.30(11) 2_875 9_767 ?
O5 K1 O5 56.50(13) 7_887 9_767 ?
O5 K1 O5 116.87(4) 8_567 9_767 ?
O5 K1 O5 68.29(11) . 9_657 ?
O5 K1 O5 99.00(6) 3_685 9_657 ?
O5 K1 O5 130.13(6) 2_875 9_657 ?
O5 K1 O5 116.87(4) 7_887 9_657 ?
O5 K1 O5 56.50(13) 8_567 9_657 ?
O5 K1 O5 159.24(13) 9_767 9_657 ?
O5 K1 O5 130.13(6) . 8_577 ?
O5 K1 O5 68.30(10) 3_685 8_577 ?
O5 K1 O5 99.00(6) 2_875 8_577 ?
O5 K1 O5 116.87(4) 7_887 8_577 ?
O5 K1 O5 159.24(13) 8_567 8_577 ?
O5 K1 O5 61.37(13) 9_767 8_577 ?
O5 K1 O5 116.87(4) 9_657 8_577 ?
O5 K1 O5 99.00(6) . 7_787 ?
O5 K1 O5 68.30(10) 3_685 7_787 ?
O5 K1 O5 130.13(6) 2_875 7_787 ?
O5 K1 O5 159.24(13) 7_887 7_787 ?
O5 K1 O5 116.87(4) 8_567 7_787 ?
O5 K1 O5 116.87(4) 9_767 7_787 ?
O5 K1 O5 61.37(13) 9_657 7_787 ?
O5 K1 O5 56.50(13) 8_577 7_787 ?
O5 K1 O4 123.34(7) . 7_777 ?
O5 K1 O4 173.23(9) 3_685 7_777 ?
O5 K1 O4 123.34(7) 2_875 7_777 ?
O5 K1 O4 55.04(7) 7_887 7_777 ?
O5 K1 O4 55.04(7) 8_567 7_777 ?
O5 K1 O4 80.45(6) 9_767 7_777 ?
O5 K1 O4 80.45(6) 9_657 7_777 ?
O5 K1 O4 105.84(8) 8_577 7_777 ?
O5 K1 O4 105.84(8) 7_787 7_777 ?
O5 K1 O4 173.23(10) . 8_677 ?
O5 K1 O4 123.34(7) 3_685 8_677 ?
O5 K1 O4 123.34(7) 2_875 8_677 ?
O5 K1 O4 80.45(6) 7_887 8_677 ?
O5 K1 O4 105.84(8) 8_567 8_677 ?
O5 K1 O4 55.04(7) 9_767 8_677 ?
O5 K1 O4 105.84(8) 9_657 8_677 ?
O5 K1 O4 55.04(7) 8_577 8_677 ?
O5 K1 O4 80.45(6) 7_787 8_677 ?
O4 K1 O4 50.93(9) 7_777 8_677 ?
O5 K1 O4 123.34(7) . 9_667 ?
O5 K1 O4 123.34(7) 3_685 9_667 ?
O5 K1 O4 173.23(10) 2_875 9_667 ?
O5 K1 O4 105.84(8) 7_887 9_667 ?
O5 K1 O4 80.45(6) 8_567 9_667 ?
O5 K1 O4 105.84(8) 9_767 9_667 ?
O5 K1 O4 55.04(7) 9_657 9_667 ?
O5 K1 O4 80.45(6) 8_577 9_667 ?
O5 K1 O4 55.04(7) 7_787 9_667 ?
O4 K1 O4 50.93(9) 7_777 9_667 ?
O4 K1 O4 50.93(10) 8_677 9_667 ?
O4 Co1 O4 90.46(13) . 3_565 ?
O4 Co1 O4 90.46(13) . 2_665 ?
O4 Co1 O4 90.46(12) 3_565 2_665 ?
O4 Co1 O5 179.17(12) . 3_575 ?
O4 Co1 O5 88.96(9) 3_565 3_575 ?
O4 Co1 O5 88.96(9) 2_665 3_575 ?
O4 Co1 O5 88.96(9) . 2_765 ?
O4 Co1 O5 179.17(12) 3_565 2_765 ?
O4 Co1 O5 88.96(9) 2_665 2_765 ?
O5 Co1 O5 91.62(12) 3_575 2_765 ?
O4 Co1 O5 88.96(9) . 1_445 ?
O4 Co1 O5 88.96(9) 3_565 1_445 ?
O4 Co1 O5 179.17(12) 2_665 1_445 ?
O5 Co1 O5 91.62(12) 3_575 1_445 ?
O5 Co1 O5 91.62(12) 2_765 1_445 ?
O4 Co1 K1 124.94(9) . 1_445 ?
O4 Co1 K1 124.94(9) 3_565 1_445 ?
O4 Co1 K1 124.94(9) 2_665 1_445 ?
O5 Co1 K1 55.89(8) 3_575 1_445 ?
O5 Co1 K1 55.89(9) 2_765 1_445 ?
O5 Co1 K1 55.89(9) 1_445 1_445 ?
O4 Co1 K1 61.91(9) . 7_777 ?
O4 Co1 K1 128.686(17) 3_565 7_777 ?
O4 Co1 K1 128.686(17) 2_665 7_777 ?
O5 Co1 K1 118.91(10) 3_575 7_777 ?
O5 Co1 K1 51.44(2) 2_765 7_777 ?
O5 Co1 K1 51.44(2) 1_445 7_777 ?
K1 Co1 K1 63.03(3) 1_445 7_777 ?
O4 Co1 K1 128.687(17) . 7_787 ?
O4 Co1 K1 128.687(17) 3_565 7_787 ?
O4 Co1 K1 61.91(9) 2_665 7_787 ?
O5 Co1 K1 51.44(2) 3_575 7_787 ?
O5 Co1 K1 51.44(2) 2_765 7_787 ?
O5 Co1 K1 118.91(10) 1_445 7_787 ?
K1 Co1 K1 63.03(3) 1_445 7_787 ?
K1 Co1 K1 101.04(4) 7_777 7_787 ?
O4 Co1 K1 128.687(17) . 7_677 ?
O4 Co1 K1 61.91(9) 3_565 7_677 ?
O4 Co1 K1 128.687(17) 2_665 7_677 ?
O5 Co1 K1 51.44(2) 3_575 7_677 ?
O5 Co1 K1 118.91(10) 2_765 7_677 ?
O5 Co1 K1 51.44(2) 1_445 7_677 ?
K1 Co1 K1 63.03(3) 1_445 7_677 ?
K1 Co1 K1 101.04(4) 7_777 7_677 ?
K1 Co1 K1 101.03(4) 7_787 7_677 ?
O4 V2 O4 99.7(2) 3_665 . ?
O4 V2 O1 89.92(10) 3_665 . ?
O4 V2 O1 89.92(10) . . ?
O4 V2 O2 95.20(10) 3_665 . ?
O4 V2 O2 95.20(10) . . ?
O1 V2 O2 172.05(17) . . ?
O4 V2 O3 91.47(14) 3_665 8_666 ?
O4 V2 O3 168.69(13) . 8_666 ?
O1 V2 O3 92.10(11) . 8_666 ?
O2 V2 O3 81.71(11) . 8_666 ?
O4 V2 O3 168.69(13) 3_665 7_666 ?
O4 V2 O3 91.47(13) . 7_666 ?
O1 V2 O3 92.10(11) . 7_666 ?
O2 V2 O3 81.71(11) . 7_666 ?
O3 V2 O3 77.33(17) 8_666 7_666 ?
O4 V2 V2 92.34(9) 3_665 2_655 ?
O4 V2 V2 43.67(7) . 2_655 ?
O1 V2 V2 46.63(9) . 2_655 ?
O2 V2 V2 138.87(8) . 2_655 ?
O3 V2 V2 138.51(6) 8_666 2_655 ?
O3 V2 V2 97.14(8) 7_666 2_655 ?
O4 V2 V2 43.67(7) 3_665 3_665 ?
O4 V2 V2 92.34(9) . 3_665 ?
O1 V2 V2 46.63(9) . 3_665 ?
O2 V2 V2 138.86(8) . 3_665 ?
O3 V2 V2 97.14(8) 8_666 3_665 ?
O3 V2 V2 138.51(6) 7_666 3_665 ?
V2 V2 V2 60.0 2_655 3_665 ?
O4 V2 V3 130.15(10) 3_665 1_665 ?
O4 V2 V3 130.15(10) . 1_665 ?
O1 V2 V3 88.47(12) . 1_665 ?
O2 V2 V3 83.58(12) . 1_665 ?
O3 V2 V3 38.86(8) 8_666 1_665 ?
O3 V2 V3 38.86(8) 7_666 1_665 ?
V2 V2 V3 120.601(10) 2_655 1_665 ?
V2 V2 V3 120.601(10) 3_665 1_665 ?
O4 V2 V2 136.33(7) 3_665 3_675 ?
O4 V2 V2 87.66(9) . 3_675 ?
O1 V2 V2 133.38(9) . 3_675 ?
O2 V2 V2 41.13(8) . 3_675 ?
O3 V2 V2 82.86(8) 8_666 3_675 ?
O3 V2 V2 41.50(6) 7_666 3_675 ?
V2 V2 V2 120.0 2_655 3_675 ?
V2 V2 V2 180.0 3_665 3_675 ?
V3 V2 V2 59.401(10) 1_665 3_675 ?
O4 V2 V2 87.66(9) 3_665 2_765 ?
O4 V2 V2 136.33(7) . 2_765 ?
O1 V2 V2 133.38(9) . 2_765 ?
O2 V2 V2 41.13(8) . 2_765 ?
O3 V2 V2 41.50(6) 8_666 2_765 ?
O3 V2 V2 82.87(8) 7_666 2_765 ?
V2 V2 V2 180.0 2_655 2_765 ?
V2 V2 V2 120.0 3_665 2_765 ?
V3 V2 V2 59.401(10) 1_665 2_765 ?
V2 V2 V2 60.0 3_675 2_765 ?
O3 V3 O3 180.00(13) 8_556 2 ?
O3 V3 O3 96.10(13) 8_556 . ?
O3 V3 O3 83.90(13) 2 . ?
O3 V3 O3 83.90(13) 8_556 9_556 ?
O3 V3 O3 96.10(13) 2 9_556 ?
O3 V3 O3 96.10(13) . 9_556 ?
O3 V3 O3 96.10(13) 8_556 3 ?
O3 V3 O3 83.90(13) 2 3 ?
O3 V3 O3 83.90(13) . 3 ?
O3 V3 O3 180.0 9_556 3 ?
O3 V3 O3 83.90(13) 8_556 7_556 ?
O3 V3 O3 96.10(13) 2 7_556 ?
O3 V3 O3 180.0 . 7_556 ?
O3 V3 O3 83.90(13) 9_556 7_556 ?
O3 V3 O3 96.10(13) 3 7_556 ?
O3 V3 V2 86.52(9) 8_556 3_565 ?
O3 V3 V2 93.48(9) 2 3_565 ?
O3 V3 V2 137.83(6) . 3_565 ?
O3 V3 V2 42.17(6) 9_556 3_565 ?
O3 V3 V2 137.83(6) 3 3_565 ?
O3 V3 V2 42.17(6) 7_556 3_565 ?
O3 V3 V2 93.48(9) 8_556 9_546 ?
O3 V3 V2 86.52(9) 2 9_546 ?
O3 V3 V2 42.17(6) . 9_546 ?
O3 V3 V2 137.83(6) 9_556 9_546 ?
O3 V3 V2 42.17(6) 3 9_546 ?
O3 V3 V2 137.83(6) 7_556 9_546 ?
V2 V3 V2 180.000(14) 3_565 9_546 ?
O3 V3 V2 42.17(6) 8_556 2_655 ?
O3 V3 V2 137.83(6) 2 2_655 ?
O3 V3 V2 93.48(9) . 2_655 ?
O3 V3 V2 42.17(6) 9_556 2_655 ?
O3 V3 V2 137.83(6) 3 2_655 ?
O3 V3 V2 86.52(9) 7_556 2_655 ?
V2 V3 V2 61.20(2) 3_565 2_655 ?
V2 V3 V2 118.80(2) 9_546 2_655 ?
O3 V3 V2 137.83(6) 8_556 8_456 ?
O3 V3 V2 42.17(6) 2 8_456 ?
O3 V3 V2 86.52(9) . 8_456 ?
O3 V3 V2 137.83(6) 9_556 8_456 ?
O3 V3 V2 42.17(6) 3 8_456 ?
O3 V3 V2 93.48(9) 7_556 8_456 ?
V2 V3 V2 118.80(2) 3_565 8_456 ?
V2 V3 V2 61.20(2) 9_546 8_456 ?
V2 V3 V2 180.0 2_655 8_456 ?
O3 V3 V2 42.17(6) 8_556 1_445 ?
O3 V3 V2 137.83(6) 2 1_445 ?
O3 V3 V2 137.83(6) . 1_445 ?
O3 V3 V2 86.52(9) 9_556 1_445 ?
O3 V3 V2 93.48(9) 3 1_445 ?
O3 V3 V2 42.17(6) 7_556 1_445 ?
V2 V3 V2 61.20(2) 3_565 1_445 ?
V2 V3 V2 118.80(2) 9_546 1_445 ?
V2 V3 V2 61.20(2) 2_655 1_445 ?
V2 V3 V2 118.80(2) 8_456 1_445 ?
O3 V3 V2 137.83(6) 8_556 7_666 ?
O3 V3 V2 42.17(6) 2 7_666 ?
O3 V3 V2 42.17(6) . 7_666 ?
O3 V3 V2 93.48(9) 9_556 7_666 ?
O3 V3 V2 86.52(9) 3 7_666 ?
O3 V3 V2 137.83(6) 7_556 7_666 ?
V2 V3 V2 118.80(2) 3_565 7_666 ?
V2 V3 V2 61.20(2) 9_546 7_666 ?
V2 V3 V2 118.80(2) 2_655 7_666 ?
V2 V3 V2 61.20(2) 8_456 7_666 ?
V2 V3 V2 180.0 1_445 7_666 ?
O3 Co4 O3 113.00(8) . 3_665 ?
O3 Co4 O3 113.00(8) . 2_655 ?
O3 Co4 O3 112.99(8) 3_665 2_655 ?
O3 Co4 O1 105.66(9) . . ?
O3 Co4 O1 105.66(9) 3_665 . ?
O3 Co4 O1 105.66(9) 2_655 . ?
O5 V5 O5 112.00(9) 2_765 . ?
O5 V5 O5 112.00(10) 2_765 3_675 ?
O5 V5 O5 112.00(10) . 3_675 ?
O5 V5 O2 106.80(11) 2_765 . ?
O5 V5 O2 106.80(11) . . ?
O5 V5 O2 106.80(11) 3_675 . ?
O5 V5 K1 146.35(12) 2_765 7_887 ?
O5 V5 K1 57.19(2) . 7_887 ?
O5 V5 K1 57.19(2) 3_675 7_887 ?
O2 V5 K1 106.85(4) . 7_887 ?
O5 V5 K1 57.19(2) 2_765 7_777 ?
O5 V5 K1 146.35(12) . 7_777 ?
O5 V5 K1 57.19(2) 3_675 7_777 ?
O2 V5 K1 106.85(3) . 7_777 ?
K1 V5 K1 111.96(3) 7_887 7_777 ?
O5 V5 K1 57.19(2) 2_765 7_787 ?
O5 V5 K1 57.19(2) . 7_787 ?
O5 V5 K1 146.35(12) 3_675 7_787 ?
O2 V5 K1 106.85(3) . 7_787 ?
K1 V5 K1 111.96(3) 7_887 7_787 ?
K1 V5 K1 111.96(3) 7_777 7_787 ?
Co4 O1 V2 127.53(12) . . ?
Co4 O1 V2 127.53(12) . 2_655 ?
V2 O1 V2 86.75(17) . 2_655 ?
Co4 O1 V2 127.53(12) . 3_665 ?
V2 O1 V2 86.75(17) . 3_665 ?
V2 O1 V2 86.75(17) 2_655 3_665 ?
V5 O2 V2 119.58(12) . 3_675 ?
V5 O2 V2 119.58(12) . 2_765 ?
V2 O2 V2 97.73(16) 3_675 2_765 ?
V5 O2 V2 119.58(12) . . ?
V2 O2 V2 97.73(16) 3_675 . ?
V2 O2 V2 97.73(16) 2_765 . ?
V3 O3 Co4 124.86(15) . . ?
V3 O3 V2 98.97(11) . 9_546 ?
Co4 O3 V2 116.06(11) . 9_546 ?
V3 O3 V2 98.97(11) . 7_666 ?
Co4 O3 V2 116.06(11) . 7_666 ?
V2 O3 V2 97.01(12) 9_546 7_666 ?
V2 O4 V2 92.65(14) 2_655 . ?
V2 O4 Co1 132.34(8) 2_655 . ?
V2 O4 Co1 132.34(8) . . ?
V2 O4 K1 102.27(11) 2_655 7_777 ?
V2 O4 K1 102.27(11) . 7_777 ?
Co1 O4 K1 84.83(10) . 7_777 ?
V5 O5 Co1 129.08(17) . 1_665 ?
V5 O5 K1 143.35(16) . . ?
Co1 O5 K1 87.57(11) 1_665 . ?
V5 O5 K1 94.14(7) . 7_887 ?
Co1 O5 K1 94.74(7) 1_665 7_887 ?
K1 O5 K1 81.00(6) . 7_887 ?
V5 O5 K1 94.14(7) . 7_787 ?
Co1 O5 K1 94.74(7) 1_665 7_787 ?
K1 O5 K1 81.00(6) . 7_787 ?
K1 O5 K1 159.24(13) 7_887 7_787 ?
loop_
_geom_bond_atom_site_label_1
_geom_bond_atom_site_label_2
_geom_bond_distance
_geom_bond_site_symmetry_2
_geom_bond_publ_flag
K1 O5 2.937(4) . ?
K1 O5 2.938(4) 3_685 ?
K1 O5 2.938(4) 2_875 ?
K1 O5 2.9682(6) 7_887 ?
K1 O5 2.9682(6) 8_567 ?
K1 O5 2.9682(6) 9_767 ?
K1 O5 2.9682(6) 9_657 ?
K1 O5 2.9682(6) 8_577 ?
K1 O5 2.9682(6) 7_787 ?
K1 O4 3.351(3) 7_777 ?
K1 O4 3.351(3) 8_677 ?
K1 O4 3.351(4) 9_667 ?
Co1 O4 2.083(3) . ?
Co1 O4 2.083(3) 3_565 ?
Co1 O4 2.083(3) 2_665 ?
Co1 O5 2.112(3) 3_575 ?
Co1 O5 2.113(3) 2_765 ?
Co1 O5 2.113(3) 1_445 ?
Co1 K1 3.545(2) 1_445 ?
Co1 K1 3.7827(10) 7_777 ?
Co1 K1 3.7828(10) 7_787 ?
Co1 K1 3.7828(10) 7_677 ?
V2 O4 1.886(2) 3_665 ?
V2 O4 1.886(2) . ?
V2 O1 1.986(3) . ?
V2 O2 2.066(3) . ?
V2 O3 2.077(2) 8_666 ?
V2 O3 2.077(2) 7_666 ?
V2 V2 2.7277(12) 2_655 ?
V2 V2 2.7277(12) 3_665 ?
V2 V3 3.0563(7) 1_665 ?
V2 V2 3.1115(12) 3_675 ?
V2 V2 3.1115(12) 2_765 ?
V3 O3 1.941(3) 8_556 ?
V3 O3 1.941(3) 2 ?
V3 O3 1.941(3) . ?
V3 O3 1.941(3) 9_556 ?
V3 O3 1.941(3) 3 ?
V3 O3 1.941(3) 7_556 ?
V3 V2 3.0563(7) 3_565 ?
V3 V2 3.0563(7) 9_546 ?
V3 V2 3.0563(7) 2_655 ?
V3 V2 3.0563(7) 8_456 ?
V3 V2 3.0563(7) 1_445 ?
V3 V2 3.0563(7) 7_666 ?
Co4 O3 1.945(3) . ?
Co4 O3 1.945(3) 3_665 ?
Co4 O3 1.945(3) 2_655 ?
Co4 O1 1.972(5) . ?
V5 O5 1.695(3) 2_765 ?
V5 O5 1.695(3) . ?
V5 O5 1.695(3) 3_675 ?
V5 O2 1.831(5) . ?
V5 K1 3.5224(7) 7_887 ?
V5 K1 3.5224(7) 7_777 ?
V5 K1 3.5225(7) 7_787 ?
O1 V2 1.986(3) 2_655 ?
O1 V2 1.986(3) 3_665 ?
O2 V2 2.066(3) 3_675 ?
O2 V2 2.066(3) 2_765 ?
O3 V2 2.077(2) 9_546 ?
O3 V2 2.077(2) 7_666 ?
O4 V2 1.886(2) 2_655 ?
O4 K1 3.351(3) 7_777 ?
O5 Co1 2.113(3) 1_665 ?
O5 K1 2.9681(6) 7_887 ?
O5 K1 2.9682(6) 7_787 ?
