#------------------------------------------------------------------------------
#$Date: 2020-10-04 06:21:21 +0300 (Sun, 04 Oct 2020) $
#$Revision: 257102 $
#$URL: file:///home/coder/svn-repositories/cod/cif/4/00/36/4003658.cif $
#------------------------------------------------------------------------------
#
# This file is available in the Crystallography Open Database (COD),
# http://www.crystallography.net/
#
# All data on this site have been placed in the public domain by the
# contributors.
#
data_4003658
loop_
_publ_author_name
'L\'opez-Vergara, Adri\'an'
'Vizca\'ino-Anaya, Luc\'ia'
'Porras-V\'azquez, Jos\'e M.'
'Baldinozzi, Gianguido'
'Santos-G\'omez, Luc\'ia dos'
'Canales-Vazquez, Jes\'us'
'Marrero-L\'opez, David'
'Losilla, Enrique R.'
_publ_section_title
;
 Unravelling Crystal Superstructures and Transformations in the
 La6--xMoO12&#x2212;\d (0.6 &#x2264; x &#x2264; 3.0) Series: A System with
 Tailored Ionic/Electronic Conductivity
;
_journal_issue                   16
_journal_name_full               'Chemistry of Materials'
_journal_page_first              7052
_journal_page_last               7062
_journal_paper_doi               10.1021/acs.chemmater.0c02673
_journal_volume                  32
_journal_year                    2020
_chemical_formula_sum            'La41.44 Mo7.56 O85.12'
_chemical_formula_weight         7843.58
_space_group_IT_number           166
_space_group_name_Hall           '-R 3 2"'
_space_group_name_H-M_alt        'R -3 m :H'
_symmetry_cell_setting           trigonal
_symmetry_space_group_name_H-M   'R -3 m :H'
_audit_creation_date             2020-06-23T12:40
_audit_creation_method           'from EXP file using GSAS2CIF'
_audit_update_record
' 2020-06-23T12:40  Initial CIF as created by GSAS2CIF'
_cell_angle_alpha                90.0
_cell_angle_beta                 90.0
_cell_angle_gamma                120.0
_cell_formula_units_Z            3
_cell_length_a                   27.953(4)
_cell_length_b                   27.953
_cell_length_c                   9.9004(19)
_cell_measurement_temperature    298
_cell_volume                     6699.5(16)
_computing_structure_refinement  GSAS
_diffrn_ambient_temperature      298
_diffrn_measurement_device_type  Neutron
_diffrn_radiation_probe          neutron
_diffrn_radiation_wavelength     1.1545
_pd_block_id                     2020-06-23T12:40|UNDOPED_1500_50_ATOM|JOSE|w
_pd_calc_method                  'Rietveld Refinement'
_pd_instr_location               ' ?'
_pd_meas_2theta_range_inc        0.05
_pd_meas_2theta_range_max        164.75
_pd_meas_2theta_range_min        3.8
_pd_meas_number_of_points        3220
_pd_phase_name
'from C:/Users/JoseManuel/Dropbox/Malaga_PostDoc/LaxMoO11.25/Mi_exp'
_pd_proc_2theta_range_inc        0.05
_pd_proc_2theta_range_max        164.4056
_pd_proc_2theta_range_min        3.4556
_pd_proc_info_datetime           2020-06-23T12:40:39
_pd_proc_info_excluded_regions   ' ?'
_pd_proc_ls_background_function
;   GSAS Background function number 2 with 36 terms.
 Cosine Fourier series
      1:   -1125.16     2:    4509.02     3:   -5053.26     4:    4598.09    
      5:   -4676.43     6:    4434.68     7:   -4407.12     8:    4163.53    
      9:   -3993.72    10:    3668.82    11:   -3491.11    12:    3238.47    
     13:   -3004.72    14:    2721.01    15:   -2498.27    16:    2207.14    
     17:   -2047.75    18:    1752.31    19:   -1565.77    20:    1312.61    
     21:   -1201.90    22:    962.684    23:   -814.706    24:    723.743    
     25:   -547.762    26:    442.839    27:   -409.712    28:    255.577    
     29:   -247.349    30:    150.102    31:   -135.516    32:    92.6624    
     33:   -57.1841    34:    22.9365    35:   -69.6811    36:    3.85637    
;
_pd_proc_ls_peak_cutoff          0.00500
_pd_proc_ls_profile_function
;
 CW Profile function number 2 with  18 terms
 Profile coefficients for Simpson's rule integration of pseudovoigt function
 C.J. Howard (1982). J. Appl. Cryst.,15,615-620.
 P. Thompson, D.E. Cox & J.B. Hastings (1987). J. Appl. Cryst.,20,79-83.
 #1(GU)   =  761.814 #2(GV)   = ******** #3(GW)   =  523.136
 #4(LX)   =    0.000 #5(LY)   =   47.797 #6(trns) =    0.000
 #7(asym) =  19.4652 #8(shft) =   0.0000 #9(GP)   =    0.000
 #10(stec)=     0.00 #11(ptec)=     0.00 #12(sfec)=     0.00
 #13(L11) =    0.000 #14(L22) =    0.000 #15(L33) =    0.000
 #16(L12) =    0.000 #17(L13) =    0.000 #18(L23) =    0.000
 Peak tails are ignored  where the intensity is below 0.0050 times the peak
   Aniso. broadening axis   0.0   0.0   1.0
;
_pd_proc_ls_prof_R_factor        0.0304
_pd_proc_ls_prof_wR_expected     0.0235
_pd_proc_ls_prof_wR_factor       0.0398
_pd_proc_number_of_points        3220
_pd_spec_mounting                ' ?'
_refine_ls_goodness_of_fit_all   3.18
_refine_ls_matrix_type           full
_refine_ls_number_parameters     45
_refine_ls_number_restraints     4
_refine_ls_R_Fsqd_factor         0.04363
_refine_ls_shift/su_max          0.07
_refine_ls_shift/su_mean         0.02
_reflns_d_resolution_high        0.583
_reflns_d_resolution_low         13.977
_reflns_limit_h_max              41
_reflns_limit_h_min              0
_reflns_limit_k_max              24
_reflns_limit_k_min              0
_reflns_limit_l_max              17
_reflns_limit_l_min              -17
_reflns_number_total             4123
_cod_data_source_file            cm0c02673_si_002.cif
_cod_data_source_block           UNDOPED_1500_50_ATOM_publ
_cod_depositor_comments
;
The following automatic conversions were performed:

data item '_geom_angle_publ_flag' value 'N' was changed to 'n' in
accordance with the
/home/data/users/saulius/crontab/automatic-downloads/rss-feeds/ACS/lib/dictionaries/cif_core.dic
dictionary named 'cif_core.dic' version 2.4.2 last updated on
2011-04-26 (210 times).

data item '_geom_bond_publ_flag' value 'N' was changed to 'n' in
accordance with the
/home/data/users/saulius/crontab/automatic-downloads/rss-feeds/ACS/lib/dictionaries/cif_core.dic
dictionary named 'cif_core.dic' version 2.4.2 last updated on
2011-04-26 (258 times).

Automatic conversion script
Id: cif_fix_values 7556 2019-12-06 15:28:31Z antanas 

 Adding full bibliography for 4003658--4003659.cif.

 Adding full bibliography for 4003658--4003659.cif.
;
_cod_original_cell_volume        6699.5(24)
_cod_original_sg_symbol_H-M      'R -3 m'
_cod_database_code               4003658
loop_
_symmetry_equiv_pos_site_id
_symmetry_equiv_pos_as_xyz
1 +x,+y,+z
2 -y,x-y,+z
3 y-x,-x,+z
4 y-x,+y,+z
5 -y,-x,+z
6 +x,x-y,+z
-1 -x,-y,-z
-2 +y,y-x,-z
-3 x-y,+x,-z
-4 x-y,-y,-z
-5 +y,+x,-z
-6 -x,y-x,-z
101 +x+1/3,+y+2/3,+z+2/3
102 -y+1/3,x-y+2/3,+z+2/3
103 y-x+1/3,-x+2/3,+z+2/3
104 y-x+1/3,+y+2/3,+z+2/3
105 -y+1/3,-x+2/3,+z+2/3
106 +x+1/3,x-y+2/3,+z+2/3
-101 -x+2/3,-y+1/3,-z+1/3
-102 +y+2/3,y-x+1/3,-z+1/3
-103 x-y+2/3,+x+1/3,-z+1/3
-104 x-y+2/3,-y+1/3,-z+1/3
-105 +y+2/3,+x+1/3,-z+1/3
-106 -x+2/3,y-x+1/3,-z+1/3
201 +x+2/3,+y+1/3,+z+1/3
202 -y+2/3,x-y+1/3,+z+1/3
203 y-x+2/3,-x+1/3,+z+1/3
204 y-x+2/3,+y+1/3,+z+1/3
205 -y+2/3,-x+1/3,+z+1/3
206 +x+2/3,x-y+1/3,+z+1/3
-201 -x+1/3,-y+2/3,-z+2/3
-202 +y+1/3,y-x+2/3,-z+2/3
-203 x-y+1/3,+x+2/3,-z+2/3
-204 x-y+1/3,-y+2/3,-z+2/3
-205 +y+1/3,+x+2/3,-z+2/3
-206 -x+1/3,y-x+2/3,-z+2/3
loop_
_atom_site_type_symbol
_atom_site_label
_atom_site_fract_x
_atom_site_fract_y
_atom_site_fract_z
_atom_site_occupancy
_atom_site_thermal_displace_type
_atom_site_U_iso_or_equiv
_atom_site_symmetry_multiplicity
Mo Mo1 0.0 0.0 0.0 1.0 Uiso 0.26284 3
La La1 0.0 0.14311 0.0 1.0 Uiso 0.02043 18
La La2 0.0 0.27267 0.0 1.0 Uiso 0.10833 18
La La3 0.0 0.43563 0.0 1.0 Uiso 0.03159 18
Mo Mo2 0.14229 0.28458 -0.00917 1.0 Uiso 0.00609 18
La La4 0.13828 0.42822 0.00836 1.0 Uiso 0.01828 36
La La5 0.14188 0.57094 -0.01777 1.0 Uiso 0.00638 18
La La6 0.28442 0.71558 0.01501 0.90726 Uiso 0.00952 18
O O1 0.0 0.0 0.21269 0.51547 Uiso 0.0019 6
O O2 -0.0044 0.13704 0.26458 1.0 Uiso 0.01857 36
O O3 -0.0074 0.32742 0.27878 0.68843 Uiso 0.18202 36
O O4 -0.01139 0.41955 0.2429 0.73859 Uiso 0.04477 36
O O5 0.14293 0.28586 0.23614 0.64782 Uiso 0.002 18
O O6 0.15232 0.43622 0.25851 0.97664 Uiso 0.02223 36
O O7 0.15006 0.57503 0.22234 0.98962 Uiso 0.03523 18
O O8 0.27719 0.1386 0.24551 0.99268 Uiso 0.04705 18
O O9 0.29116 0.5823 0.23117 0.77003 Uiso 0.03633 18
O O10 0.41994 0.1292 0.23207 1.0 Uiso 0.02853 36
O O11 0.57163 0.14327 0.26314 1.0 Uiso 0.02415 18
O O12 0.57877 0.28938 0.2307 0.80755 Uiso 0.01066 18
Mo Mo6 0.28442 0.71558 0.01501 0.09274 Uiso 0.00952 18
loop_
_atom_type_symbol
_atom_type_number_in_cell
_atom_type_scat_length_neutron
_atom_type_scat_source
Mo 22.669 0.6715 International_Tables_Vol_C
La 124.331 0.8240 International_Tables_Vol_C
O 255.363 0.5803 International_Tables_Vol_C
loop_
_geom_angle_atom_site_label_1
_geom_angle_atom_site_label_2
_geom_angle_atom_site_label_3
_geom_angle
_geom_angle_site_symmetry_1
_geom_angle_site_symmetry_2
_geom_angle_site_symmetry_3
_geom_angle_publ_flag
O1 Mo1 O1 180.0 1_555 . -1_555 n
La2 La1 O2 92.3580(5) 1_555 . 1_555 n
La2 La1 O2 92.3580(5) 1_555 . -6_555 n
La2 La1 O10 32.0049(29) 1_555 . 103_554 n
La2 La1 O10 32.0050(29) 1_555 . -204_455 n
La2 La1 O11 90.3729 1_555 . 103_554 n
La2 La1 O11 90.3742 1_555 . -201_555 n
La2 La1 O12 145.7096(30) 1_555 . 103_554 n
La2 La1 O12 145.7085(30) 1_555 . -202_455 n
O2 La1 O2 175.2839(11) 1_555 . -6_555 n
O2 La1 O10 114.781(4) 1_555 . 103_554 n
O2 La1 O10 69.551(5) 1_555 . -204_455 n
O2 La1 O11 104.450(4) 1_555 . 103_554 n
O2 La1 O11 75.519(4) 1_555 . -201_555 n
O2 La1 O12 111.780(5) 1_555 . 103_554 n
O2 La1 O12 63.960(4) 1_555 . -202_455 n
O2 La1 O10 69.551(5) -6_555 . 103_554 n
O2 La1 O10 114.781(4) -6_555 . -204_455 n
O2 La1 O11 75.518(4) -6_555 . 103_554 n
O2 La1 O11 104.449(4) -6_555 . -201_555 n
O2 La1 O12 63.958(4) -6_555 . 103_554 n
O2 La1 O12 111.778(5) -6_555 . -202_455 n
O10 La1 O10 64.010(6) 103_554 . -204_455 n
O10 La1 O11 105.215(4) 103_554 . 103_554 n
O10 La1 O11 75.440(4) 103_554 . -201_555 n
O10 La1 O12 113.705(6) 103_554 . 103_554 n
O10 La1 O12 177.69630(10) 103_554 . -202_455 n
O10 La1 O11 75.439(4) -204_455 . 103_554 n
O10 La1 O11 105.217(4) -204_455 . -201_555 n
O10 La1 O12 177.69791(10) -204_455 . 103_554 n
O10 La1 O12 113.704(6) -204_455 . -202_455 n
O11 La1 O11 180.0 103_554 . -201_555 n
O11 La1 O12 105.789(4) 103_554 . 103_554 n
O11 La1 O12 73.567(4) 103_554 . -202_455 n
O11 La1 O12 73.568(4) -201_555 . 103_554 n
O11 La1 O12 105.791(4) -201_555 . -202_455 n
O12 La1 O12 68.582(6) 103_554 . -202_455 n
La1 La2 O3 160.429(4) 1_555 . 102_554 n
La1 La2 O3 160.429(4) 1_555 . -205_344 n
La1 La2 O4 94.34010(20) 1_555 . 102_554 n
La1 La2 O4 94.34010(20) 1_555 . -205_344 n
La1 La2 O10 47.4412(32) 1_555 . 103_554 n
La1 La2 O10 47.4412(32) 1_555 . -204_455 n
O3 La2 O3 39.142(8) 102_554 . -205_344 n
O3 La2 O4 83.1137(30) 102_554 . 102_554 n
O3 La2 O4 88.6987(35) 102_554 . -205_344 n
O3 La2 O10 115.193(7) 102_554 . 103_554 n
O3 La2 O10 148.0887(5) 102_554 . -204_455 n
O3 La2 O4 88.6986(35) -205_344 . 102_554 n
O3 La2 O4 83.1137(30) -205_344 . -205_344 n
O3 La2 O10 148.0887(5) -205_455 . 103_554 n
O3 La2 O10 115.193(7) -205_455 . -204_455 n
O4 La2 O4 171.31979(30) 102_554 . -205_344 n
O4 La2 O10 109.469(8) 102_554 . 103_554 n
O4 La2 O10 76.648(7) 102_554 . -204_455 n
O4 La2 O10 76.648(7) -205_455 . 103_554 n
O4 La2 O10 109.469(8) -205_455 . -204_455 n
O10 La2 O10 94.882(7) 103_554 . -204_455 n
La3 La3 O4 96.8419(16) 6_565 . 1_555 n
La3 La3 O4 96.8419(16) 6_565 . -6_555 n
La3 La3 O5 39.7959(27) 6_565 . 102_554 n
La3 La3 O5 39.7951(27) 6_565 . -202_455 n
La3 La3 O6 90.877 6_565 . 102_554 n
La3 La3 O6 90.877 6_565 . -205_455 n
O4 La3 O4 166.3162(31) 1_555 . -6_555 n
O4 La3 O5 123.5274(29) 1_555 . 102_554 n
O4 La3 O5 68.330(6) 1_555 . -202_455 n
O4 La3 O6 99.845(5) 1_555 . 102_554 n
O4 La3 O6 79.942(5) 1_555 . -205_455 n
O4 La3 O5 68.329(6) -6_555 . 102_554 n
O4 La3 O5 123.5269(29) -6_555 . -202_455 n
O4 La3 O6 79.942(5) -6_555 . 102_554 n
O4 La3 O6 99.845(5) -6_555 . -205_455 n
O5 La3 O5 79.591(5) 102_554 . -202_455 n
O5 La3 O6 111.405(5) 102_554 . 102_554 n
O5 La3 O6 70.035(4) 102_554 . -205_455 n
O5 La3 O6 70.035(4) -202_455 . 102_554 n
O5 La3 O6 111.405(5) -202_455 . -205_455 n
O6 La3 O6 178.2461 102_554 . -205_455 n
O2 La4 O4 173.20670(10) 102_554 . -205_344 n
O2 La4 O6 102.664(5) 102_554 . 1_555 n
O2 La4 O6 67.0568(35) 102_554 . -205_455 n
O2 La4 O7 64.185(5) 102_554 . -203_555 n
O2 La4 O8 98.427(4) 102_554 . 103_554 n
O2 La4 O10 77.264(5) 102_554 . -5_555 n
O4 La4 O6 76.956(5) -205_455 . 1_555 n
O4 La4 O6 119.067(4) -205_455 . -205_455 n
O4 La4 O7 110.437(4) -205_455 . -203_555 n
O4 La4 O8 75.418(4) -205_455 . 103_554 n
O4 La4 O10 102.733(5) -205_455 . -5_555 n
O6 La4 O6 76.319(4) 1_555 . -205_455 n
O6 La4 O7 60.0909(29) 1_555 . -203_555 n
O6 La4 O8 108.092(6) 1_555 . 103_554 n
O6 La4 O10 176.8477(7) 1_555 . -5_555 n
O6 La4 O7 101.4978(35) -205_455 . -203_555 n
O6 La4 O8 165.48241(20) -205_455 . 103_554 n
O6 La4 O10 106.4211(35) -205_455 . -5_555 n
O7 La4 O8 70.400(5) -203_555 . 103_554 n
O7 La4 O10 117.4219(34) -203_555 . -5_555 n
O8 La4 O10 68.866(5) 103_554 . -5_555 n
O2 La5 O2 110.6396(16) 102_554 . 105_554 n
O2 La5 O5 115.8602(29) 102_554 . 102_554 n
O2 La5 O6 166.6887(20) 102_554 . -202_455 n
O2 La5 O6 68.6307(34) 102_554 . -205_455 n
O2 La5 O7 99.1452(33) 102_554 . 1_555 n
O2 La5 O11 77.8234(26) 102_554 . -2_565 n
O2 La5 O5 115.8562(29) 105_554 . 102_554 n
O2 La5 O6 68.6261(34) 105_554 . -202_455 n
O2 La5 O6 166.6883(20) 105_554 . -205_455 n
O2 La5 O7 99.1396(33) 105_554 . 1_555 n
O2 La5 O11 77.8186(26) 105_554 . -2_565 n
O5 La5 O6 74.758(5) 102_554 . -202_455 n
O5 La5 O6 74.760(5) 102_554 . -205_455 n
O5 La5 O7 113.7427(30) 102_554 . 1_555 n
O5 La5 O11 71.805(4) 102_554 . -2_565 n
O6 La5 O6 108.831(6) -202_455 . -205_455 n
O6 La5 O7 68.322(5) -202_455 . 1_555 n
O6 La5 O11 114.271(5) -202_455 . -2_565 n
O6 La5 O7 68.326(5) -205_455 . 1_555 n
O6 La5 O11 114.278(5) -205_455 . -2_565 n
O7 La5 O11 174.4520(13) 1_555 . -2_565 n
O1 La6 O2 102.859(6) 101_554 . 101_554 n
O1 La6 O2 102.860(6) 101_554 . 105_554 n
O1 La6 O7 175.1141(7) 101_554 . -202_455 n
O1 La6 O9 110.901(8) 101_554 . 3_565 n
O1 La6 O9 71.771(7) 101_554 . -201_565 n
O1 La6 O9 71.769(7) 101_554 . -202_455 n
O1 La6 O12 54.802(4) 101_554 . -2_565 n
O2 La6 O2 108.170(5) 101_554 . 105_554 n
O2 La6 O7 74.455(5) 101_554 . -202_455 n
O2 La6 O9 115.318(4) 101_554 . 3_565 n
O2 La6 O9 77.935(4) 101_554 . -201_565 n
O2 La6 O9 172.89079(20) 101_554 . -202_455 n
O2 La6 O12 71.629(5) 101_554 . -2_565 n
O2 La6 O7 74.457(5) 105_554 . -202_455 n
O2 La6 O9 115.314(4) 105_554 . 3_565 n
O2 La6 O9 172.89439(20) 105_554 . -201_565 n
O2 La6 O9 77.937(4) 105_554 . -202_455 n
O2 La6 O12 71.625(5) 105_554 . -2_565 n
O7 La6 O9 73.985(7) -202_455 . 3_565 n
O7 La6 O9 111.234(6) -202_455 . -201_565 n
O7 La6 O9 111.240(6) -202_455 . -202_455 n
O7 La6 O12 120.313(4) -202_455 . -2_565 n
O9 La6 O9 63.7241(34) 3_565 . -201_565 n
O9 La6 O9 63.7214(33) 3_565 . -202_455 n
O9 La6 O12 165.7026(33) 3_565 . -2_565 n
O9 La6 O9 95.746(4) -201_565 . -202_455 n
O9 La6 O12 107.734(5) -201_565 . -2_565 n
O9 La6 O12 107.729(5) -202_455 . -2_565 n
Mo1 O1 La6 119.558(6) 1_555 . 201_445 n
Mo1 O1 La6 119.558(6) 1_555 . 202_555 n
Mo1 O1 La6 119.558(6) 1_555 . 203_455 n
La6 O1 La6 97.757(7) 201_445 . 202_555 n
La6 O1 La6 97.757(7) 201_445 . 203_455 n
La6 O1 La6 97.757(7) 202_555 . 203_455 n
La1 O2 La4 106.645(4) 1_555 . 203_455 n
La1 O2 La5 99.2990(32) 1_555 . 203_455 n
La1 O2 La6 114.450(4) 1_555 . 201_445 n
La1 O2 Mo6 114.450(4) 1_555 . 201_445 n
La4 O2 La5 105.4480(22) 203_455 . 203_455 n
La4 O2 La6 114.298(5) 203_455 . 201_445 n
La4 O2 Mo6 114.298(5) 203_455 . 201_445 n
La5 O2 La6 115.2073(33) 203_455 . 201_445 n
La5 O2 Mo6 115.2073(33) 203_455 . 201_445 n
La6 O2 Mo6 0.0 201_445 . 201_445 n
La2 O3 O3 70.429(4) 203_455 . -104_444 n
La2 O4 La3 122.4812(27) 203_455 . 1_555 n
La2 O4 La4 111.877(5) 203_455 . -205_344 n
La3 O4 La4 100.987(5) 1_555 . -205_344 n
La3 O5 La3 100.409(5) 203_455 . 205_555 n
La3 O5 La5 109.291(5) 203_455 . 203_455 n
La3 O5 La5 109.292(5) 205_555 . 203_455 n
La3 O6 La4 102.113(5) 203_455 . 1_555 n
La3 O6 La4 106.3720(28) 203_455 . -205_344 n
La3 O6 La5 105.788(4) 203_455 . -203_444 n
La4 O6 La4 101.792(5) 1_555 . -205_344 n
La4 O6 La5 121.6815(32) 1_555 . -203_444 n
La4 O6 La5 117.309(5) -205_344 . -203_444 n
La4 O7 La4 103.258(5) -202_344 . -205_344 n
La4 O7 La5 109.490(5) -202_344 . 1_555 n
La4 O7 La6 106.981(6) -202_344 . -203_444 n
La4 O7 Mo6 106.981(6) -202_455 . -203_555 n
La4 O7 La5 109.485(5) -205_344 . 1_555 n
La4 O7 La6 106.978(6) -205_344 . -203_444 n
La4 O7 Mo6 106.978(6) -205_455 . -203_555 n
La5 O7 La6 119.429(4) 1_555 . -203_444 n
La5 O7 Mo6 119.429(4) 1_555 . -203_555 n
La6 O7 Mo6 0.0 -203_555 . -203_555 n
La4 O8 La4 115.534(6) 202_555 . 205_555 n
La6 O9 La6 114.325(4) 2_665 . -201_454 n
La6 O9 La6 114.319(4) 2_665 . -203_444 n
La6 O9 Mo6 0.0 2_665 . 2_665 n
La6 O9 La6 118.630(6) -201_454 . -203_444 n
La6 O9 Mo6 114.325(4) -201_565 . 2_665 n
La6 O9 Mo6 114.319(4) -203_555 . 2_665 n
La1 O10 La2 100.554(6) 202_555 . 202_555 n
La1 O10 La4 106.538(6) 202_555 . -5_555 n
La2 O10 La4 125.707(5) 202_555 . -5_555 n
La1 O11 La1 112.6653(34) 202_555 . 206_555 n
La1 O11 La5 107.201(4) 202_555 . -3_655 n
La1 O11 La5 107.194(4) 206_555 . -3_655 n
La1 O12 La1 99.981(5) 202_555 . 205_555 n
La1 O12 La6 109.693(5) 202_555 . -3_655 n
La1 O12 La6 109.688(5) 205_555 . -3_655 n
O2 Mo6 O2 108.170(5) 101_554 . 105_554 n
O2 Mo6 O7 74.455(5) 101_554 . -202_455 n
O2 Mo6 O9 115.318(4) 101_554 . 3_565 n
O2 Mo6 O7 74.457(5) 105_554 . -202_455 n
O2 Mo6 O9 115.314(4) 105_554 . 3_565 n
O7 Mo6 O9 73.985(7) -202_455 . 3_565 n
loop_
_geom_bond_atom_site_label_1
_geom_bond_atom_site_label_2
_geom_bond_distance
_geom_bond_site_symmetry_1
_geom_bond_site_symmetry_2
_geom_bond_publ_flag
Mo1 La1 4.0003(5) . 1_555 n
Mo1 La1 4.0003(5) . 2_555 n
Mo1 La1 4.0003(5) . 3_555 n
Mo1 La1 4.0003(5) . 4_555 n
Mo1 La1 4.0003(5) . 5_555 n
Mo1 La1 4.0003(5) . 6_555 n
Mo1 La6 4.1836(6) . -101_443 n
Mo1 La6 4.1836(6) . -102_333 n
Mo1 La6 4.1836(6) . -103_433 n
Mo1 La6 4.1836(6) . 201_445 n
Mo1 La6 4.1836(6) . 202_555 n
Mo1 La6 4.1836(6) . 203_455 n
Mo1 O1 2.1058(4) . 1_555 n
Mo1 O1 2.1058(4) . -1_555 n
Mo1 O12 2.35808(27) . 101_444 n
Mo1 O12 2.35808(27) . 102_544 n
Mo1 O12 2.35808(27) . 103_554 n
Mo1 O12 2.35808(27) . -201_444 n
Mo1 O12 2.35808(27) . -202_344 n
Mo1 O12 2.35808(27) . -203_334 n
Mo1 Mo6 4.1836(6) . -101_443 n
Mo1 Mo6 4.1836(6) . -102_333 n
Mo1 Mo6 4.1836(6) . -103_433 n
Mo1 Mo6 4.1836(6) . 201_445 n
Mo1 Mo6 4.1836(6) . 202_555 n
Mo1 Mo6 4.1836(6) . 203_455 n
La1 Mo1 4.0003(5) . 1_555 n
La1 La1 4.0003(5) . 4_555 n
La1 La1 4.0003(5) . 5_555 n
La1 La2 3.6217(5) . 1_555 n
La1 Mo2 3.9671(5) . 1_555 n
La1 Mo2 3.9670(5) . -3_555 n
La1 La4 4.0970(6) . -104_443 n
La1 La4 4.0970(6) . 203_455 n
La1 La5 3.8899(5) . -102_333 n
La1 La5 3.8898(5) . 203_455 n
La1 La6 4.1348(6) . -102_333 n
La1 La6 4.1348(6) . 201_445 n
La1 O2 2.6238(5) . 1_555 n
La1 O2 2.6238(5) . -6_555 n
La1 O10 2.71360(32) . 103_554 n
La1 O10 2.71360(32) . -204_344 n
La1 O11 2.40321(30) . 103_554 n
La1 O11 2.40330(30) . -201_444 n
La1 O12 2.61129(31) . 103_554 n
La1 O12 2.61147(31) . -202_344 n
La1 Mo6 4.1348(6) . -102_333 n
La1 Mo6 4.1348(6) . 201_445 n
La2 La1 3.6217(5) . 1_555 n
La2 La2 4.4178(5) . 102_554 n
La2 La2 4.4178(5) . 203_455 n
La2 La3 4.5552(6) . 1_555 n
La2 La3 4.1346(5) . 102_554 n
La2 La3 4.1346(5) . 203_455 n
La2 Mo2 3.8231(5) . 1_555 n
La2 Mo2 3.8229(5) . -3_555 n
La2 La4 4.1287(5) . 1_555 n
La2 La4 4.1287(5) . -6_555 n
La2 La4 3.8718(6) . -104_443 n
La2 La4 3.8718(6) . 203_455 n
La2 O3 3.2123(5) . 1_555 n
La2 O3 3.2123(5) . -6_555 n
La2 O3 1.66799(20) . 102_554 n
La2 O3 1.66798(20) . -205_344 n
La2 O4 2.27756(27) . 102_554 n
La2 O4 2.27756(27) . -205_344 n
La2 O10 1.95251(22) . 103_554 n
La2 O10 1.95251(22) . -204_344 n
La3 La2 4.5552(6) . 1_555 n
La3 La2 4.1346(5) . 102_554 n
La3 La2 4.1346(5) . 203_455 n
La3 La3 3.5986(5) . 6_565 n
La3 Mo2 4.0161(6) . 102_554 n
La3 Mo2 4.0161(6) . -202_344 n
La3 La4 3.9739(5) . 1_555 n
La3 La4 3.9739(5) . -6_555 n
La3 La4 3.9661(5) . 102_554 n
La3 La4 3.9661(5) . -205_344 n
La3 La5 3.8814(5) . 1_555 n
La3 La5 3.8815(5) . -1_565 n
La3 O3 3.0355(4) . 102_554 n
La3 O3 3.0355(4) . -205_344 n
La3 O4 2.4379(4) . 1_555 n
La3 O4 2.4379(4) . -6_555 n
La3 O5 2.34178(27) . 102_554 n
La3 O5 2.34182(27) . -202_344 n
La3 O6 2.59883(32) . 102_554 n
La3 O6 2.59883(32) . -205_344 n
Mo2 La1 3.9671(5) . 1_555 n
Mo2 La1 3.9670(5) . 4_555 n
Mo2 La2 3.8231(5) . 1_555 n
Mo2 La2 3.8229(5) . 4_555 n
Mo2 La3 4.0161(6) . 203_455 n
Mo2 La3 4.0161(6) . 205_555 n
Mo2 Mo2 3.9113(5) . -101_443 n
Mo2 La4 4.0761(5) . 1_555 n
Mo2 La4 4.0760(5) . 4_555 n
Mo2 La4 4.0715(5) . -101_443 n
Mo2 La4 4.0716(5) . -104_443 n
Mo2 La5 3.9267(5) . 203_455 n
Mo2 O4 2.48140(29) . -203_444 n
Mo2 O4 2.48154(29) . -205_344 n
Mo2 O5 2.4289(5) . 1_555 n
Mo2 O8 2.3467(4) . -3_555 n
Mo2 O8 2.65618(33) . 103_554 n
Mo2 O10 2.60161(31) . 103_554 n
Mo2 O10 2.60146(31) . 105_554 n
Mo2 O11 2.41912(29) . -201_444 n
La4 La1 4.0970(6) . 102_554 n
La4 La2 4.1287(5) . 1_555 n
La4 La2 3.8718(6) . 102_554 n
La4 La3 3.9739(5) . 1_555 n
La4 La3 3.9661(5) . 203_455 n
La4 Mo2 4.0761(5) . 1_555 n
La4 Mo2 4.0715(5) . -101_443 n
La4 La4 4.2392(6) . 4_555 n
La4 La4 3.7737(5) . -205_344 n
La4 La5 3.9486(5) . 1_555 n
La4 La5 4.1596(6) . -203_444 n
La4 La6 4.0108(5) . 2_665 n
La4 O2 2.48351(30) . 102_554 n
La4 O3 3.3715(4) . 102_554 n
La4 O4 2.69806(33) . -205_344 n
La4 O6 2.4999(5) . 1_555 n
La4 O6 2.36181(29) . -205_344 n
La4 O7 2.70351(32) . -203_444 n
La4 O8 2.50581(29) . 103_554 n
La4 O10 2.3928(4) . -5_555 n
La4 Mo6 4.0108(5) . 2_665 n
La5 La1 3.8898(5) . 102_554 n
La5 La1 3.8899(5) . 105_554 n
La5 La3 3.8814(5) . 1_555 n
La5 La3 3.8815(5) . 6_565 n
La5 Mo2 3.9267(5) . 102_554 n
La5 La4 3.9486(5) . 1_555 n
La5 La4 3.9488(5) . 6_565 n
La5 La4 4.1596(6) . -202_344 n
La5 La4 4.1595(6) . -205_344 n
La5 La6 4.0271(5) . 1_555 n
La5 La6 4.0271(5) . 2_665 n
La5 La6 4.0260(5) . -203_444 n
La5 O2 2.47879(32) . 102_554 n
La5 O2 2.47893(32) . 105_554 n
La5 O5 2.41699(29) . 102_554 n
La5 O6 2.26142(26) . -202_344 n
La5 O6 2.26129(26) . -205_344 n
La5 O7 2.3853(4) . 1_555 n
La5 O9 2.85130(33) . -202_344 n
La5 O11 2.4296(5) . -2_565 n
La5 Mo6 4.0271(5) . 1_555 n
La5 Mo6 4.0271(5) . 2_665 n
La5 Mo6 4.0260(5) . -203_444 n
La6 Mo1 4.1836(6) . 101_554 n
La6 La1 4.1348(6) . 101_554 n
La6 La1 4.1348(6) . 105_554 n
La6 La4 4.0108(5) . 3_565 n
La6 La4 4.0107(5) . 6_565 n
La6 La5 4.0271(5) . 1_555 n
La6 La5 4.0271(5) . 3_565 n
La6 La5 4.0260(5) . -202_344 n
La6 La6 4.1018(5) . 2_665 n
La6 La6 4.1018(5) . 3_565 n
La6 La6 3.8243(5) . -202_344 n
La6 La6 3.8243(5) . -203_444 n
La6 O1 2.72247(30) . 101_554 n
La6 O2 2.28910(27) . 101_554 n
La6 O2 2.28905(27) . 105_554 n
La6 O7 2.27649(26) . -202_344 n
La6 O9 2.1647(4) . 3_565 n
La6 O9 2.38471(28) . -201_454 n
La6 O9 2.38486(28) . -202_344 n
La6 O12 2.4445(5) . -2_565 n
La6 Mo6 4.1018(5) . 2_665 n
La6 Mo6 4.1018(5) . 3_565 n
La6 Mo6 3.8243(5) . -202_344 n
La6 Mo6 3.8243(5) . -203_444 n
O1 Mo1 2.1058(4) . 1_555 n
O1 La6 2.72247(30) . 201_445 n
O1 La6 2.72247(30) . 202_555 n
O1 La6 2.72247(30) . 203_455 n
O1 Mo6 2.72247(30) . 201_445 n
O1 Mo6 2.72247(30) . 202_555 n
O1 Mo6 2.72247(30) . 203_455 n
O2 La1 2.6238(5) . 1_555 n
O2 La4 2.48351(30) . 203_455 n
O2 La5 2.47879(32) . 203_455 n
O2 La6 2.28910(27) . 201_445 n
O2 Mo6 2.28910(27) . 201_445 n
O3 La2 3.2123(5) . 1_555 n
O3 La2 1.66798(20) . 203_455 n
O3 La3 3.0355(4) . 203_455 n
O3 La4 3.3715(4) . 203_455 n
O3 O3 1.11746(20) . -104_444 n
O4 La2 2.27756(27) . 203_455 n
O4 La3 2.4379(4) . 1_555 n
O4 Mo2 2.48140(29) . -202_344 n
O4 La4 2.69806(33) . -205_344 n
O5 La3 2.34178(27) . 203_455 n
O5 La3 2.34182(27) . 205_555 n
O5 Mo2 2.4289(5) . 1_555 n
O5 La5 2.41699(29) . 203_455 n
O6 La3 2.59883(32) . 203_455 n
O6 La4 2.4999(5) . 1_555 n
O6 La4 2.36181(29) . -205_344 n
O6 La5 2.26142(26) . -203_444 n
O7 La4 2.70351(32) . -202_344 n
O7 La4 2.70358(32) . -205_344 n
O7 La5 2.3853(4) . 1_555 n
O7 La6 2.27649(26) . -203_444 n
O7 Mo6 2.27649(26) . -203_444 n
O8 Mo2 2.3467(4) . -2_555 n
O8 Mo2 2.65618(33) . 202_555 n
O8 La4 2.50581(29) . 202_555 n
O8 La4 2.50574(29) . 205_555 n
O9 La5 2.85130(33) . -203_444 n
O9 La6 2.1647(4) . 2_665 n
O9 La6 2.38471(28) . -201_454 n
O9 La6 2.38486(28) . -203_444 n
O9 Mo6 2.1647(4) . 2_665 n
O9 Mo6 2.38471(28) . -201_454 n
O9 Mo6 2.38486(28) . -203_444 n
O10 La1 2.71360(32) . 202_555 n
O10 La2 1.95251(22) . 202_555 n
O10 Mo2 2.60161(31) . 202_555 n
O10 La4 2.3928(4) . -5_555 n
O11 La1 2.40321(30) . 202_555 n
O11 La1 2.40330(30) . 206_555 n
O11 Mo2 2.41912(29) . -201_444 n
O11 La5 2.4296(5) . -3_655 n
O12 Mo1 2.35808(27) . 201_555 n
O12 La1 2.61130(31) . 202_555 n
O12 La1 2.61147(31) . 205_555 n
O12 La6 2.4445(5) . -3_655 n
O12 Mo6 2.4445(5) . -3_655 n
Mo6 Mo1 4.1836(6) . 101_554 n
Mo6 La1 4.1348(6) . 101_554 n
Mo6 La1 4.1348(6) . 105_554 n
Mo6 La4 4.0108(5) . 3_565 n
Mo6 La4 4.0107(5) . 6_565 n
Mo6 La5 4.0271(5) . 1_555 n
Mo6 La5 4.0271(5) . 3_565 n
Mo6 La5 4.0260(5) . -202_344 n
Mo6 La6 4.1018(5) . 2_665 n
Mo6 La6 4.1018(5) . 3_565 n
Mo6 La6 3.8243(5) . -202_344 n
Mo6 La6 3.8243(5) . -203_444 n
Mo6 O1 2.72247(30) . 101_554 n
Mo6 O2 2.28910(27) . 101_554 n
Mo6 O2 2.28905(27) . 105_554 n
Mo6 O7 2.27649(26) . -202_344 n
Mo6 O9 2.1647(4) . 3_565 n
Mo6 O9 2.38471(28) . -201_454 n
Mo6 O9 2.38486(28) . -202_344 n
Mo6 O12 2.4445(5) . -2_565 n
Mo6 Mo6 4.1018(5) . 2_665 n
Mo6 Mo6 4.1018(5) . 3_565 n
Mo6 Mo6 3.8243(5) . -202_344 n
Mo6 Mo6 3.8243(5) . -203_444 n
loop_
_pd_meas_intensity_total
_pd_proc_ls_weight
_pd_proc_intensity_bkg_calc
_pd_calc_intensity_total
287(33) 0.000902 306.8 320.0
281(34) 0.000870 314.4 328.0
275(34) 0.000845 322.0 335.9
322(35) 0.000803 330. 344.
271(34) 0.000870 337.2 351.7
284(35) 0.000816 344.7 359.6
303(25) 0.001626 352.2 367.5
310(36) 0.000763 360. 375.
337(27) 0.001382 367.0 383.3
398(28) 0.001240 374.4 391.2
386(29) 0.001206 381.7 399.1
367(28) 0.001276 388.9 407.1
375(23) 0.001958 396.1 415.1
380(29) 0.001231 403.2 423.2
422(24) 0.001680 410.3 431.4
434(24) 0.001680 417.3 439.7
409(24) 0.001722 424.2 448.0
418(24) 0.001694 431.0 456.5
427(21) 0.002268 437.8 464.9
476(26) 0.001479 444.5 473.3
482(23) 0.001975 451.2 481.4
481(22) 0.002011 457.7 489.0
470(22) 0.002029 464.2 495.9
468(22) 0.002029 470.6 502.1
482(22) 0.001993 476.9 507.2
511(23) 0.001858 483.1 511.4
545(24) 0.001780 489.2 514.8
539(24) 0.001780 495.2 517.4
561(24) 0.001722 501.1 519.7
564(24) 0.001722 506.9 521.9
594(25) 0.001652 512.7 524.2
590(25) 0.001639 518.3 526.8
577(24) 0.001722 523.8 529.9
579(24) 0.001694 529.2 533.5
621(25) 0.001600 534.6 537.4
662(26) 0.001491 539.8 541.7
634(25) 0.001562 544.9 546.2
591(24) 0.001680 549.9 550.9
611(25) 0.001639 554.8 555.7
644(25) 0.001550 559.5 560.6
643(25) 0.001575 564.2 565.5
642(25) 0.001562 568.8 570.4
617(25) 0.001639 573.2 575.3
647(25) 0.001562 577.5 580.3
596(24) 0.001694 581.7 585.3
663(26) 0.001526 585.8 590.2
636(25) 0.001613 589.8 595.2
639(25) 0.001587 593.7 600.2
648(25) 0.001575 597.5 605.0
603(24) 0.001708 601.1 609.6
660(25) 0.001550 604.6 614.0
616(25) 0.001652 608.0 618.2
607(24) 0.001694 611.3 622.2
651(25) 0.001562 614.5 625.9
632(25) 0.001626 617.6 629.4
615(24) 0.001680 620.5 632.8
615(25) 0.001666 623.4 636.1
607(24) 0.001694 626.1 639.3
630(25) 0.001639 628.7 642.5
629(25) 0.001626 631.2 645.6
618(25) 0.001666 633.6 648.6
645(25) 0.001613 635.9 651.8
642(25) 0.001600 638.1 654.9
718(26) 0.001435 640.1 658.1
641(25) 0.001613 642.1 661.5
688(26) 0.001491 643.9 665.1
640(25) 0.001613 645.7 668.8
649(25) 0.001600 647.3 672.8
670(26) 0.001538 648.9 676.8
704(26) 0.001457 650.3 680.9
712(26) 0.001446 651.7 684.7
699(26) 0.001468 652.9 688.2
684(26) 0.001502 654.0 691.0
692(26) 0.001491 655.1 693.1
691(26) 0.001491 656.1 694.4
658(25) 0.001562 656.9 694.9
683(26) 0.001502 657.7 694.8
738(27) 0.001403 658.4 694.2
721(27) 0.001424 659.0 693.9
646(25) 0.001587 659.5 693.4
694(26) 0.001491 659.9 693.2
734(27) 0.001403 660.3 693.3
693(26) 0.001479 660.6 693.9
654(25) 0.001575 660.8 694.8
684(26) 0.001502 660.9 696.1
707(26) 0.001457 661.0 697.6
667(25) 0.001550 661.0 699.5
726(27) 0.001413 660.9 701.5
661(25) 0.001575 660.7 703.7
726(27) 0.001424 660.5 706.1
670(26) 0.001526 660.3 708.6
700(26) 0.001491 659.9 711.0
684(26) 0.001502 659.6 713.4
637(25) 0.001613 659.1 715.7
660(25) 0.001575 658.7 717.9
658(25) 0.001562 658.1 720.0
668(26) 0.001538 657.5 722.4
636(25) 0.001639 656.9 724.9
652(25) 0.001587 656.3 727.7
692(26) 0.001491 655.6 730.4
629(25) 0.001666 654.8 733.0
694(26) 0.001491 654.1 735.0
660(25) 0.001562 653.3 736.3
693(26) 0.001514 652.4 736.7
684(26) 0.001514 651.6 736.4
645(25) 0.001600 650.7 735.5
725(26) 0.001435 649.8 734.5
706(26) 0.001468 648.9 733.8
690(26) 0.001502 647.9 733.7
674(25) 0.001550 647.0 734.6
676(25) 0.001550 646.0 736.4
710(26) 0.001457 645.1 739.3
702(26) 0.001468 644.1 743.2
720(26) 0.001446 643.1 747.6
702(26) 0.001479 642.1 752.3
752(27) 0.001362 641.2 756.4
699(26) 0.001491 640.2 759.4
686(26) 0.001514 639.2 760.5
696(26) 0.001479 638.2 758.8
742(27) 0.001403 637.3 754.0
700(26) 0.001468 636.4 746.1
729(27) 0.001413 635.4 735.4
699(26) 0.001468 634.5 722.8
695(26) 0.001479 633.6 709.2
738(27) 0.001382 632.7 695.5
728(27) 0.001403 631.9 682.9
718(27) 0.001424 631.1 671.7
715(27) 0.001424 630.3 662.0
753(27) 0.001332 629.5 654.0
776(28) 0.001313 628.7 647.4
691(26) 0.001446 628.0 642.1
773(28) 0.001303 627.3 637.9
681(26) 0.001457 626.7 634.5
705(27) 0.001413 626.1 632.1
742(28) 0.001313 625.5 630.0
693(26) 0.001435 625.0 628.3
655(26) 0.001491 624.5 627.0
633(26) 0.001538 624.0 626.0
666(26) 0.001457 623.6 625.3
643(26) 0.001514 623.3 624.7
689(27) 0.001382 623.0 623.8
675(26) 0.001435 622.7 623.6
604(25) 0.001575 622.5 623.5
686(27) 0.001392 622.3 623.6
705(27) 0.001352 622.2 624.0
624(26) 0.001526 622.1 624.6
648(26) 0.001446 622.1 625.6
724(28) 0.001313 622.2 626.9
680(27) 0.001382 622.3 628.6
691(27) 0.001352 622.4 630.8
651(26) 0.001446 622.6 633.4
669(27) 0.001403 622.9 636.7
738(28) 0.001266 623.2 639.9
649(26) 0.001446 623.6 643.3
645(26) 0.001468 624.0 646.9
651(26) 0.001435 624.5 650.4
674(27) 0.001392 625.1 653.8
644(26) 0.001468 625.7 657.1
680(27) 0.001392 626.4 660.5
671(27) 0.001403 627.1 664.0
692(27) 0.001382 627.9 667.8
703(27) 0.001342 628.7 672.0
694(27) 0.001382 629.6 676.4
675(27) 0.001413 630.6 680.9
704(27) 0.001372 631.6 685.4
667(26) 0.001435 632.7 689.6
658(26) 0.001479 633.8 693.1
678(27) 0.001424 635.0 695.7
672(26) 0.001457 636.3 697.3
634(26) 0.001538 637.6 697.8
679(26) 0.001457 639.0 697.4
732(27) 0.001332 640.4 696.5
627(25) 0.001587 641.9 695.5
669(26) 0.001479 643.4 695.0
674(26) 0.001479 645.0 695.1
684(26) 0.001457 646.6 696.1
663(26) 0.001526 648.3 697.8
686(26) 0.001457 650.1 700.4
709(26) 0.001435 651.9 703.6
718(27) 0.001413 653.7 707.5
674(26) 0.001514 655.6 711.9
721(27) 0.001413 657.5 716.6
700(26) 0.001457 659.5 721.3
726(27) 0.001403 661.5 725.6
734(27) 0.001403 663.6 729.0
752(27) 0.001362 665.7 731.2
700(26) 0.001468 667.8 731.9
737(27) 0.001392 670.0 731.0
762(27) 0.001352 672.3 728.8
706(26) 0.001457 674.5 725.7
770(27) 0.001342 676.8 722.2
759(27) 0.001352 679.1 719.0
727(27) 0.001413 681.5 716.4
747(27) 0.001382 683.9 714.8
760(27) 0.001352 686.3 714.0
744(27) 0.001382 688.8 714.6
714(26) 0.001446 691.2 716.1
704(26) 0.001457 693.7 718.5
699(26) 0.001468 696.3 721.4
709(26) 0.001457 698.8 724.8
737(27) 0.001392 701.4 728.1
695(26) 0.001468 703.9 731.2
682(26) 0.001514 706.5 733.8
749(27) 0.001372 709.1 735.8
772(28) 0.001322 711.8 737.0
768(27) 0.001342 714.4 737.7
707(26) 0.001446 717.0 738.0
758(27) 0.001342 719.7 738.0
761(27) 0.001352 722.3 738.2
745(27) 0.001382 725.0 738.6
691(26) 0.001468 727.6 739.5
700(26) 0.001468 730.3 740.8
766(27) 0.001332 732.9 742.7
739(27) 0.001382 735.6 744.7
716(26) 0.001435 738.2 747.5
781(28) 0.001313 740.8 750.6
685(26) 0.001491 743.5 754.0
731(27) 0.001403 746.1 757.6
739(27) 0.001382 748.7 761.4
722(27) 0.001413 751.3 765.4
775(28) 0.001322 753.8 769.5
752(27) 0.001352 756.4 773.8
792(28) 0.001294 758.9 778.3
755(27) 0.001352 761.4 782.9
822(29) 0.001231 763.9 787.6
786(28) 0.001303 766.4 792.5
780(28) 0.001303 768.8 797.5
791(28) 0.001285 771.2 802.4
774(28) 0.001322 773.6 807.5
834(29) 0.001223 775.9 812.3
834(29) 0.001214 778.2 816.9
838(29) 0.001223 780.5 821.2
782(28) 0.001303 782.8 824.9
864(29) 0.001173 785.0 827.5
837(29) 0.001223 787.1 829.1
792(28) 0.001285 789.3 829.3
800(28) 0.001266 791.3 828.5
845(29) 0.001214 793.4 826.8
850(29) 0.001206 795.4 824.6
853(29) 0.001189 797.4 822.4
867(29) 0.001181 799.3 820.6
873(29) 0.001173 801.1 820.8
875(29) 0.001165 803.0 820.4
888(30) 0.001149 804.7 820.8
854(29) 0.001197 806.4 822.0
932(30) 0.001089 808.1 823.7
889(30) 0.001141 809.7 826.0
875(29) 0.001173 811.3 828.7
847(29) 0.001197 812.8 831.5
845(29) 0.001197 814.2 834.6
814(28) 0.001240 815.6 837.8
845(29) 0.001197 817.0 841.2
891(30) 0.001119 818.3 844.8
815(28) 0.001240 819.5 848.6
848(29) 0.001181 820.7 853.1
864(29) 0.001157 821.8 857.9
839(29) 0.001197 822.8 863.5
858(29) 0.001165 823.8 869.9
869(30) 0.001126 824.8 877.4
856(29) 0.001165 825.7 886.3
819(29) 0.001197 826.5 896.6
877(30) 0.001119 827.2 908.3
847(30) 0.001149 827.9 921.9
824(29) 0.001189 828.6 937.3
863(30) 0.001111 829.2 954.7
857(30) 0.001134 829.7 974.1
893(31) 0.001068 830.1 995.6
903(31) 0.001061 830.5 1019.3
875(31) 0.001075 830.9 1044.6
872(30) 0.001096 831.2 1070.8
1006(33) 0.000930 831.4 1096.1
994(33) 0.000947 831.6 1118.8
1011(33) 0.000924 831.7 1137.0
1027(33) 0.000907 831.7 1149.7
1045(34) 0.000891 831.7 1155.7
1119(35) 0.000835 831.6 1153.6
1122(35) 0.000826 831.5 1142.5
1201(36) 0.000776 831. 1122.
1215(36) 0.000759 831. 1094.
1170(36) 0.000793 831. 1061.
1179(36) 0.000785 830. 1026.
1141(35) 0.000807 830. 993.
1126(35) 0.000821 829.6 963.0
1094(34) 0.000845 829.1 938.3
1033(33) 0.000896 828.5 919.0
1025(33) 0.000902 827.9 904.7
972(32) 0.000959 827.3 894.3
893(31) 0.001034 826.6 886.8
937(32) 0.000995 825.9 880.9
902(31) 0.001034 825.1 875.6
857(30) 0.001096 824.2 870.2
856(30) 0.001082 823.4 864.3
866(30) 0.001104 822.4 858.0
854(30) 0.001104 821.5 851.7
856(30) 0.001119 820.5 845.8
842(30) 0.001134 819.4 840.6
897(31) 0.001075 818.4 836.7
869(30) 0.001104 817.3 843.4
880(30) 0.001119 816.1 842.9
846(30) 0.001141 814.9 843.9
896(30) 0.001096 813.7 846.6
911(30) 0.001082 812.5 851.0
845(29) 0.001173 811.2 892.2
955(31) 0.001034 809.9 902.1
921(30) 0.001089 808.6 913.7
900(30) 0.001104 807.3 926.9
930(30) 0.001089 805.9 941.4
921(30) 0.001089 804.5 956.8
977(31) 0.001034 803.1 971.3
1034(32) 0.000977 801.7 986.9
1032(32) 0.000995 800.3 1001.5
1012(32) 0.001001 798.8 1015.2
1070(32) 0.000964 797.4 1028.2
1023(32) 0.001001 795.9 1041.8
1085(33) 0.000947 794.4 1057.2
1138(33) 0.000907 792.9 1077.7
1240(35) 0.000835 791.4 1108.5
1275(35) 0.000807 790. 1156.
1398(37) 0.000742 788. 1230.
1512(38) 0.000685 787. 1341.
1656(40) 0.000625 785. 1501.
1843(42) 0.000564 784. 1722.
2157(46) 0.000481 782. 2019.
2467(49) 0.000420 781. 2403.
2817(52) 0.000368 779. 2885.
3260(56) 0.0003177 778. 3468.
4049(63) 0.0002560 777. 4152.
4732(68) 0.0002188 775. 4923.
5405(72) 0.0001934 774. 5757.
6355(78) 0.0001631 772. 6622.
7309(84) 0.0001407 771. 7480.
8090(88) 0.0001291 769. 8280.
8964(93) 0.0001156 768. 8959.
9575(96) 0.0001076 767. 9449.
9834(97) 0.0001063 765. 9703.
10083(99) 0.0001029 764. 9699.
9908(98) 0.0001043 763. 9429.
9231(94) 0.0001132 762. 8897.
8433(90) 0.0001226 760. 8126.
7198(83) 0.0001438 759. 7177.
6183(77) 0.0001691 758. 6135.
4952(69) 0.0002088 757. 5095.
3852(61) 0.0002679 756. 4134.
3025(54) 0.0003455 755. 3304.
2290(47) 0.000451 754. 2631.
1987(44) 0.000519 753. 2115.
1655(40) 0.000628 752. 1742.
1378(37) 0.000751 751. 1487.
1292(35) 0.000803 750. 1323.
1185(34) 0.000881 749.4 1224.7
1176(34) 0.000881 748.7 1170.7
1134(33) 0.000913 748.0 1146.0
1113(33) 0.000930 747.3 1139.9
1087(32) 0.000953 746.7 1145.0
1136(33) 0.000918 746.2 1155.3
1070(32) 0.000970 745.6 1166.4
1136(33) 0.000913 745.2 1174.8
1150(33) 0.000907 744.8 1177.7
1105(33) 0.000935 744.4 1173.6
1136(33) 0.000913 744.1 1160.9
1074(32) 0.000970 743.9 1139.7
1087(32) 0.000953 743.7 1111.7
1028(31) 0.001014 743.5 1079.8
1018(31) 0.001027 743.4 1047.3
962(31) 0.001075 743.4 1016.7
916(30) 0.001134 743.4 981.9
969(31) 0.001075 743.5 960.1
891(29) 0.001157 743.7 942.8
885(29) 0.001165 743.9 929.7
867(29) 0.001197 744.1 888.3
878(29) 0.001181 744.4 884.3
875(29) 0.001181 744.8 882.8
886(29) 0.001173 745.3 882.6
882(29) 0.001173 745.8 882.4
878(29) 0.001165 746.3 881.4
932(30) 0.001111 746.9 878.8
867(29) 0.001181 747.6 873.1
816(28) 0.001257 748.4 864.8
889(29) 0.001157 749.2 854.1
861(29) 0.001189 750.0 841.9
868(29) 0.001165 751.0 829.3
872(29) 0.001181 752.0 817.8
847(29) 0.001197 753.0 808.0
866(29) 0.001165 754.1 800.5
804(28) 0.001257 755.3 795.6
855(29) 0.001181 756.5 793.4
890(30) 0.001111 757.8 793.6
869(29) 0.001165 759.1 796.3
859(30) 0.001149 760.5 801.2
854(29) 0.001157 762.0 808.2
884(30) 0.001119 763.5 817.5
913(30) 0.001082 765.1 828.0
864(30) 0.001119 766.8 841.1
873(30) 0.001126 768.5 856.0
875(30) 0.001104 770.2 872.9
960(32) 0.001008 772.0 889.6
903(31) 0.001061 773.9 906.0
902(31) 0.001068 775.8 922.3
952(32) 0.000995 777.8 934.7
922(31) 0.001041 779.8 944.5
965(32) 0.000983 781.9 951.1
957(32) 0.000995 784.0 953.7
941(32) 0.001008 786.2 952.9
932(31) 0.001014 788.4 949.6
921(31) 0.001021 790.7 944.6
961(32) 0.000989 793.1 938.4
944(32) 0.000995 795.4 931.4
971(32) 0.000970 797.9 923.6
922(31) 0.001014 800.3 914.8
936(32) 0.001001 802.9 906.2
939(32) 0.001001 805.4 898.2
964(32) 0.000970 808.0 891.3
917(31) 0.001027 810.7 886.9
896(31) 0.001054 813.4 885.3
884(31) 0.001075 816.1 887.5
902(31) 0.001047 818.9 894.3
891(31) 0.001075 821.7 905.7
910(31) 0.001047 824.6 921.9
935(31) 0.001021 827.4 942.8
900(31) 0.001061 830.4 968.4
949(31) 0.001021 833.3 998.3
987(32) 0.000970 836.3 1034.1
919(31) 0.001054 839.3 1070.6
970(32) 0.000995 842.4 1108.2
1036(33) 0.000941 845.4 1144.6
1106(34) 0.000881 848.6 1177.3
1139(34) 0.000860 851.7 1204.7
1176(35) 0.000831 854.9 1225.9
1164(34) 0.000850 858.0 1241.2
1239(36) 0.000793 861. 1253.
1360(37) 0.000734 864. 1263.
1433(38) 0.000689 868. 1275.
1436(38) 0.000693 871. 1290.
1464(38) 0.000682 874. 1310.
1481(38) 0.000678 878. 1332.
1512(39) 0.000657 881. 1350.
1378(37) 0.000730 884. 1359.
1360(37) 0.000738 888. 1353.
1264(35) 0.000798 891. 1329.
1187(34) 0.000850 894.5 1290.5
1195(34) 0.000845 897.9 1242.1
1138(34) 0.000886 901.3 1190.8
1118(33) 0.000907 904.7 1142.7
1138(34) 0.000891 908.1 1102.8
1116(33) 0.000907 911.6 1073.9
1105(33) 0.000918 915.0 1056.7
1135(34) 0.000891 918.5 1051.1
1125(33) 0.000902 921.9 1056.0
1192(34) 0.000850 925.4 1070.1
1111(33) 0.000913 928.8 1091.9
1219(35) 0.000831 932.3 1119.8
1205(34) 0.000845 935.7 1152.4
1228(35) 0.000821 939.2 1188.8
1243(35) 0.000816 942.7 1228.8
1236(35) 0.000816 946.1 1272.7
1245(35) 0.000812 950. 1321.
1314(36) 0.000772 953. 1373.
1312(36) 0.000767 956. 1428.
1267(35) 0.000798 960. 1483.
1268(35) 0.000798 963. 1532.
1369(37) 0.000738 967. 1566.
1410(37) 0.000719 970. 1577.
1457(38) 0.000693 974. 1561.
1433(38) 0.000707 977. 1524.
1529(39) 0.000657 980. 1472.
1517(39) 0.000664 984. 1416.
1511(39) 0.000668 987. 1364.
1465(38) 0.000689 990. 1323.
1399(37) 0.000723 994. 1295.
1352(37) 0.000747 997. 1279.
1335(36) 0.000755 1000. 1271.
1267(35) 0.000798 1004. 1270.
1242(35) 0.000812 1007. 1267.
1274(36) 0.000789 1010. 1260.
1179(34) 0.000855 1013.3 1243.8
1094(33) 0.000918 1016.5 1221.7
1147(34) 0.000881 1019.7 1196.8
1102(33) 0.000913 1022.8 1172.1
1084(33) 0.000935 1026.0 1149.9
1191(34) 0.000850 1029.1 1131.6
1153(34) 0.000870 1032.2 1117.4
1161(34) 0.000875 1035.3 1106.8
1099(33) 0.000918 1038.4 1099.6
1170(34) 0.000860 1041.4 1094.8
1147(34) 0.000881 1044.4 1092.1
1186(34) 0.000850 1047.4 1090.9
1191(34) 0.000845 1050.4 1091.8
1169(34) 0.000860 1053.3 1094.7
1157(34) 0.000870 1056.2 1098.9
1122(33) 0.000896 1059.1 1104.8
1150(34) 0.000875 1062.0 1112.4
1175(34) 0.000860 1064.8 1121.9
1107(33) 0.000907 1067.7 1133.2
1123(33) 0.000896 1070.4 1146.4
1108(33) 0.000907 1073.2 1158.5
1087(33) 0.000924 1075.9 1175.3
1071(33) 0.000947 1078.7 1193.3
1164(34) 0.000860 1081.3 1211.9
1073(33) 0.000941 1084.0 1230.8
1167(34) 0.000870 1086.6 1250.0
1103(33) 0.000913 1089.2 1270.9
1165(34) 0.000865 1091.8 1295.1
1137(34) 0.000886 1094.4 1324.1
1276(36) 0.000785 1097. 1359.
1243(35) 0.000807 1099. 1400.
1336(36) 0.000755 1102. 1449.
1404(38) 0.000707 1104. 1503.
1413(38) 0.000711 1107. 1564.
1520(39) 0.000657 1109. 1630.
1617(40) 0.000613 1111. 1699.
1754(42) 0.000567 1114. 1764.
1802(43) 0.000554 1116. 1818.
1951(44) 0.000507 1118. 1851.
1983(45) 0.000500 1121. 1854.
1974(45) 0.000496 1123. 1821.
1996(45) 0.000496 1125. 1758.
2008(45) 0.000485 1127. 1677.
1958(45) 0.000500 1129. 1589.
1817(43) 0.000536 1131. 1506.
1718(42) 0.000567 1133. 1436.
1597(41) 0.000598 1135. 1380.
1512(39) 0.000644 1137. 1341.
1308(37) 0.000734 1139. 1314.
1327(37) 0.000723 1141. 1298.
1315(37) 0.000727 1143. 1288.
1266(36) 0.000755 1145. 1283.
1276(37) 0.000738 1147. 1279.
1234(36) 0.000772 1149. 1275.
1228(36) 0.000772 1151. 1269.
1255(36) 0.000755 1153. 1262.
1244(36) 0.000767 1154. 1255.
1282(37) 0.000738 1156. 1249.
1321(38) 0.000711 1158. 1245.
1265(36) 0.000755 1159. 1244.
1320(37) 0.000719 1161. 1245.
1258(37) 0.000747 1163. 1248.
1344(38) 0.000700 1164. 1252.
1421(39) 0.000668 1166. 1256.
1389(38) 0.000678 1167. 1260.
1458(39) 0.000647 1169. 1263.
1382(38) 0.000689 1170. 1265.
1396(39) 0.000675 1172. 1267.
1392(38) 0.000685 1173. 1269.
1377(38) 0.000693 1175. 1273.
1367(38) 0.000700 1176. 1277.
1340(38) 0.000711 1177. 1281.
1343(37) 0.000723 1179. 1285.
1307(37) 0.000734 1180. 1290.
1333(37) 0.000734 1181. 1297.
1382(38) 0.000704 1182. 1304.
1284(36) 0.000763 1184. 1313.
1313(37) 0.000747 1185. 1322.
1323(37) 0.000751 1186. 1328.
1380(38) 0.000711 1187. 1333.
1300(36) 0.000767 1188. 1334.
1339(37) 0.000742 1189. 1330.
1334(36) 0.000755 1190. 1370.
1374(37) 0.000727 1191. 1363.
1404(37) 0.000723 1192. 1355.
1396(37) 0.000719 1193. 1345.
1314(36) 0.000776 1194. 1336.
1334(36) 0.000763 1195. 1328.
1305(36) 0.000789 1196. 1369.
1335(36) 0.000767 1196. 1370.
1345(36) 0.000772 1197. 1376.
1362(36) 0.000755 1198. 1385.
1285(35) 0.000803 1199. 1397.
1329(36) 0.000780 1199. 1414.
1351(36) 0.000763 1200. 1433.
1377(37) 0.000751 1201. 1453.
1308(35) 0.000798 1201. 1475.
1421(37) 0.000727 1202. 1498.
1391(37) 0.000747 1202. 1519.
1429(37) 0.000730 1203. 1540.
1402(37) 0.000738 1203. 1560.
1429(37) 0.000727 1203. 1581.
1489(38) 0.000700 1204. 1604.
1562(39) 0.000664 1204. 1633.
1630(40) 0.000641 1204. 1669.
1559(39) 0.000668 1205. 1713.
1706(41) 0.000610 1205. 1770.
1740(41) 0.000601 1205. 1844.
1973(44) 0.000528 1205. 1944.
1971(44) 0.000528 1205. 2087.
2325(47) 0.000451 1205. 2289.
2653(51) 0.000392 1206. 2581.
3082(55) 0.0003367 1206. 2999.
3701(59) 0.0002834 1205. 3582.
4627(67) 0.0002248 1205. 4371.
5607(74) 0.0001851 1205. 5399.
6868(81) 0.0001528 1205. 6683.
8227(89) 0.0001262 1205. 8207.
9871(98) 0.0001052 1205. 9925.
11820(110) 0.0000890 1204. 11766.
13410(110) 0.0000774 1204. 13628.
15230(120) 0.0000682 1204. 15352.
16520(130) 0.0000634 1203. 16736.
17470(130) 0.0000594 1203. 17616.
17770(130) 0.0000586 1202. 17953.
17680(130) 0.0000593 1202. 17818.
16980(130) 0.0000612 1201. 17291.
16330(130) 0.0000638 1201. 16391.
15020(120) 0.0000699 1200. 15095.
13470(110) 0.0000772 1199. 13437.
11650(110) 0.0000892 1199. 11549.
9869(97) 0.0001065 1198. 9616.
7856(87) 0.0001321 1197. 7804.
6132(77) 0.0001695 1196. 6224.
4968(69) 0.0002107 1195. 4929.
3984(62) 0.0002601 1194. 3927.
3302(56) 0.0003155 1193. 3191.
2818(52) 0.000371 1192. 2676.
2481(49) 0.000416 1191. 2331.
2290(47) 0.000455 1190. 2107.
2118(45) 0.000492 1189. 1967.
1972(44) 0.000526 1188. 1884.
1967(44) 0.000526 1187. 1838.
1888(43) 0.000551 1185. 1817.
1759(41) 0.000586 1184. 1812.
1820(42) 0.000570 1183. 1814.
1774(41) 0.000586 1181. 1818.
1795(42) 0.000575 1180. 1819.
1691(41) 0.000607 1178. 1809.
1683(40) 0.000616 1177. 1783.
1721(41) 0.000595 1175. 1741.
1669(40) 0.000616 1174. 1688.
1619(40) 0.000634 1172. 1627.
1518(39) 0.000675 1170. 1567.
1498(38) 0.000678 1168. 1513.
1457(38) 0.000704 1167. 1470.
1486(38) 0.000682 1165. 1438.
1456(38) 0.000700 1163. 1419.
1476(38) 0.000689 1161. 1411.
1424(38) 0.000711 1159. 1412.
1421(38) 0.000704 1157. 1421.
1378(37) 0.000738 1155. 1436.
1389(37) 0.000719 1153. 1407.
1364(37) 0.000730 1151. 1426.
1360(37) 0.000734 1149. 1442.
1309(36) 0.000763 1146. 1451.
1328(37) 0.000742 1144. 1453.
1372(37) 0.000727 1142. 1404.
1379(38) 0.000711 1140. 1397.
1305(36) 0.000755 1137. 1388.
1346(37) 0.000727 1135. 1377.
1313(37) 0.000747 1133. 1368.
1310(37) 0.000738 1130. 1364.
1321(37) 0.000738 1128. 1368.
1368(38) 0.000704 1125. 1379.
1437(39) 0.000671 1123. 1398.
1387(38) 0.000685 1120. 1424.
1426(39) 0.000675 1118. 1454.
1407(39) 0.000675 1115. 1485.
1470(39) 0.000647 1113. 1515.
1487(40) 0.000638 1110. 1546.
1545(40) 0.000613 1107. 1578.
1723(43) 0.000546 1105. 1611.
1679(42) 0.000567 1102. 1645.
1780(43) 0.000531 1099. 1681.
1806(44) 0.000519 1097. 1721.
1828(44) 0.000514 1094. 1766.
1917(45) 0.000492 1091. 1814.
1934(46) 0.000483 1088. 1858.
1861(45) 0.000505 1086. 1892.
1869(45) 0.000505 1083. 1902.
1826(44) 0.000512 1080. 1878.
1692(42) 0.000559 1077. 1818.
1626(42) 0.000581 1074. 1732.
1512(40) 0.000625 1072. 1634.
1451(39) 0.000651 1069. 1538.
1373(38) 0.000696 1066. 1454.
1444(39) 0.000654 1063. 1384.
1372(38) 0.000696 1060. 1330.
1358(38) 0.000704 1058. 1291.
1415(38) 0.000678 1055. 1266.
1297(37) 0.000738 1052. 1261.
1304(37) 0.000747 1049. 1253.
1273(36) 0.000755 1046. 1249.
1317(37) 0.000742 1044. 1247.
1265(36) 0.000772 1041. 1247.
1288(36) 0.000767 1038. 1260.
1277(36) 0.000763 1035. 1262.
1299(36) 0.000767 1033. 1272.
1311(36) 0.000755 1030. 1278.
1320(36) 0.000763 1027. 1288.
1325(37) 0.000751 1025. 1302.
1360(37) 0.000738 1022. 1320.
1385(37) 0.000727 1019. 1340.
1402(37) 0.000723 1017. 1360.
1446(38) 0.000693 1014. 1375.
1393(37) 0.000734 1012. 1382.
1426(38) 0.000711 1009. 1376.
1420(37) 0.000719 1007. 1361.
1370(37) 0.000747 1005. 1340.
1395(37) 0.000734 1002. 1319.
1306(36) 0.000780 1000. 1304.
1344(36) 0.000767 998. 1296.
1394(37) 0.000734 995. 1299.
1373(37) 0.000751 993. 1312.
1372(36) 0.000755 991. 1332.
1369(37) 0.000751 989. 1358.
1382(37) 0.000742 987. 1386.
1491(38) 0.000693 985. 1417.
1482(38) 0.000693 983. 1453.
1499(38) 0.000685 981. 1497.
1713(41) 0.000604 979. 1569.
1745(41) 0.000589 978. 1678.
1791(42) 0.000572 976. 1838.
2170(46) 0.000475 974. 2061.
2447(49) 0.000420 973. 2356.
2765(52) 0.000374 971. 2725.
3155(55) 0.0003258 970. 3163.
3572(59) 0.0002883 968. 3655.
4086(63) 0.0002528 967. 4181.
4702(68) 0.0002188 966. 4707.
5127(71) 0.0002012 965. 5187.
5457(73) 0.0001882 964. 5583.
5677(74) 0.0001811 963. 5878.
6156(77) 0.0001674 962. 6064.
5936(76) 0.0001731 961. 6122.
6022(77) 0.0001704 960. 6018.
5909(76) 0.0001740 959. 5735.
5221(71) 0.0001962 959. 5286.
4740(68) 0.0002163 958. 4717.
4152(64) 0.0002457 958. 4091.
3440(58) 0.0002973 958. 3473.
2717(52) 0.000377 957. 2915.
2428(49) 0.000420 957. 2446.
2017(44) 0.000507 957. 2075.
1840(42) 0.000556 957. 1799.
1654(40) 0.000619 957. 1602.
1514(39) 0.000675 957. 1470.
1482(38) 0.000693 958. 1386.
1400(37) 0.000730 958. 1337.
1390(37) 0.000730 958. 1311.
1411(37) 0.000727 959. 1298.
1416(37) 0.000719 960. 1293.
1355(37) 0.000751 960. 1289.
1368(37) 0.000747 961. 1281.
1324(36) 0.000767 962. 1268.
1344(36) 0.000759 963. 1248.
1314(36) 0.000776 964. 1224.
1217(35) 0.000840 965.3 1200.3
1227(35) 0.000831 966.6 1178.9
1193(34) 0.000855 968.0 1161.0
1176(34) 0.000865 969.5 1147.5
1212(35) 0.000840 971.1 1137.4
1252(35) 0.000812 973. 1131.
1114(33) 0.000918 974.5 1128.2
1104(33) 0.000924 976.4 1128.9
1166(34) 0.000870 978.4 1133.4
1059(32) 0.000964 980.4 1140.7
1111(33) 0.000918 982.6 1150.0
1083(33) 0.000935 984.8 1159.6
1071(33) 0.000947 987.1 1158.3
1158(34) 0.000881 989.6 1167.4
1123(33) 0.000902 992.1 1174.9
1142(34) 0.000891 994.7 1180.5
1110(33) 0.000924 997.4 1185.0
1167(34) 0.000865 1000.2 1176.2
1113(33) 0.000913 1003.1 1183.4
1184(34) 0.000865 1006.0 1184.2
1106(33) 0.000907 1009.1 1194.9
1117(33) 0.000907 1012.2 1205.1
1082(33) 0.000935 1015.5 1212.7
1126(34) 0.000891 1018.8 1216.7
1083(33) 0.000924 1022.2 1218.5
1186(34) 0.000850 1025.6 1220.6
1161(34) 0.000860 1029.2 1225.7
1263(36) 0.000793 1033. 1236.
1189(35) 0.000835 1036.5 1251.5
1205(35) 0.000831 1040.3 1271.9
1222(35) 0.000798 1044. 1295.
1225(35) 0.000812 1048. 1316.
1194(35) 0.000816 1052.0 1331.6
1240(36) 0.000789 1056. 1336.
1273(36) 0.000763 1060. 1327.
1261(36) 0.000776 1064. 1306.
1151(35) 0.000831 1068.7 1280.2
1209(35) 0.000803 1073. 1255.
1221(36) 0.000785 1077. 1234.
1217(36) 0.000785 1082. 1222.
1174(35) 0.000807 1086. 1217.
1147(35) 0.000835 1090.8 1220.8
1223(36) 0.000767 1095. 1231.
1219(36) 0.000780 1100. 1245.
1209(36) 0.000785 1105. 1264.
1258(37) 0.000742 1109. 1279.
1235(36) 0.000755 1114. 1291.
1176(35) 0.000807 1119. 1299.
1227(37) 0.000751 1124. 1302.
1290(37) 0.000723 1129. 1302.
1180(36) 0.000793 1134. 1299.
1204(36) 0.000767 1139. 1294.
1293(37) 0.000723 1144. 1290.
1247(37) 0.000751 1149. 1287.
1244(37) 0.000751 1154. 1286.
1217(36) 0.000767 1159. 1287.
1225(36) 0.000776 1164. 1288.
1273(37) 0.000730 1169. 1287.
1242(36) 0.000763 1174. 1287.
1273(37) 0.000747 1179. 1286.
1267(37) 0.000751 1184. 1287.
1310(37) 0.000723 1189. 1291.
1284(36) 0.000755 1194. 1298.
1291(37) 0.000734 1199. 1309.
1410(38) 0.000689 1204. 1324.
1439(39) 0.000671 1210. 1343.
1460(39) 0.000668 1215. 1365.
1509(40) 0.000641 1220. 1389.
1573(40) 0.000631 1225. 1413.
1615(41) 0.000604 1230. 1438.
1601(40) 0.000619 1235. 1464.
1569(40) 0.000631 1240. 1488.
1531(45) 0.000485 1245. 1512.
1510(39) 0.000657 1250. 1531.
1509(39) 0.000671 1255. 1547.
1517(45) 0.000487 1259. 1560.
1528(39) 0.000661 1264. 1571.
1505(39) 0.000675 1269. 1581.
1459(44) 0.000521 1274. 1591.
1520(39) 0.000664 1278. 1598.
1582(39) 0.000651 1283. 1607.
1580(46) 0.000481 1288. 1619.
1588(39) 0.000644 1292. 1637.
1637(40) 0.000628 1297. 1666.
1787(48) 0.000432 1301. 1709.
1821(42) 0.000562 1306. 1767.
1912(43) 0.000541 1310. 1837.
2050(52) 0.000377 1314. 1912.
2020(44) 0.000510 1318. 1980.
2140(46) 0.000483 1322. 2029.
2239(54) 0.0003442 1326. 2045.
2299(47) 0.000447 1330. 2023.
2239(47) 0.000462 1334. 1969.
2237(54) 0.0003442 1338. 1898.
1991(44) 0.000517 1342. 1826.
1804(42) 0.000575 1346. 1760.
1793(42) 0.000572 1349. 1707.
1700(41) 0.000604 1353. 1668.
1596(39) 0.000647 1356. 1640.
1655(40) 0.000619 1359. 1622.
1497(38) 0.000682 1362. 1609.
1502(38) 0.000689 1366. 1600.
1485(38) 0.000689 1369. 1590.
1597(40) 0.000641 1371. 1596.
1584(39) 0.000651 1374. 1589.
1649(40) 0.000619 1377. 1586.
1647(40) 0.000619 1380. 1592.
1656(40) 0.000622 1382. 1608.
1782(42) 0.000570 1385. 1636.
1829(42) 0.000559 1387. 1678.
1886(43) 0.000541 1389. 1730.
1847(43) 0.000551 1391. 1791.
1986(44) 0.000510 1393. 1856.
2052(45) 0.000496 1395. 1917.
2062(45) 0.000489 1397. 1968.
2104(46) 0.000481 1398. 2001.
2119(46) 0.000479 1400. 2011.
2106(46) 0.000479 1401. 1994.
2069(45) 0.000492 1402. 1957.
2079(45) 0.000487 1404. 1908.
2063(45) 0.000489 1405. 1858.
1883(43) 0.000538 1406. 1812.
1884(43) 0.000536 1406. 1773.
1789(42) 0.000564 1407. 1741.
1790(42) 0.000564 1408. 1716.
1753(42) 0.000575 1408. 1698.
1759(42) 0.000572 1409. 1686.
1734(42) 0.000581 1409. 1680.
1752(42) 0.000578 1409. 1678.
1738(42) 0.000581 1409. 1681.
1790(42) 0.000562 1409. 1689.
1746(42) 0.000581 1409. 1699.
1712(41) 0.000586 1408. 1713.
1809(43) 0.000554 1408. 1726.
1750(42) 0.000581 1407. 1738.
1780(42) 0.000564 1406. 1751.
1773(42) 0.000564 1406. 1766.
1791(42) 0.000567 1405. 1796.
1790(42) 0.000564 1404. 1848.
1905(44) 0.000524 1403. 1933.
2004(45) 0.000505 1401. 2066.
2224(47) 0.000455 1400. 2259.
2606(51) 0.000381 1398. 2526.
2855(53) 0.000353 1397. 2875.
3298(58) 0.0003025 1395. 3304.
3811(62) 0.0002601 1393. 3792.
4463(67) 0.0002234 1391. 4300.
4776(69) 0.0002088 1389. 4764.
5391(74) 0.0001811 1387. 5108.
5353(73) 0.0001861 1385. 5252.
5438(75) 0.0001792 1383. 5148.
5137(73) 0.0001902 1380. 4820.
4555(68) 0.0002144 1378. 4352.
3794(62) 0.0002568 1375. 3841.
3117(57) 0.0003111 1373. 3353.
2635(52) 0.000370 1370. 2927.
2433(51) 0.000391 1367. 2576.
2087(46) 0.000464 1364. 2299.
1869(44) 0.000507 1361. 2089.
1706(42) 0.000556 1358. 1936.
1657(42) 0.000572 1355. 1824.
1619(41) 0.000586 1352. 1742.
1544(41) 0.000598 1348. 1680.
1507(40) 0.000631 1345. 1635.
1524(41) 0.000607 1342. 1598.
1522(41) 0.000607 1338. 1570.
1479(40) 0.000625 1335. 1546.
1445(40) 0.000641 1331. 1528.
1465(40) 0.000619 1327. 1515.
1446(40) 0.000638 1324. 1508.
1380(39) 0.000657 1320. 1507.
1476(40) 0.000613 1316. 1510.
1360(39) 0.000675 1312. 1519.
1451(40) 0.000625 1308. 1531.
1494(41) 0.000604 1304. 1545.
1526(41) 0.000598 1300. 1558.
1560(42) 0.000578 1296. 1569.
1588(42) 0.000567 1292. 1575.
1599(42) 0.000567 1288. 1576.
1652(43) 0.000546 1284. 1570.
1601(42) 0.000567 1280. 1559.
1627(42) 0.000559 1276. 1544.
1632(42) 0.000556 1272. 1528.
1609(42) 0.000564 1267. 1515.
1517(41) 0.000607 1263. 1502.
1551(41) 0.000586 1259. 1488.
1539(41) 0.000598 1255. 1472.
1427(39) 0.000644 1251. 1453.
1436(39) 0.000644 1246. 1432.
1326(38) 0.000693 1242. 1414.
1328(38) 0.000711 1238. 1400.
1425(39) 0.000651 1234. 1390.
1369(38) 0.000685 1230. 1384.
1321(37) 0.000715 1226. 1384.
1328(37) 0.000719 1221. 1389.
1346(38) 0.000700 1217. 1376.
1234(36) 0.000785 1213. 1378.
1327(37) 0.000719 1209. 1378.
1351(37) 0.000719 1205. 1377.
1322(37) 0.000730 1201. 1376.
1316(37) 0.000738 1197. 1383.
1311(37) 0.000738 1193. 1382.
1354(37) 0.000730 1190. 1380.
1381(38) 0.000707 1186. 1376.
1306(36) 0.000755 1182. 1370.
1251(36) 0.000789 1178. 1362.
1359(37) 0.000730 1175. 1352.
1342(37) 0.000734 1171. 1343.
1277(36) 0.000785 1168. 1336.
1313(36) 0.000755 1164. 1332.
1283(36) 0.000785 1161. 1330.
1370(37) 0.000730 1158. 1331.
1335(36) 0.000755 1154. 1334.
1334(36) 0.000755 1151. 1339.
1352(37) 0.000751 1148. 1346.
1418(38) 0.000711 1145. 1353.
1308(36) 0.000776 1142. 1358.
1340(36) 0.000755 1139. 1361.
1316(36) 0.000772 1136. 1363.
1411(37) 0.000719 1134. 1367.
1418(37) 0.000719 1131. 1374.
1394(37) 0.000727 1129. 1387.
1422(37) 0.000715 1126. 1407.
1336(36) 0.000763 1124. 1432.
1327(36) 0.000767 1122. 1461.
1415(37) 0.000719 1119. 1494.
1495(38) 0.000685 1117. 1530.
1584(39) 0.000644 1115. 1574.
1652(40) 0.000619 1114. 1633.
1760(42) 0.000581 1112. 1714.
1804(42) 0.000570 1110. 1824.
1952(44) 0.000524 1109. 1963.
2108(45) 0.000487 1107. 2129.
2160(46) 0.000475 1106. 2311.
2357(48) 0.000438 1105. 2494.
2491(49) 0.000411 1104. 2660.
2676(51) 0.000383 1103. 2799.
2872(53) 0.000359 1102. 2910.
2939(54) 0.0003468 1101. 3003.
3164(56) 0.0003235 1101. 3086.
3284(56) 0.0003144 1100. 3155.
3321(57) 0.0003067 1100. 3209.
3524(59) 0.0002922 1099. 3246.
3440(58) 0.0003004 1099. 3276.
3434(58) 0.0002983 1099. 3295.
3508(58) 0.0002942 1099. 3285.
3467(58) 0.0002983 1099. 3215.
3245(56) 0.0003155 1100. 3065.
3014(54) 0.0003429 1100. 2846.
2777(52) 0.000373 1101. 2595.
2507(49) 0.000410 1101. 2349.
2300(47) 0.000449 1102. 2132.
2052(45) 0.000505 1103. 1957.
1895(43) 0.000541 1104. 1822.
1717(41) 0.000601 1105. 1723.
1687(40) 0.000616 1106. 1647.
1740(41) 0.000592 1108. 1587.
1551(39) 0.000664 1109. 1538.
1635(40) 0.000634 1111. 1497.
1557(39) 0.000661 1113. 1465.
1441(37) 0.000719 1114. 1442.
1520(38) 0.000682 1116. 1427.
1516(38) 0.000682 1118. 1418.
1487(38) 0.000696 1120. 1416.
1435(37) 0.000723 1123. 1418.
1366(36) 0.000759 1125. 1419.
1365(36) 0.000759 1127. 1418.
1489(38) 0.000696 1130. 1414.
1441(37) 0.000719 1133. 1406.
1419(37) 0.000730 1135. 1394.
1399(37) 0.000738 1138. 1379.
1391(37) 0.000742 1141. 1363.
1374(37) 0.000751 1144. 1350.
1399(37) 0.000738 1147. 1341.
1380(37) 0.000747 1151. 1339.
1461(38) 0.000707 1154. 1343.
1520(39) 0.000675 1157. 1352.
1510(38) 0.000682 1161. 1368.
1433(38) 0.000711 1165. 1391.
1494(38) 0.000685 1168. 1418.
1459(38) 0.000700 1172. 1448.
1534(39) 0.000664 1176. 1477.
1476(38) 0.000682 1180. 1503.
1507(38) 0.000678 1184. 1524.
1411(38) 0.000707 1188. 1536.
1501(39) 0.000668 1192. 1538.
1487(39) 0.000671 1196. 1531.
1465(38) 0.000682 1200. 1529.
1512(39) 0.000647 1205. 1533.
1487(39) 0.000668 1209. 1548.
1575(40) 0.000616 1214. 1572.
1483(39) 0.000661 1218. 1602.
1583(40) 0.000613 1223. 1622.
1617(41) 0.000598 1227. 1642.
1584(41) 0.000604 1232. 1647.
1689(42) 0.000572 1237. 1636.
1715(43) 0.000554 1241. 1615.
1671(42) 0.000572 1246. 1591.
1624(41) 0.000583 1251. 1571.
1592(41) 0.000595 1256. 1560.
1647(42) 0.000570 1261. 1560.
1547(40) 0.000613 1266. 1570.
1529(40) 0.000616 1271. 1589.
1558(41) 0.000604 1276. 1610.
1620(42) 0.000575 1281. 1629.
1623(42) 0.000581 1286. 1645.
1524(40) 0.000613 1291. 1650.
1590(41) 0.000586 1296. 1646.
1559(41) 0.000604 1301. 1632.
1654(42) 0.000567 1306. 1613.
1554(41) 0.000604 1311. 1592.
1640(42) 0.000572 1316. 1573.
1632(42) 0.000581 1321. 1561.
1586(41) 0.000592 1326. 1555.
1663(42) 0.000572 1331. 1558.
1673(42) 0.000564 1336. 1568.
1593(41) 0.000601 1341. 1586.
1643(42) 0.000581 1346. 1610.
1746(43) 0.000551 1351. 1639.
1757(43) 0.000546 1356. 1670.
1793(43) 0.000543 1361. 1700.
1696(42) 0.000570 1366. 1723.
1693(42) 0.000581 1371. 1735.
1577(40) 0.000616 1376. 1739.
1606(40) 0.000616 1381. 1723.
1705(42) 0.000575 1385. 1701.
1637(41) 0.000607 1390. 1674.
1602(40) 0.000619 1395. 1648.
1578(40) 0.000634 1400. 1625.
1587(40) 0.000625 1404. 1607.
1474(38) 0.000685 1409. 1594.
1583(40) 0.000631 1414. 1586.
1517(39) 0.000668 1418. 1582.
1581(40) 0.000638 1423. 1582.
1503(39) 0.000675 1427. 1601.
1538(39) 0.000657 1431. 1610.
1494(38) 0.000682 1436. 1623.
1583(40) 0.000641 1440. 1647.
1565(39) 0.000654 1444. 1664.
1603(40) 0.000634 1448. 1682.
1637(40) 0.000622 1452. 1696.
1625(40) 0.000631 1456. 1707.
1605(40) 0.000638 1460. 1713.
1611(40) 0.000634 1464. 1718.
1629(40) 0.000634 1468. 1724.
1612(40) 0.000634 1472. 1732.
1642(40) 0.000619 1475. 1743.
1656(40) 0.000622 1479. 1757.
1636(40) 0.000625 1482. 1777.
1757(42) 0.000578 1486. 1804.
1790(42) 0.000572 1489. 1838.
1874(43) 0.000546 1492. 1883.
1918(44) 0.000528 1496. 1939.
1968(44) 0.000519 1499. 2005.
2140(46) 0.000477 1502. 2079.
2198(47) 0.000460 1505. 2152.
2424(49) 0.000420 1508. 2216.
2352(48) 0.000434 1510. 2260.
2407(49) 0.000420 1513. 2272.
2352(48) 0.000432 1516. 2250.
2387(48) 0.000429 1518. 2203.
2162(46) 0.000469 1521. 2147.
2139(46) 0.000473 1523. 2097.
2045(45) 0.000500 1525. 2062.
2010(45) 0.000500 1527. 2047.
2015(45) 0.000500 1530. 2054.
2106(45) 0.000485 1532. 2085.
2146(46) 0.000469 1533. 2141.
2272(48) 0.000441 1535. 2227.
2287(47) 0.000447 1537. 2345.
2539(50) 0.000397 1539. 2501.
2783(53) 0.000360 1540. 2700.
2999(55) 0.0003367 1542. 2939.
3363(58) 0.0002993 1543. 3207.
3651(60) 0.0002741 1544. 3478.
3890(62) 0.0002593 1546. 3715.
3949(63) 0.0002560 1547. 3881.
4101(64) 0.0002441 1548. 3959.
4087(64) 0.0002472 1549. 3974.
4166(64) 0.0002426 1550. 3981.
4165(64) 0.0002411 1550. 4042.
4292(65) 0.0002352 1551. 4205.
4772(69) 0.0002119 1552. 4493.
5159(72) 0.0001945 1552. 4905.
5677(75) 0.0001778 1553. 5406.
6024(77) 0.0001678 1553. 5926.
6427(80) 0.0001559 1553. 6362.
6693(81) 0.0001509 1554. 6615.
6429(80) 0.0001578 1554. 6632.
6403(80) 0.0001566 1554. 6428.
5988(77) 0.0001674 1554. 6048.
5463(73) 0.0001856 1554. 5538.
4833(69) 0.0002082 1553. 4954.
4287(65) 0.0002338 1553. 4361.
3758(61) 0.0002696 1553. 3814.
3230(57) 0.0003111 1553. 3346.
2879(53) 0.0003507 1552. 2966.
2646(51) 0.000383 1552. 2671.
2506(50) 0.000405 1551. 2449.
2360(48) 0.000429 1550. 2288.
2160(46) 0.000464 1550. 2174.
2022(45) 0.000503 1549. 2096.
2147(46) 0.000466 1548. 2043.
2002(45) 0.000503 1547. 2009.
1947(44) 0.000519 1546. 1988.
1928(44) 0.000519 1545. 1975.
1981(45) 0.000500 1544. 1967.
1881(43) 0.000536 1543. 1961.
1832(43) 0.000538 1542. 1958.
1964(45) 0.000505 1541. 1953.
1994(45) 0.000503 1540. 1948.
1978(45) 0.000498 1538. 1940.
1974(45) 0.000494 1537. 1934.
2019(45) 0.000496 1536. 1930.
2078(46) 0.000466 1534. 1921.
2084(46) 0.000469 1533. 1911.
1963(45) 0.000500 1531. 1901.
2051(46) 0.000473 1530. 1898.
1997(46) 0.000479 1528. 1893.
1898(44) 0.000519 1527. 1889.
1859(44) 0.000514 1525. 1886.
1905(45) 0.000503 1523. 1882.
1864(44) 0.000519 1522. 1877.
1867(44) 0.000512 1520. 1869.
1893(45) 0.000498 1518. 1862.
1830(44) 0.000528 1516. 1859.
1863(44) 0.000507 1515. 1863.
1976(46) 0.000477 1513. 1876.
1823(44) 0.000521 1511. 1899.
1943(45) 0.000485 1509. 1922.
1877(45) 0.000498 1507. 1953.
1921(45) 0.000494 1506. 1978.
1891(45) 0.000500 1504. 1991.
1917(45) 0.000489 1502. 1989.
1821(44) 0.000517 1500. 1974.
1775(43) 0.000533 1498. 1948.
1745(43) 0.000538 1496. 1916.
1825(44) 0.000517 1494. 1881.
1815(44) 0.000526 1492. 1848.
1728(43) 0.000543 1491. 1819.
1779(43) 0.000536 1489. 1782.
1832(44) 0.000521 1487. 1768.
1742(43) 0.000546 1485. 1764.
1855(44) 0.000514 1483. 1763.
1859(44) 0.000524 1481. 1782.
1938(45) 0.000492 1479. 1813.
1947(45) 0.000496 1477. 1856.
1981(45) 0.000492 1476. 1909.
2103(47) 0.000462 1474. 1966.
2112(47) 0.000459 1472. 2024.
2053(45) 0.000487 1470. 2076.
2089(46) 0.000466 1468. 2121.
2005(45) 0.000494 1467. 2156.
1978(45) 0.000505 1465. 2178.
2113(46) 0.000475 1463. 2191.
2073(46) 0.000479 1461. 2197.
2029(45) 0.000500 1460. 2208.
2154(46) 0.000466 1458. 2231.
2198(47) 0.000462 1456. 2276.
2449(49) 0.000415 1454. 2346.
2455(49) 0.000416 1453. 2443.
2670(51) 0.000380 1451. 2561.
2714(51) 0.000381 1450. 2698.
3010(54) 0.0003392 1448. 2850.
3196(56) 0.0003212 1447. 3012.
3283(56) 0.0003144 1445. 3165.
3444(58) 0.0002983 1444. 3284.
3464(58) 0.0002962 1442. 3342.
3355(57) 0.0003078 1441. 3329.
3348(57) 0.0003067 1439. 3246.
3129(55) 0.0003294 1438. 3103.
2926(53) 0.000353 1436. 2916.
2695(51) 0.000381 1435. 2712.
2475(49) 0.000416 1434. 2514.
2308(47) 0.000447 1432. 2340.
2236(47) 0.000460 1431. 2200.
2189(46) 0.000471 1430. 2097.
1973(44) 0.000521 1429. 2030.
1941(44) 0.000528 1428. 1996.
2008(44) 0.000512 1426. 1990.
1950(44) 0.000528 1425. 2005.
1867(43) 0.000548 1424. 2033.
1928(43) 0.000531 1423. 2062.
2032(44) 0.000507 1422. 2079.
2039(45) 0.000500 1421. 2078.
1962(44) 0.000521 1420. 2058.
1878(43) 0.000546 1419. 2022.
1885(43) 0.000541 1418. 1976.
1904(43) 0.000538 1417. 1924.
1880(43) 0.000543 1416. 1873.
1830(42) 0.000559 1415. 1828.
1757(41) 0.000583 1415. 1791.
1781(42) 0.000572 1414. 1764.
1761(42) 0.000581 1413. 1745.
1661(40) 0.000616 1412. 1732.
1744(41) 0.000586 1411. 1725.
1642(40) 0.000625 1411. 1719.
1658(40) 0.000619 1410. 1714.
1724(41) 0.000595 1409. 1707.
1663(40) 0.000619 1408. 1699.
1694(41) 0.000601 1408. 1691.
1641(40) 0.000625 1407. 1683.
1741(41) 0.000589 1407. 1677.
1724(41) 0.000589 1406. 1676.
1746(41) 0.000583 1405. 1681.
1677(41) 0.000610 1405. 1691.
1757(42) 0.000578 1404. 1706.
1776(42) 0.000572 1404. 1722.
1753(42) 0.000581 1403. 1740.
1800(42) 0.000564 1403. 1755.
1747(42) 0.000581 1402. 1765.
1855(43) 0.000548 1402. 1769.
1857(43) 0.000543 1401. 1766.
1783(42) 0.000567 1401. 1754.
1841(43) 0.000551 1400. 1734.
1803(42) 0.000562 1400. 1711.
1776(42) 0.000570 1399. 1690.
1760(42) 0.000575 1399. 1673.
1800(42) 0.000562 1398. 1662.
1748(42) 0.000578 1398. 1651.
1645(40) 0.000613 1397. 1649.
1703(41) 0.000592 1397. 1648.
1673(41) 0.000601 1396. 1647.
1712(41) 0.000586 1396. 1638.
1654(41) 0.000610 1395. 1630.
1635(40) 0.000613 1395. 1621.
1650(41) 0.000607 1394. 1615.
1618(40) 0.000625 1394. 1614.
1553(40) 0.000641 1394. 1623.
1735(42) 0.000575 1393. 1635.
1662(41) 0.000604 1393. 1651.
1573(40) 0.000631 1392. 1671.
1660(41) 0.000598 1392. 1689.
1694(41) 0.000592 1391. 1704.
1773(43) 0.000554 1391. 1712.
1686(41) 0.000589 1390. 1708.
1700(42) 0.000581 1390. 1697.
1870(44) 0.000524 1389. 1678.
1714(42) 0.000572 1389. 1656.
1799(43) 0.000548 1388. 1635.
1743(42) 0.000556 1387. 1614.
1661(41) 0.000592 1387. 1602.
1785(43) 0.000541 1386. 1589.
1635(41) 0.000592 1386. 1580.
1663(42) 0.000578 1385. 1575.
1593(41) 0.000607 1384. 1572.
1666(42) 0.000572 1384. 1571.
1622(41) 0.000592 1383. 1571.
1551(41) 0.000610 1383. 1571.
1558(41) 0.000610 1382. 1571.
1645(42) 0.000572 1381. 1569.
1594(41) 0.000592 1380. 1566.
1457(39) 0.000644 1380. 1561.
1539(40) 0.000613 1379. 1553.
1536(41) 0.000604 1378. 1545.
1526(40) 0.000616 1378. 1537.
1438(39) 0.000647 1377. 1533.
1507(40) 0.000616 1376. 1533.
1423(39) 0.000657 1375. 1537.
1516(40) 0.000616 1374. 1545.
1432(39) 0.000644 1373. 1557.
1489(40) 0.000628 1373. 1571.
1459(40) 0.000638 1372. 1585.
1541(41) 0.000598 1371. 1598.
1514(40) 0.000619 1370. 1609.
1533(41) 0.000607 1369. 1618.
1610(42) 0.000578 1368. 1625.
1590(41) 0.000589 1367. 1632.
1577(41) 0.000598 1366. 1641.
1659(42) 0.000559 1365. 1651.
1581(41) 0.000598 1364. 1662.
1648(42) 0.000572 1363. 1669.
1616(41) 0.000586 1362. 1671.
1587(41) 0.000598 1361. 1668.
1625(41) 0.000589 1360. 1661.
1610(41) 0.000589 1359. 1654.
1617(41) 0.000601 1358. 1650.
1586(41) 0.000604 1357. 1652.
1617(41) 0.000598 1356. 1663.
1653(41) 0.000586 1355. 1688.
1734(42) 0.000564 1354. 1728.
1708(42) 0.000567 1353. 1787.
1883(44) 0.000524 1352. 1867.
1886(44) 0.000519 1351. 1968.
1978(45) 0.000500 1350. 2087.
2153(47) 0.000457 1348. 2217.
2317(48) 0.000427 1347. 2343.
2267(48) 0.000436 1346. 2448.
2434(49) 0.000410 1345. 2509.
2345(49) 0.000422 1344. 2518.
2418(49) 0.000415 1343. 2477.
2331(48) 0.000427 1342. 2407.
2146(46) 0.000466 1341. 2333.
2270(48) 0.000441 1340. 2272.
2237(47) 0.000449 1339. 2235.
2253(48) 0.000443 1338. 2223.
2190(47) 0.000459 1337. 2240.
2277(48) 0.000441 1335. 2283.
2426(49) 0.000415 1334. 2345.
2392(49) 0.000420 1333. 2413.
2538(50) 0.000395 1332. 2471.
2586(51) 0.000389 1331. 2493.
2524(50) 0.000395 1330. 2464.
2509(50) 0.000400 1329. 2386.
2422(49) 0.000416 1328. 2276.
2320(48) 0.000430 1328. 2159.
2184(47) 0.000460 1327. 2050.
2077(45) 0.000485 1326. 1963.
1980(45) 0.000505 1325. 1895.
1884(43) 0.000533 1324. 1849.
1874(43) 0.000536 1323. 1821.
1864(43) 0.000536 1322. 1806.
1853(43) 0.000543 1322. 1797.
1835(43) 0.000548 1321. 1790.
1733(42) 0.000578 1320. 1779.
1771(42) 0.000570 1320. 1759.
1727(42) 0.000581 1319. 1737.
1762(42) 0.000570 1318. 1713.
1742(42) 0.000581 1318. 1693.
1730(42) 0.000581 1317. 1677.
1724(42) 0.000581 1317. 1665.
1693(41) 0.000598 1316. 1657.
1656(41) 0.000604 1316. 1650.
1650(41) 0.000607 1315. 1646.
1706(41) 0.000595 1315. 1644.
1649(41) 0.000607 1315. 1643.
1570(40) 0.000641 1314. 1641.
1652(40) 0.000616 1314. 1636.
1558(39) 0.000644 1314. 1626.
1574(40) 0.000641 1314. 1613.
1506(39) 0.000675 1314. 1597.
1520(39) 0.000661 1314. 1583.
1585(40) 0.000634 1314. 1568.
1598(40) 0.000638 1314. 1556.
1584(40) 0.000638 1314. 1546.
1592(40) 0.000631 1314. 1538.
1546(39) 0.000654 1314. 1533.
1585(40) 0.000638 1315. 1529.
1508(39) 0.000661 1315. 1526.
1512(39) 0.000671 1315. 1525.
1576(39) 0.000644 1316. 1528.
1510(39) 0.000661 1316. 1533.
1524(39) 0.000664 1317. 1539.
1513(39) 0.000671 1317. 1548.
1550(39) 0.000647 1318. 1557.
1540(39) 0.000657 1319. 1567.
1543(39) 0.000657 1319. 1579.
1609(40) 0.000622 1320. 1592.
1644(41) 0.000610 1321. 1611.
1637(40) 0.000619 1322. 1632.
1702(41) 0.000589 1323. 1666.
1814(43) 0.000554 1324. 1711.
1824(43) 0.000551 1325. 1768.
1957(44) 0.000512 1326. 1840.
2038(45) 0.000489 1327. 1930.
2065(45) 0.000487 1329. 2036.
2137(46) 0.000469 1330. 2156.
2269(48) 0.000438 1331. 2284.
2168(47) 0.000459 1333. 2407.
2363(49) 0.000423 1334. 2512.
2397(49) 0.000411 1336. 2586.
2395(49) 0.000415 1338. 2620.
2478(50) 0.000400 1339. 2617.
2429(50) 0.000405 1341. 2597.
2347(49) 0.000420 1343. 2573.
2385(49) 0.000416 1345. 2556.
2465(50) 0.000394 1347. 2549.
2495(50) 0.000394 1349. 2547.
2497(51) 0.000388 1351. 2545.
2498(51) 0.000389 1353. 2545.
2638(52) 0.000364 1355. 2554.
2628(52) 0.000368 1357. 2578.
2744(54) 0.0003455 1359. 2619.
2766(54) 0.0003468 1361. 2668.
2744(54) 0.0003442 1364. 2710.
2767(54) 0.0003429 1366. 2729.
2724(54) 0.0003442 1369. 2708.
2649(53) 0.000357 1371. 2645.
2531(52) 0.000367 1374. 2547.
2477(51) 0.000379 1376. 2434.
2278(50) 0.000405 1379. 2323.
2189(49) 0.000425 1381. 2228.
1971(46) 0.000471 1384. 2153.
2077(47) 0.000445 1387. 2100.
2000(47) 0.000459 1390. 2068.
2050(47) 0.000451 1393. 2049.
1989(47) 0.000457 1395. 2034.
2086(48) 0.000440 1398. 2017.
2158(49) 0.000423 1401. 1992.
2106(48) 0.000430 1404. 1960.
2111(48) 0.000430 1407. 1926.
2103(48) 0.000436 1410. 1894.
1896(46) 0.000481 1413. 1866.
1999(47) 0.000455 1416. 1844.
1920(46) 0.000479 1419. 1826.
1828(45) 0.000500 1422. 1810.
1773(44) 0.000517 1426. 1795.
1718(43) 0.000536 1429. 1780.
1815(44) 0.000510 1432. 1765.
1733(44) 0.000528 1435. 1750.
1765(43) 0.000533 1438. 1736.
1716(43) 0.000538 1442. 1721.
1703(43) 0.000551 1445. 1706.
1746(43) 0.000538 1448. 1694.
1705(42) 0.000556 1451. 1683.
1785(44) 0.000524 1455. 1676.
1725(42) 0.000556 1458. 1672.
1642(42) 0.000578 1461. 1669.
1665(42) 0.000575 1464. 1666.
1677(42) 0.000570 1468. 1663.
1724(42) 0.000567 1471. 1659.
1688(42) 0.000567 1474. 1655.
1764(42) 0.000556 1477. 1653.
1664(41) 0.000589 1480. 1653.
1744(42) 0.000562 1484. 1655.
1782(43) 0.000551 1487. 1660.
1785(42) 0.000556 1490. 1665.
1756(42) 0.000559 1493. 1672.
1720(41) 0.000583 1496. 1678.
1728(42) 0.000575 1500. 1686.
1710(41) 0.000583 1503. 1690.
1680(41) 0.000595 1506. 1688.
1727(41) 0.000583 1509. 1687.
1727(42) 0.000578 1512. 1686.
1754(42) 0.000575 1515. 1685.
1711(41) 0.000589 1518. 1686.
1608(40) 0.000628 1521. 1689.
1600(40) 0.000631 1524. 1695.
1723(41) 0.000589 1526. 1706.
1667(41) 0.000604 1529. 1713.
1666(41) 0.000604 1532. 1720.
1566(39) 0.000647 1535. 1727.
1696(41) 0.000601 1537. 1732.
1650(41) 0.000610 1540. 1735.
1659(41) 0.000610 1543. 1736.
1725(41) 0.000589 1545. 1737.
1716(41) 0.000589 1548. 1735.
1710(41) 0.000592 1550. 1734.
1843(43) 0.000554 1552. 1736.
1761(42) 0.000575 1555. 1739.
1814(42) 0.000556 1557. 1742.
1781(42) 0.000572 1559. 1746.
1722(41) 0.000589 1561. 1752.
1735(42) 0.000581 1563. 1760.
1828(42) 0.000556 1565. 1772.
1845(43) 0.000548 1567. 1789.
1765(42) 0.000572 1569. 1810.
1868(43) 0.000546 1571. 1833.
1797(42) 0.000564 1573. 1857.
1916(44) 0.000528 1574. 1882.
1932(44) 0.000528 1576. 1907.
2017(45) 0.000503 1577. 1931.
2066(45) 0.000485 1579. 1954.
2183(46) 0.000466 1580. 1972.
2172(46) 0.000471 1582. 1987.
2031(45) 0.000494 1583. 1997.
2031(45) 0.000500 1584. 2003.
1961(44) 0.000519 1585. 2004.
1967(44) 0.000512 1586. 1997.
1899(43) 0.000536 1587. 1983.
1931(44) 0.000528 1588. 1966.
1847(43) 0.000546 1588. 1947.
1844(43) 0.000554 1589. 1932.
1877(43) 0.000543 1590. 1923.
1686(41) 0.000601 1590. 1919.
1834(42) 0.000556 1591. 1923.
1831(43) 0.000554 1591. 1931.
1929(44) 0.000524 1591. 1946.
1887(43) 0.000543 1591. 1964.
1935(44) 0.000524 1592. 1984.
1982(44) 0.000514 1592. 2003.
2097(45) 0.000489 1592. 2018.
2068(52) 0.000367 1591. 2027.
2026(45) 0.000505 1591. 2029.
2037(52) 0.000377 1591. 2029.
1987(51) 0.000381 1590. 2032.
1998(44) 0.000521 1590. 2043.
2039(52) 0.000377 1589. 2066.
2035(52) 0.000368 1589. 2103.
2062(45) 0.000505 1588. 2156.
2154(53) 0.000352 1587. 2225.
2187(54) 0.0003429 1586. 2310.
2274(47) 0.000453 1585. 2408.
2435(57) 0.0003122 1584. 2518.
2647(60) 0.0002778 1583. 2637.
2722(51) 0.000379 1582. 2755.
2922(63) 0.0002552 1581. 2860.
2847(62) 0.0002585 1580. 2938.
2963(54) 0.0003417 1578. 2977.
2859(62) 0.0002601 1577. 2981.
2893(63) 0.0002496 1575. 2964.
2787(53) 0.000363 1574. 2944.
2849(63) 0.0002536 1572. 2933.
2906(64) 0.0002480 1570. 2937.
3075(56) 0.0003212 1568. 2950.
3044(65) 0.0002367 1566. 2961.
3103(57) 0.0003067 1564. 2951.
3073(56) 0.0003212 1562. 2904.
2926(56) 0.0003246 1560. 2816.
2846(55) 0.0003354 1558. 2702.
2674(53) 0.000355 1556. 2573.
2488(51) 0.000381 1554. 2445.
2252(49) 0.000415 1552. 2329.
2175(48) 0.000436 1549. 2228.
1994(46) 0.000466 1547. 2142.
1969(46) 0.000475 1544. 2071.
1927(45) 0.000485 1542. 2013.
1860(45) 0.000500 1539. 1965.
1810(44) 0.000512 1537. 1927.
1772(44) 0.000528 1534. 1895.
1801(44) 0.000510 1531. 1870.
1831(45) 0.000505 1529. 1850.
1861(45) 0.000498 1526. 1836.
1792(44) 0.000512 1523. 1826.
1771(44) 0.000521 1520. 1820.
1771(44) 0.000524 1518. 1817.
1844(45) 0.000498 1515. 1813.
1828(45) 0.000505 1512. 1809.
1752(44) 0.000524 1509. 1802.
1813(44) 0.000507 1506. 1792.
1762(44) 0.000526 1503. 1779.
1798(44) 0.000510 1500. 1764.
1789(44) 0.000521 1497. 1750.
1796(44) 0.000517 1494. 1736.
1731(43) 0.000536 1491. 1726.
1803(44) 0.000517 1488. 1718.
1775(43) 0.000531 1485. 1714.
1710(43) 0.000543 1482. 1712.
1723(43) 0.000554 1479. 1712.
1700(43) 0.000554 1476. 1712.
1735(43) 0.000548 1473. 1713.
1657(42) 0.000575 1470. 1712.
1745(43) 0.000551 1467. 1712.
1697(42) 0.000559 1464. 1711.
1745(42) 0.000559 1461. 1708.
1680(42) 0.000572 1458. 1704.
1748(42) 0.000556 1455. 1699.
1694(42) 0.000578 1452. 1692.
1730(42) 0.000570 1449. 1684.
1683(42) 0.000578 1446. 1676.
1698(41) 0.000589 1443. 1668.
1674(41) 0.000589 1440. 1663.
1695(41) 0.000589 1437. 1660.
1698(41) 0.000589 1434. 1662.
1779(42) 0.000567 1432. 1666.
1682(41) 0.000595 1429. 1674.
1735(41) 0.000586 1426. 1685.
1835(43) 0.000548 1423. 1698.
1775(42) 0.000572 1421. 1712.
1736(41) 0.000586 1418. 1724.
1796(42) 0.000570 1415. 1734.
1808(42) 0.000562 1413. 1741.
1764(42) 0.000581 1410. 1746.
1750(41) 0.000586 1408. 1747.
1746(41) 0.000589 1406. 1746.
1682(41) 0.000610 1403. 1743.
1714(41) 0.000601 1401. 1735.
1705(41) 0.000604 1399. 1733.
1751(41) 0.000586 1397. 1736.
1740(41) 0.000592 1394. 1744.
1681(40) 0.000619 1392. 1761.
1727(41) 0.000595 1390. 1786.
1829(42) 0.000564 1388. 1820.
1820(42) 0.000570 1387. 1860.
1910(43) 0.000538 1385. 1906.
2020(44) 0.000510 1383. 1950.
1925(43) 0.000538 1381. 1994.
2079(45) 0.000494 1380. 2030.
1974(44) 0.000524 1378. 2051.
2079(45) 0.000500 1377. 2057.
2074(45) 0.000494 1375. 2051.
1956(44) 0.000528 1374. 2036.
1994(44) 0.000521 1372. 2013.
1985(44) 0.000517 1371. 1984.
1945(44) 0.000526 1370. 1950.
1940(43) 0.000533 1369. 1912.
1854(43) 0.000554 1368. 1873.
1897(43) 0.000541 1367. 1836.
1890(43) 0.000546 1366. 1803.
1747(41) 0.000586 1366. 1775.
1805(42) 0.000570 1365. 1754.
1768(41) 0.000583 1364. 1738.
1738(41) 0.000589 1364. 1727.
1751(41) 0.000586 1363. 1718.
1661(40) 0.000616 1363. 1709.
1655(40) 0.000619 1363. 1698.
1700(41) 0.000601 1362. 1685.
1647(40) 0.000622 1362. 1671.
1720(41) 0.000592 1362. 1656.
1640(40) 0.000622 1362. 1641.
1686(41) 0.000604 1362. 1627.
1666(40) 0.000613 1362. 1614.
1669(41) 0.000607 1363. 1602.
1589(40) 0.000641 1363. 1594.
1603(40) 0.000634 1363. 1587.
1644(40) 0.000616 1364. 1583.
1660(41) 0.000610 1364. 1581.
1560(39) 0.000651 1365. 1579.
1616(40) 0.000628 1365. 1578.
1589(40) 0.000638 1366. 1578.
1596(40) 0.000634 1367. 1580.
1603(40) 0.000631 1368. 1581.
1617(40) 0.000625 1369. 1584.
1625(40) 0.000622 1370. 1588.
1593(40) 0.000634 1371. 1594.
1681(41) 0.000601 1372. 1600.
1680(41) 0.000601 1373. 1606.
1693(41) 0.000598 1375. 1612.
1641(40) 0.000613 1376. 1616.
1638(40) 0.000616 1377. 1618.
1669(41) 0.000604 1379. 1619.
1642(40) 0.000613 1380. 1618.
1693(41) 0.000592 1382. 1617.
1672(41) 0.000601 1384. 1614.
1624(40) 0.000616 1385. 1611.
1651(41) 0.000607 1387. 1608.
1585(40) 0.000628 1389. 1606.
1637(41) 0.000610 1391. 1604.
1585(40) 0.000625 1393. 1603.
1564(40) 0.000638 1395. 1603.
1597(40) 0.000616 1397. 1604.
1602(40) 0.000619 1399. 1607.
1662(41) 0.000586 1401. 1611.
1651(41) 0.000595 1403. 1616.
1575(40) 0.000619 1405. 1622.
1634(41) 0.000598 1407. 1629.
1648(42) 0.000581 1410. 1637.
1609(41) 0.000604 1412. 1647.
1611(41) 0.000589 1414. 1659.
1700(42) 0.000564 1417. 1671.
1731(43) 0.000548 1419. 1683.
1706(42) 0.000556 1422. 1696.
1716(43) 0.000546 1424. 1707.
1721(43) 0.000554 1427. 1717.
1759(43) 0.000531 1429. 1725.
1635(42) 0.000575 1432. 1729.
1695(43) 0.000554 1434. 1728.
1647(42) 0.000567 1437. 1724.
1603(41) 0.000583 1439. 1717.
1630(42) 0.000575 1442. 1706.
1674(43) 0.000554 1445. 1694.
1652(42) 0.000564 1447. 1684.
1625(42) 0.000578 1450. 1676.
1607(42) 0.000575 1452. 1670.
1643(42) 0.000567 1455. 1666.
1645(42) 0.000570 1458. 1665.
1624(42) 0.000575 1460. 1665.
1611(42) 0.000581 1463. 1667.
1604(41) 0.000592 1466. 1669.
1594(41) 0.000586 1468. 1672.
1591(41) 0.000598 1471. 1675.
1599(41) 0.000592 1474. 1678.
1575(41) 0.000607 1476. 1681.
1608(41) 0.000592 1479. 1683.
1638(41) 0.000592 1481. 1684.
1669(42) 0.000572 1484. 1686.
1644(41) 0.000595 1487. 1688.
1587(40) 0.000613 1489. 1691.
1566(40) 0.000628 1492. 1696.
1658(41) 0.000589 1494. 1702.
1679(41) 0.000592 1497. 1708.
1645(41) 0.000598 1499. 1716.
1705(41) 0.000586 1502. 1724.
1670(41) 0.000598 1504. 1734.
1729(41) 0.000583 1506. 1743.
1750(42) 0.000572 1509. 1752.
1814(42) 0.000562 1511. 1761.
1786(42) 0.000567 1513. 1771.
1788(42) 0.000572 1516. 1783.
1718(41) 0.000592 1518. 1799.
1805(42) 0.000570 1520. 1816.
1862(43) 0.000551 1522. 1836.
1888(43) 0.000546 1524. 1858.
1915(43) 0.000538 1526. 1880.
2006(44) 0.000519 1528. 1902.
2096(45) 0.000494 1530. 1922.
1972(44) 0.000526 1532. 1938.
2013(44) 0.000517 1534. 1950.
2034(44) 0.000510 1536. 1959.
2021(44) 0.000514 1538. 1964.
2104(45) 0.000496 1540. 1968.
2067(45) 0.000500 1541. 1973.
1990(44) 0.000526 1543. 1981.
1963(43) 0.000533 1545. 1994.
2017(44) 0.000512 1546. 2012.
2025(44) 0.000517 1548. 2036.
2092(45) 0.000498 1549. 2065.
1985(44) 0.000519 1551. 2094.
2078(45) 0.000498 1552. 2122.
2037(44) 0.000512 1554. 2143.
2158(46) 0.000477 1555. 2154.
2159(46) 0.000479 1556. 2153.
2195(46) 0.000473 1557. 2141.
2056(45) 0.000500 1558. 2119.
1980(44) 0.000521 1560. 2090.
1994(44) 0.000521 1561. 2058.
2033(45) 0.000503 1562. 2027.
1965(44) 0.000524 1562. 1998.
1955(44) 0.000528 1563. 1973.
1855(43) 0.000551 1564. 1954.
1969(44) 0.000519 1565. 1940.
1900(43) 0.000543 1566. 1930.
1898(43) 0.000538 1566. 1923.
1901(43) 0.000536 1567. 1918.
1974(44) 0.000521 1568. 1914.
1959(44) 0.000521 1568. 1911.
1843(43) 0.000546 1568. 1909.
1907(43) 0.000538 1569. 1907.
1928(44) 0.000528 1569. 1905.
1848(43) 0.000543 1570. 1904.
1884(43) 0.000541 1570. 1903.
1923(44) 0.000528 1570. 1900.
1944(44) 0.000519 1570. 1898.
1940(44) 0.000526 1570. 1894.
1782(42) 0.000570 1571. 1890.
1856(43) 0.000543 1571. 1886.
1827(42) 0.000559 1571. 1882.
1885(43) 0.000538 1571. 1876.
1810(42) 0.000562 1571. 1868.
1914(43) 0.000533 1570. 1859.
1826(42) 0.000556 1570. 1848.
1804(42) 0.000562 1570. 1836.
1786(42) 0.000570 1570. 1825.
1848(43) 0.000551 1570. 1814.
1850(43) 0.000551 1569. 1804.
1874(43) 0.000543 1569. 1798.
1862(43) 0.000548 1569. 1794.
1975(44) 0.000517 1568. 1793.
1899(43) 0.000538 1568. 1794.
1886(43) 0.000541 1567. 1799.
1906(43) 0.000538 1567. 1805.
1957(44) 0.000524 1566. 1812.
1843(42) 0.000556 1566. 1821.
1889(43) 0.000546 1565. 1830.
1970(44) 0.000524 1565. 1840.
1950(44) 0.000526 1564. 1850.
1912(43) 0.000541 1564. 1861.
1916(43) 0.000538 1563. 1873.
1916(43) 0.000533 1562. 1885.
1904(43) 0.000543 1562. 1897.
1962(44) 0.000524 1561. 1910.
2020(44) 0.000507 1560. 1923.
1937(43) 0.000531 1560. 1936.
2028(44) 0.000507 1559. 1951.
1989(44) 0.000512 1558. 1968.
1964(44) 0.000524 1558. 1986.
1921(43) 0.000531 1557. 2006.
1999(44) 0.000507 1556. 2027.
2044(45) 0.000487 1556. 2046.
2019(45) 0.000505 1555. 2063.
1977(45) 0.000500 1554. 2076.
2107(46) 0.000475 1554. 2086.
2092(46) 0.000475 1553. 2095.
2045(45) 0.000485 1552. 2103.
2116(47) 0.000462 1552. 2109.
2118(46) 0.000469 1551. 2113.
2079(46) 0.000466 1550. 2116.
2126(47) 0.000459 1550. 2117.
2077(46) 0.000464 1549. 2117.
2097(47) 0.000462 1548. 2116.
2180(48) 0.000438 1548. 2115.
2104(47) 0.000457 1547. 2113.
2035(46) 0.000466 1547. 2109.
2194(48) 0.000434 1546. 2103.
2072(47) 0.000453 1546. 2092.
2119(47) 0.000449 1545. 2075.
1992(46) 0.000469 1545. 2052.
2091(47) 0.000449 1544. 2026.
1949(46) 0.000483 1544. 1998.
1862(45) 0.000503 1543. 1970.
1890(45) 0.000487 1543. 1942.
1925(45) 0.000487 1543. 1918.
1845(44) 0.000510 1542. 1896.
1807(44) 0.000510 1542. 1877.
1854(44) 0.000510 1542. 1862.
1781(44) 0.000528 1542. 1851.
1795(44) 0.000517 1542. 1845.
1845(44) 0.000512 1541. 1844.
1727(43) 0.000548 1541. 1846.
1810(44) 0.000512 1541. 1852.
1814(44) 0.000526 1541. 1862.
1801(44) 0.000526 1541. 1875.
1858(44) 0.000507 1541. 1891.
1858(44) 0.000514 1542. 1907.
1906(45) 0.000505 1542. 1923.
2048(47) 0.000460 1542. 1935.
2020(46) 0.000481 1542. 1943.
1982(45) 0.000485 1543. 1943.
2116(47) 0.000455 1543. 1935.
1977(45) 0.000492 1543. 1922.
1892(44) 0.000521 1544. 1903.
1987(45) 0.000485 1544. 1882.
1947(44) 0.000510 1545. 1861.
1887(44) 0.000521 1545. 1842.
1956(44) 0.000510 1546. 1826.
1848(43) 0.000536 1547. 1814.
1890(44) 0.000528 1547. 1806.
1887(44) 0.000528 1548. 1803.
1753(42) 0.000578 1549. 1804.
1882(43) 0.000531 1550. 1808.
1831(43) 0.000554 1551. 1816.
1845(43) 0.000548 1551. 1825.
1889(43) 0.000541 1552. 1836.
1993(44) 0.000510 1553. 1846.
1949(44) 0.000526 1555. 1856.
1957(44) 0.000521 1556. 1866.
1829(42) 0.000562 1557. 1874.
1802(42) 0.000567 1558. 1880.
1857(43) 0.000551 1559. 1885.
1859(43) 0.000551 1561. 1886.
1739(41) 0.000589 1562. 1885.
1925(43) 0.000531 1563. 1880.
1872(43) 0.000551 1565. 1872.
1788(42) 0.000575 1566. 1861.
1735(41) 0.000589 1568. 1850.
1785(42) 0.000578 1569. 1837.
1799(42) 0.000570 1571. 1825.
1780(42) 0.000572 1573. 1814.
1799(42) 0.000570 1574. 1803.
1788(42) 0.000575 1576. 1795.
1804(42) 0.000567 1578. 1787.
1779(42) 0.000578 1580. 1781.
1732(41) 0.000592 1581. 1776.
1673(41) 0.000610 1583. 1772.
1747(41) 0.000589 1585. 1770.
1688(41) 0.000607 1587. 1768.
1806(42) 0.000562 1589. 1768.
1789(42) 0.000575 1591. 1769.
1812(42) 0.000564 1593. 1771.
1715(41) 0.000592 1595. 1774.
1733(41) 0.000595 1597. 1780.
1766(42) 0.000581 1599. 1786.
1821(42) 0.000562 1601. 1794.
1776(42) 0.000581 1603. 1803.
1786(42) 0.000575 1606. 1813.
1826(42) 0.000559 1608. 1823.
1869(43) 0.000551 1610. 1833.
1898(43) 0.000541 1612. 1844.
1882(43) 0.000543 1615. 1855.
1846(42) 0.000559 1617. 1867.
1852(42) 0.000556 1619. 1878.
1894(43) 0.000541 1621. 1889.
1901(43) 0.000546 1624. 1900.
1943(43) 0.000531 1626. 1911.
1925(43) 0.000533 1628. 1922.
1821(42) 0.000570 1631. 1933.
1894(43) 0.000546 1633. 1944.
1901(43) 0.000541 1635. 1956.
1858(42) 0.000559 1637. 1969.
1785(42) 0.000581 1640. 1984.
1880(43) 0.000551 1642. 1999.
1869(42) 0.000556 1644. 2018.
2012(44) 0.000517 1647. 2038.
2006(44) 0.000517 1649. 2061.
2061(45) 0.000505 1651. 2084.
2086(45) 0.000498 1654. 2107.
2184(46) 0.000477 1656. 2128.
2078(45) 0.000500 1658. 2146.
2183(46) 0.000477 1661. 2162.
2137(45) 0.000487 1663. 2173.
2270(47) 0.000459 1665. 2183.
2187(46) 0.000477 1667. 2193.
2251(47) 0.000460 1669. 2205.
2256(47) 0.000462 1672. 2219.
2307(47) 0.000451 1674. 2238.
2348(48) 0.000441 1676. 2262.
2450(49) 0.000422 1678. 2291.
2508(49) 0.000415 1680. 2323.
2492(49) 0.000415 1682. 2357.
2515(49) 0.000411 1684. 2392.
2599(50) 0.000398 1686. 2427.
2592(50) 0.000398 1688. 2459.
2470(49) 0.000413 1690. 2488.
2536(50) 0.000408 1692. 2514.
2556(50) 0.000402 1694. 2537.
2557(50) 0.000398 1696. 2559.
2478(49) 0.000416 1697. 2581.
2471(49) 0.000416 1699. 2606.
2664(51) 0.000381 1701. 2633.
2649(51) 0.000389 1703. 2661.
2659(51) 0.000380 1704. 2689.
2688(52) 0.000377 1706. 2712.
2747(52) 0.000367 1707. 2726.
2728(52) 0.000370 1709. 2728.
2738(53) 0.000363 1710. 2715.
2838(53) 0.000355 1712. 2688.
2758(53) 0.000357 1713. 2648.
2825(53) 0.0003507 1714. 2597.
2658(52) 0.000373 1716. 2538.
2501(50) 0.000394 1717. 2476.
2499(51) 0.000389 1718. 2414.
2374(49) 0.000418 1719. 2354.
2381(50) 0.000406 1720. 2298.
2221(48) 0.000438 1721. 2247.
2147(47) 0.000453 1722. 2201.
2145(47) 0.000451 1723. 2161.
2105(47) 0.000457 1724. 2127.
2123(47) 0.000457 1725. 2099.
2123(47) 0.000449 1726. 2075.
2051(46) 0.000469 1726. 2056.
2143(47) 0.000445 1727. 2040.
2058(47) 0.000462 1727. 2028.
2141(48) 0.000443 1728. 2019.
1938(45) 0.000492 1728. 2013.
2010(46) 0.000475 1729. 2009.
1997(46) 0.000475 1729. 2007.
2051(46) 0.000469 1730. 2005.
2059(46) 0.000464 1730. 2005.
2046(46) 0.000466 1730. 2006.
2110(47) 0.000455 1730. 2007.
2065(46) 0.000469 1730. 2010.
2096(47) 0.000457 1730. 2013.
2049(46) 0.000475 1730. 2017.
2037(46) 0.000475 1730. 2023.
1968(45) 0.000496 1730. 2030.
2057(46) 0.000473 1730. 2038.
2059(46) 0.000481 1729. 2048.
2030(46) 0.000479 1729. 2059.
2083(46) 0.000479 1729. 2071.
2077(46) 0.000475 1728. 2083.
2081(46) 0.000479 1728. 2097.
2008(45) 0.000496 1727. 2110.
2119(46) 0.000477 1727. 2123.
2029(45) 0.000492 1726. 2136.
2077(45) 0.000492 1725. 2148.
2106(46) 0.000481 1725. 2159.
2065(45) 0.000492 1724. 2169.
2033(45) 0.000503 1723. 2178.
2002(44) 0.000512 1722. 2187.
2125(46) 0.000479 1721. 2196.
2059(45) 0.000503 1720. 2204.
2055(45) 0.000498 1719. 2213.
2071(45) 0.000496 1718. 2221.
2173(46) 0.000477 1717. 2229.
2128(45) 0.000489 1716. 2237.
2291(47) 0.000449 1715. 2245.
2199(46) 0.000475 1713. 2253.
2202(46) 0.000473 1712. 2261.
2242(46) 0.000464 1711. 2269.
2168(46) 0.000481 1709. 2277.
2291(47) 0.000457 1708. 2285.
2248(47) 0.000462 1706. 2294.
2284(47) 0.000459 1705. 2302.
2266(47) 0.000460 1704. 2310.
2343(47) 0.000445 1702. 2319.
2291(47) 0.000457 1700. 2329.
2309(47) 0.000455 1699. 2342.
2415(48) 0.000432 1697. 2357.
2291(47) 0.000457 1695. 2375.
2361(47) 0.000445 1694. 2396.
2412(48) 0.000436 1692. 2417.
2397(48) 0.000436 1690. 2438.
2430(48) 0.000432 1689. 2456.
2451(48) 0.000429 1687. 2471.
2394(48) 0.000436 1685. 2478.
2434(48) 0.000432 1683. 2479.
2432(48) 0.000434 1681. 2470.
2522(49) 0.000413 1679. 2454.
2389(48) 0.000438 1678. 2430.
2410(48) 0.000438 1676. 2400.
2345(48) 0.000443 1674. 2367.
2265(47) 0.000462 1672. 2331.
2205(46) 0.000477 1670. 2295.
2235(46) 0.000464 1668. 2259.
2225(46) 0.000471 1666. 2224.
2147(45) 0.000489 1664. 2191.
2132(45) 0.000487 1662. 2159.
2165(46) 0.000483 1660. 2129.
2152(45) 0.000487 1658. 2100.
2186(46) 0.000477 1656. 2073.
2175(46) 0.000477 1654. 2046.
2093(45) 0.000500 1652. 2021.
2206(46) 0.000471 1650. 1998.
2109(45) 0.000492 1648. 1976.
2009(44) 0.000519 1646. 1956.
2040(44) 0.000510 1644. 1938.
1970(44) 0.000526 1643. 1921.
2035(44) 0.000514 1641. 1907.
1922(43) 0.000541 1639. 1893.
1902(43) 0.000543 1637. 1881.
1908(43) 0.000543 1635. 1870.
1877(43) 0.000554 1633. 1860.
1904(43) 0.000546 1631. 1851.
1898(43) 0.000546 1629. 1842.
1852(42) 0.000564 1627. 1835.
1906(43) 0.000546 1625. 1828.
1872(43) 0.000554 1624. 1823.
1855(42) 0.000564 1622. 1819.
1889(43) 0.000551 1620. 1816.
1832(42) 0.000564 1618. 1813.
1894(43) 0.000554 1617. 1812.
1832(42) 0.000567 1615. 1811.
1860(42) 0.000559 1613. 1810.
1822(42) 0.000575 1611. 1809.
1807(42) 0.000578 1610. 1809.
1881(43) 0.000554 1608. 1808.
1767(41) 0.000592 1607. 1806.
1832(42) 0.000570 1605. 1805.
1915(43) 0.000543 1603. 1802.
1785(41) 0.000586 1602. 1800.
1786(42) 0.000581 1600. 1797.
1715(41) 0.000607 1599. 1793.
1758(41) 0.000589 1597. 1789.
1771(41) 0.000586 1596. 1785.
1689(41) 0.000610 1595. 1780.
1822(42) 0.000570 1593. 1776.
1766(42) 0.000581 1592. 1771.
1707(41) 0.000604 1591. 1767.
1781(42) 0.000572 1589. 1763.
1750(41) 0.000586 1588. 1760.
1729(41) 0.000583 1587. 1758.
1776(42) 0.000572 1586. 1757.
1806(42) 0.000556 1584. 1756.
1753(42) 0.000575 1583. 1757.
1760(42) 0.000567 1582. 1759.
1723(41) 0.000583 1581. 1762.
1789(43) 0.000548 1580. 1766.
1790(42) 0.000556 1579. 1771.
1717(42) 0.000572 1578. 1777.
1815(43) 0.000541 1577. 1784.
1834(43) 0.000533 1576. 1792.
1808(43) 0.000543 1575. 1800.
1793(43) 0.000541 1575. 1808.
1878(44) 0.000521 1574. 1816.
1883(44) 0.000514 1573. 1823.
1748(43) 0.000554 1572. 1828.
1893(44) 0.000512 1571. 1832.
1748(43) 0.000554 1571. 1834.
1880(44) 0.000512 1570. 1835.
1891(44) 0.000514 1569. 1833.
1829(44) 0.000524 1569. 1830.
1880(44) 0.000512 1568. 1826.
1851(44) 0.000526 1568. 1820.
1915(45) 0.000500 1567. 1815.
1864(44) 0.000526 1566. 1808.
1823(43) 0.000536 1566. 1803.
1884(44) 0.000517 1565. 1796.
1897(44) 0.000517 1565. 1790.
1721(42) 0.000575 1565. 1784.
1849(44) 0.000526 1564. 1778.
1765(42) 0.000567 1564. 1772.
1766(42) 0.000562 1563. 1766.
1843(43) 0.000541 1563. 1761.
1764(42) 0.000567 1563. 1756.
1838(43) 0.000551 1562. 1752.
1811(43) 0.000548 1562. 1748.
1864(43) 0.000548 1562. 1745.
1729(41) 0.000586 1562. 1743.
1765(42) 0.000578 1561. 1742.
1844(43) 0.000554 1561. 1742.
1703(41) 0.000610 1561. 1742.
1753(41) 0.000583 1561. 1743.
1765(41) 0.000592 1560. 1745.
1808(42) 0.000575 1560. 1747.
1767(41) 0.000592 1560. 1750.
1802(42) 0.000581 1560. 1753.
1781(41) 0.000592 1560. 1757.
1754(41) 0.000598 1560. 1762.
1700(40) 0.000625 1559. 1767.
1728(41) 0.000610 1559. 1773.
1765(41) 0.000604 1559. 1780.
1713(40) 0.000619 1559. 1788.
1752(41) 0.000607 1559. 1797.
1771(41) 0.000601 1559. 1806.
1778(41) 0.000598 1559. 1816.
1730(40) 0.000613 1559. 1827.
1770(41) 0.000604 1558. 1837.
1769(41) 0.000601 1558. 1847.
1792(41) 0.000595 1558. 1856.
1821(41) 0.000586 1558. 1864.
1825(42) 0.000581 1558. 1871.
1827(41) 0.000583 1558. 1876.
1843(42) 0.000578 1558. 1881.
1838(42) 0.000578 1557. 1883.
1832(42) 0.000578 1557. 1885.
1845(42) 0.000575 1557. 1886.
1763(41) 0.000601 1557. 1886.
1779(41) 0.000595 1557. 1886.
1784(41) 0.000595 1556. 1885.
1721(40) 0.000616 1556. 1885.
1734(41) 0.000610 1556. 1884.
1840(42) 0.000578 1556. 1882.
1869(42) 0.000564 1555. 1880.
1797(41) 0.000589 1555. 1877.
1793(41) 0.000586 1555. 1873.
1835(42) 0.000575 1555. 1869.
1857(42) 0.000570 1554. 1864.
1831(42) 0.000575 1554. 1859.
1835(42) 0.000575 1553. 1853.
1775(41) 0.000595 1553. 1848.
1772(41) 0.000592 1553. 1842.
1805(41) 0.000583 1552. 1836.
1781(41) 0.000595 1552. 1829.
1793(41) 0.000583 1551. 1822.
1747(41) 0.000604 1551. 1815.
1723(40) 0.000613 1550. 1808.
1805(41) 0.000583 1550. 1800.
1764(41) 0.000598 1549. 1792.
1779(41) 0.000592 1549. 1784.
1730(41) 0.000607 1548. 1776.
1710(40) 0.000616 1547. 1768.
1755(41) 0.000601 1547. 1761.
1748(41) 0.000598 1546. 1755.
1700(40) 0.000619 1545. 1749.
1782(41) 0.000592 1545. 1744.
1699(40) 0.000616 1544. 1740.
1675(40) 0.000628 1543. 1737.
1715(40) 0.000616 1542. 1735.
1687(40) 0.000622 1541. 1734.
1694(40) 0.000619 1541. 1733.
1755(41) 0.000601 1540. 1733.
1718(40) 0.000613 1539. 1733.
1653(40) 0.000634 1538. 1734.
1675(40) 0.000628 1537. 1735.
1746(41) 0.000604 1536. 1736.
1706(40) 0.000616 1535. 1738.
1793(41) 0.000583 1534. 1739.
1817(42) 0.000581 1533. 1741.
1769(41) 0.000592 1532. 1743.
1842(42) 0.000567 1530. 1745.
1792(41) 0.000586 1529. 1747.
1808(42) 0.000581 1528. 1749.
1840(42) 0.000567 1527. 1751.
1834(42) 0.000572 1526. 1752.
1846(42) 0.000564 1525. 1753.
1838(42) 0.000567 1523. 1755.
1769(41) 0.000589 1522. 1754.
1820(42) 0.000572 1521. 1753.
1824(42) 0.000564 1519. 1751.
1814(42) 0.000575 1518. 1748.
1778(42) 0.000581 1517. 1744.
1761(41) 0.000583 1515. 1741.
1762(41) 0.000583 1514. 1737.
1799(42) 0.000572 1512. 1733.
1758(42) 0.000578 1511. 1730.
1809(42) 0.000570 1509. 1727.
1736(41) 0.000583 1508. 1726.
1875(43) 0.000541 1506. 1725.
1738(42) 0.000581 1505. 1725.
1725(41) 0.000586 1503. 1726.
1771(42) 0.000564 1502. 1728.
1718(41) 0.000586 1500. 1731.
1723(42) 0.000575 1499. 1735.
1767(42) 0.000564 1497. 1740.
1740(42) 0.000567 1495. 1745.
1739(42) 0.000570 1494. 1750.
1713(42) 0.000575 1492. 1755.
1776(42) 0.000556 1491. 1760.
1724(42) 0.000564 1489. 1764.
1758(42) 0.000562 1487. 1768.
1825(43) 0.000533 1486. 1770.
1770(43) 0.000551 1484. 1772.
1731(42) 0.000564 1482. 1772.
1801(43) 0.000541 1481. 1771.
1815(43) 0.000533 1479. 1768.
1798(43) 0.000541 1477. 1765.
1788(43) 0.000541 1476. 1761.
1804(43) 0.000536 1474. 1757.
1889(44) 0.000517 1472. 1752.
1714(42) 0.000564 1471. 1747.
1886(44) 0.000517 1469. 1742.
1782(43) 0.000546 1467. 1738.
1792(43) 0.000548 1466. 1733.
1800(43) 0.000541 1464. 1729.
1727(42) 0.000572 1462. 1724.
1858(44) 0.000528 1461. 1720.
1743(42) 0.000567 1459. 1716.
1743(42) 0.000567 1458. 1713.
1806(43) 0.000551 1456. 1710.
1719(42) 0.000575 1454. 1707.
1744(42) 0.000578 1453. 1705.
1699(41) 0.000589 1451. 1704.
1772(42) 0.000570 1450. 1703.
1767(42) 0.000570 1448. 1703.
1659(40) 0.000619 1447. 1703.
1696(41) 0.000598 1445. 1704.
1647(40) 0.000625 1444. 1705.
1713(41) 0.000598 1442. 1707.
1612(40) 0.000641 1441. 1708.
1734(41) 0.000595 1439. 1710.
1716(40) 0.000613 1438. 1711.
1679(40) 0.000616 1437. 1712.
1751(41) 0.000601 1435. 1713.
1723(41) 0.000610 1434. 1713.
1756(41) 0.000601 1432. 1713.
1644(40) 0.000641 1431. 1712.
1880(42) 0.000567 1430. 1711.
1669(40) 0.000631 1429. 1709.
1717(40) 0.000619 1427. 1707.
1743(41) 0.000610 1426. 1704.
1775(41) 0.000601 1425. 1701.
1684(40) 0.000631 1424. 1698.
1657(39) 0.000647 1423. 1695.
1771(41) 0.000604 1422. 1692.
1726(40) 0.000622 1421. 1689.
1696(40) 0.000631 1420. 1685.
1756(40) 0.000616 1419. 1682.
1639(39) 0.000654 1418. 1678.
1729(40) 0.000622 1417. 1674.
1700(40) 0.000634 1416. 1669.
1680(40) 0.000641 1415. 1664.
1696(40) 0.000634 1414. 1659.
1636(39) 0.000664 1414. 1654.
1589(39) 0.000675 1413. 1648.
1700(40) 0.000631 1412. 1643.
1608(39) 0.000675 1411. 1637.
1619(39) 0.000668 1411. 1631.
1529(38) 0.000704 1410. 1626.
1530(38) 0.000711 1410. 1620.
1652(39) 0.000654 1409. 1615.
1620(39) 0.000664 1409. 1610.
1593(38) 0.000685 1408. 1606.
1575(38) 0.000685 1408. 1602.
1591(39) 0.000675 1407. 1599.
1587(38) 0.000685 1407. 1596.
1552(38) 0.000696 1407. 1594.
1546(38) 0.000700 1406. 1591.
1622(39) 0.000671 1406. 1590.
1587(38) 0.000682 1406. 1589.
1554(38) 0.000696 1406. 1588.
1577(38) 0.000685 1405. 1587.
1583(38) 0.000685 1405. 1587.
1555(38) 0.000696 1405. 1586.
1560(38) 0.000693 1405. 1587.
1585(38) 0.000682 1405. 1587.
1677(39) 0.000644 1405. 1588.
1582(38) 0.000682 1405. 1589.
1612(39) 0.000671 1405. 1590.
1633(39) 0.000657 1405. 1592.
1529(38) 0.000704 1405. 1593.
1547(44) 0.000524 1406. 1594.
1577(38) 0.000678 1406. 1596.
1606(39) 0.000664 1406. 1597.
1591(44) 0.000510 1406. 1598.
1616(39) 0.000661 1406. 1600.
1574(38) 0.000678 1407. 1601.
1568(44) 0.000512 1407. 1602.
1524(38) 0.000700 1407. 1604.
1575(39) 0.000675 1408. 1605.
1584(44) 0.000507 1408. 1607.
1614(39) 0.000654 1409. 1609.
1579(39) 0.000675 1409. 1611.
1633(45) 0.000485 1410. 1614.
1594(39) 0.000664 1410. 1617.
1640(40) 0.000641 1411. 1620.
1602(45) 0.000494 1411. 1624.
1600(39) 0.000657 1412. 1628.
1615(39) 0.000651 1412. 1632.
1619(46) 0.000483 1413. 1637.
1577(39) 0.000668 1414. 1642.
1530(38) 0.000682 1414. 1648.
1639(46) 0.000477 1415. 1654.
1638(40) 0.000638 1415. 1661.
1654(40) 0.000631 1416. 1669.
1660(40) 0.000625 1417. 1677.
1682(40) 0.000622 1418. 1685.
1653(40) 0.000622 1418. 1694.
1639(40) 0.000631 1419. 1703.
1640(40) 0.000628 1420. 1712.
1702(41) 0.000604 1420. 1721.
1654(40) 0.000613 1421. 1729.
1725(41) 0.000595 1422. 1737.
1740(41) 0.000586 1423. 1745.
1724(41) 0.000589 1423. 1751.
1777(42) 0.000567 1424. 1757.
1637(40) 0.000622 1425. 1762.
1737(42) 0.000575 1426. 1766.
1743(42) 0.000578 1426. 1769.
1742(42) 0.000578 1427. 1772.
1722(42) 0.000581 1428. 1775.
1746(42) 0.000564 1429. 1777.
1745(42) 0.000575 1430. 1780.
1733(42) 0.000567 1430. 1783.
1687(41) 0.000586 1431. 1786.
1847(43) 0.000533 1432. 1790.
1813(43) 0.000541 1432. 1795.
1691(42) 0.000575 1433. 1799.
1755(42) 0.000559 1434. 1804.
1666(42) 0.000581 1435. 1809.
1776(43) 0.000548 1435. 1814.
1839(43) 0.000531 1436. 1819.
1841(44) 0.000526 1437. 1824.
1788(43) 0.000538 1437. 1828.
1858(44) 0.000526 1438. 1831.
1874(44) 0.000517 1439. 1834.
1845(44) 0.000521 1439. 1836.
1848(44) 0.000526 1440. 1837.
1863(44) 0.000521 1440. 1838.
1851(44) 0.000526 1441. 1839.
1857(44) 0.000524 1441. 1839.
1784(43) 0.000548 1442. 1838.
1875(44) 0.000519 1442. 1836.
1836(43) 0.000536 1443. 1834.
1918(44) 0.000510 1443. 1831.
1838(43) 0.000538 1444. 1827.
1894(44) 0.000521 1444. 1823.
1884(43) 0.000531 1445. 1818.
1859(43) 0.000533 1445. 1812.
1765(42) 0.000575 1445. 1806.
1840(43) 0.000543 1446. 1799.
1857(43) 0.000543 1446. 1793.
1804(42) 0.000562 1446. 1786.
1794(42) 0.000572 1446. 1780.
1755(42) 0.000575 1447. 1773.
1744(41) 0.000595 1447. 1767.
1766(42) 0.000581 1447. 1761.
1753(41) 0.000592 1447. 1755.
1763(41) 0.000589 1447. 1749.
1677(40) 0.000622 1447. 1742.
1734(41) 0.000601 1447. 1736.
1732(40) 0.000616 1447. 1729.
1827(42) 0.000572 1447. 1723.
1744(41) 0.000604 1447. 1716.
1728(40) 0.000616 1447. 1709.
1684(40) 0.000631 1447. 1702.
1720(41) 0.000610 1447. 1695.
1744(40) 0.000613 1447. 1688.
1748(41) 0.000607 1447. 1682.
1640(39) 0.000644 1447. 1677.
1715(40) 0.000625 1446. 1672.
1644(39) 0.000647 1446. 1668.
1749(41) 0.000607 1446. 1664.
1749(40) 0.000613 1445. 1661.
1733(40) 0.000616 1445. 1659.
1703(40) 0.000622 1445. 1657.
1645(39) 0.000654 1444. 1656.
1695(40) 0.000628 1444. 1656.
1679(40) 0.000631 1443. 1656.
1663(39) 0.000644 1443. 1656.
1620(39) 0.000657 1442. 1657.
1620(39) 0.000654 1442. 1658.
1644(39) 0.000654 1441. 1660.
1685(40) 0.000634 1441. 1662.
1633(39) 0.000647 1440. 1665.
1683(40) 0.000638 1439. 1667.
1704(40) 0.000628 1439. 1670.
1604(39) 0.000661 1438. 1673.
1728(40) 0.000622 1437. 1675.
1745(41) 0.000610 1437. 1678.
1699(40) 0.000625 1436. 1680.
1729(40) 0.000625 1435. 1681.
1764(41) 0.000604 1434. 1683.
1754(41) 0.000607 1433. 1684.
1751(40) 0.000616 1433. 1684.
1776(41) 0.000601 1432. 1684.
1749(41) 0.000607 1431. 1683.
1655(39) 0.000651 1430. 1682.
1756(41) 0.000607 1429. 1681.
1739(41) 0.000610 1428. 1679.
1751(40) 0.000613 1427. 1678.
1735(40) 0.000616 1426. 1676.
1724(40) 0.000616 1425. 1674.
1702(40) 0.000628 1424. 1672.
1745(40) 0.000613 1423. 1671.
1717(40) 0.000619 1422. 1670.
1651(39) 0.000647 1421. 1669.
1710(40) 0.000622 1420. 1668.
1700(40) 0.000625 1419. 1668.
1690(40) 0.000628 1418. 1669.
1639(39) 0.000651 1417. 1670.
1730(40) 0.000619 1416. 1672.
1707(40) 0.000625 1415. 1674.
1737(41) 0.000610 1414. 1678.
1741(40) 0.000613 1413. 1682.
1699(40) 0.000628 1412. 1687.
1682(40) 0.000631 1411. 1692.
1740(40) 0.000613 1410. 1699.
1705(40) 0.000625 1409. 1705.
1696(40) 0.000625 1408. 1712.
1700(40) 0.000628 1407. 1720.
1655(39) 0.000644 1406. 1727.
1746(41) 0.000607 1405. 1734.
1799(41) 0.000592 1404. 1741.
1759(41) 0.000607 1403. 1747.
1759(41) 0.000601 1402. 1752.
1736(40) 0.000613 1401. 1757.
1692(40) 0.000631 1400. 1760.
1738(41) 0.000607 1399. 1762.
1690(40) 0.000628 1398. 1763.
1724(40) 0.000619 1397. 1762.
1675(40) 0.000631 1396. 1760.
1674(40) 0.000634 1395. 1757.
1698(40) 0.000625 1394. 1752.
1662(40) 0.000634 1393. 1747.
1707(40) 0.000616 1392. 1740.
1796(41) 0.000592 1391. 1733.
1657(40) 0.000638 1390. 1725.
1697(40) 0.000619 1389. 1717.
1690(40) 0.000622 1388. 1709.
1702(40) 0.000619 1388. 1700.
1695(40) 0.000616 1387. 1692.
1642(40) 0.000641 1386. 1684.
1716(41) 0.000607 1385. 1676.
1652(40) 0.000631 1385. 1668.
1614(40) 0.000638 1384. 1660.
1661(40) 0.000625 1383. 1654.
1619(40) 0.000634 1383. 1647.
1670(40) 0.000619 1382. 1641.
1660(40) 0.000616 1381. 1635.
1595(39) 0.000644 1381. 1630.
1598(40) 0.000634 1380. 1626.
1594(39) 0.000644 1380. 1622.
1617(40) 0.000625 1379. 1618.
1641(40) 0.000616 1379. 1615.
1663(41) 0.000604 1378. 1612.
1625(40) 0.000622 1378. 1610.
1609(40) 0.000622 1377. 1608.
1579(40) 0.000638 1377. 1606.
1629(40) 0.000613 1377. 1604.
1521(39) 0.000657 1376. 1603.
1599(40) 0.000622 1376. 1602.
1535(39) 0.000651 1376. 1601.
1643(41) 0.000604 1376. 1599.
1573(40) 0.000634 1375. 1598.
1536(39) 0.000647 1375. 1597.
1554(40) 0.000638 1375. 1596.
1530(39) 0.000654 1375. 1594.
1573(40) 0.000631 1375. 1593.
1513(39) 0.000661 1375. 1592.
1550(39) 0.000644 1375. 1591.
1604(40) 0.000628 1375. 1590.
1573(40) 0.000638 1375. 1588.
1634(40) 0.000616 1375. 1587.
1557(39) 0.000647 1375. 1586.
1561(39) 0.000651 1375. 1585.
1547(39) 0.000651 1375. 1584.
1575(39) 0.000647 1376. 1583.
1527(39) 0.000664 1376. 1581.
1622(40) 0.000634 1376. 1580.
1622(40) 0.000628 1376. 1579.
1535(39) 0.000675 1377. 1577.
1526(39) 0.000675 1377. 1577.
1489(38) 0.000696 1377. 1575.
1597(39) 0.000647 1378. 1574.
1617(39) 0.000647 1378. 1573.
1608(39) 0.000644 1379. 1572.
1511(38) 0.000696 1379. 1571.
1567(39) 0.000668 1380. 1569.
1579(39) 0.000668 1380. 1568.
1544(38) 0.000682 1381. 1567.
1591(39) 0.000668 1381. 1566.
1514(38) 0.000696 1382. 1565.
1517(38) 0.000704 1383. 1565.
1577(39) 0.000675 1383. 1564.
1558(38) 0.000685 1384. 1563.
1589(39) 0.000671 1385. 1563.
1566(38) 0.000685 1385. 1563.
1552(38) 0.000685 1386. 1563.
1573(38) 0.000685 1387. 1563.
1560(38) 0.000689 1388. 1563.
1608(39) 0.000668 1388. 1563.
1549(38) 0.000696 1389. 1564.
1610(39) 0.000668 1390. 1564.
1470(37) 0.000730 1391. 1565.
1594(39) 0.000675 1392. 1566.
1596(39) 0.000671 1393. 1567.
1563(38) 0.000693 1394. 1568.
1522(38) 0.000707 1394. 1570.
1505(37) 0.000715 1395. 1571.
1591(38) 0.000678 1396. 1573.
1568(38) 0.000693 1397. 1575.
1578(38) 0.000682 1398. 1577.
1607(39) 0.000675 1399. 1580.
1505(37) 0.000719 1400. 1582.
1564(38) 0.000693 1401. 1585.
1567(38) 0.000693 1402. 1588.
1635(39) 0.000664 1403. 1591.
1600(38) 0.000678 1404. 1594.
1570(38) 0.000689 1405. 1597.
1658(39) 0.000657 1406. 1600.
1604(38) 0.000682 1407. 1603.
1625(39) 0.000668 1408. 1606.
1556(38) 0.000704 1409. 1610.
1661(39) 0.000657 1410. 1613.
1603(38) 0.000682 1411. 1616.
1675(39) 0.000654 1412. 1619.
1629(39) 0.000671 1413. 1621.
1648(39) 0.000664 1414. 1624.
1665(39) 0.000661 1415. 1627.
1673(39) 0.000654 1416. 1629.
1722(40) 0.000638 1417. 1632.
1668(39) 0.000657 1418. 1634.
1685(39) 0.000654 1419. 1636.
1625(38) 0.000678 1420. 1638.
1636(39) 0.000675 1421. 1640.
1668(39) 0.000661 1422. 1642.
1666(39) 0.000661 1422. 1644.
1628(38) 0.000678 1423. 1647.
1684(39) 0.000651 1424. 1649.
1601(38) 0.000689 1425. 1651.
1629(39) 0.000675 1426. 1653.
1671(39) 0.000657 1427. 1655.
1643(39) 0.000675 1428. 1658.
1627(38) 0.000678 1428. 1660.
1645(39) 0.000668 1429. 1662.
1637(39) 0.000675 1430. 1664.
1671(39) 0.000657 1431. 1666.
1695(39) 0.000647 1432. 1668.
1586(38) 0.000693 1432. 1670.
1594(38) 0.000689 1433. 1672.
1646(39) 0.000668 1434. 1674.
1638(39) 0.000671 1434. 1676.
1748(40) 0.000628 1435. 1677.
1658(39) 0.000661 1436. 1679.
1684(39) 0.000651 1436. 1681.
1650(39) 0.000668 1437. 1683.
1615(39) 0.000675 1437. 1685.
1710(40) 0.000641 1438. 1687.
1657(39) 0.000654 1439. 1690.
1752(40) 0.000622 1439. 1692.
1741(40) 0.000628 1440. 1695.
1704(40) 0.000638 1440. 1697.
1779(41) 0.000604 1440. 1700.
1704(40) 0.000641 1441. 1703.
1758(40) 0.000613 1441. 1706.
1767(41) 0.000607 1442. 1708.
1722(40) 0.000622 1442. 1711.
1721(40) 0.000625 1442. 1714.
1709(40) 0.000619 1442. 1717.
1782(41) 0.000601 1443. 1720.
1771(41) 0.000595 1443. 1722.
1773(41) 0.000595 1443. 1725.
1756(41) 0.000598 1443. 1727.
1674(40) 0.000628 1444. 1729.
1714(41) 0.000601 1444. 1731.
1766(41) 0.000598 1444. 1732.
1741(41) 0.000589 1444. 1733.
1736(41) 0.000592 1444. 1733.
1679(41) 0.000610 1444. 1733.
1665(40) 0.000619 1444. 1732.
1756(42) 0.000575 1444. 1731.
1786(42) 0.000570 1444. 1729.
1793(42) 0.000559 1444. 1726.
1756(42) 0.000575 1444. 1723.
1784(42) 0.000559 1444. 1720.
1802(42) 0.000556 1444. 1716.
1707(41) 0.000583 1444. 1712.
1757(42) 0.000567 1443. 1708.
1736(42) 0.000570 1443. 1703.
1741(42) 0.000572 1443. 1699.
1762(42) 0.000562 1443. 1694.
1713(42) 0.000578 1443. 1690.
1686(41) 0.000586 1442. 1685.
1711(42) 0.000578 1442. 1681.
1671(41) 0.000592 1442. 1677.
1737(42) 0.000570 1442. 1673.
1666(41) 0.000595 1441. 1669.
1712(42) 0.000578 1441. 1666.
1681(41) 0.000595 1441. 1662.
1687(41) 0.000589 1440. 1659.
1662(41) 0.000598 1440. 1657.
1728(42) 0.000578 1439. 1654.
1672(41) 0.000601 1439. 1652.
1692(41) 0.000586 1439. 1650.
1582(39) 0.000644 1438. 1648.
1618(40) 0.000622 1438. 1647.
1617(40) 0.000631 1437. 1646.
1648(40) 0.000619 1437. 1645.
1628(40) 0.000631 1436. 1645.
1652(40) 0.000619 1436. 1645.
1587(39) 0.000654 1436. 1645.
1626(40) 0.000634 1435. 1646.
1704(41) 0.000610 1435. 1646.
1675(40) 0.000622 1434. 1647.
1749(41) 0.000601 1434. 1648.
1664(40) 0.000625 1433. 1649.
1613(39) 0.000654 1433. 1651.
1613(39) 0.000651 1432. 1652.
1632(39) 0.000647 1432. 1653.
1691(40) 0.000622 1431. 1655.
1628(39) 0.000654 1431. 1656.
1646(39) 0.000644 1430. 1657.
1603(39) 0.000664 1430. 1658.
1656(39) 0.000644 1429. 1659.
1623(39) 0.000657 1429. 1660.
1666(40) 0.000638 1428. 1661.
1676(40) 0.000641 1428. 1661.
1680(40) 0.000634 1427. 1662.
1673(40) 0.000638 1427. 1662.
1692(40) 0.000638 1427. 1662.
1641(39) 0.000647 1426. 1662.
1658(40) 0.000641 1426. 1662.
1667(39) 0.000644 1425. 1662.
1600(39) 0.000664 1425. 1662.
1668(40) 0.000641 1425. 1662.
1691(40) 0.000638 1424. 1662.
1654(39) 0.000644 1424. 1662.
1636(39) 0.000654 1424. 1662.
1696(40) 0.000634 1423. 1662.
1644(39) 0.000651 1423. 1663.
1691(40) 0.000634 1423. 1663.
1716(40) 0.000628 1422. 1664.
1712(40) 0.000625 1422. 1665.
1697(40) 0.000634 1422. 1667.
1652(39) 0.000651 1422. 1669.
1705(40) 0.000628 1422. 1671.
1691(40) 0.000634 1421. 1673.
1606(39) 0.000671 1421. 1676.
1649(39) 0.000654 1421. 1678.
1659(39) 0.000647 1421. 1682.
1726(40) 0.000625 1421. 1685.
1659(39) 0.000647 1421. 1689.
1698(40) 0.000638 1421. 1692.
1752(40) 0.000616 1421. 1696.
1726(40) 0.000628 1421. 1701.
1698(40) 0.000638 1421. 1705.
1659(39) 0.000654 1421. 1710.
1661(39) 0.000651 1421. 1714.
1695(40) 0.000641 1421. 1719.
1777(41) 0.000610 1421. 1723.
1688(39) 0.000647 1422. 1728.
1698(40) 0.000638 1422. 1732.
1751(40) 0.000622 1422. 1736.
1635(39) 0.000668 1422. 1741.
1740(40) 0.000628 1423. 1745.
1686(39) 0.000647 1423. 1748.
1750(40) 0.000628 1423. 1752.
1734(40) 0.000628 1424. 1755.
1740(40) 0.000628 1424. 1758.
1696(39) 0.000647 1424. 1761.
1662(39) 0.000657 1425. 1763.
1727(40) 0.000631 1425. 1765.
1732(40) 0.000638 1426. 1766.
1709(40) 0.000641 1426. 1767.
1690(39) 0.000644 1427. 1768.
1738(40) 0.000634 1428. 1769.
1727(40) 0.000631 1428. 1769.
1723(40) 0.000631 1429. 1769.
1707(39) 0.000647 1430. 1768.
1677(39) 0.000651 1430. 1767.
1761(40) 0.000616 1431. 1766.
1743(40) 0.000634 1432. 1764.
1694(39) 0.000647 1433. 1762.
1719(40) 0.000631 1433. 1760.
1683(39) 0.000651 1434. 1757.
1729(40) 0.000634 1435. 1754.
1747(40) 0.000616 1436. 1751.
1765(40) 0.000622 1437. 1748.
1762(40) 0.000616 1438. 1744.
1709(40) 0.000631 1439. 1741.
1771(41) 0.000610 1440. 1737.
1756(40) 0.000616 1441. 1734.
1733(41) 0.000610 1442. 1730.
1671(39) 0.000644 1443. 1727.
1801(41) 0.000595 1444. 1723.
1735(41) 0.000610 1445. 1720.
1649(40) 0.000641 1446. 1717.
1715(40) 0.000622 1448. 1714.
1650(40) 0.000625 1449. 1711.
1723(40) 0.000613 1450. 1709.
1686(40) 0.000619 1451. 1706.
1640(40) 0.000631 1452. 1704.
1729(41) 0.000595 1454. 1703.
1736(41) 0.000604 1455. 1701.
1698(41) 0.000592 1456. 1700.
1671(40) 0.000616 1457. 1699.
1649(40) 0.000616 1459. 1699.
1764(42) 0.000570 1460. 1698.
1720(41) 0.000583 1461. 1698.
1772(42) 0.000572 1463. 1698.
1794(43) 0.000548 1464. 1698.
1729(42) 0.000581 1466. 1698.
1764(42) 0.000567 1467. 1699.
1692(42) 0.000581 1468. 1699.
1736(42) 0.000575 1470. 1700.
1692(41) 0.000592 1471. 1701.
1686(42) 0.000581 1473. 1701.
1730(42) 0.000575 1474. 1702.
1659(41) 0.000595 1476. 1703.
1701(42) 0.000575 1477. 1704.
1727(42) 0.000572 1478. 1704.
1726(42) 0.000572 1480. 1705.
1746(42) 0.000564 1481. 1705.
1769(42) 0.000559 1483. 1706.
1668(41) 0.000598 1484. 1706.
1763(42) 0.000559 1486. 1707.
1735(42) 0.000581 1487. 1707.
1692(41) 0.000589 1489. 1707.
1687(41) 0.000595 1490. 1707.
1709(41) 0.000589 1492. 1708.
1662(41) 0.000610 1493. 1708.
1732(42) 0.000578 1495. 1707.
1694(41) 0.000607 1496. 1707.
1663(41) 0.000610 1498. 1707.
1717(41) 0.000601 1499. 1707.
1694(41) 0.000607 1500. 1707.
1724(41) 0.000604 1502. 1706.
1783(42) 0.000578 1503. 1706.
1710(40) 0.000616 1505. 1706.
1777(41) 0.000583 1506. 1705.
1743(41) 0.000607 1508. 1705.
1716(40) 0.000613 1509. 1705.
1735(41) 0.000610 1510. 1704.
1776(41) 0.000595 1512. 1704.
1694(40) 0.000634 1513. 1704.
1749(41) 0.000607 1515. 1704.
1746(40) 0.000619 1516. 1704.
1711(40) 0.000628 1517. 1704.
1711(40) 0.000631 1519. 1704.
1789(41) 0.000604 1520. 1704.
1754(40) 0.000622 1521. 1704.
1770(40) 0.000613 1522. 1705.
1749(40) 0.000622 1524. 1705.
1740(40) 0.000625 1525. 1706.
1700(40) 0.000638 1526. 1707.
1700(40) 0.000641 1527. 1707.
1752(40) 0.000622 1528. 1708.
1730(40) 0.000625 1530. 1710.
1733(40) 0.000631 1531. 1711.
1725(40) 0.000634 1532. 1712.
1659(39) 0.000657 1533. 1713.
1740(40) 0.000631 1534. 1715.
1750(40) 0.000625 1535. 1716.
1739(40) 0.000628 1536. 1718.
1741(40) 0.000631 1537. 1720.
1702(39) 0.000644 1538. 1721.
1762(40) 0.000625 1539. 1723.
1787(40) 0.000616 1540. 1725.
1779(40) 0.000616 1541. 1726.
1728(40) 0.000634 1542. 1728.
1840(41) 0.000595 1543. 1730.
1798(41) 0.000610 1544. 1731.
1728(40) 0.000634 1545. 1733.
1733(40) 0.000634 1546. 1734.
1766(40) 0.000622 1547. 1736.
1804(41) 0.000607 1547. 1737.
1749(40) 0.000628 1548. 1739.
1791(40) 0.000613 1549. 1740.
1793(40) 0.000616 1550. 1741.
1752(40) 0.000628 1551. 1742.
1796(41) 0.000610 1551. 1743.
1797(40) 0.000613 1552. 1744.
1722(40) 0.000634 1553. 1745.
1752(40) 0.000625 1553. 1746.
1636(39) 0.000675 1554. 1747.
1687(39) 0.000651 1555. 1748.
1716(40) 0.000638 1555. 1749.
1706(39) 0.000647 1556. 1749.
1744(40) 0.000628 1556. 1750.
1755(40) 0.000625 1557. 1750.
1707(39) 0.000647 1557. 1751.
1729(40) 0.000634 1558. 1751.
1708(40) 0.000641 1558. 1752.
1666(39) 0.000661 1559. 1752.
1793(40) 0.000616 1559. 1752.
1801(41) 0.000607 1560. 1753.
1721(40) 0.000641 1560. 1753.
1758(40) 0.000628 1560. 1753.
1718(40) 0.000634 1561. 1753.
1740(40) 0.000634 1561. 1753.
1715(40) 0.000641 1562. 1753.
1758(40) 0.000622 1562. 1754.
1766(40) 0.000619 1562. 1754.
1706(39) 0.000644 1563. 1753.
1747(40) 0.000625 1563. 1753.
1737(40) 0.000631 1563. 1753.
1745(40) 0.000628 1563. 1753.
1742(40) 0.000628 1564. 1753.
1827(41) 0.000592 1564. 1752.
1782(40) 0.000616 1564. 1752.
1677(39) 0.000651 1564. 1751.
1742(40) 0.000622 1565. 1751.
1707(40) 0.000638 1565. 1750.
1743(40) 0.000625 1565. 1750.
1760(41) 0.000610 1565. 1749.
1752(40) 0.000622 1565. 1748.
1702(40) 0.000634 1566. 1748.
1786(41) 0.000601 1566. 1747.
1706(40) 0.000628 1566. 1746.
1666(39) 0.000647 1566. 1746.
1782(41) 0.000592 1566. 1745.
1705(40) 0.000628 1566. 1744.
1752(41) 0.000604 1567. 1744.
1713(40) 0.000616 1567. 1743.
1708(40) 0.000613 1567. 1743.
1792(41) 0.000589 1567. 1742.
1753(41) 0.000592 1567. 1742.
1739(41) 0.000601 1567. 1742.
1726(41) 0.000592 1568. 1742.
1672(40) 0.000619 1568. 1742.
1725(41) 0.000589 1568. 1742.
1668(40) 0.000613 1568. 1742.
1735(42) 0.000581 1568. 1742.
1708(41) 0.000595 1568. 1742.
1724(42) 0.000581 1568. 1742.
1760(42) 0.000575 1569. 1743.
1815(43) 0.000548 1569. 1744.
1751(42) 0.000570 1569. 1744.
1729(42) 0.000570 1569. 1745.
1726(42) 0.000575 1569. 1746.
1738(42) 0.000567 1569. 1747.
1720(42) 0.000575 1569. 1748.
1662(41) 0.000589 1570. 1750.
1709(42) 0.000575 1570. 1751.
1749(42) 0.000556 1570. 1753.
1750(42) 0.000559 1570. 1754.
1632(41) 0.000598 1570. 1756.
1694(42) 0.000575 1571. 1758.
1809(43) 0.000543 1571. 1760.
1756(42) 0.000556 1571. 1762.
1777(43) 0.000551 1571. 1764.
1741(42) 0.000564 1572. 1766.
1771(42) 0.000556 1572. 1768.
1764(43) 0.000554 1572. 1770.
1828(43) 0.000548 1572. 1772.
1792(43) 0.000551 1573. 1775.
1716(42) 0.000578 1573. 1777.
1802(42) 0.000559 1573. 1779.
1780(42) 0.000564 1573. 1781.
1682(41) 0.000589 1574. 1783.
1718(41) 0.000604 1574. 1785.
1773(42) 0.000567 1574. 1787.
1727(41) 0.000592 1575. 1789.
1821(42) 0.000570 1575. 1791.
1849(42) 0.000556 1575. 1792.
1831(42) 0.000556 1576. 1794.
1801(41) 0.000589 1576. 1795.
1756(41) 0.000583 1576. 1796.
1719(41) 0.000610 1577. 1798.
1743(41) 0.000610 1577. 1798.
1761(41) 0.000595 1578. 1799.
1746(41) 0.000601 1578. 1800.
1789(41) 0.000604 1578. 1800.
1832(42) 0.000572 1579. 1800.
1830(41) 0.000586 1579. 1800.
1784(41) 0.000607 1580. 1800.
1780(41) 0.000604 1580. 1800.
1777(41) 0.000604 1581. 1800.
1733(40) 0.000628 1581. 1799.
1800(41) 0.000598 1582. 1798.
1727(40) 0.000628 1582. 1798.
1810(41) 0.000601 1583. 1797.
1821(41) 0.000595 1583. 1795.
1764(40) 0.000616 1584. 1794.
1836(41) 0.000598 1584. 1793.
1798(41) 0.000601 1585. 1791.
1773(41) 0.000610 1585. 1790.
1836(41) 0.000598 1586. 1788.
1903(42) 0.000575 1586. 1787.
1782(41) 0.000607 1587. 1785.
1761(40) 0.000622 1587. 1784.
1826(41) 0.000598 1588. 1782.
1816(41) 0.000598 1588. 1781.
1826(41) 0.000601 1589. 1779.
1774(40) 0.000619 1589. 1777.
1738(40) 0.000625 1590. 1776.
1819(41) 0.000607 1590. 1775.
1830(41) 0.000601 1591. 1773.
1759(40) 0.000616 1591. 1772.
1789(40) 0.000616 1592. 1771.
1781(40) 0.000616 1592. 1769.
1824(41) 0.000595 1593. 1768.
1828(41) 0.000601 1593. 1767.
1730(40) 0.000631 1594. 1766.
1834(41) 0.000589 1594. 1765.
1822(41) 0.000604 1595. 1765.
1792(40) 0.000616 1595. 1764.
1828(41) 0.000592 1596. 1763.
1779(40) 0.000613 1596. 1763.
1782(40) 0.000619 1597. 1762.
1852(41) 0.000586 1597. 1762.
1889(42) 0.000578 1598. 1762.
1838(41) 0.000595 1598. 1762.
1783(41) 0.000610 1599. 1761.
1797(41) 0.000610 1599. 1761.
1850(41) 0.000592 1600. 1761.
1824(41) 0.000595 1600. 1762.
1729(40) 0.000631 1601. 1762.
1765(40) 0.000616 1601. 1762.
1796(41) 0.000604 1601. 1762.
1858(41) 0.000589 1602. 1763.
1763(40) 0.000619 1602. 1763.
1755(40) 0.000619 1603. 1764.
1798(41) 0.000610 1603. 1764.
1802(41) 0.000604 1603. 1765.
1805(41) 0.000604 1604. 1765.
1791(41) 0.000610 1604. 1766.
1833(41) 0.000595 1604. 1767.
1772(40) 0.000619 1605. 1767.
1757(40) 0.000622 1605. 1768.
1696(40) 0.000641 1605. 1769.
1776(40) 0.000616 1606. 1770.
1776(41) 0.000610 1606. 1770.
1767(40) 0.000616 1606. 1771.
1695(39) 0.000647 1606. 1772.
1768(40) 0.000613 1606. 1773.
1716(40) 0.000631 1607. 1774.
1726(40) 0.000634 1607. 1774.
1724(40) 0.000631 1607. 1775.
1756(40) 0.000616 1607. 1776.
1769(40) 0.000619 1607. 1777.
1800(41) 0.000604 1607. 1777.
1772(43) 0.000538 1607. 1778.
1800(41) 0.000610 1607. 1779.
1711(40) 0.000638 1608. 1780.
1801(44) 0.000526 1608. 1780.
1799(41) 0.000595 1608. 1781.
1854(41) 0.000589 1608. 1782.
1789(43) 0.000536 1608. 1782.
1844(42) 0.000581 1608. 1783.
1809(44) 0.000526 1608. 1783.
1823(44) 0.000524 1607. 1784.
1857(42) 0.000575 1607. 1784.
1732(43) 0.000551 1607. 1785.
1778(43) 0.000533 1607. 1785.
1748(41) 0.000610 1607. 1785.
1762(43) 0.000531 1607. 1786.
1749(43) 0.000546 1607. 1786.
1794(42) 0.000575 1607. 1786.
1858(44) 0.000510 1606. 1786.
1824(44) 0.000514 1606. 1787.
1873(43) 0.000551 1606. 1787.
1856(45) 0.000489 1606. 1787.
1708(43) 0.000554 1606. 1787.
1836(43) 0.000551 1605. 1787.
1708(43) 0.000536 1605. 1787.
1813(42) 0.000575 1605. 1786.
1803(42) 0.000562 1604. 1786.
1681(43) 0.000533 1604. 1786.
1784(41) 0.000583 1604. 1786.
1775(42) 0.000575 1603. 1786.
1728(47) 0.000457 1603. 1785.
1729(42) 0.000581 1603. 1785.
1882(43) 0.000543 1602. 1785.
1659(41) 0.000610 1602. 1784.
1759(42) 0.000572 1602. 1784.
1763(42) 0.000567 1601. 1784.
1689(41) 0.000598 1601. 1783.
1762(42) 0.000564 1600. 1783.
1828(43) 0.000546 1600. 1783.
1767(48) 0.000429 1599. 1782.
1739(42) 0.000570 1599. 1782.
1752(42) 0.000581 1599. 1782.
1753(48) 0.000432 1598. 1781.
1764(42) 0.000570 1598. 1781.
1749(42) 0.000581 1597. 1781.
1611(46) 0.000483 1597. 1780.
1797(42) 0.000556 1596. 1780.
1840(42) 0.000559 1596. 1780.
1697(47) 0.000460 1595. 1780.
1842(49) 0.000410 1595. 1779.
1704(41) 0.000604 1594. 1779.
1672(46) 0.000477 1594. 1779.
1780(49) 0.000423 1593. 1779.
1780(41) 0.000583 1593. 1779.
1757(47) 0.000455 1592. 1779.
1708(47) 0.000460 1592. 1779.
1806(42) 0.000575 1591. 1779.
1727(47) 0.000462 1591. 1779.
1752(47) 0.000449 1590. 1778.
1798(41) 0.000598 1590. 1778.
1723(46) 0.000464 1590. 1778.
1738(47) 0.000462 1589. 1778.
1784(41) 0.000604 1589. 1778.
1667(40) 0.000638 1588. 1778.
1734(47) 0.000462 1588. 1778.
1693(39) 0.000651 1587. 1778.
1724(40) 0.000619 1587. 1778.
1715(46) 0.000469 1586. 1778.
1763(40) 0.000625 1586. 1778.
1786(41) 0.000595 1586. 1778.
1861(48) 0.000432 1585. 1778.
1761(40) 0.000634 1585. 1778.
1798(41) 0.000592 1585. 1778.
1780(41) 0.000610 1584. 1778.
1763(40) 0.000634 1584. 1778.
1750(41) 0.000607 1584. 1777.
1851(41) 0.000586 1583. 1777.
1761(40) 0.000634 1583. 1777.
1767(41) 0.000601 1583. 1777.
1778(40) 0.000622 1582. 1776.
1760(40) 0.000634 1582. 1776.
1839(42) 0.000578 1582. 1776.
1843(41) 0.000601 1582. 1776.
1703(39) 0.000657 1581. 1775.
1863(42) 0.000570 1581. 1775.
1790(40) 0.000616 1581. 1775.
1889(41) 0.000595 1581. 1774.
1781(41) 0.000604 1581. 1774.
1842(41) 0.000601 1580. 1773.
1871(41) 0.000589 1580. 1773.
1893(42) 0.000567 1580. 1773.
1800(40) 0.000622 1580. 1772.
1754(40) 0.000631 1580. 1772.
1733(40) 0.000622 1580. 1772.
1742(39) 0.000644 1580. 1771.
1681(39) 0.000651 1580. 1771.
1846(41) 0.000583 1580. 1771.
1836(41) 0.000610 1580. 1771.
1740(40) 0.000628 1580. 1770.
1771(40) 0.000613 1580. 1770.
1814(40) 0.000619 1580. 1770.
1803(41) 0.000604 1580. 1770.
1752(40) 0.000619 1580. 1770.
1761(40) 0.000631 1580. 1770.
1813(41) 0.000598 1581. 1770.
1740(40) 0.000634 1581. 1770.
1802(40) 0.000619 1581. 1770.
1799(41) 0.000592 1581. 1770.
1768(40) 0.000625 1581. 1770.
1767(40) 0.000634 1581. 1770.
1811(41) 0.000589 1582. 1770.
1761(40) 0.000631 1582. 1770.
1859(41) 0.000604 1582. 1770.
1806(43) 0.000541 1582. 1770.
1732(40) 0.000641 1583. 1770.
1808(40) 0.000622 1583. 1771.
1787(43) 0.000543 1583. 1771.
1697(39) 0.000657 1584. 1771.
1775(40) 0.000631 1584. 1772.
1830(43) 0.000533 1584. 1772.
1756(40) 0.000634 1585. 1772.
1838(41) 0.000598 1585. 1773.
1815(43) 0.000533 1585. 1773.
1812(40) 0.000613 1586. 1773.
1754(40) 0.000628 1586. 1774.
1830(43) 0.000536 1586. 1774.
1773(40) 0.000625 1587. 1775.
1791(41) 0.000598 1587. 1775.
1704(42) 0.000572 1588. 1776.
1742(40) 0.000631 1588. 1776.
1757(41) 0.000610 1589. 1777.
1698(42) 0.000575 1589. 1777.
1762(40) 0.000625 1590. 1778.
1774(41) 0.000595 1590. 1778.
1735(42) 0.000564 1590. 1779.
1765(43) 0.000546 1591. 1779.
1788(41) 0.000592 1591. 1780.
1839(42) 0.000578 1592. 1780.
1724(43) 0.000554 1592. 1781.
1837(43) 0.000551 1593. 1782.
1774(41) 0.000601 1593. 1782.
1764(44) 0.000526 1594. 1783.
1766(42) 0.000572 1594. 1783.
1816(42) 0.000575 1595. 1784.
1770(44) 0.000526 1595. 1784.
1830(43) 0.000546 1596. 1785.
1834(42) 0.000567 1596. 1786.
1720(44) 0.000528 1597. 1786.
1795(43) 0.000554 1597. 1787.
1774(42) 0.000572 1598. 1787.
1794(45) 0.000505 1598. 1788.
1734(42) 0.000567 1599. 1788.
1865(43) 0.000546 1599. 1789.
1776(45) 0.000500 1600. 1789.
1850(43) 0.000531 1600. 1790.
1729(42) 0.000575 1601. 1790.
1745(44) 0.000512 1601. 1791.
1826(44) 0.000528 1601. 1791.
1823(43) 0.000546 1602. 1792.
1759(43) 0.000554 1602. 1792.
1759(43) 0.000548 1603. 1793.
1844(43) 0.000533 1603. 1793.
1767(43) 0.000551 1604. 1794.
1721(42) 0.000567 1604. 1794.
1771(43) 0.000554 1604. 1794.
1780(43) 0.000551 1605. 1795.
1851(44) 0.000526 1605. 1795.
1859(43) 0.000531 1606. 1795.
1800(43) 0.000546 1606. 1796.
1826(43) 0.000541 1606. 1796.
1755(42) 0.000562 1607. 1796.
1800(43) 0.000554 1607. 1797.
1839(43) 0.000536 1608. 1797.
1839(43) 0.000543 1608. 1797.
1896(44) 0.000526 1608. 1797.
1831(43) 0.000548 1609. 1798.
1780(42) 0.000562 1609. 1798.
1751(42) 0.000578 1609. 1798.
1777(42) 0.000564 1610. 1798.
1784(42) 0.000572 1610. 1799.
1788(42) 0.000567 1610. 1799.
1768(41) 0.000583 1611. 1799.
1808(42) 0.000564 1611. 1799.
1755(41) 0.000589 1611. 1799.
1794(42) 0.000575 1611. 1800.
1822(42) 0.000570 1612. 1800.
1783(42) 0.000581 1612. 1800.
1855(42) 0.000567 1612. 1800.
1827(42) 0.000570 1613. 1800.
1763(41) 0.000598 1613. 1801.
1801(41) 0.000583 1613. 1801.
1786(41) 0.000595 1613. 1801.
1752(41) 0.000601 1614. 1801.
1803(41) 0.000589 1614. 1801.
1793(41) 0.000592 1614. 1802.
1801(41) 0.000592 1615. 1802.
1795(41) 0.000592 1615. 1802.
1747(41) 0.000610 1615. 1802.
1747(41) 0.000610 1615. 1803.
1749(40) 0.000613 1616. 1803.
1750(41) 0.000610 1616. 1803.
1825(41) 0.000586 1616. 1803.
1783(41) 0.000601 1617. 1804.
1778(41) 0.000604 1617. 1804.
1829(41) 0.000586 1617. 1804.
1812(41) 0.000592 1618. 1804.
1803(41) 0.000595 1618. 1805.
1830(41) 0.000589 1618. 1805.
1796(41) 0.000598 1619. 1805.
1761(40) 0.000616 1619. 1806.
1808(41) 0.000595 1619. 1806.
1859(42) 0.000581 1620. 1806.
1856(41) 0.000583 1620. 1807.
1774(41) 0.000607 1621. 1807.
1810(41) 0.000595 1621. 1807.
1809(41) 0.000601 1621. 1808.
1746(40) 0.000616 1622. 1808.
1768(40) 0.000613 1622. 1808.
1833(41) 0.000592 1623. 1809.
1888(42) 0.000575 1623. 1809.
1780(41) 0.000610 1623. 1809.
1800(41) 0.000604 1624. 1810.
1847(41) 0.000589 1624. 1810.
1751(40) 0.000613 1625. 1811.
1759(40) 0.000619 1625. 1811.
1874(41) 0.000583 1626. 1811.
1760(41) 0.000610 1626. 1812.
1782(41) 0.000607 1627. 1812.
1876(42) 0.000581 1627. 1812.
1873(42) 0.000570 1628. 1813.
1939(43) 0.000554 1628. 1813.
1821(41) 0.000592 1629. 1813.
1757(41) 0.000604 1629. 1813.
1842(42) 0.000575 1630. 1814.
1830(42) 0.000581 1630. 1814.
1796(42) 0.000581 1631. 1814.
1773(41) 0.000592 1631. 1815.
1775(41) 0.000595 1632. 1815.
1873(43) 0.000548 1632. 1815.
1770(42) 0.000581 1632. 1815.
1833(42) 0.000567 1633. 1815.
1888(43) 0.000533 1633. 1816.
1844(43) 0.000546 1634. 1816.
1814(42) 0.000556 1634. 1816.
1850(43) 0.000533 1634. 1816.
1870(44) 0.000526 1635. 1816.
1893(44) 0.000521 1635. 1816.
1832(44) 0.000526 1635. 1816.
1779(43) 0.000541 1635. 1816.
1827(44) 0.000521 1635. 1816.
1827(44) 0.000512 1635. 1815.
1780(44) 0.000521 1635. 1815.
1833(45) 0.000505 1635. 1815.
1830(45) 0.000496 1635. 1814.
1872(46) 0.000481 1635. 1814.
1836(45) 0.000492 1634. 1813.
1788(45) 0.000496 1634. 1813.
1700(44) 0.000517 1633. 1812.
1835(46) 0.000481 1633. 1811.
1752(45) 0.000492 1632. 1810.
1879(47) 0.000459 1631. 1809.
1851(46) 0.000464 1630. 1808.
1799(46) 0.000469 1629. 1806.
1740(45) 0.000485 1628. 1805.
1794(46) 0.000471 1627. 1803.
1757(45) 0.000485 1625. 1801.
1781(46) 0.000469 1623. 1799.
1773(53) 0.0003507 1622. 1797.
1805(46) 0.000464 1620. 1795.
1800(54) 0.0003429 1617. 1792.
1746(53) 0.000353 1615. 1790.
1849(54) 0.0003417 1612. 1787.
1739(53) 0.000352 1609. 1784.
1792(66) 0.0002275 1606. 1780.
1661(51) 0.000379 1603. 1777.
1744(65) 0.0002345 1599. 1773.
1726(65) 0.0002367 1595. 1769.
1835(66) 0.0002331 1591. 1764.
1888(68) 0.0002175 1586. 1759.
1795(94) 0.0001139 1582. 1754.
1758(64) 0.0002434 1576. 1749.
1783(93) 0.0001154 1571. 1743.
1693(91) 0.0001208 1565. 1737.
1694(86) 0.0001362 1559. 1731.
1759(92) 0.0001171 1552. 1724.
1766(90) 0.0001232 1545. 1717.
1772(88) . . .
loop_
_refln_index_h
_refln_index_k
_refln_index_l
_refln_observed_status
_refln_F_squared_meas
_refln_F_squared_calc
_refln_phase_calc
_refln_d_spacing
_gsas_i100_meas
1 1 0 o 4.929 6.081 0.00 13.97655 0.56
1 0 1 o 17.920 9.609 180.00 9.16370 0.88
3 0 0 o 7.364 12.354 180.00 8.06937 0.28
2 0 -1 o 5.748 14.906 180.00 7.66341 0.20
2 2 0 o 47.457 61.576 180.00 6.98828 1.35
2 1 1 o 11.365 3.878 180.00 6.71960 0.60
3 1 -1 o 32.254 20.620 0.00 5.55682 1.16
4 1 0 o 1.402 1.749 0.00 5.28264 0.05
4 0 1 o 51.440 52.495 0.00 5.16367 0.80
1 0 -2 o 8.291 8.263 0.00 4.84986 0.11
3 2 1 o 8.038 8.093 180.00 4.84368 0.22
3 3 0 o 0.003 0.023 0.00 4.65885 0.00
2 0 2 o 0.000 7.516 0.00 4.58185 0.00
2 1 -2 o 13.688 12.302 180.00 4.35387 0.30
5 0 -1 o 25.116 21.807 180.00 4.34939 0.28
4 2 -1 o 15.040 5.801 180.00 4.15295 0.30
6 0 0 o 0.409 0.384 0.00 4.03468 0.00
3 1 2 o 13.264 21.056 0.00 3.98436 0.25
5 1 1 o 2.205 3.588 180.00 3.98093 0.04
5 2 0 o 5.687 9.324 180.00 3.87640 0.10
4 0 -2 o 384.235 420.442 0.00 3.83170 3.32
3 2 -2 o 26.003 15.735 180.00 3.69535 0.42
4 3 1 o 24.340 14.751 0.00 3.69261 0.39
4 4 0 o 7.402 6.125 180.00 3.49414 0.05
5 0 2 o 54.905 47.248 180.00 3.46130 0.39
6 1 -1 o 79.898 68.772 180.00 3.45905 1.13
4 2 2 o 18.066 16.699 180.00 3.35980 0.24
0 0 3 o 10733.964 10669.255 0.00 3.30014 22.99
5 1 -2 o 4.497 4.508 180.00 3.26674 0.06
7 0 1 o 12987.365 13028.540 0.00 3.26485 81.72
5 3 -1 o 2.323 2.330 0.00 3.26485 0.03
1 1 3 o 16.238 17.021 180.00 3.21182 0.20
7 1 0 o 23.574 24.845 180.00 3.20644 0.29
6 2 1 o 43.208 46.491 0.00 3.17926 0.52
4 3 -2 o 256.774 285.290 0.00 3.10169 2.92
3 0 -3 o 5.759 6.467 180.00 3.05457 0.03
3 0 3 o 13.660 15.338 180.00 3.05457 0.08
6 3 0 o 66.157 74.083 0.00 3.04993 0.73
2 2 3 o 116.744 104.642 180.00 2.98413 1.23
6 1 2 o 10.122 7.339 180.00 2.95936 0.11
5 4 1 o 11.679 8.353 0.00 2.95796 0.12
8 0 -1 o 48.813 24.901 0.00 2.89386 0.24
5 3 2 o 11.550 9.562 180.00 2.83499 0.11
7 0 -2 o 150.445 124.550 180.00 2.83499 0.72
7 2 -1 o 71.289 59.505 0.00 2.83376 0.68
4 1 3 o 0.357 0.317 0.00 2.79888 0.00
4 1 -3 o 36.557 32.472 180.00 2.79887 0.34
5 5 0 o 74.000 65.236 180.00 2.79531 0.34
6 2 -2 o 55.018 46.804 180.00 2.77841 0.50
8 1 1 o 2.035 2.254 180.00 2.72399 0.02
3 3 3 o 21.880 26.811 180.00 2.69296 0.19
9 0 0 o 223.409 270.188 0.00 2.68979 0.96
6 4 -1 o 166.997 180.418 180.00 2.67368 1.42
5 4 -2 o 2.002 1.862 180.00 2.62705 0.02
7 3 1 o 509.416 474.298 180.00 2.62606 4.18
8 2 0 o 73.617 67.608 180.00 2.64132 0.61
8 0 2 o 0.806 0.660 180.00 2.58184 0.00
6 0 -3 o 5.442 4.724 180.00 2.55447 0.02
6 0 3 o 249.307 216.421 0.00 2.55447 0.97
7 2 2 o 11.753 11.628 180.00 2.53888 0.09
5 2 -3 o 12.291 13.470 180.00 2.51284 0.09
5 2 3 o 0.016 0.017 180.00 2.51284 0.00
7 4 0 o 679.573 737.495 180.00 2.51026 5.11
1 0 4 o 37.681 36.279 180.00 2.46227 0.14
8 1 -2 o 203.181 198.072 180.00 2.45904 1.47
6 5 1 o 74.657 72.976 0.00 2.45823 0.54
9 1 -1 o 8.861 8.661 180.00 2.45823 0.06
2 0 -4 o 76.432 55.313 0.00 2.42493 0.27
6 4 2 o 8.593 5.871 180.00 2.42184 0.06
4 4 3 o 6.119 3.292 180.00 2.39921 0.04
2 1 4 o 7.825 4.525 180.00 2.38923 0.05
7 3 -2 o 0.014 0.009 180.00 2.38628 0.00
8 3 -1 o 1.448 0.887 180.00 2.38554 0.01
10 0 1 o 115.703 189.426 0.00 2.35153 0.38
6 6 0 o 80.303 137.940 0.00 2.32943 0.26
3 1 -4 o 63.824 97.228 180.00 2.32233 0.41
9 2 1 o 0.021 0.030 180.00 2.31894 0.00
7 1 3 o 5.677 5.639 0.00 2.29971 0.04
7 1 -3 o 7.344 7.294 0.00 2.29971 0.05
10 1 0 o 156.614 150.196 180.00 2.29773 0.99
4 0 4 o 2225.824 1904.842 180.00 2.29092 7.01
3 2 4 o 1.016 0.734 180.00 2.26076 0.01
9 1 2 o 64.227 47.247 180.00 2.25825 0.39
6 5 -2 o 6.943 5.108 180.00 2.25825 0.04
7 5 -1 o 10.673 7.890 0.00 2.25762 0.07
6 3 -3 o 27.836 23.330 180.00 2.23987 0.17
6 3 3 o 39.990 33.517 0.00 2.23987 0.24
9 3 0 o 80.609 67.575 0.00 2.23804 0.49
8 4 1 o 0.011 0.009 0.00 2.22874 0.00
5 0 -4 o 59.264 31.815 180.00 2.20383 0.17
8 3 2 o 140.719 73.763 0.00 2.20151 0.82
4 2 -4 o 138.209 78.315 0.00 2.17693 0.79
10 0 -2 o 49.320 28.854 180.00 2.17470 0.14
5 1 4 o 16.985 14.270 0.00 2.15100 0.09
9 2 -2 o 0.059 0.051 180.00 2.14884 0.00
11 0 -1 o 357.191 308.890 180.00 2.14830 0.99
5 5 3 o 91.058 88.008 180.00 2.13298 0.50
8 5 0 o 12.263 11.978 0.00 2.13140 0.07
10 2 -1 o 6.705 7.011 0.00 2.12336 0.04
4 3 4 o 3.783 5.066 0.00 2.10179 0.02
7 5 2 o 3.907 5.327 180.00 2.09978 0.02
7 6 1 o 0.787 1.077 0.00 2.09928 0.00
9 0 3 o 37.953 54.095 0.00 2.08498 0.10
9 0 -3 o 170.267 242.687 0.00 2.08498 0.45
8 4 -2 o 0.890 1.211 180.00 2.07648 0.00
8 2 3 o 38.872 46.231 180.00 2.06216 0.20
8 2 -3 o 3.643 4.332 180.00 2.06216 0.02
6 1 -4 o 0.603 0.675 180.00 2.05582 0.00
9 4 -1 o 86.076 94.516 0.00 2.05346 0.44
11 1 1 o 20.654 22.679 0.00 2.05346 0.11
12 0 0 o 1.101 1.103 0.00 2.01734 0.00
5 3 -4 o 10.965 11.020 0.00 2.01273 0.05
7 0 4 o 40702.66 40904.55 0.00 2.01273 100.00
11 0 2 o 627.727 631.131 0.00 2.01096 1.54
10 3 1 o 40.492 40.715 180.00 2.01052 0.20
7 4 -3 o 391.499 392.452 180.00 1.99795 1.90
7 4 3 o 235.641 236.214 0.00 1.99795 1.14
7 7 0 o 39140.80 39191.39 0.00 1.99665 94.70
11 2 0 o 24.249 24.281 0.00 1.99665 0.12
6 2 4 o 43.988 43.816 0.00 1.99218 0.21
10 2 2 o 4.971 4.939 180.00 1.99046 0.02
1 0 -5 o 90.348 85.927 180.00 1.97350 0.21
7 6 -2 o 0.818 0.772 180.00 1.97058 0.00
2 0 5 o 0.210 0.201 0.00 1.95411 0.00
8 6 -1 o 45.976 44.711 180.00 1.95088 0.21
10 4 0 o 695.855 718.084 180.00 1.93820 3.18
2 1 -5 o 6.047 6.266 0.00 1.93529 0.03
5 4 4 o 0.003 0.003 0.00 1.93411 0.00
9 4 2 o 1.248 1.292 0.00 1.93254 0.01
11 1 -2 o 0.161 0.167 180.00 1.93254 0.00
9 5 1 o 5.401 5.593 180.00 1.93215 0.02
8 0 -4 o 0.687 0.695 0.00 1.91585 0.00
6 6 3 o 6.275 6.981 0.00 1.90309 0.03
3 1 5 o 5.368 6.212 180.00 1.89922 0.02
7 2 -4 o 1.177 1.376 0.00 1.89810 0.01
10 3 -2 o 128.894 152.550 180.00 1.89662 0.57
12 1 -1 o 120.108 142.546 0.00 1.89625 0.53
10 1 3 o 0.402 0.488 0.00 1.88569 0.00
10 1 -3 o 189.036 229.676 180.00 1.88569 0.82
4 0 -5 o 45.988 55.159 0.00 1.88192 0.10
3 2 -5 o 63.974 69.663 0.00 1.86509 0.27
8 1 4 o 169.605 183.542 0.00 1.86403 0.72
11 3 -1 o 52.490 56.202 180.00 1.86228 0.22
9 3 3 o 53.047 53.033 180.00 1.85227 0.22
9 3 -3 o 0.078 0.078 0.00 1.85227 0.00
9 6 0 o 457.253 454.306 0.00 1.85124 1.92
6 4 -4 o 92.826 90.686 180.00 1.84767 0.39
8 6 2 o 40.667 39.563 180.00 1.84631 0.17
5 0 5 o 1.177 1.182 180.00 1.83274 0.00
7 3 4 o 1456.745 1469.233 180.00 1.83174 5.98
9 5 -2 o 3.206 3.249 180.00 1.83040 0.01
13 0 1 o 246.397 249.969 180.00 1.83007 0.51
8 7 1 o 94.524 95.894 180.00 1.83007 0.39
4 2 5 o 25.949 24.714 0.00 1.81718 0.11
12 2 1 o 124.563 115.050 180.00 1.81458 0.50
5 1 -5 o 73.100 62.502 0.00 1.80202 0.29
12 1 2 o 15.210 13.032 0.00 1.79980 0.06
10 5 -1 o 117.267 100.527 180.00 1.79948 0.47
8 5 3 o 47.196 41.452 180.00 1.79045 0.19
8 5 -3 o 82.307 72.290 0.00 1.79045 0.32
13 1 0 o 72.847 64.120 180.00 1.78951 0.29
4 3 -5 o 400.450 355.710 180.00 1.77279 1.55
6 5 4 o 0.740 0.657 0.00 1.77188 0.00
9 1 -4 o 3.830 3.400 180.00 1.77188 0.01
11 3 2 o 159.836 141.826 0.00 1.77067 0.62
11 4 1 o 165.590 146.909 0.00 1.77037 0.64
12 3 0 o 12.201 10.789 0.00 1.76088 0.05
8 8 0 o 606.485 551.076 0.00 1.74707 1.14
6 1 5 o 171.691 156.903 180.00 1.74494 0.64
8 3 -4 o 14.484 13.267 180.00 1.74407 0.05
8 7 -2 o 0.009 0.009 180.00 1.74292 0.00
13 0 -2 o 1.188 1.091 0.00 1.74292 0.00
10 0 4 o 27.551 26.335 0.00 1.73065 0.05
12 2 -2 o 99.657 95.665 180.00 1.72952 0.37
12 0 -3 o 65.044 64.159 0.00 1.72122 0.12
12 0 3 o 159.941 157.765 180.00 1.72122 0.29
7 0 -5 o 11117.769 11029.921 0.00 1.71836 20.25
5 3 5 o 37.851 37.552 180.00 1.71836 0.14
9 2 4 o 2.918 2.899 180.00 1.71753 0.01
10 5 2 o 8.424 8.379 180.00 1.71643 0.03
9 7 -1 o 6.794 6.759 0.00 1.71616 0.02
7 7 3 o 6926.547 6898.081 0.00 1.70832 24.96
11 2 -3 o 76.654 76.339 0.00 1.70832 0.28
11 2 3 o 153.715 153.084 180.00 1.70832 0.55
11 5 0 o 0.240 0.239 180.00 1.70751 0.00
6 2 -5 o 1.616 1.607 180.00 1.70552 0.01
10 6 1 o 1.582 1.571 180.00 1.70337 0.01
14 0 -1 o 8567.618 8508.000 0.00 1.70337 15.35
8 4 4 o 1.452 1.253 180.00 1.67990 0.01
7 5 -4 o 2.667 2.563 180.00 1.69217 0.01
11 4 -2 o 66.839 63.760 0.00 1.69112 0.24
13 2 -1 o 10.764 10.248 180.00 1.69085 0.04
10 4 3 o 165.313 137.225 180.00 1.67128 0.57
10 4 -3 o 288.778 239.713 180.00 1.67128 1.00
5 4 -5 o 89.564 74.275 0.00 1.66865 0.31
8 0 5 o 221.670 193.290 180.00 1.65689 0.38
12 4 -1 o 4.261 3.810 0.00 1.65491 0.01
0 0 6 o 13.413 13.222 180.00 1.65007 0.01
7 2 5 o 12.429 13.802 180.00 1.64536 0.04
11 0 -4 o 0.054 0.061 0.00 1.64464 0.00
9 7 2 o 68.549 79.277 0.00 1.64367 0.23
14 1 1 o 0.001 0.002 180.00 1.64343 0.00
1 1 6 o 6.320 7.996 180.00 1.63869 0.02
10 7 0 o 187.451 245.029 180.00 1.63583 0.62
10 2 -4 o 4.065 5.438 180.00 1.63337 0.01
10 6 -2 o 0.213 0.288 180.00 1.63242 0.00
14 0 2 o 0.270 0.364 180.00 1.63242 0.00
8 1 -5 o 15.830 23.510 0.00 1.62303 0.05
7 6 4 o 105.397 157.219 180.00 1.62233 0.34
13 2 2 o 0.949 1.422 180.00 1.62140 0.00
13 3 1 o 7.980 11.955 180.00 1.62117 0.03
9 8 1 o 107.832 161.556 180.00 1.62117 0.35
3 0 6 o 0.075 0.112 0.00 1.61662 0.00
3 0 -6 o 19.860 29.350 0.00 1.61662 0.03
9 6 3 o 56.163 81.723 0.00 1.61456 0.18
9 6 -3 o 5.424 7.893 180.00 1.61456 0.02
15 0 0 o 17.316 25.065 0.00 1.61387 0.03
6 4 5 o 1.191 1.705 180.00 1.61219 0.00
2 2 6 o 0.029 0.041 0.00 1.60591 0.00
14 2 0 o 17.891 25.212 0.00 1.60322 0.06
7 3 -5 o 369.512 520.133 0.00 1.60157 1.18
9 4 -4 o 0.228 0.321 180.00 1.60090 0.00
11 1 4 o 130.402 183.380 0.00 1.60090 0.42
11 6 -1 o 5.650 7.929 0.00 1.59979 0.02
12 4 2 o 9.265 12.611 180.00 1.58963 0.03
10 3 4 o 106.103 150.095 180.00 1.58030 0.33
14 1 -2 o 70.743 100.777 180.00 1.57945 0.22
12 5 1 o 2.507 3.577 180.00 1.57923 0.01
4 1 6 o 0.044 0.064 0.00 1.57502 0.00
4 1 -6 o 3.615 5.305 180.00 1.57502 0.01
13 1 3 o 60.636 89.466 180.00 1.57312 0.19
13 1 -3 o 26.016 38.385 0.00 1.57312 0.08
13 4 0 o 86.601 127.828 180.00 1.57248 0.27
6 5 -5 o 72.457 95.120 0.00 1.56110 0.22
9 1 5 o 62.301 81.787 180.00 1.56110 0.19
9 8 -2 o 12.209 15.462 180.00 1.55966 0.04
13 3 -2 o 0.409 0.517 180.00 1.55966 0.00
3 3 6 o 17.692 19.525 180.00 1.55540 0.05
12 3 3 o 15.500 15.959 0.00 1.55356 0.05
12 3 -3 o 5.176 5.330 180.00 1.55356 0.02
9 9 0 o 0.259 0.261 180.00 1.55295 0.00
8 6 -4 o 14.394 13.331 180.00 1.55084 0.04
8 8 3 o 0.017 0.013 0.00 1.54405 0.00
8 3 5 o 169.265 125.553 0.00 1.54198 0.50
9 5 4 o 15.931 11.797 0.00 1.54138 0.05
11 6 2 o 51.927 38.482 180.00 1.54059 0.15
15 1 -1 o 62.621 46.444 0.00 1.54039 0.19
10 0 -5 o 907.986 795.173 180.00 1.53268 1.34
10 8 -1 o 87.174 80.202 0.00 1.53112 0.26
6 0 6 o 1.883 1.918 180.00 1.52728 0.00
6 0 -6 o 7.733 7.879 180.00 1.52728 0.01
12 6 0 o 124.921 131.829 0.00 1.52497 0.36
9 2 -5 o 99.231 105.656 0.00 1.52355 0.29
12 1 -4 o 12.928 13.775 0.00 1.52297 0.04
12 5 -2 o 3.067 3.265 0.00 1.52221 0.01
11 7 1 o 168.099 178.824 0.00 1.52201 0.49
14 3 -1 o 46.705 49.685 0.00 1.52201 0.14
5 2 -6 o 77.979 79.850 180.00 1.51824 0.23
5 2 6 o 50.038 51.238 0.00 1.51824 0.14
11 5 3 o 10.914 10.867 180.00 1.51654 0.03
11 5 -3 o 82.323 81.968 180.00 1.51654 0.24
7 5 5 o 153.696 129.388 180.00 1.50576 0.44
11 3 -4 o 2411.853 2020.130 180.00 1.50520 6.88
8 4 -5 o 106.023 91.628 0.00 1.49710 0.30
16 0 1 o 238.127 211.348 0.00 1.49564 0.34
4 4 6 o 67.116 63.981 0.00 1.49206 0.19
13 0 4 o 7.588 7.531 180.00 1.48804 0.01
8 7 4 o 5.020 4.983 0.00 1.48804 0.01
15 1 2 o 359.733 356.282 180.00 1.48733 1.00
13 5 -1 o 0.493 0.488 180.00 1.48715 0.00
15 2 1 o 2.127 2.104 180.00 1.48715 0.01
12 2 4 o 26.268 22.552 180.00 1.47968 0.07
10 8 2 o 16.469 13.944 0.00 1.47898 0.05
11 0 5 o 36.507 29.254 180.00 1.47198 0.05
10 5 -4 o 35.737 28.665 180.00 1.47146 0.10
14 3 2 o 49.516 39.775 180.00 1.47077 0.14
11 7 -2 o 306.340 246.074 0.00 1.47077 0.84
7 1 -6 o 40.046 32.512 180.00 1.46719 0.11
7 1 6 o 1.419 1.152 0.00 1.46719 0.00
10 7 3 o 1395.441 1136.154 180.00 1.46565 3.79
10 7 -3 o 102.840 83.732 180.00 1.46565 0.28
16 1 0 o 80.589 65.644 180.00 1.46514 0.22
11 8 0 o 19.443 15.837 0.00 1.46514 0.05
10 2 5 o 34.507 28.124 0.00 1.46388 0.09
14 4 1 o 366.099 298.280 180.00 1.46252 0.99
7 6 -5 o 339.379 277.247 180.00 1.45592 0.91
11 4 4 o 21.852 17.872 0.00 1.45542 0.06
10 9 1 o 0.389 0.319 180.00 1.45458 0.00
6 3 -6 o 50.016 41.344 180.00 1.45129 0.13
6 3 6 o 3.684 3.045 0.00 1.45129 0.01
15 0 -3 o 6.214 5.163 180.00 1.44980 0.01
15 0 3 o 235.203 195.425 0.00 1.44980 0.31
15 3 0 o 57.432 47.824 0.00 1.44930 0.15
16 0 -2 o 104.085 87.729 0.00 1.44693 0.14
14 2 -3 o 24.925 21.951 0.00 1.44206 0.07
14 2 3 o 23.200 20.431 0.00 1.44206 0.06
9 4 5 o 16.939 15.227 0.00 1.44037 0.04
11 1 -5 o 15.882 14.277 0.00 1.44037 0.04
13 5 2 o 0.260 0.238 180.00 1.43924 0.00
15 2 -2 o 48.003 43.791 180.00 1.43924 0.13
12 7 -1 o 365.346 333.999 180.00 1.43908 0.96
10 3 -5 o 150.955 150.476 180.00 1.42531 0.39
9 7 -4 o 78.900 78.599 0.00 1.42484 0.20
13 6 1 o 41.995 41.787 0.00 1.42406 0.11
5 5 6 o 0.016 0.016 0.00 1.42097 0.00
13 4 -3 o 5.888 5.859 180.00 1.41957 0.02
13 4 3 o 374.142 372.300 180.00 1.41957 0.96
14 5 0 o 51.156 50.970 180.00 1.41910 0.13
10 6 4 o 37.375 37.519 180.00 1.41750 0.10
14 0 -4 o 26709.438 26812.504 0.00 1.41750 34.14
14 4 -2 o 188.133 189.692 0.00 1.41688 0.48
1 0 7 o 18.706 20.241 0.00 1.41194 0.02
13 2 -4 o 74.133 83.256 0.00 1.41026 0.19
10 9 -2 o 3.136 3.575 180.00 1.40965 0.01
17 0 -1 o 1035.315 1184.622 180.00 1.40950 1.31
9 0 -6 o 6.344 7.831 180.00 1.40651 0.01
9 0 6 o 92.031 113.612 0.00 1.40651 0.12
9 9 3 o 21.799 27.804 180.00 1.40515 0.05
2 0 -7 o 1.451 1.866 0.00 1.40479 0.00
8 6 5 o 48.863 64.460 180.00 1.40359 0.12
16 2 -1 o 7.436 10.028 0.00 1.40239 0.02
8 2 6 o 0.042 0.059 180.00 1.39944 0.00
8 2 -6 o 39.558 55.323 180.00 1.39944 0.10
10 10 0 o 27.137 38.437 180.00 1.39766 0.03
2 1 7 o 17.812 25.215 180.00 1.39775 0.04
9 5 -5 o 8.272 11.780 180.00 1.39656 0.02
12 7 2 o 34.775 49.757 180.00 1.39553 0.09
12 4 -4 o 18.357 26.063 0.00 1.38921 0.05
12 6 -3 o 18.335 22.801 180.00 1.38432 0.04
12 6 3 o 20.445 25.425 0.00 1.38432 0.05
3 1 -7 o 91.479 112.225 180.00 1.38397 0.22
12 1 5 o 12.104 14.168 0.00 1.38282 0.03
14 1 4 o 5.492 6.315 0.00 1.38239 0.01
13 6 -2 o 38.760 43.535 0.00 1.38182 0.09
11 9 -1 o 6.639 7.413 180.00 1.38168 0.02
15 4 -1 o 39.184 43.755 0.00 1.38168 0.10
7 4 6 o 84.643 85.205 0.00 1.37886 0.21
7 4 -6 o 201.148 202.483 0.00 1.37886 0.49
13 7 0 o 105.637 101.442 180.00 1.37715 0.26
4 0 7 o 479.692 461.602 180.00 1.37724 0.58
12 8 1 o 0.208 0.193 0.00 1.37497 0.00
3 2 7 o 99.378 93.272 180.00 1.37060 0.24
11 3 5 o 23.645 22.674 0.00 1.36948 0.06
9 8 4 o 45.017 43.587 180.00 1.36907 0.11
13 3 4 o 2.907 2.815 0.00 1.36907 0.01
17 0 2 o 306.635 301.075 180.00 1.36851 0.37
17 1 1 o 212.005 208.930 180.00 1.36837 0.51
16 2 2 o 5.090 6.084 0.00 1.36199 0.01
5 0 -7 o 52.254 69.383 0.00 1.35761 0.06
8 7 -5 o 0.002 0.003 0.00 1.35652 0.00
13 0 -5 o 40.478 54.613 180.00 1.35652 0.05
11 6 -4 o 193.353 262.006 180.00 1.35611 0.46
16 3 1 o 17.070 23.252 0.00 1.35544 0.04
4 2 -7 o 11.411 15.338 0.00 1.35125 0.03
12 2 -5 o 0.324 0.431 180.00 1.35018 0.00
14 6 -1 o 188.725 247.471 180.00 1.34911 0.44
6 6 6 o 9.588 12.147 0.00 1.34648 0.02
18 0 0 o 397.005 491.620 180.00 1.34489 0.46
5 1 7 o 0.062 0.076 0.00 1.34498 0.00
10 5 5 o 0.123 0.150 180.00 1.34392 0.00
12 5 4 o 4.929 5.974 180.00 1.34353 0.01
15 4 2 o 0.321 0.386 0.00 1.34300 0.00
11 9 2 o 2.802 3.366 0.00 1.34300 0.01
10 1 -6 o 31.648 36.235 0.00 1.34028 0.07
10 1 6 o 0.955 1.094 180.00 1.34028 0.00
11 8 3 o 11.807 13.228 180.00 1.33910 0.03
11 8 -3 o 1.913 2.143 0.00 1.33910 0.00
16 1 3 o 17.705 19.837 180.00 1.33910 0.04
16 1 -3 o 6.148 6.888 180.00 1.33910 0.01
17 2 0 o 4.219 4.693 180.00 1.33871 0.01
12 8 -2 o 91.443 98.572 0.00 1.33684 0.21
4 3 7 o 0.003 0.004 180.00 1.33269 0.00
11 4 -5 o 126.567 130.653 0.00 1.33166 0.29
17 1 -2 o 6.838 7.052 0.00 1.33077 0.02
15 5 1 o 240.823 248.338 0.00 1.33064 0.55
9 3 -6 o 0.471 0.487 180.00 1.32812 0.00
9 3 6 o 12.446 12.873 180.00 1.32812 0.03
15 3 -3 o 22.369 23.239 0.00 1.32698 0.05
15 3 3 o 10.935 11.360 180.00 1.32698 0.02
12 9 0 o 3.046 3.171 0.00 1.32660 0.01
16 4 0 o 0.262 0.282 0.00 1.32066 0.00
6 1 -7 o 220.152 236.773 0.00 1.32074 0.50
15 1 -4 o 387.955 415.449 0.00 1.31936 0.87
16 3 -2 o 3.072 3.281 180.00 1.31887 0.01
11 10 1 o 13.968 14.907 180.00 1.31874 0.03
10 8 -4 o 56.102 58.336 180.00 1.31352 0.13
14 6 2 o 15.477 16.080 180.00 1.31303 0.03
5 3 -7 o 0.483 0.497 180.00 1.30910 0.00
7 0 7 o 3900.661 4014.580 0.00 1.30910 4.33
9 7 5 o 22.202 22.724 0.00 1.30813 0.05
11 7 4 o 1855.947 1894.155 180.00 1.30776 4.11
14 3 -4 o 10.394 10.608 180.00 1.30776 0.02
13 8 -1 o 97.556 99.092 180.00 1.30715 0.22
8 5 6 o 36.335 36.046 0.00 1.30477 0.08
8 5 -6 o 7.626 7.565 0.00 1.30477 0.02
14 5 -3 o 381.101 373.634 180.00 1.30368 0.84
14 5 3 o 22.307 21.870 0.00 1.30368 0.05
6 2 7 o 19.511 19.067 180.00 1.30339 0.04
14 0 5 o 8340.268 8066.758 0.00 1.30243 9.17
10 6 -5 o 5.839 5.648 180.00 1.30243 0.01
13 2 5 o 167.602 155.007 0.00 1.29682 0.37
15 5 -2 o 47.538 43.779 0.00 1.29599 0.10
14 7 1 o 7530.647 6931.120 0.00 1.29587 16.41
18 1 -1 o 1.215 1.118 0.00 1.29587 0.00
15 6 0 o 30.385 27.552 0.00 1.29213 0.07
16 0 4 o 74.712 67.481 0.00 1.29092 0.08
10 10 3 o 170.267 151.347 180.00 1.28699 0.37
5 4 7 o 234.172 207.845 180.00 1.28672 0.50
15 2 4 o 40.485 35.665 180.00 1.28545 0.09
13 5 -4 o 220.253 194.032 0.00 1.28545 0.47
11 10 -2 o 15.101 13.268 0.00 1.28499 0.03
17 3 -1 o 276.823 243.060 180.00 1.28487 0.59
8 0 -7 o 117.598 102.017 0.00 1.28130 0.13
12 4 5 o 104.909 91.080 0.00 1.28039 0.22
12 0 6 o 87.056 76.817 180.00 1.27723 0.09
12 0 -6 o 5.777 5.098 0.00 1.27723 0.01
7 2 -7 o 118.871 105.818 0.00 1.27595 0.25
14 1 -5 o 157.210 140.580 180.00 1.27505 0.33
13 8 2 o 190.309 170.494 180.00 1.27426 0.40
7 7 6 o 49.309 43.779 0.00 1.27193 0.10
11 2 -6 o 30.024 26.657 0.00 1.27193 0.06
11 2 6 o 0.523 0.465 180.00 1.27193 0.00
13 7 -3 o 147.715 129.802 180.00 1.27093 0.31
13 7 3 o 144.321 126.820 0.00 1.27093 0.30
11 11 0 o 268.889 235.296 0.00 1.27060 0.28
14 4 4 o 25.466 21.905 180.00 1.26944 0.05
6 4 -7 o 32.190 26.619 180.00 1.26029 0.07
18 2 1 o 229.706 200.602 0.00 1.25856 0.48
12 10 -1 o 0.023 0.020 180.00 1.25856 0.00
8 1 7 o 3.688 2.960 0.00 1.26545 0.01
9 8 -5 o 8.422 6.691 180.00 1.26457 0.02
13 3 -5 o 2.737 2.174 0.00 1.26457 0.01
10 9 4 o 26.994 21.391 0.00 1.26424 0.06
10 4 6 o 1.577 1.488 0.00 1.25642 0.00
10 4 -6 o 11.903 11.235 0.00 1.25642 0.02
14 7 -2 o 83.791 66.336 0.00 1.26380 0.17
18 1 2 o 2.048 1.621 180.00 1.26380 0.00
19 0 1 o 37.957 30.042 0.00 1.26369 0.04
16 5 -1 o 9.512 7.528 180.00 1.26369 0.02
14 8 0 o 5.128 5.052 0.00 1.25513 0.01
7 3 7 o 476.555 468.509 180.00 1.25520 0.98
11 6 5 o 205.636 207.191 180.00 1.25434 0.42
12 7 -4 o 83.890 85.206 180.00 1.25402 0.17
17 3 2 o 171.459 175.868 180.00 1.25359 0.35
13 9 1 o 145.415 149.490 0.00 1.25348 0.30
18 0 -3 o 746.586 764.201 0.00 1.24544 0.76
18 0 3 o 808.308 827.380 180.00 1.24544 0.82
12 5 -5 o 60.351 60.626 0.00 1.24436 0.12
13 6 4 o 43.313 43.271 0.00 1.24404 0.09
17 4 1 o 738.116 730.837 180.00 1.24352 1.50
17 2 3 o 0.016 0.015 180.00 1.24053 0.00
17 2 -3 o 62.535 60.062 180.00 1.24053 0.13
19 1 0 o 50.853 48.832 0.00 1.24022 0.10
1 0 -8 o 37.053 37.280 0.00 1.23594 0.04
6 5 7 o 117.193 118.836 180.00 1.23543 0.24
9 1 -7 o 4.146 4.205 0.00 1.23543 0.01
17 0 -4 o 784.964 807.585 180.00 1.23430 0.79
19 0 -2 o 13.234 13.668 180.00 1.23389 0.01
16 5 2 o 37.203 38.423 180.00 1.23389 0.07
15 7 -1 o 71.653 74.064 0.00 1.23379 0.14
9 6 6 o 44.854 46.487 180.00 1.23178 0.09
9 6 -6 o 38.639 40.046 180.00 1.23178 0.08
2 0 8 o 16.088 16.582 180.00 1.23114 0.02
12 9 3 o 19.876 20.421 0.00 1.23087 0.04
12 9 -3 o 98.964 101.679 180.00 1.23087 0.20
18 3 0 o 671.007 686.466 180.00 1.23057 1.34
16 2 -4 o 1.153 1.157 180.00 1.22952 0.00
12 10 2 o 6.749 6.710 180.00 1.22911 0.01
18 2 -2 o 14.314 14.232 0.00 1.22911 0.03
2 1 -8 o 21.347 19.833 0.00 1.22639 0.04
16 4 -3 o 71.501 66.037 180.00 1.22612 0.14
16 4 3 o 79.343 73.280 0.00 1.22612 0.16
8 3 -7 o 15.175 13.945 180.00 1.22589 0.03
15 1 5 o 1.828 1.655 180.00 1.22509 0.00
13 9 -2 o 33.558 30.076 180.00 1.22439 0.07
10 0 7 o 604.692 541.866 180.00 1.22120 0.59
10 8 5 o 12.785 11.589 180.00 1.22041 0.03
16 6 1 o 2.546 2.345 180.00 1.21962 0.00
3 1 8 o 119.908 119.535 180.00 1.21705 0.23
9 2 7 o 96.633 98.115 180.00 1.21656 0.19
14 3 5 o 794.284 830.724 180.00 1.21578 1.55
11 7 -5 o 119.661 125.151 180.00 1.21578 0.23
15 4 -4 o 36.343 38.428 0.00 1.21549 0.07
11 9 -4 o 54.803 57.946 0.00 1.21549 0.11
17 4 -2 o 0.000 0.000 180.00 1.21510 0.00
13 1 6 o 31.186 35.676 180.00 1.21308 0.06
13 1 -6 o 6.080 6.956 180.00 1.21308 0.01
4 0 -8 o 300.145 349.154 0.00 1.21246 0.29
13 10 0 o 28.480 33.596 180.00 1.21192 0.06
17 5 0 o 62.297 73.488 180.00 1.21192 0.12
12 8 4 o 35.269 42.642 0.00 1.21092 0.07
3 2 -8 o 0.089 0.115 180.00 1.20793 0.00
7 5 -7 o 99.687 130.972 180.00 1.20745 0.19
17 1 4 o 30.983 41.763 180.00 1.20640 0.06
15 7 2 o 21.524 29.281 180.00 1.20602 0.04
12 11 1 o 7.218 9.842 0.00 1.20592 0.01
12 3 -6 o 4.968 7.078 180.00 1.20405 0.01
12 3 6 o 6.228 8.874 180.00 1.20405 0.01
15 6 3 o 0.013 0.019 180.00 1.20319 0.00
15 6 -3 o 10.445 15.131 180.00 1.20319 0.02
8 4 7 o 3.054 4.441 180.00 1.20297 0.01
16 0 -5 o 0.009 0.013 0.00 1.20221 0.00
20 0 -1 o 14.576 21.549 0.00 1.20146 0.01
8 8 6 o 120.336 178.409 180.00 1.19960 0.23
5 0 8 o 0.584 0.864 180.00 1.19901 0.00
15 2 -5 o 164.779 242.783 180.00 1.19779 0.31
13 5 5 o 95.011 139.987 0.00 1.19779 0.18
16 3 4 o 5.992 8.817 0.00 1.19751 0.01
14 9 -1 o 33.011 48.450 0.00 1.19704 0.06
19 2 -1 o 5.489 8.056 0.00 1.19704 0.01
4 2 8 o 8.136 11.646 180.00 1.19462 0.02
14 6 -4 o 1.579 2.188 180.00 1.19314 0.00
16 6 -2 o 162.201 222.503 180.00 1.19277 0.31
5 1 -8 o 0.074 0.092 180.00 1.19028 0.00
11 0 -7 o 408.166 499.206 0.00 1.18982 0.38
15 8 1 o 0.002 0.002 180.00 1.18836 0.00
11 5 -6 o 6.048 6.434 180.00 1.18656 0.01
11 5 6 o 15.347 16.325 0.00 1.18656 0.03
11 11 3 o 7.536 7.786 0.00 1.18575 0.01
16 7 0 o 67.334 68.962 0.00 1.18548 0.13
10 2 -7 o 148.290 152.146 180.00 1.18553 0.28
14 4 -5 o 127.883 128.376 180.00 1.18481 0.24
18 4 -1 o 86.576 85.326 0.00 1.18409 0.16
4 3 -8 o 2897.931 2759.202 180.00 1.18174 5.39
7 6 7 o 3.308 3.143 180.00 1.18129 0.01
10 9 -5 o 72.340 68.655 0.00 1.18057 0.13
15 5 4 o 28.588 27.142 0.00 1.18031 0.05
12 11 -2 o 0.312 0.297 180.00 1.17995 0.00
20 0 2 o 0.000 0.000 0.00 1.17577 0.00
6 1 8 o 73.986 72.798 180.00 1.17338 0.14
14 8 3 o 28.945 28.469 180.00 1.17315 0.05
14 8 -3 o 32.679 32.142 0.00 1.17315 0.06
11 1 7 o 1.478 1.453 180.00 1.17294 0.00
9 4 -7 o 123.766 121.681 180.00 1.17294 0.23
12 7 5 o 1.343 1.318 0.00 1.17224 0.00
11 10 4 o 101.219 99.237 180.00 1.17198 0.19
19 2 2 o 71.952 70.452 180.00 1.17163 0.13
14 9 2 o 28.147 27.560 0.00 1.17163 0.05
20 1 1 o 0.002 0.002 180.00 1.17154 0.00
7 0 -8 o 18489.289 17703.781 0.00 1.16520 16.79
5 3 8 o 14.018 13.422 180.00 1.16520 0.03
12 12 0 o 8.067 7.723 180.00 1.16471 0.01
10 3 7 o 167.324 160.161 180.00 1.16477 0.30
13 6 -5 o 161.076 154.178 0.00 1.16408 0.29
13 8 -4 o 12.573 12.035 0.00 1.16382 0.02
15 8 -2 o 620.762 594.262 180.00 1.16348 1.12
17 6 -1 o 45.575 43.632 180.00 1.16340 0.08
19 3 1 o 65.279 62.495 180.00 1.16340 0.12
10 7 -6 o 79.617 76.361 180.00 1.16171 0.14
10 7 6 o 53.424 51.240 180.00 1.16171 0.10
6 2 -8 o 9.989 9.590 0.00 1.16117 0.02
19 1 3 o 93.203 89.524 0.00 1.16094 0.17
19 1 -3 o 0.433 0.416 0.00 1.16094 0.00
18 4 2 o 22.684 21.890 0.00 1.15947 0.04
17 0 5 o 945.613 930.891 0.00 1.15609 0.85
18 1 -4 o 6.404 6.316 180.00 1.15584 0.01
14 7 4 o 18915.402 18654.943 0.00 1.15584 33.89
13 11 -1 o 329.012 325.405 180.00 1.15542 0.59
15 0 6 o 45.241 45.183 180.00 1.15377 0.04
15 0 -6 o 4.453 4.448 0.00 1.15377 0.00
18 3 -3 o 377.506 378.363 180.00 1.15302 0.67
18 3 3 o 3.354 3.361 0.00 1.15302 0.01
15 9 0 o 36.078 36.201 180.00 1.15277 0.06
21 0 0 o 19177.680 19242.697 0.00 1.15277 17.11
8 6 -7 o 0.008 0.008 180.00 1.15282 0.00
16 2 5 o 82.852 83.315 0.00 1.15215 0.15
14 10 1 o 1002.748 1010.158 180.00 1.15149 1.79
14 2 6 o 5.182 5.230 180.00 1.14985 0.01
14 2 -6 o 45.564 45.988 0.00 1.14985 0.08
5 4 -8 o 6.004 6.059 0.00 1.14933 0.01
20 2 0 o 112.573 113.536 0.00 1.14887 0.20
9 5 7 o 12.211 12.316 180.00 1.14892 0.02
17 3 -4 o 6.710 6.755 180.00 1.14801 0.01
20 1 -2 o 56.529 56.866 180.00 1.14768 0.10
18 5 1 o 0.499 0.502 0.00 1.14760 0.00
8 0 8 o 4.837 4.841 180.00 1.14546 0.00
7 2 8 o 11.632 11.715 0.00 1.14163 0.02
12 1 -7 o 18.245 18.396 180.00 1.14123 0.03
11 9 5 o 124.600 125.745 0.00 1.14059 0.22
15 4 5 o 55.883 56.397 180.00 1.14059 0.10
17 6 2 o 2.231 2.250 180.00 1.14002 0.00
19 3 -2 o 5.595 5.645 180.00 1.14002 0.01
13 4 6 o 3.508 3.498 180.00 1.13836 0.01
13 4 -6 o 155.119 154.663 180.00 1.13836 0.27
17 5 3 o 49.350 48.661 180.00 1.13764 0.09
17 5 -3 o 1.285 1.267 0.00 1.13764 0.00
13 10 -3 o 60.014 59.176 180.00 1.13764 0.10
13 10 3 o 21.521 21.220 0.00 1.13764 0.04
19 4 0 o 35.376 34.724 0.00 1.13740 0.06
12 8 -5 o 266.276 258.072 0.00 1.13681 0.46
16 8 -1 o 7.320 6.985 180.00 1.13617 0.01
8 1 -8 o 40.765 36.888 0.00 1.13409 0.07
11 3 -7 o 552.214 495.381 180.00 1.13370 0.96
17 1 -5 o 44.564 39.511 0.00 1.13306 0.08
19 0 4 o 189.434 167.361 180.00 1.13283 0.16
16 5 -4 o 10.908 9.637 0.00 1.13283 0.02
13 11 2 o 19.345 17.023 180.00 1.13251 0.03
9 9 6 o 7.612 6.663 0.00 1.13088 0.01
6 4 8 o 308.215 270.779 180.00 1.13038 0.53
18 2 4 o 0.545 0.487 0.00 1.12912 0.00
12 10 -4 o 10.810 9.668 180.00 1.12912 0.02
14 10 -2 o 175.763 158.141 180.00 1.12881 0.30
7 3 -8 o 224.254 210.865 0.00 1.12670 0.39
8 7 7 o 67.355 63.817 0.00 1.12631 0.12
13 0 7 o 335.990 318.345 0.00 1.12631 0.29
16 3 -5 o 74.650 71.537 0.00 1.12569 0.13
13 9 4 o 198.261 190.759 0.00 1.12546 0.34
18 5 -2 o 8.503 8.224 180.00 1.12515 0.01
17 7 1 o 119.834 116.039 0.00 1.12507 0.21
12 2 7 o 62.551 62.900 0.00 1.12267 0.11
14 6 5 o 22.575 22.949 180.00 1.12206 0.04
12 6 6 o 0.326 0.348 0.00 1.11993 0.00
12 6 -6 o 0.462 0.492 0.00 1.11993 0.00
18 6 0 o 49.938 54.362 180.00 1.11902 0.08
10 5 -7 o 4.639 5.045 0.00 1.11907 0.01
17 4 4 o 1228.516 1361.688 180.00 1.11823 2.08
21 1 -1 o 53.938 60.255 180.00 1.11785 0.09
16 7 -3 o 132.877 151.819 0.00 1.11568 0.22
16 7 3 o 141.188 161.313 0.00 1.11568 0.24
14 11 0 o 476.878 544.454 180.00 1.11545 0.81
16 8 2 o 26.616 29.980 180.00 1.11437 0.04
6 5 -8 o 148.780 157.645 0.00 1.11233 0.25
9 1 8 o 18.959 20.089 180.00 1.11233 0.03
11 4 7 o 50.048 52.280 180.00 1.11196 0.08
15 5 -5 o 1.051 1.073 0.00 1.11136 0.00
15 7 -4 o 0.064 0.064 180.00 1.11114 0.00
13 12 1 o 72.458 72.268 0.00 1.11077 0.12
20 3 -1 o 19.367 19.317 0.00 1.11077 0.03
8 3 8 o 112.375 105.029 180.00 1.10536 0.19
11 10 -5 o 606.812 579.905 180.00 1.10440 1.01
17 7 -2 o 361.957 350.927 180.00 1.10389 0.60
15 10 -1 o 1.428 1.388 180.00 1.10382 0.00
10 0 -8 o 2163.289 2219.132 180.00 1.10191 1.79
16 6 4 o 279.017 292.583 0.00 1.10075 0.46
0 0 9 o 6147.011 6485.924 0.00 1.10005 1.69
9 2 -8 o 0.305 0.320 180.00 1.09851 0.00
12 12 3 o 2.907 3.045 180.00 1.09832 0.00
9 7 -7 o 64.341 67.255 0.00 1.09815 0.11
13 8 5 o 40.379 41.853 180.00 1.09757 0.07
21 1 2 o 110.175 113.225 180.00 1.09707 0.18
16 9 1 o 1.442 1.480 0.00 1.09700 0.00
19 5 -1 o 27.566 28.293 0.00 1.09700 0.05
1 1 9 o 5.502 5.612 0.00 1.09666 0.01
11 8 6 o 4.285 4.289 180.00 1.09558 0.01
11 8 -6 o 2.861 2.864 0.00 1.09558 0.00
16 1 -6 o 1.836 1.838 0.00 1.09558 0.00
16 1 6 o 33.146 33.180 180.00 1.09558 0.05
17 8 0 o 33.248 32.856 180.00 1.09473 0.05
10 6 7 o 32.817 32.450 180.00 1.09477 0.05
14 0 -7 o 3553.171 3513.395 0.00 1.09477 2.91
22 0 1 o 189.012 184.496 180.00 1.09363 0.15
7 5 8 o 68.459 66.297 180.00 1.09178 0.11
13 2 -7 o 63.221 61.225 0.00 1.09143 0.10
18 1 5 o 233.004 225.938 0.00 1.09086 0.38
14 7 -5 o 5908.695 5729.503 0.00 1.09086 9.63
12 11 4 o 9.432 9.151 0.00 1.09065 0.02
13 12 -2 o 1.577 1.532 0.00 1.09037 0.00
20 3 2 o 42.953 41.727 0.00 1.09037 0.07
21 2 1 o 16.427 15.963 0.00 1.09030 0.03
3 0 -9 o 759.107 738.933 180.00 1.08997 0.62
3 0 9 o 728.405 709.046 0.00 1.08997 0.59
15 3 -6 o 28.829 28.256 0.00 1.08891 0.05
15 3 6 o 50.815 49.804 0.00 1.08891 0.08
8 4 -8 o 82.427 81.047 0.00 1.08847 0.13
15 9 3 o 42.833 42.174 180.00 1.08828 0.07
21 0 -3 o 5071.595 4993.583 0.00 1.08828 4.12
15 9 -3 o 2.136 2.103 0.00 1.08828 0.00
21 0 3 o 4464.544 4395.871 0.00 1.08828 3.62
20 0 -4 o 120.128 119.133 180.00 1.08735 0.10
2 2 9 o 211.907 211.278 0.00 1.08667 0.34
20 2 -3 o 152.533 154.119 0.00 1.08500 0.25
20 2 3 o 0.004 0.004 180.00 1.08500 0.00
17 3 5 o 6.905 7.025 180.00 1.08428 0.01
14 9 -4 o 56.411 57.511 0.00 1.08407 0.09
19 2 -4 o 31.353 31.964 180.00 1.08407 0.05
15 10 2 o 31.748 32.469 0.00 1.08380 0.05
12 4 -7 o 21.268 22.419 180.00 1.08158 0.03
20 4 1 o 2.498 2.675 0.00 1.08048 0.00
11 0 8 o 2506.396 2727.711 180.00 1.07870 2.01
14 1 7 o 32.946 35.904 0.00 1.07836 0.05
15 8 4 o 467.077 509.376 0.00 1.07761 0.75
16 9 -2 o 1.792 1.954 0.00 1.07734 0.00
19 5 2 o 31.283 34.103 0.00 1.07734 0.05
18 7 -1 o 609.836 664.726 180.00 1.07727 0.97
4 1 9 o 106.306 115.721 0.00 1.07695 0.17
4 1 -9 o 0.561 0.610 180.00 1.07695 0.00
14 5 -6 o 78.704 85.140 180.00 1.07593 0.13
14 5 6 o 1.017 1.100 180.00 1.07593 0.00
10 2 8 o 7.962 8.578 0.00 1.07550 0.01
19 4 3 o 46.438 49.944 180.00 1.07532 0.07
19 4 -3 o 1.240 1.334 180.00 1.07532 0.00
22 1 0 o 613.543 658.537 0.00 1.07512 0.98
13 13 0 o 66.909 71.816 0.00 1.07512 0.05
18 4 -4 o 84.228 89.713 0.00 1.07442 0.13
22 0 -2 o 0.246 0.261 180.00 1.07415 0.00
7 6 -8 o 36.599 38.272 0.00 1.07233 0.06
9 8 7 o 0.384 0.401 0.00 1.07199 0.00
13 3 7 o 48.609 50.739 0.00 1.07199 0.08
19 0 -5 o 322.039 335.492 180.00 1.07146 0.25
16 5 5 o 0.086 0.090 180.00 1.07146 0.00
21 2 -2 o 0.839 0.873 0.00 1.07099 0.00
3 3 9 o 44.724 46.475 180.00 1.07061 0.07
21 3 0 o 338.239 348.709 180.00 1.06881 0.53
12 10 5 o 175.165 179.785 180.00 1.06832 0.28
18 2 -5 o 78.034 80.092 0.00 1.06832 0.12
14 12 -1 o 12.248 12.488 0.00 1.06780 0.02
10 10 6 o 144.693 144.260 180.00 1.06649 0.23
9 4 8 o 41.423 40.954 0.00 1.06607 0.07
11 1 -8 o 31.083 30.731 180.00 1.06607 0.05
16 10 0 o 20.839 20.438 0.00 1.06570 0.03
11 6 -7 o 205.740 201.963 180.00 1.06574 0.32
13 9 -5 o 1.651 1.602 180.00 1.06522 0.00
20 1 4 o 11.632 11.238 180.00 1.06502 0.02
15 11 1 o 65.101 62.443 180.00 1.06469 0.10
19 6 1 o 50.465 48.405 0.00 1.06469 0.08
20 4 -2 o 206.043 188.142 180.00 1.06168 0.32
6 0 9 o 131.793 119.816 180.00 1.06131 0.10
6 0 -9 o 240.606 218.740 180.00 1.06131 0.19
10 3 -8 o 84.028 75.173 180.00 1.05992 0.13
18 6 3 o 29.153 26.024 0.00 1.05975 0.05
18 6 -3 o 277.064 247.333 180.00 1.05975 0.43
12 5 7 o 36.926 32.900 180.00 1.05960 0.06
17 4 -5 o 226.661 200.513 0.00 1.05908 0.35
19 3 4 o 87.006 76.760 180.00 1.05889 0.14
17 6 -4 o 17.328 15.287 180.00 1.05889 0.03
18 7 2 o 101.440 89.143 0.00 1.05863 0.16
5 2 -9 o 19.105 16.691 180.00 1.05826 0.03
5 2 9 o 73.694 64.383 180.00 1.05826 0.11
13 7 -6 o 0.171 0.147 0.00 1.05730 0.00
13 7 6 o 0.050 0.043 180.00 1.05730 0.00
14 11 -3 o 918.779 782.588 180.00 1.05672 1.42
14 11 3 o 374.977 319.394 0.00 1.05672 0.58
20 5 0 o 52.445 44.534 0.00 1.05653 0.08
9 5 -8 o 3.981 3.592 180.00 1.04794 0.01
15 7 5 o 271.509 225.687 180.00 1.05305 0.42
13 11 -4 o 3.257 2.711 180.00 1.05286 0.01
15 1 -7 o 3.639 3.302 180.00 1.04763 0.01
17 9 -1 o 23.786 19.852 0.00 1.05255 0.04
18 5 4 o 0.881 0.809 0.00 1.04694 0.00
15 11 -2 o 4.339 3.995 180.00 1.04669 0.01
19 6 -2 o 1.312 1.208 0.00 1.04669 0.00
23 0 -1 o 89.383 82.373 0.00 1.04663 0.07
8 6 8 o 47.977 40.987 0.00 1.05090 0.07
14 10 4 o 910.484 791.840 180.00 1.04989 1.40
10 8 -7 o 140.851 131.459 180.00 1.04469 0.21
14 12 2 o 61.982 54.165 180.00 1.04964 0.10
16 6 -5 o 70.422 65.572 0.00 1.04420 0.11
4 4 9 o 20.319 17.879 0.00 1.04928 0.03
22 2 -1 o 177.846 164.710 180.00 1.04371 0.27
18 8 1 o 98.878 91.574 0.00 1.04371 0.15
18 0 6 o 82.481 74.356 0.00 1.04249 0.06
18 0 -6 o 60.583 54.615 0.00 1.04249 0.05
12 1 8 o 5.336 4.751 0.00 1.04210 0.01
11 7 7 o 778.507 685.877 180.00 1.04179 1.18
14 3 -7 o 427.370 376.520 180.00 1.04179 0.65
7 1 9 o 36.917 30.981 180.00 1.04052 0.06
7 1 -9 o 228.701 191.927 180.00 1.04052 0.35
17 2 6 o 8.326 6.758 0.00 1.03960 0.01
17 2 -6 o 10.147 8.236 0.00 1.03960 0.02
17 8 -3 o 130.227 103.962 180.00 1.03905 0.20
17 8 3 o 20.439 16.317 0.00 1.03905 0.03
19 7 0 o 248.483 197.432 180.00 1.03887 0.37
16 8 -4 o 27.419 21.509 180.00 1.03824 0.04
11 3 8 o 169.925 133.197 0.00 1.03635 0.26
12 11 -5 o 124.530 99.221 0.00 1.03557 0.19
17 9 2 o 2.432 1.962 0.00 1.03514 0.00
21 4 -1 o 0.154 0.124 0.00 1.03508 0.00
6 3 9 o 25.441 20.762 0.00 1.03480 0.04
6 3 -9 o 11.292 9.216 180.00 1.03480 0.02
12 9 -6 o 98.637 83.476 180.00 1.03390 0.15
12 9 6 o 1.132 0.958 180.00 1.03390 0.00
15 12 0 o 66.492 58.216 0.00 1.03318 0.10
16 0 7 o 294.555 257.416 0.00 1.03321 0.22
20 0 5 o 166.917 149.469 180.00 1.03273 0.12
16 4 -6 o 0.101 0.099 180.00 1.03108 0.00
16 4 6 o 129.054 126.888 0.00 1.03108 0.19
8 7 -8 o 13.066 13.149 0.00 1.03070 0.02
13 0 -8 o 139.481 140.362 180.00 1.03070 0.10
13 5 -7 o 22.792 23.364 0.00 1.03040 0.03
15 2 7 o 0.576 0.591 180.00 1.03040 0.00
14 9 5 o 2.152 2.273 0.00 1.02993 0.00
19 2 5 o 210.185 222.029 180.00 1.02993 0.31
17 7 4 o 44.316 47.343 0.00 1.02975 0.07
23 0 2 o 164.183 178.072 0.00 1.02951 0.12
14 13 1 o 12.087 13.160 0.00 1.02945 0.02
12 2 -8 o 15.226 18.269 180.00 1.02791 0.02
18 8 -2 o 1.075 1.380 0.00 1.02673 0.00
22 2 2 o 11.562 14.835 180.00 1.02673 0.02
10 5 8 o 0.011 0.015 180.00 1.02514 0.00
15 8 -5 o 5.108 7.037 0.00 1.02438 0.01
21 1 -4 o 18.351 25.301 0.00 1.02420 0.03
23 1 1 o 19.332 26.641 180.00 1.02391 0.03
16 11 -1 o 61.313 84.495 0.00 1.02391 0.09
5 5 9 o 100.740 138.575 0.00 1.02364 0.15
13 13 3 o 15.907 21.238 0.00 1.02224 0.02
22 1 -3 o 5.137 6.858 180.00 1.02224 0.01
22 1 3 o 9.492 12.673 0.00 1.02224 0.01
14 4 7 o 182.524 242.669 0.00 1.02210 0.27
18 4 5 o 201.673 264.116 0.00 1.02164 0.30
20 6 -1 o 103.875 133.940 0.00 1.02118 0.15
11 4 -8 o 8.566 10.549 180.00 1.01967 0.01
10 9 7 o 6.631 8.109 180.00 1.01938 0.01
20 3 -4 o 28.088 33.899 180.00 1.01875 0.04
13 12 4 o 0.249 0.300 180.00 1.01875 0.00
21 4 2 o 37.208 44.726 0.00 1.01852 0.05
22 3 1 o 107.516 129.119 0.00 1.01846 0.16
17 10 1 o 18.707 22.466 180.00 1.01846 0.03
9 0 -9 o 16.387 19.596 180.00 1.01819 0.01
9 0 9 o 7.706 9.215 180.00 1.01819 0.01
15 6 -6 o 137.677 162.904 180.00 1.01733 0.20
15 6 6 o 30.642 36.257 180.00 1.01733 0.04
21 3 3 o 51.138 60.193 180.00 1.01682 0.07
21 3 -3 o 573.869 675.490 180.00 1.01682 0.84
18 9 0 o 16.637 19.552 0.00 1.01664 0.02
8 2 9 o 0.200 0.233 0.00 1.01550 0.00
8 2 -9 o 100.036 116.315 180.00 1.01550 0.15
16 10 -3 o 0.032 0.037 0.00 1.01414 0.00
16 10 3 o 25.309 29.024 180.00 1.01414 0.04
12 7 -7 o 39.466 45.192 0.00 1.01400 0.06
20 1 -5 o 98.220 111.895 180.00 1.01355 0.14
15 10 -4 o 0.469 0.533 180.00 1.01338 0.00
14 13 -2 o 4.987 5.655 180.00 1.01315 0.01
9 7 8 o 18.561 20.316 0.00 1.00898 0.03
24 0 0 o 9.610 10.501 180.00 1.00867 0.01
13 6 7 o 0.133 0.146 0.00 1.00871 0.00
19 3 -5 o 5.415 5.905 0.00 1.00826 0.01
17 6 5 o 26.456 28.848 180.00 1.00826 0.04
19 5 -4 o 9.614 10.474 180.00 1.00809 0.01
16 9 4 o 4.635 5.050 180.00 1.00809 0.01
23 1 -2 o 0.971 1.056 180.00 1.00787 0.00
16 11 2 o 73.926 80.434 0.00 1.00787 0.11
21 5 1 o 457.073 497.173 180.00 1.00781 0.66
7 4 9 o 103.101 111.968 0.00 1.00755 0.15
7 4 -9 o 537.283 583.495 180.00 1.00755 0.77
11 11 6 o 34.989 37.781 0.00 1.00672 0.05
10 6 -8 o 0.514 0.553 0.00 1.00637 0.00
14 0 8 o 11413.297 12287.898 0.00 1.00637 8.20
20 5 3 o 68.009 73.126 180.00 1.00622 0.10
20 5 -3 o 77.971 83.837 0.00 1.00622 0.11
23 2 0 o 0.624 0.670 180.00 1.00605 0.00
22 0 4 o 2.661 2.839 0.00 1.00548 0.00
20 6 2 o 80.023 85.171 0.00 1.00526 0.11
13 2 8 o 8.626 8.983 0.00 1.00377 0.01
17 0 -7 o 577.905 599.029 180.00 1.00349 0.41
13 11 5 o 6.312 6.494 0.00 1.00305 0.01
21 2 4 o 11.745 12.049 0.00 1.00289 0.02
17 10 -2 o 301.576 308.183 180.00 1.00267 0.43
22 3 -2 o 22.966 23.469 0.00 1.00267 0.03
19 8 -1 o 225.256 229.971 0.00 1.00262 0.32
16 2 -7 o 188.727 187.005 180.00 1.00092 0.27
14 10 -5 o 586.972 577.149 0.00 1.00048 0.84
14 8 -6 o 91.877 88.040 180.00 0.99897 0.13
14 8 6 o 2.593 2.485 180.00 0.99897 0.00
14 14 0 o 14548.246 13793.444 0.00 0.99833 10.33
22 4 0 o 19.635 18.617 180.00 0.99833 0.03
18 5 -5 o 88.402 83.301 0.00 0.99793 0.13
12 4 8 o 0.148 0.137 0.00 0.99609 0.00
20 4 4 o 64.375 59.242 180.00 0.99523 0.09
6 6 9 o 58.856 54.181 0.00 0.99471 0.08
14 1 -8 o 0.059 0.054 180.00 0.99357 0.00
11 9 -7 o 78.796 73.011 0.00 0.99330 0.11
15 4 -7 o 28.311 26.233 180.00 0.99330 0.04
18 7 -4 o 2.615 2.433 180.00 0.99272 0.00
21 5 -2 o 133.597 124.503 180.00 0.99251 0.19
20 7 1 o 159.894 149.072 180.00 0.99245 0.22
15 13 -1 o 3.884 3.622 180.00 0.99245 0.01
10 1 9 o 44.428 41.506 180.00 0.99220 0.06
10 1 -9 o 3.455 3.227 0.00 0.99220 0.00
19 1 6 o 55.129 51.801 0.00 0.99141 0.08
19 1 -6 o 127.217 119.538 0.00 0.99141 0.18
19 7 3 o 675.093 636.000 180.00 0.99093 0.95
19 7 -3 o 14.512 13.671 0.00 0.99093 0.02
17 11 0 o 706.775 666.358 180.00 0.99077 0.99
12 8 7 o 58.852 55.478 0.00 0.99080 0.08
16 8 5 o 157.798 148.990 180.00 0.99038 0.22
16 12 1 o 8.897 8.408 0.00 0.98996 0.01
1 0 10 o 3.183 3.009 180.00 0.98922 0.00
9 8 -8 o 3.227 3.051 180.00 0.98859 0.00
13 3 -8 o 36.905 34.896 180.00 0.98859 0.05
17 1 7 o 0.320 0.302 0.00 0.98832 0.00
19 8 2 o 145.466 137.943 0.00 0.98754 0.20
9 3 9 o 151.353 143.815 0.00 0.98724 0.21
9 3 -9 o 170.190 161.713 0.00 0.98724 0.24
2 0 -10 o 33.989 32.441 180.00 0.98675 0.02
18 3 -6 o 0.277 0.265 0.00 0.98645 0.00
18 3 6 o 54.427 52.116 0.00 0.98645 0.08
15 12 -3 o 202.293 194.971 0.00 0.98599 0.28
15 12 3 o 11.069 10.669 0.00 0.98599 0.02
21 6 0 o 6.221 6.010 180.00 0.98583 0.01
14 12 -4 o 188.044 183.366 180.00 0.98529 0.26
2 1 10 o 31.228 31.037 180.00 0.98430 0.04
11 6 8 o 19.193 19.301 180.00 0.98368 0.03
16 3 7 o 176.039 177.799 180.00 0.98342 0.24
17 7 -5 o 611.707 621.600 180.00 0.98301 0.85
15 11 4 o 67.392 68.606 180.00 0.98285 0.09
19 6 4 o 119.532 121.686 0.00 0.98285 0.17
24 1 -1 o 45.615 46.556 0.00 0.98259 0.06
14 6 -7 o 192.824 195.876 0.00 0.98099 0.27
18 10 -1 o 214.000 214.235 180.00 0.98017 0.30
3 1 -10 o 9.226 9.101 0.00 0.97945 0.01
12 5 -8 o 3.930 3.837 180.00 0.97884 0.01
21 1 5 o 1.644 1.593 180.00 0.97818 0.00
15 13 2 o 183.493 177.575 180.00 0.97782 0.25
20 7 -2 o 1.604 1.553 180.00 0.97782 0.00
23 3 -1 o 9.156 8.859 0.00 0.97777 0.01
8 5 -9 o 0.599 0.580 0.00 0.97753 0.00
8 5 9 o 99.908 96.659 0.00 0.97753 0.14
4 0 10 o 5.115 4.956 0.00 0.97706 0.00
17 5 6 o 4.078 3.959 180.00 0.97677 0.01
17 5 -6 o 39.046 37.903 180.00 0.97677 0.05
13 10 6 o 47.974 46.569 0.00 0.97677 0.07
13 10 -6 o 2.345 2.277 180.00 0.97677 0.00
16 12 -2 o 48.040 47.281 180.00 0.97544 0.07
3 2 10 o 2.879 2.857 0.00 0.97468 0.00
15 5 7 o 2.978 2.974 180.00 0.97382 0.00
20 3 5 o 6.426 6.422 0.00 0.97342 0.01
13 12 -5 o 156.761 156.678 0.00 0.97342 0.21
17 9 -4 o 0.203 0.203 180.00 0.97327 0.00
19 9 1 o 226.155 225.883 180.00 0.97302 0.31
18 9 3 o 57.746 56.849 180.00 0.97159 0.08
18 9 -3 o 113.468 111.706 0.00 0.97159 0.15
5 0 -10 o 65.907 63.402 0.00 0.96997 0.04
15 1 8 o 80.891 77.414 0.00 0.96938 0.11
20 8 0 o 12.738 12.177 0.00 0.96910 0.02
11 10 7 o 7.700 7.362 180.00 0.96913 0.01
15 10 5 o 128.768 123.090 0.00 0.96874 0.17
23 0 -4 o 12.214 11.681 0.00 0.96859 0.01
24 1 2 o 0.718 0.687 180.00 0.96839 0.00
22 5 -1 o 22.868 21.898 0.00 0.96834 0.03
4 2 -10 o 51.568 49.805 0.00 0.96764 0.07
10 8 8 o 35.654 34.845 180.00 0.96705 0.05
18 8 4 o 61.353 61.193 0.00 0.96627 0.08
22 2 -4 o 36.505 36.410 180.00 0.96627 0.05
18 10 2 o 25.513 25.582 0.00 0.96607 0.03
12 0 -9 o 183.014 184.994 180.00 0.96579 0.12
12 0 9 o 21.014 21.241 180.00 0.96579 0.01
5 1 10 o 12.312 12.602 0.00 0.96533 0.02
14 3 8 o 1781.200 1850.066 180.00 0.96475 2.40
11 7 -8 o 237.441 246.621 0.00 0.96475 0.32
24 0 3 o 898.729 936.136 180.00 0.96462 0.61
24 0 -3 o 99.159 103.286 180.00 0.96462 0.07
13 8 -7 o 68.672 71.698 0.00 0.96450 0.09
19 5 5 o 47.086 49.521 0.00 0.96411 0.06
16 9 -5 o 74.971 78.848 0.00 0.96411 0.10
23 3 2 o 34.499 36.463 180.00 0.96377 0.05
25 0 1 o 147.861 156.373 0.00 0.96373 0.10
11 2 9 o 41.423 43.918 0.00 0.96349 0.06
11 2 -9 o 164.456 174.363 0.00 0.96349 0.22
7 7 9 o 4419.284 4685.511 0.00 0.96349 5.95
16 7 6 o 90.240 96.057 0.00 0.96277 0.12
16 7 -6 o 82.481 87.797 0.00 0.96277 0.11
23 2 -3 o 66.828 71.106 180.00 0.96233 0.09
23 2 3 o 9.117 9.700 180.00 0.96233 0.01
16 13 0 o 322.429 342.837 0.00 0.96219 0.43
22 0 -5 o 6.434 6.825 0.00 0.96183 0.00
24 2 1 o 2.999 3.169 0.00 0.96144 0.00
4 3 10 o 13.351 13.974 0.00 0.96076 0.02
14 7 7 o 2852.977 2945.030 0.00 0.95994 3.82
18 1 -7 o 28.400 29.317 180.00 0.95994 0.04
21 2 -5 o 0.586 0.601 180.00 0.95956 0.00
21 4 -4 o 1267.386 1295.323 180.00 0.95942 1.70
19 9 -2 o 114.798 116.920 180.00 0.95922 0.15
15 14 1 o 126.225 128.445 180.00 0.95918 0.17
16 0 -8 o 0.839 0.837 0.00 0.95793 0.00
10 4 -9 o 497.940 492.057 0.00 0.95670 0.66
10 4 9 o 728.696 720.086 180.00 0.95670 0.97
6 1 -10 o 0.015 0.015 0.00 0.95625 0.00
15 2 -8 o 13.685 13.509 180.00 0.95568 0.02
13 5 8 o 21.263 20.990 180.00 0.95568 0.03
22 4 3 o 0.690 0.681 0.00 0.95556 0.00
22 4 -3 o 68.331 67.465 180.00 0.95556 0.09
14 14 3 o 3953.990 3903.905 0.00 0.95556 5.26
17 3 -7 o 45.043 44.481 180.00 0.95545 0.06
14 13 4 o 45.515 45.015 180.00 0.95493 0.06
22 5 2 o 123.965 122.684 0.00 0.95474 0.16
17 12 -1 o 107.989 106.891 180.00 0.95469 0.14
21 7 -1 o 4120.892 4078.995 0.00 0.95469 5.48
23 4 1 o 0.270 0.267 0.00 0.95469 0.00
20 4 -5 o 140.856 139.956 180.00 0.95285 0.19
7 0 10 o 233.000 229.905 0.00 0.95181 0.15
5 3 -10 o 3.414 3.369 0.00 0.95181 0.00
12 12 6 o 42.077 41.365 0.00 0.95154 0.06
18 7 5 o 20.795 20.054 180.00 0.95064 0.03
16 11 -4 o 3.551 3.412 180.00 0.95050 0.00
23 1 4 o 74.455 71.531 180.00 0.95050 0.10
25 0 -2 o 55.386 52.932 0.00 0.95031 0.04
18 11 1 o 185.353 176.898 0.00 0.95027 0.24
6 2 10 o 9.473 8.858 0.00 0.94961 0.01
14 4 -8 o 2393.861 2198.838 180.00 0.94905 3.16
17 11 -3 o 244.056 223.339 180.00 0.94893 0.32
17 11 3 o 135.933 124.394 180.00 0.94893 0.18
25 1 0 o 2.684 2.446 0.00 0.94879 0.00
19 10 0 o 75.258 68.585 180.00 0.94879 0.10
20 6 -4 o 38.654 34.775 0.00 0.94831 0.05
24 2 -2 o 28.846 25.841 0.00 0.94812 0.04
10 9 -8 o 2.959 2.610 180.00 0.94687 0.00
16 5 -7 o 97.702 86.180 0.00 0.94664 0.13
19 0 7 o 449.388 396.393 180.00 0.94664 0.30
17 10 4 o 0.042 0.037 0.00 0.94613 0.00
22 3 4 o 40.258 35.599 0.00 0.94613 0.05
15 14 -2 o 23.690 20.985 180.00 0.94595 0.03
9 6 9 o 11.867 10.544 180.00 0.94569 0.02
9 6 -9 o 27.910 24.797 0.00 0.94569 0.04
15 9 -6 o 69.883 62.723 180.00 0.94500 0.09
15 9 6 o 1.846 1.657 180.00 0.94500 0.00
21 0 6 o 388.471 348.671 0.00 0.94500 0.25
21 0 -6 o 317.839 285.276 0.00 0.94500 0.21
21 6 -3 o 51.069 46.136 0.00 0.94459 0.07
21 6 3 o 101.995 92.142 180.00 0.94459 0.13
24 3 0 o 10.807 9.783 0.00 0.94445 0.01
12 10 -7 o 5.260 4.760 180.00 0.94448 0.01
18 2 7 o 185.953 168.261 180.00 0.94448 0.24
14 12 5 o 394.834 359.044 180.00 0.94411 0.52
22 6 1 o 18.267 16.674 180.00 0.94375 0.02
5 4 10 o 0.165 0.151 180.00 0.94310 0.00
20 2 -6 o 18.962 17.367 0.00 0.94284 0.02
20 2 6 o 30.498 27.933 0.00 0.94284 0.04
12 7 8 o 173.555 158.829 180.00 0.94255 0.23
13 9 7 o 3.637 3.324 180.00 0.94233 0.00
15 11 -5 o 165.690 150.969 0.00 0.94196 0.22
19 6 -5 o 5.861 5.340 0.00 0.94196 0.01
23 4 -2 o 14.190 12.882 0.00 0.94165 0.02
21 7 2 o 478.225 434.149 0.00 0.94165 0.62
17 12 2 o 12.765 11.589 180.00 0.94165 0.02
8 0 -10 o 2.577 2.316 0.00 0.94096 0.00
7 2 -10 o 94.606 81.950 0.00 0.93884 0.12
13 6 -8 o 0.618 0.529 0.00 0.93830 0.00
17 4 7 o 430.486 367.297 180.00 0.93807 0.56
21 5 4 o 64.162 54.118 180.00 0.93758 0.08
18 11 -2 o 7.864 6.603 0.00 0.93740 0.01
20 9 -1 o 7.174 6.017 0.00 0.93736 0.01
13 1 -9 o 67.428 56.238 180.00 0.93714 0.09
13 1 9 o 125.851 104.965 180.00 0.93714 0.16
19 4 6 o 68.566 56.178 180.00 0.93647 0.09
19 4 -6 o 5.074 4.157 0.00 0.93647 0.01
23 5 0 o 25.308 20.468 0.00 0.93594 0.03
8 1 10 o 4.967 3.946 180.00 0.93463 0.01
17 0 8 o 310.232 246.891 0.00 0.93410 0.20
15 7 -7 o 3.906 3.116 0.00 0.93388 0.01
17 9 5 o 75.526 60.640 0.00 0.93352 0.10
19 8 -4 o 23.859 19.215 0.00 0.93339 0.03
21 8 1 o 2.523 2.528 0.00 0.92904 0.00
12 3 9 o 132.482 108.099 180.00 0.93296 0.17
12 3 -9 o 21.243 17.333 0.00 0.93296 0.03
6 4 -10 o 42.689 35.347 180.00 0.93255 0.05
16 2 8 o 0.396 0.335 180.00 0.93202 0.00
15 15 0 o 856.999 733.409 0.00 0.93177 0.55
16 6 7 o 21.643 23.607 0.00 0.92768 0.03
18 8 -5 o 28.191 31.267 180.00 0.92734 0.04
22 2 5 o 17.334 19.226 180.00 0.92734 0.02
22 6 -2 o 301.395 266.023 180.00 0.93114 0.39
16 14 -1 o 67.962 76.409 0.00 0.92699 0.09
26 0 -1 o 502.527 564.984 180.00 0.92699 0.32
8 8 9 o 1.175 1.050 180.00 0.93089 0.00
7 3 10 o 10.747 9.825 180.00 0.93048 0.01
18 6 -6 o 18.585 21.258 0.00 0.92614 0.02
18 6 6 o 57.204 65.429 180.00 0.92614 0.07
15 4 8 o 71.886 82.204 180.00 0.92586 0.09
11 9 8 o 13.039 14.910 180.00 0.92586 0.02
20 8 3 o 88.625 84.179 180.00 0.92984 0.11
20 8 -3 o 10.524 9.997 0.00 0.92984 0.01
18 12 0 o 13.494 15.392 0.00 0.92562 0.02
23 0 5 o 15.333 15.000 0.00 0.92938 0.01
15 13 -4 o 22.778 25.714 0.00 0.92517 0.03
20 7 4 o 0.479 0.540 0.00 0.92517 0.00
20 9 2 o 0.254 0.285 180.00 0.92500 0.00
17 13 1 o 0.581 0.651 0.00 0.92496 0.00
25 2 -1 o 0.275 0.308 0.00 0.92496 0.00
11 5 9 o 192.446 213.902 0.00 0.92475 0.24
11 5 -9 o 169.667 188.581 0.00 0.92475 0.22
14 11 6 o 39.310 42.343 0.00 0.92411 0.05
14 11 -6 o 6.828 7.354 0.00 0.92411 0.01
12 8 -8 o 0.301 0.319 180.00 0.92384 0.00
16 13 3 o 52.244 55.102 0.00 0.92372 0.07
16 13 -3 o 0.452 0.477 180.00 0.92372 0.00
22 7 0 o 0.168 0.176 180.00 0.92360 0.00
16 12 4 o 1.726 1.765 180.00 0.92315 0.00
9 1 -10 o 18.650 18.380 0.00 0.92234 0.02
6 5 10 o 0.876 0.863 180.00 0.92234 0.00
17 1 -8 o 217.697 211.118 180.00 0.92183 0.28
12 11 7 o 241.607 233.121 180.00 0.92161 0.31
21 4 5 o 60.820 58.323 180.00 0.92127 0.08
20 0 -7 o 20.576 19.497 180.00 0.91962 0.01
24 4 -1 o 7.047 6.660 0.00 0.91894 0.01
8 3 -10 o 7.181 6.766 0.00 0.91835 0.01
16 3 -8 o 46.372 43.518 0.00 0.91784 0.06
19 2 -7 o 266.611 249.686 180.00 0.91763 0.34
14 9 -7 o 216.276 202.547 0.00 0.91763 0.27
14 13 -5 o 115.913 108.160 180.00 0.91730 0.15
24 1 -4 o 103.211 96.171 180.00 0.91717 0.13
21 8 -2 o 138.078 128.413 180.00 0.91700 0.17
19 11 -1 o 4.559 4.238 0.00 0.91696 0.01
10 0 10 o 1.127 1.042 0.00 0.91637 0.00
14 6 8 o 54.113 49.935 180.00 0.91587 0.07
18 10 -4 o 1320.722 1225.506 180.00 0.91520 1.66
26 0 2 o 47.242 43.969 180.00 0.91504 0.03
16 14 2 o 78.580 73.135 0.00 0.91504 0.10
9 2 10 o 18.512 17.544 0.00 0.91441 0.02
15 8 7 o 0.823 0.805 0.00 0.91370 0.00
23 1 -5 o 21.864 21.748 180.00 0.91337 0.03
16 11 5 o 63.902 63.561 0.00 0.91337 0.08
23 3 -4 o 53.912 53.989 0.00 0.91325 0.07
17 13 -2 o 7.884 7.967 0.00 0.91308 0.01
25 2 2 o 12.053 12.180 0.00 0.91308 0.02
10 7 9 o 1145.565 1173.369 0.00 0.91284 1.43
10 7 -9 o 537.667 550.716 180.00 0.91284 0.67
17 8 6 o 0.709 0.751 0.00 0.91222 0.00
17 8 -6 o 44.927 47.640 0.00 0.91222 0.06
25 1 -3 o 3.369 3.644 0.00 0.91185 0.00
25 1 3 o 48.633 52.598 180.00 0.91185 0.06
19 10 3 o 2.677 2.895 180.00 0.91185 0.00
19 10 -3 o 31.259 33.808 180.00 0.91185 0.04
18 4 -7 o 4.641 5.044 180.00 0.91176 0.01
20 6 5 o 107.226 118.400 0.00 0.91143 0.13
20 10 1 o 17.127 19.177 180.00 0.91110 0.02
7 5 -10 o 49.865 56.912 180.00 0.91052 0.06
15 5 -8 o 13.111 15.108 0.00 0.91003 0.02
17 10 -5 o 21.039 24.303 180.00 0.90949 0.03
22 3 -5 o 53.160 61.407 0.00 0.90949 0.07
19 9 4 o 1.267 1.463 180.00 0.90937 0.00
26 1 1 o 66.936 77.141 0.00 0.90917 0.08
23 6 -1 o 38.576 44.457 0.00 0.90917 0.05
15 0 9 o 161.412 185.536 180.00 0.90897 0.10
15 0 -9 o 3.920 4.506 180.00 0.90897 0.00
8 4 10 o 3.390 3.868 180.00 0.90859 0.00
24 3 3 o 113.524 127.538 180.00 0.90800 0.14
24 3 -3 o 7.588 8.525 180.00 0.90800 0.01
21 9 0 o 43.868 49.111 0.00 0.90787 0.05
24 4 2 o 23.232 25.570 180.00 0.90729 0.03
14 2 -9 o 12.742 13.936 180.00 0.90706 0.02
14 2 9 o 9.470 10.357 180.00 0.90706 0.01
11 10 -8 o 1721.004 1847.573 180.00 0.90619 2.13
20 1 7 o 20.164 21.587 180.00 0.90599 0.02
22 5 -4 o 52.071 55.528 0.00 0.90555 0.06
19 11 2 o 60.601 64.578 180.00 0.90539 0.07
25 3 1 o 162.146 172.766 180.00 0.90534 0.20
11 0 -10 o 17.300 18.632 0.00 0.90289 0.01
13 8 8 o 1.944 2.096 180.00 0.90241 0.00
19 3 7 o 0.209 0.225 0.00 0.90221 0.00
17 6 -7 o 31.411 33.855 0.00 0.90221 0.04
21 5 -5 o 0.173 0.186 0.00 0.90189 0.00
25 0 4 o 1014.021 1091.437 180.00 0.90177 0.62
13 4 -9 o 98.908 106.219 180.00 0.90138 0.12
13 4 9 o 9.828 10.554 180.00 0.90138 0.01
10 2 -10 o 1.365 1.461 0.00 0.90101 0.00
13 13 6 o 67.470 72.050 0.00 0.90078 0.08
22 1 -6 o 212.285 226.695 180.00 0.90078 0.26
22 1 6 o 194.439 207.637 180.00 0.90078 0.24
23 5 3 o 29.337 31.207 180.00 0.90043 0.04
23 5 -3 o 38.553 41.009 0.00 0.90043 0.05
17 14 0 o 48.509 51.528 180.00 0.90031 0.06
24 2 4 o 9.222 9.751 0.00 0.89990 0.01
20 10 -2 o 2.572 2.715 0.00 0.89974 0.00
1 0 -11 o 252.326 265.452 0.00 0.89942 0.15
7 6 10 o 0.020 0.021 0.00 0.89914 0.00
18 1 8 o 142.398 148.733 0.00 0.89867 0.17
14 7 -8 o 8565.162 8946.229 0.00 0.89867 10.49
13 11 -7 o 0.129 0.135 0.00 0.89847 0.00
19 8 5 o 47.820 49.709 0.00 0.89816 0.06
15 14 4 o 7.439 7.724 0.00 0.89804 0.01
23 6 2 o 246.156 255.184 180.00 0.89788 0.30
26 1 -2 o 150.764 156.293 0.00 0.89788 0.18
24 5 1 o 11.262 11.671 180.00 0.89784 0.01
16 15 1 o 93.835 97.238 180.00 0.89784 0.11
9 9 9 o 190.402 196.930 0.00 0.89765 0.23
2 0 11 o 202.869 209.612 0.00 0.89756 0.12
21 3 6 o 86.855 89.218 180.00 0.89707 0.11
21 3 -6 o 0.085 0.087 180.00 0.89707 0.00
15 15 3 o 0.750 0.767 180.00 0.89671 0.00
27 0 0 o 5.762 5.883 180.00 0.89660 0.00
14 10 7 o 459.781 469.588 180.00 0.89662 0.56
22 8 -1 o 5.378 5.447 0.00 0.89599 0.01
2 1 -11 o 15.413 15.561 0.00 0.89572 0.02
11 1 10 o 8.883 8.942 0.00 0.89544 0.01
9 4 -10 o 7.214 7.262 180.00 0.89544 0.01
16 10 -6 o 2.743 2.756 0.00 0.89522 0.00
16 10 6 o 11.542 11.596 180.00 0.89522 0.01
17 3 8 o 90.879 91.139 180.00 0.89498 0.11
26 2 0 o 34.143 34.210 180.00 0.89476 0.04
18 5 7 o 29.143 29.202 180.00 0.89478 0.04
21 7 -4 o 10072.460 10089.790 0.00 0.89435 12.26
17 12 -4 o 84.415 84.560 180.00 0.89435 0.10
23 4 4 o 0.001 0.001 0.00 0.89435 0.00
25 3 -2 o 0.888 0.890 0.00 0.89420 0.00
18 13 -1 o 39.606 39.706 0.00 0.89416 0.05
12 6 9 o 279.147 291.347 0.00 0.89215 0.34
12 6 -9 o 14.249 14.872 0.00 0.89215 0.02
3 1 11 o 41.284 43.215 180.00 0.89206 0.05
10 3 10 o 11.972 12.641 180.00 0.89179 0.01
18 12 3 o 4.519 4.859 180.00 0.89123 0.01
18 12 -3 o 66.116 71.089 180.00 0.89123 0.08
20 7 -5 o 0.058 0.063 0.00 0.89083 0.00
15 13 5 o 21.439 23.324 180.00 0.89083 0.03
18 11 4 o 219.584 239.621 0.00 0.89071 0.27
19 12 1 o 18.314 20.080 0.00 0.89052 0.02
4 0 -11 o 63.757 70.309 0.00 0.89025 0.04
20 5 -6 o 52.705 58.527 0.00 0.88977 0.06
20 5 6 o 2.024 2.248 0.00 0.88977 0.00
22 7 3 o 73.543 81.861 0.00 0.88942 0.09
22 7 -3 o 47.174 52.509 180.00 0.88942 0.06
25 4 0 o 234.004 260.517 0.00 0.88931 0.28
20 11 0 o 0.250 0.279 180.00 0.88931 0.00
16 8 -7 o 2.197 2.446 0.00 0.88933 0.00
16 12 -5 o 61.281 68.179 180.00 0.88903 0.07
3 2 -11 o 134.840 149.089 180.00 0.88845 0.16
19 0 -8 o 105.174 114.574 180.00 0.88773 0.06
16 5 8 o 7.381 8.040 180.00 0.88773 0.01
16 15 -2 o 12.250 13.082 180.00 0.88697 0.01
24 5 -2 o 23.058 24.624 180.00 0.88697 0.03
23 7 1 o 39.420 42.052 0.00 0.88693 0.05
8 6 -10 o 15.723 16.522 180.00 0.88639 0.02
12 10 8 o 48.760 50.553 180.00 0.88594 0.06
18 2 -8 o 95.016 98.510 0.00 0.88594 0.11
22 6 4 o 40.391 41.130 0.00 0.88534 0.05
22 8 2 o 589.477 597.550 180.00 0.88519 0.71
5 0 11 o 32.000 32.143 180.00 0.88488 0.02
9 5 10 o 25.268 25.184 180.00 0.88462 0.03
13 9 -8 o 27.712 27.262 0.00 0.88417 0.03
17 7 7 o 666.584 652.308 180.00 0.88398 0.80
24 1 5 o 92.048 89.345 180.00 0.88368 0.11
18 13 2 o 47.822 46.107 180.00 0.88342 0.06
4 2 11 o 52.849 50.595 180.00 0.88311 0.06
18 10 5 o 2.064 1.941 0.00 0.88192 0.00
5 1 -11 o 8.183 7.683 180.00 0.88135 0.01
12 1 -10 o 68.509 64.357 0.00 0.88109 0.08
17 4 -8 o 23.218 21.862 0.00 0.88065 0.03
24 6 0 o 58.221 54.901 180.00 0.88044 0.07
21 1 -7 o 0.000 0.000 0.00 0.88046 0.00
23 3 5 o 26.089 24.655 0.00 0.88017 0.03
20 9 -4 o 117.177 110.816 0.00 0.88006 0.14
19 12 -2 o 89.865 85.084 0.00 0.87991 0.11
21 10 -1 o 37.183 35.214 0.00 0.87987 0.04
11 8 -9 o 18.601 17.638 180.00 0.87969 0.02
16 1 9 o 107.219 101.668 180.00 0.87969 0.13
16 1 -9 o 4.866 4.614 180.00 0.87969 0.01
11 8 9 o 229.942 218.037 0.00 0.87969 0.27
19 7 6 o 48.362 45.974 180.00 0.87914 0.06
19 7 -6 o 4.928 4.684 180.00 0.87914 0.01
4 3 -11 o 593.814 562.176 180.00 0.87787 0.71
11 3 -10 o 7.254 6.851 180.00 0.87761 0.01
15 7 8 o 1.790 1.682 0.00 0.87717 0.00
20 3 -7 o 62.425 58.513 180.00 0.87699 0.07
13 12 7 o 110.475 103.551 180.00 0.87699 0.13
19 9 -5 o 0.004 0.004 0.00 0.87670 0.00
23 7 -2 o 187.477 174.345 0.00 0.87644 0.22
27 1 -1 o 101.546 94.381 180.00 0.87640 0.12
15 3 -9 o 15.057 13.956 0.00 0.87623 0.02
15 3 9 o 103.099 95.559 0.00 0.87623 0.12
15 12 -6 o 84.829 77.919 0.00 0.87568 0.10
15 12 6 o 184.673 169.629 0.00 0.87568 0.22
21 9 3 o 9.411 8.597 0.00 0.87535 0.01
21 9 -3 o 129.751 118.538 0.00 0.87535 0.15
6 1 11 o 33.614 30.246 0.00 0.87443 0.04
8 7 10 o 14.031 12.577 180.00 0.87417 0.02
13 0 10 o 0.678 0.608 0.00 0.87417 0.00
16 16 0 o 1.877 1.669 180.00 0.87353 0.00
15 10 -7 o 0.004 0.004 180.00 0.87356 0.00
22 5 5 o 195.977 173.922 0.00 0.87327 0.23
21 8 4 o 7.359 6.526 0.00 0.87316 0.01
22 9 1 o 1.577 1.397 180.00 0.87298 0.00
26 3 -1 o 0.955 0.846 180.00 0.87298 0.00
12 2 10 o 22.570 20.000 0.00 0.87247 0.03
16 6 -8 o 113.198 100.608 0.00 0.87204 0.13
26 0 -4 o 224.155 200.879 180.00 0.87146 0.13
16 14 -4 o 5.363 4.806 0.00 0.87146 0.01
5 3 11 o 1.007 0.911 180.00 0.87102 0.00
7 0 -11 o 1777.724 1607.953 0.00 0.87102 1.05
10 5 -10 o 43.088 39.223 180.00 0.87077 0.05
16 9 7 o 85.544 79.277 180.00 0.87016 0.10
19 5 -7 o 43.502 40.315 180.00 0.87016 0.05
25 0 -5 o 259.439 242.626 180.00 0.86988 0.15
25 2 -4 o 64.886 60.893 0.00 0.86977 0.08
17 13 4 o 100.501 94.317 180.00 0.86977 0.12
21 10 2 o 165.402 155.950 180.00 0.86963 0.19
17 15 -1 o 56.081 52.937 0.00 0.86959 0.07
14 5 -9 o 19.349 18.366 180.00 0.86942 0.02
14 5 9 o 193.573 183.743 180.00 0.86942 0.23
6 2 -11 o 6.145 5.849 0.00 0.86934 0.01
17 14 -3 o 95.933 93.463 180.00 0.86857 0.11
17 14 3 o 700.069 682.050 180.00 0.86857 0.82
23 8 0 o 35.604 34.787 180.00 0.86846 0.04
19 13 0 o 11.913 11.640 0.00 0.86846 0.01
22 0 7 o 109.909 107.326 0.00 0.86848 0.06
24 2 -5 o 75.409 74.165 0.00 0.86820 0.09
18 14 1 o 59.476 58.869 0.00 0.86791 0.07
11 4 10 o 42.732 42.680 0.00 0.86741 0.05
12 11 -8 o 13.722 13.782 0.00 0.86699 0.02
21 2 7 o 0.206 0.208 180.00 0.86681 0.00
15 14 -5 o 2.975 3.000 0.00 0.86653 0.00
27 1 2 o 94.492 95.407 180.00 0.86628 0.11
25 5 -1 o 4.820 4.867 0.00 0.86625 0.01
18 9 6 o 0.707 0.714 0.00 0.86555 0.00
18 9 -6 o 163.000 164.643 0.00 0.86555 0.19
20 0 8 o 38.878 39.242 0.00 0.86532 0.02
27 0 3 o 46.941 47.365 0.00 0.86523 0.03
27 0 -3 o 98.489 99.379 180.00 0.86523 0.06
24 4 -4 o 101.976 102.678 180.00 0.86476 0.12
10 10 9 o 32.342 32.507 180.00 0.86442 0.04
5 4 -11 o 70.138 70.465 180.00 0.86434 0.08
19 2 8 o 18.820 18.844 180.00 0.86367 0.02
14 9 8 o 2.573 2.576 180.00 0.86367 0.00
26 2 -3 o 441.400 441.753 180.00 0.86358 0.51
26 2 3 o 16.215 16.228 0.00 0.86358 0.02
23 4 -5 o 5.291 5.286 0.00 0.86322 0.01
17 12 5 o 25.662 25.639 180.00 0.86322 0.03
21 7 5 o 3874.339 3870.890 0.00 0.86322 4.51
19 11 -4 o 31.008 30.964 0.00 0.86311 0.04
22 9 -2 o 38.761 38.677 180.00 0.86297 0.05
26 3 2 o 2.611 2.606 180.00 0.86297 0.00
8 0 11 o 59.387 59.172 0.00 0.86269 0.03
20 4 7 o 126.356 125.232 180.00 0.86185 0.15
28 0 1 o 4221.796 4164.262 0.00 0.86130 2.45
20 12 -1 o 11.700 11.541 0.00 0.86130 0.01
7 2 11 o 0.205 0.202 0.00 0.86105 0.00
9 7 -10 o 6.916 6.787 0.00 0.86081 0.01
24 0 -6 o 231.169 226.383 180.00 0.86061 0.13
24 0 6 o 124.162 121.591 180.00 0.86061 0.07
15 8 -8 o 144.370 141.035 0.00 0.86039 0.17
18 7 -7 o 619.480 604.004 0.00 0.86022 0.72
18 11 -5 o 252.388 245.348 0.00 0.85994 0.29
17 15 2 o 22.149 21.477 0.00 0.85970 0.03
27 2 1 o 150.445 145.829 0.00 0.85967 0.17
13 7 9 o 54.141 52.394 180.00 0.85950 0.06
13 7 -9 o 54.612 52.849 180.00 0.85950 0.06
14 0 -10 o 319.403 308.200 0.00 0.85918 0.18
10 6 10 o 20.186 19.478 180.00 0.85918 0.02
23 2 6 o 20.650 19.897 0.00 0.85899 0.02
23 2 -6 o 7.392 7.123 180.00 0.85899 0.01
18 4 8 o 1.869 1.798 0.00 0.85877 0.00
25 4 -3 o 37.756 36.305 0.00 0.85868 0.04
25 4 3 o 8.871 8.530 0.00 0.85868 0.01
20 11 3 o 139.316 133.963 180.00 0.85868 0.16
20 11 -3 o 12.454 11.975 0.00 0.85868 0.01
20 10 4 o 7.304 7.008 180.00 0.85822 0.01
18 14 -2 o 19.017 18.240 0.00 0.85808 0.02
8 1 -11 o 0.001 0.001 0.00 0.85780 0.00
13 2 -10 o 5.262 5.041 0.00 0.85756 0.01
25 3 4 o 100.005 91.100 180.00 0.85340 0.11
23 6 -4 o 387.634 370.454 0.00 0.85660 0.45
26 1 4 o 62.478 59.709 0.00 0.85660 0.07
25 5 2 o 1.638 1.564 180.00 0.85647 0.00
21 11 1 o 414.507 395.687 180.00 0.85643 0.48
24 7 -1 o 604.162 576.731 180.00 0.85643 0.70
12 4 -10 o 23.539 21.298 0.00 0.85276 0.03
6 4 11 o 81.798 77.946 180.00 0.85619 0.09
14 12 -7 o 468.853 442.018 180.00 0.85537 0.54
20 12 2 o 5.691 5.116 0.00 0.85168 0.01
28 0 -2 o 596.602 536.320 0.00 0.85168 0.34
22 6 -5 o 12.768 11.980 180.00 0.85510 0.01
18 0 -9 o 0.705 0.633 180.00 0.85149 0.00
18 0 9 o 454.302 408.123 180.00 0.85149 0.26
26 4 1 o 0.000 0.000 180.00 0.85483 0.00
14 1 10 o 0.185 0.166 0.00 0.85118 0.00
7 3 -11 o 49.234 45.759 180.00 0.85459 0.06
17 6 8 o 84.561 75.826 180.00 0.85077 0.10
19 3 -8 o 6.398 5.737 0.00 0.85077 0.01
22 4 -6 o 15.823 14.590 180.00 0.85416 0.02
22 4 6 o 0.705 0.650 0.00 0.85416 0.00
14 14 6 o 485.685 447.834 0.00 0.85416 0.56
24 6 3 o 51.998 46.616 180.00 0.85069 0.06
24 6 -3 o 7.985 7.158 0.00 0.85069 0.01
20 1 -8 o 32.514 29.869 0.00 0.85394 0.04
20 9 5 o 130.289 116.665 0.00 0.85034 0.15
22 10 0 o 21.010 19.240 0.00 0.85375 0.02
15 11 7 o 1.800 1.649 180.00 0.85377 0.00
19 6 7 o 10.008 9.168 180.00 0.85377 0.01
27 2 -2 o 58.562 52.388 0.00 0.85011 0.07
17 2 9 o 135.310 120.932 0.00 0.84991 0.15
17 2 -9 o 116.568 104.182 0.00 0.84991 0.13
17 11 6 o 41.952 37.380 180.00 0.84941 0.05
17 11 -6 o 51.662 46.032 0.00 0.84941 0.06
28 1 0 o 49.363 43.855 0.00 0.84902 0.06
6 5 -11 o 7.271 6.426 0.00 0.84827 0.01
9 1 11 o 1.412 1.247 180.00 0.84827 0.00
13 3 10 o 123.692 109.175 0.00 0.84804 0.14
9 8 10 o 57.624 50.861 180.00 0.84804 0.07
13 11 8 o 219.787 193.759 180.00 0.84764 0.25
17 9 -7 o 82.751 72.945 180.00 0.84747 0.09
24 5 4 o 51.738 45.640 180.00 0.84711 0.06
16 15 4 o 32.657 28.808 180.00 0.84711 0.04
21 11 -2 o 0.902 0.796 0.00 0.84698 0.00
24 7 2 o 361.564 319.134 180.00 0.84698 0.41
25 6 1 o 142.236 125.566 180.00 0.84695 0.16
12 9 9 o 98.165 86.745 180.00 0.84679 0.11
12 9 -9 o 16.068 14.199 180.00 0.84679 0.02
21 6 -6 o 3.141 2.788 180.00 0.84629 0.00
21 6 6 o 34.002 30.180 180.00 0.84629 0.04
14 10 -8 o 132.315 117.743 0.00 0.84608 0.15
18 15 0 o 8.782 7.835 180.00 0.84590 0.01
27 3 0 o 19.111 17.049 180.00 0.84590 0.02
22 8 -4 o 515.314 462.245 0.00 0.84556 0.59
26 4 -2 o 16.154 14.525 180.00 0.84543 0.02
16 4 9 o 86.392 77.968 0.00 0.84524 0.10
16 4 -9 o 2.029 1.831 0.00 0.84524 0.00
8 3 11 o 89.622 81.013 180.00 0.84516 0.10
11 6 -10 o 18.876 17.150 0.00 0.84493 0.02
18 5 -8 o 0.000 0.000 180.00 0.84454 0.00
16 16 3 o 34.872 32.061 180.00 0.84445 0.04
23 0 -7 o 107.013 98.593 0.00 0.84437 0.06
21 8 -5 o 63.226 58.670 180.00 0.84411 0.07
18 13 -4 o 70.293 65.407 180.00 0.84402 0.08
17 16 1 o 23.790 22.239 0.00 0.84385 0.03
23 9 -1 o 4.437 4.148 0.00 0.84385 0.01
10 0 -11 o 801.263 753.985 180.00 0.84362 0.45
22 2 -7 o 11.911 11.445 0.00 0.84284 0.01
18 8 7 o 77.398 74.368 180.00 0.84284 0.09
16 14 5 o 1.969 1.903 0.00 0.84258 0.00
26 0 5 o 0.370 0.358 180.00 0.84258 0.00
9 2 -11 o 185.940 181.545 180.00 0.84209 0.21
12 5 10 o 13.137 12.878 0.00 0.84186 0.01
17 13 -5 o 14.268 14.167 180.00 0.84105 0.02
25 2 5 o 97.971 97.273 0.00 0.84105 0.11
19 12 4 o 0.009 0.009 180.00 0.84095 0.00
19 14 -1 o 560.771 558.975 180.00 0.84079 0.63
16 8 8 o 31.305 31.604 180.00 0.83995 0.04
23 8 -3 o 6.165 6.232 180.00 0.83987 0.01
19 13 3 o 0.093 0.094 180.00 0.83987 0.00
19 13 -3 o 3.494 3.532 180.00 0.83987 0.00
23 8 3 o 6.398 6.467 180.00 0.83987 0.01
26 5 0 o 0.289 0.293 0.00 0.83977 0.00
7 5 11 o 121.412 124.200 0.00 0.83905 0.14
21 4 -7 o 612.540 634.986 180.00 0.83828 0.69
23 7 4 o 94.792 99.049 0.00 0.83793 0.11
25 6 -2 o 1.741 1.825 0.00 0.83780 0.00
20 13 1 o 105.899 111.116 0.00 0.83777 0.12
15 6 9 o 4.868 5.129 180.00 0.83761 0.01
15 6 -9 o 44.207 46.584 180.00 0.83761 0.05
8 4 -11 o 0.634 0.670 180.00 0.83754 0.00
21 12 0 o 118.897 129.126 180.00 0.83675 0.13
24 4 5 o 642.990 705.023 180.00 0.83652 0.72
24 8 1 o 30.445 33.739 180.00 0.83627 0.03
15 1 -10 o 19.862 22.427 180.00 0.83582 0.02
20 8 6 o 107.188 121.908 180.00 0.83564 0.12
20 8 -6 o 23.412 26.627 180.00 0.83564 0.03
17 7 -8 o 1104.258 1265.735 180.00 0.83544 1.24
14 13 7 o 19.846 22.882 180.00 0.83528 0.02
19 11 5 o 24.151 28.094 0.00 0.83503 0.03
23 9 2 o 0.003 0.003 180.00 0.83480 0.00
17 16 -2 o 0.610 0.715 180.00 0.83480 0.00
10 8 -10 o 36.365 43.199 0.00 0.83433 0.04
11 0 11 o 394.917 484.532 180.00 0.83306 0.22
14 3 -10 o 13.033 16.084 0.00 0.83284 0.01
11 7 10 o 1.368 1.688 180.00 0.83284 0.00
21 1 8 o 15.493 19.323 0.00 0.83247 0.02
16 11 -7 o 66.525 83.347 180.00 0.83231 0.07
23 1 7 o 5.628 7.051 180.00 0.83231 0.01
21 10 -4 o 0.483 0.611 180.00 0.83197 0.00
19 14 2 o 60.544 76.915 180.00 0.83184 0.07
29 0 -1 o 28.312 35.996 0.00 0.83181 0.02
11 11 9 o 115.896 148.010 0.00 0.83166 0.13
10 2 11 o 29.633 37.926 180.00 0.83159 0.03
16 13 -6 o 26.174 33.857 180.00 0.83119 0.03
16 13 6 o 13.852 17.917 180.00 0.83119 0.02
25 7 0 o 190.482 248.442 180.00 0.83082 0.21
20 6 -7 o 0.020 0.026 180.00 0.83084 0.00
20 10 -5 o 1.894 2.480 180.00 0.83059 0.00
28 2 -1 o 2.940 3.861 180.00 0.83034 0.00
7 6 -11 o 218.066 286.842 0.00 0.83012 0.24
20 3 8 o 0.604 0.794 0.00 0.82953 0.00
13 12 -8 o 106.141 139.482 0.00 0.82953 0.12
22 3 7 o 22.826 29.955 180.00 0.82937 0.03
17 10 7 o 82.451 108.205 180.00 0.82937 0.09
23 6 5 o 0.359 0.470 180.00 0.82913 0.00
26 1 -5 o 130.224 170.349 0.00 0.82913 0.14
27 1 -4 o 3.674 4.799 0.00 0.82903 0.00
20 13 -2 o 89.009 116.028 0.00 0.82891 0.10
22 11 -1 o 28.786 37.503 0.00 0.82888 0.03
16 0 10 o 41.270 53.248 0.00 0.82844 0.02
24 8 -2 o 18.115 22.578 0.00 0.82746 0.02
14 8 9 o 0.463 0.572 180.00 0.82728 0.00
14 8 -9 o 72.139 89.173 180.00 0.82728 0.08
11 1 -11 o 31.324 38.583 180.00 0.82721 0.03
9 4 11 o 41.464 51.073 0.00 0.82721 0.05
15 2 10 o 0.381 0.464 0.00 0.82699 0.00
13 5 -10 o 68.947 83.995 0.00 0.82699 0.08
15 10 8 o 27.954 33.370 180.00 0.82662 0.03
22 10 3 o 1.219 1.448 180.00 0.82654 0.00
22 10 -3 o 19.008 22.588 0.00 0.82654 0.02
25 3 -5 o 183.178 213.634 180.00 0.82622 0.20
22 9 4 o 22.379 25.958 180.00 0.82613 0.02
26 3 -4 o 4.137 4.798 180.00 0.82613 0.00
27 4 -1 o 61.566 70.756 180.00 0.82598 0.07
0 0 12 o 4524.274 4919.333 0.00 0.82504 0.83
10 3 -11 o 44.776 46.931 180.00 0.82432 0.05
16 9 -8 o 2.737 2.794 180.00 0.82375 0.00
19 5 8 o 4.267 4.357 0.00 0.82375 0.00
21 5 7 o 30.621 31.061 0.00 0.82360 0.03
1 1 12 o 10.360 10.512 180.00 0.82360 0.01
17 15 -4 o 8.415 8.417 180.00 0.82326 0.01
29 0 2 o 12.644 12.586 180.00 0.82314 0.01
23 10 1 o 0.207 0.206 0.00 0.82311 0.00
19 1 -9 o 133.867 132.319 0.00 0.82297 0.15
19 1 9 o 43.391 42.890 0.00 0.82297 0.05
14 4 10 o 36.512 35.696 0.00 0.82268 0.04
19 10 -6 o 13.600 13.214 180.00 0.82251 0.02
19 10 6 o 5.142 4.996 180.00 0.82251 0.01
25 1 6 o 0.589 0.573 0.00 0.82251 0.00
25 1 -6 o 7.213 7.009 0.00 0.82251 0.01
22 0 -8 o 0.054 0.052 0.00 0.82232 0.00
28 1 3 o 13.936 13.416 180.00 0.82224 0.02
28 1 -3 o 6.820 6.565 180.00 0.82224 0.01
17 17 0 o 73.019 70.100 0.00 0.82215 0.04
18 14 4 o 909.752 865.763 180.00 0.82184 1.00
28 2 2 o 0.711 0.675 180.00 0.82172 0.00
10 9 10 o 9.477 8.917 0.00 0.82126 0.01
21 2 -8 o 40.048 37.550 0.00 0.82090 0.04
19 8 -7 o 1.156 1.083 0.00 0.82075 0.00
3 0 12 o 531.876 498.388 0.00 0.82076 0.29
3 0 -12 o 2409.916 2258.183 180.00 0.82076 1.33
16 15 -5 o 11.540 10.812 180.00 0.82051 0.01
24 5 -5 o 200.296 187.652 180.00 0.82051 0.22
25 5 -4 o 3.004 2.815 0.00 0.82042 0.00
22 11 2 o 0.065 0.061 180.00 0.82030 0.00
18 3 9 o 66.262 62.210 0.00 0.82013 0.07
18 3 -9 o 572.116 537.127 180.00 0.82013 0.63
8 6 11 o 170.547 160.230 0.00 0.82006 0.19
24 3 6 o 43.845 41.406 180.00 0.81968 0.05
24 3 -6 o 228.543 215.831 180.00 0.81968 0.25
18 15 -3 o 10.994 10.436 0.00 0.81941 0.01
18 15 3 o 148.269 140.736 180.00 0.81941 0.16
27 3 3 o 19.413 18.427 0.00 0.81941 0.02
27 3 -3 o 29.362 27.870 180.00 0.81941 0.03
24 9 0 o 14.470 13.761 0.00 0.81932 0.02
2 2 12 o 1.030 0.979 0.00 0.81935 0.00
22 8 5 o 1.961 1.875 180.00 0.81910 0.00
26 6 -1 o 19.629 18.879 180.00 0.81886 0.02
18 16 -1 o 7.608 7.318 0.00 0.81886 0.01
9 5 -11 o 172.837 167.207 0.00 0.81865 0.19
12 7 -10 o 7.025 6.837 0.00 0.81844 0.01
20 14 0 o 3.943 3.895 180.00 0.81792 0.00
18 13 5 o 125.811 125.039 180.00 0.81770 0.14
27 4 2 o 53.376 53.339 180.00 0.81749 0.06
29 1 1 o 3.597 3.597 180.00 0.81746 0.00
19 15 1 o 79.406 79.412 0.00 0.81746 0.09
20 4 -8 o 3.572 3.633 0.00 0.81669 0.00
20 12 -4 o 69.670 71.391 0.00 0.81621 0.08
28 0 4 o 7170.115 7347.177 0.00 0.81621 3.93
12 1 11 o 0.001 0.001 180.00 0.81585 0.00
13 6 10 o 35.444 36.563 0.00 0.81565 0.04
18 7 8 o 1582.052 1637.096 180.00 0.81529 1.73
20 7 7 o 97.168 100.657 0.00 0.81515 0.11
15 13 -7 o 26.640 27.597 180.00 0.81515 0.03
4 1 -12 o 16.139 16.718 180.00 0.81515 0.02
4 1 12 o 38.959 40.356 0.00 0.81515 0.04
19 12 -5 o 85.546 88.759 0.00 0.81491 0.09
27 2 4 o 79.034 82.039 0.00 0.81482 0.09
23 10 -2 o 1.784 1.853 180.00 0.81471 0.00
28 3 1 o 585.990 608.669 180.00 0.81468 0.64
13 10 9 o 1.910 1.985 0.00 0.81454 0.00
13 10 -9 o 26.155 27.181 180.00 0.81454 0.03
17 5 -9 o 199.111 206.919 180.00 0.81454 0.22
17 5 9 o 18.376 19.096 180.00 0.81454 0.02
23 5 6 o 9.728 10.116 180.00 0.81410 0.01
23 5 -6 o 2.724 2.833 180.00 0.81410 0.00
26 5 -3 o 0.666 0.692 180.00 0.81383 0.00
26 5 3 o 8.437 8.771 0.00 0.81383 0.01
16 12 7 o 100.361 104.309 180.00 0.81376 0.11
11 3 11 o 57.952 60.026 0.00 0.81309 0.06
17 0 -10 o 44.520 46.042 180.00 0.81288 0.02
3 3 12 o 116.743 120.193 180.00 0.81240 0.13
23 7 -5 o 16.342 16.783 0.00 0.81216 0.02
24 7 -4 o 295.745 303.434 180.00 0.81207 0.32
21 11 4 o 14.660 15.041 180.00 0.81207 0.02
21 13 -1 o 81.663 83.652 180.00 0.81192 0.09
16 2 -10 o 0.170 0.173 0.00 0.81151 0.00
15 15 6 o 332.223 338.297 180.00 0.81135 0.36
14 12 8 o 72.674 73.879 180.00 0.81116 0.08
21 12 -3 o 618.703 628.541 180.00 0.81109 0.67
21 12 3 o 7.436 7.554 0.00 0.81109 0.01
26 4 4 o 26.056 26.392 0.00 0.81070 0.03
26 6 2 o 2.662 2.694 0.00 0.81059 0.00
18 16 2 o 17.682 17.897 0.00 0.81059 0.02
8 7 -11 o 99.433 100.504 0.00 0.81035 0.11
13 0 -11 o 16.513 16.691 0.00 0.81035 0.01
15 11 -8 o 58.001 58.486 0.00 0.80980 0.06
19 6 -8 o 65.265 65.811 180.00 0.80980 0.07
24 1 -7 o 88.699 89.398 180.00 0.80966 0.10
29 1 -2 o 420.357 422.973 180.00 0.80923 0.46
19 15 -2 o 219.018 220.381 0.00 0.80923 0.24
25 8 -1 o 105.283 105.927 180.00 0.80920 0.11
27 5 1 o 67.098 67.509 0.00 0.80920 0.07
12 2 -11 o 61.247 61.572 180.00 0.80899 0.07
18 10 -7 o 417.576 418.547 180.00 0.80830 0.45
6 0 12 o 148.749 149.101 0.00 0.80831 0.08
6 0 -12 o 54.663 54.792 180.00 0.80831 0.03
22 12 1 o 162.662 162.557 0.00 0.80784 0.18
10 5 11 o 5.104 5.091 0.00 0.80764 0.01
15 4 -10 o 0.847 0.843 180.00 0.80744 0.00
11 9 -10 o 200.394 199.443 0.00 0.80744 0.22
18 12 6 o 10.076 10.004 0.00 0.80728 0.01
18 12 -6 o 73.438 72.914 180.00 0.80728 0.08
30 0 0 o 33.689 33.235 0.00 0.80694 0.02
23 3 -7 o 3.633 3.585 180.00 0.80695 0.00
5 2 -12 o 31.033 30.630 180.00 0.80696 0.03
5 2 12 o 5.960 5.882 180.00 0.80696 0.01
21 10 5 o 589.455 578.676 180.00 0.80673 0.64
28 3 -2 o 17.960 17.534 180.00 0.80653 0.02
16 7 9 o 3.080 2.992 180.00 0.80636 0.00
16 7 -9 o 8.129 7.895 180.00 0.80636 0.01
12 8 10 o 24.546 23.620 0.00 0.80610 0.03
22 7 -6 o 0.035 0.033 0.00 0.80594 0.00
22 7 6 o 21.077 20.155 180.00 0.80594 0.02
25 7 3 o 775.628 733.729 180.00 0.80568 0.84
25 7 -3 o 364.143 344.472 0.00 0.80568 0.39
23 11 0 o 4.524 4.262 180.00 0.80560 0.00
29 2 0 o 42.284 39.839 180.00 0.80560 0.05
11 4 -11 o 42.312 38.597 180.00 0.80496 0.05
17 1 10 o 22.384 20.198 180.00 0.80476 0.02
17 9 8 o 47.814 42.334 0.00 0.80442 0.05
19 9 7 o 48.896 42.957 0.00 0.80428 0.05
27 1 5 o 2.104 1.826 180.00 0.80405 0.00
25 6 4 o 0.011 0.009 180.00 0.80397 0.00
21 13 2 o 31.630 27.174 180.00 0.80385 0.03
14 6 -10 o 1.565 1.312 0.00 0.80079 0.00
18 8 -8 o 147.924 125.291 180.00 0.80045 0.16
22 2 8 o 18.805 15.928 180.00 0.80045 0.02
22 12 -2 o 198.886 171.691 0.00 0.79990 0.21
4 4 12 o 120.807 100.314 180.00 0.80296 0.13
12 12 9 o 125.492 108.969 0.00 0.79974 0.13
9 7 11 o 303.379 264.085 0.00 0.79967 0.33
16 3 10 o 13.836 11.366 180.00 0.80210 0.01
25 0 7 o 793.142 708.177 180.00 0.79900 0.43
7 1 -12 o 21.171 18.898 180.00 0.79901 0.02
7 1 12 o 111.662 99.675 0.00 0.79901 0.12
17 15 5 o 0.347 0.313 180.00 0.79878 0.00
23 0 8 o 143.872 118.395 0.00 0.80177 0.08
19 14 -4 o 158.672 143.361 180.00 0.79870 0.17
28 4 0 o 414.027 341.290 180.00 0.80161 0.45
22 5 -7 o 113.222 93.311 0.00 0.80163 0.12
26 3 5 o 130.748 108.096 180.00 0.80140 0.14
22 9 -5 o 215.300 178.000 180.00 0.80140 0.23
23 9 -4 o 0.262 0.217 180.00 0.80132 0.00
17 16 4 o 57.142 47.312 0.00 0.80132 0.06
14 0 11 o 1571.939 1438.795 0.00 0.79836 0.84
10 6 -11 o 58.467 53.515 0.00 0.79836 0.06
27 5 -2 o 43.032 35.708 0.00 0.80121 0.05
25 8 2 o 0.148 0.123 180.00 0.80121 0.00
26 7 1 o 0.114 0.095 0.00 0.80118 0.00
17 17 3 o 49.467 46.328 180.00 0.79777 0.05
19 16 0 o 0.581 0.545 180.00 0.79768 0.00
24 2 7 o 0.060 0.057 180.00 0.79770 0.00
18 14 -5 o 157.974 149.541 180.00 0.79748 0.17
24 10 -1 o 17.770 16.955 180.00 0.79726 0.02
13 2 11 o 2.776 2.666 180.00 0.79706 0.00
15 5 10 o 77.464 74.876 0.00 0.79687 0.08
21 4 8 o 56.717 55.355 0.00 0.79654 0.06
15 14 7 o 38.702 37.911 0.00 0.79640 0.04
6 3 -12 o 13.610 13.330 180.00 0.79641 0.01
6 3 12 o 12.567 12.308 0.00 0.79641 0.01
25 5 5 o 56.743 55.874 0.00 0.79619 0.06
20 13 4 o 50.622 49.937 0.00 0.79610 0.05
18 17 1 o 24.357 24.095 180.00 0.79597 0.03
15 9 9 o 20.724 20.551 180.00 0.79584 0.02
21 0 9 o 2764.283 2741.208 0.00 0.79584 1.48
15 9 -9 o 190.915 189.321 180.00 0.79584 0.20
21 0 -9 o 2578.011 2556.490 0.00 0.79584 1.38
21 9 6 o 25.189 25.132 0.00 0.79543 0.03
21 9 -6 o 7.891 7.873 0.00 0.79543 0.01
24 9 3 o 3.803 3.805 0.00 0.79518 0.00
24 9 -3 o 0.492 0.492 180.00 0.79518 0.00
27 6 0 o 64.920 64.998 0.00 0.79510 0.07
24 8 4 o 6.584 6.606 180.00 0.79482 0.01
20 2 9 o 76.532 76.903 0.00 0.79455 0.08
20 2 -9 o 0.244 0.245 180.00 0.79455 0.00
11 10 10 o 60.623 60.980 0.00 0.79429 0.06
14 13 -8 o 20.830 20.972 0.00 0.79397 0.02
20 14 -3 o 80.013 80.569 180.00 0.79390 0.09
20 14 3 o 19.776 19.913 0.00 0.79390 0.02
23 4 7 o 52.218 52.587 0.00 0.79383 0.06
17 12 -7 o 2.337 2.353 0.00 0.79383 0.00
21 7 -7 o 2374.836 2391.609 0.00 0.79383 2.53
26 7 -2 o 33.173 33.424 180.00 0.79342 0.04
20 15 -1 o 49.367 49.742 180.00 0.79340 0.05
12 4 11 o 242.005 243.897 180.00 0.79320 0.26
28 0 -5 o 2625.509 2650.636 0.00 0.79234 1.40
20 12 5 o 35.110 35.446 0.00 0.79234 0.04
14 1 -11 o 19.908 20.139 0.00 0.79193 0.02
13 8 -10 o 0.006 0.006 180.00 0.79174 0.00
16 11 8 o 8.703 8.838 0.00 0.79142 0.01
23 1 -8 o 0.539 0.547 180.00 0.79142 0.00
18 11 7 o 3.658 3.720 180.00 0.79128 0.00
5 5 12 o 1.910 1.942 0.00 0.79129 0.00
27 2 -5 o 19.610 19.987 0.00 0.79107 0.02
29 0 -4 o 2.986 3.047 180.00 0.79099 0.00
30 1 -1 o 29.223 29.872 180.00 0.79085 0.03
25 9 1 o 53.474 54.661 0.00 0.79085 0.06
21 14 1 o 3172.366 3242.767 0.00 0.79085 3.37
19 4 -9 o 180.076 184.398 0.00 0.79073 0.19
19 4 9 o 85.356 87.405 0.00 0.79073 0.09
17 14 -6 o 174.995 180.373 180.00 0.79032 0.19
17 14 6 o 48.848 50.350 180.00 0.79032 0.05
20 6 8 o 13.507 13.963 0.00 0.79015 0.01
22 13 0 o 67.371 69.841 0.00 0.79000 0.07
28 2 -4 o 57.990 60.424 0.00 0.78972 0.06
24 10 2 o 171.870 179.456 180.00 0.78962 0.18
13 3 -11 o 26.540 27.822 180.00 0.78940 0.03
9 8 -11 o 22.185 23.257 0.00 0.78940 0.02
14 7 10 o 380.945 400.665 0.00 0.78921 0.40
18 1 -10 o 2.722 2.863 0.00 0.78921 0.00
17 10 -8 o 0.000 0.000 180.00 0.78889 0.00
22 3 -8 o 0.024 0.026 0.00 0.78889 0.00
9 0 12 o 10.646 11.256 0.00 0.78877 0.01
9 0 -12 o 18.398 19.452 180.00 0.78877 0.01
21 11 -5 o 48.499 51.424 180.00 0.78855 0.05
24 7 5 o 455.045 482.486 0.00 0.78855 0.48
22 11 -4 o 2.799 2.970 0.00 0.78847 0.00
18 17 -2 o 3.689 3.920 180.00 0.78836 0.00
29 3 -1 o 45.033 47.860 0.00 0.78833 0.05
27 0 -6 o 0.553 0.590 180.00 0.78781 0.00
27 0 6 o 5.035 5.371 180.00 0.78781 0.00
22 6 7 o 1.852 1.976 0.00 0.78751 0.00
8 2 12 o 1.966 2.097 0.00 0.78751 0.00
8 2 -12 o 3.959 4.224 180.00 0.78751 0.00
26 4 -5 o 88.753 94.634 0.00 0.78729 0.09
11 6 11 o 7.798 8.286 180.00 0.78689 0.01
17 3 -10 o 111.046 117.680 180.00 0.78671 0.12
26 2 -6 o 86.099 90.999 180.00 0.78656 0.09
26 2 6 o 38.075 40.242 180.00 0.78656 0.04
26 8 0 o 50.334 52.810 0.00 0.78624 0.05
27 4 -4 o 36.575 38.064 0.00 0.78597 0.04
20 15 2 o 199.671 207.054 180.00 0.78586 0.21
18 6 -9 o 0.340 0.331 0.00 0.78447 0.00
18 6 9 o 94.594 92.086 180.00 0.78447 0.10
12 5 -11 o 64.066 62.174 180.00 0.78441 0.07
21 5 -8 o 197.640 187.272 180.00 0.78391 0.21
30 0 -3 o 57.839 54.637 0.00 0.78384 0.03
30 0 3 o 288.053 272.105 0.00 0.78384 0.15
20 9 -7 o 56.394 53.127 0.00 0.78378 0.06
7 4 12 o 580.663 547.168 0.00 0.78379 0.61
7 4 -12 o 2133.417 2010.355 180.00 0.78379 2.25
23 10 4 o 21.831 20.323 0.00 0.78349 0.02
21 14 -2 o 688.985 638.857 0.00 0.78339 0.73
30 1 2 o 2.918 2.705 180.00 0.78339 0.00
25 9 -2 o 85.215 79.016 0.00 0.78339 0.09
23 12 -1 o 83.298 77.163 180.00 0.78336 0.09
28 5 -1 o 4.263 3.949 0.00 0.78336 0.00
14 11 -9 o 396.564 365.719 180.00 0.78324 0.42
14 11 9 o 0.510 0.470 0.00 0.78324 0.00
25 4 6 o 30.124 27.445 0.00 0.78285 0.03
20 11 6 o 1.356 1.235 0.00 0.78285 0.00
25 4 -6 o 28.339 25.818 0.00 0.78285 0.03
20 11 -6 o 162.626 148.159 180.00 0.78285 0.17
23 11 3 o 19.275 17.456 0.00 0.78261 0.02
23 11 -3 o 11.757 10.647 180.00 0.78261 0.01
29 2 -3 o 0.045 0.041 0.00 0.78261 0.00
29 2 3 o 40.939 37.074 180.00 0.78261 0.04
16 5 -10 o 9.289 8.300 0.00 0.78177 0.01
19 0 10 o 40.013 35.753 180.00 0.78177 0.02
19 8 8 o 25.529 22.773 0.00 0.78146 0.03
25 6 -5 o 29.398 26.227 0.00 0.78112 0.03
29 3 2 o 27.072 24.174 0.00 0.78094 0.03
12 10 -10 o 1.629 1.459 180.00 0.78055 0.00
18 2 10 o 0.324 0.290 180.00 0.78055 0.00
26 6 -4 o 31.464 28.528 180.00 0.77983 0.03
18 16 -4 o 2.022 1.834 0.00 0.77983 0.00
15 1 11 o 9.605 8.770 0.00 0.77952 0.01
13 9 10 o 2.030 1.862 0.00 0.77934 0.00
28 4 3 o 30.440 28.226 0.00 0.77896 0.03
28 4 -3 o 541.659 502.254 180.00 0.77896 0.57
21 8 7 o 0.240 0.223 180.00 0.77890 0.00
23 9 5 o 53.757 50.307 0.00 0.77869 0.06
17 16 -5 o 22.673 21.218 0.00 0.77869 0.02
19 15 4 o 54.722 51.360 0.00 0.77862 0.06
29 1 4 o 345.776 324.532 0.00 0.77862 0.36
24 11 1 o 449.260 423.808 180.00 0.77849 0.47
31 0 1 o 32.353 30.520 0.00 0.77849 0.02
10 8 11 o 9.486 9.018 180.00 0.77831 0.01
16 14 -7 o 34.109 33.386 0.00 0.77769 0.04
26 0 -7 o 6.224 6.092 0.00 0.77769 0.00
6 6 12 o 15.471 15.138 180.00 0.77770 0.02
30 2 1 o 1.196 1.195 180.00 0.77728 0.00
11 7 -11 o 368.158 371.069 0.00 0.77710 0.39
14 3 11 o 624.540 629.478 180.00 0.77710 0.65
17 4 10 o 60.375 61.367 180.00 0.77692 0.06
24 6 -6 o 5.230 5.350 0.00 0.77678 0.01
24 6 6 o 1.407 1.440 180.00 0.77678 0.00
20 7 -8 o 37.064 38.183 180.00 0.77662 0.04
15 13 8 o 34.005 35.032 0.00 0.77662 0.04
18 18 0 o 484.944 502.546 0.00 0.77648 0.25
25 2 -7 o 53.524 55.432 0.00 0.77649 0.06
17 13 7 o 38.996 40.386 180.00 0.77649 0.04
10 1 12 o 44.023 45.581 180.00 0.77650 0.05
10 1 -12 o 175.754 181.975 180.00 0.77650 0.18
19 14 5 o 0.755 0.788 180.00 0.77629 0.00
28 3 4 o 634.441 664.064 180.00 0.77621 0.66
28 5 2 o 110.492 116.056 180.00 0.77611 0.12
23 12 2 o 47.299 49.682 180.00 0.77611 0.05
27 7 -1 o 8.077 8.491 0.00 0.77608 0.01
17 8 9 o 17.539 18.511 180.00 0.77596 0.02
17 8 -9 o 24.676 26.044 0.00 0.77596 0.03
16 12 -8 o 3.538 3.788 0.00 0.77542 0.00
19 16 3 o 15.844 16.984 0.00 0.77536 0.02
19 16 -3 o 187.554 201.043 180.00 0.77536 0.20
25 10 0 o 426.440 457.877 180.00 0.77528 0.45
15 7 -10 o 3.199 3.467 0.00 0.77453 0.00
9 3 -12 o 20.336 22.096 0.00 0.77411 0.02
9 3 12 o 0.838 0.910 180.00 0.77411 0.00
20 13 -5 o 133.479 145.124 0.00 0.77390 0.14
21 13 -4 o 0.000 0.000 0.00 0.77383 0.00
29 4 1 o 91.058 99.052 180.00 0.77370 0.10
19 17 -1 o 26.630 28.968 180.00 0.77370 0.03
16 0 -11 o 31.962 34.780 0.00 0.77352 0.02
27 6 3 o 44.116 48.004 0.00 0.77298 0.05
27 6 -3 o 49.062 53.386 0.00 0.77298 0.05
21 15 0 o 6.880 7.486 0.00 0.77291 0.01
24 4 -7 o 89.295 97.161 180.00 0.77292 0.09
24 8 -5 o 41.280 44.882 0.00 0.77272 0.04
20 16 1 o 68.823 74.743 0.00 0.77252 0.07
13 5 11 o 95.885 103.989 180.00 0.77234 0.10
15 2 -11 o 10.892 11.813 0.00 0.77234 0.01
16 16 6 o 0.965 1.044 0.00 0.77203 0.00
24 1 8 o 4.021 4.337 180.00 0.77187 0.00
19 11 -7 o 9.571 10.306 180.00 0.77174 0.01
25 8 -4 o 71.431 76.618 180.00 0.77147 0.07
27 5 4 o 2.078 2.229 180.00 0.77147 0.00
31 0 -2 o 355.875 381.175 180.00 0.77137 0.19
24 11 -2 o 3.594 3.849 0.00 0.77137 0.00
16 6 10 o 6.747 7.186 180.00 0.77099 0.01
18 10 8 o 1.187 1.259 0.00 0.77069 0.00
22 12 4 o 23.453 24.733 0.00 0.77029 0.02
30 2 -2 o 22.788 23.999 180.00 0.77020 0.02
23 3 8 o 2.426 2.533 0.00 0.76952 0.00
8 5 12 o 18.384 19.167 180.00 0.76941 0.02
8 5 -12 o 3.787 3.948 180.00 0.76941 0.00
29 0 5 o 119.680 124.551 180.00 0.76920 0.06
27 7 2 o 25.090 26.080 180.00 0.76903 0.03
22 1 9 o 10.633 11.045 180.00 0.76889 0.01
22 1 -9 o 2.378 2.470 0.00 0.76889 0.00
13 13 9 o 102.695 106.681 0.00 0.76889 0.11
14 4 -11 o 475.263 493.623 180.00 0.76883 0.49
19 13 6 o 25.637 26.629 0.00 0.76852 0.03
23 8 6 o 16.489 17.127 180.00 0.76852 0.02
23 8 -6 o 0.560 0.581 180.00 0.76852 0.00
19 13 -6 o 2.439 2.533 0.00 0.76852 0.00
22 13 3 o 0.129 0.135 180.00 0.76829 0.00
22 13 -3 o 48.315 50.240 180.00 0.76829 0.05
31 1 0 o 7.561 7.867 180.00 0.76822 0.01
20 10 7 o 47.970 49.904 0.00 0.76824 0.05
28 2 5 o 5.564 5.800 0.00 0.76804 0.01
22 14 -1 o 12.793 13.374 0.00 0.76784 0.01
28 6 1 o 0.824 0.861 0.00 0.76784 0.00
10 9 -11 o 131.216 137.586 180.00 0.76767 0.14
12 11 10 o 24.040 25.294 180.00 0.76750 0.02
19 9 -8 o 84.383 89.405 180.00 0.76720 0.09
23 6 -7 o 3.420 3.636 180.00 0.76708 0.00
26 1 7 o 20.231 21.504 0.00 0.76708 0.02
22 11 5 o 95.832 102.417 180.00 0.76688 0.10
29 4 -2 o 11.301 12.138 180.00 0.76671 0.01
19 17 2 o 11.238 12.070 180.00 0.76671 0.01
26 9 -1 o 3.673 3.948 0.00 0.76669 0.00
21 3 9 o 518.303 559.004 180.00 0.76657 0.54
21 3 -9 o 472.508 509.613 0.00 0.76657 0.49
20 0 -10 o 3.125 3.393 0.00 0.76634 0.00
30 3 0 o 47.581 52.279 0.00 0.76591 0.05
20 16 -2 o 7.204 7.973 180.00 0.76556 0.01
16 10 9 o 53.469 59.306 0.00 0.76542 0.06
16 10 -9 o 139.011 154.187 0.00 0.76542 0.14
12 7 11 o 134.941 149.774 180.00 0.76536 0.14
14 9 -10 o 17.171 19.085 0.00 0.76519 0.02
19 2 -10 o 41.965 46.643 180.00 0.76519 0.04
22 5 8 o 4.500 5.001 0.00 0.76490 0.00
26 8 -3 o 57.872 64.296 0.00 0.76484 0.06
26 8 3 o 76.956 85.498 0.00 0.76484 0.08
25 3 7 o 39.913 44.321 0.00 0.76478 0.04
20 5 -9 o 240.461 240.637 0.00 0.76200 0.25
20 5 9 o 39.694 39.723 0.00 0.76200 0.04
27 4 5 o 4.769 5.282 0.00 0.76458 0.00
26 7 4 o 309.783 342.685 180.00 0.76451 0.32
18 4 -10 o 33.377 33.097 0.00 0.76177 0.03
23 13 1 o 0.601 0.663 0.00 0.76439 0.00
24 2 -8 o 4.364 4.280 180.00 0.76149 0.00
29 5 0 o 64.183 62.643 0.00 0.76135 0.07
1 0 13 o 145.557 141.309 180.00 0.76120 0.08
24 10 -4 o 62.836 60.820 0.00 0.76110 0.06
28 6 -2 o 27.967 26.988 180.00 0.76101 0.03
22 14 2 o 28.134 27.150 180.00 0.76101 0.03
12 0 12 o 113.000 121.613 180.00 0.76364 0.06
12 0 -12 o 28.722 30.911 180.00 0.76364 0.01
17 0 11 o 200.300 192.212 180.00 0.76081 0.10
15 14 -8 o 1.218 1.157 0.00 0.76036 0.00
13 6 -11 o 12.027 12.629 180.00 0.76308 0.01
16 15 7 o 1.066 1.010 0.00 0.76024 0.00
24 5 7 o 1.146 1.086 180.00 0.76024 0.00
15 8 10 o 55.264 57.577 180.00 0.76291 0.06
2 0 -13 o 69.279 65.474 180.00 0.76007 0.04
18 17 4 o 169.639 160.147 180.00 0.75998 0.18
26 9 2 o 111.187 104.862 180.00 0.75988 0.11
25 0 -8 o 170.732 175.547 0.00 0.76262 0.09
27 8 1 o 0.887 0.837 0.00 0.75986 0.00
24 12 0 o 62.648 64.023 180.00 0.76248 0.06
7 7 12 o 3493.347 3573.308 0.00 0.76250 3.61
11 2 12 o 19.709 20.160 180.00 0.76250 0.02
11 2 -12 o 46.002 47.055 0.00 0.76250 0.05
16 2 11 o 74.254 69.938 180.00 0.75969 0.08
23 10 -5 o 106.513 107.997 0.00 0.76231 0.11
22 8 -7 o 3.970 3.741 180.00 0.75912 0.00
10 4 -12 o 323.086 304.478 0.00 0.75912 0.33
10 4 12 o 1897.560 1788.269 180.00 0.75912 1.96
18 16 5 o 14.239 13.441 0.00 0.75893 0.01
26 6 5 o 279.758 264.066 0.00 0.75893 0.29
2 1 13 o 31.700 29.917 180.00 0.75895 0.03
20 1 10 o 16.420 15.602 180.00 0.75840 0.02
22 10 -6 o 28.466 27.103 0.00 0.75827 0.03
22 10 6 o 47.611 45.331 0.00 0.75827 0.05
17 12 8 o 11.210 10.698 180.00 0.75812 0.01
21 7 8 o 5035.463 4805.517 0.00 0.75812 5.19
23 4 -8 o 36.905 35.220 180.00 0.75812 0.04
18 13 -7 o 71.804 68.653 180.00 0.75800 0.07
19 15 -5 o 139.785 134.039 0.00 0.75781 0.14
29 1 -5 o 16.834 16.142 0.00 0.75781 0.02
20 15 -4 o 36.992 35.509 0.00 0.75774 0.04
23 13 -2 o 112.895 108.505 180.00 0.75765 0.12
3 1 -13 o 14.751 14.295 180.00 0.75672 0.02
15 4 11 o 1.716 1.663 180.00 0.75634 0.00
11 9 11 o 84.618 82.023 180.00 0.75634 0.09
19 3 10 o 3.348 3.244 180.00 0.75618 0.00
17 6 -10 o 25.786 24.984 0.00 0.75618 0.03
18 11 -8 o 42.158 40.788 0.00 0.75590 0.04
18 18 3 o 51.652 49.954 0.00 0.75584 0.05
19 12 7 o 2.053 1.985 180.00 0.75578 0.00
28 3 -5 o 157.155 151.713 0.00 0.75559 0.16
4 0 13 o 781.823 754.877 180.00 0.75561 0.40
21 14 4 o 5987.825 5776.995 0.00 0.75552 6.16
25 9 4 o 5.530 5.335 180.00 0.75552 0.01
30 1 -4 o 12.422 11.985 180.00 0.75552 0.01
25 11 -1 o 149.099 143.702 0.00 0.75541 0.15
19 7 -9 o 200.339 192.885 180.00 0.75529 0.21
19 7 9 o 29.394 28.300 180.00 0.75529 0.03
12 8 -11 o 6.438 6.195 180.00 0.75524 0.01
28 1 6 o 31.057 29.801 180.00 0.75494 0.03
28 1 -6 o 123.140 118.162 180.00 0.75494 0.13
25 10 3 o 18.666 17.879 180.00 0.75473 0.02
25 10 -3 o 270.547 259.139 180.00 0.75473 0.28
20 17 0 o 42.833 41.002 180.00 0.75466 0.04
28 7 0 o 6428.529 6153.820 0.00 0.75466 6.60
3 2 13 o 193.447 184.961 0.00 0.75451 0.20
32 0 -1 o 469.287 448.078 180.00 0.75430 0.24
17 1 -11 o 66.838 63.761 180.00 0.75414 0.07
13 11 -10 o 131.950 125.801 180.00 0.75397 0.14
23 7 7 o 334.235 318.428 0.00 0.75358 0.34
9 6 -12 o 0.613 0.584 180.00 0.75359 0.00
9 6 12 o 2.442 2.326 180.00 0.75359 0.00
21 13 5 o 0.156 0.149 180.00 0.75339 0.00
29 3 -4 o 74.698 71.166 0.00 0.75332 0.08
27 8 -2 o 90.064 85.818 180.00 0.75323 0.09
19 18 1 o 0.007 0.007 180.00 0.75321 0.00
31 2 -1 o 36.830 35.094 0.00 0.75321 0.04
15 12 -9 o 9.497 9.051 0.00 0.75310 0.01
15 12 9 o 101.892 97.099 0.00 0.75310 0.10
14 10 10 o 65.988 62.898 180.00 0.75288 0.07
18 15 -6 o 5.941 5.663 0.00 0.75275 0.01
27 3 -6 o 2.729 2.602 180.00 0.75275 0.00
18 15 6 o 3.714 3.541 180.00 0.75275 0.00
27 3 6 o 132.676 126.477 0.00 0.75275 0.14
22 6 -8 o 16.190 15.435 0.00 0.75260 0.02
21 15 3 o 26.275 25.050 180.00 0.75254 0.03
21 15 -3 o 6.717 6.404 0.00 0.75254 0.01
5 0 -13 o 103.736 98.888 180.00 0.75232 0.05
16 3 -11 o 10.035 9.556 180.00 0.75195 0.01
18 5 10 o 51.750 49.246 0.00 0.75179 0.05
25 8 5 o 294.861 279.563 0.00 0.75121 0.30
27 5 -5 o 105.195 99.737 0.00 0.75121 0.11
4 2 -13 o 81.485 77.268 0.00 0.75123 0.08
21 16 -1 o 1.679 1.590 0.00 0.75103 0.00
14 6 11 o 5.556 5.254 0.00 0.75087 0.01
22 12 -5 o 52.993 49.905 0.00 0.75013 0.05
5 1 13 o 0.023 0.022 180.00 0.75015 0.00
26 10 1 o 65.397 61.539 180.00 0.74995 0.07
30 4 -1 o 0.005 0.004 0.00 0.74995 0.00
20 9 8 o 55.531 52.193 0.00 0.74935 0.06
21 10 -7 o 255.522 240.177 180.00 0.74924 0.26
13 1 12 o 20.004 18.802 180.00 0.74924 0.02
13 1 -12 o 109.445 102.872 0.00 0.74924 0.11
28 5 -4 o 149.403 140.498 180.00 0.74898 0.15
23 12 -4 o 17.689 16.635 0.00 0.74898 0.02
25 11 2 o 7.036 6.619 0.00 0.74889 0.01
22 15 1 o 2.533 2.383 180.00 0.74887 0.00
16 8 -10 o 1.458 1.375 0.00 0.74855 0.00
26 5 -6 o 65.718 62.045 0.00 0.74842 0.07
26 5 6 o 57.002 53.816 0.00 0.74842 0.06
31 1 -3 o 53.509 50.658 180.00 0.74822 0.05
31 1 3 o 21.235 20.104 0.00 0.74822 0.02
23 14 0 o 29.768 28.213 0.00 0.74815 0.03
4 3 13 o 540.279 513.424 0.00 0.74800 0.55
32 0 2 o 0.061 0.058 180.00 0.74782 0.00
15 5 -11 o 26.124 25.037 0.00 0.74764 0.03
27 1 -7 o 45.726 44.590 0.00 0.74709 0.05
12 3 12 o 23.228 22.646 180.00 0.74710 0.02
12 3 -12 o 10.598 10.333 0.00 0.74710 0.01
31 2 2 o 40.744 40.250 0.00 0.74675 0.04
19 18 -2 o 20.350 20.104 180.00 0.74675 0.02
18 9 9 o 19.338 19.206 0.00 0.74662 0.02
18 9 -9 o 168.692 167.536 0.00 0.74662 0.17
21 12 6 o 31.382 31.620 180.00 0.74628 0.03
21 12 -6 o 77.786 78.375 180.00 0.74628 0.08
30 3 -3 o 4.716 4.794 180.00 0.74608 0.00
30 3 3 o 3.373 3.429 180.00 0.74608 0.00
27 9 0 o 133.180 135.809 0.00 0.74601 0.14
8 8 12 o 0.021 0.021 0.00 0.74603 0.00
6 1 -13 o 1.258 1.291 180.00 0.74587 0.00
11 10 -11 o 467.307 487.601 180.00 0.74551 0.48
17 7 10 o 0.803 0.843 0.00 0.74535 0.00
21 8 -8 o 9.762 10.382 0.00 0.74508 0.01
22 9 7 o 1.077 1.151 180.00 0.74497 0.00
26 3 -7 o 28.621 30.589 180.00 0.74497 0.03
26 7 -5 o 274.939 296.079 180.00 0.74479 0.28
24 11 4 o 718.479 775.890 180.00 0.74472 0.73
31 0 4 o 93.127 100.569 0.00 0.74472 0.05
21 16 2 o 42.958 46.560 0.00 0.74463 0.04
29 6 -1 o 1.517 1.645 180.00 0.74461 0.00
16 14 8 o 98.348 108.965 0.00 0.74402 0.10
26 0 8 o 327.604 362.972 180.00 0.74402 0.17
7 0 13 o 1541.268 1720.539 0.00 0.74375 0.79
5 3 -13 o 12.711 14.190 0.00 0.74375 0.01
30 2 4 o 0.838 0.938 0.00 0.74366 0.00
30 4 2 o 55.767 62.504 0.00 0.74358 0.06
26 10 -2 o 14.266 15.989 180.00 0.74358 0.01
24 0 -9 o 252.533 283.726 180.00 0.74345 0.13
24 0 9 o 911.031 1023.564 0.00 0.74345 0.46
13 8 11 o 1.324 1.489 0.00 0.74339 0.00
21 1 -10 o 23.071 26.001 180.00 0.74324 0.02
25 2 8 o 18.168 20.522 180.00 0.74297 0.02
17 13 -8 o 0.070 0.079 180.00 0.74297 0.00
24 12 3 o 19.607 22.152 180.00 0.74291 0.02
24 12 -3 o 5.969 6.744 180.00 0.74291 0.01
17 15 -7 o 28.437 32.133 180.00 0.74286 0.03
11 5 -12 o 1.005 1.136 180.00 0.74286 0.00
11 5 12 o 3.998 4.517 0.00 0.74286 0.00
6 2 13 o 0.254 0.286 0.00 0.74270 0.00
27 7 -4 o 7.270 8.211 180.00 0.74261 0.01
22 15 -2 o 471.629 532.418 180.00 0.74253 0.48
24 13 -1 o 42.335 47.784 180.00 0.74250 0.04
32 1 1 o 109.821 123.955 0.00 0.74250 0.11
23 2 9 o 140.565 158.506 0.00 0.74240 0.14
23 2 -9 o 126.697 142.868 0.00 0.74240 0.13
25 7 6 o 8.167 9.168 180.00 0.74206 0.01
25 7 -6 o 19.910 22.349 0.00 0.74206 0.02
29 5 -3 o 95.064 106.318 0.00 0.74186 0.10
29 5 3 o 55.246 61.786 0.00 0.74186 0.06
18 14 7 o 598.076 668.148 180.00 0.74181 0.61
24 10 5 o 2.892 3.218 0.00 0.74163 0.00
14 7 -11 o 1174.744 1296.767 0.00 0.74130 1.20
18 1 11 o 8.117 8.960 180.00 0.74130 0.01
13 12 10 o 0.861 0.946 0.00 0.74114 0.00
20 3 -10 o 8.376 9.209 180.00 0.74114 0.01
25 5 -7 o 207.802 226.253 180.00 0.74077 0.21
18 17 -5 o 379.940 411.808 180.00 0.74059 0.39
19 17 -4 o 31.437 34.016 180.00 0.74053 0.03
29 4 4 o 108.627 117.541 180.00 0.74053 0.11
31 3 1 o 1.774 1.914 0.00 0.74042 0.00
24 4 8 o 1053.648 1121.607 180.00 0.73984 1.07
5 4 13 o 164.821 174.434 0.00 0.73957 0.17
20 16 4 o 179.192 189.314 0.00 0.73949 0.18
14 14 9 o 2002.228 2106.450 0.00 0.73928 2.04
22 4 -9 o 60.918 64.089 0.00 0.73928 0.06
22 4 9 o 85.017 89.442 180.00 0.73928 0.09
17 3 11 o 61.012 64.126 180.00 0.73922 0.06
15 10 -10 o 7.001 7.338 0.00 0.73907 0.01
19 11 8 o 2.512 2.621 0.00 0.73881 0.00
20 15 5 o 0.145 0.150 0.00 0.73852 0.00
8 0 -13 o 0.266 0.277 180.00 0.73854 0.00
29 6 2 o 140.593 145.751 180.00 0.73837 0.14
25 12 1 o 0.137 0.142 180.00 0.73835 0.00
20 12 -7 o 7.891 8.110 0.00 0.73767 0.01
28 0 7 o 1680.174 1726.829 0.00 0.73767 0.85
7 2 -13 o 46.706 47.919 180.00 0.73751 0.05
28 8 -1 o 17.353 17.765 180.00 0.73732 0.02
19 5 -10 o 29.948 30.554 0.00 0.73701 0.03
16 9 10 o 24.051 24.538 0.00 0.73701 0.02
27 2 7 o 11.092 11.267 0.00 0.73664 0.01
10 7 12 o 315.209 320.191 0.00 0.73665 0.32
10 7 -12 o 1744.585 1772.159 180.00 0.73665 1.77
30 1 5 o 45.281 45.888 180.00 0.73647 0.05
25 9 -5 o 83.904 85.028 0.00 0.73647 0.09
21 14 -5 o 2346.474 2377.915 0.00 0.73647 2.38
32 1 -2 o 1.923 1.945 0.00 0.73632 0.00
24 13 2 o 0.052 0.052 0.00 0.73632 0.00
30 5 1 o 21.942 22.183 0.00 0.73630 0.02
17 11 9 o 567.259 572.600 180.00 0.73619 0.58
17 11 -9 o 155.517 156.981 0.00 0.73619 0.16
22 0 10 o 1.573 1.583 180.00 0.73599 0.00
17 17 6 o 134.669 135.223 180.00 0.73587 0.14
20 10 -8 o 82.543 82.681 180.00 0.73573 0.08
28 7 -3 o 2766.611 2768.333 0.00 0.73567 2.81
20 17 -3 o 58.929 58.966 180.00 0.73567 0.06
20 17 3 o 14.078 14.087 0.00 0.73567 0.01
28 7 3 o 2053.694 2054.971 0.00 0.73567 2.08
26 11 0 o 40.353 40.328 0.00 0.73561 0.04
19 19 0 o 2.795 2.794 0.00 0.73561 0.00
8 1 13 o 20.410 20.340 180.00 0.73547 0.02
28 6 4 o 0.093 0.093 180.00 0.73538 0.00
22 14 -4 o 0.036 0.035 180.00 0.73538 0.00
16 5 11 o 19.060 18.847 180.00 0.73512 0.02
19 0 -11 o 51.313 50.739 0.00 0.73512 0.03
21 2 10 o 3.006 2.961 0.00 0.73497 0.00
26 1 -8 o 0.465 0.455 0.00 0.73471 0.00
23 6 8 o 60.029 58.706 0.00 0.73471 0.06
24 7 -7 o 546.218 532.420 180.00 0.73460 0.55
21 11 7 o 229.801 223.996 0.00 0.73460 0.23
15 0 -12 o 39.267 38.282 0.00 0.73461 0.02
15 0 12 o 2.160 2.106 180.00 0.73461 0.00
29 3 5 o 185.974 180.267 0.00 0.73443 0.19
6 4 -13 o 57.124 55.406 180.00 0.73445 0.06
26 9 -4 o 61.838 59.807 180.00 0.73437 0.06
31 3 -2 o 154.796 149.258 180.00 0.73428 0.16
21 6 -9 o 20.150 19.341 180.00 0.73416 0.02
21 6 9 o 15.801 15.167 180.00 0.73416 0.02
12 10 11 o 6.773 6.489 0.00 0.73411 0.01
18 2 -11 o 45.478 43.568 0.00 0.73411 0.05
24 9 6 o 26.251 24.878 0.00 0.73384 0.03
24 9 -6 o 6.829 6.472 0.00 0.73384 0.01
28 8 2 o 81.032 70.007 180.00 0.73126 0.08
33 0 0 o 308.770 289.403 180.00 0.73358 0.16
26 4 7 o 135.203 126.797 180.00 0.73359 0.14
14 2 12 o 52.207 48.972 180.00 0.73360 0.05
14 2 -12 o 18.240 17.110 0.00 0.73360 0.02
17 4 -11 o 1.373 1.184 180.00 0.73109 0.00
18 7 -10 o 32.222 27.739 0.00 0.73094 0.03
7 3 13 o 579.847 540.114 180.00 0.73344 0.59
20 18 -1 o 59.628 55.069 180.00 0.73325 0.06
13 9 -11 o 26.873 24.647 0.00 0.73310 0.03
13 4 12 o 185.074 159.012 180.00 0.73058 0.19
13 4 -12 o 11.940 10.259 180.00 0.73058 0.01
28 5 5 o 335.493 288.137 180.00 0.73041 0.34
23 12 5 o 0.952 0.818 0.00 0.73041 0.00
20 14 6 o 4.407 3.993 180.00 0.73283 0.00
20 14 -6 o 9.371 8.492 180.00 0.73283 0.01
30 5 -2 o 26.070 22.387 180.00 0.73026 0.03
29 7 1 o 81.983 70.402 180.00 0.73024 0.08
25 3 -8 o 1304.949 1175.557 180.00 0.73269 1.32
22 16 0 o 19.976 17.905 180.00 0.73257 0.02
32 2 0 o 1.579 1.415 0.00 0.73257 0.00
23 13 4 o 199.566 177.334 0.00 0.73235 0.20
25 12 -2 o 83.300 73.788 180.00 0.73226 0.08
21 17 1 o 459.218 406.474 180.00 0.73224 0.47
23 14 -3 o 22.450 19.303 0.00 0.72963 0.02
23 14 3 o 245.895 211.432 0.00 0.72963 0.25
31 4 0 o 390.460 335.823 180.00 0.72957 0.39
20 4 10 o 0.380 0.334 0.00 0.73194 0.00
6 5 13 o 0.130 0.112 0.00 0.72943 0.00
9 1 -13 o 1.033 0.889 0.00 0.72943 0.00
15 7 11 o 75.199 64.838 0.00 0.72910 0.08
16 15 -8 o 5.706 4.937 180.00 0.72870 0.01
24 5 -8 o 29.464 25.491 180.00 0.72870 0.03
25 6 7 o 6.821 5.908 0.00 0.72859 0.01
9 9 12 o 0.729 0.632 180.00 0.72860 0.00
27 8 4 o 18.410 15.992 0.00 0.72836 0.02
27 10 -1 o 0.011 0.009 0.00 0.72826 0.00
23 15 -1 o 5.724 4.979 180.00 0.72826 0.01
14 12 -10 o 47.389 41.435 180.00 0.72796 0.05
22 8 8 o 119.277 104.837 0.00 0.72771 0.12
27 9 3 o 28.084 24.715 0.00 0.72765 0.03
27 9 -3 o 74.182 65.283 0.00 0.72765 0.07
8 3 -13 o 6.293 5.565 180.00 0.72745 0.01
20 18 2 o 1.873 1.664 180.00 0.72729 0.00
20 8 -9 o 7.259 6.470 180.00 0.72717 0.01
20 8 9 o 9.424 8.400 180.00 0.72717 0.01
15 11 10 o 2.722 2.441 0.00 0.72697 0.00
19 6 10 o 38.778 34.772 0.00 0.72697 0.04
18 13 8 o 8.671 7.840 0.00 0.72672 0.01
23 9 -7 o 167.189 151.717 180.00 0.72662 0.17
17 16 7 o 0.029 0.027 180.00 0.72662 0.00
31 0 -5 o 304.134 277.643 180.00 0.72645 0.15
24 11 -5 o 35.966 32.833 0.00 0.72645 0.04
10 0 13 o 1027.718 937.587 0.00 0.72647 0.52
21 17 -2 o 129.052 118.450 180.00 0.72631 0.13
16 6 -11 o 0.084 0.078 180.00 0.72614 0.00
12 6 -12 o 50.684 47.733 180.00 0.72564 0.05
12 6 12 o 86.595 81.554 0.00 0.72564 0.09
30 2 -5 o 55.013 52.157 0.00 0.72547 0.06
9 2 13 o 230.934 218.797 0.00 0.72549 0.23
24 14 1 o 10.531 10.048 0.00 0.72531 0.01
30 0 -6 o 212.451 205.668 0.00 0.72490 0.11
30 0 6 o 41.014 39.705 0.00 0.72490 0.02
19 12 -8 o 0.752 0.731 180.00 0.72477 0.00
30 6 0 o 356.782 348.002 0.00 0.72465 0.36
19 14 -7 o 5.922 5.774 0.00 0.72466 0.01
27 7 5 o 18.523 18.140 180.00 0.72450 0.02
25 11 -4 o 292.867 287.230 0.00 0.72444 0.30
29 7 -2 o 6.507 6.394 180.00 0.72435 0.01
16 13 9 o 2.395 2.359 180.00 0.72423 0.00
16 13 -9 o 32.955 32.457 0.00 0.72423 0.03
29 2 6 o 5.717 5.657 180.00 0.72393 0.01
23 11 -6 o 2.046 2.024 180.00 0.72393 0.00
23 11 6 o 227.442 225.036 0.00 0.72393 0.23
29 2 -6 o 39.856 39.434 180.00 0.72393 0.04
25 13 0 o 0.154 0.153 0.00 0.72368 0.00
7 5 -13 o 89.057 88.352 180.00 0.72354 0.09
32 0 -4 o 0.004 0.004 180.00 0.72346 0.00
12 11 -11 o 18.128 17.984 180.00 0.72322 0.02
17 9 -10 o 0.905 0.898 0.00 0.72307 0.00
23 7 -8 o 38.626 38.242 180.00 0.72283 0.04
20 13 7 o 4.204 4.158 0.00 0.72272 0.00
19 17 5 o 107.174 105.849 180.00 0.72256 0.11
29 4 -5 o 28.129 27.781 0.00 0.72256 0.03
8 4 13 o 25.885 25.569 180.00 0.72258 0.03
19 18 4 o 16.538 16.323 0.00 0.72250 0.02
31 2 -4 o 1.615 1.594 0.00 0.72250 0.00
27 10 2 o 16.847 16.614 0.00 0.72242 0.02
23 15 2 o 21.413 21.117 180.00 0.72242 0.02
28 9 1 o 54.110 53.349 0.00 0.72240 0.05
20 0 11 o 158.570 156.081 0.00 0.72225 0.08
24 8 7 o 2.791 2.731 0.00 0.72176 0.00
20 16 -5 o 7.981 7.792 0.00 0.72160 0.01
19 2 11 o 87.259 84.818 0.00 0.72129 0.09
14 9 11 o 7.584 7.372 0.00 0.72129 0.01
23 0 -10 o 121.210 117.575 0.00 0.72114 0.06
28 4 6 o 32.679 31.644 0.00 0.72103 0.03
28 4 -6 o 31.121 30.135 180.00 0.72103 0.03
21 16 -4 o 84.900 81.618 0.00 0.72057 0.09
33 1 -1 o 88.361 84.801 0.00 0.72047 0.09
18 8 10 o 1.880 1.795 0.00 0.72019 0.00
22 2 -10 o 45.643 43.588 180.00 0.72019 0.05
11 0 -13 o 203.176 192.343 0.00 0.71970 0.10
30 4 -4 o 31.723 29.988 180.00 0.71962 0.03
26 10 4 o 109.769 103.768 180.00 0.71962 0.11
24 14 -2 o 283.587 267.681 180.00 0.71954 0.29
15 8 -11 o 0.833 0.783 0.00 0.71937 0.00
21 10 8 o 1065.058 994.538 180.00 0.71899 1.07
29 0 -7 o 0.603 0.562 180.00 0.71889 0.00
16 1 12 o 22.030 20.531 180.00 0.71889 0.02
11 8 -12 o 72.852 67.892 180.00 0.71889 0.07
11 8 12 o 61.209 57.042 0.00 0.71889 0.06
16 1 -12 o 1.856 1.730 0.00 0.71889 0.00
10 2 -13 o 127.703 118.630 0.00 0.71874 0.13
22 15 4 o 344.418 319.408 0.00 0.71867 0.35
32 3 -1 o 34.986 32.373 180.00 0.71857 0.04
19 10 -9 o 2.815 2.599 180.00 0.71847 0.00
25 1 9 o 378.758 349.708 0.00 0.71847 0.38
25 1 -9 o 11.158 10.302 180.00 0.71847 0.01
19 10 9 o 147.970 136.620 180.00 0.71847 0.15
18 4 11 o 42.929 39.594 180.00 0.71842 0.04
19 16 -6 o 52.853 48.467 180.00 0.71817 0.05
19 16 6 o 37.836 34.697 180.00 0.71817 0.04
19 19 3 o 6.393 5.839 0.00 0.71799 0.01
26 11 -3 o 8.774 8.013 180.00 0.71799 0.01
26 11 3 o 31.623 28.880 180.00 0.71799 0.03
29 8 0 o 447.076 407.751 0.00 0.71793 0.45
28 2 -7 o 115.744 105.593 0.00 0.71794 0.12
22 14 5 o 65.417 59.469 180.00 0.71778 0.07
28 6 -5 o 38.584 35.075 180.00 0.71778 0.04
7 6 13 o 107.703 97.946 180.00 0.71780 0.11
26 12 -1 o 56.756 51.421 0.00 0.71762 0.06
21 4 -10 o 54.320 48.944 180.00 0.71733 0.05
27 1 8 o 0.346 0.311 0.00 0.71709 0.00
22 11 -7 o 111.100 99.549 180.00 0.71699 0.11
15 3 -12 o 38.368 34.378 180.00 0.71700 0.04
15 3 12 o 69.025 61.847 180.00 0.71700 0.07
26 9 5 o 188.433 168.465 180.00 0.71683 0.19
28 9 -2 o 0.907 0.810 0.00 0.71669 0.00
24 3 9 o 0.660 0.589 180.00 0.71658 0.00
24 3 -9 o 14.140 12.606 180.00 0.71658 0.01
27 6 6 o 105.854 94.133 0.00 0.71628 0.11
27 6 -6 o 135.461 120.462 0.00 0.71628 0.14
33 0 3 o 595.447 528.945 180.00 0.71610 0.30
33 0 -3 o 1.088 0.967 180.00 0.71610 0.00
21 18 0 o 186.478 165.609 180.00 0.71604 0.19
9 4 -13 o 3.415 3.031 180.00 0.71591 0.00
11 1 13 o 165.968 147.316 0.00 0.71591 0.17
20 1 -11 o 144.847 128.506 0.00 0.71559 0.15
14 13 10 o 0.481 0.427 180.00 0.71545 0.00
26 3 8 o 132.766 117.912 180.00 0.71521 0.13
22 9 -8 o 17.100 15.187 180.00 0.71521 0.02
22 16 3 o 34.253 30.429 180.00 0.71516 0.03
32 2 3 o 27.170 24.138 180.00 0.71516 0.03
22 16 -3 o 0.170 0.151 180.00 0.71516 0.00
32 2 -3 o 41.746 37.086 0.00 0.71516 0.04
27 4 -7 o 6.089 5.411 180.00 0.71511 0.01
23 13 -5 o 58.273 51.851 0.00 0.71496 0.06
29 6 -4 o 65.651 58.450 0.00 0.71490 0.07
33 1 2 o 169.344 150.902 0.00 0.71482 0.17
20 19 1 o 0.076 0.068 0.00 0.71480 0.00
31 5 -1 o 82.392 73.437 180.00 0.71480 0.08
10 3 13 o 50.115 45.379 180.00 0.71404 0.05
19 3 -11 o 2.929 2.680 180.00 0.71372 0.00
17 6 11 o 3.206 2.934 180.00 0.71372 0.00
23 1 10 o 11.943 10.986 180.00 0.71359 0.01
16 11 -10 o 9.307 8.561 180.00 0.71359 0.01
17 15 8 o 7.735 7.186 180.00 0.71335 0.01
23 10 7 o 47.167 44.016 180.00 0.71325 0.05
14 5 -12 o 163.821 152.841 180.00 0.71325 0.16
14 5 12 o 15.727 14.673 180.00 0.71325 0.02
24 13 -4 o 12.267 11.568 180.00 0.71303 0.01
32 1 4 o 17.939 16.916 0.00 0.71303 0.02
32 3 2 o 3.993 3.781 0.00 0.71295 0.00
22 17 -1 o 4.044 3.833 0.00 0.71294 0.00
27 11 1 o 16.508 15.646 0.00 0.71294 0.02
23 5 9 o 7.532 7.174 180.00 0.71284 0.01
23 5 -9 o 25.817 24.591 180.00 0.71284 0.03
20 6 -10 o 75.487 72.639 0.00 0.71266 0.08
22 13 6 o 44.477 43.073 180.00 0.71255 0.04
22 13 -6 o 150.301 145.556 180.00 0.71255 0.15
18 14 -8 o 110.528 107.838 0.00 0.71242 0.11
31 4 3 o 68.982 67.512 180.00 0.71237 0.07
31 4 -3 o 233.653 228.673 180.00 0.71237 0.24
26 12 2 o 78.336 78.320 0.00 0.71203 0.08
13 11 11 o 41.015 41.430 180.00 0.71187 0.04
17 10 10 o 35.439 36.117 180.00 0.71173 0.04
22 3 10 o 41.056 41.841 0.00 0.71173 0.04
25 5 8 o 1.396 1.444 0.00 0.71150 0.00
27 8 -5 o 20.952 22.028 180.00 0.71124 0.02
8 6 -13 o 69.941 73.457 180.00 0.71126 0.07
31 3 4 o 10.912 11.513 0.00 0.71118 0.01
23 16 1 o 0.007 0.008 180.00 0.71109 0.00
15 15 9 o 5.412 5.776 180.00 0.71099 0.01
14 10 -11 o 74.490 79.710 180.00 0.71095 0.07
24 15 0 o 0.493 0.541 180.00 0.71047 0.00
26 6 -7 o 16.052 17.612 180.00 0.71048 0.02
18 16 -7 o 37.048 40.648 0.00 0.71048 0.04
10 10 12 o 40.620 44.557 180.00 0.71048 0.04
9 5 13 o 59.146 65.328 180.00 0.71034 0.06
34 0 1 o 40.878 45.498 180.00 0.71017 0.02
27 2 -8 o 11.283 13.308 0.00 0.70784 0.01
30 6 3 o 8.050 9.499 0.00 0.70779 0.01
30 6 -3 o 4.050 4.779 180.00 0.70779 0.00
28 3 7 o 241.176 284.746 180.00 0.70774 0.24
13 7 -12 o 22.425 26.475 180.00 0.70775 0.02
13 7 12 o 80.369 94.884 0.00 0.70775 0.08
18 5 -11 o 231.978 259.687 180.00 0.71003 0.23
25 11 5 o 216.314 255.733 0.00 0.70759 0.22
30 5 4 o 1.887 2.232 180.00 0.70753 0.00
26 8 -6 o 148.388 167.655 0.00 0.70978 0.15
26 8 6 o 85.378 96.463 0.00 0.70978 0.09
22 17 2 o 34.428 40.735 0.00 0.70745 0.03
27 11 -2 o 49.014 57.992 180.00 0.70745 0.05
22 7 9 o 61.386 72.664 180.00 0.70734 0.06
22 7 -9 o 0.072 0.085 180.00 0.70734 0.00
16 8 11 o 2.642 3.128 0.00 0.70730 0.00
28 10 0 o 119.871 136.488 180.00 0.70955 0.12
29 1 7 o 1.206 1.373 0.00 0.70956 0.00
19 15 7 o 52.245 59.465 0.00 0.70956 0.05
25 12 4 o 10.901 12.486 0.00 0.70935 0.01
20 19 -2 o 13.292 15.257 0.00 0.70927 0.01
31 5 2 o 15.476 17.764 180.00 0.70927 0.02
30 7 -1 o 111.700 128.282 0.00 0.70925 0.11
33 2 1 o 298.564 342.885 180.00 0.70925 0.30
25 13 3 o 20.114 23.792 0.00 0.70688 0.02
25 13 -3 o 39.217 46.389 180.00 0.70688 0.04
1 0 -14 o 4.868 5.758 0.00 0.70687 0.00
32 0 5 o 14.557 17.193 180.00 0.70668 0.01
11 3 -13 o 554.379 654.886 180.00 0.70670 0.56
32 4 1 o 132.977 156.816 0.00 0.70653 0.13
20 12 8 o 28.828 33.507 180.00 0.70875 0.03
28 0 -8 o 3425.279 3981.149 0.00 0.70875 1.72
19 8 -10 o 96.433 113.317 0.00 0.70626 0.10
12 1 -13 o 15.742 18.382 0.00 0.70851 0.02
28 8 -4 o 24.583 28.744 0.00 0.70844 0.02
21 11 -8 o 911.172 1066.907 180.00 0.70603 0.92
24 7 8 o 179.162 209.783 0.00 0.70603 0.18
18 12 9 o 137.849 161.704 0.00 0.70825 0.14
18 12 -9 o 74.895 87.855 0.00 0.70825 0.08
21 13 -7 o 27.124 31.710 0.00 0.70593 0.03
2 0 14 o 24.439 28.588 0.00 0.70597 0.01
19 18 -5 o 54.783 63.882 0.00 0.70578 0.06
31 2 5 o 90.819 105.902 0.00 0.70578 0.09
21 5 10 o 0.839 0.987 180.00 0.70807 0.00
23 16 -2 o 11.799 13.727 180.00 0.70565 0.01
25 14 -1 o 296.765 345.154 180.00 0.70563 0.30
26 4 -8 o 37.874 43.681 0.00 0.70513 0.04
2 1 -14 o 33.382 38.464 0.00 0.70507 0.03
13 0 13 o 0.298 0.342 180.00 0.70490 0.00
8 7 13 o 65.870 75.681 180.00 0.70490 0.07
20 18 -4 o 21.648 24.842 0.00 0.70483 0.02
34 0 -2 o 31.925 36.595 180.00 0.70475 0.02
17 7 -11 o 658.440 752.960 180.00 0.70460 0.66
27 5 7 o 76.132 86.431 180.00 0.70414 0.08
25 8 -7 o 2.822 3.203 180.00 0.70414 0.00
21 16 5 o 12.030 13.623 0.00 0.70399 0.01
12 2 13 o 77.893 88.235 180.00 0.70400 0.08
21 17 4 o 316.963 358.607 180.00 0.70393 0.32
33 2 -2 o 111.293 125.752 180.00 0.70386 0.11
30 7 2 o 74.129 83.760 0.00 0.70386 0.07
22 12 7 o 24.089 26.927 0.00 0.70325 0.02
3 1 14 o 4.609 5.155 180.00 0.70328 0.00
18 0 -12 o 465.166 520.028 0.00 0.70325 0.23
18 0 12 o 1348.716 1507.779 180.00 0.70325 0.68
30 4 5 o 32.308 36.013 0.00 0.70310 0.03
26 10 -5 o 7.065 7.875 180.00 0.70310 0.01
10 5 -13 o 88.897 99.121 180.00 0.70311 0.09
21 1 11 o 28.606 31.705 0.00 0.70281 0.03
15 13 -10 o 34.416 38.042 180.00 0.70268 0.03
20 7 10 o 1.171 1.295 0.00 0.70268 0.00
18 18 6 o 15.276 16.847 0.00 0.70257 0.02
4 0 -14 o 27.466 30.171 0.00 0.70239 0.01
17 2 12 o 21.670 23.789 0.00 0.70236 0.02
17 2 -12 o 1.795 1.971 180.00 0.70236 0.00
22 15 -5 o 0.000 0.000 0.00 0.70221 0.00
29 7 4 o 1.914 2.091 0.00 0.70215 0.00
29 9 -1 o 76.921 83.824 180.00 0.70206 0.08
26 13 1 o 64.648 70.450 0.00 0.70206 0.07
31 6 1 o 1.697 1.850 180.00 0.70206 0.00
16 12 10 o 11.911 12.890 180.00 0.70179 0.01
25 10 -6 o 41.360 44.626 180.00 0.70169 0.04
25 10 6 o 51.580 55.654 0.00 0.70169 0.05
29 8 3 o 0.037 0.040 0.00 0.70152 0.00
29 8 -3 o 9.214 9.891 180.00 0.70152 0.01
34 1 0 o 2.582 2.767 0.00 0.70146 0.00
3 2 -14 o 2.685 2.881 0.00 0.70151 0.00
11 4 13 o 8.964 9.568 0.00 0.70134 0.01
32 4 -2 o 13.197 14.013 0.00 0.70119 0.01
20 3 11 o 71.149 75.112 0.00 0.70104 0.07
13 12 -11 o 3.811 4.023 0.00 0.70104 0.00
25 6 -8 o 97.363 101.243 180.00 0.70069 0.10
12 9 -12 o 96.013 99.426 180.00 0.70060 0.10
12 9 12 o 0.088 0.092 0.00 0.70060 0.00
27 10 -4 o 57.225 58.637 180.00 0.70039 0.06
23 15 -4 o 8.915 9.135 180.00 0.70039 0.01
25 14 2 o 5.036 5.140 180.00 0.70031 0.01
21 9 9 o 5.408 5.488 180.00 0.70021 0.01
21 9 -9 o 8.204 8.324 180.00 0.70021 0.01
21 15 -6 o 33.306 33.254 180.00 0.69993 0.03
21 15 6 o 6.285 6.275 180.00 0.69993 0.01
21 18 -3 o 549.754 543.297 180.00 0.69976 0.55
21 18 3 o 113.801 112.464 0.00 0.69976 0.11
33 3 0 o 50.281 49.516 180.00 0.69970 0.05
27 12 0 o 2.416 2.379 0.00 0.69970 0.00
5 0 14 o 29.879 29.510 180.00 0.69975 0.02
16 4 12 o 7.714 7.605 0.00 0.69972 0.01
16 4 -12 o 21.971 21.658 180.00 0.69972 0.02
15 10 11 o 48.266 46.291 180.00 0.69928 0.05
24 1 -10 o 41.841 39.801 0.00 0.69915 0.04
17 16 -8 o 1.071 1.005 0.00 0.69893 0.00
23 9 8 o 0.344 0.322 180.00 0.69893 0.00
20 20 0 o 57.281 53.411 0.00 0.69883 0.03
26 7 7 o 492.617 459.642 180.00 0.69884 0.50
4 2 14 o 11.489 10.742 180.00 0.69887 0.01
29 6 5 o 0.551 0.510 180.00 0.69869 0.00
18 10 -10 o 89.082 80.687 180.00 0.69828 0.09
5 1 -14 o 21.687 19.412 0.00 0.69800 0.02
9 7 -13 o 70.398 62.643 180.00 0.69784 0.07
24 14 4 o 48.206 42.798 0.00 0.69776 0.05
19 5 11 o 8.744 7.716 180.00 0.69754 0.01
16 9 -11 o 172.246 151.982 180.00 0.69754 0.17
23 3 -10 o 26.479 23.295 0.00 0.69741 0.03
19 14 8 o 369.229 323.592 180.00 0.69719 0.37
32 1 -5 o 57.501 50.257 180.00 0.69695 0.06
24 13 5 o 16.310 14.255 180.00 0.69695 0.02
14 0 -13 o 1445.863 1263.901 0.00 0.69697 0.73
10 6 13 o 65.876 57.586 180.00 0.69697 0.07
29 9 2 o 22.801 19.912 180.00 0.69682 0.02
31 6 -2 o 0.120 0.104 0.00 0.69682 0.00
26 13 -2 o 1.845 1.611 0.00 0.69682 0.00
21 19 -1 o 0.000 0.000 180.00 0.69680 0.00
17 14 -9 o 358.956 313.327 180.00 0.69672 0.36
17 14 9 o 772.598 674.388 0.00 0.69672 0.78
22 0 -11 o 37.451 32.687 0.00 0.69667 0.02
31 1 6 o 9.515 8.305 180.00 0.69644 0.01
31 1 -6 o 39.235 34.248 0.00 0.69644 0.04
23 17 0 o 55.415 48.424 0.00 0.69622 0.06
32 5 0 o 11.785 10.298 0.00 0.69622 0.01
24 10 -7 o 58.136 50.797 180.00 0.69623 0.06
4 3 -14 o 43.759 38.227 180.00 0.69627 0.04
13 2 -13 o 16.983 14.853 180.00 0.69610 0.02
30 8 1 o 28.311 24.800 180.00 0.69594 0.03
22 18 1 o 171.176 149.949 180.00 0.69594 0.17
21 2 -11 o 182.438 160.056 0.00 0.69581 0.18
19 9 10 o 1.737 1.526 180.00 0.69568 0.00
20 13 -8 o 5.939 5.238 0.00 0.69546 0.01
18 17 7 o 1.251 1.106 180.00 0.69537 0.00
15 6 -12 o 0.486 0.430 180.00 0.69538 0.00
15 6 12 o 59.575 52.625 0.00 0.69538 0.06
31 3 -5 o 0.600 0.532 180.00 0.69522 0.00
28 9 4 o 0.176 0.156 180.00 0.69517 0.00
27 0 -9 o 0.089 0.079 180.00 0.69499 0.00
27 0 9 o 1.679 1.494 180.00 0.69499 0.00
30 3 -6 o 3.427 3.070 0.00 0.69472 0.00
30 3 6 o 78.561 70.385 180.00 0.69472 0.08
24 8 -8 o 65.099 58.490 180.00 0.69460 0.07
24 15 3 o 16.104 14.486 0.00 0.69455 0.02
24 15 -3 o 5.659 5.090 180.00 0.69455 0.01
6 1 14 o 5.972 5.373 0.00 0.69455 0.01
26 2 9 o 152.157 138.295 180.00 0.69413 0.15
26 2 -9 o 23.341 21.215 180.00 0.69413 0.02
22 5 -10 o 35.362 32.270 0.00 0.69396 0.04
28 10 -3 o 284.811 261.357 180.00 0.69370 0.29
28 10 3 o 92.327 84.724 180.00 0.69370 0.09
20 15 -7 o 8.585 7.885 0.00 0.69366 0.01
25 12 -5 o 25.939 23.885 0.00 0.69351 0.03
12 4 -13 o 223.685 205.920 0.00 0.69353 0.23
33 1 -4 o 29.054 26.777 0.00 0.69346 0.03
28 11 -1 o 0.841 0.776 0.00 0.69337 0.00
20 4 -11 o 19.739 18.246 180.00 0.69324 0.02
5 3 14 o 18.983 17.601 180.00 0.69284 0.02
7 0 -14 o 377.104 349.645 0.00 0.69284 0.19
28 8 5 o 0.266 0.246 0.00 0.69266 0.00
14 1 13 o 0.822 0.762 0.00 0.69267 0.00
24 16 -1 o 3.858 3.577 0.00 0.69251 0.00
18 7 11 o 484.405 448.865 180.00 0.69239 0.49
25 0 10 o 44.077 40.807 180.00 0.69226 0.02
24 12 -6 o 20.787 19.228 180.00 0.69216 0.02
24 12 6 o 10.156 9.394 180.00 0.69216 0.01
29 0 8 o 2.716 2.509 0.00 0.69204 0.00
30 1 -7 o 12.223 11.281 0.00 0.69195 0.01
21 14 7 o 1694.474 1563.832 0.00 0.69195 1.71
25 9 7 o 80.700 74.478 180.00 0.69195 0.08
6 2 -14 o 4.742 4.378 0.00 0.69199 0.00
11 11 12 o 16.361 15.100 180.00 0.69196 0.02
30 5 -5 o 23.110 21.286 180.00 0.69181 0.02
32 3 -4 o 670.670 617.257 180.00 0.69176 0.68
21 19 2 o 75.341 69.265 180.00 0.69168 0.08
20 11 -9 o 47.414 43.520 180.00 0.69158 0.05
25 4 9 o 180.518 165.692 0.00 0.69158 0.18
25 4 -9 o 95.487 87.645 0.00 0.69158 0.10
20 11 9 o 0.344 0.315 180.00 0.69158 0.00
24 2 10 o 30.973 28.349 0.00 0.69141 0.03
29 5 6 o 122.706 112.123 0.00 0.69131 0.12
29 5 -6 o 96.693 88.354 0.00 0.69131 0.10
28 2 8 o 43.728 39.878 180.00 0.69120 0.04
31 7 0 o 1.160 1.056 180.00 0.69110 0.00
9 8 13 o 120.385 109.382 180.00 0.69098 0.12
13 3 13 o 27.903 25.353 0.00 0.69098 0.03
26 12 -4 o 2.062 1.872 0.00 0.69091 0.00
30 8 -2 o 5.128 4.649 180.00 0.69084 0.01
22 18 -2 o 4.618 4.187 180.00 0.69084 0.00
26 14 0 o 238.267 217.313 180.00 0.68858 0.24
8 0 14 o 7.537 6.867 0.00 0.68862 0.00
21 17 -5 o 200.722 183.607 0.00 0.68844 0.20
20 19 4 o 10.660 9.763 180.00 0.68839 0.01
31 5 -4 o 40.552 37.139 180.00 0.68839 0.04
15 14 10 o 3.405 3.075 180.00 0.69057 0.00
28 11 2 o 0.136 0.125 0.00 0.68832 0.00
29 10 1 o 90.590 83.143 0.00 0.68830 0.09
22 11 8 o 178.901 161.203 180.00 0.69035 0.18
29 3 -7 o 4.412 3.972 0.00 0.69026 0.00
25 15 1 o 116.648 104.867 0.00 0.68998 0.12
35 0 -1 o 1987.839 1787.080 0.00 0.68998 1.00
7 2 14 o 2.132 1.983 180.00 0.68778 0.00
14 12 11 o 49.758 44.726 0.00 0.68985 0.05
12 5 13 o 131.551 122.840 0.00 0.68763 0.13
24 16 2 o 9.948 9.321 0.00 0.68749 0.01
24 6 -9 o 7.944 7.462 180.00 0.68739 0.01
24 6 9 o 73.384 68.928 180.00 0.68739 0.07
5 4 -14 o 23.269 20.948 0.00 0.68946 0.02
14 8 -12 o 0.077 0.069 180.00 0.68943 0.00
14 8 12 o 32.281 29.066 0.00 0.68943 0.03
18 11 10 o 37.411 35.267 0.00 0.68722 0.04
20 18 5 o 15.646 14.107 0.00 0.68928 0.02
11 6 -13 o 23.607 21.281 180.00 0.68930 0.02
34 2 -1 o 75.831 68.488 0.00 0.68914 0.08
23 10 -8 o 63.371 59.988 0.00 0.68701 0.06
23 12 -7 o 45.379 43.023 0.00 0.68692 0.05
28 5 -7 o 427.750 405.537 180.00 0.68692 0.43
19 1 12 o 0.555 0.526 180.00 0.68693 0.00
19 1 -12 o 19.132 18.138 180.00 0.68693 0.02
19 6 -11 o 59.793 54.105 180.00 0.68901 0.06
15 11 -11 o 32.158 29.099 180.00 0.68901 0.03
29 7 -5 o 1.574 1.496 0.00 0.68678 0.00
27 11 4 o 0.175 0.167 180.00 0.68673 0.00
22 17 -4 o 1.741 1.656 0.00 0.68673 0.00
17 12 -10 o 20.610 18.688 180.00 0.68889 0.02
23 4 10 o 272.261 246.864 0.00 0.68889 0.28
21 7 -10 o 445.299 403.761 0.00 0.68889 0.45
33 4 -1 o 19.119 18.201 0.00 0.68664 0.02
27 4 8 o 34.702 31.591 180.00 0.68867 0.04
20 17 6 o 32.053 30.613 0.00 0.68629 0.03
20 17 -6 o 1.926 1.840 180.00 0.68629 0.00
28 7 6 o 692.639 661.531 0.00 0.68629 0.70
28 7 -6 o 568.787 543.242 0.00 0.68629 0.58
34 1 -3 o 2.147 2.052 0.00 0.68613 0.00
34 1 3 o 52.017 49.726 180.00 0.68613 0.05
8 1 -14 o 1.832 1.751 0.00 0.68613 0.00
17 9 11 o 1.120 1.072 180.00 0.68569 0.00
6 4 14 o 0.562 0.538 180.00 0.68530 0.00
18 3 12 o 223.344 213.810 0.00 0.68527 0.23
18 3 -12 o 1354.264 1296.456 180.00 0.68527 1.37
23 15 5 o 87.731 83.985 180.00 0.68513 0.09
27 10 5 o 0.319 0.305 0.00 0.68513 0.00
23 16 4 o 1.210 1.159 0.00 0.68508 0.00
35 0 2 o 774.060 741.076 0.00 0.68501 0.39
25 15 -2 o 0.158 0.152 0.00 0.68501 0.00
22 6 10 o 0.010 0.010 180.00 0.68474 0.00
18 16 8 o 24.563 23.541 180.00 0.68453 0.02
26 6 8 o 66.380 63.616 0.00 0.68453 0.07
27 12 3 o 9.348 8.961 180.00 0.68449 0.01
33 3 3 o 10.113 9.694 180.00 0.68449 0.01
27 12 -3 o 7.320 7.017 0.00 0.68449 0.01
33 3 -3 o 61.393 58.849 180.00 0.68449 0.06
30 9 0 o 5.315 5.096 0.00 0.68443 0.01
7 3 -14 o 54.901 52.628 0.00 0.68448 0.06
15 1 -13 o 9.179 8.807 180.00 0.68432 0.01
34 0 4 o 7.149 6.861 0.00 0.68425 0.00
34 2 2 o 70.551 67.748 0.00 0.68418 0.07
16 16 9 o 137.897 132.525 0.00 0.68408 0.14
23 0 11 o 304.721 292.957 0.00 0.68404 0.15
29 1 -8 o 116.315 112.229 0.00 0.68371 0.12
19 15 -8 o 0.200 0.193 0.00 0.68371 0.00
20 20 3 o 51.479 49.701 0.00 0.68367 0.05
24 11 7 o 265.085 256.079 180.00 0.68363 0.27
31 0 7 o 259.843 251.016 180.00 0.68363 0.13
10 8 -13 o 0.141 0.136 0.00 0.68350 0.00
30 7 -4 o 2.739 2.653 180.00 0.68344 0.00
33 2 4 o 11.615 11.254 180.00 0.68344 0.01
29 10 -2 o 32.350 31.379 0.00 0.68337 0.03
27 13 -1 o 84.513 82.002 0.00 0.68335 0.09
18 8 -11 o 18.139 17.640 180.00 0.68323 0.02
22 2 11 o 9.469 9.209 0.00 0.68323 0.01
30 2 7 o 27.624 27.110 180.00 0.68281 0.03
24 14 -5 o 280.979 276.702 180.00 0.68267 0.29
11 7 13 o 709.573 698.508 180.00 0.68269 0.72
14 3 -13 o 645.738 635.667 0.00 0.68269 0.66
32 6 -1 o 33.710 33.317 0.00 0.68253 0.03
20 9 -10 o 10.383 10.331 0.00 0.68229 0.01
28 3 -8 o 11.109 11.117 0.00 0.68208 0.01
27 7 -7 o 44.846 44.989 180.00 0.68200 0.05
13 10 -12 o 41.719 41.847 180.00 0.68200 0.04
17 5 -12 o 5.939 5.958 180.00 0.68200 0.01
17 5 12 o 1.210 1.214 180.00 0.68200 0.00
13 10 12 o 3.203 3.213 0.00 0.68200 0.00
33 4 2 o 73.474 74.238 180.00 0.68174 0.07
19 13 9 o 288.445 292.202 0.00 0.68164 0.29
23 8 9 o 107.851 109.256 180.00 0.68164 0.11
23 8 -9 o 11.919 12.074 180.00 0.68164 0.01
19 13 -9 o 0.701 0.710 0.00 0.68164 0.00
23 14 -6 o 129.674 132.217 0.00 0.68138 0.13
23 14 6 o 16.228 16.547 0.00 0.68138 0.02
32 5 -3 o 82.493 84.408 180.00 0.68123 0.08
23 17 3 o 5.378 5.503 0.00 0.68123 0.01
23 17 -3 o 0.687 0.703 180.00 0.68123 0.00
32 5 3 o 4.677 4.785 180.00 0.68123 0.00
22 19 0 o 41.962 42.985 0.00 0.68118 0.04
9 1 14 o 24.671 25.247 180.00 0.68122 0.03
6 5 -14 o 79.750 81.612 0.00 0.68122 0.08
32 4 4 o 185.308 190.500 0.00 0.68100 0.19
21 4 11 o 195.273 201.468 0.00 0.68079 0.20
21 13 8 o 2.458 2.548 180.00 0.68046 0.00
29 4 7 o 4.638 4.812 180.00 0.68038 0.00
19 17 -7 o 4.631 4.805 180.00 0.68038 0.00
28 9 -5 o 4.267 4.433 180.00 0.68024 0.00
16 0 13 o 19.530 20.285 180.00 0.68026 0.01
25 14 -4 o 0.197 0.205 180.00 0.68019 0.00
21 20 1 o 0.000 0.001 0.00 0.68011 0.00
35 1 1 o 4.105 4.269 180.00 0.68011 0.00
27 9 -6 o 21.660 22.570 0.00 0.67977 0.02
27 9 6 o 10.536 10.978 0.00 0.67977 0.01
20 16 7 o 0.953 0.994 0.00 0.67957 0.00
8 3 14 o 4.962 5.174 0.00 0.67961 0.01
15 2 13 o 11.241 11.724 180.00 0.67945 0.01
13 5 -13 o 185.076 193.033 0.00 0.67945 0.19
28 12 1 o 398.188 415.378 180.00 0.67930 0.41
14 13 -11 o 103.351 107.823 0.00 0.67918 0.11
21 8 10 o 0.523 0.546 0.00 0.67906 0.00
25 8 8 o 46.711 48.731 0.00 0.67886 0.05
27 5 -8 o 42.145 43.968 0.00 0.67886 0.04
10 0 -14 o 18.677 19.484 180.00 0.67880 0.01
33 1 5 o 125.005 130.406 0.00 0.67864 0.13
27 13 2 o 139.269 145.290 0.00 0.67852 0.14
34 3 1 o 0.033 0.034 180.00 0.67850 0.00
23 18 -1 o 0.288 0.300 180.00 0.67850 0.00
26 0 -10 o 0.866 0.904 0.00 0.67826 0.00
16 14 -10 o 77.690 81.070 0.00 0.67826 0.08
22 12 -8 o 17.435 18.202 0.00 0.67806 0.02
9 2 -14 o 6.501 6.789 0.00 0.67800 0.01
32 6 2 o 4.173 4.365 180.00 0.67772 0.00
16 11 11 o 67.024 70.170 0.00 0.67758 0.07
23 1 -11 o 33.475 35.046 0.00 0.67758 0.03
25 2 -10 o 207.762 217.732 0.00 0.67746 0.21
17 13 10 o 4.175 4.375 180.00 0.67746 0.00
16 7 -12 o 86.248 90.656 180.00 0.67718 0.09
16 7 12 o 92.421 97.144 0.00 0.67718 0.09
32 3 5 o 12.409 13.065 180.00 0.67704 0.01
14 4 13 o 145.913 153.603 0.00 0.67706 0.15
31 6 4 o 94.335 99.390 180.00 0.67699 0.10
26 13 4 o 18.431 19.418 0.00 0.67699 0.02
29 9 -4 o 17.700 18.649 180.00 0.67699 0.02
31 8 -1 o 27.573 29.083 0.00 0.67691 0.03
24 17 1 o 0.393 0.415 0.00 0.67691 0.00
20 6 11 o 0.608 0.642 180.00 0.67679 0.00
31 7 -3 o 131.189 139.333 180.00 0.67642 0.13
31 7 3 o 249.516 265.006 180.00 0.67642 0.25
25 16 0 o 5.314 5.648 180.00 0.67637 0.01
29 11 0 o 27.686 29.425 180.00 0.67637 0.03
28 6 7 o 21.812 23.179 180.00 0.67638 0.02
22 14 -7 o 1.115 1.185 180.00 0.67638 0.00
7 5 14 o 12.783 13.578 0.00 0.67641 0.01
26 12 5 o 98.344 104.714 0.00 0.67625 0.10
10 9 13 o 149.119 158.736 0.00 0.67626 0.15
17 10 -11 o 56.618 60.502 180.00 0.67599 0.06
22 3 -11 o 3.885 4.151 180.00 0.67599 0.00
26 9 -7 o 239.949 257.791 180.00 0.67559 0.24
8 4 -14 o 14.268 15.323 0.00 0.67562 0.01
35 1 -2 o 115.816 124.818 180.00 0.67534 0.12
21 20 -2 o 25.290 27.255 180.00 0.67534 0.03
33 5 1 o 45.902 49.479 0.00 0.67532 0.05
24 4 -10 o 65.946 71.276 0.00 0.67509 0.07
12 7 -13 o 97.397 105.730 180.00 0.67469 0.10
28 12 -2 o 105.777 114.985 180.00 0.67455 0.11
36 0 0 o 0.136 0.150 0.00 0.67245 0.00
10 2 14 o 9.221 10.140 0.00 0.67249 0.01
22 10 -9 o 6.409 6.974 0.00 0.67446 0.01
22 10 9 o 73.262 79.724 0.00 0.67446 0.07
22 17 5 o 66.676 73.296 0.00 0.67233 0.07
27 11 -5 o 12.202 13.414 180.00 0.67233 0.01
21 19 -4 o 208.710 229.403 180.00 0.67228 0.21
19 11 -10 o 34.078 37.143 0.00 0.67430 0.03
24 17 -2 o 143.044 157.206 180.00 0.67221 0.15
31 8 2 o 3.779 4.153 0.00 0.67221 0.00
26 15 -1 o 70.692 77.686 0.00 0.67219 0.07
28 1 9 o 1.542 1.694 0.00 0.67211 0.00
28 1 -9 o 1.909 2.097 180.00 0.67211 0.00
26 7 -8 o 101.980 111.381 180.00 0.67410 0.10
26 14 -3 o 0.533 0.583 180.00 0.67406 0.00
26 14 3 o 458.604 501.085 180.00 0.67406 0.47
23 13 7 o 10.027 10.959 0.00 0.67402 0.01
20 10 10 o 90.402 99.257 0.00 0.67196 0.09
26 11 6 o 104.910 115.142 180.00 0.67187 0.11
19 19 6 o 72.532 79.606 0.00 0.67187 0.07
26 11 -6 o 0.958 1.052 0.00 0.67187 0.00
20 19 -5 o 138.820 151.927 0.00 0.67389 0.14
31 5 5 o 29.628 32.425 180.00 0.67389 0.03
34 3 -2 o 0.018 0.020 180.00 0.67377 0.00
23 18 2 o 74.647 81.772 0.00 0.67377 0.08
24 10 8 o 0.080 0.087 180.00 0.67176 0.00
35 2 0 o 16.503 18.093 0.00 0.67167 0.02
7 6 -14 o 9.578 10.503 0.00 0.67171 0.01
17 0 -13 o 276.069 302.459 180.00 0.67156 0.14
30 8 4 o 51.463 56.356 180.00 0.67150 0.05
22 18 4 o 94.925 103.952 180.00 0.67150 0.10
19 8 11 o 7.937 8.679 0.00 0.67130 0.01
11 0 14 o 53.365 58.656 180.00 0.67327 0.03
12 12 12 o 0.823 0.905 0.00 0.67324 0.00
26 1 10 o 33.747 36.869 0.00 0.67119 0.03
23 6 -10 o 19.817 21.650 180.00 0.67119 0.02
13 6 13 o 12.642 13.903 0.00 0.67312 0.01
18 17 -8 o 820.454 894.766 180.00 0.67099 0.84
27 8 7 o 27.762 30.252 180.00 0.67091 0.03
21 0 -12 o 1895.986 2066.095 0.00 0.67091 0.97
15 9 -12 o 5.595 6.097 180.00 0.67091 0.01
15 9 12 o 0.549 0.599 180.00 0.67091 0.00
21 0 12 o 1776.909 1936.334 0.00 0.67091 0.91
21 5 -11 o 166.099 182.793 180.00 0.67285 0.17
23 16 -5 o 43.118 46.923 0.00 0.67077 0.04
16 2 -13 o 157.604 171.538 0.00 0.67079 0.16
33 5 -2 o 52.780 57.365 0.00 0.67066 0.05
32 7 1 o 30.079 32.685 0.00 0.67064 0.03
18 15 -9 o 51.588 56.006 180.00 0.67057 0.05
18 15 9 o 221.978 240.990 0.00 0.67057 0.23
27 3 -9 o 21.578 23.426 180.00 0.67057 0.02
27 3 9 o 23.661 25.688 0.00 0.67057 0.02
33 0 6 o 32.033 34.671 180.00 0.67032 0.02
33 0 -6 o 2.055 2.224 180.00 0.67032 0.00
30 9 3 o 8.607 9.296 180.00 0.67017 0.01
30 9 -3 o 62.610 67.624 180.00 0.67017 0.06
11 1 -14 o 0.835 0.901 180.00 0.67016 0.00
9 4 14 o 124.316 134.263 0.00 0.67016 0.13
20 2 -12 o 1.095 1.182 180.00 0.67014 0.00
20 2 12 o 0.989 1.068 180.00 0.67014 0.00
34 0 -5 o 5.625 6.060 0.00 0.67000 0.00
30 10 -1 o 50.111 53.873 0.00 0.66987 0.05
25 3 10 o 74.439 79.701 0.00 0.66964 0.08
22 16 6 o 4.663 4.984 180.00 0.66955 0.00
22 16 -6 o 29.725 31.770 180.00 0.66955 0.03
32 2 -6 o 136.808 146.220 0.00 0.66955 0.14
32 2 6 o 0.030 0.032 180.00 0.66955 0.00
20 15 8 o 16.085 17.157 0.00 0.66945 0.02
34 4 0 o 45.563 48.505 0.00 0.66936 0.05
30 7 5 o 0.857 0.910 180.00 0.66924 0.00
33 2 -5 o 1.097 1.165 180.00 0.66924 0.00
28 11 -4 o 449.140 476.377 180.00 0.66919 0.46
27 14 1 o 33.769 35.751 180.00 0.66911 0.03
10 3 -14 o 38.680 40.462 180.00 0.66863 0.04
11 9 -13 o 109.207 113.774 0.00 0.66848 0.11
15 4 -13 o 48.093 50.104 0.00 0.66848 0.05
24 16 -4 o 19.059 19.821 0.00 0.66842 0.02
15 13 11 o 40.122 41.487 0.00 0.66822 0.04
20 7 -11 o 0.009 0.009 180.00 0.66822 0.00
21 14 -8 o 2973.650 3046.690 0.00 0.66792 3.06
25 9 -8 o 8.149 8.349 0.00 0.66792 0.01
30 1 8 o 91.536 93.784 180.00 0.66792 0.09
25 11 -7 o 6.043 6.176 0.00 0.66784 0.01
19 4 -12 o 27.140 27.743 0.00 0.66784 0.03
19 4 12 o 0.837 0.855 180.00 0.66784 0.00
12 8 13 o 0.001 0.001 0.00 0.66772 0.00
26 15 2 o 162.183 164.578 0.00 0.66759 0.17
26 5 -9 o 92.718 93.832 0.00 0.66750 0.10
26 5 9 o 127.786 129.322 0.00 0.66750 0.13
16 12 -11 o 86.509 87.452 0.00 0.66746 0.09
31 4 6 o 81.105 81.516 180.00 0.66726 0.08
31 4 -6 o 20.890 20.996 0.00 0.66726 0.02
22 19 -3 o 76.523 76.609 0.00 0.66711 0.08
22 19 3 o 99.978 100.089 0.00 0.66711 0.10
28 13 0 o 0.811 0.811 180.00 0.66706 0.00
32 0 -7 o 400.890 400.931 0.00 0.66707 0.21
32 4 -5 o 126.283 125.874 0.00 0.66695 0.13
17 1 13 o 39.100 38.987 180.00 0.66696 0.04
24 5 10 o 1.253 1.238 180.00 0.66659 0.00
16 15 10 o 24.935 24.642 180.00 0.66659 0.03
29 3 8 o 11.611 11.427 0.00 0.66640 0.01
19 18 7 o 183.383 180.182 180.00 0.66632 0.19
31 2 -7 o 6.554 6.440 180.00 0.66632 0.01
8 6 14 o 10.248 10.075 0.00 0.66635 0.01
25 14 5 o 20.697 20.285 180.00 0.66619 0.02
25 15 4 o 3.356 3.287 0.00 0.66614 0.00
35 0 -4 o 3923.987 3842.382 0.00 0.66614 2.03
32 7 -2 o 1.023 1.001 0.00 0.66608 0.00
21 12 -9 o 27.479 26.834 180.00 0.66598 0.03
21 12 9 o 161.148 157.365 180.00 0.66598 0.17
22 8 -10 o 68.460 66.694 180.00 0.66583 0.07
21 21 0 o 4119.505 3997.363 0.00 0.66555 2.13
33 6 0 o 1.417 1.375 180.00 0.66555 0.00
9 5 -14 o 12.129 11.775 0.00 0.66559 0.01
16 3 13 o 86.789 84.108 0.00 0.66545 0.09
34 2 -4 o 46.957 45.474 0.00 0.66538 0.05
30 10 2 o 25.029 24.220 180.00 0.66532 0.03
24 1 11 o 0.541 0.523 180.00 0.66519 0.00
18 13 -10 o 25.236 24.360 0.00 0.66508 0.03
21 16 -7 o 200.224 192.808 0.00 0.66481 0.21
14 6 -13 o 0.002 0.002 0.00 0.66469 0.00
29 10 4 o 30.898 29.708 0.00 0.66463 0.03
27 14 -2 o 43.455 41.759 180.00 0.66457 0.05
31 9 1 o 71.069 68.286 0.00 0.66455 0.07
18 10 11 o 59.750 57.354 0.00 0.66444 0.06
26 10 7 o 4.701 4.497 180.00 0.66406 0.00
30 4 -7 o 36.869 35.263 180.00 0.66406 0.04
12 1 14 o 10.212 9.770 0.00 0.66409 0.01
18 6 -12 o 157.565 150.709 180.00 0.66406 0.16
18 6 12 o 0.835 0.798 180.00 0.66406 0.00
22 20 -1 o 1.333 1.271 0.00 0.66380 0.00
23 3 11 o 152.405 145.173 180.00 0.66369 0.16
19 12 10 o 50.898 48.419 0.00 0.66358 0.05
30 6 6 o 88.808 84.387 180.00 0.66349 0.09
30 6 -6 o 113.371 107.726 180.00 0.66349 0.12
28 5 8 o 17.292 16.409 180.00 0.66339 0.02
23 12 8 o 79.090 75.053 180.00 0.66339 0.08
24 18 0 o 370.424 351.102 180.00 0.66330 0.38
22 15 7 o 1.159 1.099 180.00 0.66331 0.00
14 11 12 o 361.136 342.365 0.00 0.66331 0.37
14 11 -12 o 1293.201 1225.983 180.00 0.66331 1.34
26 13 -5 o 9.091 8.604 180.00 0.66318 0.01
29 9 5 o 11.118 10.522 180.00 0.66318 0.01
31 6 -5 o 21.093 19.962 180.00 0.66318 0.02
33 4 -4 o 58.452 55.280 0.00 0.66313 0.06
23 19 1 o 5.353 5.057 0.00 0.66305 0.01
25 7 -9 o 4.985 4.704 180.00 0.66298 0.01
25 7 9 o 257.734 243.229 180.00 0.66298 0.27
25 13 6 o 55.380 52.098 180.00 0.66274 0.06
25 13 -6 o 19.906 18.726 0.00 0.66274 0.02
29 11 -3 o 141.097 132.481 180.00 0.66260 0.15
25 16 3 o 7.481 7.025 180.00 0.66260 0.01
29 11 3 o 0.103 0.097 0.00 0.66260 0.00
25 16 -3 o 6.569 6.168 0.00 0.66260 0.01
11 3 14 o 56.526 53.068 0.00 0.66259 0.06
15 5 13 o 13.810 12.942 0.00 0.66245 0.01
19 9 -11 o 119.622 111.768 180.00 0.66220 0.12
23 7 10 o 3.824 3.569 0.00 0.66209 0.00
36 1 -1 o 8.911 8.280 0.00 0.66157 0.01
29 12 -1 o 119.437 110.986 0.00 0.66157 0.12
13 8 -13 o 1.105 1.017 0.00 0.65949 0.00
32 6 -4 o 11.685 10.750 180.00 0.65943 0.01
22 20 2 o 125.803 115.651 180.00 0.65937 0.13
1 1 15 o 0.033 0.030 0.00 0.65929 0.00
25 0 -11 o 504.931 463.429 0.00 0.65924 0.26
8 7 -14 o 9.225 8.555 0.00 0.66111 0.01
13 0 -14 o 8.903 8.256 0.00 0.66111 0.00
21 10 -10 o 21.359 19.574 0.00 0.65913 0.02
11 10 13 o 279.487 259.101 0.00 0.66097 0.29
27 7 8 o 15.013 13.722 0.00 0.65895 0.02
36 0 -3 o 22.622 20.664 180.00 0.65891 0.01
36 0 3 o 34.045 31.097 0.00 0.65891 0.02
32 1 7 o 91.212 83.271 180.00 0.65887 0.10
24 13 -7 o 32.721 29.872 0.00 0.65887 0.03
17 8 12 o 16.871 15.403 180.00 0.65887 0.02
17 8 -12 o 104.127 95.065 180.00 0.65887 0.11
22 5 11 o 1.828 1.694 0.00 0.66072 0.00
21 19 5 o 269.474 245.578 180.00 0.65875 0.28
23 19 -2 o 68.099 61.963 180.00 0.65864 0.07
17 17 9 o 2.015 1.832 0.00 0.65855 0.00
31 0 -8 o 760.012 703.857 180.00 0.66042 0.40
24 11 -8 o 3.007 2.785 180.00 0.66042 0.00
24 2 -11 o 42.184 38.315 180.00 0.65851 0.04
32 8 0 o 10.877 10.071 180.00 0.66033 0.01
29 6 -7 o 20.711 19.176 180.00 0.66034 0.02
12 2 -14 o 25.217 23.351 180.00 0.66037 0.03
29 8 -6 o 232.738 210.857 180.00 0.65832 0.24
29 8 6 o 228.998 207.469 180.00 0.65832 0.24
27 13 -4 o 33.433 30.938 0.00 0.66017 0.03
31 9 -2 o 16.470 15.237 0.00 0.66011 0.02
35 3 -1 o 0.075 0.069 180.00 0.66009 0.00
25 17 -1 o 149.079 137.904 180.00 0.66009 0.16
35 2 -3 o 67.029 60.632 0.00 0.65818 0.07
35 2 3 o 24.849 22.478 180.00 0.65818 0.03
11 4 -14 o 5.331 4.822 0.00 0.65817 0.01
0 0 15 o 522.950 483.611 0.00 0.66003 0.09
30 8 -5 o 10.956 9.896 180.00 0.65802 0.01
22 18 -5 o 171.567 154.964 0.00 0.65802 0.18
18 1 -13 o 3.647 3.295 180.00 0.65803 0.00
14 7 13 o 1077.522 973.338 0.00 0.65803 1.13
26 16 1 o 184.125 166.151 180.00 0.65789 0.19
30 2 -8 o 0.014 0.013 180.00 0.65968 0.00
3 0 -15 o 489.212 441.282 180.00 0.65783 0.26
3 0 15 o 30.208 27.248 0.00 0.65783 0.02
15 14 -11 o 19.079 17.206 0.00 0.65778 0.02
10 5 14 o 3.881 3.578 0.00 0.65963 0.00
27 1 -10 o 4.496 4.053 0.00 0.65767 0.00
19 17 8 o 67.207 60.568 180.00 0.65749 0.07
29 4 -8 o 3.463 3.121 0.00 0.65749 0.00
31 3 7 o 39.182 35.314 180.00 0.65741 0.04
35 1 4 o 26.099 23.535 0.00 0.65724 0.03
21 20 4 o 1.240 1.118 180.00 0.65724 0.00
29 12 2 o 187.335 168.986 0.00 0.65718 0.20
36 1 2 o 287.729 259.546 180.00 0.65718 0.30
30 11 1 o 13.371 12.063 0.00 0.65716 0.01
34 5 -1 o 8.084 7.292 0.00 0.65716 0.01
24 9 9 o 164.859 148.798 0.00 0.65709 0.17
24 9 -9 o 54.851 49.507 0.00 0.65709 0.06
2 2 15 o 84.943 76.657 180.00 0.65710 0.09
21 18 6 o 17.319 15.665 0.00 0.65686 0.02
21 18 -6 o 43.998 39.796 180.00 0.65686 0.05
20 16 -8 o 20.317 18.399 0.00 0.65676 0.02
27 15 0 o 34.691 31.454 0.00 0.65668 0.04
17 3 -13 o 36.499 33.143 180.00 0.65658 0.04
28 12 4 o 56.662 51.503 180.00 0.65652 0.06
20 14 9 o 1.465 1.336 180.00 0.65637 0.00
20 14 -9 o 0.054 0.049 180.00 0.65637 0.00
21 7 11 o 999.879 911.990 0.00 0.65633 1.05
23 4 -11 o 39.790 36.293 180.00 0.65633 0.04
17 12 11 o 2.150 1.961 0.00 0.65633 0.00
22 9 10 o 0.297 0.271 180.00 0.65622 0.00
26 3 -10 o 4.058 3.709 180.00 0.65622 0.00
34 4 -3 o 0.094 0.087 0.00 0.65600 0.00
34 4 3 o 8.415 7.732 180.00 0.65600 0.01
25 12 7 o 13.061 12.010 180.00 0.65596 0.01
28 11 5 o 45.949 42.386 180.00 0.65584 0.05
34 3 4 o 12.116 11.190 180.00 0.65579 0.01
23 18 -4 o 24.547 22.671 180.00 0.65579 0.03
35 3 2 o 63.114 58.387 180.00 0.65573 0.07
25 17 2 o 5.856 5.417 0.00 0.65573 0.01
28 8 -7 o 0.119 0.112 180.00 0.65524 0.00
9 7 14 o 7.626 7.151 0.00 0.65527 0.01
24 16 5 o 149.683 141.049 0.00 0.65512 0.16
4 1 15 o 19.146 18.152 0.00 0.65494 0.02
4 1 -15 o 4.078 3.867 180.00 0.65494 0.00
18 11 -11 o 7.728 7.339 180.00 0.65489 0.01
17 15 -10 o 44.181 42.114 0.00 0.65478 0.05
30 5 7 o 53.943 51.894 180.00 0.65452 0.06
14 0 14 o 343.684 330.288 0.00 0.65455 0.18
10 6 -14 o 48.970 47.061 0.00 0.65455 0.05
22 1 -12 o 4.900 4.713 0.00 0.65453 0.01
13 13 12 o 5.125 4.929 180.00 0.65453 0.01
22 1 12 o 0.029 0.027 0.00 0.65453 0.00
24 17 4 o 76.156 73.707 0.00 0.65435 0.08
31 8 -4 o 9.123 8.830 180.00 0.65435 0.01
18 14 10 o 63.029 61.646 180.00 0.65406 0.07
22 14 8 o 5.089 5.010 0.00 0.65388 0.01
28 6 -8 o 1.155 1.137 0.00 0.65388 0.00
28 13 3 o 42.956 42.350 180.00 0.65384 0.05
28 13 -3 o 0.002 0.002 180.00 0.65384 0.00
31 10 0 o 112.870 111.457 0.00 0.65380 0.12
13 2 14 o 18.059 17.810 0.00 0.65383 0.02
19 0 13 o 112.896 111.866 180.00 0.65370 0.06
16 5 -13 o 38.451 38.100 180.00 0.65370 0.04
26 16 -2 o 79.250 78.848 180.00 0.65358 0.08
3 3 15 o 29.223 29.147 180.00 0.65350 0.03
25 5 -10 o 24.963 25.025 180.00 0.65335 0.03
26 9 8 o 0.003 0.003 180.00 0.65317 0.00
21 3 -12 o 147.523 149.031 0.00 0.65309 0.16
21 3 12 o 1187.023 1199.158 180.00 0.65309 1.26
25 15 -5 o 100.682 102.070 180.00 0.65297 0.11
35 0 5 o 2126.134 2155.451 0.00 0.65297 1.13
18 2 13 o 1.795 1.819 0.00 0.65298 0.00
12 10 -13 o 1.918 1.943 180.00 0.65298 0.00
33 5 4 o 27.220 27.629 0.00 0.65292 0.03
34 5 2 o 4.372 4.445 0.00 0.65286 0.00
30 11 -2 o 1.710 1.738 0.00 0.65286 0.00
33 7 -1 o 323.072 328.582 180.00 0.65285 0.34
37 0 1 o 1.102 1.121 0.00 0.65285 0.00
22 6 -11 o 0.006 0.006 180.00 0.65274 0.00
24 15 -6 o 44.669 45.752 0.00 0.65255 0.05
24 15 6 o 5.880 6.022 0.00 0.65255 0.01
33 6 3 o 73.346 75.328 180.00 0.65241 0.08
21 21 3 o 1696.138 1741.969 0.00 0.65241 1.80
33 6 -3 o 8.348 8.573 0.00 0.65241 0.01
20 18 -7 o 1.693 1.740 0.00 0.65238 0.00
16 10 12 o 0.602 0.618 180.00 0.65238 0.00
16 10 -12 o 45.672 46.933 0.00 0.65238 0.05
34 2 5 o 66.664 68.652 0.00 0.65226 0.07
13 9 13 o 1.512 1.557 0.00 0.65227 0.00
36 2 1 o 8.647 8.921 180.00 0.65214 0.01
28 14 -1 o 1639.961 1691.802 0.00 0.65214 1.74
28 10 -6 o 0.670 0.694 180.00 0.65184 0.00
28 10 6 o 108.559 112.360 180.00 0.65184 0.12
23 13 -8 o 82.429 85.380 0.00 0.65174 0.09
21 17 7 o 356.784 369.753 180.00 0.65167 0.38
12 4 14 o 1.232 1.277 180.00 0.65170 0.00
29 10 -5 o 31.214 32.370 0.00 0.65155 0.03
6 0 15 o 187.882 194.975 0.00 0.65137 0.10
6 0 -15 o 74.408 77.217 0.00 0.65137 0.04
28 0 10 o 472.673 490.671 0.00 0.65122 0.25
20 12 -10 o 115.789 120.197 0.00 0.65122 0.12
14 1 -14 o 3.107 3.226 0.00 0.65099 0.00
17 4 13 o 445.354 462.338 180.00 0.65086 0.47
30 0 9 o 8.165 8.475 180.00 0.65065 0.00
30 0 -9 o 4.730 4.910 180.00 0.65065 0.00
5 2 -15 o 4.716 4.895 180.00 0.65066 0.01
5 2 15 o 163.589 169.807 0.00 0.65066 0.17
20 9 11 o 0.700 0.726 0.00 0.65062 0.00
27 2 10 o 37.440 38.859 0.00 0.65051 0.04
4 4 15 o 30.812 32.233 180.00 0.64856 0.03
24 18 -3 o 76.054 78.926 180.00 0.65029 0.08
24 18 3 o 108.581 112.681 180.00 0.65029 0.12
29 7 7 o 49.820 51.701 0.00 0.65026 0.05
20 5 -12 o 46.609 48.369 0.00 0.65026 0.05
20 5 12 o 29.717 30.840 180.00 0.65026 0.03
26 4 10 o 54.432 57.037 180.00 0.64841 0.06
33 4 5 o 0.342 0.355 0.00 0.65014 0.00
26 15 -4 o 19.498 20.235 0.00 0.65009 0.02
35 4 1 o 159.700 165.740 180.00 0.65002 0.17
11 6 14 o 55.009 57.786 180.00 0.64818 0.06
23 11 -9 o 7.438 7.719 180.00 0.64995 0.01
23 11 9 o 90.581 94.014 0.00 0.64995 0.10
29 2 -9 o 141.232 146.585 180.00 0.64995 0.15
29 2 9 o 30.367 31.518 180.00 0.64995 0.03
30 10 -4 o 60.594 63.790 0.00 0.64799 0.07
36 2 -2 o 29.242 30.804 180.00 0.64793 0.03
28 14 2 o 661.887 697.241 0.00 0.64793 0.71
28 4 9 o 5.943 6.266 0.00 0.64785 0.01
28 4 -9 o 232.568 245.211 180.00 0.64785 0.25
21 8 -11 o 11.850 12.498 0.00 0.64781 0.01
23 20 0 o 165.431 171.853 0.00 0.64955 0.18
13 3 -14 o 17.060 17.720 180.00 0.64958 0.02
9 8 -14 o 6.743 7.004 0.00 0.64958 0.01
15 7 -13 o 0.323 0.336 0.00 0.64945 0.00
32 8 3 o 152.971 161.829 180.00 0.64750 0.16
32 8 -3 o 15.848 16.766 0.00 0.64750 0.02
27 13 5 o 127.523 135.055 0.00 0.64734 0.14
16 6 13 o 30.124 31.900 180.00 0.64736 0.03
27 14 4 o 1.006 1.065 0.00 0.64730 0.00
21 11 10 o 45.551 47.424 0.00 0.64911 0.05
24 7 -10 o 71.125 74.049 180.00 0.64911 0.08
32 9 -1 o 7.684 8.143 0.00 0.64722 0.01
24 19 -1 o 40.069 42.463 180.00 0.64722 0.04
27 8 -8 o 7.321 7.632 0.00 0.64893 0.01
16 14 11 o 214.474 227.401 0.00 0.64712 0.23
26 0 11 o 202.027 214.204 180.00 0.64712 0.11
27 10 -7 o 44.278 46.186 180.00 0.64885 0.05
23 15 -7 o 0.172 0.179 180.00 0.64885 0.00
32 7 4 o 375.060 391.800 180.00 0.64869 0.40
33 7 2 o 35.178 36.770 180.00 0.64863 0.04
37 0 -2 o 134.698 140.792 0.00 0.64863 0.07
29 13 1 o 15.487 16.190 180.00 0.64862 0.02
22 21 1 o 16.502 17.251 180.00 0.64862 0.02
24 14 7 o 131.974 140.028 180.00 0.64677 0.14
12 5 -14 o 7.322 7.769 0.00 0.64679 0.01
32 6 5 o 23.056 24.461 180.00 0.64665 0.02
34 6 1 o 145.692 154.534 0.00 0.64653 0.16
7 1 15 o 133.153 141.208 0.00 0.64647 0.14
7 1 -15 o 67.493 71.576 0.00 0.64647 0.07
17 13 -11 o 55.258 58.591 0.00 0.64643 0.06
25 2 11 o 79.884 84.702 180.00 0.64643 0.09
25 11 8 o 76.111 80.588 0.00 0.64615 0.08
30 12 0 o 2.223 2.352 0.00 0.64607 0.00
19 7 -12 o 28.164 29.807 180.00 0.64608 0.03
19 7 12 o 254.550 269.395 180.00 0.64608 0.27
35 4 -2 o 15.663 16.549 180.00 0.64586 0.02
25 18 1 o 166.784 176.193 0.00 0.64584 0.18
19 16 9 o 55.730 58.839 180.00 0.64577 0.06
19 16 -9 o 14.608 15.423 180.00 0.64577 0.02
34 1 6 o 63.225 66.621 180.00 0.64555 0.07
34 1 -6 o 3.403 3.585 180.00 0.64555 0.00
32 0 8 o 750.063 789.620 180.00 0.64546 0.41
37 1 0 o 35.098 36.919 180.00 0.64538 0.04
26 17 0 o 51.231 53.888 180.00 0.64538 0.06
12 11 13 o 102.792 108.019 0.00 0.64528 0.11
6 3 -15 o 0.619 0.650 180.00 0.64510 0.00
6 3 15 o 48.823 51.202 0.00 0.64510 0.05
25 6 10 o 53.044 55.536 180.00 0.64495 0.06
31 2 8 o 31.945 33.380 0.00 0.64477 0.03
19 18 -8 o 18.454 19.283 0.00 0.64477 0.02
28 9 7 o 2.022 2.111 180.00 0.64470 0.00
15 12 12 o 11.324 11.823 180.00 0.64470 0.01
15 12 -12 o 0.096 0.100 0.00 0.64470 0.00
35 1 -5 o 0.269 0.281 0.00 0.64458 0.00
21 20 -5 o 10.627 11.081 180.00 0.64458 0.01
20 0 -13 o 22.462 23.422 180.00 0.64460 0.01
29 13 -2 o 148.645 154.802 180.00 0.64448 0.16
22 21 -2 o 19.401 20.205 180.00 0.64448 0.02
27 6 9 o 70.282 73.122 0.00 0.64440 0.08
27 6 -9 o 68.376 71.139 0.00 0.64440 0.07
24 4 11 o 390.639 406.265 180.00 0.64436 0.42
33 3 -6 o 11.754 12.198 180.00 0.64418 0.01
27 12 6 o 0.097 0.101 180.00 0.64418 0.00
33 3 6 o 1.998 2.074 180.00 0.64418 0.00
27 12 -6 o 76.712 79.613 0.00 0.64418 0.08
27 15 3 o 45.263 46.905 180.00 0.64405 0.05
27 15 -3 o 0.323 0.335 0.00 0.64405 0.00
36 3 0 o 137.985 142.918 0.00 0.64401 0.15
15 1 14 o 0.113 0.118 180.00 0.64404 0.00
28 12 -5 o 2.323 2.403 180.00 0.64390 0.00
14 9 -13 o 18.361 18.998 180.00 0.64391 0.02
19 2 -13 o 82.457 85.318 180.00 0.64391 0.09
19 11 11 o 221.517 228.626 180.00 0.64368 0.24
23 9 -10 o 0.144 0.149 180.00 0.64358 0.00
17 16 10 o 28.590 29.475 0.00 0.64358 0.03
20 20 6 o 106.523 109.726 0.00 0.64350 0.12
21 16 8 o 50.273 51.734 180.00 0.64340 0.05
33 1 -7 o 24.838 25.539 0.00 0.64333 0.03
10 8 14 o 4.283 4.406 180.00 0.64336 0.00
34 3 -5 o 17.336 17.806 180.00 0.64322 0.02
23 18 5 o 73.309 75.294 0.00 0.64322 0.08
31 9 4 o 47.354 48.615 0.00 0.64317 0.05
32 9 2 o 6.881 7.060 0.00 0.64312 0.01
24 19 2 o 17.920 18.387 180.00 0.64312 0.02
30 4 8 o 4.642 4.746 180.00 0.64272 0.01
26 10 -8 o 4.574 4.676 180.00 0.64272 0.00
11 7 -14 o 30.399 31.069 0.00 0.64268 0.03
14 3 14 o 38.725 39.578 180.00 0.64268 0.04
15 8 13 o 34.576 35.300 180.00 0.64255 0.04
22 20 -4 o 48.919 49.921 0.00 0.64249 0.05
34 6 -2 o 146.588 149.521 0.00 0.64244 0.16
5 5 15 o 42.234 43.056 180.00 0.64236 0.05
19 14 -10 o 0.092 0.094 180.00 0.64222 0.00
22 15 -8 o 84.297 85.726 0.00 0.64205 0.09
32 3 -7 o 443.686 450.959 180.00 0.64197 0.49
31 8 5 o 5.668 5.756 180.00 0.64186 0.01
24 17 -5 o 13.828 14.042 0.00 0.64186 0.02
18 4 -13 o 10.764 10.931 0.00 0.64187 0.01
23 19 4 o 27.227 27.638 180.00 0.64182 0.03
25 18 -2 o 5.967 6.054 0.00 0.64176 0.01
27 16 -1 o 21.862 22.180 0.00 0.64174 0.02
33 8 1 o 154.691 156.938 0.00 0.64174 0.17
22 13 9 o 0.750 0.761 0.00 0.64168 0.00
22 13 -9 o 0.605 0.613 0.00 0.64168 0.00
20 10 -11 o 17.705 17.947 180.00 0.64164 0.02
32 5 6 o 1.205 1.220 0.00 0.64146 0.00
32 5 -6 o 70.467 71.310 180.00 0.64146 0.08
23 17 -6 o 16.499 16.696 0.00 0.64146 0.02
23 17 6 o 12.226 12.372 180.00 0.64146 0.01
31 10 3 o 8.710 8.803 180.00 0.64133 0.01
31 10 -3 o 6.630 6.701 180.00 0.64133 0.01
35 5 0 o 54.055 54.605 180.00 0.64129 0.06
26 12 -7 o 1.217 1.230 180.00 0.64130 0.00
20 19 7 o 34.548 33.890 180.00 0.63928 0.04
31 5 -7 o 0.584 0.573 0.00 0.63928 0.00
9 0 -15 o 2.716 2.735 0.00 0.64101 0.00
9 0 15 o 203.630 205.058 0.00 0.64101 0.11
23 6 11 o 6.963 7.007 0.00 0.64097 0.01
26 1 -11 o 0.490 0.493 180.00 0.64097 0.00
35 3 -4 o 29.887 29.266 180.00 0.63913 0.03
25 17 -4 o 555.755 544.224 180.00 0.63913 0.61
20 13 10 o 51.412 51.675 0.00 0.64087 0.06
28 15 1 o 0.012 0.012 180.00 0.63905 0.00
16 0 -14 o 22.426 22.471 0.00 0.64065 0.01
18 9 12 o 19.111 19.143 180.00 0.64063 0.02
18 9 -12 o 13.534 13.556 0.00 0.64063 0.01
33 5 -5 o 80.927 80.914 0.00 0.64051 0.09
29 12 -4 o 37.066 37.035 0.00 0.64047 0.04
36 1 -4 o 208.792 208.620 0.00 0.64047 0.23
31 11 -1 o 5.443 5.433 180.00 0.64039 0.01
24 0 -12 o 1311.030 1279.582 180.00 0.63862 0.73
24 0 12 o 289.690 282.742 0.00 0.63862 0.16
8 2 15 o 31.383 31.294 0.00 0.64034 0.03
8 2 -15 o 5.944 5.927 0.00 0.64034 0.01
17 6 -13 o 0.091 0.089 180.00 0.63851 0.00
19 3 13 o 75.906 74.072 180.00 0.63851 0.08
24 8 10 o 3.044 3.028 180.00 0.64019 0.00
7 4 -15 o 311.545 304.046 180.00 0.63833 0.35
7 4 15 o 164.939 160.969 0.00 0.63833 0.18
13 5 14 o 1.744 1.728 180.00 0.63998 0.00
15 2 -14 o 29.768 29.506 180.00 0.63998 0.03
29 0 -10 o 1.268 1.238 0.00 0.63819 0.00
20 1 13 o 26.569 26.280 180.00 0.63985 0.03
32 1 -8 o 118.563 115.866 180.00 0.63802 0.13
24 13 8 o 123.166 120.364 180.00 0.63802 0.14
27 11 7 o 12.537 12.257 180.00 0.63795 0.01
22 17 -7 o 3.750 3.667 0.00 0.63795 0.00
26 8 -9 o 55.985 55.205 0.00 0.63966 0.06
26 8 9 o 43.516 42.910 0.00 0.63966 0.05
14 4 -14 o 86.650 84.705 180.00 0.63797 0.10
23 2 12 o 0.001 0.001 0.00 0.63795 0.00
23 2 -12 o 2.604 2.546 180.00 0.63795 0.00
25 3 -11 o 445.420 438.991 180.00 0.63962 0.49
26 15 5 o 105.938 103.674 0.00 0.63784 0.12
27 16 2 o 0.096 0.094 0.00 0.63774 0.00
33 8 -2 o 167.795 164.360 0.00 0.63774 0.19
29 6 8 o 16.866 16.559 0.00 0.63935 0.02
28 2 -10 o 0.377 0.370 180.00 0.63752 0.00
31 7 -6 o 205.664 202.081 180.00 0.63744 0.23
31 7 6 o 52.553 51.638 180.00 0.63744 0.06
23 20 -3 o 1.093 1.075 0.00 0.63732 0.00
23 20 3 o 24.041 23.657 0.00 0.63732 0.03
34 7 0 o 1.105 1.088 0.00 0.63728 0.00
29 14 0 o 2.036 2.004 0.00 0.63728 0.00
10 9 -14 o 0.007 0.007 0.00 0.63731 0.00
13 11 -13 o 47.997 47.306 180.00 0.63718 0.05
26 16 4 o 0.247 0.244 0.00 0.63713 0.00
24 5 -11 o 14.828 14.652 0.00 0.63696 0.02
16 15 -11 o 10.222 10.100 0.00 0.63696 0.01
22 11 -10 o 0.408 0.403 180.00 0.63686 0.00
31 3 -8 o 29.586 29.310 0.00 0.63669 0.03
23 16 7 o 66.379 65.796 180.00 0.63662 0.07
32 7 -5 o 95.717 94.952 180.00 0.63651 0.11
14 10 13 o 317.035 314.480 180.00 0.63652 0.35
34 5 -4 o 6.608 6.557 0.00 0.63647 0.01
30 11 4 o 15.097 14.980 180.00 0.63647 0.02
31 11 2 o 22.797 22.628 180.00 0.63641 0.03
22 8 11 o 1.767 1.754 0.00 0.63630 0.00
34 0 7 o 0.930 0.924 180.00 0.63596 0.00
12 7 14 o 33.687 33.461 180.00 0.63599 0.04
22 4 -12 o 13.348 13.257 0.00 0.63597 0.01
14 14 12 o 1548.614 1538.142 0.00 0.63597 1.73
22 4 12 o 80.460 79.916 180.00 0.63597 0.09
30 10 5 o 0.092 0.092 0.00 0.63585 0.00
18 5 13 o 193.849 192.489 0.00 0.63586 0.22
32 10 1 o 83.310 82.681 180.00 0.63574 0.09
38 0 -1 o 198.943 197.441 180.00 0.63574 0.11
18 13 11 o 1.351 1.340 180.00 0.63564 0.00
27 4 -10 o 110.704 109.714 180.00 0.63554 0.12
26 14 -6 o 7.736 7.661 180.00 0.63546 0.01
26 14 6 o 47.985 47.522 180.00 0.63546 0.05
25 12 -8 o 0.711 0.703 0.00 0.63538 0.00
22 22 0 o 267.173 264.105 0.00 0.63530 0.15
30 7 -7 o 23.999 23.726 0.00 0.63531 0.03
33 2 7 o 13.828 13.670 0.00 0.63531 0.02
27 14 -5 o 1.824 1.800 0.00 0.63520 0.00
28 15 -2 o 45.035 44.402 180.00 0.63510 0.05
37 2 -1 o 3.489 3.439 0.00 0.63508 0.00
6 6 15 o 6.712 6.611 180.00 0.63503 0.01
28 8 8 o 4.831 4.735 0.00 0.63472 0.01
13 6 -14 o 24.418 23.914 0.00 0.63468 0.03
18 18 9 o 159.826 155.678 0.00 0.63436 0.18
10 1 -15 o 29.175 28.423 180.00 0.63438 0.03
10 1 15 o 19.750 19.242 180.00 0.63438 0.02
19 12 -11 o 11.531 11.225 180.00 0.63433 0.01
23 10 10 o 21.693 21.083 180.00 0.63423 0.02
30 5 -8 o 43.303 41.971 0.00 0.63407 0.05
30 12 3 o 92.878 89.968 180.00 0.63403 0.10
30 12 -3 o 21.606 20.929 0.00 0.63403 0.02
17 11 12 o 1017.569 985.179 180.00 0.63400 1.15
17 11 -12 o 84.817 82.117 0.00 0.63400 0.10
16 8 -13 o 9.875 9.546 180.00 0.63390 0.01
23 21 -1 o 86.241 83.211 0.00 0.63378 0.10
25 10 -9 o 332.721 320.730 180.00 0.63371 0.38
25 10 9 o 25.367 24.453 0.00 0.63371 0.03
26 17 3 o 23.419 22.475 180.00 0.63338 0.03
37 1 -3 o 0.060 0.057 180.00 0.63338 0.00
37 1 3 o 27.420 26.315 180.00 0.63338 0.03
26 17 -3 o 25.282 24.264 180.00 0.63338 0.03
25 19 0 o 27.234 26.125 0.00 0.63334 0.03
32 4 7 o 1.408 1.351 0.00 0.63335 0.00
17 0 14 o 64.876 62.260 0.00 0.63337 0.04
24 20 1 o 0.224 0.215 180.00 0.63313 0.00
36 4 -1 o 1.477 1.414 0.00 0.63313 0.00
9 3 15 o 110.093 105.292 180.00 0.63307 0.12
9 3 -15 o 18.054 17.266 180.00 0.63307 0.02
23 7 -11 o 33.427 31.954 0.00 0.63303 0.04
31 9 -5 o 33.790 31.898 0.00 0.63130 0.04
37 2 2 o 24.706 23.321 180.00 0.63120 0.03
25 14 -7 o 279.091 265.914 0.00 0.63270 0.32
16 2 14 o 43.618 41.569 0.00 0.63272 0.05
21 6 12 o 0.439 0.418 180.00 0.63270 0.00
21 6 -12 o 32.663 31.122 0.00 0.63270 0.04
37 0 4 o 76.985 73.249 0.00 0.63255 0.04
33 7 -4 o 189.126 179.948 180.00 0.63255 0.22
30 13 -1 o 29.348 27.907 0.00 0.63248 0.03
21 15 -9 o 9.057 8.607 180.00 0.63241 0.01
21 15 9 o 0.680 0.646 0.00 0.63241 0.00
15 4 14 o 1.299 1.227 180.00 0.63079 0.00
11 9 14 o 13.766 13.005 180.00 0.63079 0.02
22 20 5 o 3.451 3.263 180.00 0.63065 0.00
21 1 -13 o 14.133 13.360 180.00 0.63066 0.02
18 16 -10 o 324.141 307.718 0.00 0.63228 0.37
26 6 -10 o 2.024 1.921 0.00 0.63228 0.00
30 9 -6 o 26.733 25.362 180.00 0.63221 0.03
30 9 6 o 0.017 0.016 180.00 0.63221 0.00
26 18 -1 o 2.244 2.123 0.00 0.63054 0.00
20 18 8 o 41.765 39.598 180.00 0.63212 0.05
36 3 -3 o 53.031 50.266 0.00 0.63208 0.06
36 3 3 o 22.179 21.022 0.00 0.63208 0.03
8 5 -15 o 0.450 0.425 0.00 0.63049 0.00
8 5 15 o 3.007 2.846 180.00 0.63049 0.00
21 10 11 o 528.672 500.546 180.00 0.63045 0.61
33 9 0 o 19.469 18.448 180.00 0.63204 0.02
28 3 10 o 91.015 86.247 180.00 0.63035 0.10
17 7 13 o 826.125 782.308 0.00 0.63195 0.94
28 14 -4 o 3282.691 3107.460 0.00 0.63190 3.74
36 2 4 o 24.689 23.371 180.00 0.63190 0.03
38 0 2 o 207.834 196.675 180.00 0.63184 0.12
32 10 -2 o 12.611 11.934 180.00 0.63184 0.01
29 7 -8 o 0.030 0.029 0.00 0.63019 0.00
29 9 -7 o 0.914 0.869 0.00 0.63012 0.00
31 6 7 o 28.003 26.603 180.00 0.63012 0.03
26 13 7 o 15.415 14.644 180.00 0.63012 0.02
12 8 -14 o 42.296 40.169 0.00 0.63015 0.05
23 19 -5 o 61.401 58.409 180.00 0.63001 0.07
19 15 10 o 38.276 36.179 0.00 0.63164 0.04
29 1 10 o 36.272 34.284 180.00 0.63164 0.04
35 4 4 o 25.992 24.738 180.00 0.62997 0.03
23 21 2 o 24.418 23.258 0.00 0.62992 0.03
35 6 -1 o 30.005 28.584 180.00 0.62990 0.03
21 17 -8 o 91.734 86.650 0.00 0.63147 0.10
31 1 9 o 25.771 24.574 180.00 0.62984 0.03
31 1 -9 o 8.070 7.695 0.00 0.62984 0.01
22 19 6 o 166.766 159.505 0.00 0.62963 0.19
22 19 -6 o 105.993 101.378 0.00 0.62963 0.12
35 5 -3 o 424.582 406.885 180.00 0.62951 0.49
35 5 3 o 1.750 1.677 0.00 0.62951 0.00
17 1 -14 o 7.362 7.056 0.00 0.62951 0.01
13 12 13 o 0.958 0.920 0.00 0.62938 0.00
20 3 -13 o 38.149 36.639 180.00 0.62938 0.04
36 4 2 o 7.718 7.426 180.00 0.62928 0.01
24 20 -2 o 0.848 0.816 0.00 0.62928 0.00
27 1 11 o 0.122 0.118 180.00 0.62917 0.00
21 13 -10 o 5.038 4.864 0.00 0.62907 0.01
23 15 8 o 41.930 40.601 180.00 0.62891 0.05
27 10 8 o 1.975 1.912 180.00 0.62891 0.00
29 12 5 o 62.104 60.314 0.00 0.62874 0.07
36 1 5 o 1.727 1.677 180.00 0.62874 0.00
22 21 4 o 9.306 9.044 0.00 0.62869 0.01
29 13 4 o 37.178 36.131 0.00 0.62869 0.04
30 13 2 o 73.343 71.342 180.00 0.62864 0.09
31 12 1 o 28.245 27.480 180.00 0.62863 0.03
27 17 1 o 16.762 16.308 180.00 0.62863 0.02
30 3 9 o 13.199 12.855 0.00 0.62856 0.02
30 3 -9 o 157.607 153.500 0.00 0.62856 0.18
16 3 -14 o 29.686 29.059 0.00 0.62823 0.03
20 8 -12 o 30.062 29.436 0.00 0.62821 0.03
20 8 12 o 1.102 1.079 0.00 0.62821 0.00
15 10 -13 o 3.254 3.191 180.00 0.62811 0.00
26 3 11 o 0.173 0.170 180.00 0.62790 0.00
22 9 -11 o 11.507 11.317 0.00 0.62790 0.01
27 5 10 o 2.006 1.975 180.00 0.62780 0.00
25 8 -10 o 6.376 6.278 0.00 0.62780 0.01
28 16 0 o 17.781 17.557 0.00 0.62757 0.02
14 6 14 o 1.680 1.658 0.00 0.62760 0.00
25 17 5 o 0.090 0.089 180.00 0.62747 0.00
35 3 5 o 375.725 371.377 180.00 0.62747 0.44
32 9 -4 o 0.049 0.049 180.00 0.62743 0.00
24 19 -4 o 55.923 55.299 180.00 0.62743 0.07
38 1 1 o 8.713 8.622 180.00 0.62736 0.01
12 0 -15 o 112.217 111.093 0.00 0.62731 0.07
12 0 15 o 25.177 24.925 180.00 0.62731 0.01
22 12 10 o 100.037 99.159 0.00 0.62717 0.12
24 14 -8 o 671.041 666.013 180.00 0.62701 0.79
16 9 13 o 173.201 172.098 0.00 0.62685 0.20
19 5 -13 o 81.865 81.344 0.00 0.62685 0.10
34 6 4 o 32.180 31.986 0.00 0.62680 0.04
26 18 2 o 96.070 95.523 180.00 0.62674 0.11
24 12 -9 o 121.182 120.545 180.00 0.62666 0.14
24 12 9 o 36.032 35.842 180.00 0.62666 0.04
11 2 15 o 20.959 20.848 180.00 0.62668 0.02
11 2 -15 o 44.948 44.709 0.00 0.62668 0.05
7 7 15 o 419.075 416.844 0.00 0.62668 0.49
17 15 11 o 0.373 0.371 180.00 0.62663 0.00
10 4 15 o 396.691 398.515 180.00 0.62479 0.47
10 4 -15 o 49.311 49.537 0.00 0.62479 0.06
21 19 -7 o 417.996 416.537 180.00 0.62631 0.49
16 13 12 o 1.483 1.477 180.00 0.62632 0.00
16 13 -12 o 4.042 4.028 0.00 0.62632 0.00
22 0 13 o 36.881 36.767 180.00 0.62622 0.02
25 18 4 o 337.859 336.888 0.00 0.62617 0.40
35 6 2 o 53.367 53.225 180.00 0.62611 0.06
37 3 1 o 4.701 4.689 180.00 0.62610 0.01
29 5 -9 o 10.817 10.791 0.00 0.62604 0.01
29 5 9 o 41.245 41.148 0.00 0.62604 0.05
11 10 -14 o 85.414 86.110 180.00 0.62446 0.10
18 14 -11 o 333.707 332.961 0.00 0.62600 0.39
25 16 -6 o 204.092 203.771 0.00 0.62584 0.24
29 11 6 o 0.001 0.001 0.00 0.62584 0.00
29 11 -6 o 6.237 6.227 180.00 0.62584 0.01
25 16 6 o 3.495 3.490 180.00 0.62584 0.00
34 7 -3 o 59.649 59.583 180.00 0.62572 0.07
29 14 -3 o 13.238 13.223 180.00 0.62572 0.02
34 7 3 o 9.444 9.434 180.00 0.62572 0.01
29 14 3 o 11.409 11.396 0.00 0.62572 0.01
32 11 0 o 371.405 371.058 0.00 0.62568 0.44
22 18 7 o 3.155 3.152 180.00 0.62568 0.00
30 8 7 o 6.670 6.664 180.00 0.62568 0.01
15 5 -14 o 5.759 5.753 0.00 0.62571 0.01
26 7 10 o 28.472 28.870 180.00 0.62404 0.03
26 16 -5 o 0.779 0.779 180.00 0.62558 0.00
21 2 13 o 60.157 60.124 180.00 0.62559 0.07
34 8 -1 o 27.839 27.839 180.00 0.62547 0.03
33 1 8 o 14.201 14.435 0.00 0.62388 0.02
22 22 3 o 4.260 4.333 180.00 0.62384 0.01
28 11 -7 o 513.295 522.321 180.00 0.62381 0.61
25 5 11 o 18.355 18.364 180.00 0.62538 0.02
20 4 13 o 21.624 22.039 180.00 0.62372 0.03
38 1 -2 o 7.788 7.952 0.00 0.62361 0.01
36 5 1 o 60.641 61.931 0.00 0.62360 0.07
29 15 -1 o 0.006 0.006 180.00 0.62360 0.00
28 9 -8 o 81.713 81.872 0.00 0.62512 0.10
20 12 11 o 67.467 69.018 180.00 0.62351 0.08
28 0 -11 o 827.485 846.517 0.00 0.62351 0.49
30 11 -5 o 20.354 20.420 180.00 0.62495 0.02
34 5 5 o 2.833 2.842 0.00 0.62495 0.00
27 17 -2 o 2.530 2.540 180.00 0.62486 0.00
31 12 -2 o 23.449 23.543 180.00 0.62486 0.03
24 16 -7 o 2.203 2.266 180.00 0.62319 0.00
13 8 14 o 0.102 0.105 0.00 0.62322 0.00
18 7 -13 o 51.989 53.587 0.00 0.62310 0.06
27 2 -11 o 26.871 27.805 0.00 0.62289 0.03
36 0 -6 o 1.752 1.819 180.00 0.62272 0.00
36 0 6 o 0.933 0.969 180.00 0.62272 0.00
32 3 8 o 0.893 0.928 0.00 0.62264 0.00
25 1 -12 o 93.576 97.364 180.00 0.62258 0.11
19 10 12 o 30.058 31.275 180.00 0.62258 0.04
19 10 -12 o 0.102 0.106 180.00 0.62258 0.00
25 1 12 o 53.112 55.262 0.00 0.62258 0.06
27 16 -4 o 61.004 63.624 0.00 0.62243 0.07
33 8 4 o 38.147 39.785 0.00 0.62243 0.05
37 3 -2 o 7.525 7.855 180.00 0.62238 0.01
20 17 9 o 0.093 0.097 0.00 0.62230 0.00
28 7 -9 o 1061.950 1109.700 0.00 0.62230 1.28
28 7 9 o 1272.569 1329.790 0.00 0.62230 1.53
20 17 -9 o 41.762 43.640 180.00 0.62230 0.05
24 10 -10 o 66.345 69.442 180.00 0.62218 0.08
35 2 -6 o 5.827 6.105 180.00 0.62211 0.01
35 2 6 o 1.733 1.816 0.00 0.62211 0.00
26 12 8 o 11.314 11.865 0.00 0.62202 0.01
25 19 -3 o 50.583 53.065 180.00 0.62199 0.06
25 19 3 o 5.784 6.067 180.00 0.62199 0.01
14 7 -14 o 271.322 284.652 0.00 0.62198 0.33
18 1 14 o 36.087 37.860 0.00 0.62198 0.04
34 8 2 o 84.459 88.787 180.00 0.62176 0.10
9 6 15 o 6.536 6.874 0.00 0.62170 0.01
9 6 -15 o 0.384 0.403 0.00 0.62170 0.00
24 7 11 o 46.935 49.373 180.00 0.62165 0.06
21 11 -11 o 417.139 438.805 180.00 0.62165 0.50
18 17 10 o 101.136 106.435 0.00 0.62156 0.12
25 15 7 o 129.810 136.675 180.00 0.62134 0.16
35 0 -7 o 1319.136 1388.903 0.00 0.62134 0.80
24 3 -12 o 0.047 0.050 180.00 0.62134 0.00
24 3 12 o 48.706 51.283 180.00 0.62134 0.06
37 0 -5 o 28.317 29.811 0.00 0.62124 0.02
33 7 5 o 13.044 13.733 180.00 0.62124 0.02
14 12 -13 o 99.127 104.361 180.00 0.62125 0.12
31 11 -4 o 88.437 93.098 180.00 0.62120 0.11
26 4 -11 o 0.473 0.498 180.00 0.62104 0.00
33 9 3 o 3.365 3.533 0.00 0.62076 0.00
33 9 -3 o 259.345 272.270 180.00 0.62076 0.32
24 21 0 o 24.076 25.265 180.00 0.62072 0.03
39 0 0 o 80.025 83.979 180.00 0.62072 0.05
34 2 -7 o 38.902 40.828 0.00 0.62073 0.05
17 3 14 o 6.192 6.500 180.00 0.62075 0.01
28 14 5 o 1671.549 1752.160 0.00 0.62062 2.04
36 2 -5 o 86.556 90.730 180.00 0.62062 0.11
15 11 13 o 30.696 32.181 180.00 0.62064 0.04
19 6 13 o 214.943 225.339 0.00 0.62064 0.26
30 14 1 o 0.020 0.021 0.00 0.62052 0.00
22 17 8 o 2.925 2.959 180.00 0.61896 0.00
27 11 -8 o 30.732 31.088 0.00 0.61896 0.04
33 4 -7 o 2.210 2.232 180.00 0.61890 0.00
23 5 -12 o 27.973 28.253 0.00 0.61890 0.03
23 5 12 o 131.026 132.335 180.00 0.61890 0.16
35 4 -5 o 57.103 57.516 180.00 0.61880 0.07
20 15 -10 o 0.706 0.737 0.00 0.62034 0.00
34 4 6 o 0.601 0.627 180.00 0.62026 0.00
34 4 -6 o 74.389 77.547 180.00 0.62026 0.09
25 20 -1 o 24.075 24.183 0.00 0.61869 0.03
31 5 8 o 21.395 22.270 180.00 0.62018 0.03
20 19 -8 o 31.525 32.815 0.00 0.62018 0.04
23 14 -9 o 4.671 4.685 180.00 0.61863 0.01
23 14 9 o 9.268 9.295 180.00 0.61863 0.01
38 2 0 o 37.970 39.468 0.00 0.62011 0.05
29 10 7 o 0.130 0.135 180.00 0.62012 0.00
1 0 16 o 8.405 8.417 180.00 0.61857 0.01
28 15 4 o 4.884 5.063 0.00 0.61997 0.01
28 13 -6 o 1.825 1.821 180.00 0.61844 0.00
28 13 6 o 34.687 34.616 180.00 0.61844 0.04
36 5 -2 o 108.844 112.706 0.00 0.61992 0.13
29 15 2 o 295.916 306.416 180.00 0.61992 0.36
35 7 1 o 1989.930 2059.962 0.00 0.61991 2.44
23 22 1 o 45.621 47.227 180.00 0.61991 0.06
33 10 -1 o 13.475 13.949 180.00 0.61991 0.02
37 4 0 o 22.262 22.128 180.00 0.61829 0.03
31 13 0 o 38.309 38.080 180.00 0.61829 0.05
16 5 14 o 0.852 0.847 180.00 0.61832 0.00
19 0 -14 o 4.188 4.166 0.00 0.61832 0.00
17 9 -13 o 55.627 55.175 0.00 0.61820 0.07
12 3 -15 o 8.317 8.216 0.00 0.61804 0.01
12 3 15 o 2.130 2.104 0.00 0.61804 0.00
25 6 -11 o 15.356 15.155 180.00 0.61800 0.02
2 0 -16 o 77.518 76.453 180.00 0.61797 0.05
29 3 -10 o 19.922 19.619 0.00 0.61791 0.02
23 16 -8 o 0.012 0.012 0.00 0.61775 0.00
13 1 15 o 48.327 49.247 0.00 0.61925 0.06
13 1 -15 o 142.137 144.840 0.00 0.61925 0.17
12 10 14 o 13.973 13.698 180.00 0.61771 0.02
18 2 -14 o 193.794 189.982 0.00 0.61771 0.24
15 15 12 o 2.404 2.356 0.00 0.61769 0.00
21 14 10 o 429.034 435.728 0.00 0.61912 0.53
25 9 10 o 10.041 10.197 180.00 0.61912 0.01
30 1 -10 o 1.965 1.995 0.00 0.61912 0.00
22 21 -5 o 0.350 0.342 0.00 0.61759 0.00
29 13 -5 o 6.363 6.220 0.00 0.61759 0.01
26 19 1 o 59.883 58.412 0.00 0.61749 0.07
27 9 9 o 37.206 36.247 0.00 0.61742 0.05
27 9 -9 o 3.110 3.030 0.00 0.61742 0.00
8 8 15 o 5.383 5.245 0.00 0.61744 0.01
2 1 16 o 0.315 0.306 180.00 0.61737 0.00
21 21 6 o 576.277 559.269 0.00 0.61723 0.72
33 6 6 o 16.527 16.039 0.00 0.61723 0.02
33 6 -6 o 0.365 0.354 0.00 0.61723 0.00
34 0 -8 o 4.893 4.741 180.00 0.61715 0.00
27 18 0 o 26.345 25.494 0.00 0.61708 0.03
13 9 -14 o 3.174 3.073 0.00 0.61711 0.00
23 0 -13 o 76.945 74.349 180.00 0.61700 0.05
38 0 -4 o 154.492 149.152 180.00 0.61695 0.10
32 10 4 o 78.960 76.231 180.00 0.61695 0.10
30 14 -2 o 92.502 89.228 0.00 0.61690 0.12
17 16 -11 o 49.576 47.739 180.00 0.61679 0.06
23 9 11 o 58.770 56.592 180.00 0.61679 0.07
30 7 8 o 132.532 127.132 0.00 0.61655 0.17
33 2 -8 o 190.673 182.905 180.00 0.61655 0.24
28 16 3 o 0.840 0.806 180.00 0.61652 0.00
28 16 -3 o 115.425 110.667 0.00 0.61652 0.15
27 13 -7 o 18.069 17.316 0.00 0.61649 0.02
32 9 5 o 0.038 0.036 0.00 0.61639 0.00
24 19 5 o 35.979 34.428 180.00 0.61639 0.05
18 8 13 o 185.365 177.401 0.00 0.61640 0.23
22 2 -13 o 131.373 125.728 180.00 0.61640 0.17
37 2 -4 o 7.322 7.002 0.00 0.61635 0.01
23 22 -2 o 16.091 15.377 180.00 0.61630 0.02
33 10 2 o 14.662 14.011 180.00 0.61630 0.02
35 7 -2 o 651.983 623.050 0.00 0.61630 0.82
3 1 -16 o 77.072 73.512 180.00 0.61617 0.10
32 6 -7 o 14.978 14.228 180.00 0.61589 0.02
17 4 -14 o 92.976 88.350 0.00 0.61591 0.12
18 12 12 o 7.364 6.995 0.00 0.61589 0.01
18 12 -12 o 1.924 1.828 180.00 0.61589 0.00
34 6 -5 o 65.034 61.685 0.00 0.61579 0.08
25 14 8 o 719.135 666.165 180.00 0.61417 0.92
11 5 15 o 26.234 24.825 180.00 0.61564 0.03
11 5 -15 o 150.562 142.479 180.00 0.61564 0.19
19 14 11 o 231.970 219.382 180.00 0.61560 0.29
35 1 7 o 1.327 1.228 180.00 0.61410 0.00
21 20 7 o 32.268 29.870 180.00 0.61410 0.04
4 0 16 o 1182.323 1117.702 180.00 0.61557 0.75
23 12 -10 o 5.334 5.038 180.00 0.61551 0.01
28 5 -10 o 43.979 41.537 180.00 0.61551 0.06
30 13 -4 o 164.101 151.707 0.00 0.61396 0.21
24 18 6 o 68.097 64.246 180.00 0.61544 0.09
24 18 -6 o 50.869 47.992 0.00 0.61544 0.06
26 19 -2 o 69.437 64.165 0.00 0.61391 0.09
28 17 -1 o 2.362 2.183 180.00 0.61390 0.00
36 6 0 o 53.770 50.610 0.00 0.61528 0.07
22 7 12 o 0.872 0.821 0.00 0.61529 0.00
22 7 -12 o 9.122 8.587 0.00 0.61529 0.01
24 8 -11 o 20.187 18.640 180.00 0.61381 0.03
5 0 -16 o 4.900 4.524 0.00 0.61378 0.00
25 18 -5 o 204.025 191.758 0.00 0.61519 0.26
23 21 -4 o 3.235 3.038 180.00 0.61515 0.00
25 20 2 o 13.441 12.615 180.00 0.61510 0.02
34 9 1 o 57.311 53.778 0.00 0.61509 0.07
28 12 7 o 4.703 4.336 0.00 0.61351 0.01
3 2 16 o 6.868 6.433 0.00 0.61497 0.01
14 13 13 o 12.744 11.747 180.00 0.61342 0.02
32 12 -1 o 0.279 0.257 0.00 0.61331 0.00
32 4 -8 o 52.957 49.440 0.00 0.61476 0.07
32 11 -3 o 80.526 75.141 0.00 0.61473 0.10
32 11 3 o 57.235 53.408 0.00 0.61473 0.07
15 7 14 o 11.881 11.085 0.00 0.61472 0.02
4 2 -16 o 13.461 12.408 0.00 0.61319 0.02
21 4 -13 o 517.574 482.103 180.00 0.61461 0.66
31 0 10 o 2.018 1.860 0.00 0.61313 0.00
24 11 10 o 110.602 101.960 180.00 0.61313 0.14
36 4 -4 o 5.157 4.800 180.00 0.61456 0.01
24 20 4 o 80.630 75.052 180.00 0.61456 0.10
32 8 -6 o 2.252 2.076 0.00 0.61306 0.00
32 8 6 o 1.966 1.813 0.00 0.61306 0.00
20 13 -11 o 0.863 0.802 180.00 0.61440 0.00
34 3 7 o 13.222 12.199 0.00 0.61292 0.02
23 18 -7 o 32.844 30.304 180.00 0.61292 0.04
16 6 -14 o 0.177 0.164 0.00 0.61294 0.00
5 1 16 o 41.736 38.600 180.00 0.61260 0.05
30 2 10 o 31.330 28.993 0.00 0.61254 0.04
23 1 13 o 111.691 103.764 180.00 0.61224 0.15
16 11 -13 o 7.865 7.307 180.00 0.61224 0.01
26 18 -4 o 40.700 37.840 0.00 0.61219 0.05
10 7 -15 o 551.601 513.779 180.00 0.61208 0.72
10 7 15 o 2.525 2.351 0.00 0.61208 0.00
29 0 11 o 81.159 75.650 0.00 0.61204 0.05
27 7 -10 o 0.016 0.015 0.00 0.61196 0.00
26 13 -8 o 60.712 56.856 180.00 0.61181 0.08
29 9 8 o 13.034 12.207 180.00 0.61181 0.02
31 6 -8 o 0.137 0.128 180.00 0.61181 0.00
31 8 -7 o 10.792 10.120 180.00 0.61174 0.01
24 17 7 o 47.552 44.593 180.00 0.61174 0.06
33 8 -5 o 51.842 48.728 0.00 0.61165 0.07
27 16 5 o 55.670 52.326 0.00 0.61165 0.07
20 6 -13 o 23.052 21.662 0.00 0.61166 0.03
35 6 -4 o 1.337 1.258 180.00 0.61161 0.00
34 9 -2 o 32.035 30.176 0.00 0.61156 0.04
39 1 -1 o 115.340 108.681 180.00 0.61155 0.15
29 16 1 o 2.636 2.484 180.00 0.61155 0.00
26 11 -9 o 148.635 140.269 0.00 0.61149 0.20
19 19 9 o 125.532 118.466 0.00 0.61149 0.17
26 11 9 o 21.595 20.379 0.00 0.61149 0.03
28 2 11 o 8.386 7.920 180.00 0.61146 0.01
30 15 0 o 17.102 16.961 180.00 0.60999 0.02
14 9 14 o 17.141 16.982 0.00 0.61002 0.02
19 2 14 o 1.181 1.170 0.00 0.61002 0.00
4 3 16 o 501.069 473.583 0.00 0.61143 0.66
32 12 2 o 30.908 30.830 180.00 0.60981 0.04
35 8 0 o 25.829 24.611 0.00 0.61115 0.03
22 16 9 o 10.843 10.840 180.00 0.60974 0.01
32 2 9 o 0.804 0.804 0.00 0.60974 0.00
22 16 -9 o 105.747 105.713 180.00 0.60974 0.14
32 2 -9 o 143.233 143.187 0.00 0.60974 0.19
12 11 -14 o 58.351 55.547 0.00 0.61118 0.08
27 4 11 o 18.739 18.750 180.00 0.60971 0.03
22 3 13 o 24.761 23.653 0.00 0.61107 0.03
17 10 13 o 10.044 9.595 180.00 0.61107 0.01
15 0 15 o 83.023 79.722 0.00 0.61091 0.05
15 0 -15 o 86.900 83.445 0.00 0.61091 0.06
38 2 -3 o 16.320 16.456 0.00 0.60944 0.02
38 2 3 o 7.085 7.144 0.00 0.60944 0.01
22 11 11 o 6.781 6.521 180.00 0.61087 0.01
29 4 10 o 0.107 0.103 0.00 0.61079 0.00
19 17 -10 o 2.895 2.792 180.00 0.61079 0.00
28 15 -5 o 0.941 0.952 180.00 0.60932 0.00
38 1 4 o 2.590 2.622 0.00 0.60928 0.00
33 11 1 o 3.254 3.300 180.00 0.60922 0.00
33 5 7 o 0.889 0.864 0.00 0.61058 0.00
20 0 14 o 16.406 15.925 0.00 0.61060 0.01
21 9 -12 o 82.849 80.478 0.00 0.61058 0.11
21 9 12 o 133.883 130.052 180.00 0.61058 0.18
31 11 5 o 349.949 341.165 180.00 0.61048 0.47
5 3 -16 o 5.856 5.956 0.00 0.60910 0.01
7 0 16 o 438.636 446.103 0.00 0.60910 0.30
31 12 4 o 33.801 32.996 180.00 0.61044 0.04
27 17 4 o 6.624 6.466 180.00 0.61044 0.01
28 17 2 o 120.898 118.227 180.00 0.61039 0.16
38 3 -1 o 3.276 3.205 0.00 0.61038 0.00
33 0 9 o 43.275 42.425 180.00 0.61032 0.03
33 0 -9 o 99.648 97.689 180.00 0.61032 0.07
14 2 -15 o 166.870 163.528 0.00 0.61033 0.22
14 2 15 o 0.001 0.001 0.00 0.61033 0.00
15 8 -14 o 2.920 2.986 180.00 0.60886 0.00
6 1 -16 o 145.112 142.534 0.00 0.61026 0.19
20 16 10 o 0.367 0.361 0.00 0.61020 0.00
27 15 6 o 88.635 87.452 180.00 0.61013 0.12
27 15 -6 o 15.366 15.161 180.00 0.61013 0.02
21 5 13 o 76.516 78.408 180.00 0.60875 0.10
24 21 3 o 129.709 128.461 180.00 0.61002 0.17
39 0 -3 o 139.833 138.489 0.00 0.61002 0.09
24 21 -3 o 136.090 134.782 180.00 0.61002 0.18
39 0 3 o 404.270 400.383 180.00 0.61002 0.27
13 4 15 o 19.156 19.688 180.00 0.60859 0.03
13 4 -15 o 22.612 23.239 180.00 0.60859 0.03
23 10 -11 o 0.399 0.411 0.00 0.60855 0.00
6 2 16 o 35.983 37.025 180.00 0.60853 0.05
21 19 8 o 47.780 49.334 180.00 0.60832 0.07
26 15 -7 o 46.868 48.438 0.00 0.60826 0.06
18 4 14 o 13.884 14.344 0.00 0.60828 0.02
17 14 -12 o 1055.581 1090.879 180.00 0.60826 1.44
17 14 12 o 208.201 215.163 0.00 0.60826 0.28
37 3 4 o 32.613 33.774 0.00 0.60812 0.04
39 1 2 o 0.629 0.652 0.00 0.60808 0.00
29 16 -2 o 28.491 29.526 180.00 0.60808 0.04
37 5 -1 o 32.788 33.985 180.00 0.60806 0.04
31 4 -9 o 106.667 110.651 0.00 0.60801 0.15
31 4 9 o 380.359 394.563 180.00 0.60801 0.52
22 14 -10 o 0.630 0.655 0.00 0.60789 0.00
28 6 10 o 15.737 16.350 180.00 0.60789 0.02
31 10 6 o 25.012 26.010 180.00 0.60782 0.03
31 10 -6 o 79.489 82.663 180.00 0.60782 0.11
22 18 -8 o 11.976 12.467 0.00 0.60774 0.02
30 8 -8 o 0.534 0.556 180.00 0.60774 0.00
24 22 -1 o 33.803 35.612 0.00 0.60634 0.05
37 4 3 o 2.291 2.386 180.00 0.60771 0.00
37 4 -3 o 5.399 5.622 180.00 0.60771 0.01
31 13 3 o 45.021 46.884 180.00 0.60771 0.06
31 13 -3 o 2.610 2.718 0.00 0.60771 0.00
23 23 0 o 13.560 14.128 0.00 0.60768 0.01
19 15 -11 o 4.083 4.303 0.00 0.60626 0.01
29 1 -11 o 0.089 0.094 180.00 0.60626 0.00
19 8 -13 o 14.992 15.634 0.00 0.60760 0.02
34 8 -4 o 2.387 2.490 0.00 0.60755 0.00
8 0 -16 o 104.647 110.302 0.00 0.60623 0.07
23 13 10 o 0.416 0.438 180.00 0.60617 0.00
9 9 15 o 73.633 76.924 180.00 0.60744 0.10
28 11 8 o 23.770 25.070 0.00 0.60603 0.03
26 20 0 o 0.099 0.104 180.00 0.60596 0.00
34 10 0 o 17.140 18.080 180.00 0.60596 0.02
27 14 7 o 2.641 2.786 180.00 0.60597 0.00
26 9 -10 o 24.500 25.628 180.00 0.60732 0.03
37 2 5 o 23.217 24.494 0.00 0.60587 0.03
36 5 4 o 30.804 32.498 0.00 0.60584 0.04
29 15 -4 o 153.644 162.095 0.00 0.60583 0.22
33 11 -2 o 23.141 24.415 180.00 0.60579 0.03
31 14 -1 o 155.002 163.532 180.00 0.60577 0.22
25 21 1 o 7.922 8.358 0.00 0.60577 0.01
32 7 7 o 445.222 466.661 180.00 0.60711 0.62
27 0 12 o 34.146 35.789 0.00 0.60711 0.02
27 0 -12 o 6.486 6.798 180.00 0.60711 0.00
12 6 15 o 10.479 11.056 0.00 0.60573 0.01
12 6 -15 o 22.418 23.652 180.00 0.60573 0.03
7 2 -16 o 27.043 28.531 0.00 0.60566 0.04
38 3 2 o 28.466 29.884 180.00 0.60693 0.04
18 16 11 o 48.199 50.639 180.00 0.60683 0.07
26 6 11 o 6.517 6.847 180.00 0.60683 0.01
24 16 8 o 50.619 53.388 0.00 0.60546 0.07
5 4 16 o 0.049 0.052 180.00 0.60680 0.00
19 3 -14 o 0.661 0.697 0.00 0.60542 0.00
17 6 14 o 11.370 11.991 180.00 0.60542 0.02
20 7 13 o 4.681 4.935 0.00 0.60531 0.01
15 13 -13 o 4.760 5.017 180.00 0.60531 0.01
27 18 -3 o 7.378 7.765 0.00 0.60657 0.01
27 18 3 o 1.477 1.555 180.00 0.60657 0.00
30 10 -7 o 0.181 0.190 180.00 0.60654 0.00
20 1 -14 o 20.097 21.153 0.00 0.60656 0.03
26 2 -12 o 195.301 205.580 180.00 0.60654 0.27
26 2 12 o 0.078 0.083 180.00 0.60654 0.00
30 6 9 o 2.802 2.951 180.00 0.60515 0.00
30 6 -9 o 7.139 7.519 0.00 0.60515 0.01
32 10 -5 o 128.922 135.780 180.00 0.60644 0.18
38 0 5 o 141.543 149.073 0.00 0.60644 0.10
28 3 -11 o 0.058 0.061 0.00 0.60512 0.00
36 6 3 o 0.997 1.048 180.00 0.60486 0.00
36 6 -3 o 20.969 22.040 180.00 0.60486 0.03
25 4 -12 o 0.639 0.672 180.00 0.60483 0.00
25 4 12 o 0.870 0.914 180.00 0.60483 0.00
20 11 -12 o 3.339 3.509 0.00 0.60483 0.00
20 11 12 o 82.032 86.201 180.00 0.60483 0.12
23 21 5 o 3.376 3.544 180.00 0.60474 0.00
16 12 13 o 63.698 66.880 180.00 0.60475 0.09
37 5 2 o 8.754 9.183 180.00 0.60465 0.01
36 7 -1 o 3.971 4.165 0.00 0.60464 0.01
25 13 -9 o 1.334 1.398 0.00 0.60458 0.00
25 13 9 o 23.541 24.673 180.00 0.60458 0.03
34 2 8 o 16.920 17.237 0.00 0.60320 0.02
8 1 16 o 30.800 32.259 180.00 0.60453 0.04
18 5 -14 o 0.933 0.950 180.00 0.60316 0.00
23 20 6 o 1.233 1.289 180.00 0.60440 0.00
23 20 -6 o 8.479 8.866 180.00 0.60440 0.01
24 1 -13 o 2.650 2.689 180.00 0.60306 0.00
30 14 4 o 62.067 62.868 0.00 0.60301 0.09
24 22 2 o 22.144 22.396 0.00 0.60296 0.03
13 11 14 o 1.891 1.974 0.00 0.60429 0.00
36 4 5 o 71.991 75.005 180.00 0.60417 0.10
24 20 -5 o 5.703 5.941 180.00 0.60417 0.01
25 8 11 o 39.848 40.176 180.00 0.60286 0.06
27 5 -11 o 31.101 31.357 0.00 0.60286 0.05
40 0 1 o 10.651 11.079 180.00 0.60407 0.01
21 13 11 o 0.598 0.621 180.00 0.60399 0.00
29 10 -8 o 3.641 3.643 0.00 0.60264 0.01
6 4 -16 o 27.182 28.215 180.00 0.60396 0.04
31 9 7 o 0.663 0.661 0.00 0.60258 0.00
27 8 10 o 29.000 30.067 180.00 0.60391 0.04
18 10 -13 o 424.736 422.772 180.00 0.60249 0.63
35 7 4 o 2441.486 2426.151 0.00 0.60245 3.60
23 22 4 o 22.491 22.350 180.00 0.60245 0.03
33 10 -4 o 20.799 20.669 180.00 0.60245 0.03
35 0 8 o 1745.886 1804.663 0.00 0.60376 1.26
25 15 -8 o 146.188 151.110 180.00 0.60376 0.21
31 14 2 o 139.339 138.223 180.00 0.60240 0.21
25 21 -2 o 0.337 0.334 180.00 0.60240 0.00
32 13 1 o 7.323 7.261 180.00 0.60239 0.01
14 10 -14 o 71.156 73.490 0.00 0.60372 0.10
30 13 5 o 0.415 0.428 0.00 0.60361 0.00
22 12 -11 o 25.919 25.619 0.00 0.60230 0.04
27 19 -1 o 24.191 24.858 0.00 0.60351 0.04
39 2 1 o 0.869 0.893 0.00 0.60351 0.00
7 3 16 o 1124.789 1152.527 180.00 0.60340 1.63
22 20 -7 o 29.693 29.039 180.00 0.60202 0.04
24 6 12 o 69.644 68.117 180.00 0.60202 0.10
24 6 -12 o 2.427 2.374 0.00 0.60202 0.00
26 18 5 o 2.150 2.095 0.00 0.60193 0.00
23 3 -13 o 160.177 156.153 0.00 0.60194 0.24
28 18 1 o 187.500 182.080 180.00 0.60183 0.28
38 4 1 o 243.636 236.593 180.00 0.60183 0.36
11 8 15 o 0.659 0.639 0.00 0.60178 0.00
16 1 15 o 7.084 6.867 0.00 0.60178 0.01
16 1 -15 o 44.817 43.447 0.00 0.60178 0.07
11 8 -15 o 5.272 5.111 180.00 0.60178 0.01
25 11 -10 o 24.423 23.572 0.00 0.60166 0.04
36 1 -7 o 7.207 6.724 180.00 0.60035 0.01
29 12 -7 o 47.976 44.759 0.00 0.60035 0.07
30 12 -6 o 25.466 24.521 180.00 0.60160 0.04
30 12 6 o 7.688 7.402 180.00 0.60160 0.01
27 17 -5 o 15.907 14.825 180.00 0.60026 0.02
31 12 -5 o 73.985 68.953 180.00 0.60026 0.11
33 4 8 o 6.222 5.975 0.00 0.60152 0.01
26 19 4 o 27.483 25.606 0.00 0.60022 0.04
27 19 2 o 0.186 0.173 0.00 0.60018 0.00
39 2 -2 o 44.774 41.701 0.00 0.60018 0.07
23 19 7 o 142.524 136.589 180.00 0.60146 0.21
35 9 -1 o 9.582 8.923 180.00 0.60016 0.01
16 8 14 o 16.868 16.177 180.00 0.60148 0.03
21 18 9 o 0.076 0.071 0.00 0.60011 0.00
21 18 -9 o 186.016 173.182 180.00 0.60011 0.28
35 6 5 o 0.267 0.255 180.00 0.60137 0.00
25 20 -4 o 0.031 0.029 0.00 0.60133 0.00
36 7 2 o 7.997 7.619 180.00 0.60129 0.01
8 3 -16 o 42.941 39.969 180.00 0.60005 0.07
36 3 -6 o 22.326 20.777 0.00 0.59993 0.03
36 3 6 o 42.752 39.785 0.00 0.59993 0.07
29 8 9 o 8.253 7.847 180.00 0.60122 0.01
29 8 -9 o 0.159 0.151 180.00 0.60122 0.00
6 5 16 o 6.151 5.839 180.00 0.60116 0.01
9 1 -16 o 4.483 4.255 0.00 0.60116 0.01
30 15 -3 o 12.927 12.031 180.00 0.59983 0.02
30 15 3 o 8.017 7.462 180.00 0.59983 0.01
32 0 -10 o 34.123 32.335 0.00 0.60111 0.03
33 12 0 o 39.947 37.184 0.00 0.59979 0.06
17 7 -14 o 19.094 17.772 180.00 0.59982 0.03
16 16 12 o 1.385 1.289 180.00 0.59980 0.00
37 1 6 o 1.658 1.568 180.00 0.60104 0.00
26 17 -6 o 10.718 10.138 180.00 0.60104 0.02
26 17 6 o 11.258 10.648 180.00 0.60104 0.02
37 1 -6 o 0.051 0.049 0.00 0.60104 0.00
22 5 -13 o 3.069 2.857 180.00 0.59971 0.00
35 8 -3 o 5.591 5.273 180.00 0.60093 0.01
35 8 3 o 3.865 3.646 180.00 0.60093 0.01
29 17 0 o 22.071 20.798 0.00 0.60090 0.03
19 9 13 o 57.443 54.032 180.00 0.60082 0.09
26 7 -11 o 12.263 11.438 0.00 0.59953 0.02
40 0 -2 o 10.260 9.632 180.00 0.60073 0.01
10 0 16 o 404.282 377.197 0.00 0.59950 0.31
21 16 -10 o 0.049 0.046 180.00 0.59945 0.00
15 3 -15 o 15.741 14.758 180.00 0.60067 0.02
15 3 15 o 30.577 28.668 180.00 0.60067 0.05
27 13 8 o 6.337 5.929 0.00 0.59931 0.01
24 2 13 o 125.612 121.234 0.00 0.59807 0.20
19 18 10 o 68.695 64.264 180.00 0.60055 0.10
31 2 -10 o 20.847 19.503 0.00 0.60055 0.03
34 9 4 o 64.379 62.217 0.00 0.59802 0.10
35 3 -7 o 25.830 24.189 180.00 0.59925 0.04
25 17 -7 o 306.503 287.033 180.00 0.59925 0.48
38 1 -5 o 27.542 25.837 0.00 0.59915 0.04
28 15 7 o 1.928 1.909 180.00 0.58338 0.01
24 10 11 o 48.996 47.546 180.00 0.59788 0.08
32 13 -2 o 1.195 1.122 0.00 0.59907 0.00
37 6 1 o 1.781 1.674 180.00 0.59906 0.00
7 5 -16 o 109.101 105.951 180.00 0.59785 0.17
33 11 -5 o 69.281 68.581 0.00 0.58329 0.19
35 5 -6 o 77.207 75.245 180.00 0.59773 0.12
35 5 6 o 49.303 48.049 180.00 0.59773 0.08
37 6 4 o 103.396 102.346 0.00 0.58326 0.29
9 2 16 o 0.859 0.809 0.00 0.59895 0.00
26 10 10 o 3.788 3.573 180.00 0.59890 0.01
30 4 -10 o 31.684 29.889 180.00 0.59890 0.05
23 23 3 o 29.857 29.187 180.00 0.59763 0.05
30 17 -2 o 0.427 0.423 0.00 0.58322 0.00
40 1 0 o 41.360 40.473 0.00 0.59759 0.07
26 16 7 o 15.265 14.935 0.00 0.59760 0.02
13 12 -14 o 116.423 113.830 0.00 0.59762 0.19
20 3 14 o 135.977 132.949 0.00 0.59762 0.22
32 6 8 o 5.563 5.266 0.00 0.59876 0.01
34 8 5 o 0.605 0.594 0.00 0.59751 0.00
15 14 13 o 14.161 13.888 180.00 0.59752 0.02
21 1 14 o 14.993 14.205 0.00 0.59872 0.02
30 16 -1 o 1.621 1.594 0.00 0.59742 0.00
25 0 13 o 567.895 539.581 180.00 0.59861 0.45
18 17 -11 o 352.755 347.844 180.00 0.59733 0.57
28 18 -2 o 23.337 22.229 180.00 0.59852 0.04
38 4 -2 o 2.409 2.295 180.00 0.59852 0.00
9 7 -16 o 121.695 120.436 180.00 0.58310 0.34
8 4 16 o 5.907 5.829 180.00 0.59731 0.01
14 5 -15 o 35.563 33.928 180.00 0.59847 0.06
14 5 15 o 100.470 95.852 0.00 0.59847 0.16
14 13 -14 o 21.571 21.372 0.00 0.58391 0.06
22 15 10 o 63.138 60.440 180.00 0.59835 0.10
21 20 -8 o 0.087 0.087 0.00 0.59711 0.00
35 1 -8 o 22.770 22.598 0.00 0.59711 0.04
36 5 -5 o 61.480 63.216 0.00 0.59588 0.10
29 15 5 o 2.281 2.346 180.00 0.59588 0.00
30 11 7 o 6.572 6.534 0.00 0.59706 0.01
34 5 -7 o 14.737 14.651 0.00 0.59706 0.02
37 6 -2 o 121.880 125.567 180.00 0.59580 0.20
25 3 13 o 78.844 78.105 0.00 0.58381 0.21
28 17 -4 o 0.703 0.702 0.00 0.59693 0.00
19 13 -12 o 56.350 54.246 180.00 0.59815 0.09
23 8 12 o 37.512 36.111 180.00 0.59815 0.06
23 8 -12 o 0.352 0.339 0.00 0.59815 0.00
19 13 12 o 46.287 44.559 0.00 0.59815 0.07
35 9 2 o 1.829 1.828 0.00 0.59688 0.00
37 3 -5 o 110.540 106.712 0.00 0.59806 0.18
11 0 -16 o 538.693 556.502 0.00 0.59568 0.45
24 15 -9 o 24.126 24.157 0.00 0.59682 0.04
24 15 9 o 2.094 2.097 180.00 0.59682 0.00
10 10 15 o 32.170 32.200 180.00 0.59683 0.05
26 14 9 o 37.581 37.220 180.00 0.58366 0.10
26 14 -9 o 89.265 88.408 180.00 0.58366 0.24
23 13 -11 o 0.000 0.000 180.00 0.58364 0.00
19 5 14 o 18.018 18.700 0.00 0.59545 0.03
16 9 -14 o 9.388 9.744 0.00 0.59545 0.02
33 1 -10 o 72.083 71.379 0.00 0.58356 0.19
28 12 -8 o 233.397 235.404 180.00 0.59657 0.38
29 12 8 o 3.297 3.271 0.00 0.58445 0.01
36 1 8 o 36.730 36.438 0.00 0.58445 0.09
39 3 0 o 171.014 172.816 180.00 0.59650 0.28
18 11 13 o 37.191 38.667 0.00 0.59535 0.06
15 10 14 o 12.192 12.310 0.00 0.59653 0.02
31 11 -7 o 4.213 4.179 180.00 0.58440 0.01
36 8 1 o 4.789 4.987 180.00 0.59524 0.01
29 3 11 o 6.578 6.846 180.00 0.59409 0.01
17 12 -13 o 103.018 104.334 180.00 0.59643 0.17
21 7 -13 o 609.140 616.921 0.00 0.59643 1.00
23 4 13 o 45.770 46.354 0.00 0.59643 0.08
32 12 -4 o 10.883 11.036 0.00 0.59639 0.02
31 3 10 o 0.569 0.591 180.00 0.59401 0.00
13 7 15 o 121.167 126.248 0.00 0.59520 0.20
13 7 -15 o 36.666 38.204 0.00 0.59520 0.06
25 17 8 o 5.487 5.433 180.00 0.58343 0.01
35 3 8 o 626.072 619.866 180.00 0.58343 1.71
25 9 -11 o 49.993 52.113 0.00 0.59516 0.08
21 14 -11 o 648.710 676.222 0.00 0.59516 1.10
30 1 11 o 0.525 0.548 180.00 0.59516 0.00
38 3 5 o 14.744 14.622 0.00 0.58431 0.04
32 14 3 o 360.699 357.112 180.00 0.58340 0.98
32 14 -3 o 92.849 91.925 0.00 0.58340 0.25
10 2 -16 o 0.239 0.249 0.00 0.59514 0.00
35 9 -4 o 48.357 47.951 0.00 0.58428 0.12
28 10 -9 o 200.163 203.644 0.00 0.59627 0.33
28 10 9 o 304.236 309.527 180.00 0.59627 0.50
24 13 -10 o 20.357 21.240 0.00 0.59508 0.03
32 1 10 o 22.740 23.725 0.00 0.59508 0.04
33 5 -8 o 1.973 2.046 0.00 0.59387 0.00
20 15 11 o 1.717 1.749 180.00 0.59625 0.00
39 4 2 o 20.286 20.113 0.00 0.58423 0.05
37 0 7 o 240.896 249.539 0.00 0.59381 0.21
33 7 -7 o 0.320 0.331 180.00 0.59381 0.00
22 14 11 o 42.267 42.052 0.00 0.58517 0.10
28 6 -11 o 32.545 32.380 0.00 0.58517 0.08
29 6 -10 o 17.524 17.883 180.00 0.59616 0.03
31 8 8 o 0.250 0.261 180.00 0.59495 0.00
24 17 -8 o 19.928 20.816 0.00 0.59495 0.03
11 4 16 o 47.431 47.186 180.00 0.58514 0.12
22 6 13 o 7.818 8.084 0.00 0.59373 0.01
22 0 -14 o 7.169 7.490 0.00 0.59491 0.01
38 3 -4 o 83.220 85.976 0.00 0.59369 0.15
14 8 15 o 57.810 57.311 0.00 0.58418 0.15
14 8 -15 o 53.520 53.059 0.00 0.58418 0.14
23 18 8 o 5.126 5.251 180.00 0.59603 0.01
34 3 -8 o 49.093 50.287 180.00 0.59603 0.08
34 10 3 o 0.024 0.024 180.00 0.59600 0.00
34 10 -3 o 25.767 26.415 180.00 0.59600 0.04
26 20 3 o 16.281 16.690 180.00 0.59600 0.03
26 20 -3 o 0.369 0.379 0.00 0.59600 0.00
24 23 1 o 96.709 99.781 0.00 0.59363 0.17
32 11 -6 o 14.351 14.269 0.00 0.58503 0.04
32 11 6 o 22.951 22.819 0.00 0.58503 0.06
39 1 -4 o 47.934 50.109 180.00 0.59476 0.08
29 16 4 o 9.132 9.546 180.00 0.59476 0.02
10 3 16 o 59.774 59.792 180.00 0.59246 0.11
31 15 1 o 0.083 0.087 0.00 0.59471 0.00
34 11 -1 o 0.843 0.881 0.00 0.59471 0.00
28 8 -10 o 3.339 3.335 180.00 0.59240 0.01
25 22 3 o 173.211 172.145 180.00 0.58493 0.43
38 5 -3 o 7.273 7.228 180.00 0.58493 0.02
38 5 3 o 21.866 21.731 180.00 0.58493 0.05
25 22 -3 o 6.756 6.714 0.00 0.58493 0.02
9 4 -16 o 1.708 1.758 180.00 0.59353 0.00
11 1 16 o 21.153 21.771 0.00 0.59353 0.04
31 16 0 o 59.029 58.657 0.00 0.58490 0.15
21 4 14 o 63.417 63.024 0.00 0.58493 0.16
7 6 16 o 3.059 3.198 180.00 0.59460 0.01
38 4 4 o 389.501 388.766 180.00 0.58581 0.91
28 18 4 o 1.991 1.987 180.00 0.58581 0.00
18 7 14 o 105.838 105.328 180.00 0.59223 0.19
29 14 -6 o 3.449 3.604 180.00 0.59448 0.01
34 7 6 o 32.450 33.909 180.00 0.59448 0.06
29 14 6 o 2.055 2.147 180.00 0.59448 0.00
34 7 -6 o 17.802 18.603 180.00 0.59448 0.03
40 2 2 o 92.369 92.177 180.00 0.58577 0.22
23 6 -13 o 1.033 1.026 180.00 0.58483 0.00
26 1 13 o 5.359 5.324 0.00 0.58483 0.01
28 14 -7 o 1066.595 1090.693 0.00 0.59328 1.89
36 2 7 o 4.124 4.217 180.00 0.59328 0.01
22 10 -12 o 7.424 7.592 180.00 0.59328 0.01
22 10 12 o 16.709 17.088 180.00 0.59328 0.03
20 9 -13 o 11.121 11.045 180.00 0.59213 0.02
25 22 0 o 16.751 17.488 180.00 0.59434 0.03
38 5 0 o 24.713 25.800 180.00 0.59434 0.04
30 14 -5 o 22.669 23.124 0.00 0.59319 0.04
34 12 1 o 0.360 0.357 180.00 0.58473 0.00
38 6 -1 o 21.324 21.176 180.00 0.58473 0.05
36 8 -2 o 219.416 217.547 180.00 0.59204 0.40
21 2 -14 o 0.106 0.111 0.00 0.59437 0.00
11 11 15 o 18.960 18.916 180.00 0.58572 0.04
12 9 15 o 117.130 114.946 0.00 0.59093 0.22
12 9 -15 o 18.166 17.828 180.00 0.59093 0.03
12 2 16 o 7.855 7.860 0.00 0.58669 0.02
21 17 10 o 74.246 73.215 180.00 0.58976 0.15
17 2 15 o 4.573 4.529 180.00 0.59199 0.01
17 2 -15 o 43.795 43.378 180.00 0.59199 0.08
8 6 -16 o 1.840 1.805 180.00 0.59087 0.00
23 12 11 o 62.148 61.518 180.00 0.59195 0.11
28 5 11 o 30.961 30.647 0.00 0.59195 0.06
28 16 6 o 38.241 38.261 0.00 0.58657 0.09
28 16 -6 o 0.119 0.119 0.00 0.58657 0.00
30 16 2 o 32.884 34.271 180.00 0.59418 0.06
26 9 11 o 41.072 40.774 0.00 0.58466 0.10
30 5 10 o 0.796 0.787 0.00 0.59187 0.00
27 14 -8 o 1.036 1.023 180.00 0.58963 0.00
31 9 -8 o 6.122 6.125 0.00 0.58650 0.01
28 9 10 o 29.925 29.700 0.00 0.58458 0.08
25 12 10 o 35.012 35.467 0.00 0.59294 0.06
25 18 7 o 13.948 13.872 0.00 0.58853 0.03
32 7 -8 o 76.497 75.078 0.00 0.59068 0.15
26 5 -12 o 0.042 0.041 180.00 0.58853 0.00
26 5 12 o 16.655 16.564 0.00 0.58853 0.03
32 9 -7 o 16.464 16.257 0.00 0.58957 0.03
24 19 -7 o 3.032 2.994 180.00 0.58957 0.01
21 12 -12 o 255.984 255.846 180.00 0.58749 0.55
21 12 12 o 7.873 7.869 180.00 0.58749 0.02
22 22 6 o 168.562 170.450 180.00 0.59287 0.30
23 19 -8 o 12.668 12.623 0.00 0.58547 0.03
18 8 -14 o 1.370 1.371 0.00 0.58647 0.00
22 2 14 o 0.113 0.114 0.00 0.58647 0.00
26 15 8 o 18.924 18.672 0.00 0.59174 0.04
22 21 7 o 8.204 8.052 0.00 0.59062 0.02
29 13 7 o 0.121 0.119 180.00 0.59062 0.00
14 12 14 o 1.260 1.236 0.00 0.59064 0.00
27 3 12 o 0.003 0.003 180.00 0.59063 0.00
27 3 -12 o 37.378 36.688 180.00 0.59063 0.07
18 15 -12 o 123.383 121.107 180.00 0.59063 0.24
18 15 12 o 29.750 29.201 0.00 0.59063 0.06
34 9 -5 o 32.633 32.471 0.00 0.58844 0.07
28 17 5 o 231.144 231.084 180.00 0.58740 0.50
33 8 7 o 19.260 19.186 0.00 0.58542 0.05
27 16 -7 o 17.651 17.583 0.00 0.58542 0.04
35 4 7 o 52.900 52.160 0.00 0.59168 0.10
24 4 -13 o 214.987 214.925 0.00 0.58741 0.47
28 1 -12 o 4.321 4.261 0.00 0.59168 0.01
28 1 12 o 11.889 11.723 0.00 0.59168 0.02
36 7 -4 o 0.453 0.451 0.00 0.58840 0.00
25 7 -12 o 277.656 276.592 0.00 0.58542 0.66
25 7 12 o 805.685 802.599 180.00 0.58542 1.93
26 0 -13 o 62.276 61.530 180.00 0.58949 0.06
16 14 -13 o 70.368 69.525 180.00 0.58949 0.14
39 2 4 o 14.959 14.957 180.00 0.58736 0.03
27 19 -4 o 4.650 4.649 0.00 0.58736 0.01
26 19 -5 o 107.321 105.369 0.00 0.59053 0.21
31 14 -4 o 176.994 174.927 180.00 0.58945 0.35
25 21 4 o 283.656 280.343 180.00 0.58945 0.57
32 14 0 o 69.905 70.428 180.00 0.59274 0.13
20 4 -14 o 80.810 81.475 180.00 0.59277 0.15
32 13 4 o 21.046 21.046 0.00 0.58633 0.05
27 20 -2 o 147.711 147.040 0.00 0.58836 0.31
35 10 -2 o 28.123 28.121 180.00 0.58732 0.06
33 13 -1 o 47.509 47.296 180.00 0.58835 0.10
29 18 -1 o 38.093 37.922 0.00 0.58835 0.08
26 21 2 o 59.798 59.118 180.00 0.58941 0.12
25 20 5 o 5.615 5.530 180.00 0.59159 0.01
39 4 -1 o 84.563 84.561 0.00 0.58731 0.18
41 0 -1 o 3.473 3.434 180.00 0.58939 0.00
39 1 5 o 230.213 229.223 0.00 0.58533 0.55
29 16 -5 o 69.000 68.703 180.00 0.58533 0.17
24 23 -2 o 0.092 0.091 180.00 0.59046 0.00
37 5 -4 o 31.581 31.095 0.00 0.59156 0.06
41 0 2 o 89.322 89.314 180.00 0.58629 0.10
35 10 1 o 200.315 196.730 180.00 0.59045 0.39
30 17 1 o 1.562 1.562 180.00 0.58627 0.00
35 7 -5 o 1121.722 1127.578 0.00 0.59265 2.02
23 22 -5 o 2.448 2.461 180.00 0.59265 0.00
33 10 5 o 56.046 56.339 180.00 0.59265 0.10
20 10 13 o 6.806 6.777 0.00 0.58534 0.02
34 11 2 o 2.279 2.243 180.00 0.59151 0.00
31 15 -2 o 25.196 24.797 0.00 0.59151 0.05
32 5 -9 o 62.932 62.668 0.00 0.58830 0.13
23 17 -9 o 159.975 159.305 0.00 0.58830 0.33
32 5 9 o 105.269 104.828 0.00 0.58830 0.22
23 17 9 o 11.110 11.063 0.00 0.58830 0.02
33 11 4 o 21.792 21.887 0.00 0.59262 0.04
27 20 1 o 108.932 107.199 0.00 0.59150 0.20
33 3 9 o 68.753 67.537 180.00 0.59039 0.13
27 12 9 o 0.001 0.001 0.00 0.59039 0.00
27 12 -9 o 166.258 163.316 0.00 0.59039 0.32
33 3 -9 o 6.037 5.930 0.00 0.59039 0.01
33 13 2 o 3.312 3.297 0.00 0.58526 0.01
29 18 2 o 3.835 3.817 180.00 0.58526 0.01
30 2 -11 o 198.024 195.898 180.00 0.58931 0.40
20 16 -11 o 11.904 11.905 0.00 0.58723 0.03
26 21 -1 o 275.751 276.541 180.00 0.59256 0.50
16 4 -15 o 8.056 7.913 180.00 0.59040 0.02
16 4 15 o 77.282 75.912 0.00 0.59040 0.15
34 1 -9 o 1.864 1.833 180.00 0.59145 0.00
34 1 9 o 0.040 0.039 180.00 0.59145 0.00
11 3 -16 o 903.060 899.512 180.00 0.58825 1.89
12 1 -16 o 44.257 43.789 180.00 0.58929 0.09
8 7 16 o 1.686 1.687 180.00 0.58721 0.00
13 0 16 o 125.731 125.756 0.00 0.58721 0.14
9 5 16 o 108.732 106.833 180.00 0.59034 0.21
18 0 15 o 216.065 216.443 180.00 0.59252 0.20
18 0 -15 o 292.316 292.828 0.00 0.59252 0.26
20 18 -10 o 79.129 77.767 180.00 0.59029 0.15
31 7 9 o 398.737 396.742 0.00 0.58519 0.97
31 7 -9 o 170.202 169.351 180.00 0.58519 0.41
10 5 -16 o 0.002 0.002 0.00 0.58617 0.00
24 14 10 o 5.724 5.720 0.00 0.58612 0.01
33 9 -6 o 53.428 52.525 180.00 0.59022 0.10
33 9 6 o 50.447 49.594 180.00 0.59022 0.10
25 19 6 o 0.053 0.052 0.00 0.59128 0.00
25 19 -6 o 110.347 108.409 180.00 0.59128 0.21
30 10 8 o 12.515 12.308 0.00 0.59015 0.02
40 1 -3 o 119.270 118.930 0.00 0.58803 0.25
40 1 3 o 23.191 23.125 0.00 0.58803 0.05
33 12 3 o 13.970 13.742 0.00 0.59012 0.03
33 12 -3 o 14.824 14.582 0.00 0.59012 0.03
39 3 -3 o 265.596 265.732 180.00 0.58699 0.59
39 3 3 o 0.093 0.093 0.00 0.58699 0.00
34 6 7 o 10.291 10.199 0.00 0.58905 0.02
29 17 3 o 5.737 5.633 0.00 0.59118 0.01
29 17 -3 o 24.691 24.244 0.00 0.59118 0.05
17 9 14 o 23.705 23.638 0.00 0.58803 0.05
36 9 0 o 13.747 13.754 180.00 0.58696 0.03
15 11 -14 o 6.757 6.647 0.00 0.59012 0.01
19 6 -14 o 0.119 0.117 0.00 0.59012 0.00
22 20 8 o 9.931 9.919 0.00 0.58599 0.02
37 7 0 o 11.831 11.615 0.00 0.59115 0.02
28 19 0 o 100.686 98.849 180.00 0.59115 0.19
23 0 14 o 0.907 0.907 180.00 0.58699 0.00
17 13 13 o 80.284 79.612 180.00 0.58897 0.16
25 2 -13 o 144.276 143.068 0.00 0.58897 0.29
21 8 13 o 4.702 4.628 0.00 0.59002 0.01
32 12 5 o 31.116 31.134 0.00 0.58688 0.07
40 0 4 o 283.699 283.082 180.00 0.58788 0.30
24 22 -4 o 0.413 0.407 0.00 0.58997 0.00
19 11 -13 o 166.508 166.603 0.00 0.58689 0.37
40 2 -1 o 0.001 0.001 0.00 0.58887 0.00
20 20 9 o 63.254 62.321 0.00 0.58987 0.12
27 7 11 o 6.125 6.080 0.00 0.58879 0.01
15 6 15 o 73.185 73.056 0.00 0.58779 0.16
15 6 -15 o 30.754 30.700 0.00 0.58779 0.07
31 0 -11 o 612.114 603.199 180.00 0.58984 0.60
24 11 -11 o 23.114 22.777 0.00 0.58984 0.05
19 17 11 o 1.933 1.930 0.00 0.58775 0.00
29 4 -11 o 23.806 23.768 180.00 0.58775 0.05
29 7 10 o 2.715 2.696 0.00 0.58871 0.01
23 15 -10 o 0.061 0.061 180.00 0.58767 0.00
27 10 -10 o 17.352 17.329 180.00 0.58767 0.04
