#------------------------------------------------------------------------------
#$Date: 2020-06-09 01:28:52 +0300 (Tue, 09 Jun 2020) $
#$Revision: 253014 $
#$URL: file:///home/coder/svn-repositories/cod/cif/4/00/35/4003574.cif $
#------------------------------------------------------------------------------
#
# This file is available in the Crystallography Open Database (COD),
# http://www.crystallography.net/
#
# All data on this site have been placed in the public domain by the
# contributors.
#
data_4003574
loop_
_publ_author_name
'Fukuda, Masayuki'
'Yamada, Ikuya'
'Murata, Hidenobu'
'Hojo, Hajime'
'Hernandez, Olivier J.'
'Ritter, Clemens'
'Tanaka, Katsuhisa'
'Fujita, Koji'
_publ_section_title
;
 Perovskite-Type CuNbO3 Exhibiting Unusual Noncollinear Ferrielectric to
 Collinear Ferroelectric Dipole Order Transition
;
_journal_name_full               'Chemistry of Materials'
_journal_paper_doi               10.1021/acs.chemmater.0c00444
_journal_year                    2020
_chemical_formula_moiety         'Cu Nb O3'
_chemical_formula_sum            'Cu Nb O3'
_chemical_formula_weight         204.45
_space_group_IT_number           7
_space_group_name_Hall           'P -2yc'
_space_group_name_H-M_alt        'P 1 c 1'
_symmetry_cell_setting           monoclinic
_symmetry_space_group_name_Hall  'P -2yc'
_symmetry_space_group_name_H-M   'P 1 c 1'
_cell_angle_alpha                90.0000
_cell_angle_beta                 94.6924(6)
_cell_angle_gamma                90.0000
_cell_formula_units_Z            4
_cell_length_a                   5.54535(4)
_cell_length_b                   5.21029(3)
_cell_length_c                   7.67491(6)
_cell_measurement_temperature    300
_cell_volume                     221.007(3)
_computing_structure_refinement  FULLPROF
_diffrn_ambient_temperature      300
_diffrn_measurement_device_type  Neutron
_diffrn_radiation_type           'Constant Wavelength Neutron Diffraction'
_diffrn_radiation_wavelength     1.59400
_diffrn_source                   'nuclear reactor'
_exptl_crystal_description       prism
_pd_char_colour                  black
_pd_instr_location               ' ?'
_pd_meas_2theta_range_inc        0.050018
_pd_meas_2theta_range_max        159.95000
_pd_meas_2theta_range_min        0.00000
_pd_meas_number_of_points        3200
_pd_proc_2theta_range_inc        0.050018
_pd_proc_2theta_range_max        159.9765
_pd_proc_2theta_range_min        0.0265
_pd_proc_ls_pref_orient_corr     ' ?'
_pd_proc_ls_prof_R_factor        2.6002
_pd_proc_ls_prof_wR_expected     2.5392
_pd_proc_ls_prof_wR_factor       3.2295
_pd_proc_number_of_points        3007
_pd_proc_wavelength              1.594000
_pd_spec_mounting                ' ?'
_refine_ls_goodness_of_fit_all   1.27185
_refine_ls_number_parameters     53
_refine_ls_number_reflns         458
_refine_ls_number_restraints     0
_refine_ls_R_I_factor            3.6644
_cod_data_source_file            cm0c00444_si_002.cif
_cod_data_source_block           CuNbO3
_cod_depositor_comments
;
The following automatic conversions were performed:

data item '_symmetry_cell_setting' value 'Monoclinic' was changed to
'monoclinic' in accordance with the
/home/data/users/saulius/crontab/automatic-downloads/rss-feeds/ACS/lib/dictionaries/cif_core.dic
dictionary named 'cif_core.dic' version 2.4.2 last updated on
2011-04-26.

Automatic conversion script
Id: cif_fix_values 7556 2019-12-06 15:28:31Z antanas 
;
_cod_original_sg_symbol_H-M      'P c'
_cod_database_code               4003574
_pd_proc_ls_prof_cr_factor       12.3995
_pd_proc_ls_prof_cwr_factor      10.3372
_pd_proc_ls_prof_cwr_expected    8.1276
_pd_proc_ls_prof_chi2            1.6176
_pd_proc_ls_prof_echi2           1.6229
loop_
_symmetry_equiv_pos_as_xyz
x,y,z
x,-y,z+1/2
loop_
_atom_site_label
_atom_site_fract_x
_atom_site_fract_y
_atom_site_fract_z
_atom_site_U_iso_or_equiv
_atom_site_occupancy
_atom_site_adp_type
_atom_site_type_symbol
Cu1 0.514(4) 0.988(2) 0.226(2) 0.069(5) 1.00000 Uani Cu
Cu2 -0.011(2) 0.4975(18) 0.7350(16) 0.0112(10) 1.00000 Uiso Cu
Nb1 0.00000 0.00000 0.00000 0.0094(13) 1.00000 Uiso Nb
Nb2 0.4830(14) 0.5122(14) 0.4610(8) 0.0145(15) 1.00000 Uiso Nb
O1 0.184(2) 0.6857(17) 0.4326(17) 0.0067(13) 1.00000 Uiso O
O2 0.686(3) 0.1850(20) 0.935(2) 0.014(2) 1.00000 Uiso O
O3 0.290(3) 0.2046(16) 0.5460(18) 0.0049(17) 1.00000 Uiso O
O4 0.795(3) 0.7005(17) 0.0433(18) 0.0022(19) 1.00000 Uiso O
O5 -0.007(3) 0.1187(17) 0.233(2) 0.0067(13) 1.00000 Uiso O
O6 0.491(3) 0.6130(17) 0.733(2) 0.0080(15) 1.00000 Uiso O
loop_
_atom_site_aniso_label
_atom_site_aniso_U_11
_atom_site_aniso_U_22
_atom_site_aniso_U_33
_atom_site_aniso_U_12
_atom_site_aniso_U_13
_atom_site_aniso_U_23
_atom_site_aniso_type_symbol
Cu1 0.085(6) 0.023(3) 0.087(6) -0.029(6) -0.067(4) 0.034(5) O
loop_
_atom_type_symbol
_atom_type_scat_length_neutron
_atom_type_scat_source
Cu 0.77180 V.F._Sears_Neutron_News_3_26_(1992)
Nb 0.70540 V.F._Sears_Neutron_News_3_26_(1992)
O 0.58030 V.F._Sears_Neutron_News_3_26_(1992)
loop_
_geom_angle_atom_site_label_1
_geom_angle_atom_site_label_2
_geom_angle_atom_site_label_3
_geom_angle
_geom_angle_site_symmetry_1
_geom_angle_site_symmetry_3
_geom_angle_publ_flag
Nb1 Cu1 Nb1 116.1(5) 1_565 1_665 ?
Nb1 Cu1 Nb1 172.5(5) 1_565 2_665 ?
Nb1 Cu1 Nb2 104.0(5) 1_565 1_555 ?
Nb1 Cu1 Nb2 101.3(5) 1_565 1_565 ?
Nb1 Cu1 Nb2 71.6(5) 1_565 2_564 ?
Nb1 Cu1 Nb2 69.7(5) 1_565 2_574 ?
Nb1 Cu1 O1 75.0(6) 1_565 1_555 ?
Nb1 Cu1 O2 84.5(7) 1_565 1_564 ?
Nb1 Cu1 O2 141.4(10) 1_565 2_564 ?
Nb1 Cu1 O3 91.5(7) 1_565 1_565 ?
Nb1 Cu1 O4 105.1(8) 1_565 1_555 ?
Nb1 Cu1 O4 138.7(7) 1_565 2_575 ?
Nb1 Cu1 O5 145.3(9) 1_565 1_665 ?
Nb1 Cu1 O6 89.6(5) 1_565 2_564 ?
Nb1 Cu1 O6 86.6(7) 1_565 2_574 ?
Nb1 Cu1 Nb1 71.1(5) 1_665 2_665 ?
Nb1 Cu1 Nb2 114.0(5) 1_665 1_555 ?
Nb1 Cu1 Nb2 110.6(5) 1_665 1_565 ?
Nb1 Cu1 Nb2 72.4(5) 1_665 2_564 ?
Nb1 Cu1 Nb2 70.5(5) 1_665 2_574 ?
Nb1 Cu1 O1 148.2(7) 1_665 1_555 ?
Nb1 Cu1 O1 93.6(6) 1_665 2_574 ?
Nb1 Cu1 O2 94.2(9) 1_665 2_564 ?
Nb1 Cu1 O3 144.3(8) 1_665 1_565 ?
Nb1 Cu1 O3 97.5(9) 1_665 2_564 ?
Nb1 Cu1 O4 91.3(6) 1_665 2_575 ?
Nb1 Cu1 O5 146.7(9) 1_665 1_565 ?
Nb1 Cu1 O6 93.6(6) 1_665 2_564 ?
Nb1 Cu1 O6 92.8(7) 1_665 2_574 ?
Nb1 Cu1 Nb2 73.9(5) 2_665 1_555 ?
Nb1 Cu1 Nb2 73.1(4) 2_665 1_565 ?
Nb1 Cu1 Nb2 114.1(5) 2_665 2_564 ?
Nb1 Cu1 Nb2 112.3(5) 2_665 2_574 ?
Nb1 Cu1 O1 100.2(6) 2_665 1_555 ?
Nb1 Cu1 O1 144.9(6) 2_665 2_574 ?
Nb1 Cu1 O2 101.3(7) 2_665 1_564 ?
Nb1 Cu1 O3 81.1(7) 2_665 1_565 ?
Nb1 Cu1 O3 149.8(9) 2_665 2_564 ?
Nb1 Cu1 O4 82.1(7) 2_665 1_555 ?
Nb1 Cu1 O5 137.1(8) 2_665 1_565 ?
Nb1 Cu1 O6 92.3(5) 2_665 2_564 ?
Nb1 Cu1 O6 90.8(7) 2_665 2_574 ?
Nb2 Cu1 Nb2 109.9(5) 1_555 1_565 ?
Nb2 Cu1 Nb2 73.9(4) 1_555 2_564 ?
Nb2 Cu1 Nb2 173.6(5) 1_555 2_574 ?
Nb2 Cu1 O1 140.3(6) 1_555 2_574 ?
Nb2 Cu1 O2 146.2(8) 1_555 1_564 ?
Nb2 Cu1 O3 77.3(6) 1_555 1_565 ?
Nb2 Cu1 O3 86.6(8) 1_555 2_564 ?
Nb2 Cu1 O4 85.3(7) 1_555 1_555 ?
Nb2 Cu1 O4 90.5(6) 1_555 2_575 ?
Nb2 Cu1 O5 94.2(7) 1_555 1_565 ?
Nb2 Cu1 O5 106.8(8) 1_555 1_665 ?
Nb2 Cu1 O6 141.4(7) 1_555 2_574 ?
Nb2 Cu1 Nb2 172.7(5) 1_565 2_564 ?
Nb2 Cu1 Nb2 71.3(4) 1_565 2_574 ?
Nb2 Cu1 O1 94.9(6) 1_565 1_555 ?
Nb2 Cu1 O1 83.9(5) 1_565 2_574 ?
Nb2 Cu1 O2 100.1(7) 1_565 1_564 ?
Nb2 Cu1 O2 88.7(8) 1_565 2_564 ?
Nb2 Cu1 O3 136.3(8) 1_565 2_564 ?
Nb2 Cu1 O4 145.2(8) 1_565 1_555 ?
Nb2 Cu1 O5 72.8(7) 1_565 1_565 ?
Nb2 Cu1 O5 82.9(8) 1_565 1_665 ?
Nb2 Cu1 O6 144.8(5) 1_565 2_564 ?
Nb2 Cu1 Nb2 104.2(4) 2_564 2_574 ?
Nb2 Cu1 O1 84.7(6) 2_564 1_555 ?
Nb2 Cu1 O1 89.3(5) 2_564 2_574 ?
Nb2 Cu1 O2 78.2(6) 2_564 1_564 ?
Nb2 Cu1 O2 97.8(9) 2_564 2_564 ?
Nb2 Cu1 O3 141.5(7) 2_564 1_565 ?
Nb2 Cu1 O4 149.5(6) 2_564 2_575 ?
Nb2 Cu1 O5 101.0(7) 2_564 1_565 ?
Nb2 Cu1 O5 102.1(8) 2_564 1_665 ?
Nb2 Cu1 O6 143.4(7) 2_564 2_574 ?
Nb2 Cu1 O1 138.1(7) 2_574 1_555 ?
Nb2 Cu1 O2 147.4(9) 2_574 2_564 ?
Nb2 Cu1 O3 101.5(6) 2_574 1_565 ?
Nb2 Cu1 O3 88.4(8) 2_574 2_564 ?
Nb2 Cu1 O4 97.1(7) 2_574 1_555 ?
Nb2 Cu1 O4 93.8(6) 2_574 2_575 ?
Nb2 Cu1 O5 80.1(7) 2_574 1_565 ?
Nb2 Cu1 O5 79.5(7) 2_574 1_665 ?
Nb2 Cu1 O6 143.0(5) 2_574 2_564 ?
O1 Cu1 O1 108.0(7) 1_555 2_574 ?
O1 Cu1 O2 156.6(10) 1_555 1_564 ?
O1 Cu1 O2 67.0(9) 1_555 2_564 ?
O1 Cu1 O3 57.2(6) 1_555 1_565 ?
O1 Cu1 O3 74.5(9) 1_555 2_564 ?
O1 Cu1 O4 113.5(9) 1_555 1_555 ?
O1 Cu1 O4 98.3(7) 1_555 2_575 ?
O1 Cu1 O5 58.0(7) 1_555 1_565 ?
O1 Cu1 O5 139.5(10) 1_555 1_665 ?
O1 Cu1 O6 55.5(6) 1_555 2_564 ?
O1 Cu1 O6 118.3(8) 1_555 2_574 ?
O1 Cu1 O2 56.4(7) 2_574 1_564 ?
O1 Cu1 O2 170.8(11) 2_574 2_564 ?
O1 Cu1 O3 96.9(7) 2_574 1_565 ?
O1 Cu1 O3 60.9(8) 2_574 2_564 ?
O1 Cu1 O4 104.5(8) 2_574 1_555 ?
O1 Cu1 O4 118.0(7) 2_574 2_575 ?
O1 Cu1 O5 53.3(7) 2_574 1_565 ?
O1 Cu1 O5 111.9(9) 2_574 1_665 ?
O1 Cu1 O6 120.7(6) 2_574 2_564 ?
O1 Cu1 O6 57.7(7) 2_574 2_574 ?
O2 Cu1 O2 130.8(12) 1_564 2_564 ?
O2 Cu1 O3 135.9(10) 1_564 1_565 ?
O2 Cu1 O3 82.2(10) 1_564 2_564 ?
O2 Cu1 O4 60.9(8) 1_564 1_555 ?
O2 Cu1 O4 104.6(9) 1_564 2_575 ?
O2 Cu1 O5 109.7(11) 1_564 1_565 ?
O2 Cu1 O5 60.9(9) 1_564 1_665 ?
O2 Cu1 O6 114.3(8) 1_564 2_564 ?
O2 Cu1 O6 70.7(9) 1_564 2_574 ?
O2 Cu1 O3 73.9(9) 2_564 1_565 ?
O2 Cu1 O3 122.8(13) 2_564 2_564 ?
O2 Cu1 O4 84.7(11) 2_564 1_555 ?
O2 Cu1 O4 56.9(8) 2_564 2_575 ?
O2 Cu1 O5 119.1(12) 2_564 1_565 ?
O2 Cu1 O5 72.5(10) 2_564 1_665 ?
O2 Cu1 O6 63.6(8) 2_564 2_564 ?
O2 Cu1 O6 116.9(10) 2_564 2_574 ?
O3 Cu1 O3 117.4(10) 1_565 2_564 ?
O3 Cu1 O4 158.5(10) 1_565 1_555 ?
O3 Cu1 O4 53.8(7) 1_565 2_575 ?
O3 Cu1 O5 56.1(8) 1_565 1_565 ?
O3 Cu1 O5 110.5(10) 1_565 1_665 ?
O3 Cu1 O6 109.6(7) 1_565 2_564 ?
O3 Cu1 O6 65.2(8) 1_565 2_574 ?
O3 Cu1 O4 73.5(10) 2_564 1_555 ?
O3 Cu1 O4 171.2(11) 2_564 2_575 ?
O3 Cu1 O5 65.6(10) 2_564 1_565 ?
O3 Cu1 O5 132.1(13) 2_564 1_665 ?
O3 Cu1 O6 59.9(8) 2_564 2_564 ?
O3 Cu1 O6 118.2(10) 2_564 2_574 ?
O4 Cu1 O4 114.6(8) 1_555 2_575 ?
O4 Cu1 O5 139.0(11) 1_555 1_565 ?
O4 Cu1 O5 62.5(8) 1_555 1_665 ?
O4 Cu1 O6 58.0(7) 1_555 2_564 ?
O4 Cu1 O6 128.2(10) 1_555 2_574 ?
O4 Cu1 O5 106.4(9) 2_575 1_565 ?
O4 Cu1 O5 56.7(8) 2_575 1_665 ?
O4 Cu1 O6 120.6(6) 2_575 2_564 ?
O4 Cu1 O6 60.3(7) 2_575 2_574 ?
O5 Cu1 O5 152.3(12) 1_565 1_665 ?
O5 Cu1 O6 100.8(8) 1_565 2_564 ?
O5 Cu1 O6 73.1(9) 1_565 2_574 ?
O5 Cu1 O6 106.8(8) 1_665 2_564 ?
O5 Cu1 O6 79.2(10) 1_665 2_574 ?
O6 Cu1 O6 173.5(7) 2_564 2_574 ?
Nb1 Cu2 Nb1 104.2(3) 1_556 1_566 ?
Nb1 Cu2 Nb1 72.9(3) 1_556 2_555 ?
Nb1 Cu2 Nb1 176.0(3) 1_556 2_565 ?
Nb1 Cu2 Nb2 112.1(3) 1_556 1_455 ?
Nb1 Cu2 Nb2 69.5(3) 1_556 2_465 ?
Nb1 Cu2 Nb2 70.9(3) 1_556 2_565 ?
Nb1 Cu2 O1 142.6(6) 1_556 1_555 ?
Nb1 Cu2 O2 146.5(6) 1_556 2_464 ?
Nb1 Cu2 O3 84.7(6) 1_556 1_555 ?
Nb1 Cu2 O3 86.5(4) 1_556 2_565 ?
Nb1 Cu2 O4 76.8(5) 1_556 1_456 ?
Nb1 Cu2 O4 91.7(7) 1_556 2_465 ?
Nb1 Cu2 O5 142.4(6) 1_556 2_565 ?
Nb1 Cu2 O6 98.0(6) 1_556 1_455 ?
Nb1 Cu2 O6 101.6(6) 1_556 1_555 ?
Nb1 Cu2 Nb1 176.4(3) 1_566 2_555 ?
Nb1 Cu2 Nb1 72.4(3) 1_566 2_565 ?
Nb1 Cu2 Nb2 109.8(3) 1_566 1_455 ?
Nb1 Cu2 Nb2 71.0(3) 1_566 2_465 ?
Nb1 Cu2 Nb2 72.6(3) 1_566 2_565 ?
Nb1 Cu2 O1 104.0(6) 1_566 1_555 ?
Nb1 Cu2 O1 86.0(6) 1_566 2_565 ?
Nb1 Cu2 O2 95.9(5) 1_566 1_455 ?
Nb1 Cu2 O2 90.9(5) 1_566 2_464 ?
Nb1 Cu2 O3 141.1(6) 1_566 1_555 ?
Nb1 Cu2 O4 145.9(7) 1_566 2_465 ?
Nb1 Cu2 O5 142.5(4) 1_566 2_555 ?
Nb1 Cu2 O6 78.7(6) 1_566 1_455 ?
Nb1 Cu2 O6 82.4(6) 1_566 1_555 ?
Nb1 Cu2 Nb1 110.4(3) 2_555 2_565 ?
Nb1 Cu2 Nb2 73.5(3) 2_555 1_455 ?
Nb1 Cu2 Nb2 109.4(4) 2_555 2_465 ?
Nb1 Cu2 Nb2 104.3(4) 2_555 2_565 ?
Nb1 Cu2 O1 77.8(5) 2_555 1_555 ?
Nb1 Cu2 O1 90.4(6) 2_555 2_565 ?
Nb1 Cu2 O2 83.1(6) 2_555 1_455 ?
Nb1 Cu2 O2 92.7(5) 2_555 2_464 ?
Nb1 Cu2 O3 142.2(5) 2_555 2_565 ?
Nb1 Cu2 O4 142.7(6) 2_555 1_456 ?
Nb1 Cu2 O5 144.6(6) 2_555 2_565 ?
Nb1 Cu2 O6 103.7(6) 2_555 1_455 ?
Nb1 Cu2 O6 96.1(6) 2_555 1_555 ?
Nb1 Cu2 Nb2 71.4(3) 2_565 1_455 ?
Nb1 Cu2 Nb2 110.8(4) 2_565 2_465 ?
Nb1 Cu2 Nb2 105.8(4) 2_565 2_565 ?
Nb1 Cu2 O1 141.0(7) 2_565 2_565 ?
Nb1 Cu2 O2 143.9(6) 2_565 1_455 ?
Nb1 Cu2 O3 96.7(5) 2_565 1_555 ?
Nb1 Cu2 O3 89.5(5) 2_565 2_565 ?
Nb1 Cu2 O4 100.9(6) 2_565 1_456 ?
Nb1 Cu2 O4 92.3(6) 2_565 2_465 ?
Nb1 Cu2 O5 145.0(4) 2_565 2_555 ?
Nb1 Cu2 O6 83.4(6) 2_565 1_455 ?
Nb1 Cu2 O6 76.1(6) 2_565 1_555 ?
Nb2 Cu2 Nb2 68.9(4) 1_455 2_465 ?
Nb2 Cu2 Nb2 175.1(5) 1_455 2_565 ?
Nb2 Cu2 O1 80.4(5) 1_455 1_555 ?
Nb2 Cu2 O1 147.6(8) 1_455 2_565 ?
Nb2 Cu2 O2 81.5(6) 1_455 1_455 ?
Nb2 Cu2 O3 101.1(7) 1_455 1_555 ?
Nb2 Cu2 O3 144.3(6) 1_455 2_565 ?
Nb2 Cu2 O4 99.0(6) 1_455 1_456 ?
Nb2 Cu2 O5 91.5(5) 1_455 2_555 ?
Nb2 Cu2 O5 88.9(7) 1_455 2_565 ?
Nb2 Cu2 O6 139.2(8) 1_455 1_555 ?
Nb2 Cu2 Nb2 115.9(5) 2_465 2_565 ?
Nb2 Cu2 O1 144.1(7) 2_465 1_555 ?
Nb2 Cu2 O1 91.3(7) 2_465 2_565 ?
Nb2 Cu2 O2 88.2(6) 2_465 2_464 ?
Nb2 Cu2 O3 144.6(8) 2_465 1_555 ?
Nb2 Cu2 O3 91.6(6) 2_465 2_565 ?
Nb2 Cu2 O4 87.2(7) 2_465 2_465 ?
Nb2 Cu2 O5 89.7(5) 2_465 2_555 ?
Nb2 Cu2 O5 91.6(7) 2_465 2_565 ?
Nb2 Cu2 O6 148.1(8) 2_465 1_555 ?
Nb2 Cu2 O1 94.9(6) 2_565 1_555 ?
Nb2 Cu2 O2 102.7(7) 2_565 1_455 ?
Nb2 Cu2 O2 142.6(7) 2_565 2_464 ?
Nb2 Cu2 O3 75.0(6) 2_565 1_555 ?
Nb2 Cu2 O4 85.4(6) 2_565 1_456 ?
Nb2 Cu2 O4 141.5(9) 2_565 2_465 ?
Nb2 Cu2 O5 88.9(5) 2_565 2_555 ?
Nb2 Cu2 O5 90.6(7) 2_565 2_565 ?
Nb2 Cu2 O6 145.1(8) 2_565 1_455 ?
O1 Cu2 O1 124.3(9) 1_555 2_565 ?
O1 Cu2 O2 156.7(9) 1_555 1_455 ?
O1 Cu2 O2 56.0(6) 1_555 2_464 ?
O1 Cu2 O3 58.0(6) 1_555 1_555 ?
O1 Cu2 O3 103.5(7) 1_555 2_565 ?
O1 Cu2 O4 138.1(9) 1_555 1_456 ?
O1 Cu2 O4 78.2(8) 1_555 2_465 ?
O1 Cu2 O5 109.9(6) 1_555 2_555 ?
O1 Cu2 O5 68.9(8) 1_555 2_565 ?
O1 Cu2 O6 111.3(9) 1_555 1_455 ?
O1 Cu2 O6 58.7(7) 1_555 1_555 ?
O1 Cu2 O2 68.5(8) 2_565 1_455 ?
O1 Cu2 O2 176.9(10) 2_565 2_464 ?
O1 Cu2 O3 79.9(8) 2_565 1_555 ?
O1 Cu2 O3 57.1(6) 2_565 2_565 ?
O1 Cu2 O4 76.7(8) 2_565 1_456 ?
O1 Cu2 O4 121.4(11) 2_565 2_465 ?
O1 Cu2 O5 61.9(6) 2_565 2_555 ?
O1 Cu2 O5 118.1(9) 2_565 2_565 ?
O1 Cu2 O6 124.4(10) 2_565 1_455 ?
O1 Cu2 O6 69.0(8) 2_565 1_555 ?
O2 Cu2 O2 112.5(8) 1_455 2_464 ?
O2 Cu2 O3 111.9(9) 1_455 1_555 ?
O2 Cu2 O3 99.7(7) 1_455 2_565 ?
O2 Cu2 O4 59.7(6) 1_455 1_456 ?
O2 Cu2 O4 78.5(9) 1_455 2_465 ?
O2 Cu2 O5 56.0(6) 1_455 2_555 ?
O2 Cu2 O5 125.3(9) 1_455 2_565 ?
O2 Cu2 O6 60.6(7) 1_455 1_455 ?
O2 Cu2 O6 137.5(10) 1_455 1_555 ?
O2 Cu2 O3 102.3(8) 2_464 1_555 ?
O2 Cu2 O3 119.8(8) 2_464 2_565 ?
O2 Cu2 O4 101.1(8) 2_464 1_456 ?
O2 Cu2 O4 61.7(7) 2_464 2_465 ?
O2 Cu2 O5 121.1(6) 2_464 2_555 ?
O2 Cu2 O5 58.9(7) 2_464 2_565 ?
O2 Cu2 O6 55.3(6) 2_464 1_455 ?
O2 Cu2 O6 110.1(9) 2_464 1_555 ?
O3 Cu2 O3 111.1(7) 1_555 2_565 ?
O3 Cu2 O4 156.6(10) 1_555 1_456 ?
O3 Cu2 O4 69.3(9) 1_555 2_465 ?
O3 Cu2 O5 55.9(6) 1_555 2_555 ?
O3 Cu2 O5 122.8(9) 1_555 2_565 ?
O3 Cu2 O6 138.4(10) 1_555 1_455 ?
O3 Cu2 O6 58.7(6) 1_555 1_555 ?
O3 Cu2 O4 54.3(6) 2_565 1_456 ?
O3 Cu2 O4 178.1(10) 2_565 2_465 ?
O3 Cu2 O5 119.0(6) 2_565 2_555 ?
O3 Cu2 O5 61.0(7) 2_565 2_565 ?
O3 Cu2 O6 110.5(9) 2_565 1_455 ?
O3 Cu2 O6 56.7(6) 2_565 1_555 ?
O4 Cu2 O4 124.8(10) 1_456 2_465 ?
O4 Cu2 O5 112.0(7) 1_456 2_555 ?
O4 Cu2 O5 69.2(8) 1_456 2_565 ?
O4 Cu2 O6 59.7(7) 1_456 1_455 ?
O4 Cu2 O6 111.0(9) 1_456 1_555 ?
O4 Cu2 O5 59.5(7) 2_465 2_555 ?
O4 Cu2 O5 120.5(10) 2_465 2_565 ?
O4 Cu2 O6 69.2(8) 2_465 1_455 ?
O4 Cu2 O6 124.3(11) 2_465 1_555 ?
O5 Cu2 O5 178.7(7) 2_555 2_565 ?
O5 Cu2 O6 102.7(7) 2_555 1_455 ?
O5 Cu2 O6 101.8(7) 2_555 1_555 ?
O5 Cu2 O6 78.4(9) 2_565 1_455 ?
O5 Cu2 O6 77.1(9) 2_565 1_555 ?
O6 Cu2 O6 155.5(11) 1_455 1_555 ?
Cu1 Nb1 Cu1 116.1(11) 1_445 1_545 ?
Cu1 Nb1 Cu1 71.1(7) 1_445 2_464 ?
Cu1 Nb1 Cu2 109.3(7) 1_445 1_544 ?
Cu1 Nb1 Cu2 111.3(7) 1_445 1_554 ?
Cu1 Nb1 Cu2 68.4(6) 1_445 2_554 ?
Cu1 Nb1 Cu2 70.5(6) 1_445 2_564 ?
Cu1 Nb1 O1 126.7(11) 1_445 2_564 ?
Cu1 Nb1 O2 54.4(8) 1_445 1_454 ?
Cu1 Nb1 O3 126.2(13) 1_445 2_554 ?
Cu1 Nb1 O4 52.7(7) 1_445 1_445 ?
Cu1 Nb1 O5 55.5(9) 1_445 1_555 ?
Cu1 Nb1 O5 122.9(11) 1_445 2_554 ?
Cu1 Nb1 Cu1 172.8(11) 1_545 2_464 ?
Cu1 Nb1 Cu2 106.7(7) 1_545 1_544 ?
Cu1 Nb1 Cu2 108.6(7) 1_545 1_554 ?
Cu1 Nb1 Cu2 74.6(6) 1_545 2_554 ?
Cu1 Nb1 Cu2 76.6(6) 1_545 2_564 ?
Cu1 Nb1 O1 73.1(7) 1_545 2_564 ?
Cu1 Nb1 O2 148.5(13) 1_545 1_454 ?
Cu1 Nb1 O4 113.0(11) 1_545 1_445 ?
Cu1 Nb1 O5 65.3(10) 1_545 1_555 ?
Cu1 Nb1 O5 117.2(10) 1_545 2_554 ?
Cu1 Nb1 Cu2 69.4(6) 2_464 1_544 ?
Cu1 Nb1 Cu2 67.4(5) 2_464 1_554 ?
Cu1 Nb1 Cu2 109.2(7) 2_464 2_554 ?
Cu1 Nb1 Cu2 107.1(7) 2_464 2_564 ?
Cu1 Nb1 O1 103.1(9) 2_464 2_564 ?
Cu1 Nb1 O3 138.9(12) 2_464 2_554 ?
Cu1 Nb1 O4 70.7(8) 2_464 1_445 ?
Cu1 Nb1 O5 121.3(11) 2_464 1_555 ?
Cu1 Nb1 O5 56.0(8) 2_464 2_554 ?
Cu2 Nb1 Cu2 104.2(4) 1_544 1_554 ?
Cu2 Nb1 Cu2 72.7(5) 1_544 2_554 ?
Cu2 Nb1 Cu2 176.2(6) 1_544 2_564 ?
Cu2 Nb1 O1 117.9(6) 1_544 2_564 ?
Cu2 Nb1 O2 104.7(8) 1_544 1_454 ?
Cu2 Nb1 O3 69.5(7) 1_544 2_554 ?
Cu2 Nb1 O4 59.8(6) 1_544 1_445 ?
Cu2 Nb1 O5 146.7(9) 1_544 1_555 ?
Cu2 Nb1 Cu2 176.2(6) 1_554 2_554 ?
Cu2 Nb1 Cu2 72.7(5) 1_554 2_564 ?
Cu2 Nb1 O2 59.9(7) 1_554 1_454 ?
Cu2 Nb1 O3 121.3(8) 1_554 2_554 ?
Cu2 Nb1 O4 138.1(8) 1_554 1_445 ?
Cu2 Nb1 O5 109.0(9) 1_554 1_555 ?
Cu2 Nb1 O5 68.8(6) 1_554 2_554 ?
Cu2 Nb1 Cu2 110.4(5) 2_554 2_564 ?
Cu2 Nb1 O1 147.7(7) 2_554 2_564 ?
Cu2 Nb1 O2 118.5(8) 2_554 1_454 ?
Cu2 Nb1 O3 60.0(7) 2_554 2_554 ?
Cu2 Nb1 O5 74.1(6) 2_554 1_555 ?
Cu2 Nb1 O5 108.1(8) 2_554 2_554 ?
Cu2 Nb1 O1 60.8(6) 2_564 2_564 ?
Cu2 Nb1 O2 72.0(7) 2_564 1_454 ?
Cu2 Nb1 O3 113.8(8) 2_564 2_554 ?
Cu2 Nb1 O4 121.1(7) 2_564 1_445 ?
Cu2 Nb1 O5 141.4(9) 2_564 2_554 ?
O1 Nb1 O2 89.6(9) 2_564 1_454 ?
O1 Nb1 O3 93.6(8) 2_564 2_554 ?
O1 Nb1 O4 173.7(10) 2_564 1_445 ?
O1 Nb1 O5 91.5(10) 2_564 1_555 ?
O1 Nb1 O5 87.6(8) 2_564 2_554 ?
O2 Nb1 O3 174.2(14) 1_454 2_554 ?
O2 Nb1 O4 85.5(8) 1_454 1_445 ?
O2 Nb1 O5 89.6(11) 1_454 1_555 ?
O2 Nb1 O5 87.3(10) 1_454 2_554 ?
O3 Nb1 O4 90.9(11) 2_554 1_445 ?
O3 Nb1 O5 95.1(11) 2_554 1_555 ?
O3 Nb1 O5 88.0(10) 2_554 2_554 ?
O4 Nb1 O5 92.4(9) 1_445 1_555 ?
O4 Nb1 O5 88.1(10) 1_445 2_554 ?
O5 Nb1 O5 176.9(13) 1_555 2_554 ?
Cu1 Nb2 Cu1 109.9(6) 1_545 1_555 ?
Cu1 Nb2 Cu1 71.3(6) 1_545 2_565 ?
Cu1 Nb2 Cu1 172.7(7) 1_545 2_575 ?
Cu1 Nb2 Cu2 104.2(6) 1_545 1_655 ?
Cu1 Nb2 Cu2 76.4(6) 1_545 2_564 ?
Cu1 Nb2 Cu2 68.1(5) 1_545 2_664 ?
Cu1 Nb2 O1 114.8(9) 1_545 1_555 ?
Cu1 Nb2 O2 123.9(8) 1_545 2_564 ?
Cu1 Nb2 O3 65.1(7) 1_545 1_555 ?
Cu1 Nb2 O4 69.4(7) 1_545 2_565 ?
Cu1 Nb2 O6 137.6(9) 1_545 1_555 ?
Cu1 Nb2 Cu1 173.6(7) 1_555 2_565 ?
Cu1 Nb2 Cu1 73.9(6) 1_555 2_575 ?
Cu1 Nb2 Cu2 107.5(6) 1_555 1_655 ?
Cu1 Nb2 Cu2 77.1(6) 1_555 2_564 ?
Cu1 Nb2 Cu2 68.1(5) 1_555 2_664 ?
Cu1 Nb2 O1 68.7(8) 1_555 1_555 ?
Cu1 Nb2 O3 150.0(9) 1_555 1_555 ?
Cu1 Nb2 O4 121.0(9) 1_555 2_565 ?
Cu1 Nb2 O6 112.0(9) 1_555 1_555 ?
Cu1 Nb2 O6 74.1(7) 1_555 2_564 ?
Cu1 Nb2 Cu1 104.2(5) 2_565 2_575 ?
Cu1 Nb2 Cu2 66.3(5) 2_565 1_655 ?
Cu1 Nb2 Cu2 109.2(7) 2_565 2_564 ?
Cu1 Nb2 Cu2 107.3(7) 2_565 2_664 ?
Cu1 Nb2 O1 116.8(8) 2_565 1_555 ?
Cu1 Nb2 O2 134.2(9) 2_565 2_564 ?
Cu1 Nb2 O4 53.1(7) 2_565 2_565 ?
Cu1 Nb2 O6 66.3(6) 2_565 1_555 ?
Cu1 Nb2 O6 107.3(10) 2_565 2_564 ?
Cu1 Nb2 Cu2 68.5(5) 2_575 1_655 ?
Cu1 Nb2 Cu2 110.8(7) 2_575 2_564 ?
Cu1 Nb2 Cu2 108.7(7) 2_575 2_664 ?
Cu1 Nb2 O1 72.2(7) 2_575 1_555 ?
Cu1 Nb2 O2 54.9(7) 2_575 2_564 ?
Cu1 Nb2 O3 114.9(7) 2_575 1_555 ?
Cu1 Nb2 O4 103.3(8) 2_575 2_565 ?
Cu1 Nb2 O6 147.9(10) 2_575 2_564 ?
Cu2 Nb2 Cu2 174.6(6) 1_655 2_564 ?
Cu2 Nb2 Cu2 68.9(5) 1_655 2_664 ?
Cu2 Nb2 O1 139.7(8) 1_655 1_555 ?
Cu2 Nb2 O2 68.0(7) 1_655 2_564 ?
Cu2 Nb2 O3 102.3(8) 1_655 1_555 ?
Cu2 Nb2 O6 56.6(7) 1_655 1_555 ?
Cu2 Nb2 O6 119.6(10) 1_655 2_564 ?
Cu2 Nb2 Cu2 115.9(6) 2_564 2_664 ?
Cu2 Nb2 O2 116.3(9) 2_564 2_564 ?
Cu2 Nb2 O3 73.1(7) 2_564 1_555 ?
Cu2 Nb2 O4 145.1(10) 2_564 2_565 ?
Cu2 Nb2 O6 119.4(9) 2_564 1_555 ?
Cu2 Nb2 O6 64.0(8) 2_564 2_564 ?
Cu2 Nb2 O1 134.4(9) 2_664 1_555 ?
Cu2 Nb2 O2 57.1(7) 2_664 2_564 ?
Cu2 Nb2 O3 128.2(9) 2_664 1_555 ?
Cu2 Nb2 O4 57.1(7) 2_664 2_565 ?
Cu2 Nb2 O6 123.0(9) 2_664 1_555 ?
Cu2 Nb2 O6 55.7(7) 2_664 2_564 ?
O1 Nb2 O2 96.3(11) 1_555 2_564 ?
O1 Nb2 O3 86.3(8) 1_555 1_555 ?
O1 Nb2 O4 168.3(12) 1_555 2_565 ?
O1 Nb2 O6 86.7(10) 1_555 1_555 ?
O1 Nb2 O6 98.4(11) 1_555 2_564 ?
O2 Nb2 O3 167.4(12) 2_564 1_555 ?
O2 Nb2 O4 89.4(9) 2_564 2_565 ?
O2 Nb2 O6 86.3(10) 2_564 1_555 ?
O2 Nb2 O6 97.3(10) 2_564 2_564 ?
O3 Nb2 O4 86.0(11) 1_555 2_565 ?
O3 Nb2 O6 81.5(8) 1_555 1_555 ?
O3 Nb2 O6 94.4(11) 1_555 2_564 ?
O4 Nb2 O6 83.5(10) 2_565 1_555 ?
O4 Nb2 O6 90.9(11) 2_565 2_564 ?
O6 Nb2 O6 173.2(14) 1_555 2_564 ?
Cu1 O1 Cu1 75.9(7) 1_555 2_575 ?
Cu1 O1 Cu2 156.9(10) 1_555 1_555 ?
Cu1 O1 Cu2 99.5(10) 1_555 2_564 ?
Cu1 O1 Nb1 93.0(9) 1_555 2_565 ?
Cu1 O1 Nb2 75.0(7) 1_555 1_555 ?
Cu1 O1 O2 121.3(11) 1_555 2_464 ?
Cu1 O1 O3 122.5(8) 1_555 1_555 ?
Cu1 O1 O3 62.9(7) 1_555 1_565 ?
Cu1 O1 O4 163.3(10) 1_555 2_465 ?
Cu1 O1 O5 113.4(7) 1_555 1_555 ?
Cu1 O1 O5 61.1(7) 1_555 1_565 ?
Cu1 O1 O5 122.4(10) 1_555 2_565 ?
Cu1 O1 O6 98.8(8) 1_555 1_555 ?
Cu1 O1 O6 65.2(6) 1_555 2_564 ?
Cu1 O1 Cu2 81.0(7) 2_575 1_555 ?
Cu1 O1 Cu2 175.2(10) 2_575 2_564 ?
Cu1 O1 Nb1 70.6(7) 2_575 2_565 ?
Cu1 O1 Nb2 74.4(7) 2_575 1_555 ?
Cu1 O1 O2 111.2(10) 2_575 2_464 ?
Cu1 O1 O2 51.9(6) 2_575 2_564 ?
Cu1 O1 O3 99.6(6) 2_575 1_555 ?
Cu1 O1 O3 115.0(8) 2_575 2_564 ?
Cu1 O1 O4 120.7(8) 2_575 2_465 ?
Cu1 O1 O5 152.4(8) 2_575 1_555 ?
Cu1 O1 O5 96.9(8) 2_575 1_565 ?
Cu1 O1 O5 58.1(7) 2_575 2_565 ?
Cu1 O1 O6 109.3(8) 2_575 2_564 ?
Cu2 O1 Cu2 103.6(9) 1_555 2_564 ?
Cu2 O1 Nb1 80.5(6) 1_555 2_565 ?
Cu2 O1 Nb2 97.5(8) 1_555 1_555 ?
Cu2 O1 O2 68.8(7) 1_555 2_464 ?
Cu2 O1 O2 121.0(9) 1_555 2_564 ?
Cu2 O1 O3 60.0(6) 1_555 1_555 ?
Cu2 O1 O3 99.2(6) 1_555 1_565 ?
Cu2 O1 O3 164.0(9) 1_555 2_564 ?
Cu2 O1 O5 86.7(6) 1_555 1_555 ?
Cu2 O1 O5 124.2(8) 1_555 1_565 ?
Cu2 O1 O6 61.2(7) 1_555 1_555 ?
Cu2 O1 O6 122.7(9) 1_555 2_564 ?
Cu2 O1 Nb1 108.9(7) 2_564 2_565 ?
Cu2 O1 Nb2 105.7(9) 2_564 1_555 ?
Cu2 O1 O2 70.0(8) 2_564 2_464 ?
Cu2 O1 O2 125.1(10) 2_564 2_564 ?
Cu2 O1 O3 83.9(8) 2_564 1_555 ?
Cu2 O1 O3 138.5(8) 2_564 1_565 ?
Cu2 O1 O3 60.4(7) 2_564 2_564 ?
Cu2 O1 O4 64.0(7) 2_564 2_465 ?
Cu2 O1 O5 79.7(7) 2_564 1_565 ?
Cu2 O1 O5 124.8(10) 2_564 2_565 ?
Cu2 O1 O6 144.1(11) 2_564 1_555 ?
Cu2 O1 O6 69.3(8) 2_564 2_564 ?
Nb1 O1 Nb2 144.8(6) 2_565 1_555 ?
Nb1 O1 O2 45.2(6) 2_565 2_464 ?
Nb1 O1 O2 108.6(8) 2_565 2_564 ?
Nb1 O1 O3 140.4(6) 2_565 1_555 ?
Nb1 O1 O3 103.5(7) 2_565 2_564 ?
Nb1 O1 O4 94.5(6) 2_565 2_465 ?
Nb1 O1 O5 131.6(6) 2_565 1_555 ?
Nb1 O1 O5 47.9(5) 2_565 1_565 ?
Nb1 O1 O6 100.7(7) 2_565 1_555 ?
Nb1 O1 O6 156.8(8) 2_565 2_564 ?
Nb2 O1 O2 163.3(11) 1_555 2_464 ?
Nb2 O1 O3 49.6(6) 1_555 1_555 ?
Nb2 O1 O3 105.0(7) 1_555 1_565 ?
Nb2 O1 O3 88.0(7) 1_555 2_564 ?
Nb2 O1 O4 106.3(9) 1_555 2_465 ?
Nb2 O1 O5 82.9(7) 1_555 1_555 ?
Nb2 O1 O5 136.0(8) 1_555 1_565 ?
Nb2 O1 O5 117.8(9) 1_555 2_565 ?
Nb2 O1 O6 50.6(7) 1_555 1_555 ?
O2 O1 O2 152.7(11) 2_464 2_564 ?
O2 O1 O3 113.8(8) 2_464 1_555 ?
O2 O1 O3 87.1(7) 2_464 1_565 ?
O2 O1 O3 102.8(9) 2_464 2_564 ?
O2 O1 O4 57.1(6) 2_464 2_465 ?
O2 O1 O5 86.7(6) 2_464 1_555 ?
O2 O1 O5 60.2(7) 2_464 1_565 ?
O2 O1 O5 58.4(7) 2_464 2_565 ?
O2 O1 O6 123.8(10) 2_464 1_555 ?
O2 O1 O6 139.2(10) 2_464 2_564 ?
O2 O1 O3 91.7(7) 2_564 1_555 ?
O2 O1 O3 66.6(6) 2_564 1_565 ?
O2 O1 O3 72.8(7) 2_564 2_564 ?
O2 O1 O4 147.6(10) 2_564 2_465 ?
O2 O1 O5 117.8(8) 2_564 1_555 ?
O2 O1 O5 97.7(8) 2_564 1_565 ?
O2 O1 O5 110.0(10) 2_564 2_565 ?
O2 O1 O6 59.8(7) 2_564 1_555 ?
O2 O1 O6 60.5(6) 2_564 2_564 ?
O3 O1 O3 137.6(6) 1_555 1_565 ?
O3 O1 O3 115.0(7) 1_555 2_564 ?
O3 O1 O4 56.7(6) 1_555 2_465 ?
O3 O1 O5 53.1(5) 1_555 1_555 ?
O3 O1 O5 163.5(7) 1_555 1_565 ?
O3 O1 O5 99.2(7) 1_555 2_565 ?
O3 O1 O6 60.2(6) 1_555 1_555 ?
O3 O1 O6 62.7(7) 1_555 2_564 ?
O3 O1 O3 93.8(7) 1_565 2_564 ?
O3 O1 O4 130.6(7) 1_565 2_465 ?
O3 O1 O5 169.3(6) 1_565 1_555 ?
O3 O1 O5 58.9(6) 1_565 1_565 ?
O3 O1 O5 59.6(6) 1_565 2_565 ?
O3 O1 O6 77.4(6) 1_565 1_555 ?
O3 O1 O6 124.0(7) 1_565 2_564 ?
O3 O1 O4 124.4(8) 2_564 2_465 ?
O3 O1 O5 79.0(6) 2_564 1_555 ?
O3 O1 O5 56.0(6) 2_564 1_565 ?
O3 O1 O5 145.8(10) 2_564 2_565 ?
O3 O1 O6 131.5(9) 2_564 1_555 ?
O3 O1 O6 54.6(6) 2_564 2_564 ?
O4 O1 O5 51.3(5) 2_465 1_555 ?
O4 O1 O5 114.7(7) 2_465 1_565 ?
O4 O1 O5 72.2(6) 2_465 2_565 ?
O4 O1 O6 94.4(8) 2_465 1_555 ?
O4 O1 O6 104.6(9) 2_465 2_564 ?
O5 O1 O5 110.4(5) 1_555 1_565 ?
O5 O1 O5 123.5(7) 1_555 2_565 ?
O5 O1 O6 113.4(8) 1_555 1_555 ?
O5 O1 O6 57.9(6) 1_555 2_564 ?
O5 O1 O5 90.3(8) 1_565 2_565 ?
O5 O1 O6 136.2(9) 1_565 1_555 ?
O5 O1 O6 110.6(7) 1_565 2_564 ?
O5 O1 O6 67.3(8) 2_565 1_555 ?
O5 O1 O6 157.5(10) 2_565 2_564 ?
O6 O1 O6 91.1(8) 1_555 2_564 ?
Cu1 O2 Cu1 108.2(12) 1_546 2_565 ?
Cu1 O2 Cu2 156.7(10) 1_546 1_655 ?
Cu1 O2 Cu2 78.6(8) 1_546 2_665 ?
Cu1 O2 Nb1 88.3(10) 1_546 1_656 ?
Cu1 O2 Nb2 88.7(8) 1_546 2_565 ?
Cu1 O2 O1 71.7(8) 1_546 2_565 ?
Cu1 O2 O1 120.3(10) 1_546 2_665 ?
Cu1 O2 O4 58.5(7) 1_546 1_546 ?
Cu1 O2 O4 101.4(8) 1_546 1_556 ?
Cu1 O2 O4 164.3(10) 1_546 2_565 ?
Cu1 O2 O5 60.2(9) 1_546 1_656 ?
Cu1 O2 O5 120.1(11) 1_546 2_655 ?
Cu1 O2 O6 85.7(8) 1_546 1_545 ?
Cu1 O2 O6 126.7(9) 1_546 1_555 ?
Cu1 O2 Cu2 95.0(10) 2_565 1_655 ?
Cu1 O2 Cu2 173.2(11) 2_565 2_665 ?
Cu1 O2 Nb1 109.1(12) 2_565 1_656 ?
Cu1 O2 Nb2 101.7(10) 2_565 2_565 ?
Cu1 O2 O1 72.7(10) 2_565 2_565 ?
Cu1 O2 O1 119.9(12) 2_565 2_665 ?
Cu1 O2 O3 68.4(9) 2_565 2_555 ?
Cu1 O2 O4 84.6(10) 2_565 1_546 ?
Cu1 O2 O4 136.7(10) 2_565 1_556 ?
Cu1 O2 O4 56.1(9) 2_565 2_565 ?
Cu1 O2 O5 145.6(13) 2_565 1_656 ?
Cu1 O2 O5 65.5(10) 2_565 2_655 ?
Cu1 O2 O6 77.6(8) 2_565 1_555 ?
Cu1 O2 O6 128.9(12) 2_565 2_565 ?
Cu2 O2 Cu2 78.2(6) 1_655 2_665 ?
Cu2 O2 Nb1 82.7(7) 1_655 1_656 ?
Cu2 O2 Nb2 87.9(8) 1_655 2_565 ?
Cu2 O2 O1 118.3(8) 1_655 2_565 ?
Cu2 O2 O3 163.4(8) 1_655 2_555 ?
Cu2 O2 O4 124.5(7) 1_655 1_546 ?
Cu2 O2 O4 60.3(6) 1_655 1_556 ?
Cu2 O2 O5 99.5(8) 1_655 1_656 ?
Cu2 O2 O5 68.0(6) 1_655 2_655 ?
Cu2 O2 O6 114.8(7) 1_655 1_545 ?
Cu2 O2 O6 58.9(6) 1_655 1_555 ?
Cu2 O2 O6 120.2(9) 1_655 2_565 ?
Cu2 O2 Nb1 71.2(6) 2_665 1_656 ?
Cu2 O2 Nb2 77.4(7) 2_665 2_565 ?
Cu2 O2 O1 109.6(7) 2_665 2_565 ?
Cu2 O2 O1 55.2(6) 2_665 2_665 ?
Cu2 O2 O3 118.3(7) 2_665 2_555 ?
Cu2 O2 O4 99.8(6) 2_665 1_546 ?
Cu2 O2 O4 117.1(7) 2_665 2_565 ?
Cu2 O2 O5 112.0(8) 2_665 2_655 ?
Cu2 O2 O6 152.5(7) 2_665 1_545 ?
Cu2 O2 O6 98.0(7) 2_665 1_555 ?
Cu2 O2 O6 55.6(7) 2_665 2_565 ?
Nb1 O2 Nb2 148.4(7) 1_656 2_565 ?
Nb1 O2 O1 159.0(8) 1_656 2_565 ?
Nb1 O2 O1 45.2(6) 1_656 2_665 ?
Nb1 O2 O3 103.4(8) 1_656 2_555 ?
Nb1 O2 O4 46.6(6) 1_656 1_546 ?
Nb1 O2 O4 102.7(6) 1_656 1_556 ?
Nb1 O2 O4 95.6(7) 1_656 2_565 ?
Nb1 O2 O5 48.1(7) 1_656 2_655 ?
Nb1 O2 O6 86.1(7) 1_656 1_545 ?
Nb1 O2 O6 141.5(8) 1_656 1_555 ?
Nb1 O2 O6 111.1(9) 1_656 2_565 ?
Nb2 O2 O1 112.1(8) 2_565 2_665 ?
Nb2 O2 O3 94.1(7) 2_565 2_555 ?
Nb2 O2 O4 146.6(8) 2_565 1_546 ?
Nb2 O2 O4 47.4(6) 2_565 1_556 ?
Nb2 O2 O4 95.8(8) 2_565 2_565 ?
Nb2 O2 O5 109.7(9) 2_565 1_656 ?
Nb2 O2 O5 150.5(10) 2_565 2_655 ?
Nb2 O2 O6 125.0(7) 2_565 1_545 ?
Nb2 O2 O6 49.7(7) 2_565 2_565 ?
O1 O2 O1 152.7(8) 2_565 2_665 ?
O1 O2 O3 57.0(6) 2_565 2_555 ?
O1 O2 O4 114.4(8) 2_565 1_546 ?
O1 O2 O4 87.9(7) 2_565 1_556 ?
O1 O2 O4 102.1(8) 2_565 2_565 ?
O1 O2 O5 124.7(9) 2_565 1_656 ?
O1 O2 O5 138.2(9) 2_565 2_655 ?
O1 O2 O6 86.1(6) 2_565 1_545 ?
O1 O2 O6 59.4(6) 2_565 1_555 ?
O1 O2 O6 58.6(7) 2_565 2_565 ?
O1 O2 O3 148.3(9) 2_665 2_555 ?
O1 O2 O4 91.7(7) 2_665 1_546 ?
O1 O2 O4 66.3(6) 2_665 1_556 ?
O1 O2 O4 71.9(7) 2_665 2_565 ?
O1 O2 O5 60.1(7) 2_665 1_656 ?
O1 O2 O5 60.5(7) 2_665 2_655 ?
O1 O2 O6 117.7(7) 2_665 1_545 ?
O1 O2 O6 97.8(8) 2_665 1_555 ?
O1 O2 O6 110.8(9) 2_665 2_565 ?
O3 O2 O4 57.4(7) 2_555 1_546 ?
O3 O2 O4 131.3(7) 2_555 1_556 ?
O3 O2 O4 124.6(8) 2_555 2_565 ?
O3 O2 O5 95.2(8) 2_555 1_656 ?
O3 O2 O5 104.3(9) 2_555 2_655 ?
O3 O2 O6 51.2(6) 2_555 1_545 ?
O3 O2 O6 113.9(7) 2_555 1_555 ?
O3 O2 O6 72.5(7) 2_555 2_565 ?
O4 O2 O4 138.5(6) 1_546 1_556 ?
O4 O2 O4 114.3(8) 1_546 2_565 ?
O4 O2 O5 61.5(6) 1_546 1_656 ?
O4 O2 O5 61.6(7) 1_546 2_655 ?
O4 O2 O6 52.7(5) 1_546 1_545 ?
O4 O2 O6 162.2(8) 1_546 1_555 ?
O4 O2 O6 101.0(8) 1_546 2_565 ?
O4 O2 O4 92.7(7) 1_556 2_565 ?
O4 O2 O5 77.0(7) 1_556 1_656 ?
O4 O2 O5 123.6(8) 1_556 2_655 ?
O4 O2 O6 168.8(7) 1_556 1_545 ?
O4 O2 O6 59.3(6) 1_556 1_555 ?
O4 O2 O6 59.9(7) 1_556 2_565 ?
O4 O2 O5 131.1(9) 2_565 1_656 ?
O4 O2 O5 54.8(6) 2_565 2_655 ?
O4 O2 O6 79.4(6) 2_565 1_545 ?
O4 O2 O6 55.6(6) 2_565 1_555 ?
O4 O2 O6 144.7(10) 2_565 2_565 ?
O5 O2 O5 91.5(9) 1_656 2_655 ?
O5 O2 O6 114.1(8) 1_656 1_545 ?
O5 O2 O6 136.3(9) 1_656 1_555 ?
O5 O2 O6 68.0(8) 1_656 2_565 ?
O5 O2 O6 57.7(6) 2_655 1_545 ?
O5 O2 O6 110.5(8) 2_655 1_555 ?
O5 O2 O6 158.4(10) 2_655 2_565 ?
O6 O2 O6 109.5(6) 1_545 1_555 ?
O6 O2 O6 123.7(8) 1_545 2_565 ?
O6 O2 O6 89.7(8) 1_555 2_565 ?
Cu1 O3 Cu1 95.6(11) 1_545 2_565 ?
Cu1 O3 Cu2 158.3(10) 1_545 1_555 ?
Cu1 O3 Cu2 78.5(7) 1_545 2_564 ?
Cu1 O3 Nb1 92.1(9) 1_545 2_555 ?
Cu1 O3 Nb2 77.1(7) 1_545 1_555 ?
Cu1 O3 O1 59.9(6) 1_545 1_545 ?
Cu1 O3 O1 100.1(7) 1_545 1_555 ?
Cu1 O3 O1 161.9(9) 1_545 2_565 ?
Cu1 O3 O4 121.6(11) 1_545 2_465 ?
Cu1 O3 O4 66.0(8) 1_545 2_565 ?
Cu1 O3 O5 60.5(8) 1_545 1_555 ?
Cu1 O3 O5 118.7(10) 1_545 2_555 ?
Cu1 O3 O6 122.1(8) 1_545 1_555 ?
Cu1 O3 Cu2 106.1(11) 2_565 1_555 ?
Cu1 O3 Cu2 173.4(11) 2_565 2_564 ?
Cu1 O3 Nb1 107.6(12) 2_565 2_555 ?
Cu1 O3 Nb2 107.0(10) 2_565 1_555 ?
Cu1 O3 O1 80.9(9) 2_565 1_545 ?
Cu1 O3 O1 141.0(10) 2_565 1_555 ?
Cu1 O3 O1 66.4(9) 2_565 2_565 ?
Cu1 O3 O2 57.9(9) 2_565 2_554 ?
Cu1 O3 O4 129.5(14) 2_565 2_465 ?
Cu1 O3 O4 63.0(10) 2_565 2_565 ?
Cu1 O3 O5 140.7(13) 2_565 1_555 ?
Cu1 O3 O5 73.2(11) 2_565 2_555 ?
Cu1 O3 O6 80.2(8) 2_565 1_555 ?
Cu1 O3 O6 118.0(11) 2_565 2_564 ?
Cu2 O3 Cu2 79.8(7) 1_555 2_564 ?
Cu2 O3 Nb1 82.6(7) 1_555 2_555 ?
Cu2 O3 Nb2 95.1(7) 1_555 1_555 ?
Cu2 O3 O1 124.0(7) 1_555 1_545 ?
Cu2 O3 O1 62.1(6) 1_555 1_555 ?
Cu2 O3 O2 164.0(9) 1_555 2_554 ?
Cu2 O3 O4 123.1(9) 1_555 2_565 ?
Cu2 O3 O5 101.4(8) 1_555 1_555 ?
Cu2 O3 O5 70.1(6) 1_555 2_555 ?
Cu2 O3 O6 62.3(7) 1_555 1_555 ?
Cu2 O3 O6 123.1(9) 1_555 2_564 ?
Cu2 O3 Nb1 75.9(6) 2_564 2_555 ?
Cu2 O3 Nb2 68.9(6) 2_564 1_555 ?
Cu2 O3 O1 98.5(6) 2_564 1_545 ?
Cu2 O3 O1 119.5(7) 2_564 2_565 ?
Cu2 O3 O2 116.3(7) 2_564 2_554 ?
Cu2 O3 O4 57.0(7) 2_564 2_465 ?
Cu2 O3 O4 111.3(8) 2_564 2_565 ?
Cu2 O3 O5 112.2(7) 2_564 2_555 ?
Cu2 O3 O6 100.3(7) 2_564 1_555 ?
Cu2 O3 O6 55.5(6) 2_564 2_564 ?
Nb1 O3 Nb2 144.5(7) 2_555 1_555 ?
Nb1 O3 O1 107.2(6) 2_555 1_555 ?
Nb1 O3 O1 93.2(7) 2_555 2_565 ?
Nb1 O3 O2 100.5(8) 2_555 2_554 ?
Nb1 O3 O4 45.1(7) 2_555 2_465 ?
Nb1 O3 O4 153.8(10) 2_555 2_565 ?
Nb1 O3 O5 48.9(7) 2_555 1_555 ?
Nb1 O3 O6 144.6(8) 2_555 1_555 ?
Nb1 O3 O6 113.6(9) 2_555 2_564 ?
Nb2 O3 O1 136.9(7) 1_555 1_545 ?
Nb2 O3 O1 107.5(8) 1_555 2_565 ?
Nb2 O3 O2 91.4(7) 1_555 2_554 ?
Nb2 O3 O4 113.3(10) 1_555 2_465 ?
Nb2 O3 O4 47.6(7) 1_555 2_565 ?
Nb2 O3 O5 97.8(8) 1_555 1_555 ?
Nb2 O3 O5 164.2(9) 1_555 2_555 ?
Nb2 O3 O6 50.6(6) 1_555 1_555 ?
O1 O3 O1 137.6(6) 1_545 1_555 ?
O1 O3 O1 114.1(7) 1_545 2_565 ?
O1 O3 O2 56.3(6) 1_545 2_554 ?
O1 O3 O4 89.3(7) 1_545 2_465 ?
O1 O3 O4 109.7(8) 1_545 2_565 ?
O1 O3 O5 60.4(6) 1_545 1_555 ?
O1 O3 O5 58.8(6) 1_545 2_555 ?
O1 O3 O6 161.0(7) 1_545 1_555 ?
O1 O3 O6 98.1(7) 1_545 2_564 ?
O1 O3 O1 94.8(7) 1_555 2_565 ?
O1 O3 O2 130.3(7) 1_555 2_554 ?
O1 O3 O4 69.2(7) 1_555 2_465 ?
O1 O3 O4 91.4(8) 1_555 2_565 ?
O1 O3 O5 77.1(6) 1_555 1_555 ?
O1 O3 O5 126.6(8) 1_555 2_555 ?
O1 O3 O6 61.2(6) 1_555 1_555 ?
O1 O3 O6 61.0(6) 1_555 2_564 ?
O1 O3 O2 124.2(8) 2_565 2_554 ?
O1 O3 O4 73.3(7) 2_565 2_465 ?
O1 O3 O4 103.7(9) 2_565 2_565 ?
O1 O3 O5 133.8(9) 2_565 1_555 ?
O1 O3 O5 57.6(6) 2_565 2_555 ?
O1 O3 O6 57.5(6) 2_565 1_555 ?
O1 O3 O6 147.6(9) 2_565 2_564 ?
O2 O3 O4 144.9(10) 2_554 2_465 ?
O2 O3 O4 53.4(6) 2_554 2_565 ?
O2 O3 O5 92.2(8) 2_554 1_555 ?
O2 O3 O5 101.6(9) 2_554 2_555 ?
O2 O3 O6 112.1(7) 2_554 1_555 ?
O2 O3 O6 70.3(7) 2_554 2_564 ?
O4 O3 O4 159.8(12) 2_465 2_565 ?
O4 O3 O5 61.2(8) 2_465 1_555 ?
O4 O3 O5 59.7(7) 2_465 2_555 ?
O4 O3 O6 102.9(9) 2_465 1_555 ?
O4 O3 O6 112.5(10) 2_465 2_564 ?
O4 O3 O5 121.7(10) 2_565 1_555 ?
O4 O3 O5 136.2(10) 2_565 2_555 ?
O4 O3 O6 60.8(7) 2_565 1_555 ?
O4 O3 O6 59.3(7) 2_565 2_564 ?
O5 O3 O5 90.8(8) 1_555 2_555 ?
O5 O3 O6 138.3(9) 1_555 1_555 ?
O5 O3 O6 65.4(8) 1_555 2_564 ?
O5 O3 O6 115.1(8) 2_555 1_555 ?
O5 O3 O6 153.9(10) 2_555 2_564 ?
O6 O3 O6 90.7(8) 1_555 2_564 ?
Cu1 O4 Cu1 81.1(8) 1_555 2_574 ?
Cu1 O4 Cu2 156.9(10) 1_555 1_654 ?
Cu1 O4 Cu2 101.8(10) 1_555 2_664 ?
Cu1 O4 Nb1 90.8(10) 1_555 1_665 ?
Cu1 O4 Nb2 87.2(8) 1_555 2_564 ?
Cu1 O4 O1 163.9(10) 1_555 2_664 ?
Cu1 O4 O2 124.5(9) 1_555 1_554 ?
Cu1 O4 O2 60.6(8) 1_555 1_564 ?
Cu1 O4 O3 121.2(12) 1_555 2_664 ?
Cu1 O4 O5 60.4(8) 1_555 1_665 ?
Cu1 O4 O5 122.5(11) 1_555 2_664 ?
Cu1 O4 O6 101.6(9) 1_555 1_554 ?
Cu1 O4 O6 69.7(7) 1_555 2_564 ?
Cu1 O4 Cu2 75.8(7) 2_574 1_654 ?
Cu1 O4 Cu2 176.7(11) 2_574 2_664 ?
Cu1 O4 Nb1 74.0(8) 2_574 1_665 ?
Cu1 O4 Nb2 72.8(7) 2_574 2_564 ?
Cu1 O4 O1 115.0(8) 2_574 2_664 ?
Cu1 O4 O2 100.1(7) 2_574 1_554 ?
Cu1 O4 O2 120.3(8) 2_574 2_564 ?
Cu1 O4 O3 60.2(7) 2_574 2_564 ?
Cu1 O4 O3 109.4(10) 2_574 2_664 ?
Cu1 O4 O5 98.4(8) 2_574 1_665 ?
Cu1 O4 O5 53.1(7) 2_574 2_664 ?
Cu1 O4 O6 114.1(8) 2_574 2_564 ?
Cu2 O4 Cu2 101.4(9) 1_654 2_664 ?
Cu2 O4 Nb1 83.9(6) 1_654 1_665 ?
Cu2 O4 Nb2 85.0(7) 1_654 2_564 ?
Cu2 O4 O2 60.1(6) 1_654 1_554 ?
Cu2 O4 O2 100.3(7) 1_654 1_564 ?
Cu2 O4 O2 164.0(9) 1_654 2_564 ?
Cu2 O4 O3 120.3(9) 1_654 2_564 ?
Cu2 O4 O3 68.7(7) 1_654 2_664 ?
Cu2 O4 O5 123.9(8) 1_654 1_665 ?
Cu2 O4 O6 59.2(7) 1_654 1_554 ?
Cu2 O4 O6 119.2(9) 1_654 2_564 ?
Cu2 O4 Nb1 104.2(8) 2_664 1_665 ?
Cu2 O4 Nb2 108.9(9) 2_664 2_564 ?
Cu2 O4 O1 62.1(7) 2_664 2_664 ?
Cu2 O4 O2 79.7(8) 2_664 1_554 ?
Cu2 O4 O2 141.9(9) 2_664 1_564 ?
Cu2 O4 O2 62.6(8) 2_664 2_564 ?
Cu2 O4 O3 123.1(10) 2_664 2_564 ?
Cu2 O4 O3 67.8(8) 2_664 2_664 ?
Cu2 O4 O5 81.7(7) 2_664 1_665 ?
Cu2 O4 O5 123.6(10) 2_664 2_664 ?
Cu2 O4 O6 140.2(11) 2_664 1_554 ?
Cu2 O4 O6 68.7(8) 2_664 2_564 ?
Nb1 O4 Nb2 146.6(7) 1_665 2_564 ?
Nb1 O4 O1 92.5(6) 1_665 2_664 ?
Nb1 O4 O2 143.5(7) 1_665 1_554 ?
Nb1 O4 O2 47.9(6) 1_665 1_564 ?
Nb1 O4 O2 99.7(8) 1_665 2_564 ?
Nb1 O4 O3 116.4(9) 1_665 2_564 ?
Nb1 O4 O5 48.3(6) 1_665 2_664 ?
Nb1 O4 O6 107.2(8) 1_665 1_554 ?
Nb1 O4 O6 156.5(9) 1_665 2_564 ?
Nb2 O4 O1 98.5(7) 2_564 2_664 ?
Nb2 O4 O2 103.9(7) 2_564 1_564 ?
Nb2 O4 O2 99.6(8) 2_564 2_564 ?
Nb2 O4 O3 46.3(7) 2_564 2_564 ?
Nb2 O4 O3 151.6(10) 2_564 2_664 ?
Nb2 O4 O5 147.6(9) 2_564 1_665 ?
Nb2 O4 O5 106.6(9) 2_564 2_664 ?
Nb2 O4 O6 48.9(7) 2_564 2_564 ?
O1 O4 O2 56.6(6) 2_664 1_554 ?
O1 O4 O2 131.2(7) 2_664 1_564 ?
O1 O4 O2 124.7(8) 2_664 2_564 ?
O1 O4 O3 144.8(9) 2_664 2_564 ?
O1 O4 O3 54.1(6) 2_664 2_664 ?
O1 O4 O5 113.2(7) 2_664 1_665 ?
O1 O4 O5 70.4(6) 2_664 2_664 ?
O1 O4 O6 92.5(7) 2_664 1_554 ?
O1 O4 O6 102.8(8) 2_664 2_564 ?
O2 O4 O2 138.5(7) 1_554 1_564 ?
O2 O4 O2 113.6(8) 1_554 2_564 ?
O2 O4 O3 88.9(7) 1_554 2_564 ?
O2 O4 O3 110.7(9) 1_554 2_664 ?
O2 O4 O5 161.4(8) 1_554 1_665 ?
O2 O4 O5 98.8(7) 1_554 2_664 ?
O2 O4 O6 60.6(6) 1_554 1_554 ?
O2 O4 O6 59.2(7) 1_554 2_564 ?
O2 O4 O2 93.5(8) 1_564 2_564 ?
O2 O4 O3 69.2(7) 1_564 2_564 ?
O2 O4 O3 91.8(8) 1_564 2_664 ?
O2 O4 O5 60.1(6) 1_564 1_665 ?
O2 O4 O5 61.9(7) 1_564 2_664 ?
O2 O4 O6 77.9(7) 1_564 1_554 ?
O2 O4 O6 124.6(8) 1_564 2_564 ?
O2 O4 O3 72.3(8) 2_564 2_564 ?
O2 O4 O3 102.9(9) 2_564 2_664 ?
O2 O4 O5 57.1(6) 2_564 1_665 ?
O2 O4 O5 147.4(10) 2_564 2_664 ?
O2 O4 O6 132.8(9) 2_564 1_554 ?
O2 O4 O6 56.9(6) 2_564 2_564 ?
O3 O4 O3 159.8(12) 2_564 2_664 ?
O3 O4 O5 101.9(9) 2_564 1_665 ?
O3 O4 O5 113.2(10) 2_564 2_664 ?
O3 O4 O6 61.1(8) 2_564 1_554 ?
O3 O4 O6 57.9(7) 2_564 2_564 ?
O3 O4 O5 60.9(7) 2_664 1_665 ?
O3 O4 O5 60.2(8) 2_664 2_664 ?
O3 O4 O6 123.5(10) 2_664 1_554 ?
O3 O4 O6 136.5(11) 2_664 2_564 ?
O5 O4 O5 90.9(8) 1_665 2_664 ?
O5 O4 O6 138.0(9) 1_665 1_554 ?
O5 O4 O6 114.0(8) 1_665 2_564 ?
O5 O4 O6 66.2(8) 2_664 1_554 ?
O5 O4 O6 154.4(10) 2_664 2_564 ?
O6 O4 O6 90.1(8) 1_554 2_564 ?
Cu1 O5 Cu1 152.3(14) 1_445 1_545 ?
Cu1 O5 Cu2 75.2(8) 1_445 2_554 ?
Cu1 O5 Cu2 103.7(10) 1_445 2_564 ?
Cu1 O5 Nb1 89.7(11) 1_445 1_555 ?
Cu1 O5 Nb1 83.6(9) 1_445 2_555 ?
Cu1 O5 O1 97.4(9) 1_445 1_545 ?
Cu1 O5 O1 118.9(9) 1_445 1_555 ?
Cu1 O5 O1 120.3(11) 1_445 2_564 ?
Cu1 O5 O2 58.9(9) 1_445 1_454 ?
Cu1 O5 O3 123.5(11) 1_445 1_555 ?
Cu1 O5 O3 116.5(12) 1_445 2_554 ?
Cu1 O5 O4 57.1(8) 1_445 1_445 ?
Cu1 O5 O4 70.2(9) 1_445 2_465 ?
Cu1 O5 O6 167.5(12) 1_445 2_564 ?
Cu1 O5 Cu2 77.2(8) 1_545 2_554 ?
Cu1 O5 Cu2 103.9(10) 1_545 2_564 ?
Cu1 O5 Nb1 79.2(10) 1_545 1_555 ?
Cu1 O5 Nb1 90.5(10) 1_545 2_555 ?
Cu1 O5 O1 61.0(7) 1_545 1_545 ?
Cu1 O5 O1 86.6(7) 1_545 1_555 ?
Cu1 O5 O1 68.6(8) 1_545 2_564 ?
Cu1 O5 O2 123.3(11) 1_545 1_454 ?
Cu1 O5 O2 120.2(11) 1_545 2_454 ?
Cu1 O5 O3 63.5(8) 1_545 1_555 ?
Cu1 O5 O4 98.8(10) 1_545 1_445 ?
Cu1 O5 O4 122.0(11) 1_545 2_465 ?
Cu1 O5 O6 166.5(12) 1_545 2_464 ?
Cu2 O5 Cu2 178.7(8) 2_554 2_564 ?
Cu2 O5 Nb1 71.3(6) 2_554 1_555 ?
Cu2 O5 Nb1 72.9(5) 2_554 2_555 ?
Cu2 O5 O1 148.8(6) 2_554 1_555 ?
Cu2 O5 O1 111.7(7) 2_554 2_564 ?
Cu2 O5 O2 97.2(7) 2_554 1_454 ?
Cu2 O5 O2 56.0(6) 2_554 2_454 ?
Cu2 O5 O3 99.1(6) 2_554 1_555 ?
Cu2 O5 O3 53.9(6) 2_554 2_554 ?
Cu2 O5 O4 108.8(7) 2_554 2_465 ?
Cu2 O5 O6 116.2(7) 2_554 2_464 ?
Cu2 O5 O6 117.3(7) 2_554 2_564 ?
Cu2 O5 Nb1 109.5(8) 2_564 1_555 ?
Cu2 O5 Nb1 106.3(7) 2_564 2_555 ?
Cu2 O5 O1 141.5(8) 2_564 1_545 ?
Cu2 O5 O1 69.4(7) 2_564 2_564 ?
Cu2 O5 O2 82.8(8) 2_564 1_454 ?
Cu2 O5 O2 122.7(9) 2_564 2_454 ?
Cu2 O5 O3 80.9(8) 2_564 1_555 ?
Cu2 O5 O3 127.4(9) 2_564 2_554 ?
Cu2 O5 O4 141.2(8) 2_564 1_445 ?
Cu2 O5 O4 70.1(8) 2_564 2_465 ?
Cu2 O5 O6 62.7(7) 2_564 2_464 ?
Cu2 O5 O6 63.8(8) 2_564 2_564 ?
Nb1 O5 Nb1 144.1(6) 1_555 2_555 ?
Nb1 O5 O1 102.2(7) 1_555 1_545 ?
Nb1 O5 O1 131.9(7) 1_555 1_555 ?
Nb1 O5 O1 46.0(6) 1_555 2_564 ?
Nb1 O5 O2 47.0(7) 1_555 1_454 ?
Nb1 O5 O2 112.9(9) 1_555 2_454 ?
Nb1 O5 O3 142.7(9) 1_555 1_555 ?
Nb1 O5 O4 158.6(9) 1_555 2_465 ?
Nb1 O5 O6 103.5(8) 1_555 2_464 ?
Nb1 O5 O6 93.5(8) 1_555 2_564 ?
Nb1 O5 O1 80.9(5) 2_555 1_555 ?
Nb1 O5 O1 156.1(8) 2_555 2_564 ?
Nb1 O5 O2 142.4(9) 2_555 1_454 ?
Nb1 O5 O3 110.4(8) 2_555 2_554 ?
Nb1 O5 O4 104.4(7) 2_555 1_445 ?
Nb1 O5 O6 94.4(7) 2_555 2_464 ?
Nb1 O5 O6 100.6(8) 2_555 2_564 ?
O1 O5 O1 110.4(5) 1_545 1_555 ?
O1 O5 O1 125.1(8) 1_545 2_564 ?
O1 O5 O2 135.6(9) 1_545 1_454 ?
O1 O5 O2 59.3(7) 1_545 2_454 ?
O1 O5 O3 60.7(6) 1_545 1_555 ?
O1 O5 O3 66.4(7) 1_545 2_554 ?
O1 O5 O4 77.2(7) 1_545 1_445 ?
O1 O5 O4 88.0(7) 1_545 2_465 ?
O1 O5 O6 129.9(8) 1_545 2_464 ?
O1 O5 O6 93.7(7) 1_545 2_564 ?
O1 O5 O1 86.1(6) 1_555 2_564 ?
O1 O5 O2 114.0(8) 1_555 1_454 ?
O1 O5 O2 113.9(7) 1_555 2_454 ?
O1 O5 O3 49.7(5) 1_555 1_555 ?
O1 O5 O3 124.4(7) 1_555 2_554 ?
O1 O5 O4 172.3(7) 1_555 1_445 ?
O1 O5 O4 58.3(6) 1_555 2_465 ?
O1 O5 O6 81.8(6) 1_555 2_464 ?
O1 O5 O6 51.1(6) 1_555 2_564 ?
O1 O5 O2 61.5(7) 2_564 1_454 ?
O1 O5 O2 157.6(10) 2_564 2_454 ?
O1 O5 O3 114.0(9) 2_564 1_555 ?
O1 O5 O3 61.6(6) 2_564 2_554 ?
O1 O5 O4 90.8(7) 2_564 1_445 ?
O1 O5 O4 139.5(10) 2_564 2_465 ?
O1 O5 O6 103.6(9) 2_564 2_464 ?
O1 O5 O6 55.9(7) 2_564 2_564 ?
O2 O5 O2 99.4(9) 1_454 2_454 ?
O2 O5 O3 163.5(10) 1_454 1_555 ?
O2 O5 O3 90.0(9) 1_454 2_554 ?
O2 O5 O4 58.4(6) 1_454 1_445 ?
O2 O5 O4 113.3(9) 1_454 2_465 ?
O2 O5 O6 56.8(7) 1_454 2_464 ?
O2 O5 O6 115.7(10) 1_454 2_564 ?
O2 O5 O3 87.6(8) 2_454 1_555 ?
O2 O5 O3 110.0(10) 2_454 2_554 ?
O2 O5 O4 68.1(7) 2_454 1_445 ?
O2 O5 O4 56.4(7) 2_454 2_465 ?
O2 O5 O6 71.2(7) 2_454 2_464 ?
O2 O5 O6 144.8(10) 2_454 2_564 ?
O3 O5 O3 101.7(8) 1_555 2_554 ?
O3 O5 O4 137.8(9) 1_555 1_445 ?
O3 O5 O4 58.6(7) 1_555 2_465 ?
O3 O5 O6 112.7(9) 1_555 2_464 ?
O3 O5 O6 58.1(7) 1_555 2_564 ?
O3 O5 O4 59.4(7) 2_554 1_445 ?
O3 O5 O4 153.8(10) 2_554 2_465 ?
O3 O5 O6 145.6(10) 2_554 2_464 ?
O3 O5 O6 73.3(7) 2_554 2_564 ?
O4 O5 O4 121.9(8) 1_445 2_465 ?
O4 O5 O6 92.1(7) 1_445 2_464 ?
O4 O5 O6 131.7(9) 1_445 2_564 ?
O4 O5 O6 56.5(7) 2_465 2_464 ?
O4 O5 O6 104.7(9) 2_465 2_564 ?
O6 O5 O6 126.5(10) 2_464 2_564 ?
Cu1 O6 Cu1 173.5(8) 2_565 2_575 ?
Cu1 O6 Cu2 80.2(7) 2_565 1_555 ?
Cu1 O6 Cu2 75.3(7) 2_565 1_655 ?
Cu1 O6 Nb2 74.7(6) 2_565 1_555 ?
Cu1 O6 Nb2 70.8(7) 2_565 2_565 ?
Cu1 O6 O1 98.3(7) 2_565 1_555 ?
Cu1 O6 O1 59.3(6) 2_565 2_565 ?
Cu1 O6 O2 148.1(6) 2_565 1_565 ?
Cu1 O6 O2 109.9(8) 2_565 2_564 ?
Cu1 O6 O3 111.2(7) 2_565 2_565 ?
Cu1 O6 O4 98.8(7) 2_565 1_556 ?
Cu1 O6 O4 52.3(6) 2_565 2_565 ?
Cu1 O6 O5 119.3(8) 2_565 2_565 ?
Cu1 O6 O5 114.2(7) 2_565 2_665 ?
Cu1 O6 Cu2 105.8(10) 2_575 1_555 ?
Cu1 O6 Cu2 98.7(9) 2_575 1_655 ?
Cu1 O6 Nb2 102.4(8) 2_575 1_555 ?
Cu1 O6 Nb2 112.2(9) 2_575 2_565 ?
Cu1 O6 O1 82.9(8) 2_575 1_555 ?
Cu1 O6 O1 126.9(9) 2_575 2_565 ?
Cu1 O6 O2 140.0(9) 2_575 1_555 ?
Cu1 O6 O2 65.0(8) 2_575 2_564 ?
Cu1 O6 O3 141.4(9) 2_575 1_555 ?
Cu1 O6 O3 73.9(9) 2_575 2_565 ?
Cu1 O6 O4 80.1(8) 2_575 1_556 ?
Cu1 O6 O4 121.4(9) 2_575 2_565 ?
Cu1 O6 O5 66.8(9) 2_575 2_565 ?
Cu1 O6 O5 59.7(9) 2_575 2_665 ?
Cu2 O6 Cu2 155.5(8) 1_555 1_655 ?
Cu2 O6 Nb2 90.6(8) 1_555 1_555 ?
Cu2 O6 Nb2 79.8(8) 1_555 2_565 ?
Cu2 O6 O1 60.0(7) 1_555 1_555 ?
Cu2 O6 O2 99.1(8) 1_555 1_555 ?
Cu2 O6 O2 116.4(7) 1_555 1_565 ?
Cu2 O6 O2 121.6(9) 1_555 2_564 ?
Cu2 O6 O3 59.0(6) 1_555 1_555 ?
Cu2 O6 O3 67.8(7) 1_555 2_565 ?
Cu2 O6 O4 122.9(9) 1_555 1_556 ?
Cu2 O6 O4 120.2(9) 1_555 2_565 ?
Cu2 O6 O5 165.5(9) 1_555 2_665 ?
Cu2 O6 Nb2 84.0(7) 1_655 1_555 ?
Cu2 O6 Nb2 91.1(8) 1_655 2_565 ?
Cu2 O6 O1 124.5(8) 1_655 1_555 ?
Cu2 O6 O1 120.5(8) 1_655 2_565 ?
Cu2 O6 O2 60.5(7) 1_655 1_555 ?
Cu2 O6 O2 85.0(6) 1_655 1_565 ?
Cu2 O6 O2 69.1(7) 1_655 2_564 ?
Cu2 O6 O3 101.1(8) 1_655 1_555 ?
Cu2 O6 O3 120.6(9) 1_655 2_565 ?
Cu2 O6 O4 61.1(7) 1_655 1_556 ?
Cu2 O6 O5 165.4(9) 1_655 2_565 ?
Nb2 O6 Nb2 145.4(8) 1_555 2_565 ?
Nb2 O6 O1 115.1(8) 1_555 2_565 ?
Nb2 O6 O2 108.1(8) 1_555 1_555 ?
Nb2 O6 O2 128.4(8) 1_555 1_565 ?
Nb2 O6 O3 47.9(6) 1_555 1_555 ?
Nb2 O6 O3 155.3(9) 1_555 2_565 ?
Nb2 O6 O4 144.8(9) 1_555 1_556 ?
Nb2 O6 O4 47.6(7) 1_555 2_565 ?
Nb2 O6 O5 99.4(8) 1_555 2_565 ?
Nb2 O6 O5 93.3(8) 1_555 2_665 ?
Nb2 O6 O1 139.8(9) 2_565 1_555 ?
Nb2 O6 O2 85.0(7) 2_565 1_565 ?
Nb2 O6 O2 158.6(11) 2_565 2_564 ?
Nb2 O6 O3 100.3(8) 2_565 1_555 ?
Nb2 O6 O3 45.4(7) 2_565 2_565 ?
Nb2 O6 O4 47.9(7) 2_565 1_556 ?
Nb2 O6 O4 109.9(9) 2_565 2_565 ?
Nb2 O6 O5 93.9(9) 2_565 2_565 ?
Nb2 O6 O5 104.2(9) 2_565 2_665 ?
O1 O6 O1 99.7(8) 1_555 2_565 ?
O1 O6 O2 137.0(9) 1_555 1_555 ?
O1 O6 O2 113.5(7) 1_555 1_565 ?
O1 O6 O2 61.6(7) 1_555 2_564 ?
O1 O6 O3 58.5(6) 1_555 1_555 ?
O1 O6 O3 113.2(9) 1_555 2_565 ?
O1 O6 O4 162.9(9) 1_555 1_556 ?
O1 O6 O4 90.1(8) 1_555 2_565 ?
O1 O6 O5 56.8(7) 1_555 2_565 ?
O1 O6 O5 115.2(8) 1_555 2_665 ?
O1 O6 O2 60.0(6) 2_565 1_555 ?
O1 O6 O2 113.9(7) 2_565 1_565 ?
O1 O6 O2 158.3(10) 2_565 2_564 ?
O1 O6 O3 67.9(7) 2_565 1_555 ?
O1 O6 O3 56.2(6) 2_565 2_565 ?
O1 O6 O4 88.7(8) 2_565 1_556 ?
O1 O6 O4 111.6(9) 2_565 2_565 ?
O1 O6 O5 71.0(6) 2_565 2_565 ?
O1 O6 O5 145.0(9) 2_565 2_665 ?
O2 O6 O2 109.5(6) 1_555 1_565 ?
O2 O6 O2 125.2(9) 1_555 2_564 ?
O2 O6 O3 78.5(7) 1_555 1_555 ?
O2 O6 O3 87.7(7) 1_555 2_565 ?
O2 O6 O4 60.1(6) 1_555 1_556 ?
O2 O6 O4 67.5(7) 1_555 2_565 ?
O2 O6 O5 130.3(9) 1_555 2_565 ?
O2 O6 O5 92.9(7) 1_555 2_665 ?
O2 O6 O2 85.2(7) 1_565 2_564 ?
O2 O6 O3 171.8(7) 1_565 1_555 ?
O2 O6 O3 58.4(6) 1_565 2_565 ?
O2 O6 O4 49.4(5) 1_565 1_556 ?
O2 O6 O4 123.0(7) 1_565 2_565 ?
O2 O6 O5 81.9(7) 1_565 2_565 ?
O2 O6 O5 51.1(6) 1_565 2_665 ?
O2 O6 O3 91.8(8) 2_564 1_555 ?
O2 O6 O3 138.8(10) 2_564 2_565 ?
O2 O6 O4 112.4(9) 2_564 1_556 ?
O2 O6 O4 60.9(7) 2_564 2_565 ?
O2 O6 O5 103.5(9) 2_564 2_565 ?
O2 O6 O5 55.2(7) 2_564 2_665 ?
O3 O6 O3 121.4(8) 1_555 2_565 ?
O3 O6 O4 138.5(9) 1_555 1_556 ?
O3 O6 O4 61.2(7) 1_555 2_565 ?
O3 O6 O5 91.5(7) 1_555 2_565 ?
O3 O6 O5 132.1(9) 1_555 2_665 ?
O3 O6 O4 59.5(8) 2_565 1_556 ?
O3 O6 O4 154.5(10) 2_565 2_565 ?
O3 O6 O5 56.4(7) 2_565 2_565 ?
O3 O6 O5 104.9(9) 2_565 2_665 ?
O4 O6 O4 100.7(8) 1_556 2_565 ?
O4 O6 O5 113.3(9) 1_556 2_565 ?
O4 O6 O5 57.2(7) 1_556 2_665 ?
O4 O6 O5 145.9(10) 2_565 2_565 ?
O4 O6 O5 71.9(7) 2_565 2_665 ?
O5 O6 O5 126.5(10) 2_565 2_665 ?
loop_
_geom_bond_atom_site_label_1
_geom_bond_atom_site_label_2
_geom_bond_distance
_geom_bond_site_symmetry_2
_geom_bond_publ_flag
Cu1 Nb1 3.21(2) 1_565 ?
Cu1 Nb1 3.32(2) 1_665 ?
Cu1 Nb1 3.281(19) 2_665 ?
Cu1 Nb2 3.079(14) 1_555 ?
Cu1 Nb2 3.285(14) 1_565 ?
Cu1 Nb2 3.302(14) 2_564 ?
Cu1 Nb2 3.300(14) 2_574 ?
Cu1 O1 2.97(2) 1_555 ?
Cu1 O1 3.261(19) 2_574 ?
Cu1 O2 2.70(2) 1_564 ?
Cu1 O2 2.01(2) 2_564 ?
Cu1 O3 3.06(2) 1_565 ?
Cu1 O3 2.04(2) 2_564 ?
Cu1 O4 2.64(2) 1_555 ?
Cu1 O4 3.22(2) 2_575 ?
Cu1 O5 2.97(3) 1_565 ?
Cu1 O5 2.74(3) 1_665 ?
Cu1 O6 3.135(14) 2_564 ?
Cu1 O6 2.084(14) 2_574 ?
Cu2 Nb1 3.292(11) 1_556 ?
Cu2 Nb1 3.313(11) 1_566 ?
Cu2 Nb1 3.161(10) 2_555 ?
Cu2 Nb1 3.183(10) 2_565 ?
Cu2 Nb2 3.367(13) 1_455 ?
Cu2 Nb2 3.418(14) 2_465 ?
Cu2 Nb2 3.121(13) 2_565 ?
Cu2 O1 2.816(17) 1_555 ?
Cu2 O1 2.028(16) 2_565 ?
Cu2 O2 2.873(19) 1_455 ?
Cu2 O2 3.198(18) 2_464 ?
Cu2 O3 2.760(18) 1_555 ?
Cu2 O3 3.200(17) 2_565 ?
Cu2 O4 2.879(19) 1_456 ?
Cu2 O4 2.032(17) 2_465 ?
Cu2 O5 3.211(13) 2_555 ?
Cu2 O5 2.000(13) 2_565 ?
Cu2 O6 2.825(20) 1_455 ?
Cu2 O6 2.849(20) 1_555 ?
Nb1 Cu1 3.32(2) 1_445 ?
Nb1 Cu1 3.21(2) 1_545 ?
Nb1 Cu1 3.281(19) 2_464 ?
Nb1 Cu2 3.313(11) 1_544 ?
Nb1 Cu2 3.292(11) 1_554 ?
Nb1 Cu2 3.161(10) 2_554 ?
Nb1 Cu2 3.183(10) 2_564 ?
Nb1 O1 2.019(10) 2_564 ?
Nb1 O2 2.017(15) 1_454 ?
Nb1 O3 1.938(14) 2_554 ?
Nb1 O4 1.975(12) 1_445 ?
Nb1 O5 1.896(15) 1_555 ?
Nb1 O5 2.138(15) 2_554 ?
Nb2 Cu1 3.285(14) 1_545 ?
Nb2 Cu1 3.079(14) 1_555 ?
Nb2 Cu1 3.302(14) 2_565 ?
Nb2 Cu1 3.300(14) 2_575 ?
Nb2 Cu2 3.367(13) 1_655 ?
Nb2 Cu2 3.121(13) 2_564 ?
Nb2 Cu2 3.418(14) 2_664 ?
Nb2 O1 1.885(13) 1_555 ?
Nb2 O2 1.958(15) 2_564 ?
Nb2 O3 2.062(14) 1_555 ?
Nb2 O4 2.108(16) 2_565 ?
Nb2 O6 2.150(16) 1_555 ?
Nb2 O6 1.871(16) 2_564 ?
O1 Cu1 2.97(2) 1_555 ?
O1 Cu1 3.261(19) 2_575 ?
O1 Cu2 2.816(17) 1_555 ?
O1 Cu2 2.028(16) 2_564 ?
O1 Nb1 2.019(10) 2_565 ?
O1 Nb2 1.885(13) 1_555 ?
O1 O2 2.844(20) 2_464 ?
O1 O2 2.863(20) 2_564 ?
O1 O3 2.702(13) 1_555 ?
O1 O3 2.886(13) 1_565 ?
O1 O3 3.124(19) 2_564 ?
O1 O4 3.118(18) 2_465 ?
O1 O5 3.454(15) 1_555 ?
O1 O5 2.880(16) 1_565 ?
O1 O5 2.806(20) 2_565 ?
O1 O6 2.778(19) 1_555 ?
O1 O6 2.845(19) 2_564 ?
O2 Cu1 2.70(2) 1_546 ?
O2 Cu1 2.01(2) 2_565 ?
O2 Cu2 2.873(19) 1_655 ?
O2 Cu2 3.198(18) 2_665 ?
O2 Nb1 2.017(15) 1_656 ?
O2 Nb2 1.958(15) 2_565 ?
O2 O1 2.863(20) 2_565 ?
O2 O1 2.844(20) 2_665 ?
O2 O3 3.16(2) 2_555 ?
O2 O4 2.710(15) 1_546 ?
O2 O4 2.861(15) 1_556 ?
O2 O4 3.17(2) 2_565 ?
O2 O5 2.76(2) 1_656 ?
O2 O5 2.87(2) 2_655 ?
O2 O6 3.490(16) 1_545 ?
O2 O6 2.876(17) 1_555 ?
O2 O6 2.81(2) 2_565 ?
O3 Cu1 3.06(2) 1_545 ?
O3 Cu1 2.04(2) 2_565 ?
O3 Cu2 2.760(18) 1_555 ?
O3 Cu2 3.200(17) 2_564 ?
O3 Nb1 1.938(14) 2_555 ?
O3 Nb2 2.062(14) 1_555 ?
O3 O1 2.886(13) 1_545 ?
O3 O1 2.702(13) 1_555 ?
O3 O1 3.124(19) 2_565 ?
O3 O2 3.16(2) 2_554 ?
O3 O4 2.79(2) 2_465 ?
O3 O4 2.85(2) 2_565 ?
O3 O5 2.83(2) 1_555 ?
O3 O5 2.828(20) 2_555 ?
O3 O6 2.751(16) 1_555 ?
O3 O6 2.89(2) 2_564 ?
O4 Cu1 2.64(2) 1_555 ?
O4 Cu1 3.22(2) 2_574 ?
O4 Cu2 2.879(19) 1_654 ?
O4 Cu2 2.032(17) 2_664 ?
O4 Nb1 1.975(12) 1_665 ?
O4 Nb2 2.108(16) 2_564 ?
O4 O1 3.118(18) 2_664 ?
O4 O2 2.861(15) 1_554 ?
O4 O2 2.710(15) 1_564 ?
O4 O2 3.17(2) 2_564 ?
O4 O3 2.85(2) 2_564 ?
O4 O3 2.79(2) 2_664 ?
O4 O5 2.795(16) 1_665 ?
O4 O5 2.86(2) 2_664 ?
O4 O6 2.84(2) 1_554 ?
O4 O6 2.83(2) 2_564 ?
O5 Cu1 2.74(3) 1_445 ?
O5 Cu1 2.97(3) 1_545 ?
O5 Cu2 3.211(13) 2_554 ?
O5 Cu2 2.000(13) 2_564 ?
O5 Nb1 1.896(15) 1_555 ?
O5 Nb1 2.138(15) 2_555 ?
O5 O1 2.880(16) 1_545 ?
O5 O1 3.454(15) 1_555 ?
O5 O1 2.806(20) 2_564 ?
O5 O2 2.76(2) 1_454 ?
O5 O2 2.87(2) 2_454 ?
O5 O3 2.83(2) 1_555 ?
O5 O3 2.828(20) 2_554 ?
O5 O4 2.795(16) 1_445 ?
O5 O4 2.86(2) 2_465 ?
O5 O6 3.12(2) 2_464 ?
O5 O6 3.10(2) 2_564 ?
O6 Cu1 3.135(14) 2_565 ?
O6 Cu1 2.084(14) 2_575 ?
O6 Cu2 2.849(20) 1_555 ?
O6 Cu2 2.825(20) 1_655 ?
O6 Nb2 2.150(16) 1_555 ?
O6 Nb2 1.871(16) 2_565 ?
O6 O1 2.778(19) 1_555 ?
O6 O1 2.845(19) 2_565 ?
O6 O2 2.876(17) 1_555 ?
O6 O2 3.490(16) 1_565 ?
O6 O2 2.81(2) 2_564 ?
O6 O3 2.751(16) 1_555 ?
O6 O3 2.89(2) 2_565 ?
O6 O4 2.84(2) 1_556 ?
O6 O4 2.83(2) 2_565 ?
O6 O5 3.10(2) 2_565 ?
O6 O5 3.12(2) 2_665 ?
loop_
_geom_contact_atom_site_label_1
_geom_contact_atom_site_label_2
_geom_contact_distance
_geom_contact_site_symmetry_1
_geom_contact_site_symmetry_2
_geom_contact_publ_flag
? ? ? ? ? ?
loop_
_geom_hbond_atom_site_label_D
_geom_hbond_atom_site_label_H
_geom_hbond_atom_site_label_A
_geom_hbond_site_symmetry_D
_geom_hbond_site_symmetry_H
_geom_hbond_site_symmetry_A
_geom_hbond_distance_DH
_geom_hbond_distance_HA
_geom_hbond_distance_DA
_geom_hbond_angle_DHA
_geom_hbond_publ_flag
? ? ? ? ? ? ? ? ? ? ?
loop_
_geom_torsion_atom_site_label_1
_geom_torsion_atom_site_label_2
_geom_torsion_atom_site_label_3
_geom_torsion_atom_site_label_4
_geom_torsion_site_symmetry_1
_geom_torsion_site_symmetry_2
_geom_torsion_site_symmetry_3
_geom_torsion_site_symmetry_4
_geom_torsion
_geom_torsion_publ_flag
? ? ? ? ? ? ? ? ? ?
loop_
_pd_proc_point_id
_pd_proc_2theta_corrected
_pd_proc_intensity_total
_pd_calc_intensity_total
_pd_proc_intensity_bkg_calc
194 9.6765 202(4) 200.6630 200.6630
195 9.7265 197(4) 200.7571 200.7571
196 9.7765 202(4) 200.3744 200.3744
197 9.8265 199(4) 199.9917 199.9917
198 9.8765 198(4) 199.6090 199.6090
199 9.9265 194(4) 199.2263 199.2263
200 9.9765 204(5) 198.8436 198.8436
201 10.0265 200(4) 198.4609 198.4609
202 10.0765 202(4) 198.0782 198.0782
203 10.1265 195(4) 197.6955 197.6955
204 10.1765 195(4) 197.3128 197.3128
205 10.2265 200(4) 196.9300 196.9300
206 10.2765 195(4) 196.5473 196.5473
207 10.3265 207(5) 196.1647 196.1646
208 10.3765 196(4) 195.7820 195.7819
209 10.4265 193(4) 195.3993 195.3992
210 10.4765 199(4) 195.0166 195.0165
211 10.5265 186(4) 194.6339 194.6338
212 10.5765 185(4) 194.2512 194.2511
213 10.6265 204(5) 193.8685 193.8684
214 10.6765 181(4) 193.4858 193.4857
215 10.7265 201(4) 193.1030 193.1029
216 10.7765 194(4) 192.7203 192.7202
217 10.8265 202(4) 192.3376 192.3375
218 10.8765 195(4) 191.9549 191.9548
219 10.9265 194(4) 191.5722 191.5721
220 10.9765 196(4) 191.1895 191.1894
221 11.0265 191(4) 190.8068 190.8067
222 11.0765 189(4) 190.4241 190.4240
223 11.1265 184(4) 190.0414 190.0413
224 11.1765 194(4) 189.6587 189.6586
225 11.2265 183(4) 189.2760 189.2758
226 11.2765 189(4) 188.8932 188.8931
227 11.3265 186(4) 188.5106 188.5104
228 11.3765 177(4) 188.1279 188.1277
229 11.4265 187(4) 187.7451 187.7450
230 11.4765 189(4) 187.3624 187.3623
231 11.5265 190(4) 186.9797 186.9796
232 11.5765 188(4) 186.5970 186.5969
233 11.6265 185(4) 186.2143 186.2142
234 11.6765 186(4) 185.8316 185.8315
235 11.7265 196(4) 185.4489 185.4487
236 11.7765 185(4) 185.0662 185.0660
237 11.8265 180(4) 184.6835 184.6833
238 11.8765 181(4) 184.3008 184.3006
239 11.9265 188(4) 183.9181 183.9179
240 11.9765 185(4) 183.5354 183.5352
241 12.0265 188(4) 183.1526 183.1525
242 12.0765 185(4) 182.7700 182.7698
243 12.1265 181(4) 182.3873 182.3871
244 12.1765 183(4) 182.0045 182.0043
245 12.2265 184(4) 181.6218 181.6216
246 12.2765 179(4) 181.2391 181.2389
247 12.3265 179(4) 180.8564 180.8562
248 12.3765 180(4) 180.4737 180.4735
249 12.4265 181(4) 180.0910 180.0908
250 12.4765 183(4) 179.7355 179.7353
251 12.5265 182(4) 179.4681 179.4679
252 12.5765 176(4) 179.2007 179.2005
253 12.6265 176(4) 178.9333 178.9331
254 12.6765 182(4) 178.6659 178.6656
255 12.7265 181(4) 178.3985 178.3982
256 12.7765 182(4) 178.1311 178.1308
257 12.8265 178(4) 177.8637 177.8634
258 12.8765 176(4) 177.5963 177.5960
259 12.9265 174(4) 177.3289 177.3286
260 12.9765 168(4) 177.0615 177.0612
261 13.0265 178(4) 176.7941 176.7938
262 13.0765 181(4) 176.5267 176.5263
263 13.1265 171(4) 176.2592 176.2589
264 13.1765 171(4) 175.9919 175.9915
265 13.2265 174(4) 175.7245 175.7241
266 13.2765 178(4) 175.4570 175.4567
267 13.3265 177(4) 175.1897 175.1893
268 13.3765 180(4) 174.9223 174.9219
269 13.4265 170(4) 174.6548 174.6545
270 13.4765 171(4) 174.3875 174.3871
271 13.5265 171(4) 174.1200 174.1196
272 13.5765 176(4) 173.8526 173.8522
273 13.6265 167(4) 173.5853 173.5848
274 13.6765 175(4) 173.3179 173.3174
275 13.7265 174(4) 173.0505 173.0500
276 13.7765 170(4) 172.7831 172.7826
277 13.8265 179(4) 172.5157 172.5152
278 13.8765 178(4) 172.2483 172.2477
279 13.9265 176(4) 171.9809 171.9803
280 13.9765 173(4) 171.7135 171.7129
281 14.0265 166(4) 171.4461 171.4455
282 14.0765 175(4) 171.1787 171.1781
283 14.1265 167(4) 170.9113 170.9107
284 14.1765 170(4) 170.6439 170.6433
285 14.2265 179(4) 170.3766 170.3759
286 14.2765 167(4) 170.1092 170.1084
287 14.3265 172(4) 169.8418 169.8410
288 14.3765 167(4) 169.5744 169.5736
289 14.4265 168(4) 169.3871 169.3863
290 14.4765 167(4) 169.2115 169.2106
291 14.5265 166(4) 169.0359 169.0350
292 14.5765 175(4) 168.8603 168.8594
293 14.6265 164(4) 168.6848 168.6838
294 14.6765 161(4) 168.5092 168.5082
295 14.7265 167(4) 168.3336 168.3325
296 14.7765 176(4) 168.1581 168.1569
297 14.8265 163(4) 167.9825 167.9813
298 14.8765 169(4) 167.8070 167.8057
299 14.9265 164(4) 167.6314 167.6301
300 14.9765 162(4) 167.4559 167.4544
301 15.0265 166(4) 167.2804 167.2788
302 15.0765 168(4) 167.1048 167.1032
303 15.1265 167(4) 166.9294 166.9276
304 15.1765 167(4) 166.7539 166.7520
305 15.2265 167(4) 166.5784 166.5763
306 15.2765 166(4) 166.4029 166.4007
307 15.3265 166(4) 166.2275 166.2251
308 15.3765 170(4) 166.0520 166.0495
309 15.4265 166(4) 165.8766 165.8739
310 15.4765 162(4) 165.7013 165.6982
311 15.5265 164(4) 165.5260 165.5226
312 15.5765 168(4) 165.3507 165.3470
313 15.6265 164(4) 165.1755 165.1714
314 15.6765 162(4) 165.0003 164.9958
315 15.7265 168(4) 164.8253 164.8201
316 15.7765 166(4) 164.6505 164.6445
317 15.8265 165(4) 164.4758 164.4689
318 15.8765 158(4) 164.3016 164.2933
319 15.9265 162(4) 164.1279 164.1177
320 15.9765 165(4) 163.9556 163.9420
321 16.0265 172(4) 163.7858 163.7664
322 16.0765 174(4) 163.6209 163.5908
323 16.1265 168(4) 163.4651 163.4152
324 16.1765 160(4) 163.3241 163.2396
325 16.2265 163(4) 163.2041 163.0639
326 16.2765 160(4) 163.1097 162.8883
327 16.3265 164(4) 163.0397 162.7127
328 16.3765 158(4) 162.9847 162.5371
329 16.4265 160(4) 162.9261 162.3615
330 16.4765 174(4) 162.8402 162.1859
331 16.5265 173(4) 162.7049 162.0102
332 16.5765 169(4) 162.5081 161.8346
333 16.6265 167(4) 162.2551 161.6590
334 16.6765 173(4) 161.9672 161.4834
335 16.7265 170(4) 161.6710 161.3078
336 16.7765 169(4) 161.3871 161.1321
337 16.8265 163(4) 161.1257 160.9565
338 16.8765 169(4) 160.8887 160.7809
339 16.9265 162(4) 160.6723 160.6053
340 16.9765 163(4) 160.4713 160.4297
341 17.0265 170(4) 160.2809 160.2540
342 17.0765 159(4) 160.0977 160.0784
343 17.1265 167(4) 159.9194 159.9028
344 17.1765 160(4) 159.7451 159.7272
345 17.2265 161(4) 159.5746 159.5516
346 17.2765 161(4) 159.4082 159.3759
347 17.3265 156(4) 159.2457 159.2003
348 17.3765 163(4) 159.0860 159.0247
349 17.4265 163(4) 158.9269 158.8491
350 17.4765 159(4) 158.7652 158.6735
351 17.5265 154(4) 158.5976 158.4978
352 17.5765 166(4) 158.4254 158.3222
353 17.6265 156(4) 158.2413 158.1466
354 17.6765 160(4) 158.0511 157.9710
355 17.7265 147(4) 157.8585 157.7954
356 17.7765 157(4) 157.6668 157.6197
357 17.8265 158(4) 157.4779 157.4441
358 17.8765 152(4) 157.2923 157.2685
359 17.9265 154(4) 157.1100 157.0929
360 17.9765 154(4) 156.9300 156.9173
361 18.0265 155(4) 156.7582 156.7481
362 18.0765 151(4) 156.6165 156.6080
363 18.1265 157(4) 156.4755 156.4678
364 18.1765 163(4) 156.3349 156.3277
365 18.2265 154(4) 156.1945 156.1875
366 18.2765 155(4) 156.0543 156.0474
367 18.3265 156(4) 155.9141 155.9073
368 18.3765 156(4) 155.7770 155.7672
369 18.4265 144(4) 155.6369 155.6270
370 18.4765 151(4) 155.4968 155.4869
371 18.5265 160(4) 155.3567 155.3467
372 18.5765 156(4) 155.2167 155.2066
373 18.6265 156(4) 155.0766 155.0665
374 18.6765 155(4) 154.9366 154.9263
375 18.7265 156(4) 154.7965 154.7862
376 18.7765 159(4) 154.6565 154.6461
377 18.8265 158(4) 154.5165 154.5059
378 18.8765 158(4) 154.3765 154.3658
379 18.9265 151(4) 154.2365 154.2256
380 18.9765 151(4) 154.0965 154.0855
381 19.0265 153(4) 153.9565 153.9454
382 19.0765 158(4) 153.8166 153.8052
383 19.1265 150(4) 153.6766 153.6651
384 19.1765 157(4) 153.5367 153.5250
385 19.2265 147(4) 153.3967 153.3848
386 19.2765 156(4) 153.2568 153.2447
387 19.3265 154(4) 153.1169 153.1046
388 19.3765 148(4) 152.9770 152.9644
389 19.4265 157(4) 152.8371 152.8243
390 19.4765 148(4) 152.6973 152.6841
391 19.5265 148(4) 152.5574 152.5440
392 19.5765 157(4) 152.4175 152.4039
393 19.6265 156(4) 152.2777 152.2637
394 19.6765 160(4) 152.1378 152.1236
395 19.7265 149(4) 151.9980 151.9835
396 19.7765 155(4) 151.8582 151.8433
397 19.8265 155(4) 151.7185 151.7032
398 19.8765 144(4) 151.5787 151.5630
399 19.9265 154(4) 151.4390 151.4229
400 19.9765 154(4) 151.2992 151.2828
401 20.0265 158(4) 151.1595 151.1427
402 20.0765 152(4) 151.0199 151.0025
403 20.1265 157(4) 150.8802 150.8624
404 20.1765 148(4) 150.7406 150.7222
405 20.2265 149(4) 150.6010 150.5821
406 20.2765 157(4) 150.4614 150.4420
407 20.3265 148(4) 150.3219 150.3018
408 20.3765 156(4) 150.2517 150.2309
409 20.4265 154(4) 150.2059 150.1843
410 20.4765 146(4) 150.1601 150.1378
411 20.5265 150(4) 150.1145 150.0912
412 20.5765 156(4) 150.0689 150.0446
413 20.6265 154(4) 150.0236 149.9980
414 20.6765 146(4) 149.9785 149.9514
415 20.7265 150(4) 149.9341 149.9049
416 20.7765 149(4) 149.8907 149.8583
417 20.8265 146(4) 149.8493 149.8117
418 20.8765 148(4) 149.8116 149.7651
419 20.9265 147(4) 149.7799 149.7186
420 20.9765 150(4) 149.7567 149.6720
421 21.0265 149(4) 149.7441 149.6254
422 21.0765 151(4) 149.7420 149.5788
423 21.1265 151(4) 149.7469 149.5322
424 21.1765 146(4) 149.7518 149.4856
425 21.2265 144(4) 149.7471 149.4391
426 21.2765 148(4) 149.7231 149.3925
427 21.3265 153(4) 149.6736 149.3459
428 21.3765 154(4) 149.5991 149.2993
429 21.4265 148(4) 149.5081 149.2527
430 21.4765 145(4) 149.4117 149.2062
431 21.5265 152(4) 149.3189 149.1596
432 21.5765 150(4) 149.2348 149.1130
433 21.6265 150(4) 149.1609 149.0664
434 21.6765 152(4) 149.0962 149.0199
435 21.7265 144(4) 149.0386 148.9733
436 21.7765 153(4) 148.9867 148.9267
437 21.8265 150(4) 148.9377 148.8801
438 21.8765 149(4) 148.8908 148.8335
439 21.9265 150(4) 148.8451 148.7869
440 21.9765 147(4) 148.8003 148.7404
441 22.0265 152(4) 148.7558 148.6938
442 22.0765 152(4) 148.7117 148.6472
443 22.1265 150(4) 148.6680 148.6006
444 22.1765 150(4) 148.6244 148.5540
445 22.2265 148(4) 148.5812 148.5075
446 22.2765 154(4) 148.5382 148.4609
447 22.3265 152(4) 148.4956 148.4143
448 22.3765 148(4) 148.4534 148.3677
449 22.4265 144(4) 148.4116 148.3212
450 22.4765 148(4) 148.3702 148.2746
451 22.5265 144(4) 148.3293 148.2280
452 22.5765 149(4) 148.2890 148.1814
453 22.6265 145(4) 148.2494 148.1348
454 22.6765 144(4) 148.2105 148.0882
455 22.7265 144(4) 148.1725 148.0417
456 22.7765 147(4) 148.1354 147.9951
457 22.8265 148(4) 148.0995 147.9485
458 22.8765 148(4) 148.0648 147.9019
459 22.9265 144(4) 148.0318 147.8553
460 22.9765 146(4) 148.0008 147.8088
461 23.0265 146(4) 147.9722 147.7622
462 23.0765 142(4) 147.9466 147.7156
463 23.1265 147(4) 147.9246 147.6690
464 23.1765 148(4) 147.9075 147.6225
465 23.2265 142(4) 147.8964 147.5759
466 23.2765 153(4) 147.8935 147.5293
467 23.3265 152(4) 147.9021 147.4827
468 23.3765 156(4) 147.9283 147.4361
469 23.4265 148(4) 147.9834 147.3895
470 23.4765 148(4) 148.0890 147.3430
471 23.5265 143(4) 148.2839 147.2964
472 23.5765 152(4) 148.6317 147.2498
473 23.6265 149(4) 149.2259 147.2032
474 23.6765 151(4) 150.1862 147.1566
475 23.7265 155(4) 151.6454 147.1101
476 23.7765 158(4) 153.7280 147.0635
477 23.8265 156(4) 156.5375 147.0169
478 23.8765 165(4) 160.1361 146.9703
479 23.9265 175(4) 164.5412 146.9238
480 23.9765 183(4) 169.6492 146.8772
481 24.0265 179(4) 175.1369 146.8306
482 24.0765 184(4) 180.4266 146.7840
483 24.1265 199(4) 184.7702 146.7374
484 24.1765 204(5) 187.3344 146.6908
485 24.2265 198(4) 187.3521 146.6443
486 24.2765 196(4) 184.4552 146.5977
487 24.3265 192(4) 179.0531 146.5511
488 24.3765 187(4) 172.2719 146.5045
489 24.4265 171(4) 165.4085 146.4579
490 24.4765 161(4) 159.4269 146.4114
491 24.5265 159(4) 154.7868 146.3648
492 24.5765 155(4) 151.5161 146.3182
493 24.6265 147(4) 149.3866 146.2716
494 24.6765 147(4) 148.0878 146.2251
495 24.7265 150(4) 147.3334 146.1785
496 24.7765 150(4) 146.9061 146.1319
497 24.8265 141(4) 146.6597 146.0853
498 24.8765 136(4) 146.5057 146.0387
499 24.9265 146(4) 146.3958 145.9921
500 24.9765 137(4) 146.3060 145.9456
501 25.0265 144(4) 146.2257 145.8990
502 25.0765 143(4) 146.1503 145.8524
503 25.1265 141(4) 146.0785 145.8058
504 25.1765 147(4) 146.0094 145.7592
505 25.2265 153(4) 145.9427 145.7127
506 25.2765 148(4) 145.8782 145.6661
507 25.3265 141(4) 145.8157 145.6195
508 25.3765 148(4) 145.7550 145.5729
509 25.4265 140(4) 145.6958 145.5264
510 25.4765 146(4) 145.6381 145.4798
511 25.5265 148(4) 145.5815 145.4332
512 25.5765 146(4) 145.5260 145.3866
513 25.6265 147(4) 145.4715 145.3400
514 25.6765 136(4) 145.4178 145.2934
515 25.7265 145(4) 145.3649 145.2469
516 25.7765 152(4) 145.3127 145.2003
517 25.8265 154(4) 145.2611 145.1537
518 25.8765 150(4) 145.2102 145.1071
519 25.9265 144(4) 145.1072 145.0076
520 25.9765 144(4) 144.9809 144.8838
521 26.0265 141(4) 144.8564 144.7600
522 26.0765 150(4) 144.7346 144.6362
523 26.1265 152(4) 144.6172 144.5125
524 26.1765 147(4) 144.5060 144.3887
525 26.2265 147(4) 144.4024 144.2649
526 26.2765 155(4) 144.3064 144.1411
527 26.3265 152(4) 144.2151 144.0173
528 26.3765 143(4) 144.1235 143.8936
529 26.4265 143(4) 144.0246 143.7698
530 26.4765 145(4) 143.9115 143.6460
531 26.5265 145(4) 143.7807 143.5222
532 26.5765 149(4) 143.6336 143.3984
533 26.6265 141(4) 143.4770 143.2747
534 26.6765 145(4) 143.3183 143.1509
535 26.7265 149(4) 143.1633 143.0271
536 26.7765 142(4) 143.0148 142.9033
537 26.8265 145(4) 142.8734 142.7795
538 26.8765 147(4) 142.7382 142.6557
539 26.9265 144(4) 142.6078 142.5320
540 26.9765 143(4) 142.4807 142.4082
541 27.0265 147(4) 142.3559 142.2844
542 27.0765 138(4) 142.2327 142.1606
543 27.1265 135(4) 142.1109 142.0368
544 27.1765 139(4) 141.9906 141.9131
545 27.2265 149(4) 141.8731 141.7893
546 27.2765 143(4) 141.7604 141.6655
547 27.3265 144(4) 141.7137 141.5417
548 27.3765 142(4) 141.6242 141.4179
549 27.4265 142(4) 141.5539 141.2942
550 27.4765 146(4) 141.5067 141.1704
551 27.5265 136(4) 141.4815 141.0466
552 27.5765 143(4) 141.4700 140.9228
553 27.6265 136(4) 141.4582 140.7990
554 27.6765 137(4) 141.4299 140.6752
555 27.7265 144(4) 141.3960 140.5515
556 27.7765 142(4) 141.3162 140.4277
557 27.8265 144(4) 141.2325 140.3039
558 27.8765 145(4) 141.1744 140.1801
559 27.9265 138(4) 141.1639 140.0564
560 27.9765 142(4) 141.2032 139.9326
561 28.0265 139(4) 141.2711 139.8088
562 28.0765 137(4) 141.3273 139.6850
563 28.1265 137(4) 141.3441 139.5845
564 28.1765 133(4) 141.3179 139.5488
565 28.2265 146(4) 141.1687 139.5131
566 28.2765 135(4) 140.9242 139.4774
567 28.3265 139(4) 140.6366 139.4416
568 28.3765 136(4) 140.3535 139.4059
569 28.4265 140(4) 140.1047 139.3702
570 28.4765 142(4) 139.9030 139.3345
571 28.5265 141(4) 139.7483 139.2988
572 28.5765 138(4) 139.6339 139.2631
573 28.6265 142(4) 139.5502 139.2274
574 28.6765 143(4) 139.4883 139.1917
575 28.7265 140(4) 139.4405 139.1560
576 28.7765 139(4) 139.4018 139.1203
577 28.8265 139(4) 139.3687 139.0845
578 28.8765 134(4) 139.3392 139.0488
579 28.9265 145(4) 139.3124 139.0131
580 28.9765 145(4) 139.2881 138.9774
581 29.0265 136(4) 139.2662 138.9417
582 29.0765 138(4) 139.2472 138.9060
583 29.1265 140(4) 139.2318 138.8703
584 29.1765 138(4) 139.2208 138.8346
585 29.2265 143(4) 139.2160 138.7989
586 29.2765 145(4) 139.2201 138.7632
587 29.3265 139(4) 139.2389 138.7275
588 29.3765 140(4) 139.2843 138.6918
589 29.4265 141(4) 139.3799 138.6561
590 29.4765 140(4) 139.5868 138.6203
591 29.5265 140(4) 139.9383 138.5846
592 29.5765 143(4) 140.5464 138.5489
593 29.6265 147(4) 141.5122 138.5132
594 29.6765 142(4) 142.9030 138.4775
595 29.7265 145(4) 144.6994 138.4418
596 29.7765 148(4) 146.7486 138.4061
597 29.8265 153(4) 148.7582 138.3704
598 29.8765 145(4) 150.3452 138.3347
599 29.9265 156(4) 151.1040 138.2990
600 29.9765 148(4) 150.8150 138.2633
601 30.0265 151(4) 149.5943 138.2276
602 30.0765 150(4) 147.8707 138.1918
603 30.1265 146(4) 146.1405 138.1561
604 30.1765 144(4) 144.7702 138.1204
605 30.2265 147(4) 143.9474 138.0847
606 30.2765 146(4) 143.6715 138.0490
607 30.3265 145(4) 143.8030 138.0133
608 30.3765 151(4) 144.1126 137.9776
609 30.4265 147(4) 144.3390 137.9419
610 30.4765 143(4) 144.2572 137.9062
611 30.5265 149(4) 143.7653 137.8705
612 30.5765 149(4) 142.9472 137.8347
613 30.6265 140(4) 141.9790 137.7990
614 30.6765 141(4) 141.0305 137.7633
615 30.7265 142(4) 140.2099 137.7276
616 30.7765 143(4) 139.5628 137.6919
617 30.8265 139(4) 139.0890 137.6562
618 30.8765 141(4) 138.7619 137.6205
619 30.9265 138(4) 138.5457 137.5848
620 30.9765 133(4) 138.4061 137.5491
621 31.0265 143(4) 138.3155 137.5134
622 31.0765 139(4) 138.2548 137.4777
623 31.1265 131(4) 138.2114 137.4420
624 31.1765 136(4) 138.1783 137.4062
625 31.2265 139(4) 138.1517 137.3705
626 31.2765 141(4) 138.1296 137.3348
627 31.3265 137(4) 138.1113 137.2991
628 31.3765 137(4) 138.0966 137.2634
629 31.4265 139(4) 138.0853 137.2277
630 31.4765 138(4) 138.0403 137.1548
631 31.5265 132(4) 137.9772 137.0601
632 31.5765 136(4) 137.9179 136.9653
633 31.6265 133(4) 137.8628 136.8706
634 31.6765 148(4) 137.8121 136.7758
635 31.7265 136(4) 137.7661 136.6811
636 31.7765 142(4) 137.7254 136.5864
637 31.8265 140(4) 137.6905 136.4916
638 31.8765 144(4) 137.6618 136.3969
639 31.9265 138(4) 137.6403 136.3021
640 31.9765 133(4) 137.6269 136.2074
641 32.0265 137(4) 137.6223 136.1127
642 32.0765 143(4) 137.6279 136.0179
643 32.1265 138(4) 137.6452 135.9232
644 32.1765 140(4) 137.6761 135.8284
645 32.2265 141(4) 137.7228 135.7337
646 32.2765 146(4) 137.7881 135.6390
647 32.3265 134(4) 137.8755 135.5442
648 32.3765 144(4) 137.9899 135.4495
649 32.4265 145(4) 138.1373 135.3547
650 32.4765 132(4) 138.3255 135.2600
651 32.5265 148(4) 138.5663 135.1653
652 32.5765 138(4) 138.8719 135.0705
653 32.6265 137(4) 139.2632 134.9758
654 32.6765 141(4) 139.7699 134.8810
655 32.7265 134(4) 140.4414 134.7863
656 32.7765 147(4) 141.3716 134.6916
657 32.8265 139(4) 142.7498 134.5968
658 32.8765 139(4) 144.9616 134.5021
659 32.9265 135(4) 148.7473 134.4073
660 32.9765 145(4) 155.3966 134.3126
661 33.0265 170(4) 166.8887 134.2178
662 33.0765 188(4) 185.7915 134.1231
663 33.1265 208(5) 214.7330 134.0284
664 33.1765 268(5) 255.3573 133.9336
665 33.2265 312(6) 306.9527 133.8389
666 33.2765 364(6) 365.3137 133.7441
667 33.3265 415(6) 422.3281 133.6494
668 33.3765 451(7) 466.9248 133.5547
669 33.4265 470(7) 488.1354 133.4599
670 33.4765 464(7) 480.1812 133.3652
671 33.5265 440(7) 445.5674 133.2704
672 33.5765 380(6) 393.1801 133.1757
673 33.6265 320(6) 334.3054 133.0810
674 33.6765 273(5) 278.7243 132.9862
675 33.7265 223(5) 232.4672 132.8915
676 33.7765 184(4) 197.6714 132.7967
677 33.8265 165(4) 173.6735 132.7020
678 33.8765 160(4) 158.3270 132.6073
679 33.9265 146(4) 149.1179 132.5125
680 33.9765 137(4) 143.8479 132.4178
681 34.0265 144(4) 140.8897 132.3230
682 34.0765 140(4) 139.1877 132.2283
683 34.1265 141(4) 138.1273 132.1336
684 34.1765 133(4) 137.4352 132.0388
685 34.2265 126(4) 136.8583 131.9441
686 34.2765 137(4) 136.3767 131.8493
687 34.3265 134(4) 135.9614 131.7546
688 34.3765 132(4) 135.6000 131.6599
689 34.4265 132(4) 135.2865 131.5651
690 34.4765 140(4) 135.0184 131.4704
691 34.5265 130(4) 134.7943 131.3756
692 34.5765 135(4) 134.6146 131.2809
693 34.6265 132(4) 134.4811 131.1862
694 34.6765 132(4) 134.4001 131.0914
695 34.7265 128(4) 134.3828 130.9967
696 34.7765 136(4) 134.4540 130.9019
697 34.8265 138(4) 134.6692 130.8072
698 34.8765 137(4) 135.1464 130.7124
699 34.9265 139(4) 136.1190 130.6177
700 34.9765 134(4) 137.9986 130.5230
701 35.0265 137(4) 141.4114 130.4282
702 35.0765 149(4) 147.1443 130.3335
703 35.1265 150(4) 155.9373 130.2388
704 35.1765 167(4) 168.2073 130.1440
705 35.2265 185(4) 183.3520 130.0493
706 35.2765 189(4) 200.0274 129.9545
707 35.3265 211(5) 215.9173 129.8598
708 35.3765 222(5) 228.1961 129.7650
709 35.4265 225(5) 234.4605 129.6703
710 35.4765 225(5) 233.8242 129.5756
711 35.5265 221(5) 227.4750 129.4808
712 35.5765 210(5) 217.1127 129.3861
713 35.6265 211(5) 204.0575 129.2914
714 35.6765 187(4) 189.5529 129.1966
715 35.7265 168(4) 175.1467 129.1019
716 35.7765 162(4) 162.2978 129.0071
717 35.8265 150(4) 151.8806 128.9124
718 35.8765 141(4) 144.1177 128.8176
719 35.9265 139(4) 138.7549 128.7229
720 35.9765 134(4) 135.3531 128.6282
721 36.0265 130(4) 133.2259 128.5334
722 36.0765 133(4) 131.9573 128.4387
723 36.1265 128(4) 131.1916 128.3439
724 36.1765 137(4) 130.7052 128.2492
725 36.2265 130(4) 130.3622 128.1544
726 36.2765 133(4) 130.0919 128.0597
727 36.3265 130(4) 129.8605 127.9650
728 36.3765 126(4) 129.6526 127.8702
729 36.4265 131(4) 129.4611 127.7755
730 36.4765 131(4) 129.2828 127.6808
731 36.5265 128(4) 129.1158 127.5860
732 36.5765 131(4) 128.9585 127.4913
733 36.6265 130(4) 128.8099 127.3965
734 36.6765 125(4) 128.6689 127.3018
735 36.7265 137(4) 128.5347 127.2070
736 36.7765 130(4) 128.4051 127.1123
737 36.8265 131(4) 128.2825 127.0176
738 36.8765 134(4) 128.1648 126.9228
739 36.9265 137(4) 128.0516 126.8281
740 36.9765 126(4) 127.9428 126.7333
741 37.0265 130(4) 127.8380 126.6386
742 37.0765 121(3) 127.7377 126.5439
743 37.1265 119(3) 127.6823 126.4899
744 37.1765 130(4) 127.6650 126.4684
745 37.2265 133(4) 127.6558 126.4469
746 37.2765 126(4) 127.6596 126.4254
747 37.3265 126(4) 127.6838 126.4039
748 37.3765 131(4) 127.7382 126.3824
749 37.4265 127(4) 127.8481 126.3609
750 37.4765 129(4) 127.9857 126.3394
751 37.5265 127(4) 128.1614 126.3179
752 37.5765 132(4) 128.3600 126.2964
753 37.6265 131(4) 128.5656 126.2749
754 37.6765 133(4) 128.7775 126.2534
755 37.7265 129(4) 129.0328 126.2320
756 37.7765 123(4) 129.4198 126.2105
757 37.8265 132(4) 130.0718 126.1890
758 37.8765 129(4) 131.0213 126.1675
759 37.9265 134(4) 132.2444 126.1460
760 37.9765 127(4) 133.5519 126.1245
761 38.0265 127(4) 134.6404 126.1030
762 38.0765 128(4) 135.1862 126.0815
763 38.1265 131(4) 134.9899 126.0600
764 38.1765 131(4) 134.1074 126.0385
765 38.2265 128(4) 132.8214 126.0170
766 38.2765 125(4) 131.4632 125.9956
767 38.3265 123(4) 130.2776 125.9741
768 38.3765 127(4) 129.3857 125.9526
769 38.4265 126(4) 128.7948 125.9311
770 38.4765 126(4) 128.4563 125.9096
771 38.5265 133(4) 128.2986 125.8881
772 38.5765 125(4) 128.2573 125.8666
773 38.6265 131(4) 128.2861 125.8451
774 38.6765 134(4) 128.3574 125.8236
775 38.7265 125(4) 128.4583 125.8021
776 38.7765 135(4) 128.5863 125.7806
777 38.8265 134(4) 128.7457 125.7591
778 38.8765 127(4) 128.9448 125.7377
779 38.9265 132(4) 129.1926 125.7162
780 38.9765 133(4) 129.4949 125.6947
781 39.0265 137(4) 129.8498 125.6732
782 39.0765 133(4) 130.2469 125.6517
783 39.1265 134(4) 130.6718 125.6302
784 39.1765 133(4) 131.1146 125.6087
785 39.2265 134(4) 131.5854 125.5872
786 39.2765 134(4) 132.1295 125.5657
787 39.3265 134(4) 132.8381 125.5442
788 39.3765 137(4) 133.8523 125.5227
789 39.4265 138(4) 135.5225 125.5013
790 39.4765 142(4) 138.4165 125.4798
791 39.5265 149(4) 143.5241 125.4583
792 39.5765 158(4) 152.5736 125.4368
793 39.6265 171(4) 167.5258 125.4153
794 39.6765 191(4) 190.1906 125.3938
795 39.7265 221(5) 221.0921 125.3723
796 39.7765 257(5) 258.3414 125.3508
797 39.8265 288(5) 297.0532 125.3293
798 39.8765 324(6) 329.7650 125.3078
799 39.9265 349(6) 348.0881 125.2863
800 39.9765 335(6) 346.0662 125.2648
801 40.0265 310(6) 324.4298 125.2434
802 40.0765 299(5) 290.6354 125.2219
803 40.1265 262(5) 253.8782 125.2004
804 40.1765 229(5) 221.1683 125.1789
805 40.2265 203(5) 196.5267 125.1574
806 40.2765 165(4) 181.7040 125.1359
807 40.3265 162(4) 177.4454 125.1144
808 40.3765 175(4) 184.6406 125.0929
809 40.4265 215(5) 204.7802 125.0714
810 40.4765 245(5) 239.4393 125.0499
811 40.5265 294(5) 289.1287 125.0284
812 40.5765 361(6) 352.3743 125.0070
813 40.6265 426(7) 425.7064 124.9855
814 40.6765 505(7) 504.0891 124.9640
815 40.7265 581(8) 581.8502 124.9425
816 40.7765 668(8) 655.7002 124.9210
817 40.8265 784(9) 724.3959 124.8995
818 40.8765 832(9) 780.3730 124.8780
819 40.9265 829(9) 805.9754 124.8565
820 40.9765 801(9) 783.5118 124.8350
821 41.0265 714(8) 711.4094 124.8135
822 41.0765 628(8) 606.2242 124.7920
823 41.1265 508(7) 491.2039 124.7705
824 41.1765 418(6) 385.7251 124.7491
825 41.2265 316(6) 300.5451 124.7276
826 41.2765 253(5) 238.2881 124.7061
827 41.3265 197(4) 196.3998 124.6846
828 41.3765 171(4) 170.1468 124.6631
829 41.4265 154(4) 154.5966 124.6416
830 41.4765 154(4) 145.7281 124.6201
831 41.5265 141(4) 140.7177 124.5986
832 41.5765 135(4) 137.8026 124.5771
833 41.6265 139(4) 135.9817 124.5556
834 41.6765 135(4) 134.7306 124.5341
835 41.7265 132(4) 133.7876 124.5126
836 41.7765 130(4) 133.0189 124.4912
837 41.8265 127(4) 132.3486 124.4697
838 41.8765 128(4) 131.7316 124.4482
839 41.9265 127(4) 131.1476 124.4267
840 41.9765 128(4) 130.5998 124.4052
841 42.0265 127(4) 130.1016 124.3837
842 42.0765 128(4) 129.6644 124.3622
843 42.1265 127(4) 129.2927 124.3407
844 42.1765 130(4) 128.9857 124.3192
845 42.2265 131(4) 128.7346 124.2977
846 42.2765 131(4) 128.5330 124.2762
847 42.3265 135(4) 128.3742 124.2548
848 42.3765 131(4) 128.2539 124.2333
849 42.4265 133(4) 128.1702 124.2118
850 42.4765 139(4) 128.1238 124.1903
851 42.5265 132(4) 128.1186 124.1688
852 42.5765 136(4) 128.1622 124.1473
853 42.6265 134(4) 128.2675 124.1258
854 42.6765 131(4) 128.4552 124.1043
855 42.7265 133(4) 128.7579 124.0828
856 42.7765 122(3) 129.2307 124.0613
857 42.8265 127(4) 129.9717 124.0398
858 42.8765 127(4) 131.1610 124.0183
859 42.9265 121(4) 133.1183 123.9969
860 42.9765 130(4) 136.3659 123.9754
861 43.0265 136(4) 141.6673 123.9539
862 43.0765 147(4) 149.9625 123.9109
863 43.1265 156(4) 162.1973 123.8388
864 43.1765 176(4) 178.9170 123.7668
865 43.2265 195(4) 199.6143 123.6947
866 43.2765 224(5) 222.2262 123.6226
867 43.3265 250(5) 242.9773 123.5505
868 43.3765 253(5) 257.1759 123.4784
869 43.4265 242(5) 261.0447 123.4063
870 43.4765 232(5) 253.1199 123.3342
871 43.5265 220(5) 235.5648 123.2621
872 43.5765 194(4) 212.9876 123.1901
873 43.6265 181(4) 190.2081 123.1180
874 43.6765 161(4) 170.7174 123.0459
875 43.7265 158(4) 156.2603 122.9738
876 43.7765 152(4) 146.9888 122.9017
877 43.8265 147(4) 141.9644 122.8296
878 43.8765 142(4) 139.7350 122.7575
879 43.9265 149(4) 138.8045 122.6854
880 43.9765 141(4) 137.9597 122.6133
881 44.0265 135(4) 136.5363 122.5413
882 44.0765 135(4) 134.4941 122.4692
883 44.1265 131(4) 132.1536 122.3971
884 44.1765 130(4) 129.8828 122.3250
885 44.2265 120(3) 127.9442 122.2529
886 44.2765 122(3) 126.4518 122.1808
887 44.3265 127(4) 125.3920 122.1087
888 44.3765 123(4) 124.6765 122.0366
889 44.4265 124(4) 124.1978 121.9645
890 44.4765 118(3) 123.8647 121.8925
891 44.5265 125(4) 123.6890 121.8204
892 44.5765 122(3) 123.4858 121.7483
893 44.6265 116(3) 123.3087 121.6762
894 44.6765 126(4) 123.1484 121.6041
895 44.7265 120(4) 122.9999 121.5320
896 44.7765 124(4) 122.8608 121.4599
897 44.8265 122(3) 122.7297 121.3878
898 44.8765 122(3) 122.6054 121.3158
899 44.9265 117(3) 122.4874 121.2437
900 44.9765 116(3) 122.3788 121.1716
901 45.0265 122(3) 122.2731 121.0995
902 45.0765 119(3) 122.1746 121.0274
903 45.1265 115(3) 122.0845 120.9553
904 45.1765 123(4) 122.0042 120.8832
905 45.2265 124(4) 121.9343 120.8111
906 45.2765 118(3) 121.8737 120.7391
907 45.3265 118(3) 121.8186 120.6670
908 45.3765 123(4) 121.7632 120.5949
909 45.4265 122(3) 121.6989 120.5228
910 45.4765 121(3) 121.6196 120.4507
911 45.5265 123(4) 121.5263 120.3786
912 45.5765 126(4) 121.4289 120.3065
913 45.6265 120(3) 121.3425 120.2344
914 45.6765 119(3) 121.2843 120.1623
915 45.7265 121(3) 121.2711 120.0903
916 45.7765 127(4) 121.2667 120.0182
917 45.8265 125(4) 121.3728 119.9461
918 45.8765 120(3) 121.5253 119.8740
919 45.9265 125(4) 121.6900 119.8019
920 45.9765 127(4) 121.7496 119.7298
921 46.0265 121(3) 121.8636 119.7470
922 46.0765 127(4) 121.8555 119.7777
923 46.1265 125(4) 121.7276 119.8084
924 46.1765 118(3) 121.5333 119.8391
925 46.2265 122(3) 121.3294 119.8698
926 46.2765 120(4) 121.1565 119.9006
927 46.3265 123(4) 120.9549 119.9313
928 46.3765 122(3) 120.8891 119.9620
929 46.4265 123(4) 120.8685 119.9927
930 46.4765 120(3) 120.8808 120.0234
931 46.5265 126(4) 120.9158 120.0542
932 46.5765 119(3) 120.9678 120.0849
933 46.6265 130(4) 121.0378 120.1156
934 46.6765 122(3) 121.0826 120.1463
935 46.7265 120(3) 121.2235 120.1770
936 46.7765 128(4) 121.4346 120.2077
937 46.8265 118(3) 121.7477 120.2385
938 46.8765 129(4) 122.1888 120.2692
939 46.9265 118(3) 122.7621 120.2999
940 46.9765 122(3) 123.4327 120.3306
941 47.0265 129(4) 124.1207 120.3613
942 47.0765 131(4) 124.6975 120.3921
943 47.1265 126(4) 125.0364 120.4228
944 47.1765 126(4) 125.0905 120.4535
945 47.2265 121(3) 124.9636 120.4842
946 47.2765 121(3) 124.8593 120.5149
947 47.3265 124(4) 124.9746 120.5457
948 47.3765 132(4) 125.4236 120.5764
949 47.4265 125(4) 126.1915 120.6071
950 47.4765 127(4) 127.1188 120.6378
951 47.5265 128(4) 127.9301 120.6685
952 47.5765 129(4) 128.3185 120.6992
953 47.6265 129(4) 128.1079 120.7300
954 47.6765 124(4) 127.3769 120.7607
955 47.7265 128(4) 126.3769 120.7914
956 47.7765 129(4) 125.3693 120.8221
957 47.8265 124(4) 124.5374 120.8528
958 47.8765 119(3) 123.9638 120.8836
959 47.9265 123(4) 123.6456 120.9143
960 47.9765 124(4) 123.5317 120.9450
961 48.0265 120(3) 123.5597 120.9757
962 48.0765 122(3) 123.6806 121.0064
963 48.1265 124(4) 123.8580 121.0372
964 48.1765 120(3) 124.0779 121.0679
965 48.2265 124(4) 124.3105 121.0742
966 48.2765 122(3) 124.5508 121.0500
967 48.3265 130(4) 124.8341 121.0260
968 48.3765 132(4) 125.1676 121.0019
969 48.4265 127(4) 125.5616 120.9778
970 48.4765 131(4) 126.0300 120.9537
971 48.5265 124(4) 126.6160 120.9296
972 48.5765 131(4) 127.3103 120.9055
973 48.6265 129(4) 128.1996 120.8814
974 48.6765 123(4) 129.4143 120.8573
975 48.7265 130(4) 131.2155 120.8332
976 48.7765 130(4) 134.0972 120.8091
977 48.8265 136(4) 138.9071 120.7850
978 48.8765 146(4) 146.9207 120.7609
979 48.9265 164(4) 159.7565 120.7368
980 48.9765 180(4) 178.9990 120.7127
981 49.0265 216(5) 205.5184 120.6886
982 49.0765 255(5) 238.6151 120.6645
983 49.1265 287(5) 275.3045 120.6404
984 49.1765 313(6) 309.9859 120.6163
985 49.2265 323(6) 335.1216 120.5922
986 49.2765 334(6) 344.3843 120.5681
987 49.3265 343(6) 338.8362 120.5440
988 49.3765 337(6) 329.0352 120.5199
989 49.4265 335(6) 330.1043 120.4958
990 49.4765 361(6) 355.5699 120.4717
991 49.5265 422(6) 412.2433 120.4476
992 49.5765 493(7) 495.6426 120.4235
993 49.6265 591(8) 588.0048 120.3994
994 49.6765 672(8) 661.2756 120.3753
995 49.7265 679(8) 686.6809 120.3512
996 49.7765 638(8) 650.7581 120.3271
997 49.8265 533(7) 564.9806 120.3030
998 49.8765 430(7) 455.9573 120.2789
999 49.9265 343(6) 349.9083 120.2548
1000 49.9765 259(5) 263.9515 120.2307
1001 50.0265 196(4) 203.9377 120.2066
1002 50.0765 161(4) 167.1495 120.1825
1003 50.1265 145(4) 146.9842 120.1584
1004 50.1765 140(4) 136.8335 120.1343
1005 50.2265 134(4) 131.9305 120.1102
1006 50.2765 136(4) 129.5217 120.0861
1007 50.3265 128(4) 128.2348 120.0620
1008 50.3765 127(4) 127.5235 120.0379
1009 50.4265 123(4) 127.1818 120.0138
1010 50.4765 124(4) 127.1329 119.9897
1011 50.5265 129(4) 127.3357 119.9656
1012 50.5765 127(4) 127.7705 119.9415
1013 50.6265 128(4) 128.3781 119.9174
1014 50.6765 130(4) 129.1674 119.8933
1015 50.7265 130(4) 130.1293 119.8692
1016 50.7765 135(4) 131.1787 119.8451
1017 50.8265 132(4) 132.0950 119.8210
1018 50.8765 135(4) 132.5354 119.7969
1019 50.9265 132(4) 132.2100 119.7728
1020 50.9765 131(4) 131.1071 119.7487
1021 51.0265 134(4) 129.5405 119.7246
1022 51.0765 130(4) 127.8752 119.7005
1023 51.1265 124(4) 126.3708 119.6764
1024 51.1765 118(3) 125.1506 119.6523
1025 51.2265 118(3) 124.2209 119.6282
1026 51.2765 117(3) 123.5145 119.6041
1027 51.3265 124(4) 122.9530 119.5800
1028 51.3765 117(3) 122.4907 119.5559
1029 51.4265 125(4) 122.1120 119.5318
1030 51.4765 117(3) 121.8148 119.5077
1031 51.5265 121(3) 121.5970 119.4836
1032 51.5765 119(3) 121.4527 119.4595
1033 51.6265 124(4) 121.3698 119.4354
1034 51.6765 128(4) 121.3361 119.4113
1035 51.7265 123(4) 121.3388 119.3872
1036 51.7765 119(3) 121.3627 119.3631
1037 51.8265 120(3) 121.3867 119.3390
1038 51.8765 122(3) 121.3864 119.3149
1039 51.9265 123(4) 121.3467 119.2908
1040 51.9765 117(3) 121.2827 119.2799
1041 52.0265 119(3) 121.1973 119.2737
1042 52.0765 123(4) 121.0979 119.2675
1043 52.1265 124(4) 121.0000 119.2613
1044 52.1765 129(4) 120.9257 119.2552
1045 52.2265 123(4) 120.9018 119.2490
1046 52.2765 121(3) 120.9614 119.2428
1047 52.3265 120(3) 121.1485 119.2367
1048 52.3765 124(4) 121.5181 119.2305
1049 52.4265 120(3) 122.1271 119.2243
1050 52.4765 125(4) 123.0101 119.2181
1051 52.5265 127(4) 124.1475 119.2120
1052 52.5765 124(4) 125.4331 119.2058
1053 52.6265 136(4) 126.6683 119.1996
1054 52.6765 129(4) 127.5283 119.1935
1055 52.7265 131(4) 127.7309 119.1873
1056 52.7765 127(4) 127.1998 119.1811
1057 52.8265 126(4) 126.1496 119.1749
1058 52.8765 120(3) 124.8992 119.1688
1059 52.9265 124(4) 123.7090 119.1626
1060 52.9765 125(4) 122.7345 119.1564
1061 53.0265 118(3) 122.0319 119.1503
1062 53.0765 121(3) 121.5889 119.1441
1063 53.1265 121(3) 121.3524 119.1379
1064 53.1765 114(3) 121.2649 119.1317
1065 53.2265 120(3) 121.2845 119.1256
1066 53.2765 115(4) 121.3934 119.1194
1067 53.3265 118(3) 121.6012 119.1132
1068 53.3765 122(3) 121.9427 119.1070
1069 53.4265 123(4) 122.4710 119.1009
1070 53.4765 122(3) 123.2570 119.0947
1071 53.5265 126(4) 124.3016 119.0885
1072 53.5765 124(4) 125.5982 119.0824
1073 53.6265 128(4) 127.0475 119.0762
1074 53.6765 120(3) 128.4673 119.0700
1075 53.7265 133(4) 129.6317 119.0638
1076 53.7765 124(4) 130.4224 119.0577
1077 53.8265 136(4) 131.0459 119.0515
1078 53.8765 125(4) 132.0664 119.0453
1079 53.9265 132(4) 134.2321 119.0392
1080 53.9765 142(4) 138.2763 119.0330
1081 54.0265 142(4) 144.7379 119.0268
1082 54.0765 154(4) 153.7411 119.0206
1083 54.1265 169(4) 164.8347 119.0145
1084 54.1765 180(4) 176.9659 119.0083
1085 54.2265 184(4) 188.6468 119.0021
1086 54.2765 190(4) 198.6571 118.9960
1087 54.3265 201(4) 207.5326 118.9898
1088 54.3765 213(5) 218.0900 118.9836
1089 54.4265 238(5) 233.1671 118.9774
1090 54.4765 261(5) 252.7933 118.9713
1091 54.5265 277(5) 273.0521 118.9651
1092 54.5765 287(5) 286.7839 118.9589
1093 54.6265 284(5) 286.6720 118.9528
1094 54.6765 251(5) 270.4192 118.9466
1095 54.7265 224(5) 242.6542 118.9404
1096 54.7765 202(4) 211.0025 118.9342
1097 54.8265 178(4) 181.9779 118.9281
1098 54.8765 154(4) 159.3082 118.9219
1099 54.9265 137(4) 143.8696 118.9157
1100 54.9765 136(4) 134.5139 118.9096
1101 55.0265 132(4) 129.5632 118.9034
1102 55.0765 126(4) 127.2692 118.8972
1103 55.1265 132(4) 126.4072 118.8910
1104 55.1765 133(4) 126.4525 118.8849
1105 55.2265 125(4) 126.9756 118.8787
1106 55.2765 125(4) 127.7641 118.8725
1107 55.3265 122(3) 128.6942 118.8663
1108 55.3765 133(4) 129.8022 118.8602
1109 55.4265 132(4) 131.4682 118.8540
1110 55.4765 137(4) 134.5183 118.8478
1111 55.5265 142(4) 140.0931 118.8417
1112 55.5765 150(4) 149.3209 118.8355
1113 55.6265 171(4) 162.8386 118.8293
1114 55.6765 187(4) 180.2127 118.8231
1115 55.7265 201(4) 199.4522 118.8170
1116 55.7765 220(5) 216.9308 118.8108
1117 55.8265 229(5) 228.2307 118.8046
1118 55.8765 230(5) 230.3499 118.7985
1119 55.9265 215(5) 223.8439 118.7923
1120 55.9765 206(5) 212.3800 118.7861
1121 56.0265 203(5) 199.9101 118.7799
1122 56.0765 195(4) 188.5813 118.7738
1123 56.1265 179(4) 178.4391 118.7676
1124 56.1765 177(4) 168.5006 118.7614
1125 56.2265 161(4) 158.3764 118.7553
1126 56.2765 156(4) 148.6367 118.7491
1127 56.3265 145(4) 140.0951 118.7429
1128 56.3765 141(4) 133.3176 118.7367
1129 56.4265 139(4) 128.4602 118.7306
1130 56.4765 130(4) 125.3008 118.7244
1131 56.5265 126(4) 123.4061 118.7182
1132 56.5765 123(4) 122.3284 118.7121
1133 56.6265 127(4) 121.7243 118.7059
1134 56.6765 118(3) 121.3820 118.6997
1135 56.7265 121(3) 121.1937 118.6935
1136 56.7765 122(3) 121.1122 118.6874
1137 56.8265 128(4) 121.1141 118.6812
1138 56.8765 120(3) 121.1910 118.6750
1139 56.9265 120(3) 121.3151 118.6689
1140 56.9765 128(4) 121.4794 118.6627
1141 57.0265 127(4) 121.5707 118.6565
1142 57.0765 117(3) 121.5887 118.6503
1143 57.1265 121(4) 121.5228 118.6442
1144 57.1765 125(4) 121.3765 118.6380
1145 57.2265 125(4) 121.2126 118.6318
1146 57.2765 125(4) 120.9980 118.6256
1147 57.3265 117(3) 120.8067 118.6195
1148 57.3765 123(4) 120.6595 118.6133
1149 57.4265 116(3) 120.5641 118.6071
1150 57.4765 121(3) 120.5164 118.6010
1151 57.5265 124(4) 120.5389 118.5912
1152 57.5765 118(3) 120.5587 118.5798
1153 57.6265 115(3) 120.6149 118.5683
1154 57.6765 118(3) 120.7183 118.5569
1155 57.7265 119(3) 120.8908 118.5454
1156 57.7765 116(3) 121.1744 118.5340
1157 57.8265 113(3) 121.6469 118.5226
1158 57.8765 123(4) 122.4424 118.5111
1159 57.9265 126(4) 123.7625 118.4997
1160 57.9765 124(4) 125.8641 118.4883
1161 58.0265 129(4) 129.0860 118.4768
1162 58.0765 130(4) 133.4538 118.4654
1163 58.1265 142(4) 139.0675 118.4539
1164 58.1765 149(4) 145.7597 118.4425
1165 58.2265 152(4) 153.1715 118.4311
1166 58.2765 157(4) 160.8359 118.4196
1167 58.3265 171(4) 168.5718 118.4082
1168 58.3765 173(4) 176.8054 118.3967
1169 58.4265 191(4) 185.8029 118.3853
1170 58.4765 203(5) 194.3736 118.3739
1171 58.5265 206(5) 199.6595 118.3624
1172 58.5765 199(4) 198.4137 118.3510
1173 58.6265 189(4) 189.6582 118.3396
1174 58.6765 176(4) 175.7969 118.3281
1175 58.7265 154(4) 160.5513 118.3167
1176 58.7765 144(4) 146.9242 118.3052
1177 58.8265 133(4) 136.5120 118.2938
1178 58.8765 130(4) 129.5674 118.2824
1179 58.9265 126(4) 125.6050 118.2709
1180 58.9765 123(4) 123.5111 118.2595
1181 59.0265 128(4) 122.6648 118.2480
1182 59.0765 135(4) 122.6009 118.2366
1183 59.1265 123(4) 123.0727 118.2252
1184 59.1765 123(4) 123.9283 118.2137
1185 59.2265 121(3) 124.9979 118.2023
1186 59.2765 126(4) 126.0393 118.1909
1187 59.3265 130(4) 126.7466 118.1794
1188 59.3765 126(4) 126.8407 118.1680
1189 59.4265 127(4) 126.2260 118.1565
1190 59.4765 127(4) 125.0944 118.1451
1191 59.5265 122(3) 123.7700 118.1337
1192 59.5765 121(3) 122.5246 118.1222
1193 59.6265 123(4) 121.5089 118.1108
1194 59.6765 121(3) 120.7696 118.0993
1195 59.7265 120(3) 120.2805 118.0879
1196 59.7765 121(3) 119.9810 118.0765
1197 59.8265 125(4) 119.8077 118.0650
1198 59.8765 117(3) 119.6969 118.0536
1199 59.9265 118(3) 119.6266 118.0422
1200 59.9765 119(3) 119.6019 118.0307
1201 60.0265 120(3) 119.5774 118.0193
1202 60.0765 118(3) 119.6027 118.0078
1203 60.1265 122(3) 119.6727 117.9964
1204 60.1765 121(3) 119.8197 117.9850
1205 60.2265 120(3) 120.0909 117.9735
1206 60.2765 127(4) 120.5364 117.9621
1207 60.3265 123(4) 121.1826 117.9507
1208 60.3765 125(4) 122.0110 117.9392
1209 60.4265 122(3) 122.8782 117.9278
1210 60.4765 118(3) 123.5955 117.9163
1211 60.5265 126(4) 123.9270 117.9049
1212 60.5765 122(3) 123.7454 117.8935
1213 60.6265 126(4) 123.1562 117.8850
1214 60.6765 119(3) 122.4203 117.9089
1215 60.7265 124(4) 121.7180 117.9327
1216 60.7765 122(4) 121.1802 117.9565
1217 60.8265 121(3) 120.8529 117.9803
1218 60.8765 120(3) 120.7213 118.0041
1219 60.9265 125(4) 120.7499 118.0279
1220 60.9765 120(3) 120.9128 118.0517
1221 61.0265 119(3) 121.2133 118.0755
1222 61.0765 119(3) 121.6703 118.0993
1223 61.1265 123(4) 122.3279 118.1231
1224 61.1765 119(3) 123.1988 118.1469
1225 61.2265 118(3) 124.2640 118.1707
1226 61.2765 122(4) 125.4147 118.1945
1227 61.3265 127(4) 126.4812 118.2183
1228 61.3765 128(4) 127.2574 118.2421
1229 61.4265 128(4) 127.5161 118.2659
1230 61.4765 133(4) 127.3069 118.2897
1231 61.5265 124(4) 126.8724 118.3135
1232 61.5765 130(4) 126.4534 118.3373
1233 61.6265 127(4) 126.2392 118.3611
1234 61.6765 125(4) 126.3468 118.3849
1235 61.7265 129(4) 126.8681 118.4087
1236 61.7765 129(4) 127.9424 118.4325
1237 61.8265 122(3) 129.8629 118.4563
1238 61.8765 123(4) 133.1991 118.4801
1239 61.9265 142(4) 138.8828 118.5039
1240 61.9765 139(4) 148.1677 118.5277
1241 62.0265 157(4) 162.3842 118.5515
1242 62.0765 181(4) 182.4878 118.5753
1243 62.1265 214(5) 208.5302 118.5991
1244 62.1765 235(5) 239.1737 118.6229
1245 62.2265 262(5) 271.3902 118.6467
1246 62.2765 293(5) 301.3863 118.6705
1247 62.3265 326(6) 327.3558 118.6943
1248 62.3765 368(6) 349.7532 118.7181
1249 62.4265 381(6) 367.3875 118.7419
1250 62.4765 391(6) 376.4186 118.7657
1251 62.5265 403(6) 373.8185 118.7895
1252 62.5765 364(6) 358.1141 118.8133
1253 62.6265 333(6) 328.7975 118.8371
1254 62.6765 294(5) 289.5658 118.8609
1255 62.7265 250(5) 248.0662 118.8847
1256 62.7765 213(5) 211.1844 118.9085
1257 62.8265 187(4) 182.7073 118.9323
1258 62.8765 172(4) 163.4568 118.9561
1259 62.9265 153(4) 152.3065 118.9799
1260 62.9765 147(4) 147.4773 119.0037
1261 63.0265 146(4) 147.6362 119.0275
1262 63.0765 163(4) 152.5031 119.0513
1263 63.1265 164(4) 162.8885 119.0751
1264 63.1765 174(4) 180.2185 119.0989
1265 63.2265 210(5) 205.6174 119.1227
1266 63.2765 250(5) 238.7755 119.1465
1267 63.3265 277(5) 276.9295 119.1703
1268 63.3765 314(6) 314.2989 119.1941
1269 63.4265 332(6) 342.7090 119.2179
1270 63.4765 351(6) 356.0101 119.2417
1271 63.5265 335(6) 357.9698 119.2655
1272 63.5765 337(6) 362.8838 119.2893
1273 63.6265 367(6) 386.5216 119.3131
1274 63.6765 426(7) 437.5467 119.3369
1275 63.7265 504(7) 512.4241 119.3607
1276 63.7765 599(8) 593.4149 119.3845
1277 63.8265 676(8) 650.9995 119.4083
1278 63.8765 663(8) 655.4503 119.4321
1279 63.9265 592(8) 599.0441 119.4559
1280 63.9765 478(7) 502.5810 119.4797
1281 64.0265 377(6) 395.9472 119.5035
1282 64.0765 299(5) 302.0049 119.5273
1283 64.1265 231(5) 232.0097 119.5511
1284 64.1765 187(4) 186.7498 119.5749
1285 64.2265 159(4) 160.9285 119.5987
1286 64.2765 159(4) 147.6733 119.6225
1287 64.3265 155(4) 141.3365 119.6463
1288 64.3765 143(4) 138.2331 119.6701
1289 64.4265 131(4) 136.2910 119.6939
1290 64.4765 136(4) 134.5291 119.7177
1291 64.5265 132(4) 132.6896 119.7415
1292 64.5765 131(4) 130.8806 119.7653
1293 64.6265 131(4) 129.2753 119.7891
1294 64.6765 122(3) 127.9767 119.8129
1295 64.7265 128(4) 126.9968 119.8367
1296 64.7765 112(3) 126.2453 119.8187
1297 64.8265 125(4) 125.5981 119.7031
1298 64.8765 121(3) 125.0986 119.5875
1299 64.9265 124(4) 124.7042 119.4719
1300 64.9765 127(4) 124.3833 119.3563
1301 65.0265 127(4) 124.1140 119.2407
1302 65.0765 120(3) 123.9568 119.1251
1303 65.1265 119(3) 123.7564 119.0095
1304 65.1765 126(4) 123.6033 118.8939
1305 65.2265 121(3) 123.5413 118.7783
1306 65.2765 122(3) 123.6454 118.6627
1307 65.3265 125(4) 124.0479 118.5470
1308 65.3765 120(3) 124.9635 118.4314
1309 65.4265 122(3) 126.6907 118.3158
1310 65.4765 135(4) 129.5564 118.2002
1311 65.5265 134(4) 133.7896 118.0846
1312 65.5765 136(4) 139.3387 117.9690
1313 65.6265 149(4) 145.7060 117.8534
1314 65.6765 158(4) 151.9261 117.7378
1315 65.7265 153(4) 156.4574 117.6222
1316 65.7765 154(4) 157.8131 117.5066
1317 65.8265 149(4) 155.5824 117.3910
1318 65.8765 152(4) 151.1890 117.2754
1319 65.9265 144(4) 146.8819 117.1598
1320 65.9765 141(4) 144.6752 117.0442
1321 66.0265 145(4) 146.0630 116.9286
1322 66.0765 145(4) 151.9018 116.8130
1323 66.1265 156(4) 162.1154 116.6974
1324 66.1765 179(4) 175.4133 116.5817
1325 66.2265 187(4) 189.3019 116.4661
1326 66.2765 194(4) 200.3030 116.3505
1327 66.3265 197(4) 204.8004 116.2349
1328 66.3765 202(4) 200.9480 116.1193
1329 66.4265 184(4) 189.5444 116.0037
1330 66.4765 175(4) 173.7037 115.8881
1331 66.5265 159(4) 157.3928 115.7725
1332 66.5765 147(4) 143.5322 115.6569
1333 66.6265 135(4) 133.3281 115.5413
1334 66.6765 134(4) 126.6321 115.4257
1335 66.7265 125(4) 122.6179 115.3101
1336 66.7765 124(4) 120.3413 115.1945
1337 66.8265 122(3) 119.0565 115.0789
1338 66.8765 122(3) 118.2877 114.9633
1339 66.9265 118(3) 117.7745 114.8477
1340 66.9765 118(3) 117.3985 114.7321
1341 67.0265 113(4) 117.1091 114.6164
1342 67.0765 115(3) 116.8983 114.5008
1343 67.1265 112(3) 116.7838 114.3852
1344 67.1765 121(3) 116.8020 114.2696
1345 67.2265 122(3) 116.9971 114.1540
1346 67.2765 114(3) 117.4019 114.0384
1347 67.3265 118(3) 118.0110 113.9228
1348 67.3765 116(3) 118.7526 113.8072
1349 67.4265 115(3) 119.4684 113.6916
1350 67.4765 114(3) 119.9489 113.5760
1351 67.5265 113(3) 120.0508 113.4604
1352 67.5765 115(3) 119.6941 113.3448
1353 67.6265 116(3) 119.0009 113.2292
1354 67.6765 115(3) 117.9007 113.1136
1355 67.7265 120(3) 116.8013 112.9980
1356 67.7765 117(3) 115.8158 112.8824
1357 67.8265 111(3) 115.0415 112.7667
1358 67.8765 120(3) 114.4901 112.6511
1359 67.9265 115(3) 114.1190 112.5355
1360 67.9765 113(3) 113.8687 112.4199
1361 68.0265 121(3) 113.6881 112.3043
1362 68.0765 120(3) 113.5500 112.1887
1363 68.1265 124(4) 113.4245 112.0731
1364 68.1765 115(3) 113.3097 111.9575
1365 68.2265 114(3) 113.2022 111.8419
1366 68.2765 116(3) 113.1008 111.7263
1367 68.3265 124(4) 113.0051 111.6107
1368 68.3765 119(3) 112.9151 111.4951
1369 68.4265 117(3) 112.8816 111.4302
1370 68.4765 114(3) 112.8867 111.3978
1371 68.5265 117(3) 112.9355 111.3654
1372 68.5765 108(3) 112.9562 111.3329
1373 68.6265 115(3) 112.9871 111.3005
1374 68.6765 118(3) 113.0362 111.2681
1375 68.7265 114(3) 113.1067 111.2356
1376 68.7765 112(3) 113.2448 111.2032
1377 68.8265 113(3) 113.4151 111.1708
1378 68.8765 108(3) 113.6652 111.1383
1379 68.9265 114(3) 113.8106 111.1059
1380 68.9765 112(3) 114.2211 111.0735
1381 69.0265 114(3) 114.6431 111.0411
1382 69.0765 114(3) 114.9963 111.0086
1383 69.1265 116(3) 115.1875 110.9762
1384 69.1765 114(3) 115.2016 110.9438
1385 69.2265 114(3) 115.1184 110.9113
1386 69.2765 114(3) 115.0452 110.8789
1387 69.3265 115(3) 115.0628 110.8465
1388 69.3765 113(3) 115.2244 110.8140
1389 69.4265 114(3) 115.5686 110.7816
1390 69.4765 115(3) 116.1394 110.7492
1391 69.5265 115(3) 117.0011 110.7168
1392 69.5765 121(3) 118.2314 110.6843
1393 69.6265 118(3) 119.8964 110.6519
1394 69.6765 124(4) 122.0350 110.6195
1395 69.7265 124(4) 124.7014 110.5870
1396 69.7765 120(3) 128.1258 110.5546
1397 69.8265 130(4) 133.0421 110.5222
1398 69.8765 132(4) 141.0889 110.4897
1399 69.9265 150(4) 154.7657 110.4573
1400 69.9765 168(4) 176.6750 110.4249
1401 70.0265 196(4) 208.3450 110.3924
1402 70.0765 245(5) 248.9059 110.3600
1403 70.1265 285(5) 293.9789 110.3276
1404 70.1765 343(6) 335.3224 110.2952
1405 70.2265 366(6) 362.7150 110.2627
1406 70.2765 367(6) 371.3740 110.2303
1407 70.3265 370(6) 366.1624 110.1979
1408 70.3765 350(6) 353.6323 110.1654
1409 70.4265 333(6) 334.6654 110.1330
1410 70.4765 306(6) 306.1718 110.1006
1411 70.5265 273(5) 268.6433 110.0681
1412 70.5765 236(5) 228.3713 110.0357
1413 70.6265 199(4) 192.1075 110.0033
1414 70.6765 167(4) 163.8048 109.9709
1415 70.7265 152(4) 144.4018 109.9384
1416 70.7765 135(4) 132.6057 109.9060
1417 70.8265 128(4) 126.1436 109.8736
1418 70.8765 129(4) 122.8951 109.8411
1419 70.9265 125(4) 121.4020 109.8087
1420 70.9765 127(4) 120.9384 109.7763
1421 71.0265 121(3) 121.2136 109.7439
1422 71.0765 127(4) 122.0209 109.7114
1423 71.1265 132(4) 123.0137 109.6790
1424 71.1765 119(3) 123.6095 109.6466
1425 71.2265 121(3) 123.2480 109.6141
1426 71.2765 117(3) 121.8074 109.5817
1427 71.3265 128(4) 119.7446 109.5493
1428 71.3765 120(3) 117.6183 109.5168
1429 71.4265 116(3) 115.8186 109.4844
1430 71.4765 117(3) 114.5057 109.4520
1431 71.5265 122(3) 113.6571 109.4195
1432 71.5765 119(3) 113.1524 109.3871
1433 71.6265 113(3) 112.8676 109.3547
1434 71.6765 112(3) 112.7062 109.3223
1435 71.7265 113(3) 112.6267 109.2898
1436 71.7765 114(3) 112.6094 109.2574
1437 71.8265 117(3) 112.6600 109.2250
1438 71.8765 119(3) 112.8116 109.1925
1439 71.9265 114(3) 113.1118 109.1601
1440 71.9765 118(3) 113.7121 109.2349
1441 72.0265 117(3) 114.5177 109.3168
1442 72.0765 114(3) 115.4509 109.3988
1443 72.1265 120(3) 116.3518 109.4807
1444 72.1765 115(3) 117.0068 109.5626
1445 72.2265 118(3) 117.2955 109.6445
1446 72.2765 120(3) 117.2773 109.7264
1447 72.3265 121(3) 117.2105 109.8083
1448 72.3765 118(3) 117.3363 109.8902
1449 72.4265 115(3) 117.8533 109.9722
1450 72.4765 119(3) 118.9698 110.0541
1451 72.5265 121(3) 120.9961 110.1360
1452 72.5765 124(4) 124.4602 110.2179
1453 72.6265 125(4) 130.1479 110.2998
1454 72.6765 140(4) 138.9922 110.3817
1455 72.7265 142(4) 151.7444 110.4636
1456 72.7765 154(4) 168.5055 110.5456
1457 72.8265 187(4) 188.2137 110.6275
1458 72.8765 199(4) 208.2161 110.7094
1459 72.9265 232(5) 224.4395 110.7913
1460 72.9765 232(5) 233.5460 110.8732
1461 73.0265 235(5) 237.4294 110.9551
1462 73.0765 234(5) 242.6906 111.0371
1463 73.1265 236(5) 255.6845 111.1190
1464 73.1765 266(5) 279.2595 111.2009
1465 73.2265 292(5) 310.9533 111.2828
1466 73.2765 340(6) 341.6553 111.3647
1467 73.3265 351(6) 358.3761 111.4466
1468 73.3765 360(6) 352.1319 111.5285
1469 73.4265 327(6) 322.5750 111.6105
1470 73.4765 279(5) 277.7813 111.6924
1471 73.5265 237(5) 230.0998 111.7743
1472 73.5765 202(4) 189.2490 111.8562
1473 73.6265 156(4) 159.5418 111.9381
1474 73.6765 144(4) 140.7220 112.0200
1475 73.7265 136(4) 130.1665 112.1019
1476 73.7765 127(4) 124.6358 112.1839
1477 73.8265 130(4) 121.8165 112.2658
1478 73.8765 123(4) 120.2951 112.3477
1479 73.9265 121(3) 119.3763 112.4296
1480 73.9765 121(3) 118.7647 112.5115
1481 74.0265 126(4) 118.3450 112.5934
1482 74.0765 118(3) 118.0720 112.6753
1483 74.1265 116(3) 117.9257 112.7572
1484 74.1765 123(4) 117.8878 112.8392
1485 74.2265 119(3) 117.9350 112.9211
1486 74.2765 113(3) 117.9635 112.9336
1487 74.3265 114(3) 117.9474 112.8761
1488 74.3765 114(3) 117.9037 112.8187
1489 74.4265 117(3) 117.8850 112.7612
1490 74.4765 117(3) 117.9906 112.7038
1491 74.5265 117(3) 118.3882 112.6463
1492 74.5765 120(3) 119.3572 112.5888
1493 74.6265 116(3) 121.3560 112.5314
1494 74.6765 117(3) 124.9122 112.4739
1495 74.7265 127(4) 130.5449 112.4165
1496 74.7765 137(4) 138.3468 112.3590
1497 74.8265 161(4) 147.6030 112.3015
1498 74.8765 165(4) 156.5255 112.2441
1499 74.9265 171(4) 162.3749 112.1866
1500 74.9765 167(4) 162.8801 112.1292
1501 75.0265 153(4) 158.5995 112.0717
1502 75.0765 153(4) 152.6858 112.0143
1503 75.1265 157(4) 148.3906 111.9568
1504 75.1765 139(4) 147.7675 111.8993
1505 75.2265 142(4) 151.4075 111.8419
1506 75.2765 150(4) 158.3527 111.7844
1507 75.3265 167(4) 166.2448 111.7270
1508 75.3765 170(4) 172.2333 111.6695
1509 75.4265 180(4) 174.9059 111.6120
1510 75.4765 173(4) 174.6097 111.5546
1511 75.5265 176(4) 173.4971 111.4971
1512 75.5765 175(4) 174.2069 111.4397
1513 75.6265 186(4) 177.5812 111.3822
1514 75.6765 192(4) 181.6672 111.3248
1515 75.7265 194(4) 182.3296 111.2673
1516 75.7765 191(4) 176.4995 111.2098
1517 75.8265 179(4) 165.3485 111.1524
1518 75.8765 161(4) 152.6247 111.0949
1519 75.9265 148(4) 141.5384 111.0375
1520 75.9765 133(4) 133.6466 110.9800
1521 76.0265 127(4) 128.8914 110.9225
1522 76.0765 119(3) 126.1605 110.8651
1523 76.1265 112(3) 124.1138 110.8076
1524 76.1765 119(3) 122.0387 110.7502
1525 76.2265 121(3) 119.9700 110.6927
1526 76.2765 116(3) 118.2120 110.6353
1527 76.3265 117(3) 117.0272 110.5778
1528 76.3765 117(3) 116.5357 110.5203
1529 76.4265 118(3) 116.7176 110.4629
1530 76.4765 118(3) 117.4529 110.4116
1531 76.5265 118(3) 118.5958 110.4354
1532 76.5765 121(3) 119.7278 110.4592
1533 76.6265 118(3) 120.4544 110.4830
1534 76.6765 115(3) 120.5292 110.5068
1535 76.7265 118(3) 120.0146 110.5305
1536 76.7765 117(3) 119.1511 110.5543
1537 76.8265 114(3) 118.2515 110.5781
1538 76.8765 119(3) 117.6099 110.6019
1539 76.9265 115(3) 117.4347 110.6257
1540 76.9765 116(3) 117.8942 110.6495
1541 77.0265 119(3) 119.1923 110.6733
1542 77.0765 130(4) 121.6266 110.6971
1543 77.1265 125(4) 125.4776 110.7209
1544 77.1765 127(4) 130.9743 110.7447
1545 77.2265 140(4) 137.8970 110.7684
1546 77.2765 144(4) 145.4919 110.7922
1547 77.3265 150(4) 152.1864 110.8160
1548 77.3765 170(4) 155.8471 110.8398
1549 77.4265 159(4) 155.1468 110.8636
1550 77.4765 153(4) 151.0991 110.8874
1551 77.5265 149(4) 146.3323 110.9112
1552 77.5765 145(4) 143.4928 110.9350
1553 77.6265 148(4) 144.7585 110.9587
1554 77.6765 143(4) 151.7713 110.9825
1555 77.7265 157(4) 165.3019 111.0063
1556 77.7765 174(4) 184.7011 111.0301
1557 77.8265 195(4) 207.3815 111.0539
1558 77.8765 217(5) 228.7422 111.0777
1559 77.9265 223(5) 243.8693 111.1015
1560 77.9765 250(5) 251.7845 111.1253
1561 78.0265 254(5) 256.7480 111.1491
1562 78.0765 258(5) 263.6075 111.1729
1563 78.1265 267(5) 272.7624 111.1966
1564 78.1765 278(5) 278.9536 111.2204
1565 78.2265 287(5) 274.9516 111.2442
1566 78.2765 284(5) 258.9917 111.2680
1567 78.3265 262(5) 237.8880 111.2918
1568 78.3765 239(5) 220.2191 111.3156
1569 78.4265 222(5) 210.8302 111.3394
1570 78.4765 216(5) 209.3094 111.3632
1571 78.5265 221(5) 211.5102 111.3869
1572 78.5765 228(5) 213.6581 111.4107
1573 78.6265 214(5) 215.9922 111.4345
1574 78.6765 215(5) 220.4828 111.4583
1575 78.7265 217(5) 226.7760 111.4821
1576 78.7765 233(5) 231.4928 111.5059
1577 78.8265 234(5) 231.0949 111.5297
1578 78.8765 230(5) 224.2159 111.5535
1579 78.9265 217(5) 212.0396 111.5773
1580 78.9765 203(5) 199.0201 111.6010
1581 79.0265 195(4) 190.2104 111.6248
1582 79.0765 186(4) 187.9118 111.6486
1583 79.1265 190(4) 190.8306 111.6724
1584 79.1765 203(5) 195.0466 111.6962
1585 79.2265 200(4) 197.1108 111.7200
1586 79.2765 194(4) 197.6212 111.7438
1587 79.3265 204(5) 199.2958 111.7676
1588 79.3765 204(5) 202.4870 111.7914
1589 79.4265 207(5) 203.7963 111.8151
1590 79.4765 206(5) 198.2979 111.8389
1591 79.5265 189(4) 184.9572 111.8627
1592 79.5765 179(4) 167.7815 111.8865
1593 79.6265 156(4) 151.4949 111.9103
1594 79.6765 148(4) 139.0492 111.9341
1595 79.7265 132(4) 131.4080 111.9579
1596 79.7765 134(4) 128.1800 111.9817
1597 79.8265 136(4) 128.5274 112.0055
1598 79.8765 128(4) 131.8197 112.0292
1599 79.9265 135(4) 137.5830 112.0530
1600 79.9765 148(4) 145.2266 112.0768
1601 80.0265 158(4) 153.5396 112.1006
1602 80.0765 162(4) 160.5299 112.1244
1603 80.1265 165(4) 164.1648 112.1482
1604 80.1765 167(4) 163.5916 112.1720
1605 80.2265 160(4) 159.4878 112.1958
1606 80.2765 163(4) 153.8642 112.2196
1607 80.3265 162(4) 149.2884 112.2433
1608 80.3765 153(4) 147.5260 112.2671
1609 80.4265 154(4) 148.9823 112.2909
1610 80.4765 153(4) 152.6180 112.3147
1611 80.5265 161(4) 156.4533 112.3385
1612 80.5765 167(4) 158.7570 112.3623
1613 80.6265 167(4) 159.8354 112.3861
1614 80.6765 167(4) 161.0435 112.4099
1615 80.7265 170(4) 162.8883 112.4337
1616 80.7765 167(4) 164.3722 112.4574
1617 80.8265 163(4) 163.4039 112.4812
1618 80.8765 156(4) 158.6876 112.5050
1619 80.9265 157(4) 151.3123 112.5288
1620 80.9765 146(4) 143.4931 112.5526
1621 81.0265 138(4) 136.9253 112.5764
1622 81.0765 139(4) 132.5879 112.6002
1623 81.1265 133(4) 131.0578 112.6240
1624 81.1765 124(4) 132.9335 112.6478
1625 81.2265 137(4) 139.2975 112.6715
1626 81.2765 146(4) 151.8571 112.6953
1627 81.3265 170(4) 172.3023 112.7191
1628 81.3765 190(4) 200.5635 112.7429
1629 81.4265 225(5) 233.0302 112.7667
1630 81.4765 264(5) 261.4798 112.7905
1631 81.5265 282(5) 274.1096 112.8143
1632 81.5765 258(5) 263.1732 112.8381
1633 81.6265 234(5) 233.8686 112.8618
1634 81.6765 209(5) 198.6323 112.8856
1635 81.7265 177(4) 167.4838 112.9094
1636 81.7765 152(4) 145.0474 112.9332
1637 81.8265 135(4) 131.3507 112.9570
1638 81.8765 130(4) 124.0216 112.9808
1639 81.9265 118(3) 120.4053 113.0046
1640 81.9765 125(4) 118.6208 113.0284
1641 82.0265 117(3) 117.6488 113.0522
1642 82.0765 124(4) 117.0365 113.0760
1643 82.1265 121(3) 116.6074 113.0997
1644 82.1765 114(3) 116.2948 113.1235
1645 82.2265 116(3) 116.0667 113.1473
1646 82.2765 110(3) 115.8995 113.1711
1647 82.3265 116(3) 115.7669 113.1949
1648 82.3765 111(3) 115.6402 113.2187
1649 82.4265 111(3) 115.4892 113.2303
1650 82.4765 114(3) 115.2589 113.1704
1651 82.5265 109(3) 115.0406 113.1105
1652 82.5765 113(3) 114.9557 113.0507
1653 82.6265 110(3) 114.7923 112.9908
1654 82.6765 118(3) 114.6557 112.9310
1655 82.7265 118(3) 114.5248 112.8711
1656 82.7765 113(3) 114.4003 112.8113
1657 82.8265 116(3) 114.3201 112.7514
1658 82.8765 120(3) 114.2397 112.6915
1659 82.9265 116(3) 114.1876 112.6317
1660 82.9765 113(3) 114.1515 112.5718
1661 83.0265 112(3) 114.1354 112.5120
1662 83.0765 112(3) 114.1488 112.4521
1663 83.1265 107(3) 114.2124 112.3923
1664 83.1765 115(3) 114.3692 112.3324
1665 83.2265 117(3) 114.6957 112.2725
1666 83.2765 119(3) 115.3048 112.2127
1667 83.3265 116(3) 116.3220 112.1528
1668 83.3765 116(3) 117.8246 112.0930
1669 83.4265 121(3) 119.7606 112.0331
1670 83.4765 120(3) 121.8839 111.9733
1671 83.5265 122(3) 123.7767 111.9134
1672 83.5765 129(4) 124.9855 111.8535
1673 83.6265 129(4) 125.1547 111.7937
1674 83.6765 127(4) 124.2762 111.7338
1675 83.7265 126(4) 122.8240 111.6740
1676 83.7765 131(4) 121.4551 111.6141
1677 83.8265 120(3) 120.7496 111.5542
1678 83.8765 120(3) 120.8733 111.4944
1679 83.9265 120(3) 121.7107 111.4345
1680 83.9765 116(3) 123.1462 111.3747
1681 84.0265 119(3) 125.0225 111.3148
1682 84.0765 119(3) 127.4900 111.2550
1683 84.1265 131(4) 130.8028 111.1951
1684 84.1765 136(4) 134.5639 111.1352
1685 84.2265 134(4) 137.3999 111.0754
1686 84.2765 144(4) 137.5198 111.0155
1687 84.3265 148(4) 134.3502 110.9557
1688 84.3765 129(4) 129.2222 110.8958
1689 84.4265 127(4) 123.9430 110.8359
1690 84.4765 123(4) 119.7000 110.7761
1691 84.5265 110(3) 116.9171 110.7162
1692 84.5765 119(3) 115.5094 110.6564
1693 84.6265 112(3) 115.2646 110.5965
1694 84.6765 111(3) 116.1409 110.5367
1695 84.7265 120(3) 118.3003 110.4768
1696 84.7765 122(3) 121.9272 110.4169
1697 84.8265 123(4) 126.8829 110.3571
1698 84.8765 141(4) 132.4460 110.2972
1699 84.9265 137(4) 137.2787 110.2374
1700 84.9765 143(4) 140.0921 110.1775
1701 85.0265 140(4) 140.8264 110.1177
1702 85.0765 136(4) 140.0883 110.0578
1703 85.1265 138(4) 137.7427 109.9979
1704 85.1765 140(4) 133.4945 109.9381
1705 85.2265 128(4) 128.1906 109.8782
1706 85.2765 122(3) 123.1370 109.8184
1707 85.3265 121(3) 119.2102 109.7585
1708 85.3765 119(3) 116.6773 109.6987
1709 85.4265 122(3) 115.3612 109.6388
1710 85.4765 116(3) 114.9148 109.5789
1711 85.5265 116(3) 115.0566 109.5191
1712 85.5765 119(3) 115.6465 109.4592
1713 85.6265 113(3) 116.6620 109.3994
1714 85.6765 116(3) 118.0994 109.3395
1715 85.7265 118(3) 119.8941 109.2797
1716 85.7765 119(3) 121.9058 109.2198
1717 85.8265 125(4) 124.0538 109.1599
1718 85.8765 121(3) 126.7802 109.1001
1719 85.9265 130(4) 131.6987 109.0402
1720 85.9765 143(4) 142.2859 108.9804
1721 86.0265 176(4) 164.4275 108.9205
1722 86.0765 214(5) 204.5140 108.8606
1723 86.1265 289(5) 263.4323 108.8008
1724 86.1765 346(6) 327.4350 108.7409
1725 86.2265 380(6) 360.4265 108.6811
1726 86.2765 339(6) 334.0814 108.6212
1727 86.3265 276(5) 273.6800 108.5614
1728 86.3765 223(5) 214.9760 108.5015
1729 86.4265 184(4) 172.8501 108.4416
1730 86.4765 155(4) 147.6917 108.3818
1731 86.5265 143(4) 134.0296 108.3219
1732 86.5765 120(3) 126.5791 108.2621
1733 86.6265 124(4) 122.2450 108.2022
1734 86.6765 124(4) 119.6018 108.1423
1735 86.7265 119(3) 118.0102 108.0825
1736 86.7765 117(3) 117.1068 108.0226
1737 86.8265 116(3) 116.6104 107.9628
1738 86.8765 114(3) 116.2636 107.9029
1739 86.9265 112(3) 115.8302 107.8431
1740 86.9765 118(3) 115.1670 107.7832
1741 87.0265 114(3) 114.3319 107.7234
1742 87.0765 108(3) 113.5106 107.6635
1743 87.1265 116(3) 112.9031 107.6757
1744 87.1765 116(3) 112.5276 107.7110
1745 87.2265 107(3) 112.3589 107.7463
1746 87.2765 113(3) 112.3642 107.7816
1747 87.3265 117(3) 112.5109 107.8169
1748 87.3765 113(3) 112.7848 107.8522
1749 87.4265 112(3) 113.1996 107.8875
1750 87.4765 115(3) 113.8129 107.9228
1751 87.5265 118(3) 114.7624 107.9580
1752 87.5765 114(3) 116.3299 107.9933
1753 87.6265 118(3) 119.0220 108.0286
1754 87.6765 128(4) 123.5752 108.0639
1755 87.7265 131(4) 130.8690 108.0992
1756 87.7765 141(4) 141.6049 108.1345
1757 87.8265 145(4) 155.8304 108.1698
1758 87.8765 172(4) 172.3230 108.2050
1759 87.9265 185(4) 188.2394 108.2403
1760 87.9765 190(4) 200.6031 108.2756
1761 88.0265 201(4) 208.6541 108.3109
1762 88.0765 215(5) 212.2651 108.3462
1763 88.1265 206(5) 211.1068 108.3815
1764 88.1765 206(5) 207.2979 108.4168
1765 88.2265 200(4) 203.9478 108.4520
1766 88.2765 195(4) 201.5595 108.4873
1767 88.3265 206(5) 197.3346 108.5226
1768 88.3765 192(4) 187.9698 108.5579
1769 88.4265 182(4) 174.3303 108.5932
1770 88.4765 160(4) 160.0984 108.6285
1771 88.5265 145(4) 147.8817 108.6638
1772 88.5765 144(4) 138.7909 108.6991
1773 88.6265 133(4) 133.2620 108.7343
1774 88.6765 124(4) 131.1446 108.7696
1775 88.7265 136(4) 131.6893 108.8049
1776 88.7765 130(4) 133.7088 108.8402
1777 88.8265 127(4) 135.9353 108.8755
1778 88.8765 139(4) 137.4448 108.9108
1779 88.9265 136(4) 137.4007 108.9461
1780 88.9765 134(4) 135.1882 108.9814
1781 89.0265 124(4) 130.9998 109.0166
1782 89.0765 123(4) 125.9136 109.0519
1783 89.1265 122(3) 121.1646 109.0872
1784 89.1765 115(3) 117.4631 109.1225
1785 89.2265 113(3) 114.9681 109.1578
1786 89.2765 114(3) 113.4839 109.1931
1787 89.3265 117(3) 112.6606 109.2284
1788 89.3765 112(3) 112.1788 109.2636
1789 89.4265 117(3) 111.8490 109.2989
1790 89.4765 112(3) 111.5850 109.3342
1791 89.5265 112(3) 111.3701 109.3695
1792 89.5765 113(3) 111.2014 109.4048
1793 89.6265 109(3) 111.0777 109.4401
1794 89.6765 113(3) 110.9940 109.4754
1795 89.7265 112(3) 110.9457 109.5107
1796 89.7765 115(3) 110.9319 109.5459
1797 89.8265 110(3) 110.9545 109.5812
1798 89.8765 109(3) 111.0011 109.6037
1799 89.9265 112(3) 110.9118 109.5834
1800 89.9765 110(3) 110.9614 109.5631
1801 90.0265 109(3) 111.0001 109.5427
1802 90.0765 106(3) 111.0242 109.5224
1803 90.1265 111(3) 111.0787 109.5021
1804 90.1765 115(3) 111.2208 109.4817
1805 90.2265 112(3) 111.4850 109.4614
1806 90.2765 112(3) 111.8569 109.4411
1807 90.3265 113(3) 112.2552 109.4207
1808 90.3765 115(3) 112.5243 109.4004
1809 90.4265 113(3) 112.5015 109.3801
1810 90.4765 117(3) 112.1818 109.3597
1811 90.5265 107(3) 111.7081 109.3394
1812 90.5765 112(3) 111.2381 109.3191
1813 90.6265 112(3) 110.8572 109.2987
1814 90.6765 113(3) 110.5919 109.2784
1815 90.7265 111(3) 110.4389 109.2581
1816 90.7765 113(3) 110.3836 109.2377
1817 90.8265 112(3) 110.4283 109.2174
1818 90.8765 110(3) 110.6195 109.1971
1819 90.9265 116(3) 111.1005 109.1767
1820 90.9765 114(3) 112.1383 109.1564
1821 91.0265 110(3) 114.0772 109.1361
1822 91.0765 114(3) 117.1404 109.1157
1823 91.1265 122(3) 121.1069 109.0954
1824 91.1765 121(3) 125.0541 109.0751
1825 91.2265 122(3) 127.3432 109.0547
1826 91.2765 121(3) 126.6258 109.0344
1827 91.3265 119(3) 123.3667 109.0141
1828 91.3765 111(3) 119.2594 108.9937
1829 91.4265 114(3) 115.6597 108.9734
1830 91.4765 117(3) 113.1972 108.9531
1831 91.5265 112(3) 111.8911 108.9327
1832 91.5765 114(3) 111.3792 108.9124
1833 91.6265 111(3) 111.3458 108.8921
1834 91.6765 112(3) 111.5148 108.8717
1835 91.7265 115(3) 111.6666 108.8514
1836 91.7765 110(3) 111.6556 108.8311
1837 91.8265 115(3) 111.4929 108.8107
1838 91.8765 110(3) 111.3282 108.7904
1839 91.9265 115(3) 111.3411 108.7701
1840 91.9765 115(3) 111.7111 108.7497
1841 92.0265 115(3) 112.6216 108.7294
1842 92.0765 111(3) 114.2197 108.7091
1843 92.1265 115(3) 116.5115 108.6887
1844 92.1765 119(3) 119.2321 108.6684
1845 92.2265 115(3) 121.7367 108.6481
1846 92.2765 122(3) 123.0104 108.6277
1847 92.3265 116(3) 122.2858 108.6074
1848 92.3765 121(3) 119.9642 108.5871
1849 92.4265 113(3) 117.1271 108.5667
1850 92.4765 113(3) 114.5794 108.5464
1851 92.5265 114(3) 112.6820 108.5261
1852 92.5765 113(3) 111.4496 108.5057
1853 92.6265 111(3) 110.7948 108.4854
1854 92.6765 112(3) 110.5502 108.4651
1855 92.7265 112(3) 110.6302 108.4447
1856 92.7765 110(3) 111.0495 108.4244
1857 92.8265 121(3) 111.8610 108.4041
1858 92.8765 121(3) 113.2160 108.3837
1859 92.9265 120(3) 115.0880 108.3634
1860 92.9765 115(3) 117.2866 108.3431
1861 93.0265 117(3) 119.2854 108.3227
1862 93.0765 115(3) 120.3239 108.3024
1863 93.1265 120(3) 119.7617 108.2821
1864 93.1765 118(3) 117.9136 108.2617
1865 93.2265 120(3) 115.6260 108.2414
1866 93.2765 118(3) 113.5474 108.2211
1867 93.3265 108(3) 111.9319 108.2007
1868 93.3765 101(3) 110.8156 108.1804
1869 93.4265 114(3) 110.1334 108.1601
1870 93.4765 111(3) 109.7611 108.1397
1871 93.5265 108(3) 109.6088 108.1194
1872 93.5765 110(3) 109.6136 108.0991
1873 93.6265 112(3) 109.7581 108.0787
1874 93.6765 108(3) 110.0628 108.0880
1875 93.7265 104(3) 110.5097 108.1255
1876 93.7765 114(3) 111.0032 108.1629
1877 93.8265 113(3) 111.4198 108.2004
1878 93.8765 111(3) 111.5845 108.2378
1879 93.9265 112(3) 111.4283 108.2753
1880 93.9765 109(3) 111.0756 108.3128
1881 94.0265 108(3) 110.7048 108.3502
1882 94.0765 112(3) 110.4421 108.3877
1883 94.1265 113(3) 110.3573 108.4252
1884 94.1765 113(3) 110.4851 108.4626
1885 94.2265 110(3) 110.8316 108.5001
1886 94.2765 106(3) 111.3625 108.5376
1887 94.3265 112(3) 111.9741 108.5750
1888 94.3765 108(3) 112.4869 108.6125
1889 94.4265 110(3) 112.7284 108.6500
1890 94.4765 111(3) 112.6638 108.6874
1891 94.5265 115(3) 112.4519 108.7249
1892 94.5765 113(3) 112.3311 108.7624
1893 94.6265 115(3) 112.4765 108.7998
1894 94.6765 110(3) 112.9886 108.8373
1895 94.7265 109(3) 113.9484 108.8747
1896 94.7765 120(3) 115.4030 108.9122
1897 94.8265 117(3) 117.2757 108.9497
1898 94.8765 116(3) 119.3629 108.9871
1899 94.9265 120(3) 121.2959 109.0246
1900 94.9765 116(3) 122.4595 109.0621
1901 95.0265 117(3) 122.5890 109.0995
1902 95.0765 124(4) 122.2215 109.1370
1903 95.1265 122(3) 122.0276 109.1745
1904 95.1765 119(3) 122.3617 109.2119
1905 95.2265 122(3) 123.1408 109.2494
1906 95.2765 124(4) 124.0627 109.2869
1907 95.3265 122(3) 125.2453 109.3243
1908 95.3765 128(4) 127.1226 109.3618
1909 95.4265 132(4) 129.6584 109.3993
1910 95.4765 121(3) 131.8605 109.4367
1911 95.5265 137(4) 132.0823 109.4742
1912 95.5765 130(4) 129.5824 109.5117
1913 95.6265 127(4) 125.5033 109.5491
1914 95.6765 125(4) 121.3992 109.5866
1915 95.7265 115(3) 118.1743 109.6240
1916 95.7765 113(3) 116.1053 109.6615
1917 95.8265 113(3) 115.0793 109.6990
1918 95.8765 116(3) 114.8549 109.7364
1919 95.9265 118(3) 115.2746 109.7739
1920 95.9765 128(4) 116.3754 109.8114
1921 96.0265 127(4) 118.4179 109.8488
1922 96.0765 126(4) 121.8328 109.8863
1923 96.1265 131(4) 127.0798 109.9238
1924 96.1765 142(4) 134.3917 109.9612
1925 96.2265 144(4) 143.4288 109.9987
1926 96.2765 148(4) 152.8288 110.0362
1927 96.3265 154(4) 159.7554 110.0736
1928 96.3765 154(4) 160.9038 110.1111
1929 96.4265 158(4) 155.8333 110.1486
1930 96.4765 150(4) 147.5755 110.1860
1931 96.5265 139(4) 139.3104 110.2235
1932 96.5765 138(4) 132.7557 110.2609
1933 96.6265 125(4) 128.5200 110.2984
1934 96.6765 117(3) 126.4291 110.3359
1935 96.7265 126(4) 125.8668 110.3733
1936 96.7765 125(4) 125.8879 110.4108
1937 96.8265 122(3) 125.7917 110.4483
1938 96.8765 124(4) 125.6510 110.4857
1939 96.9265 129(4) 125.8295 110.5232
1940 96.9765 125(4) 126.4038 110.5607
1941 97.0265 121(3) 127.4905 110.5981
1942 97.0765 126(4) 129.6422 110.6356
1943 97.1265 139(4) 134.0156 110.6731
1944 97.1765 144(4) 142.2281 110.7105
1945 97.2265 154(4) 155.6760 110.7480
1946 97.2765 177(4) 174.0849 110.7855
1947 97.3265 190(4) 193.6708 110.8229
1948 97.3765 206(5) 207.7208 110.8604
1949 97.4265 207(5) 211.5150 110.8979
1950 97.4765 198(4) 203.9367 110.9353
1951 97.5265 175(4) 186.9473 110.9728
1952 97.5765 159(4) 167.1232 111.0102
1953 97.6265 141(4) 150.5645 111.0477
1954 97.6765 135(4) 139.4788 111.0852
1955 97.7265 132(4) 133.0996 111.1226
1956 97.7765 132(4) 129.8448 111.1601
1957 97.8265 132(4) 128.6673 111.1976
1958 97.8765 134(4) 128.7788 111.2350
1959 97.9265 130(4) 129.1765 111.2725
1960 97.9765 126(4) 128.6635 111.3100
1961 98.0265 128(4) 126.8194 111.3474
1962 98.0765 120(3) 124.0747 111.3849
1963 98.1265 118(3) 121.1104 111.4224
1964 98.1765 114(3) 118.5002 111.4598
1965 98.2265 121(3) 116.5289 111.4973
1966 98.2765 120(3) 115.2104 111.5348
1967 98.3265 113(3) 114.4073 111.5722
1968 98.3765 120(3) 113.9431 111.6097
1969 98.4265 114(3) 113.6749 111.6471
1970 98.4765 116(3) 113.5172 111.6846
1971 98.5265 113(3) 113.4180 111.7221
1972 98.5765 114(3) 113.3662 111.7595
1973 98.6265 113(3) 113.3581 111.7970
1974 98.6765 114(3) 113.3909 111.8345
1975 98.7265 115(3) 113.5054 111.8719
1976 98.7765 115(3) 113.7619 111.9094
1977 98.8265 114(3) 114.2413 111.9469
1978 98.8765 110(3) 115.0169 111.9843
1979 98.9265 117(3) 116.0752 112.0218
1980 98.9765 112(3) 117.2444 112.0593
1981 99.0265 112(3) 118.1497 112.0967
1982 99.0765 113(3) 118.3026 112.1342
1983 99.1265 115(3) 117.6428 112.1717
1984 99.1765 116(3) 116.5751 112.2091
1985 99.2265 114(3) 115.5002 112.2318
1986 99.2765 111(3) 114.6366 112.2367
1987 99.3265 117(3) 114.0705 112.2416
1988 99.3765 114(3) 113.7463 112.2465
1989 99.4265 115(3) 113.5870 112.2515
1990 99.4765 106(3) 113.5240 112.2564
1991 99.5265 113(3) 113.5154 112.2613
1992 99.5765 115(3) 113.5428 112.2663
1993 99.6265 115(3) 113.6006 112.2712
1994 99.6765 110(3) 113.6895 112.2761
1995 99.7265 120(3) 113.8164 112.2811
1996 99.7765 116(3) 113.9923 112.2860
1997 99.8265 114(3) 114.2573 112.2909
1998 99.8765 117(3) 114.6829 112.2959
1999 99.9265 122(3) 115.3499 112.3008
2000 99.9765 123(4) 116.3021 112.3057
2001 100.0265 120(3) 117.4642 112.3106
2002 100.0765 121(3) 118.6628 112.3156
2003 100.1265 122(3) 119.5562 112.3205
2004 100.1765 111(3) 119.8810 112.3254
2005 100.2265 110(3) 119.8181 112.3304
2006 100.2765 118(4) 119.5841 112.3353
2007 100.3265 121(3) 119.2272 112.3402
2008 100.3765 116(3) 118.6992 112.3452
2009 100.4265 112(3) 118.0006 112.3501
2010 100.4765 121(3) 117.2827 112.3550
2011 100.5265 122(3) 116.7356 112.3600
2012 100.5765 116(3) 116.4698 112.3649
2013 100.6265 121(3) 116.5137 112.3698
2014 100.6765 109(3) 116.8647 112.3747
2015 100.7265 118(3) 117.5556 112.3797
2016 100.7765 118(3) 118.7326 112.3846
2017 100.8265 118(3) 120.7251 112.3895
2018 100.8765 123(4) 124.0347 112.3945
2019 100.9265 136(4) 129.1833 112.3994
2020 100.9765 138(4) 136.4245 112.4043
2021 101.0265 145(4) 145.3640 112.4093
2022 101.0765 157(4) 154.8320 112.4142
2023 101.1265 166(4) 163.2417 112.4191
2024 101.1765 178(4) 168.0887 112.4241
2025 101.2265 168(4) 166.7204 112.4290
2026 101.2765 162(4) 159.8933 112.4339
2027 101.3265 152(4) 151.7868 112.4389
2028 101.3765 151(4) 146.3146 112.4438
2029 101.4265 144(4) 146.0358 112.4487
2030 101.4765 153(4) 151.8357 112.4536
2031 101.5265 161(4) 163.1595 112.4586
2032 101.5765 182(4) 176.9923 112.4635
2033 101.6265 181(4) 187.7090 112.4684
2034 101.6765 186(4) 189.0590 112.4734
2035 101.7265 175(4) 180.6406 112.4783
2036 101.7765 174(4) 167.6631 112.4832
2037 101.8265 154(4) 155.8553 112.4882
2038 101.8765 154(4) 148.2528 112.4931
2039 101.9265 146(4) 145.5253 112.4980
2040 101.9765 144(4) 146.8057 112.5030
2041 102.0265 148(4) 150.5494 112.5079
2042 102.0765 159(4) 155.5683 112.5128
2043 102.1265 156(4) 161.1419 112.5178
2044 102.1765 163(4) 165.4669 112.5227
2045 102.2265 163(4) 165.3176 112.5276
2046 102.2765 162(4) 159.6488 112.5325
2047 102.3265 145(4) 151.1652 112.5375
2048 102.3765 142(4) 142.8983 112.5424
2049 102.4265 139(4) 135.9873 112.5473
2050 102.4765 128(4) 130.8120 112.5523
2051 102.5265 127(4) 127.4964 112.5572
2052 102.5765 132(4) 126.2026 112.5621
2053 102.6265 128(4) 127.3175 112.5671
2054 102.6765 137(4) 131.6075 112.5720
2055 102.7265 142(4) 139.8200 112.5769
2056 102.7765 154(4) 151.8764 112.5819
2057 102.8265 165(4) 165.7289 112.5868
2058 102.8765 175(4) 176.6873 112.5917
2059 102.9265 182(4) 179.4070 112.5966
2060 102.9765 165(4) 172.4839 112.6016
2061 103.0265 156(4) 159.7043 112.6065
2062 103.0765 134(4) 146.3394 112.6114
2063 103.1265 126(4) 135.4714 112.6164
2064 103.1765 121(3) 127.8338 112.6213
2065 103.2265 121(3) 122.9919 112.6262
2066 103.2765 117(3) 120.1125 112.6312
2067 103.3265 121(3) 118.4428 112.6361
2068 103.3765 121(4) 117.5026 112.6410
2069 103.4265 120(3) 116.9598 112.6460
2070 103.4765 116(3) 116.6826 112.6509
2071 103.5265 118(3) 116.6162 112.6558
2072 103.5765 120(3) 116.7954 112.6608
2073 103.6265 119(3) 117.3192 112.6649
2074 103.6765 118(3) 118.2500 112.6630
2075 103.7265 122(4) 119.5825 112.6612
2076 103.7765 127(4) 121.0702 112.6593
2077 103.8265 121(3) 122.2285 112.6574
2078 103.8765 124(4) 122.5788 112.6556
2079 103.9265 121(3) 122.2130 112.6537
2080 103.9765 125(4) 121.7511 112.6519
2081 104.0265 119(3) 121.6606 112.6500
2082 104.0765 123(4) 121.9831 112.6482
2083 104.1265 127(4) 122.3509 112.6463
2084 104.1765 123(4) 122.2673 112.6444
2085 104.2265 121(3) 121.6273 112.6426
2086 104.2765 118(3) 120.7625 112.6407
2087 104.3265 117(3) 120.0245 112.6389
2088 104.3765 122(3) 119.6238 112.6370
2089 104.4265 115(3) 119.6599 112.6352
2090 104.4765 122(3) 120.2065 112.6333
2091 104.5265 122(4) 121.3392 112.6314
2092 104.5765 130(4) 123.1683 112.6296
2093 104.6265 125(4) 125.8582 112.6277
2094 104.6765 127(4) 129.5405 112.6259
2095 104.7265 133(4) 134.1647 112.6240
2096 104.7765 140(4) 139.4767 112.6221
2097 104.8265 142(4) 145.2588 112.6203
2098 104.8765 147(4) 151.0562 112.6184
2099 104.9265 160(4) 155.4337 112.6166
2100 104.9765 151(4) 156.2219 112.6147
2101 105.0265 158(4) 152.6710 112.6129
2102 105.0765 146(4) 146.6967 112.6110
2103 105.1265 137(4) 140.8047 112.6091
2104 105.1765 140(4) 136.4576 112.6073
2105 105.2265 129(4) 134.0988 112.6054
2106 105.2765 133(4) 133.4467 112.6036
2107 105.3265 134(4) 133.7351 112.6017
2108 105.3765 130(4) 134.1850 112.5998
2109 105.4265 133(4) 134.7863 112.5980
2110 105.4765 131(4) 136.4128 112.5961
2111 105.5265 148(4) 140.4383 112.5943
2112 105.5765 160(4) 148.9147 112.5924
2113 105.6265 169(4) 164.7862 112.5906
2114 105.6765 195(4) 191.4129 112.5887
2115 105.7265 235(5) 230.8808 112.5868
2116 105.7765 286(5) 281.3499 112.5850
2117 105.8265 331(6) 334.1039 112.5831
2118 105.8765 367(6) 372.1837 112.5813
2119 105.9265 365(6) 380.3036 112.5794
2120 105.9765 365(6) 363.1387 112.5776
2121 106.0265 351(6) 341.0181 112.5757
2122 106.0765 326(6) 328.2689 112.5738
2123 106.1265 320(6) 324.9010 112.5720
2124 106.1765 300(5) 318.6420 112.5701
2125 106.2265 288(5) 297.0415 112.5683
2126 106.2765 256(5) 262.6084 112.5664
2127 106.3265 225(5) 226.5609 112.5645
2128 106.3765 198(4) 197.0554 112.5627
2129 106.4265 175(4) 177.9459 112.5608
2130 106.4765 177(4) 170.9620 112.5590
2131 106.5265 186(4) 177.3913 112.5571
2132 106.5765 202(4) 198.4493 112.5553
2133 106.6265 230(5) 233.7163 112.5534
2134 106.6765 263(5) 277.9975 112.5515
2135 106.7265 320(6) 318.1290 112.5497
2136 106.7765 340(6) 333.9524 112.5478
2137 106.8265 317(6) 315.2922 112.5460
2138 106.8765 278(5) 275.2138 112.5441
2139 106.9265 228(5) 231.7358 112.5423
2140 106.9765 191(4) 194.7969 112.5404
2141 107.0265 172(4) 167.7628 112.5385
2142 107.0765 153(4) 150.1417 112.5367
2143 107.1265 149(4) 139.4393 112.5348
2144 107.1765 140(4) 133.1337 112.5330
2145 107.2265 130(4) 129.5691 112.5311
2146 107.2765 131(4) 127.9255 112.5292
2147 107.3265 137(4) 128.0051 112.5274
2148 107.3765 138(4) 129.8549 112.5255
2149 107.4265 134(4) 133.4258 112.5237
2150 107.4765 137(4) 138.0979 112.5218
2151 107.5265 142(4) 142.3190 112.5200
2152 107.5765 148(4) 143.8037 112.5181
2153 107.6265 152(4) 141.6828 112.5162
2154 107.6765 146(4) 138.0276 112.5144
2155 107.7265 138(4) 135.6236 112.5125
2156 107.7765 140(4) 136.2233 112.5107
2157 107.8265 136(4) 140.2022 112.5088
2158 107.8765 141(4) 146.4193 112.5069
2159 107.9265 153(4) 152.1115 112.5051
2160 107.9765 153(4) 153.9478 112.5032
2161 108.0265 154(4) 150.9816 112.5014
2162 108.0765 151(4) 144.8933 112.4995
2163 108.1265 141(4) 137.6455 112.4977
2164 108.1765 131(4) 130.9143 112.4958
2165 108.2265 126(4) 125.6615 112.4939
2166 108.2765 119(3) 121.9898 112.4921
2167 108.3265 124(4) 119.5817 112.4902
2168 108.3765 123(4) 118.0537 112.4884
2169 108.4265 120(3) 117.0919 112.4865
2170 108.4765 118(3) 116.4767 112.4846
2171 108.5265 116(3) 116.0682 112.4828
2172 108.5765 117(3) 115.8104 112.5054
2173 108.6265 115(3) 115.6489 112.5394
2174 108.6765 110(3) 115.5557 112.5734
2175 108.7265 121(3) 115.5313 112.6074
2176 108.7765 117(3) 115.5911 112.6414
2177 108.8265 114(3) 115.7679 112.6754
2178 108.8765 114(3) 116.1004 112.7094
2179 108.9265 114(3) 116.6348 112.7435
2180 108.9765 115(3) 117.3902 112.7775
2181 109.0265 123(4) 118.3390 112.8115
2182 109.0765 114(3) 119.3424 112.8455
2183 109.1265 128(4) 120.1941 112.8795
2184 109.1765 118(3) 120.7075 112.9135
2185 109.2265 117(3) 120.7482 112.9475
2186 109.2765 118(3) 120.4058 112.9815
2187 109.3265 120(3) 120.1150 113.0155
2188 109.3765 121(3) 120.3901 113.0495
2189 109.4265 123(4) 121.5738 113.0835
2190 109.4765 123(4) 123.7128 113.1176
2191 109.5265 125(4) 126.4122 113.1516
2192 109.5765 120(3) 128.6998 113.1856
2193 109.6265 124(4) 129.2318 113.2196
2194 109.6765 123(4) 127.5977 113.2536
2195 109.7265 122(3) 124.8544 113.2876
2196 109.7765 120(3) 122.2118 113.3216
2197 109.8265 119(3) 120.2770 113.3556
2198 109.8765 118(3) 119.2192 113.3896
2199 109.9265 114(3) 118.7888 113.4236
2200 109.9765 121(3) 118.7582 113.4576
2201 110.0265 123(4) 119.0326 113.4916
2202 110.0765 121(3) 119.7023 113.5257
2203 110.1265 121(3) 120.8465 113.5597
2204 110.1765 124(4) 122.4051 113.5937
2205 110.2265 123(4) 124.0816 113.6277
2206 110.2765 124(4) 125.4653 113.6617
2207 110.3265 123(4) 126.1604 113.6957
2208 110.3765 123(4) 126.1012 113.7297
2209 110.4265 121(3) 125.0309 113.7637
2210 110.4765 125(4) 123.4827 113.7977
2211 110.5265 122(3) 122.2148 113.8317
2212 110.5765 128(4) 121.6705 113.8657
2213 110.6265 123(4) 121.7902 113.8997
2214 110.6765 123(4) 122.5496 113.9338
2215 110.7265 123(4) 123.5639 113.9678
2216 110.7765 125(4) 124.6416 114.0018
2217 110.8265 132(4) 125.7768 114.0358
2218 110.8765 131(4) 126.7576 114.0698
2219 110.9265 130(4) 127.5330 114.1038
2220 110.9765 121(3) 127.5839 114.1378
2221 111.0265 125(4) 126.9874 114.1718
2222 111.0765 135(4) 126.6159 114.2058
2223 111.1265 131(4) 127.2988 114.2398
2224 111.1765 129(4) 129.3161 114.2738
2225 111.2265 131(4) 132.2945 114.3079
2226 111.2765 141(4) 135.2780 114.3419
2227 111.3265 141(4) 137.5471 114.3759
2228 111.3765 132(4) 139.4344 114.4099
2229 111.4265 136(4) 141.3127 114.4439
2230 111.4765 137(4) 142.9756 114.4779
2231 111.5265 134(4) 144.0217 114.5119
2232 111.5765 138(4) 143.2858 114.5459
2233 111.6265 136(4) 139.6435 114.5799
2234 111.6765 131(4) 134.1313 114.6139
2235 111.7265 128(4) 128.7778 114.6479
2236 111.7765 122(3) 124.8596 114.6820
2237 111.8265 127(4) 122.7748 114.7160
2238 111.8765 121(3) 122.3274 114.7500
2239 111.9265 125(4) 123.0754 114.7840
2240 111.9765 124(4) 124.4895 114.8180
2241 112.0265 128(4) 125.9082 114.8520
2242 112.0765 118(3) 126.5577 114.8860
2243 112.1265 122(3) 125.9220 114.9200
2244 112.1765 128(4) 124.3115 114.9540
2245 112.2265 122(3) 122.4239 114.9880
2246 112.2765 120(3) 120.7387 115.0220
2247 112.3265 116(3) 119.4516 115.0561
2248 112.3765 120(3) 118.5814 115.0901
2249 112.4265 123(4) 118.0535 115.1241
2250 112.4765 120(3) 117.7754 115.1581
2251 112.5265 124(4) 117.6769 115.1921
2252 112.5765 121(3) 117.7359 115.2261
2253 112.6265 115(3) 117.9684 115.2601
2254 112.6765 129(4) 118.4196 115.2941
2255 112.7265 129(4) 119.1553 115.3281
2256 112.7765 125(4) 120.2402 115.3621
2257 112.8265 130(4) 121.7393 115.3961
2258 112.8765 125(4) 123.5880 115.4301
2259 112.9265 123(4) 125.6424 115.4642
2260 112.9765 132(4) 127.5099 115.4982
2261 113.0265 126(4) 128.8480 115.5322
2262 113.0765 131(4) 129.1429 115.5662
2263 113.1265 126(4) 128.0218 115.6002
2264 113.1765 121(3) 125.9358 115.6342
2265 113.2265 129(4) 123.6469 115.6682
2266 113.2765 120(3) 121.6559 115.7022
2267 113.3265 123(4) 120.1519 115.7362
2268 113.3765 110(3) 119.1367 115.7702
2269 113.4265 116(3) 118.5281 115.8042
2270 113.4765 121(3) 118.2363 115.8382
2271 113.5265 117(3) 118.2068 115.8723
2272 113.5765 114(3) 118.4265 115.9063
2273 113.6265 119(3) 118.8960 115.9403
2274 113.6765 118(3) 119.5686 115.9743
2275 113.7265 121(3) 120.3095 116.0083
2276 113.7765 120(3) 120.8524 116.0423
2277 113.8265 122(3) 120.9358 116.0763
2278 113.8765 119(3) 120.6193 116.1046
2279 113.9265 120(3) 120.2409 116.1302
2280 113.9765 123(4) 120.1057 116.1558
2281 114.0265 122(4) 120.3846 116.1814
2282 114.0765 115(3) 121.1837 116.2070
2283 114.1265 121(3) 122.5298 116.2325
2284 114.1765 120(3) 124.4991 116.2581
2285 114.2265 123(4) 127.3538 116.2837
2286 114.2765 127(4) 130.9255 116.3093
2287 114.3265 133(4) 135.0641 116.3349
2288 114.3765 138(4) 139.3413 116.3604
2289 114.4265 138(4) 142.7573 116.3860
2290 114.4765 148(4) 143.3891 116.4116
2291 114.5265 143(4) 140.2720 116.4372
2292 114.5765 139(4) 134.9791 116.4628
2293 114.6265 134(4) 129.5895 116.4883
2294 114.6765 124(4) 125.3235 116.5139
2295 114.7265 122(3) 122.5673 116.5395
2296 114.7765 121(3) 121.1171 116.5651
2297 114.8265 116(3) 120.5425 116.5906
2298 114.8765 119(3) 120.4513 116.6162
2299 114.9265 123(4) 120.5607 116.6418
2300 114.9765 124(4) 120.7265 116.6674
2301 115.0265 129(4) 121.0008 116.6930
2302 115.0765 126(4) 121.5676 116.7185
2303 115.1265 122(3) 122.6259 116.7441
2304 115.1765 128(4) 124.2924 116.7697
2305 115.2265 127(4) 126.5473 116.7953
2306 115.2765 132(4) 129.1385 116.8209
2307 115.3265 131(4) 131.5278 116.8464
2308 115.3765 133(4) 132.9343 116.8720
2309 115.4265 133(4) 133.3593 116.8976
2310 115.4765 130(4) 133.3840 116.9232
2311 115.5265 134(4) 133.3352 116.9487
2312 115.5765 137(4) 133.1693 116.9743
2313 115.6265 131(4) 132.5748 116.9999
2314 115.6765 140(4) 132.0587 117.0255
2315 115.7265 138(4) 132.2207 117.0511
2316 115.7765 131(4) 133.2630 117.0766
2317 115.8265 128(4) 135.0131 117.1022
2318 115.8765 132(4) 136.9002 117.1278
2319 115.9265 134(4) 138.3507 117.1534
2320 115.9765 128(4) 138.9150 117.1790
2321 116.0265 134(4) 138.1721 117.2045
2322 116.0765 128(4) 136.0727 117.2301
2323 116.1265 126(4) 133.2515 117.2557
2324 116.1765 128(4) 130.4823 117.2813
2325 116.2265 131(4) 128.1531 117.3069
2326 116.2765 121(3) 126.2670 117.3324
2327 116.3265 122(3) 124.6871 117.3580
2328 116.3765 121(3) 123.3778 117.3836
2329 116.4265 126(4) 122.3713 117.4092
2330 116.4765 117(3) 121.6635 117.4347
2331 116.5265 123(4) 121.2105 117.4603
2332 116.5765 118(3) 120.9520 117.4859
2333 116.6265 117(3) 120.8241 117.5055
2334 116.6765 124(4) 120.7554 117.4905
2335 116.7265 116(3) 120.7551 117.4755
2336 116.7765 125(4) 120.8137 117.4605
2337 116.8265 117(3) 120.9482 117.4455
2338 116.8765 125(4) 121.1406 117.4305
2339 116.9265 120(3) 121.4115 117.4155
2340 116.9765 119(3) 121.8087 117.4005
2341 117.0265 126(4) 122.3878 117.3855
2342 117.0765 127(4) 123.2853 117.3705
2343 117.1265 124(4) 124.8321 117.3555
2344 117.1765 125(4) 127.6937 117.3405
2345 117.2265 134(4) 132.8906 117.3255
2346 117.2765 138(4) 141.4743 117.3105
2347 117.3265 152(4) 153.7814 117.2955
2348 117.3765 170(4) 168.4180 117.2805
2349 117.4265 191(4) 181.4140 117.2655
2350 117.4765 200(4) 187.0152 117.2505
2351 117.5265 190(4) 182.0732 117.2355
2352 117.5765 180(4) 169.5396 117.2205
2353 117.6265 156(4) 155.2641 117.2055
2354 117.6765 147(4) 143.3870 117.1905
2355 117.7265 136(4) 135.4007 117.1755
2356 117.7765 136(4) 131.0756 117.1605
2357 117.8265 128(4) 129.4173 117.1455
2358 117.8765 137(4) 129.4397 117.1305
2359 117.9265 133(4) 130.4659 117.1155
2360 117.9765 130(4) 132.0609 117.1005
2361 118.0265 135(4) 133.8948 117.0855
2362 118.0765 143(4) 135.7188 117.0705
2363 118.1265 145(4) 137.6369 117.0555
2364 118.1765 145(4) 140.2611 117.0405
2365 118.2265 144(4) 144.3453 117.0255
2366 118.2765 150(4) 150.3822 117.0105
2367 118.3265 156(4) 158.4190 116.9955
2368 118.3765 164(4) 167.7702 116.9805
2369 118.4265 178(4) 176.7624 116.9655
2370 118.4765 183(4) 182.7599 116.9505
2371 118.5265 192(4) 183.3782 116.9355
2372 118.5765 188(4) 178.4852 116.9205
2373 118.6265 179(4) 170.5176 116.9055
2374 118.6765 166(4) 162.1973 116.8905
2375 118.7265 163(4) 155.3934 116.8755
2376 118.7765 150(4) 150.9855 116.8605
2377 118.8265 145(4) 149.4720 116.8455
2378 118.8765 149(4) 151.3261 116.8305
2379 118.9265 161(4) 157.1762 116.8155
2380 118.9765 165(4) 167.7567 116.8005
2381 119.0265 177(4) 183.6223 116.7855
2382 119.0765 206(5) 204.6920 116.7705
2383 119.1265 220(5) 229.5423 116.7555
2384 119.1765 251(5) 254.1309 116.7405
2385 119.2265 270(5) 270.7610 116.7255
2386 119.2765 284(5) 271.4693 116.7104
2387 119.3265 260(5) 256.1207 116.6954
2388 119.3765 245(5) 232.7829 116.6805
2389 119.4265 205(5) 209.8459 116.6655
2390 119.4765 185(4) 192.3228 116.6505
2391 119.5265 175(4) 183.2155 116.6355
2392 119.5765 171(4) 184.8361 116.6204
2393 119.6265 189(4) 199.5291 116.6054
2394 119.6765 227(5) 229.2970 116.5904
2395 119.7265 253(5) 273.8542 116.5754
2396 119.7765 321(6) 327.3804 116.5604
2397 119.8265 373(6) 376.3697 116.5454
2398 119.8765 394(6) 403.2894 116.5304
2399 119.9265 402(6) 394.5699 116.5154
2400 119.9765 354(6) 352.6500 116.5004
2401 120.0265 293(5) 296.5249 116.4854
2402 120.0765 242(5) 244.1857 116.4704
2403 120.1265 195(4) 203.9390 116.4554
2404 120.1765 170(4) 176.3775 116.4404
2405 120.2265 157(4) 158.7055 116.4254
2406 120.2765 145(4) 147.7486 116.4104
2407 120.3265 140(4) 140.9930 116.3954
2408 120.3765 136(4) 136.7868 116.3804
2409 120.4265 142(4) 134.1262 116.3654
2410 120.4765 140(4) 132.3898 116.3504
2411 120.5265 138(4) 131.2341 116.3354
2412 120.5765 133(4) 130.7563 116.4321
2413 120.6265 128(4) 131.0005 116.5405
2414 120.6765 129(4) 132.0540 116.6490
2415 120.7265 142(4) 133.8695 116.7574
2416 120.7765 141(4) 136.1680 116.8659
2417 120.8265 136(4) 138.3997 116.9744
2418 120.8765 141(4) 140.0529 117.0828
2419 120.9265 139(4) 141.2404 117.1913
2420 120.9765 142(4) 142.4839 117.2998
2421 121.0265 141(4) 143.8711 117.4082
2422 121.0765 140(4) 144.9542 117.5167
2423 121.1265 141(4) 145.1134 117.6252
2424 121.1765 144(4) 144.3055 117.7336
2425 121.2265 145(4) 143.1819 117.8421
2426 121.2765 143(4) 142.5883 117.9506
2427 121.3265 151(4) 143.0493 118.0590
2428 121.3765 149(4) 144.6636 118.1675
2429 121.4265 150(4) 146.9027 118.2760
2430 121.4765 151(4) 148.9220 118.3844
2431 121.5265 154(4) 150.0343 118.4929
2432 121.5765 155(4) 150.1527 118.6013
2433 121.6265 146(4) 149.2925 118.7098
2434 121.6765 144(4) 147.6835 118.8183
2435 121.7265 142(4) 145.6085 118.9267
2436 121.7765 145(4) 144.0305 119.0352
2437 121.8265 138(4) 143.8411 119.1437
2438 121.8765 140(4) 145.4227 119.2521
2439 121.9265 145(4) 148.5115 119.3606
2440 121.9765 150(4) 152.1898 119.4690
2441 122.0265 153(4) 155.1241 119.5775
2442 122.0765 149(4) 156.0783 119.6860
2443 122.1265 152(4) 154.7158 119.7944
2444 122.1765 152(4) 152.0816 119.9029
2445 122.2265 149(4) 149.7884 120.0114
2446 122.2765 151(4) 148.9765 120.1198
2447 122.3265 144(4) 149.9158 120.2283
2448 122.3765 145(4) 151.9369 120.3368
2449 122.4265 149(4) 153.6420 120.4452
2450 122.4765 152(4) 153.9819 120.5537
2451 122.5265 145(4) 153.4025 120.6622
2452 122.5765 150(4) 152.9230 120.7706
2453 122.6265 156(4) 152.8411 120.8791
2454 122.6765 153(4) 152.8664 120.9876
2455 122.7265 155(4) 152.4532 121.0960
2456 122.7765 159(4) 151.8481 121.2045
2457 122.8265 155(4) 151.5456 121.3130
2458 122.8765 151(4) 151.5847 121.4214
2459 122.9265 153(4) 151.3283 121.5299
2460 122.9765 149(4) 149.7332 121.6383
2461 123.0265 141(4) 146.3277 121.7468
2462 123.0765 143(4) 141.8984 121.8553
2463 123.1265 147(4) 137.5993 121.9637
2464 123.1765 132(4) 134.1273 122.0722
2465 123.2265 134(4) 131.7370 122.1807
2466 123.2765 127(4) 130.3379 122.2891
2467 123.3265 126(4) 129.6711 122.3976
2468 123.3765 121(3) 129.4499 122.5061
2469 123.4265 128(4) 129.4213 122.6145
2470 123.4765 129(4) 129.4345 122.7230
2471 123.5265 120(3) 129.4568 122.8315
2472 123.5765 128(4) 129.5266 122.9399
2473 123.6265 133(4) 129.6886 123.0484
2474 123.6765 124(4) 129.9774 123.1569
2475 123.7265 131(4) 130.3059 123.1613
2476 123.7765 127(4) 130.7834 123.1404
2477 123.8265 132(4) 131.4826 123.1195
2478 123.8765 129(4) 132.4859 123.0986
2479 123.9265 136(4) 133.9219 123.0777
2480 123.9765 134(4) 135.9688 123.0568
2481 124.0265 138(4) 138.8707 123.0359
2482 124.0765 146(4) 142.7499 123.0150
2483 124.1265 154(4) 147.9039 122.9941
2484 124.1765 153(4) 154.3665 122.9732
2485 124.2265 157(4) 162.1066 122.9523
2486 124.2765 168(4) 170.7351 122.9314
2487 124.3265 174(4) 178.9943 122.9105
2488 124.3765 182(4) 185.0003 122.8896
2489 124.4265 200(4) 186.4480 122.8687
2490 124.4765 190(4) 182.8049 122.8478
2491 124.5265 185(4) 176.0493 122.8269
2492 124.5765 176(4) 168.5325 122.8059
2493 124.6265 169(4) 161.9778 122.7850
2494 124.6765 155(4) 157.2446 122.7641
2495 124.7265 159(4) 154.8216 122.7432
2496 124.7765 160(4) 154.7854 122.7223
2497 124.8265 163(4) 157.0596 122.7014
2498 124.8765 168(4) 161.6682 122.6805
2499 124.9265 175(4) 168.9077 122.6596
2500 124.9765 182(4) 179.5965 122.6387
2501 125.0265 200(4) 194.8001 122.6178
2502 125.0765 221(5) 215.2091 122.5969
2503 125.1265 226(5) 240.2537 122.5760
2504 125.1765 269(5) 267.4194 122.5551
2505 125.2265 295(5) 292.1102 122.5342
2506 125.2765 319(6) 309.4052 122.5133
2507 125.3265 319(6) 315.4030 122.4924
2508 125.3765 328(6) 307.8505 122.4715
2509 125.4265 303(6) 288.9989 122.4506
2510 125.4765 279(5) 265.3156 122.4297
2511 125.5265 249(5) 242.5632 122.4088
2512 125.5765 225(5) 223.4380 122.3879
2513 125.6265 205(5) 207.5991 122.3670
2514 125.6765 183(4) 193.9632 122.3461
2515 125.7265 179(4) 181.9653 122.3252
2516 125.7765 165(4) 171.8023 122.3043
2517 125.8265 160(4) 163.7296 122.2834
2518 125.8765 154(4) 157.8080 122.2625
2519 125.9265 148(4) 154.0082 122.2416
2520 125.9765 154(4) 152.3080 122.2207
2521 126.0265 154(4) 152.7154 122.1998
2522 126.0765 157(4) 155.2699 122.1789
2523 126.1265 163(4) 160.0351 122.1580
2524 126.1765 163(4) 167.0851 122.1371
2525 126.2265 172(4) 176.4410 122.1162
2526 126.2765 189(4) 188.0135 122.0953
2527 126.3265 203(5) 201.9483 122.0743
2528 126.3765 223(5) 219.2602 122.0534
2529 126.4265 249(5) 241.4229 122.0325
2530 126.4765 265(5) 268.3123 122.0116
2531 126.5265 307(6) 296.8289 121.9907
2532 126.5765 324(6) 321.5345 121.9698
2533 126.6265 331(6) 336.2178 121.9489
2534 126.6765 337(6) 336.3768 121.9280
2535 126.7265 321(6) 324.6695 121.9071
2536 126.7765 311(6) 310.4546 121.8862
2537 126.8265 305(6) 301.7753 121.8653
2538 126.8765 304(6) 300.8359 121.8444
2539 126.9265 298(5) 303.4845 121.8235
2540 126.9765 302(5) 300.9171 121.8026
2541 127.0265 285(5) 285.9020 121.7817
2542 127.0765 263(5) 259.7749 121.7608
2543 127.1265 231(5) 229.5132 121.7399
2544 127.1765 205(5) 201.2465 121.7190
2545 127.2265 178(4) 178.3146 121.6981
2546 127.2765 162(4) 161.6692 121.6772
2547 127.3265 156(4) 150.6814 121.6563
2548 127.3765 146(4) 143.9442 121.6354
2549 127.4265 143(4) 140.0814 121.6145
2550 127.4765 140(4) 137.9491 121.5936
2551 127.5265 141(4) 136.8521 121.5727
2552 127.5765 142(4) 136.3443 121.5518
2553 127.6265 137(4) 136.1338 121.5309
2554 127.6765 136(4) 135.9590 121.5100
2555 127.7265 135(4) 135.5730 121.4891
2556 127.7765 135(4) 134.8389 121.4682
2557 127.8265 132(4) 133.8298 121.4473
2558 127.8765 123(4) 132.7645 121.4728
2559 127.9265 127(4) 131.7958 121.5422
2560 127.9765 130(4) 130.9688 121.6116
2561 128.0265 134(4) 130.3123 121.6810
2562 128.0765 131(4) 129.8425 121.7504
2563 128.1265 128(4) 129.5369 121.8198
2564 128.1765 120(3) 129.3720 121.8892
2565 128.2265 125(4) 129.3213 121.9587
2566 128.2765 131(4) 129.3653 122.0281
2567 128.3265 127(4) 129.4933 122.0975
2568 128.3765 126(4) 129.6869 122.1669
2569 128.4265 131(4) 129.9537 122.2363
2570 128.4765 125(4) 130.2861 122.3057
2571 128.5265 131(4) 130.6954 122.3751
2572 128.5765 126(4) 131.1925 122.4446
2573 128.6265 129(4) 131.7950 122.5140
2574 128.6765 139(4) 132.5576 122.5834
2575 128.7265 135(4) 133.4701 122.6528
2576 128.7765 129(4) 134.6308 122.7222
2577 128.8265 135(4) 136.1530 122.7916
2578 128.8765 145(4) 138.2116 122.8610
2579 128.9265 148(4) 141.0461 122.9304
2580 128.9765 149(4) 144.9821 122.9998
2581 129.0265 159(4) 150.3958 123.0693
2582 129.0765 155(4) 157.6707 123.1387
2583 129.1265 167(4) 167.1177 123.2081
2584 129.1765 173(4) 178.8498 123.2775
2585 129.2265 186(4) 192.6430 123.3469
2586 129.2765 206(5) 207.6526 123.4163
2587 129.3265 213(5) 222.1363 123.4857
2588 129.3765 237(5) 233.6451 123.5552
2589 129.4265 243(5) 240.3059 123.6246
2590 129.4765 241(5) 242.2858 123.6940
2591 129.5265 255(5) 241.3060 123.7634
2592 129.5765 237(5) 238.6923 123.8328
2593 129.6265 235(5) 234.3651 123.9022
2594 129.6765 226(5) 227.4941 123.9716
2595 129.7265 208(5) 217.9346 124.0410
2596 129.7765 206(5) 206.9031 124.1105
2597 129.8265 191(4) 196.2567 124.1799
2598 129.8765 187(4) 187.5169 124.2493
2599 129.9265 178(4) 181.5417 124.3187
2600 129.9765 166(4) 178.6299 124.3881
2601 130.0265 173(4) 178.7108 124.4575
2602 130.0765 184(4) 181.5206 124.5269
2603 130.1265 194(4) 186.6586 124.5964
2604 130.1765 199(4) 193.4635 124.6657
2605 130.2265 205(5) 200.6605 124.7352
2606 130.2765 210(5) 206.7018 124.8046
2607 130.3265 205(5) 210.1678 124.8740
2608 130.3765 205(5) 211.2177 124.9434
2609 130.4265 219(5) 211.4257 125.0128
2610 130.4765 215(5) 212.1809 125.0822
2611 130.5265 212(5) 213.4987 125.1516
2612 130.5765 211(5) 213.8647 125.2211
2613 130.6265 199(4) 211.0928 125.2905
2614 130.6765 198(4) 204.3615 125.3599
2615 130.7265 184(4) 195.1799 125.4293
2616 130.7765 180(4) 185.9781 125.4987
2617 130.8265 170(4) 178.9513 125.5681
2618 130.8765 179(4) 175.6238 125.6375
2619 130.9265 181(4) 177.3486 125.7069
2620 130.9765 191(4) 185.5240 125.7764
2621 131.0265 208(5) 201.5652 125.8458
2622 131.0765 249(5) 226.7652 125.9152
2623 131.1265 272(5) 261.2389 125.9846
2624 131.1765 310(6) 303.2814 126.0540
2625 131.2265 361(6) 348.4869 126.1234
2626 131.2765 385(6) 388.6964 126.1928
2627 131.3265 408(6) 412.6552 126.2622
2628 131.3765 408(6) 411.4614 126.3317
2629 131.4265 381(6) 386.5474 126.4011
2630 131.4765 349(6) 348.5661 126.4705
2631 131.5265 309(6) 308.7399 126.5399
2632 131.5765 272(5) 274.3325 126.6093
2633 131.6265 252(5) 248.2537 126.6787
2634 131.6765 232(5) 229.8525 126.7481
2635 131.7265 219(5) 216.3011 126.8175
2636 131.7765 208(5) 204.6904 126.8870
2637 131.8265 205(5) 193.6205 126.9564
2638 131.8765 195(4) 183.1167 127.0258
2639 131.9265 172(4) 173.5431 127.0952
2640 131.9765 173(4) 165.4902 127.1646
2641 132.0265 156(4) 159.0325 127.2340
2642 132.0765 146(4) 154.1857 127.3034
2643 132.1265 144(4) 150.8047 127.3728
2644 132.1765 137(4) 148.4494 127.2935
2645 132.2265 146(4) 146.8167 127.1499
2646 132.2765 142(4) 145.5728 127.0062
2647 132.3265 145(4) 144.3644 126.8626
2648 132.3765 137(4) 143.1850 126.7189
2649 132.4265 137(4) 142.0259 126.5753
2650 132.4765 139(4) 141.0063 126.4316
2651 132.5265 140(4) 140.2655 126.2880
2652 132.5765 139(4) 139.9377 126.1443
2653 132.6265 138(4) 140.1591 126.0007
2654 132.6765 149(4) 141.0908 125.8570
2655 132.7265 144(4) 142.9335 125.7134
2656 132.7765 151(4) 145.9121 125.5697
2657 132.8265 153(4) 150.2354 125.4261
2658 132.8765 167(4) 156.0136 125.2824
2659 132.9265 173(4) 163.1539 125.1388
2660 132.9765 175(4) 171.2962 124.9951
2661 133.0265 183(4) 179.7520 124.8515
2662 133.0765 193(4) 187.5036 124.7078
2663 133.1265 192(4) 193.2388 124.5642
2664 133.1765 198(4) 195.5023 124.4205
2665 133.2265 194(4) 193.2131 124.2769
2666 133.2765 183(4) 186.6028 124.1332
2667 133.3265 179(4) 177.3253 123.9896
2668 133.3765 166(4) 167.3717 123.8459
2669 133.4265 159(4) 158.2076 123.7023
2670 133.4765 145(4) 150.6065 123.5586
2671 133.5265 140(4) 144.7954 123.4150
2672 133.5765 141(4) 140.6044 123.2713
2673 133.6265 130(4) 137.6512 123.1277
2674 133.6765 127(4) 135.5448 122.9840
2675 133.7265 134(4) 133.9666 122.8404
2676 133.7765 136(4) 132.7366 122.6967
2677 133.8265 132(4) 131.7359 122.5531
2678 133.8765 126(4) 130.8918 122.4094
2679 133.9265 124(4) 130.1514 122.2658
2680 133.9765 129(4) 129.4809 122.1221
2681 134.0265 130(4) 128.8440 121.9785
2682 134.0765 125(4) 128.3371 121.9716
2683 134.1265 123(4) 127.8360 121.9912
2684 134.1765 123(4) 127.3348 122.0107
2685 134.2265 126(4) 126.8674 122.0303
2686 134.2765 126(4) 126.4607 122.0499
2687 134.3265 123(4) 126.1305 122.0695
2688 134.3765 126(4) 125.8794 122.0891
2689 134.4265 128(4) 125.7144 122.1086
2690 134.4765 130(4) 125.6160 122.1282
2691 134.5265 126(4) 125.5873 122.1478
2692 134.5765 122(3) 125.6258 122.1673
2693 134.6265 132(4) 125.7310 122.1869
2694 134.6765 129(4) 125.9031 122.2065
2695 134.7265 130(4) 126.1406 122.2261
2696 134.7765 131(4) 126.4623 122.2456
2697 134.8265 131(4) 126.8073 122.2652
2698 134.8765 131(4) 127.1817 122.2848
2699 134.9265 126(4) 127.5662 122.3044
2700 134.9765 130(4) 127.9619 122.3239
2701 135.0265 124(4) 128.4095 122.3435
2702 135.0765 136(4) 128.9799 122.3631
2703 135.1265 134(4) 129.7298 122.3827
2704 135.1765 132(4) 130.6767 122.4022
2705 135.2265 131(4) 131.7812 122.4218
2706 135.2765 136(4) 132.9523 122.4414
2707 135.3265 136(4) 134.0551 122.4610
2708 135.3765 137(4) 134.9087 122.4805
2709 135.4265 135(4) 135.3225 122.5001
2710 135.4765 139(4) 135.2187 122.5197
2711 135.5265 131(4) 134.7283 122.5392
2712 135.5765 129(4) 134.1132 122.5588
2713 135.6265 137(4) 133.6534 122.5784
2714 135.6765 130(4) 133.6097 122.5980
2715 135.7265 128(4) 134.0431 122.6175
2716 135.7765 139(4) 135.0073 122.6371
2717 135.8265 129(4) 136.6415 122.6567
2718 135.8765 143(4) 138.8197 122.6763
2719 135.9265 138(4) 141.4089 122.6958
2720 135.9765 143(4) 144.1897 122.7154
2721 136.0265 150(4) 146.8530 122.7350
2722 136.0765 151(4) 149.0336 122.7546
2723 136.1265 152(4) 150.5127 122.7741
2724 136.1765 152(4) 151.3133 122.7937
2725 136.2265 152(4) 151.8521 122.8133
2726 136.2765 148(4) 152.5124 122.8329
2727 136.3265 159(4) 153.6740 122.8524
2728 136.3765 157(4) 155.6454 122.8720
2729 136.4265 150(4) 158.6448 122.8916
2730 136.4765 161(4) 162.7255 122.9111
2731 136.5265 167(4) 167.6832 122.9307
2732 136.5765 166(4) 173.0916 122.9503
2733 136.6265 174(4) 178.2467 122.9699
2734 136.6765 194(4) 182.4018 122.9894
2735 136.7265 183(4) 184.6865 123.0090
2736 136.7765 198(4) 184.4067 123.0286
2737 136.8265 184(4) 181.3907 123.0482
2738 136.8765 187(4) 176.1716 123.0677
2739 136.9265 176(4) 169.7198 123.0873
2740 136.9765 166(4) 162.9938 123.1069
2741 137.0265 153(4) 156.7109 123.1265
2742 137.0765 146(4) 151.3180 123.1460
2743 137.1265 146(4) 147.0633 123.1656
2744 137.1765 140(4) 143.9990 123.1852
2745 137.2265 141(4) 142.3767 123.2048
2746 137.2765 142(4) 142.1300 123.2243
2747 137.3265 140(4) 143.2611 123.2439
2748 137.3765 144(4) 145.7347 123.2635
2749 137.4265 152(4) 149.4510 123.2831
2750 137.4765 158(4) 154.2128 123.3026
2751 137.5265 159(4) 159.6594 123.3222
2752 137.5765 160(4) 165.2317 123.3418
2753 137.6265 159(4) 170.1190 123.3614
2754 137.6765 164(4) 173.4024 123.3809
2755 137.7265 170(4) 174.3649 123.4005
2756 137.7765 169(4) 172.9582 123.4201
2757 137.8265 166(4) 169.7859 123.4397
2758 137.8765 165(4) 165.6586 123.4592
2759 137.9265 156(4) 161.2074 123.4788
2760 137.9765 156(4) 156.7853 123.4984
2761 138.0265 155(4) 152.5983 123.5179
2762 138.0765 146(4) 148.8431 123.5375
2763 138.1265 144(4) 145.7028 123.5571
2764 138.1765 147(4) 143.3786 123.5767
2765 138.2265 137(4) 141.9944 123.5962
2766 138.2765 145(4) 141.6317 123.6158
2767 138.3265 149(4) 142.3677 123.6354
2768 138.3765 138(4) 144.2242 123.6550
2769 138.4265 148(4) 147.2203 123.6745
2770 138.4765 144(4) 151.3886 123.6941
2771 138.5265 154(4) 156.5806 123.7137
2772 138.5765 160(4) 162.5434 123.7333
2773 138.6265 165(4) 168.9011 123.7528
2774 138.6765 175(4) 175.1761 123.7724
2775 138.7265 180(4) 180.7743 123.7920
2776 138.7765 179(4) 184.9428 123.8116
2777 138.8265 183(4) 186.8852 123.8311
2778 138.8765 186(4) 186.1213 123.8507
2779 138.9265 176(4) 182.8305 123.8703
2780 138.9765 183(4) 177.7278 123.8899
2781 139.0265 166(4) 171.6371 123.9094
2782 139.0765 164(4) 165.1903 123.9290
2783 139.1265 157(4) 158.8159 123.9486
2784 139.1765 150(4) 152.8374 123.9681
2785 139.2265 157(4) 147.5022 123.9877
2786 139.2765 144(4) 142.9636 124.0073
2787 139.3265 135(4) 139.2559 124.0269
2788 139.3765 130(4) 136.3191 124.0464
2789 139.4265 136(4) 134.0514 124.0660
2790 139.4765 131(4) 132.3242 124.0856
2791 139.5265 134(4) 131.0397 124.1052
2792 139.5765 131(4) 130.0868 124.1247
2793 139.6265 131(4) 129.4074 124.1443
2794 139.6765 135(4) 128.8955 124.1639
2795 139.7265 127(4) 128.5503 124.1835
2796 139.7765 129(4) 128.3256 124.2030
2797 139.8265 128(4) 128.2071 124.2226
2798 139.8765 131(4) 128.1885 124.2422
2799 139.9265 126(4) 128.2971 124.2618
2800 139.9765 128(4) 128.5391 124.2813
2801 140.0265 127(4) 128.9522 124.3009
2802 140.0765 130(4) 129.5878 124.3205
2803 140.1265 135(4) 130.4270 124.3401
2804 140.1765 128(4) 131.5005 124.3596
2805 140.2265 134(4) 132.7949 124.3792
2806 140.2765 133(4) 134.2620 124.3988
2807 140.3265 134(4) 135.8062 124.4184
2808 140.3765 134(4) 137.2910 124.4379
2809 140.4265 137(4) 138.5065 124.4575
2810 140.4765 142(4) 139.2597 124.4827
2811 140.5265 137(4) 139.4459 124.5513
2812 140.5765 144(4) 139.0148 124.6199
2813 140.6265 139(4) 138.0918 124.6885
2814 140.6765 132(4) 136.8331 124.7570
2815 140.7265 137(4) 135.4137 124.8256
2816 140.7765 138(4) 133.9816 124.8942
2817 140.8265 136(4) 132.6514 124.9628
2818 140.8765 127(4) 131.4980 125.0313
2819 140.9265 132(4) 130.5571 125.0999
2820 140.9765 132(4) 129.8305 125.1685
2821 141.0265 129(4) 129.2976 125.2370
2822 141.0765 128(4) 128.9236 125.3056
2823 141.1265 124(4) 128.6689 125.3742
2824 141.1765 125(4) 128.4975 125.4428
2825 141.2265 126(4) 128.3834 125.5113
2826 141.2765 138(4) 128.3131 125.5799
2827 141.3265 126(4) 128.2808 125.6485
2828 141.3765 127(4) 128.2916 125.7171
2829 141.4265 127(4) 128.3467 125.7856
2830 141.4765 129(4) 128.4492 125.8542
2831 141.5265 134(4) 128.5968 125.9228
2832 141.5765 131(4) 128.7953 125.9913
2833 141.6265 129(4) 129.0362 126.0599
2834 141.6765 126(4) 129.3106 126.1285
2835 141.7265 128(4) 129.6056 126.1971
2836 141.7765 134(4) 129.9047 126.2656
2837 141.8265 125(4) 130.1919 126.3342
2838 141.8765 136(4) 130.4531 126.4028
2839 141.9265 126(4) 130.6737 126.4713
2840 141.9765 127(4) 130.8344 126.5399
2841 142.0265 136(4) 130.9122 126.6085
2842 142.0765 126(4) 130.8916 126.6771
2843 142.1265 130(4) 130.7798 126.7456
2844 142.1765 132(4) 130.6010 126.8142
2845 142.2265 123(4) 130.3884 126.8828
2846 142.2765 125(4) 130.1717 126.9513
2847 142.3265 128(4) 129.9732 127.0199
2848 142.3765 129(4) 129.8078 127.0885
2849 142.4265 133(4) 129.6845 127.1571
2850 142.4765 127(4) 129.6071 127.2256
2851 142.5265 125(4) 129.5750 127.2942
2852 142.5765 130(4) 129.5848 127.3628
2853 142.6265 127(4) 129.6320 127.4314
2854 142.6765 132(4) 129.7123 127.4999
2855 142.7265 133(4) 129.8227 127.5685
2856 142.7765 129(4) 129.9620 127.6371
2857 142.8265 135(4) 130.1309 127.7056
2858 142.8765 129(4) 130.3320 127.7742
2859 142.9265 131(4) 130.5693 127.8428
2860 142.9765 133(4) 130.8480 127.9113
2861 143.0265 127(4) 131.1734 127.9799
2862 143.0765 135(4) 131.5508 128.0485
2863 143.1265 136(4) 131.9843 128.1171
2864 143.1765 135(4) 132.4705 128.1856
2865 143.2265 139(4) 133.0197 128.2542
2866 143.2765 135(4) 133.6225 128.3228
2867 143.3265 134(4) 134.2583 128.3914
2868 143.3765 141(4) 134.9422 128.4599
2869 143.4265 140(4) 135.6493 128.5285
2870 143.4765 134(4) 136.3710 128.5971
2871 143.5265 138(4) 137.1034 128.6656
2872 143.5765 138(4) 137.8487 128.7342
2873 143.6265 143(4) 138.6154 128.8028
2874 143.6765 152(4) 139.4224 128.8714
2875 143.7265 143(4) 140.3018 128.9399
2876 143.7765 148(4) 141.3062 129.0085
2877 143.8265 147(4) 142.4855 129.0771
2878 143.8765 153(4) 143.8833 129.1457
2879 143.9265 140(4) 145.5214 129.2142
2880 143.9765 151(4) 147.3945 129.2828
2881 144.0265 144(4) 149.4608 129.3514
2882 144.0765 150(4) 151.6432 129.4199
2883 144.1265 153(4) 153.8327 129.4885
2884 144.1765 163(4) 155.8998 129.5571
2885 144.2265 160(4) 157.7100 129.6256
2886 144.2765 149(4) 159.0965 129.6942
2887 144.3265 164(4) 159.9962 129.7628
2888 144.3765 163(4) 160.2743 129.8314
2889 144.4265 164(4) 159.8906 129.8999
2890 144.4765 156(4) 158.8968 129.9685
2891 144.5265 153(4) 157.4290 130.0371
2892 144.5765 161(4) 155.6643 130.1057
2893 144.6265 157(4) 153.7714 130.1742
2894 144.6765 152(4) 151.8607 130.2428
2895 144.7265 155(4) 150.0721 130.3114
2896 144.7765 148(4) 148.4474 130.3799
2897 144.8265 142(4) 147.0300 130.4485
2898 144.8765 144(4) 145.8385 130.5171
2899 144.9265 144(4) 144.8851 130.5856
2900 144.9765 140(4) 144.1464 130.6542
2901 145.0265 138(4) 143.5906 130.7228
2902 145.0765 137(4) 143.1814 130.7914
2903 145.1265 138(4) 142.8893 130.8600
2904 145.1765 148(4) 142.6888 130.9193
2905 145.2265 138(4) 142.5823 130.9751
2906 145.2765 143(4) 142.5807 131.0310
2907 145.3265 137(4) 142.7004 131.0869
2908 145.3765 139(4) 142.9671 131.1427
2909 145.4265 144(4) 143.4157 131.1986
2910 145.4765 145(4) 144.0886 131.2544
2911 145.5265 138(4) 145.0302 131.3103
2912 145.5765 149(4) 146.2805 131.3662
2913 145.6265 152(4) 147.8696 131.4220
2914 145.6765 150(4) 149.8138 131.4779
2915 145.7265 146(4) 152.1163 131.5338
2916 145.7765 162(4) 154.7635 131.5896
2917 145.8265 164(4) 157.7237 131.6455
2918 145.8765 171(4) 160.9405 131.7014
2919 145.9265 165(4) 164.3250 131.7572
2920 145.9765 166(4) 167.7549 131.8131
2921 146.0265 175(4) 171.0685 131.8689
2922 146.0765 181(4) 174.0833 131.9248
2923 146.1265 178(4) 176.6273 131.9807
2924 146.1765 175(4) 178.5773 132.0365
2925 146.2265 182(4) 179.8739 132.0924
2926 146.2765 180(4) 180.4971 132.1482
2927 146.3265 182(4) 180.4324 132.2041
2928 146.3765 172(4) 179.6933 132.2600
2929 146.4265 172(4) 178.3097 132.3158
2930 146.4765 175(4) 176.3538 132.3717
2931 146.5265 173(4) 173.9986 132.4276
2932 146.5765 166(4) 171.3758 132.4834
2933 146.6265 161(4) 168.6214 132.5393
2934 146.6765 169(4) 165.8482 132.5951
2935 146.7265 161(4) 163.1386 132.6510
2936 146.7765 155(4) 160.5418 132.7069
2937 146.8265 157(4) 158.0887 132.7627
2938 146.8765 165(4) 155.7769 132.8186
2939 146.9265 152(4) 153.6003 132.8745
2940 146.9765 154(4) 151.5741 132.9303
2941 147.0265 156(4) 149.7043 132.9862
2942 147.0765 148(4) 147.9973 133.0421
2943 147.1265 147(4) 146.4505 133.0979
2944 147.1765 143(4) 145.0553 133.1538
2945 147.2265 143(4) 143.8019 133.2096
2946 147.2765 143(4) 142.6865 133.2655
2947 147.3265 138(4) 141.7089 133.3214
2948 147.3765 141(4) 140.8699 133.3772
2949 147.4265 139(4) 140.1699 133.4331
2950 147.4765 134(4) 139.6059 133.4890
2951 147.5265 142(4) 139.1750 133.5448
2952 147.5765 136(4) 138.8740 133.6007
2953 147.6265 138(4) 138.7007 133.6565
2954 147.6765 141(4) 138.6537 133.7124
2955 147.7265 141(4) 138.7325 133.7683
2956 147.7765 144(4) 138.9362 133.8241
2957 147.8265 141(4) 139.2623 133.8800
2958 147.8765 144(4) 139.7051 133.9359
2959 147.9265 145(4) 140.2544 133.9917
2960 147.9765 135(4) 140.8940 134.0476
2961 148.0265 138(4) 141.5999 134.1034
2962 148.0765 137(4) 142.3341 134.1593
2963 148.1265 145(4) 143.0672 134.2152
2964 148.1765 143(4) 143.7428 134.2710
2965 148.2265 144(4) 144.3049 134.3269
2966 148.2765 153(4) 144.6963 134.3828
2967 148.3265 146(4) 144.8759 134.4386
2968 148.3765 145(4) 144.8257 134.4945
2969 148.4265 145(4) 144.5608 134.5503
2970 148.4765 139(4) 144.1233 134.6062
2971 148.5265 148(4) 143.5697 134.6621
2972 148.5765 146(4) 142.9577 134.7179
2973 148.6265 135(4) 142.3390 134.7738
2974 148.6765 144(4) 141.7559 134.8297
2975 148.7265 144(4) 141.2404 134.8855
2976 148.7765 145(4) 140.8154 134.9414
2977 148.8265 138(4) 140.4948 134.9973
2978 148.8765 146(4) 140.2843 135.0531
2979 148.9265 141(4) 140.1831 135.1090
2980 148.9765 134(4) 140.1845 135.1648
2981 149.0265 148(4) 140.2773 135.2207
2982 149.0765 141(4) 140.4475 135.2766
2983 149.1265 144(4) 140.6785 135.3324
2984 149.1765 139(4) 140.9527 135.3883
2985 149.2265 141(4) 141.2515 135.4441
2986 149.2765 142(4) 141.5558 135.5000
2987 149.3265 142(4) 141.8460 135.5559
2988 149.3765 137(4) 142.1027 135.6117
2989 149.4265 144(4) 142.3085 135.6676
2990 149.4765 141(4) 142.4505 135.7234
2991 149.5265 139(4) 142.5214 135.7793
2992 149.5765 139(4) 142.5326 135.8475
2993 149.6265 139(4) 142.4957 135.9351
2994 149.6765 137(4) 142.4005 136.0226
2995 149.7265 143(4) 142.2595 136.1102
2996 149.7765 147(4) 142.0880 136.1977
2997 149.8265 137(4) 141.9022 136.2853
2998 149.8765 135(4) 141.7167 136.3728
2999 149.9265 145(4) 141.5442 136.4604
3000 149.9765 140(4) 141.3945 136.5479
3001 150.0265 144(4) 141.2741 136.6355
3002 150.0765 142(4) 141.1894 136.7230
3003 150.1265 142(4) 141.1423 136.8106
3004 150.1765 144(4) 141.1344 136.8981
3005 150.2265 142(4) 141.1656 136.9857
3006 150.2765 144(4) 141.2354 137.0732
3007 150.3265 149(4) 141.3431 137.1608
3008 150.3765 135(4) 141.4883 137.2483
3009 150.4265 137(4) 141.6708 137.3358
3010 150.4765 147(4) 141.8916 137.4234
3011 150.5265 144(4) 142.1524 137.5110
3012 150.5765 146(4) 142.4558 137.5985
3013 150.6265 134(4) 142.8053 137.6861
3014 150.6765 144(4) 143.2046 137.7736
3015 150.7265 151(4) 143.6585 137.8611
3016 150.7765 143(4) 144.1711 137.9487
3017 150.8265 146(4) 144.7467 138.0362
3018 150.8765 144(4) 145.3888 138.1238
3019 150.9265 149(4) 146.1002 138.2113
3020 150.9765 144(4) 146.8832 138.2989
3021 151.0265 155(4) 147.7385 138.3864
3022 151.0765 148(4) 148.6658 138.4740
3023 151.1265 149(4) 149.6638 138.5615
3024 151.1765 150(4) 150.7307 138.6491
3025 151.2265 158(4) 151.8669 138.7366
3026 151.2765 151(5) 153.0750 138.8242
3027 151.3265 157(5) 154.3621 138.9117
3028 151.3765 151(5) 155.7392 138.9993
3029 151.4265 166(5) 157.2183 139.0868
3030 151.4765 155(5) 158.8114 139.1744
3031 151.5265 155(5) 160.5248 139.2619
3032 151.5765 166(5) 162.3590 139.3495
3033 151.6265 156(5) 164.3075 139.4370
3034 151.6765 174(5) 166.3555 139.5245
3035 151.7265 161(5) 168.4822 139.6121
3036 151.7765 172(5) 170.6575 139.6996
3037 151.8265 188(5) 172.8455 139.7872
3038 151.8765 175(5) 175.0063 139.8748
3039 151.9265 174(5) 177.1005 139.9623
3040 151.9765 177(5) 179.0986 140.0498
3041 152.0265 184(5) 180.9844 140.1374
3042 152.0765 186(5) 182.7635 140.2249
3043 152.1265 191(5) 184.4645 140.3125
3044 152.1765 188(5) 186.1342 140.4000
3045 152.2265 191(5) 187.8307 140.4876
3046 152.2765 190(5) 189.6096 140.5751
3047 152.3265 196(5) 191.5145 140.6627
3048 152.3765 192(5) 193.5685 140.7502
3049 152.4265 187(5) 195.7673 140.8378
3050 152.4765 197(5) 198.0795 140.9253
3051 152.5265 187(6) 200.4436 141.0129
3052 152.5765 206(6) 202.7751 141.1004
3053 152.6265 208(6) 204.9774 141.1880
3054 152.6765 209(6) 206.9582 141.2755
3055 152.7265 216(6) 208.6475 141.3631
3056 152.7765 207(6) 210.0079 141.4506
3057 152.8265 212(6) 211.0382 141.5382
3058 152.8765 212(6) 211.7624 141.6257
3059 152.9265 214(6) 212.2129 141.7132
3060 152.9765 224(6) 212.4139 141.8008
3061 153.0265 214(6) 212.3713 141.8884
3062 153.0765 217(6) 212.0720 141.9759
3063 153.1265 215(6) 211.4919 142.0634
3064 153.1765 196(6) 210.6091 142.1510
3065 153.2265 209(6) 209.4177 142.2385
3066 153.2765 222(6) 207.9391 142.3261
3067 153.3265 215(6) 206.2231 142.4136
3068 153.3765 202(6) 204.3412 142.5012
3069 153.4265 198(6) 202.3744 142.5887
3070 153.4765 213(6) 200.3964 142.6763
3071 153.5265 203(6) 198.4684 142.7638
3072 153.5765 192(6) 196.6290 142.8514
3073 153.6265 199(6) 194.8918 142.9389
3074 153.6765 187(6) 193.2578 143.0265
3075 153.7265 184(6) 191.7035 143.1140
3076 153.7765 190(6) 190.2003 143.2016
3077 153.8265 188(6) 188.7186 143.2891
3078 153.8765 188(6) 187.2366 143.3767
3079 153.9265 186(6) 185.7427 143.4642
3080 153.9765 185(6) 184.2556 143.5518
3081 154.0265 173(6) 182.7991 143.6393
3082 154.0765 171(6) 181.4148 143.7269
3083 154.1265 178(6) 180.1524 143.8144
3084 154.1765 176(6) 179.0648 143.9019
3085 154.2265 178(6) 178.2025 143.9895
3086 154.2765 173(6) 177.6130 144.0770
3087 154.3265 181(6) 177.3383 144.1646
3088 154.3765 172(6) 177.3995 144.2522
3089 154.4265 170(6) 177.8570 144.3397
3090 154.4765 167(6) 178.7203 144.4272
3091 154.5265 177(6) 180.0074 144.5148
3092 154.5765 177(6) 181.7299 144.6023
3093 154.6265 179(6) 183.8916 144.6899
3094 154.6765 194(6) 186.4871 144.7774
3095 154.7265 200(6) 189.5034 144.8650
3096 154.7765 193(6) 192.9386 144.9772
3097 154.8265 206(6) 196.7319 145.0920
3098 154.8765 211(7) 200.8288 145.2068
3099 154.9265 204(6) 205.1640 145.3215
3100 154.9765 221(7) 209.6664 145.4363
3101 155.0265 234(8) 214.2639 145.5511
3102 155.0765 216(7) 218.8867 145.6659
3103 155.1265 216(7) 223.4784 145.7807
3104 155.1765 226(8) 227.9976 145.8954
3105 155.2265 228(8) 232.4172 146.0102
3106 155.2765 242(8) 236.7085 146.1250
3107 155.3265 239(8) 240.8368 146.2398
3108 155.3765 247(8) 244.7526 146.3546
3109 155.4265 244(8) 248.3877 146.4693
3110 155.4765 259(8) 251.6679 146.5841
3111 155.5265 262(8) 254.5117 146.6989
3112 155.5765 257(8) 256.8509 146.8137
3113 155.6265 269(8) 258.6383 146.9285
3114 155.6765 265(8) 259.8500 147.0432
3115 155.7265 272(8) 260.4813 147.1580
3116 155.7765 253(8) 260.5333 147.2728
3117 155.8265 253(8) 260.0029 147.3876
3118 155.8765 268(8) 258.8751 147.5024
3119 155.9265 263(8) 257.1252 147.6172
3120 155.9765 253(8) 254.7053 147.7319
3121 156.0265 250(8) 251.6427 147.8467
3122 156.0765 258(8) 247.9313 147.9615
3123 156.1265 246(8) 243.6228 148.0763
3124 156.1765 227(8) 238.8084 148.1911
3125 156.2265 232(8) 233.6038 148.3058
3126 156.2765 223(9) 228.1440 148.4206
3127 156.3265 227(9) 222.5633 148.5354
3128 156.3765 230(9) 216.9830 148.6502
3129 156.4265 209(8) 211.5149 148.7650
3130 156.4765 203(8) 206.2396 148.8798
3131 156.5265 202(8) 201.2250 148.9946
3132 156.5765 180(8) 196.5197 149.1093
3133 156.6265 185(8) 192.1566 149.2241
3134 156.6765 180(8) 188.1577 149.3389
3135 156.7265 173(8) 184.5310 149.4537
3136 156.7765 179(8) 181.2785 149.5685
3137 156.8265 170(8) 178.4004 149.6832
3138 156.8765 165(7) 175.8857 149.7980
3139 156.9265 165(7) 173.7209 149.9128
3140 156.9765 154(7) 171.8869 150.0276
3141 157.0265 174(8) 170.3631 150.1424
3142 157.0765 150(7) 169.1257 150.2572
3143 157.1265 173(8) 168.1495 150.3719
3144 157.1765 172(8) 167.4084 150.4867
3145 157.2265 172(8) 166.8757 150.6015
3146 157.2765 157(7) 166.5254 150.7163
3147 157.3265 162(7) 166.3322 150.8311
3148 157.3765 173(8) 166.2711 150.9458
3149 157.4265 163(7) 166.3186 151.0606
3150 157.4765 173(8) 166.4520 151.1754
3151 157.5265 168(9) 166.6505 151.2902
3152 157.5765 168(9) 166.8948 151.4050
3153 157.6265 168(9) 167.1620 151.5198
3154 157.6765 177(9) 167.4503 151.6345
3155 157.7265 159(9) 167.7415 151.7493
3156 157.7765 168(9) 168.0248 151.8641
3157 157.8265 158(9) 168.2908 151.9789
3158 157.8765 175(9) 168.5302 152.0937
3159 157.9265 190(10) 168.9216 152.3965
3160 157.9765 168(9) 169.3127 152.7447
3161 158.0265 153(9) 169.6487 153.0929
3162 158.0765 185(10) 169.9211 153.4411
3163 158.1265 174(9) 170.1237 153.7893
3164 158.1765 168(9) 170.2534 154.1374
3165 158.2265 167(9) 170.3111 154.4856
3166 158.2765 168(9) 170.3019 154.8338
3167 158.3265 159(9) 170.2350 155.1819
3168 158.3765 172(9) 170.1221 155.5302
3169 158.4265 181(10) 169.9736 155.8782
3170 158.4765 169(9) 169.8101 156.2264
3171 158.5265 159(9) 169.6419 156.5746
3172 158.5765 182(10) 169.4815 156.9228
3173 158.6265 178(9) 169.3398 157.2710
3174 158.6765 161(9) 169.2262 157.6191
3175 158.7265 163(9) 169.1481 157.9673
3176 158.7765 190(14) 169.1114 158.3155
3177 158.8265 163(13) 169.1205 158.6637
3178 158.8765 160(13) 169.1779 159.0119
3179 158.9265 156(12) 169.2850 159.3599
3180 158.9765 147(12) 169.4416 159.7081
3181 159.0265 172(13) 169.6463 160.0563
3182 159.0765 171(13) 169.8966 160.4045
3183 159.1265 181(13) 170.1888 160.7527
3184 159.1765 157(13) 170.5182 161.1008
3185 159.2265 200(14) 170.8802 161.4490
3186 159.2765 154(12) 171.2688 161.7972
3187 159.3265 175(13) 171.6786 162.1454
3188 159.3765 171(13) 172.1040 162.4936
3189 159.4265 161(13) 172.5400 162.8416
3190 159.4765 140(12) 172.9829 163.1898
3191 159.5265 190(14) 173.4296 163.5380
3192 159.5765 181(13) 173.8785 163.8862
3193 159.6265 171(13) 174.3288 164.2344
3194 159.6765 183(14) 174.7807 164.5825
3195 159.7265 175(13) 175.2355 164.9307
3196 159.7765 168(13) 175.6943 165.2789
3197 159.8265 176(13) 175.8295 165.2977
3198 159.8765 186(14) 175.9534 165.2977
3199 159.9265 173(13) 176.0866 165.2977
3200 159.9765 149(12) 176.2310 165.2977
loop_
_refln_index_h
_refln_index_k
_refln_index_l
_refln_mult
_pd_refln_phase_id
_refln_observed_status
_refln_F_squared_meas
_refln_F_squared_calc
_refln_phase_calc
_refln_d_spacing
1 0 0 2 1 o 0.0869 0.0242 336.51 5.52677
0 1 0 2 1 o 0.0038 0.0038 180.00 5.21029
0 1 1 4 1 o 0.0020 0.0088 0.84 4.30621
0 0 2 2 1 o 1.3172 1.1262 3.20 3.82459
1 1 0 4 1 o 1.3443 1.1614 336.87 3.79118
-1 1 1 4 1 o 0.0316 0.0085 201.30 3.47533
1 1 1 4 1 o 0.0241 0.0263 212.57 3.32345
-1 0 2 2 1 o 0.0341 0.1729 132.55 3.27276
0 1 2 4 1 o 0.7812 0.7077 63.79 3.08312
1 0 2 2 1 o 0.8295 0.6942 71.14 3.03109
-1 1 2 4 1 o 16.5759 16.8694 350.71 2.77138
2 0 0 2 1 o 16.8884 17.3162 359.92 2.76338
1 1 2 4 1 o 6.1183 6.3112 340.71 2.62000
0 2 0 2 1 o 5.8064 5.9648 0.00 2.60514
0 2 1 4 1 o 0.0836 0.0764 284.14 2.46604
2 1 0 4 1 o 0.3804 0.5944 107.02 2.44128
-2 1 1 4 1 o 0.0622 0.0510 110.22 2.37597
1 2 0 4 1 o 0.0160 0.0146 294.13 2.35647
-2 0 2 2 1 o 40.5470 40.5048 177.12 2.33229
0 1 3 4 1 o 26.6385 26.2747 348.24 2.29021
2 1 1 4 1 o 25.5009 24.9648 165.10 2.27849
-1 2 1 4 1 o 29.1064 28.4272 174.14 2.27446
1 2 1 4 1 o 0.0378 0.0459 174.37 2.23025
-1 1 3 4 1 o 0.1198 0.1400 268.74 2.17297
2 0 2 2 1 o 11.7093 12.2582 169.42 2.15767
0 2 2 4 1 o 8.8827 9.3142 176.51 2.15310
-2 1 2 4 1 o 1.1701 1.1626 37.01 2.12875
1 1 3 4 1 o 0.0247 0.0243 289.16 2.06282
-1 2 2 4 1 o 0.2180 0.1565 129.85 2.03824
2 1 2 4 1 o 0.4773 0.4281 58.00 1.99349
1 2 2 4 1 o 0.7388 0.7169 73.16 1.97570
0 0 4 2 1 o 60.3316 59.8123 335.49 1.91230
2 2 0 4 1 o 64.9784 65.5271 356.70 1.89559
-2 2 1 4 1 o 0.2074 0.2107 260.23 1.86452
-1 0 4 2 1 o 2.9839 3.0067 39.97 1.85467
3 0 0 2 1 o 0.1425 0.2425 343.94 1.84226
-2 1 3 4 1 o 0.0184 0.0173 83.18 1.83066
0 2 3 4 1 o 0.0819 0.0775 135.09 1.82221
2 2 1 4 1 o 0.0401 0.0325 323.66 1.81629
0 1 4 4 1 o 1.1919 1.1335 87.70 1.79520
1 0 4 2 1 o 1.7976 1.9650 42.68 1.76315
-1 2 3 4 1 o 0.0730 0.0790 301.10 1.76147
-1 1 4 4 1 o 10.0999 10.2659 344.13 1.74727
-2 2 2 4 1 o 11.8707 12.0970 2.37 1.73767
3 1 0 4 1 o 10.3255 10.5579 346.31 1.73688
0 3 0 2 1 o 0.0020 0.0021 180.00 1.73676
-3 1 1 4 1 o 0.0163 0.0153 80.70 1.72270
-3 0 2 2 1 o 1.1634 1.1548 179.91 1.71552
2 1 3 4 1 o 7.4883 7.3438 160.50 1.70293
1 2 3 4 1 o 9.6548 9.5125 334.94 1.70125
0 3 1 4 1 o 5.5899 5.2396 154.90 1.69365
1 1 4 4 1 o 0.1625 0.1341 207.48 1.67012
3 1 1 4 1 o 0.1416 0.1192 215.82 1.66624
2 2 2 4 1 o 0.0206 0.0194 29.20 1.66173
1 3 0 4 1 o 0.0134 0.0184 133.51 1.65688
-2 0 4 2 1 o 10.8842 10.9987 324.95 1.63638
-3 1 2 4 1 o 11.3652 11.3181 351.09 1.62947
-1 3 1 4 1 o 0.0140 0.0140 146.11 1.62761
1 3 1 4 1 o 0.2338 0.2208 228.40 1.61117
3 0 2 2 1 o 2.1573 2.0716 79.15 1.60908
0 3 2 4 1 o 0.7580 0.7265 38.52 1.58135
-2 2 3 4 1 o 0.0005 0.0006 246.64 1.56384
-2 1 4 4 1 o 0.9805 1.0148 125.86 1.56119
0 2 4 4 1 o 18.6964 18.8255 327.08 1.54156
3 1 2 4 1 o 22.8547 22.5359 342.22 1.53743
-1 3 2 4 1 o 24.2543 23.8100 344.78 1.53413
2 0 4 2 1 o 81.0522 81.9895 330.91 1.51555
-1 2 4 4 1 o 2.1809 2.2128 35.93 1.51089
1 3 2 4 1 o 89.7768 90.2887 346.99 1.50692
3 2 0 4 1 o 0.4584 0.4603 358.59 1.50416
-3 2 1 4 1 o 0.7186 0.7035 96.12 1.49492
-3 1 3 4 1 o 0.0218 0.0261 194.27 1.48993
2 2 3 4 1 o 0.0369 0.0411 204.22 1.48195
2 3 0 4 1 o 0.4220 0.4267 123.75 1.47046
0 1 5 4 1 o 7.1935 7.3527 345.46 1.46787
1 2 4 4 1 o 2.0813 2.1323 50.90 1.46017
3 2 1 4 1 o 7.7050 7.7942 160.71 1.45758
-2 3 1 4 1 o 5.5349 5.5030 198.78 1.45582
2 1 4 4 1 o 2.4891 2.4371 62.40 1.45523
-1 1 5 4 1 o 0.0005 0.0005 308.37 1.44715
0 3 3 4 1 o 0.4497 0.5841 91.26 1.43540
-3 2 2 4 1 o 0.2900 0.3587 197.69 1.43277
2 3 1 4 1 o 0.1512 0.1847 3.61 1.43251
-1 3 3 4 1 o 0.2970 0.3337 239.05 1.40514
-2 3 2 4 1 o 0.8321 0.8927 39.91 1.39297
1 1 5 4 1 o 0.0064 0.0068 104.53 1.39184
3 1 3 4 1 o 0.0162 0.0164 177.87 1.38657
-2 2 4 4 1 o 45.5327 45.6374 346.37 1.38569
-3 0 4 2 1 o 2.3344 2.3237 24.74 1.38454
4 0 0 2 1 o 56.1837 55.2745 350.87 1.38169
1 3 3 4 1 o 0.3400 0.3046 251.67 1.37400
3 2 2 4 1 o 2.0215 1.8509 71.66 1.36899
2 3 2 4 1 o 0.6831 0.6208 34.48 1.35293
-2 1 5 4 1 o 23.2544 23.6820 163.81 1.34066
-3 1 4 4 1 o 3.4838 3.5477 333.29 1.33810
4 1 0 4 1 o 1.4173 1.4326 114.49 1.33553
-3 2 3 4 1 o 23.9223 24.0608 355.98 1.33514
-4 0 2 2 1 o 4.4670 4.4848 13.16 1.33486
-4 1 1 4 1 o 23.4847 23.2710 191.92 1.33362
0 2 5 4 1 o 0.1390 0.1624 198.07 1.31919
2 2 4 4 1 o 10.5428 10.3861 334.71 1.31000
-1 2 5 4 1 o 6.6896 6.7864 141.54 1.30409
0 4 0 2 1 o 12.4565 12.4179 0.00 1.30257
-2 3 3 4 1 o 7.0815 6.7121 349.56 1.29850
4 1 1 4 1 o 7.2090 6.8253 342.87 1.29835
-4 1 2 4 1 o 1.3467 1.5208 22.45 1.29309
0 3 4 4 1 o 1.0319 1.1008 86.61 1.28567
0 4 1 4 1 o 0.3901 0.4336 302.99 1.28409
3 0 4 2 1 o 1.7818 1.7501 42.57 1.27563
0 0 6 2 1 o 18.7473 18.3853 149.15 1.27486
1 4 0 4 1 o 0.1142 0.1190 13.77 1.26784
-1 3 4 4 1 o 17.1077 17.7274 167.87 1.26771
4 0 2 2 1 o 16.4012 16.8194 160.00 1.26680
-1 0 6 2 1 o 3.3012 3.3048 90.96 1.26512
3 3 0 4 1 o 17.0712 16.6817 172.97 1.26373
1 2 5 4 1 o 12.0491 11.7093 147.62 1.26318
3 2 3 4 1 o 14.2761 13.8373 341.11 1.25924
-3 3 1 4 1 o 0.0144 0.0141 64.82 1.25823
2 1 5 4 1 o 15.0548 14.9171 153.07 1.25613
-1 4 1 4 1 o 11.8354 11.6912 12.80 1.25457
2 3 3 4 1 o 13.2063 13.0071 344.44 1.25047
1 4 1 4 1 o 16.6664 16.0577 167.94 1.24700
3 1 4 4 1 o 4.0849 3.9455 315.50 1.23903
0 1 6 4 1 o 4.6746 4.4989 22.47 1.23833
1 3 4 4 1 o 4.3755 4.1730 340.71 1.23730
3 3 1 4 1 o 0.2786 0.2613 253.87 1.23572
0 4 2 4 1 o 6.7149 6.3568 0.71 1.23302
4 1 2 4 1 o 0.8766 0.8397 13.32 1.23094
-1 1 6 4 1 o 11.5379 11.1801 329.62 1.22940
-2 2 5 4 1 o 0.1349 0.1378 233.98 1.22455
-4 1 3 4 1 o 0.1894 0.1960 301.61 1.22350
-3 2 4 4 1 o 2.5596 2.6237 24.93 1.22260
4 2 0 4 1 o 14.0494 13.9767 345.97 1.22064
1 0 6 2 1 o 2.0182 2.0006 62.15 1.22057
-3 3 2 4 1 o 18.4003 18.2493 354.25 1.22050
-4 2 1 4 1 o 0.1355 0.1303 291.33 1.21918
-1 4 2 4 1 o 0.0601 0.0601 115.79 1.21024
1 4 2 4 1 o 0.7226 0.6968 81.89 1.19675
-2 0 6 2 1 o 5.6273 5.3338 162.61 1.19541
-3 1 5 4 1 o 0.1267 0.1190 128.49 1.19463
4 2 1 4 1 o 0.0567 0.0599 164.32 1.19206
-2 3 4 4 1 o 1.4077 1.5449 126.03 1.19100
1 1 6 4 1 o 1.5377 1.5385 310.63 1.18839
-4 2 2 4 1 o 4.1690 4.0568 182.95 1.18798
3 3 2 4 1 o 4.5481 4.5071 344.87 1.18035
2 4 0 4 1 o 4.1482 4.0433 341.94 1.17824
-2 4 1 4 1 o 0.7535 0.7884 293.18 1.17066
-4 0 4 2 1 o 101.2194 97.7436 352.73 1.16615
-2 1 6 4 1 o 4.7929 4.6206 19.40 1.16513
0 4 3 4 1 o 0.0754 0.0758 154.12 1.15997
2 2 5 4 1 o 0.1323 0.1354 239.38 1.15913
-3 3 3 4 1 o 0.4537 0.4701 245.19 1.15844
2 4 1 4 1 o 0.0121 0.0126 272.77 1.15844
0 3 5 4 1 o 11.4304 11.6585 160.85 1.14798
4 1 3 4 1 o 15.8915 16.0951 334.22 1.14639
3 2 4 4 1 o 1.1455 1.1546 41.42 1.14565
0 2 6 4 1 o 1.6933 1.6977 318.54 1.14510
-1 4 3 4 1 o 14.9524 14.8173 349.48 1.14383
2 3 4 4 1 o 2.0322 2.0198 58.34 1.14191
4 2 2 4 1 o 2.0778 2.1407 303.69 1.13925
-1 2 6 4 1 o 1.3752 1.4160 81.91 1.13802
-4 1 4 4 1 o 1.4527 1.5039 148.67 1.13799
-1 3 5 4 1 o 0.0674 0.0696 94.46 1.13799
-2 4 2 4 1 o 2.3642 2.4646 350.63 1.13723
-4 2 3 4 1 o 0.0886 0.0737 327.64 1.13334
1 4 3 4 1 o 0.0701 0.0950 322.97 1.12684
2 0 6 2 1 o 1.6397 1.4351 340.52 1.12319
2 4 2 4 1 o 3.8201 4.1769 309.93 1.11512
1 3 5 4 1 o 0.0845 0.0722 122.41 1.11050
-3 2 5 4 1 o 0.4597 0.3935 68.89 1.11028
3 3 3 4 1 o 0.0024 0.0021 357.68 1.10782
3 1 5 4 1 o 0.1453 0.1441 141.10 1.10647
5 0 0 2 1 o 1.6512 1.7467 3.69 1.10535
1 2 6 4 1 o 2.7079 2.8063 62.17 1.10527
2 1 6 4 1 o 3.5603 3.3914 30.98 1.09797
-3 0 6 2 1 o 1.5373 1.6004 106.62 1.09092
-2 2 6 4 1 o 0.3858 0.4487 9.19 1.08648
-5 0 2 2 1 o 0.6194 0.7139 210.26 1.08585
-2 4 3 4 1 o 0.0439 0.0450 133.00 1.08406
-2 3 5 4 1 o 0.0935 0.0964 350.23 1.08398
-5 1 1 4 1 o 0.0337 0.0360 177.16 1.08272
-3 3 4 4 1 o 0.5046 0.5380 10.35 1.08262
5 1 0 4 1 o 0.5699 0.6245 348.40 1.08129
4 3 0 4 1 o 1.1983 1.3201 124.02 1.08126
-4 3 1 4 1 o 0.3173 0.3409 97.64 1.08024
4 0 4 2 1 o 5.0561 5.2609 328.44 1.07883
0 4 4 4 1 o 5.0497 5.0945 358.68 1.07655
4 2 3 4 1 o 0.0847 0.0748 208.71 1.07124
0 1 7 4 1 o 15.3979 15.1744 332.76 1.06947
-3 1 6 4 1 o 0.5218 0.5329 295.52 1.06777
-1 1 7 4 1 o 0.0158 0.0166 185.04 1.06604
-1 4 4 4 1 o 1.8522 1.9596 32.04 1.06595
-4 2 4 4 1 o 1.2046 1.2538 301.66 1.06438
3 4 0 4 1 o 0.4179 0.4316 347.21 1.06357
-5 1 2 4 1 o 0.9914 1.0082 352.42 1.06301
4 3 1 4 1 o 12.3779 12.5791 153.74 1.06124
-3 4 1 4 1 o 13.1464 13.6526 175.12 1.06029
5 1 1 4 1 o 0.0747 0.0773 314.28 1.05896
-4 3 2 4 1 o 1.6337 1.6548 10.87 1.05837
4 1 4 4 1 o 3.6983 3.6508 53.24 1.05642
2 4 3 4 1 o 0.6276 0.6316 169.81 1.05563
-4 1 5 4 1 o 0.0408 0.0558 32.77 1.04798
1 4 4 4 1 o 0.9233 1.3105 41.39 1.04768
3 4 1 4 1 o 0.0353 0.0452 355.01 1.04672
0 5 0 2 1 o 0.0874 0.0646 180.00 1.04206
5 0 2 2 1 o 2.7772 2.6056 87.09 1.03945
3 2 5 4 1 o 0.3328 0.3624 22.99 1.03845
2 3 5 4 1 o 0.3698 0.4004 47.63 1.03781
-3 4 2 4 1 o 0.2872 0.3017 178.23 1.03741
1 1 7 4 1 o 0.1009 0.1039 258.28 1.03466
0 5 1 4 1 o 2.2763 2.2249 324.41 1.03252
2 2 6 4 1 o 14.5616 14.2279 145.76 1.03141
3 3 4 4 1 o 15.9912 16.0160 153.57 1.02811
0 3 6 4 1 o 3.6522 3.6473 24.09 1.02771
-5 1 3 4 1 o 0.0776 0.0779 268.50 1.02540
-2 1 7 4 1 o 5.8722 5.8817 170.72 1.02540
1 5 0 4 1 o 9.2692 9.3745 169.21 1.02401
4 3 2 4 1 o 0.6138 0.6197 25.51 1.02347
-1 3 6 4 1 o 2.2097 2.1976 289.18 1.02258
5 1 2 4 1 o 1.7865 1.7896 348.25 1.01937
-4 3 3 4 1 o 5.9579 6.0238 21.55 1.01918
-2 4 4 4 1 o 2.5014 2.5351 313.33 1.01912
-5 2 1 4 1 o 6.2703 6.5099 187.07 1.01874
5 2 0 4 1 o 0.7271 0.8044 356.44 1.01755
-1 5 1 4 1 o 0.0546 0.0582 188.87 1.01699
1 5 1 4 1 o 0.1785 0.1617 253.61 1.01294
3 4 2 4 1 o 1.4185 1.3206 71.39 1.01242
3 0 6 2 1 o 3.8610 3.8226 41.99 1.01037
0 2 7 4 1 o 0.0642 0.0636 101.19 1.00768
-3 2 6 4 1 o 2.1124 2.1173 102.00 1.00625
0 5 2 4 1 o 0.4238 0.4279 50.43 1.00541
-1 2 7 4 1 o 11.3851 11.4494 328.45 1.00481
-3 3 5 4 1 o 0.0476 0.0484 295.53 1.00231
-5 2 2 4 1 o 1.2825 1.3110 190.64 1.00227
5 2 1 4 1 o 9.7734 9.7426 161.32 0.99888
1 3 6 4 1 o 47.4702 47.3892 324.05 0.99862
-3 4 3 4 1 o 11.1126 11.1170 182.68 0.99850
4 2 4 4 1 o 48.0897 48.4600 326.55 0.99675
-1 5 2 4 1 o 53.5667 53.2233 348.36 0.99294
-5 0 4 2 1 o 3.1431 3.1188 8.52 0.99282
3 1 6 4 1 o 4.8596 4.7413 315.35 0.99189
0 4 5 4 1 o 0.7175 0.6994 256.73 0.99177
-4 2 5 4 1 o 0.0327 0.0298 192.95 0.98965
2 4 4 4 1 o 6.7916 6.3675 316.03 0.98785
1 5 2 4 1 o 7.0195 6.9036 348.32 0.98545
-1 4 5 4 1 o 0.8886 0.8686 47.32 0.98531
-2 3 6 4 1 o 3.8292 3.6923 20.44 0.98470
1 2 7 4 1 o 0.5472 0.5754 216.19 0.97840
-4 0 6 2 1 o 2.7357 2.8782 6.02 0.97767
-5 1 4 4 1 o 3.4053 3.8289 343.94 0.97527
2 5 0 4 1 o 0.1027 0.1174 89.67 0.97504
4 3 3 4 1 o 0.3724 0.3839 264.22 0.97331
2 1 7 4 1 o 1.7455 1.7582 302.85 0.97154
-2 5 1 4 1 o 1.5216 1.5676 41.86 0.97073
-5 2 3 4 1 o 0.2007 0.2047 270.89 0.97057
-2 2 7 4 1 o 0.0740 0.0742 284.34 0.97056
4 1 5 4 1 o 1.3259 1.2449 116.27 0.96885
-4 3 4 4 1 o 0.6181 0.5776 146.72 0.96815
5 1 3 4 1 o 0.0834 0.0783 354.50 0.96802
1 4 5 4 1 o 2.5977 2.4736 358.19 0.96730
3 4 3 4 1 o 0.9553 0.9387 126.05 0.96553
5 2 2 4 1 o 2.4216 2.3953 78.84 0.96544
0 5 3 4 1 o 2.7091 2.8483 154.12 0.96461
2 5 1 4 1 o 4.9768 5.3359 18.18 0.96373
-4 1 6 4 1 o 3.3840 3.3936 22.90 0.96090
-3 1 7 4 1 o 0.0935 0.0726 156.89 0.95885
0 0 8 2 1 o 2.5338 2.1439 265.69 0.95615
-1 0 8 2 1 o 5.8415 5.5546 15.36 0.95537
-1 5 3 4 1 o 0.9944 0.9738 233.72 0.95526
-2 5 2 4 1 o 0.8513 0.8964 13.53 0.95141
-2 4 5 4 1 o 0.2869 0.3222 207.48 0.94962
-3 4 4 4 1 o 1.6929 1.8519 31.09 0.94871
3 3 5 4 1 o 0.0782 0.0837 150.97 0.94852
4 4 0 4 1 o 5.4561 5.4441 13.01 0.94779
-4 4 1 4 1 o 0.3916 0.3849 246.98 0.94711
1 5 3 4 1 o 0.3285 0.2897 240.41 0.94530
2 3 6 4 1 o 3.3898 3.2468 13.18 0.94314
3 2 6 4 1 o 2.9783 2.9059 44.88 0.94200
0 1 8 4 1 o 2.4375 2.6122 61.19 0.94044
-1 1 8 4 1 o 4.7216 5.2835 316.09 0.93971
2 5 2 4 1 o 0.3962 0.4486 29.32 0.93835
4 4 1 4 1 o 0.0630 0.0611 8.86 0.93423
-5 3 1 4 1 o 0.1102 0.1096 1.28 0.93343
5 3 0 4 1 o 8.0565 7.7450 335.61 0.93251
-4 4 2 4 1 o 10.3557 9.8787 351.17 0.93226
1 0 8 2 1 o 5.2545 4.9395 6.42 0.92947
-5 2 4 4 1 o 1.4870 1.4575 28.77 0.92773
-2 0 8 2 1 o 44.5442 43.3688 321.31 0.92733
0 3 7 4 1 o 0.6186 0.6230 281.16 0.92490
5 0 4 2 1 o 1.0867 1.0942 24.41 0.92477
2 2 7 4 1 o 0.0564 0.0568 104.70 0.92452
-3 3 6 4 1 o 49.9497 50.1339 339.28 0.92379
-1 3 7 4 1 o 0.2311 0.2366 187.14 0.92267
4 2 5 4 1 o 0.0073 0.0076 276.94 0.92220
5 2 3 4 1 o 0.1116 0.1144 98.72 0.92148
6 0 0 2 1 o 48.8294 49.7283 339.08 0.92113
-5 3 2 4 1 o 54.1032 54.7331 5.74 0.92071
-2 5 3 4 1 o 3.8252 3.8726 104.31 0.91962
-5 1 5 4 1 o 0.1071 0.1015 304.21 0.91831
2 4 5 4 1 o 0.1707 0.1602 233.66 0.91812
5 3 1 4 1 o 0.4112 0.3830 240.07 0.91808
4 3 4 4 1 o 3.1333 3.0973 70.76 0.91642
-4 2 6 4 1 o 4.0942 4.1415 192.44 0.91533
1 1 8 4 1 o 0.9167 0.9193 310.23 0.91502
0 5 4 4 1 o 1.1249 1.1318 76.65 0.91502
-3 2 7 4 1 o 6.1890 6.0818 327.92 0.91356
-2 1 8 4 1 o 2.7250 2.7377 78.94 0.91299
-6 0 2 2 1 o 3.8782 3.9628 184.85 0.91268
3 4 4 4 1 o 1.2533 1.3209 30.47 0.91138
0 4 6 4 1 o 1.7142 1.7963 348.87 0.91110
-4 3 5 4 1 o 5.6050 5.8593 147.86 0.91089
5 1 4 4 1 o 1.0782 1.1224 304.49 0.91054
-6 1 1 4 1 o 5.4413 5.7169 26.69 0.90936
-1 5 4 4 1 o 2.5593 2.5864 346.94 0.90848
4 4 2 4 1 o 2.8662 2.8394 356.67 0.90814
-1 4 6 4 1 o 1.5560 1.5450 76.14 0.90753
6 1 0 4 1 o 2.0262 2.0166 118.86 0.90706
3 5 0 4 1 o 2.9674 2.9483 332.80 0.90701
-4 4 3 4 1 o 0.0862 0.1083 177.23 0.90514
-3 5 1 4 1 o 0.1123 0.1424 11.46 0.90497
1 3 7 4 1 o 0.2138 0.2150 190.41 0.90210
2 5 3 4 1 o 0.3762 0.3768 130.83 0.90207
4 0 6 2 1 o 44.4620 43.6641 140.46 0.90095
-6 1 2 4 1 o 1.4591 1.3966 10.33 0.89899
0 2 8 4 1 o 31.5493 31.0917 318.38 0.89760
1 5 4 4 1 o 32.0671 31.5270 160.33 0.89709
-1 2 8 4 1 o 5.0924 5.0261 3.05 0.89696
3 5 1 4 1 o 0.6289 0.6222 251.59 0.89649
-5 3 3 4 1 o 0.1120 0.1135 242.64 0.89595
-2 3 7 4 1 o 13.0924 13.2154 338.66 0.89595
3 1 7 4 1 o 0.0294 0.0296 123.82 0.89435
-3 4 5 4 1 o 9.2240 9.2110 165.62 0.89327
6 1 1 4 1 o 14.4453 14.3826 155.58 0.89238
5 3 2 4 1 o 47.2388 47.1322 334.55 0.89191
1 4 6 4 1 o 1.8151 1.8078 57.47 0.89065
-3 5 2 4 1 o 42.7154 42.5496 1.56 0.89062
4 1 6 4 1 o 2.0688 2.1256 18.50 0.88777
2 0 8 2 1 o 66.8947 67.1532 313.27 0.88158
-2 4 6 4 1 o 5.9400 5.9871 306.40 0.88073
-4 1 7 4 1 o 20.1257 20.3434 341.85 0.88054
6 0 2 2 1 o 4.0535 4.1034 314.63 0.87930
-2 5 4 4 1 o 0.2340 0.2348 80.67 0.87897
-3 0 8 2 1 o 5.3044 5.3161 357.97 0.87855
-5 2 5 4 1 o 18.1991 18.1922 171.46 0.87830
-6 1 3 4 1 o 18.1684 18.5644 12.70 0.87720
1 2 8 4 1 o 5.0003 4.9240 11.90 0.87542
3 5 2 4 1 o 83.2638 82.7372 340.90 0.87466
-2 2 8 4 1 o 1.4136 1.4056 315.16 0.87364
3 3 6 4 1 o 18.6771 18.5115 317.49 0.87333
4 4 3 4 1 o 0.3866 0.3934 209.69 0.87255
5 2 4 4 1 o 1.6353 1.7479 15.99 0.87149
-5 0 6 2 1 o 1.3764 1.4556 111.73 0.87117
-6 2 1 4 1 o 0.0917 0.0922 208.30 0.87045
2 1 8 4 1 o 3.3915 3.2755 49.43 0.86922
-4 4 4 4 1 o 4.3755 4.2604 352.82 0.86883
6 2 0 4 1 o 5.4268 5.3939 359.88 0.86844
0 6 0 2 1 o 25.5482 25.4863 0.00 0.86838
6 1 2 4 1 o 1.1345 1.2293 8.12 0.86704
-3 1 8 4 1 o 0.6028 0.6614 264.83 0.86632
-3 5 3 4 1 o 0.4209 0.4818 244.77 0.86563
0 6 1 4 1 o 0.6138 0.5236 284.60 0.86284
-5 3 4 4 1 o 0.4605 0.4246 358.75 0.86193
-6 2 2 4 1 o 2.2023 2.1439 346.30 0.86135
0 5 5 4 1 o 0.6083 0.5974 318.13 0.86124
2 3 7 4 1 o 3.2815 3.2943 349.55 0.85935
-5 1 6 4 1 o 4.0731 4.0844 346.85 0.85924
2 5 4 4 1 o 1.4611 1.4678 70.04 0.85867
1 6 0 4 1 o 0.8553 0.8550 357.77 0.85786
-6 0 4 2 1 o 4.6392 4.6244 336.42 0.85776
4 3 5 4 1 o 1.5870 1.5721 164.59 0.85749
3 2 7 4 1 o 20.5659 20.3561 313.21 0.85726
-1 5 5 4 1 o 0.0081 0.0081 60.49 0.85700
5 3 3 4 1 o 0.0873 0.0864 138.61 0.85691
6 2 1 4 1 o 0.0327 0.0335 180.53 0.85553
3 4 5 4 1 o 15.5598 16.1089 141.59 0.85456
-1 6 1 4 1 o 3.4077 3.4816 158.81 0.85371
-4 3 6 4 1 o 4.1426 4.2317 5.85 0.85196
4 2 6 4 1 o 2.9149 2.9639 320.62 0.85147
5 1 5 4 1 o 0.0297 0.0302 236.25 0.85146
1 6 1 4 1 o 15.4299 15.6924 5.37 0.85132
2 4 6 4 1 o 4.0048 4.0242 307.80 0.85062
-3 3 7 4 1 o 0.1170 0.1171 217.58 0.85053
0 6 2 4 1 o 4.5035 4.5122 332.65 0.84683
-6 1 4 4 1 o 0.7928 0.7901 170.10 0.84637
-4 2 7 4 1 o 0.0397 0.0405 165.94 0.84508
1 5 5 4 1 o 0.1971 0.2027 115.96 0.84507
3 5 3 4 1 o 0.0533 0.0518 233.02 0.84389
-5 4 1 4 1 o 0.2914 0.3005 56.94 0.84347
5 4 0 4 1 o 0.6318 0.7691 2.21 0.84280
-6 2 3 4 1 o 0.0474 0.0616 210.11 0.84213
-1 1 9 4 1 o 0.1851 0.1623 102.64 0.83944
-1 6 2 4 1 o 0.4061 0.3513 129.63 0.83934
0 1 9 4 1 o 2.0332 1.8130 109.15 0.83882
0 3 8 4 1 o 3.5286 3.4024 72.58 0.83760
0 4 7 4 1 o 0.0056 0.0055 110.97 0.83717
-1 3 8 4 1 o 10.5939 10.4214 148.05 0.83708
-3 4 6 4 1 o 1.0907 1.1069 106.58 0.83635
-1 4 7 4 1 o 1.3378 1.4158 159.79 0.83551
2 2 8 4 1 o 0.6520 0.6860 226.99 0.83506
1 6 2 4 1 o 0.3644 0.3823 77.82 0.83480
-5 4 2 4 1 o 0.6468 0.6431 216.74 0.83406
6 1 3 4 1 o 1.3597 1.3430 303.29 0.83365
-2 5 5 4 1 o 2.7339 2.7067 353.12 0.83321
6 2 2 4 1 o 6.8746 6.8171 146.17 0.83312
-3 5 4 4 1 o 7.0169 7.0614 161.19 0.83259
-3 2 8 4 1 o 4.2530 4.2720 20.64 0.83248
5 4 1 4 1 o 1.8773 1.8974 324.46 0.83210
4 5 0 4 1 o 0.4678 0.4718 96.11 0.83197
-4 5 1 4 1 o 2.4418 2.4401 348.25 0.83151
4 4 4 4 1 o 1.0928 1.1012 354.56 0.83086
2 6 0 4 1 o 3.4793 3.3780 13.51 0.82844
-4 4 5 4 1 o 0.1812 0.1807 227.17 0.82674
-5 2 6 4 1 o 1.2359 1.2863 122.98 0.82620
-2 6 1 4 1 o 0.6111 0.6465 270.77 0.82579
4 5 1 4 1 o 1.1189 1.0870 39.36 0.82275
0 6 3 4 1 o 0.3860 0.3800 155.88 0.82201
-5 3 5 4 1 o 0.0129 0.0127 136.48 0.82185
3 0 8 2 1 o 4.6067 4.5399 2.60 0.82162
2 6 1 4 1 o 0.1593 0.1571 342.09 0.82147
-4 5 2 4 1 o 0.7322 0.7221 19.45 0.82140
-2 1 9 4 1 o 11.2691 11.1256 150.88 0.82130
1 4 7 4 1 o 17.7733 17.6390 321.68 0.82015
1 1 9 4 1 o 0.0569 0.0565 272.73 0.81957
1 3 8 4 1 o 2.3098 2.2923 128.79 0.81949
5 2 5 4 1 o 17.5322 17.4247 138.11 0.81928
-4 0 8 2 1 o 22.7877 23.1116 330.49 0.81819
-2 3 8 4 1 o 2.1200 2.1571 76.36 0.81803
5 3 4 4 1 o 1.6267 1.6143 153.34 0.81627
-1 6 3 4 1 o 14.1566 14.0352 180.75 0.81621
-5 4 3 4 1 o 11.4586 11.3780 7.48 0.81552
-2 4 7 4 1 o 0.4046 0.4031 132.34 0.81551
-6 3 1 4 1 o 11.8528 11.7794 193.10 0.81542
4 1 7 4 1 o 0.9692 0.9832 123.18 0.81474
-6 2 4 4 1 o 30.8760 31.2618 357.21 0.81473
-2 6 2 4 1 o 0.9808 1.0401 187.87 0.81380
6 3 0 4 1 o 0.9752 1.0386 102.06 0.81376
5 4 2 4 1 o 1.8200 1.8310 81.01 0.81247
2 5 5 4 1 o 4.5775 4.6092 305.35 0.81168
3 1 8 4 1 o 0.1605 0.1632 169.01 0.81159
1 6 3 4 1 o 1.3423 1.4898 98.40 0.80997
-6 1 5 4 1 o 0.6450 0.7289 100.75 0.80935
