#------------------------------------------------------------------------------
#$Date: 2021-05-22 01:20:57 +0300 (Sat, 22 May 2021) $
#$Revision: 265436 $
#$URL: file:///home/coder/svn-repositories/cod/cif/4/00/39/4003948.cif $
#------------------------------------------------------------------------------
#
# This file is available in the Crystallography Open Database (COD),
# http://www.crystallography.net/
#
# All data on this site have been placed in the public domain by the
# contributors.
#
data_4003948
loop_
_publ_author_name
'Liu, Runqing'
'Wu, Hongping'
'Yu, Hongwei'
'Hu, Zhanggui'
'Wang, Jiyang'
'Wu, Yicheng'
_publ_section_title
;
 K5Mg2La3(BO3)6: An Efficient, Deep-Ultraviolet Nonlinear Optical Material
;
_journal_name_full               'Chemistry of Materials'
_journal_paper_doi               10.1021/acs.chemmater.1c01274
_journal_year                    2021
_chemical_formula_sum            'B6 K5 La3 Mg2 O18'
_chemical_formula_weight         1013.71
_space_group_crystal_system      trigonal
_space_group_IT_number           157
_space_group_name_Hall           'P 3 -2'
_space_group_name_H-M_alt        'P 3 1 m'
_audit_creation_method           SHELXL-2018/3
_cell_angle_alpha                90
_cell_angle_beta                 90
_cell_angle_gamma                120
_cell_formula_units_Z            1
_cell_length_a                   9.0834(14)
_cell_length_b                   9.0834(14)
_cell_length_c                   6.6139(11)
_cell_measurement_reflns_used    2644
_cell_measurement_temperature    301(2)
_cell_measurement_theta_max      27.49
_cell_measurement_theta_min      2.59
_cell_volume                     472.59(13)
_computing_structure_refinement  'SHELXL-2018/3 (Sheldrick, 2018)'
_computing_structure_solution    'SHELXT 2014/5 (Sheldrick, 2014)'
_diffrn_ambient_temperature      301(2)
_diffrn_measured_fraction_theta_full 1.000
_diffrn_measured_fraction_theta_max 1.000
_diffrn_measurement_device_type  'Bruker APEX-II CCD'
_diffrn_measurement_method       '\f and \w scans'
_diffrn_radiation_type           MoK\a
_diffrn_radiation_wavelength     0.71073
_diffrn_reflns_av_R_equivalents  0.0312
_diffrn_reflns_av_unetI/netI     0.0293
_diffrn_reflns_Laue_measured_fraction_full 1.000
_diffrn_reflns_Laue_measured_fraction_max 1.000
_diffrn_reflns_limit_h_max       11
_diffrn_reflns_limit_h_min       -11
_diffrn_reflns_limit_k_max       11
_diffrn_reflns_limit_k_min       -11
_diffrn_reflns_limit_l_max       8
_diffrn_reflns_limit_l_min       -8
_diffrn_reflns_number            3878
_diffrn_reflns_point_group_measured_fraction_full 0.997
_diffrn_reflns_point_group_measured_fraction_max 0.993
_diffrn_reflns_theta_full        25.242
_diffrn_reflns_theta_max         27.491
_diffrn_reflns_theta_min         2.589
_exptl_absorpt_coefficient_mu    7.915
_exptl_crystal_colour            colourless
_exptl_crystal_density_diffrn    3.562
_exptl_crystal_description       block
_exptl_crystal_F_000             464
_refine_diff_density_max         0.385
_refine_diff_density_min         -0.600
_refine_diff_density_rms         0.118
_refine_ls_abs_structure_details
;
 Refined as an inversion twin.
;
_refine_ls_abs_structure_Flack   -0.02(3)
_refine_ls_extinction_method     none
_refine_ls_goodness_of_fit_ref   1.040
_refine_ls_hydrogen_treatment    undef
_refine_ls_matrix_type           full
_refine_ls_number_parameters     62
_refine_ls_number_reflns         810
_refine_ls_number_restraints     1
_refine_ls_restrained_S_all      1.040
_refine_ls_R_factor_all          0.0161
_refine_ls_R_factor_gt           0.0159
_refine_ls_shift/su_max          0.000
_refine_ls_shift/su_mean         0.000
_refine_ls_structure_factor_coef Fsqd
_refine_ls_weighting_details
'w=1/[\s^2^(Fo^2^)+(0.0118P)^2^] where P=(Fo^2^+2Fc^2^)/3'
_refine_ls_weighting_scheme      calc
_refine_ls_wR_factor_gt          0.0348
_refine_ls_wR_factor_ref         0.0349
_reflns_Friedel_coverage         0.961
_reflns_Friedel_fraction_full    0.994
_reflns_Friedel_fraction_max     0.985
_reflns_number_gt                805
_reflns_number_total             810
_reflns_threshold_expression     'I > 2\s(I)'
_cod_data_source_file            cm1c01274_si_002.cif
_cod_data_source_block           K5La3Mg2B6O18
_cod_original_cell_volume        472.59(17)
_cod_database_code               4003948
_shelx_shelxl_version_number     2018/3
_shelx_space_group_comment
;
The symmetry employed for this shelxl refinement is uniquely defined
by the following loop, which should always be used as a source of
symmetry information in preference to the above space-group names.
They are only intended as comments.
;
_shelx_res_file
;
TITL frrfrfrfr_b.res in P31m
    frrfrfrfr_b.res
    created by SHELXL-2018/3 at 08:19:48 on 06-Aug-2020
REM Old TITL frrfrfrfr in P31m
REM SHELXT solution in P31m
REM R1 0.035,  Rweak 0.023,  Alpha 0.117,  Orientation as input
REM Flack x = -0.012 ( 0.018 ) from Parsons' quotients
REM Formula found by SHELXT:  B3 K5 La3 Mg2 O18
CELL  0.71073   9.0834   9.0834   6.6139   90.000   90.000  120.000
ZERR   1.000   0.0014   0.0014   0.0011    0.000    0.000    0.000
LATT -1
SYMM -Y, X-Y, Z
SYMM -X+Y, -X, Z
SYMM Y, X, Z
SYMM X-Y, -Y, Z
SYMM -X, -X+Y, Z
SFAC B K LA MG O
UNIT 6 4.99998 3 1.99998 18
Acta
TEMP 27.850
L.S. 10
BOND $H
LIST 4
twin
FMAP 2
PLAN 20
WGHT    0.011800
BASF  -0.01690
FVAR       0.48632
LA1   3    0.315588    1.000000   -0.169616    10.50000    0.01157    0.01051 =
         0.01069    0.00000    0.00016    0.00525
K1    2    0.333333    0.666667    1.169595    10.33333    0.02004    0.02004 =
         0.01255    0.00000    0.00000    0.01002
K2    2    0.000000    0.716240    0.326732    10.50000    0.01719    0.03799 =
         0.04447    0.00040    0.00000    0.00859
MG1   4    0.333333    0.666667    0.651803    10.33333    0.01112    0.01112 =
         0.01224    0.00000    0.00000    0.00556
O1    5    0.195701    0.195701    0.800729    10.50000    0.01398    0.01398 =
         0.07818   -0.00731   -0.00731    0.00762
O2    5    0.342125    0.492602    0.855135    11.00000    0.01511    0.01251 =
         0.01353    0.00226   -0.00076    0.00749
O3    5    0.310025    0.850155    0.494758    11.00000    0.02206    0.01441 =
         0.01609    0.00282    0.00220    0.00983
O4    5    0.327381    1.000000    0.191193    10.50000    0.03092    0.01991 =
         0.01168    0.00000    0.00073    0.00996
B1    1    0.343887    0.343887    0.833671    10.50000    0.01683    0.01683 =
         0.01512    0.00207    0.00207    0.01110
B2    1    0.370278    1.000000    0.388968    10.50000    0.01182    0.01667 =
         0.01006    0.00000    0.00210    0.00833
HKLF 4




REM  frrfrfrfr_b.res in P31m
REM wR2 = 0.034936, GooF = S = 1.04022, Restrained GooF = 1.03952 for all data
REM R1 = 0.015876 for 805 Fo > 4sig(Fo) and 0.016115 for all 810 data
REM 62 parameters refined using 1 restraints

END

WGHT      0.0068      0.0000

REM Highest difference peak  0.385,  deepest hole -0.600,  1-sigma level  0.118
Q1    1   0.0000  0.7992  0.3344  10.50000  0.05    0.39
Q2    1   0.1944  0.8177  0.4772  11.00000  0.05    0.33
Q3    1   0.4260  0.5815  0.9031  11.00000  0.05    0.31
Q4    1   0.1529  0.6461  0.5954  11.00000  0.05    0.31
Q5    1   0.4091  0.5622  1.1850  11.00000  0.05    0.30
Q6    1   0.2934  0.1798  0.7373  11.00000  0.05    0.29
Q7    1   0.2421  0.3790  0.9658  11.00000  0.05    0.29
Q8    1   0.1631  0.1631  1.0764  10.50000  0.05    0.28
Q9    1   0.2685  1.1322  0.1455  11.00000  0.05    0.28
Q10   1   0.0000  0.8452  0.4626  10.50000  0.05    0.28
Q11   1   0.1407  0.9478  0.1991  11.00000  0.05    0.27
Q12   1   0.3108  0.8439 -0.0743  11.00000  0.05    0.26
Q13   1   0.4053  1.1530  0.0516  11.00000  0.05    0.26
Q14   1   0.0877  0.2103  1.0098  11.00000  0.05    0.26
Q15   1   0.4637  0.7995  1.3341  11.00000  0.05    0.26
Q16   1   0.4202  0.5752  0.7569  11.00000  0.05    0.26
Q17   1   0.3523  0.5195  1.0430  11.00000  0.05    0.26
Q18   1   0.2818  1.1209 -0.1466  11.00000  0.05    0.25
Q19   1   0.4384  0.8530  0.3586  11.00000  0.05    0.25
Q20   1   0.4607  0.5322  0.6819  11.00000  0.05    0.25
;
_shelx_res_checksum              82874
_shelx_hkl_file
;
   0  -1   0  130.49    6.50
  -1   1   0  126.79    8.50
   0  -1   0  127.09    5.70
   1  -1   0  129.09    8.40
   0   1   0  125.89    6.40
   0   1   0  125.89    6.00
  -1   0   0  144.09    8.60
   1   1   0 3448.16  107.49
   1  -2   0 3217.28  107.59
   1   1   0 3426.76  105.89
   1   1   0 3245.88  106.89
  -2   1   0 3301.37  113.79
   1  -2   0 3389.06  106.89
  -1   2   0 3277.77  106.89
  -1   2   0 3385.26  108.99
  -1  -1   0 3382.06  107.79
  -1  -1   0 3329.57  106.99
  -1  -1   0 3356.76  105.49
  -2   2   0  760.22   33.40
   0  -2   0  720.63   27.20
   2   0   0  669.83   30.70
   0  -2   0  684.03   24.30
   0  -2   0  737.73   24.00
   0   2   0  656.03   26.80
  -2   0   0  706.73   32.20
   0   2   0  705.13   26.30
   2  -2   0  676.03   31.10
   1   2   0  197.38   11.90
   2  -3   0  214.18   12.70
  -3   1   0  190.68   16.30
   2  -3   0  202.58   13.70
   1   2   0  200.28   11.00
  -1  -2   0  182.78    9.90
   3  -1   0  172.88   14.90
  -1  -2   0  189.18   11.80
  -2   3   0  195.78   14.80
  -1  -2   0  182.48   10.90
  -2   3   0  189.48   12.20
  -3   2   0  221.98   17.80
   1  -3   0  209.98   11.00
   1  -3   0  212.38   12.20
   2   1   0  198.58   12.50
   2   1   0  213.38   13.90
  -2  -1   0  192.98   14.10
  -2  -1   0  197.58   12.70
  -1   3   0  193.48   12.40
   3  -2   0  179.78   15.00
  -1   3   0  185.98   11.80
  -2  -1   0  185.08   11.00
  -3   3   0 8803.22  293.17
   3   0   0 9238.78  285.17
   3   0   0 8859.71  289.47
  -3   0   0 8822.22  292.37
   3  -3   0 8833.22  289.67
   0   3   0 9401.86  283.47
   0   3   0 9250.38  281.47
   1   3   0  123.29    9.40
   3  -4   0  134.29   11.40
   3  -4   0  126.89   11.90
  -4   1   0  119.59   14.30
  -3   4   0  143.89   14.20
  -1  -3   0  128.09    8.50
  -1  -3   0  126.69   10.40
   4  -1   0  123.59   14.00
   2  -4   0 4562.14  146.69
  -4   2   0 4520.95  160.38
   2   2   0 4351.86  146.69
   2  -4   0 4234.98  145.19
   4  -2   0 4266.07  155.58
  -2   4   0 4612.34  147.49
  -2  -2   0 4727.73  148.19
  -2  -2   0 4496.55  149.09
  -2   4   0 4473.15  151.28
  -2  -2   0 4529.55  143.79
  -4   3   0  130.49   15.60
   3   1   0  131.69   11.20
   1  -4   0  131.09   10.30
  -1   4   0  136.19   10.70
  -1   4   0  140.39   11.10
   4  -3   0  134.39   13.90
  -3  -1   0  134.89   10.20
  -3  -1   0  132.39   13.30
   4   0   0  332.77   20.40
   4   0   0  362.36   24.30
  -4   4   0  325.87   25.60
   0  -4   0  345.57   19.20
   0   4   0  325.47   18.00
   4  -4   0  298.47   21.70
  -4   0   0  341.37   25.50
   0   4   0  337.27   19.40
   4  -4   0  331.27   21.50
  -5   1   0 1361.06   67.29
   4  -5   0 1322.27   62.69
   1   4   0 1381.06   55.99
   4  -5   0 1342.17   57.79
   1   4   0 1413.36   53.89
   5  -1   0 1464.65   65.29
  -4   5   0 1496.75   67.09
  -1  -4   0 1539.05   56.69
   3  -5   0  521.65   27.50
   2   3   0  514.85   25.30
   2   3   0  507.85   27.20
   3  -5   0  506.95   26.40
  -5   2   0  578.64   37.90
  -2  -3   0  588.24   28.70
  -3   5   0  561.64   32.90
  -3   5   0  595.64   29.00
  -2  -3   0  568.14   23.90
   5  -2   0  547.95   34.30
  -2  -3   0  589.94   27.20
   3   2   0  544.35   28.30
  -5   3   0  507.85   36.20
   2  -5   0  509.15   26.70
   2  -5   0  491.15   22.00
  -2   5   0  605.94   31.00
   5  -3   0  607.94   35.50
  -3  -2   0  566.44   31.20
  -2   5   0  585.24   28.40
  -3  -2   0  614.04   26.40
  -5   4   0 1437.16   69.79
   4   1   0 1357.36   61.59
   4   1   0 1353.06   57.99
   1  -5   0 1363.46   55.89
   5  -4   0 1499.95   65.29
  -4  -1   0 1549.45   66.69
  -1   5   0 1485.25   57.59
  -4  -1   0 1565.24   56.79
  -1   5   0 1540.35   57.99
   5   0   0  551.24   31.10
  -5   5   0  576.44   38.80
   5   0   0  597.04   36.20
   5  -5   0  577.84   32.70
   5  -5   0  581.24   33.80
   0   5   0  577.44   29.90
  -5   0   0  608.94   38.70
   0   5   0  552.94   27.90
   1   5   0  715.33   35.50
  -6   1   0  712.23   45.60
   5  -6   0  708.73   37.20
   1   5   0  667.23   32.30
   5  -6   0  704.23   36.70
  -1  -5   0  674.93   34.00
  -5   6   0  671.53   43.10
   6  -1   0  648.64   41.20
   4  -6   0  162.38   15.10
  -6   2   0  183.48   20.40
   4  -6   0  144.39   13.20
   2   4   0  158.38   14.10
   2   4   0  170.38   12.70
  -4   6   0  156.28   17.40
  -2  -4   0  147.99   13.40
   6  -2   0  125.49   16.50
   3  -6   0 3891.61  134.59
   3  -6   0 3636.74  127.39
   3   3   0 3984.20  136.09
  -6   3   0 4042.60  153.68
  -3   6   0 4085.49  136.39
  -3  -3   0 3871.21  129.29
  -3  -3   0 3800.42  135.19
  -3  -3   0 4140.79  137.49
   6  -3   0 3962.10  146.59
  -3   6   0 3945.41  141.79
   4   2   0  179.58   15.20
  -6   4   0  148.19   19.40
  -2   6   0  134.39   13.70
  -4  -2   0  144.79   15.80
   6  -4   0  145.69   16.40
  -4  -2   0  135.19   11.60
  -2   6   0  122.19   12.10
   1  -6   0  675.03   33.00
   5   1   0  732.83   40.10
   5   1   0  718.53   36.50
  -6   5   0  692.93   45.70
  -5  -1   0  600.84   31.80
  -1   6   0  688.33   34.40
  -1   6   0  645.14   33.10
  -5  -1   0  685.13   41.80
   6  -5   0  676.53   39.60
  -6   6   0 5240.48  197.38
   6   0   0 5500.75  191.48
   0  -6   0 5466.05  178.78
   6   0   0 5255.87  182.58
   6  -6   0 5166.98  183.78
   6  -6   0 5283.17  185.08
   0   6   0 5292.97  180.28
  -6   0   0 5521.35  196.28
   0   6   0 5240.48  176.58
   1   6   0  152.18   13.30
   6  -7   0  160.98   15.70
   1   6   0  117.59   14.30
  -7   1   0  168.88   21.50
   6  -7   0  123.29   14.60
  -1  -6   0  174.58   15.30
   7  -1   0  156.28   25.10
  -6   7   0  159.48   20.80
   5  -7   0 1287.87   57.19
   2   5   0 1256.27   55.49
  -7   2   0 1275.07   69.19
   5  -7   0 1284.37   53.69
   2   5   0 1284.77   51.99
   7  -2   0 1291.77   65.69
  -2  -5   0 1204.38   54.19
  -5   7   0 1206.88   64.49
  -7   3   0  294.27   29.00
   4  -7   0  281.77   16.70
   4  -7   0  288.27   20.80
   3   4   0  271.27   22.40
  -4   7   0  255.47   23.50
  -3  -4   0  299.97   16.50
   7  -3   0  299.17   26.10
  -3  -4   0  289.47   21.30
   3  -7   0  300.97   20.50
  -7   4   0  314.07   30.00
   4   3   0  265.37   20.40
  -4  -3   0  288.87   21.40
  -3   7   0  248.98   19.20
  -3   7   0  272.27   22.80
   7  -4   0  279.07   25.10
  -7   5   0 1228.28   68.69
   2  -7   0 1266.77   52.99
   5   2   0 1256.67   55.99
  -5  -2   0 1192.28   59.89
   7  -5   0 1235.88   61.49
  -2   7   0 1187.58   53.19
  -2   7   0 1225.78   57.69
  -5  -2   0 1254.67   51.69
   1  -7   0  129.79   13.20
  -7   6   0  136.89   23.60
  -6  -1   0  185.48   20.80
  -1   7   0  198.28   16.60
  -6  -1   0  185.58   15.30
   7  -6   0  158.18   16.60
   7  -6   0  128.69   22.10
  -7   7   0  554.04   42.70
   0  -7   0  546.25   31.10
  -7   0   0  631.34   43.30
   0   7   0  561.24   30.90
   7  -7   0  562.84   35.30
   7  -7   0  546.35   35.00
   0   7   0  529.35   32.50
   7  -8   0  618.24   37.80
   1   7   0  600.94   32.50
   7  -8   0  620.94   36.50
  -8   1   0  619.84   46.20
   1   7   0  608.34   36.60
  -1  -7   0  654.43   35.60
  -7   8   0  645.74   46.80
   2   6   0  550.44   29.60
   2   6   0  542.95   33.00
  -8   2   0  615.34   45.20
   6  -8   0  496.25   29.70
   6  -8   0  543.95   34.00
  -6   8   0  599.44   42.60
  -2  -6   0  573.44   32.90
   5  -8   0  241.18   19.80
  -8   3   0  263.07   29.10
   3   5   0  263.97   21.20
  -3  -5   0  279.57   21.60
  -5   8   0  213.58   23.60
   4  -8   0 1124.59   51.29
  -8   4   0 1099.29   66.39
  -4  -4   0 1108.59   43.20
  -4  -4   0 1207.68   46.90
  -4   8   0 1118.29   52.29
  -4   8   0 1039.10   57.19
   3  -8   0  248.08   19.10
  -8   5   0  212.58   26.80
  -5  -3   0  239.98   17.40
  -3   8   0  243.78   21.70
  -5  -3   0  227.98   20.60
  -3   8   0  249.58   19.90
   2  -8   0  566.84   31.20
  -8   6   0  475.35   41.30
  -2   8   0  577.44   33.70
  -6  -2   0  562.94   30.70
  -6  -2   0  571.54   38.10
   1  -8   0  601.24   33.70
  -1   8   0  628.84   35.90
  -7  -1   0  621.94   33.80
   8  -7   0  606.24   39.50
  -7  -1   0  643.84   44.10
  -1   8   0  629.04   34.90
   8  -7   0  632.94   39.10
   0  -8   0  120.29   13.60
  -8   8   0  138.79   25.30
   8  -8   0  137.19   16.80
   8  -8   0  150.88   17.20
  -8   0   0  137.79   22.90
   0   8   0  141.89   14.30
  -9   1   0  379.86   35.40
   1   8   0  412.16   25.80
   8  -9   0  460.05   32.30
  -1  -8   0  359.36   39.70
  -8   9   0  323.67   34.00
   2   7   0  169.48   14.90
  -9   2   0  131.29   24.80
   7  -9   0  153.38   17.20
  -2  -7   0  128.49   14.90
   6  -9   0 1411.56   64.69
  -9   3   0 1416.36   79.49
  -3  -6   0 1404.96   64.09
  -6   9   0 1431.56   75.69
  -9   4   0  273.37   29.20
   5  -9   0  247.68   20.60
  -5   9   0  203.08   23.20
   4  -9   0  270.67   21.00
  -9   5   0  318.87   32.20
  -4   9   0  243.68   24.10
  -5  -4   0  249.58   16.20
  -5  -4   0  236.08   17.50
  -4   9   0  248.58   20.40
   3  -9   0 1346.67   60.19
  -9   6   0 1323.07   78.39
  -6  -3   0 1364.06   64.19
  -3   9   0 1441.06   66.49
  -6  -3   0 1430.76   58.19
  -3   9   0 1376.06   61.89
   2  -9   0  143.59   14.80
  -9   7   0  146.59   26.60
   9  -7   0  144.29   17.60
  -2   9   0  108.89   14.70
  -7  -2   0  158.38   19.90
  -9   8   0  375.26   37.20
   1  -9   0  426.76   27.20
  -1   9   0  372.06   26.40
  -8  -1   0  324.07   32.30
   9  -8   0  359.16   29.40
  -9   9   0 1044.20   67.09
   0  -9   0 1006.60   49.80
   9  -9   0 1006.80   54.59
  -9   0   0 1024.40   63.39
   0   9   0 1046.80   49.80
   9 -10   0   98.89   17.70
   1   9   0  108.39   12.90
 -10   1   0   86.29   19.10
  -9  10   0  138.79   26.90
  -1  -9   0  110.79   14.10
   2   8   0  571.64   32.20
   8 -10   0  573.84   37.40
 -10   2   0  566.54   47.00
  -8  10   0  586.94   47.20
  -2  -8   0  513.85   34.40
 -10   3   0  293.07   32.70
   7 -10   0  311.17   25.90
  -3  -7   0  350.86   26.60
  -7  10   0  290.97   31.50
 -10   4   0  119.99   24.50
   6 -10   0  133.69   15.70
 -10   5   0  523.15   44.80
   5 -10   0  546.25   33.10
  -5  10   0  423.36   36.10
   4 -10   0  109.19   14.10
 -10   6   0   92.79   20.80
  -6  -4   0  122.09   12.40
  -4  10   0  114.99   19.00
   3 -10   0  328.97   23.80
 -10   7   0  329.07   36.00
  -3  10   0  318.47   26.60
  -7  -3   0  309.47   22.70
  -7  -3   0  301.17   26.30
 -10   8   0  577.54   48.00
   2 -10   0  490.65   38.10
  -2  10   0  553.74   35.00
  -8  -2   0  542.35   39.60
  -8  -2   0  529.05   32.40
  10  -8   0  562.74   38.70
 -10   9   0   70.99   17.60
   1 -10   0   95.99   12.40
  10  -9   0  111.69   18.90
  -9  -1   0  102.49   21.40
  -1  10   0  110.79   13.90
 -10  10   0  231.48   48.30
   0 -10   0  303.97   24.30
  10 -10   0  304.27   27.50
 -10   0   0  355.76   35.60
   9 -11   0  331.67   27.90
 -11   2   0  343.97   35.50
   2   9   0  332.27   24.30
  -2  -9   0  380.46   28.10
  -9  11   0  382.16   37.40
   8 -11   0  104.29   17.00
 -11   3   0  144.49   26.80
  -8  11   0   89.69   21.00
   7 -11   0  220.98   21.40
 -11   4   0  191.18   31.70
  -7  11   0  245.88   28.30
   6 -11   0  369.96   27.30
 -11   5   0  361.26   37.40
  -6  11   0  318.17   32.40
   5 -11   0  386.66   27.60
 -11   6   0  345.27   37.90
  -5  11   0  391.06   34.40
   4 -11   0  213.78   20.60
 -11   7   0  211.78   35.60
  -4  11   0  262.47   28.20
   3 -11   0  114.49   14.10
 -11   8   0   51.69   17.60
  -8  -3   0   72.69   15.00
  -3  11   0  104.39   25.40
  11  -8   0   76.79   15.30
   2 -11   0  339.37   25.90
 -11   9   0  346.37   37.30
  -9  -2   0  353.06   31.40
  -2  11   0  348.67   27.50
  11  -9   0  366.36   31.30
   0   0  -1 3928.21  122.49
   0   0  -1 3967.50  123.69
   0   0   1 3885.21  123.09
   0   0   1 3958.30  122.59
  -1   0  -1   13.80    2.60
   1  -1  -1   15.90    3.10
  -1   0  -1   19.90    2.60
   1  -1  -1   16.40    3.70
  -1   1   1   16.40    4.00
  -1   1   1   24.50    4.10
   1   0   1   21.00    2.70
   0  -1  -1   18.80    3.50
   0  -1  -1   21.20    4.30
   1   0  -1   16.40    3.40
   0   1   1   15.60    3.10
  -1   0   1   20.80    3.50
   1  -1   1   21.30    1.90
   0   1   1   21.60    3.90
   2  -1  -1 2998.10  107.09
  -1  -1  -1 3098.89  102.19
  -1  -1  -1 3090.19  103.09
   1  -2   1 3192.68   96.59
   1   1   1 3138.69  102.69
  -2   1   1 3180.78  107.39
   1   1   1 3146.99  102.69
   3  -2  -1  387.66   24.90
  -2  -1  -1  378.46   19.90
  -1   3  -1  380.86   16.30
  -2  -1  -1  379.16   19.90
  -3   2   1  421.76   26.10
   2   1   1  402.86   20.50
   1  -3   1  394.46   16.00
   2  -2  -1    5.20    2.20
  -2   0  -1    2.20    1.30
   2  -2  -1    3.50    2.30
   0   2  -1    2.80    1.00
  -2   2   1    6.60    2.80
   2   0   1    1.60    1.20
   0  -2   1    3.30    1.30
   1  -2  -1 3050.59  101.29
   1  -2  -1 2908.01   98.19
   1   1  -1 2975.80   94.09
   2  -1   1 3048.50   95.59
  -1   2   1 2798.22   97.99
  -1   2   1 2920.01  100.89
   2   0  -1    4.20    1.90
   0  -2  -1    1.50    1.40
   0  -2  -1    1.60    1.80
   0   2   1    4.80    2.20
   0   2   1    2.70    1.90
  -2   0   1    2.50    1.70
  -1  -2  -1  381.06   20.40
   3  -1  -1  378.66   24.60
  -2   3  -1  367.46   18.00
   1   2   1  417.46   21.00
  -3   1   1  406.16   24.80
   2  -3   1  391.86   17.10
   1   2   1  430.46   21.10
  -2   4  -1 4625.14  146.19
  -2  -2  -1 4449.45  150.88
  -2  -2  -1 4439.66  151.18
  -2   4  -1 4362.96  147.29
   4  -2  -1 4418.06  161.98
  -2  -2  -1 4419.86  150.38
   2   2   1 4716.43  151.88
   2  -4   1 4687.83  145.49
  -4   2   1 4604.44  163.48
   2   2   1 4871.41  151.38
  -3  -2  -1  358.86   23.20
  -2   5  -1  366.96   19.20
  -3  -2  -1  345.27   21.30
  -3  -2  -1  327.27   21.60
  -2   5  -1  354.76   20.40
   5  -3  -1  385.26   29.50
  -5   3   1  362.76   29.80
   2  -5   1  380.36   18.70
   3   2   1  400.76   23.20
  -3  -1  -1   88.89    9.40
   4  -3  -1  113.09   17.40
  -3  -1  -1   99.99   10.80
  -1   4  -1   93.09    7.40
  -3  -1  -1   86.09    8.90
  -4   3   1   89.89   14.90
   3   1   1   78.29    8.80
   1  -4   1   85.09    6.90
   3  -3  -1 1363.56   56.19
   3  -3  -1 1325.17   65.49
   0   3  -1 1379.46   48.60
  -3   0  -1 1296.17   55.39
  -3   3   1 1475.75   61.79
   3   0   1 1367.66   57.59
   0  -3   1 1477.95   48.60
   2  -3  -1  895.61   40.90
   1   2  -1  892.51   33.80
   1   2  -1  895.21   30.10
  -3   1  -1  878.21   39.60
   1   2  -1  906.91   32.00
   2  -3  -1  898.71   38.50
   3  -1   1  904.91   36.20
  -2   3   1  956.10   42.20
  -2   3   1  898.71   38.40
   1  -3  -1  908.91   38.00
  -3   2  -1  902.71   39.50
   2   1  -1  926.21   38.80
   1  -3  -1  904.91   39.80
  -2  -1   1  908.71   34.60
  -1   3   1  924.21   38.60
  -1   3   1  957.20   40.80
  -3   3  -1 1322.07   52.79
   0  -3  -1 1268.37   51.19
   0  -3  -1 1313.87   52.29
   3   0  -1 1291.97   56.89
   0   3   1 1424.36   52.99
  -3   0   1 1377.16   55.29
  -3   4  -1  107.29   10.50
   4  -1  -1  108.19   13.40
  -1  -3  -1   99.49    9.50
  -1  -3  -1   86.79    9.30
   1   3   1  100.49    9.90
   3  -4   1   90.09    8.00
  -4   1   1   97.29   12.80
   1   3   1   85.09    9.10
   5  -2  -1  379.16   29.70
  -2  -3  -1  396.46   22.50
  -2  -3  -1  379.36   22.80
  -3   5  -1  360.96   23.50
   3  -5   1  380.36   19.70
   2   3   1  363.96   22.90
  -5   2   1  371.26   29.50
   2   3   1  404.96   22.70
  -3  -3  -1  839.32   42.20
   6  -3  -1  959.10   53.49
  -3  -3  -1  887.61   43.10
  -3   6  -1  864.61   42.90
  -3  -3  -1  837.82   40.50
   3  -6   1  954.50   38.50
  -6   3   1 1013.70   56.79
   3   3   1  971.60   44.00
  -4  -3  -1  227.88   21.00
  -4  -3  -1  251.87   20.40
  -4  -3  -1  266.27   19.40
  -3   7  -1  260.67   17.80
  -3   7  -1  245.28   20.00
   7  -4  -1  257.67   25.20
   3  -7   1  230.58   16.00
   4   3   1  229.08   19.40
  -7   4   1  226.18   26.10
  -4  -2  -1  323.27   21.30
  -4  -2  -1  323.97   22.90
  -2   6  -1  334.27   19.50
  -2   6  -1  333.67   20.80
  -4  -2  -1  324.37   24.30
   6  -4  -1  353.56   29.40
  -6   4   1  316.27   30.10
   2  -6   1  352.36   19.00
   4   2   1  340.17   23.20
  -1   5  -1 1647.54   62.09
   5  -4  -1 1791.32   78.59
  -1   5  -1 1693.63   60.59
  -4  -1  -1 1720.53   66.69
  -4  -1  -1 1766.02   72.39
  -5   4   1 1625.14   79.39
   1  -5   1 1747.73   61.79
   4   1   1 1755.62   68.29
   0   4  -1   39.20    5.40
   4  -4  -1   55.99   11.20
  -4   0  -1   68.99   12.30
   4  -4  -1   47.20    9.10
   4   0   1   53.69    7.30
   0  -4   1   55.09    5.90
   1   3  -1  264.47   15.00
   3  -4  -1  256.77   18.40
   1   3  -1  275.37   14.10
   3  -4  -1  274.27   20.70
  -4   1  -1  317.17   22.00
   1   3  -1  255.07   12.00
   4  -1   1  256.87   17.10
  -3   4   1  299.37   22.90
  -3   4   1  250.37   18.10
  -1  -3   1  278.27   15.50
   2  -4  -1 7111.39  232.88
   2   2  -1 7321.27  229.18
   2   2  -1 6722.73  231.58
   2  -4  -1 7554.74  236.58
  -4   2  -1 7238.98  238.58
  -2   4   1 7100.69  237.18
  -2   4   1 7500.95  234.38
   1  -4  -1  253.07   17.30
  -4   3  -1  264.17   19.90
   3   1  -1  235.98   15.90
   3   1  -1  241.78   19.10
   1  -4  -1  256.77   17.20
  -3  -1   1  268.27   17.00
  -1   4   1  255.97   18.00
  -1   4   1  249.88   17.30
   4   0  -1   51.69   11.10
  -4   4  -1   58.99   11.50
   0  -4  -1   57.29    7.50
   0  -4  -1   55.39    9.00
  -4   0   1   49.50   10.20
   0   4   1   50.39    8.80
   0   4   1   56.39    9.40
  -4   5  -1 1677.73   72.09
  -1  -4  -1 1721.53   65.19
  -1  -4  -1 1731.93   67.19
   5  -1  -1 1752.02   77.99
  -5   1   1 1732.73   77.19
   4  -5   1 1680.83   64.39
   1   4   1 1635.74   66.99
   1   4   1 1706.13   66.49
  -2  -4  -1  333.97   22.60
  -4   6  -1  333.97   25.20
  -2  -4  -1  348.57   21.20
   6  -2  -1  350.66   29.30
  -6   2   1  323.37   29.00
   4  -6   1  358.66   20.60
   2   4   1  297.77   20.60
   2   4   1  347.47   23.20
  -3  -4  -1  236.68   17.70
  -3  -4  -1  254.77   20.20
   7  -3  -1  222.68   24.40
  -3  -4  -1  248.58   19.40
   4  -7   1  245.68   17.00
  -7   3   1  211.58   24.70
   3   4   1  235.48   19.50
  -4  -4  -1 1822.02   73.49
  -4   8  -1 1810.32   80.39
  -4  -4  -1 1830.82   79.79
  -4  -4  -1 1884.91   78.99
  -8   4   1 2023.50   97.09
   4  -8   1 1901.61   71.99
  -5  -4  -1  501.35   34.00
  -4   9  -1  495.65   34.50
  -5  -4  -1  501.65   29.40
   4  -9   1  435.06   26.40
  -9   5   1  502.75   43.00
  -5  -3  -1  397.16   31.20
  -5  -3  -1  439.16   27.50
  -3   8  -1  402.16   25.00
  -8   5   1  415.26   38.70
   3  -8   1  457.55   25.00
  -2   7  -1  792.52   38.10
  -5  -2  -1  793.42   39.40
   7  -5  -1  797.92   49.00
  -2   7  -1  782.92   36.40
  -5  -2  -1  763.32   45.40
  -7   5   1  766.32   52.59
   5   2   1  736.43   40.60
   2  -7   1  793.42   36.40
   6  -5  -1  669.43   43.20
  -1   6  -1  720.03   33.00
  -5  -1  -1  756.32   36.60
  -5  -1  -1  749.23   43.40
  -1   6  -1  673.13   30.90
   6  -5  -1  713.43   40.50
   1  -6   1  664.53   31.40
  -6   5   1  715.43   48.00
   5   1   1  682.53   39.70
   5  -5  -1   59.19   10.80
  -5   0  -1   62.79   12.80
   0   5  -1   66.29    7.90
   5  -5  -1   61.99   13.40
   0   5  -1   57.79    5.60
   0  -5   1   59.39    7.20
   5   0   1   50.89    8.80
  -5   5   1   66.99   15.30
   1   4  -1 2161.88   72.59
   4  -5  -1 2159.08   84.79
   4  -5  -1 2108.49   87.89
   1   4  -1 2167.48   77.59
  -5   1  -1 2103.89   89.19
   1   4  -1 2203.78   73.39
  -1  -4   1 2233.08   77.49
  -4   5   1 2126.29   91.89
   5  -1   1 2189.88   81.49
  -5   2  -1  260.37   23.00
   2   3  -1  298.57   17.40
   3  -5  -1  268.57   23.70
   2   3  -1  294.37   17.60
   3  -5  -1  305.27   21.80
  -3   5   1  275.07   19.70
  -3   5   1  236.98   21.40
  -5   3  -1  276.37   23.60
   3   2  -1  297.37   21.00
   2  -5  -1  284.47   19.90
   3   2  -1  270.57   17.70
  -3  -2   1  270.07   13.30
  -2   5   1  254.77   20.60
  -2   5   1  282.67   19.60
  -3  -2   1  285.27   15.30
  -5   4  -1 2055.79   88.99
   1  -5  -1 2112.39   79.69
   4   1  -1 2075.19   79.09
   4   1  -1 2068.19   85.79
   1  -5  -1 2085.19   78.49
  -4  -1   1 2268.07   83.09
  -1   5   1 2110.09   81.69
  -1   5   1 2176.78   81.19
   0  -5  -1   62.99    8.30
  -5   5  -1   66.29   13.80
   5   0  -1   81.39   14.70
   0  -5  -1   55.19    9.70
   0   5   1   60.49   10.20
   0   5   1   59.29   10.70
  -5   0   1   58.79   13.20
  -1  -5  -1  727.03   31.90
  -1  -5  -1  658.73   31.90
   6  -1  -1  748.33   44.60
  -1  -5  -1  656.53   34.90
  -5   6  -1  729.33   42.90
   1   5   1  650.93   34.50
  -6   1   1  632.44   43.00
   1   5   1  714.33   36.90
   5  -6   1  605.44   33.20
  -2  -5  -1  776.12   35.80
  -5   7  -1  718.53   44.50
  -2  -5  -1  793.72   37.00
   7  -2  -1  774.12   48.70
  -2  -5  -1  771.82   39.90
  -7   2   1  826.22   51.89
   2   5   1  793.22   41.20
   2   5   1  716.63   37.50
   5  -7   1  795.42   38.10
  -3  -5  -1  455.05   27.40
  -3  -5  -1  397.26   26.20
  -5   8  -1  414.06   31.70
  -3  -5  -1  374.96   27.10
   3   5   1  425.16   26.80
  -8   3   1  417.86   37.40
   5  -8   1  419.66   25.60
  -4  -5  -1  456.75   29.20
  -4  -5  -1  472.05   31.60
  -5   9  -1  445.56   33.80
  -4  -5  -1  447.26   25.90
   5  -9   1  414.46   26.50
  -9   4   1  449.16   40.30
  -5  10  -1  303.77   28.30
  -5  -5  -1  230.48   27.00
  -5  -5  -1  348.37   22.20
 -10   5   1  302.67   32.20
   5 -10   1  342.17   22.60
  -6  -5  -1  244.28   21.60
  -5  11  -1  290.57   27.40
 -11   6   1  297.07   34.30
   5 -11   1  294.27   21.80
  -6  -4  -1  193.68   18.50
  -4  10  -1  190.88   21.20
  -6  -4  -1  181.88   20.90
   4 -10   1  250.07   18.40
 -10   6   1  171.58   29.40
  -3   9  -1  850.91   43.20
  -3   9  -1  710.63   37.30
  -6  -3  -1  749.03   47.00
   3  -9   1  700.73   35.40
  -9   6   1  640.04   51.79
  -6  -2  -1  486.85   30.60
  -6  -2  -1  519.95   38.10
  -2   8  -1  517.65   29.90
  -2   8  -1  513.05   28.50
   8  -6  -1  508.75   35.30
  -8   6   1  566.24   53.89
   2  -8   1  529.35   27.80
  -1   7  -1  170.48   14.60
   7  -6  -1  151.58   18.90
  -6  -1  -1  166.98   15.80
  -1   7  -1  169.88   13.40
  -6  -1  -1  167.98   20.70
   7  -6  -1  154.88   17.90
  -7   6   1  170.68   22.50
   1  -7   1  149.69   13.00
   6  -6  -1 1626.14   72.69
  -6   0  -1 1629.14   78.59
   6  -6  -1 1629.24   76.19
   0   6  -1 1681.33   60.19
   0   6  -1 1653.73   64.39
  -6   6   1 1503.45   80.49
   0  -6   1 1618.44   62.59
   6   0   1 1713.93   69.59
   5  -6  -1  592.24   37.90
   1   5  -1  612.24   26.60
  -6   1  -1  556.04   39.70
   5  -6  -1  546.05   34.60
   1   5  -1  632.54   30.90
  -5   6   1  577.14   41.30
   6  -1   1  617.34   36.50
  -1  -5   1  652.33   30.70
   2   4  -1  510.05   23.50
   4  -6  -1  514.15   30.70
   2   4  -1  510.55   25.30
   2   4  -1  494.65   26.60
   4  -6  -1  488.75   32.00
  -6   2  -1  528.35   37.30
  -4   6   1  525.75   35.80
   6  -2   1  491.55   29.20
   3  -6  -1 1359.56   58.99
   3   3  -1 1380.96   56.49
  -6   3  -1 1285.57   67.49
   3   3  -1 1428.56   55.79
   3  -6  -1 1332.97   57.79
  -3   6   1 1365.06   58.79
  -3   6   1 1284.67   62.19
   4   2  -1  504.95   30.90
   2  -6  -1  447.26   26.70
   4   2  -1  476.25   27.50
  -6   4  -1  509.45   37.30
   2  -6  -1  524.45   29.30
  -4  -2   1  523.45   26.80
  -4  -2   1  509.75   23.00
  -2   6   1  497.85   31.30
  -2   6   1  511.85   29.80
   1  -6  -1  584.04   29.60
   1  -6  -1  604.74   33.00
   5   1  -1  620.14   38.30
  -6   5  -1  572.84   40.70
   5   1  -1  604.14   33.10
  -5  -1   1  654.53   37.10
  -1   6   1  617.94   34.30
  -5  -1   1  631.74   29.40
  -1   6   1  657.13   34.90
   6   0  -1 1666.83  107.99
   6   0  -1 1701.63   70.89
   0  -6  -1 1677.53   61.89
   0  -6  -1 1650.63   68.39
   0  -6  -1 1701.43   60.39
  -6   6  -1 1685.83   80.29
  -6   0   1 1555.24   76.09
   6  -6   1 1676.23   69.09
   0   6   1 1673.33   68.99
   0   6   1 1674.73   70.79
  -6   7  -1  208.58   22.20
   7  -1  -1  172.58   21.50
  -1  -6  -1  167.58   12.20
  -1  -6  -1  165.38   15.80
  -1  -6  -1  146.89   11.30
   1   6   1  157.58   16.30
  -7   1   1  152.98   20.60
   6  -7   1  144.89   14.90
   1   6   1  163.18   15.30
  -2  -6  -1  481.45   31.20
  -6   8  -1  495.95   37.60
   2   6   1  527.55   30.70
  -8   2   1  529.15   41.50
   6  -8   1  513.05   30.50
  -3  -6  -1  739.13   41.40
  -6   9  -1  745.43   48.00
  -9   3   1  704.73   51.79
   6  -9   1  655.03   36.90
  -6  10  -1  208.68   23.50
  -4  -6  -1  240.88   22.40
   6 -10   1  203.28   18.40
 -10   4   1  210.58   27.80
  -6  11  -1  268.07   28.40
 -11   5   1  282.07   33.00
   6 -11   1  269.67   21.70
  11  -7  -1  432.26   35.10
  -4  11  -1  344.97   29.90
  -7  -4  -1  378.06   30.40
 -11   7   1  363.96   59.89
   4 -11   1  420.16   26.20
  -7  -3  -1  187.58   22.90
  10  -7  -1  174.68   21.50
  -3  10  -1  192.28   17.50
  -7  -3  -1  186.18   19.30
  -3  10  -1  215.58   20.50
 -10   7   1  184.78   32.00
   3 -10   1  225.08   17.60
   9  -7  -1  174.38   20.20
  -2   9  -1  150.68   15.20
  -7  -2  -1  158.98   21.20
   2  -9   1  190.78   15.50
  -9   7   1  187.18   24.90
  -1   8  -1  650.23   34.50
  -7  -1  -1  650.03   45.70
  -1   8  -1  646.94   32.80
   8  -7  -1  629.04   40.80
  -8   7   1  659.43   50.49
   1  -8   1  653.23   32.80
   0   7  -1   74.79    8.80
   7  -7  -1  116.99   18.60
  -7   0  -1   97.39   19.90
   0   7  -1   92.19   11.20
   7  -7  -1  116.79   14.70
  -7   0  -1   60.19   10.80
  -7   7   1   90.59   19.70
   0  -7   1   90.19   10.20
   6  -7  -1  203.28   20.20
   1   6  -1  156.58   14.70
  -7   1  -1  205.98   23.80
   1   6  -1  157.68   12.20
   6  -7  -1  183.08   18.70
  -1  -6   1  196.58   15.80
  -6   7   1  210.38   24.90
   2   5  -1  861.51   41.80
   5  -7  -1  917.41   47.40
   5  -7  -1  929.61   48.70
  -7   2  -1  919.21   56.19
   2   5  -1  880.21   37.30
  -2  -5   1  953.40   43.10
  -5   7   1  858.51   53.29
   7  -2   1  895.11   45.60
   4  -7  -1  102.29   12.30
   3   4  -1   79.59   10.00
   4  -7  -1   93.99   12.60
  -7   3  -1   96.79   18.60
  -4   7   1  111.09   19.10
  -4   7   1  130.99   14.30
   3  -7  -1  102.09   15.50
   4   3  -1   86.59   11.00
   3  -7  -1  101.09   12.20
   4   3  -1  108.79   12.70
  -7   4  -1   84.29   17.10
  -3   7   1  144.99   14.50
  -3   7   1  126.89   16.00
   2  -7  -1  857.51   43.50
   5   2  -1  880.11   43.60
   5   2  -1  902.11   47.80
   2  -7  -1  889.31   39.70
  -7   5  -1  948.71   57.09
  -5  -2   1  922.21   38.40
  -5  -2   1  947.71   43.70
  -2   7   1  891.61   46.40
  -2   7   1  892.91   50.89
  -7   6  -1  232.88   25.00
   6   1  -1  173.18   18.60
   6   1  -1  145.39   18.60
   1  -7  -1  162.48   15.80
  -1   7   1  180.98   17.50
  -6  -1   1  186.98   14.50
  -1   7   1  217.88   18.90
  -6  -1   1  180.68   19.60
  -7   7  -1   77.69   16.20
   0  -7  -1  106.39   12.50
   0   7   1  105.89   13.60
  -7   0   1   90.99   17.30
   0   7   1   93.49   12.00
   7  -7   1   78.29   13.20
  -1  -7  -1  695.13   38.40
  -7   8  -1  671.73   47.00
  -8   1   1  727.23   49.90
   7  -8   1  606.34   36.70
   1   7   1  689.43   37.30
  -2  -7  -1  162.58   17.20
  -7   9  -1  173.88   21.30
   7  -9   1  121.09   15.00
  -9   2   1  149.69   26.30
   2   7   1  158.28   16.30
  -3  -7  -1  203.18   20.30
  -7  10  -1  208.58   25.00
   7 -10   1  207.38   19.60
 -10   3   1  226.78   28.60
  -4  -7  -1  392.86   31.40
  -7  11  -1  417.86   38.30
 -11   4   1  447.26   41.60
   7 -11   1  444.66   29.90
  11  -8  -1  145.59   19.50
  -3  11  -1  196.08   19.20
  -8  -3  -1  164.18   25.30
   3 -11   1  127.09   14.90
 -11   8   1  126.09   25.10
  -2  10  -1  413.46   27.70
  10  -8  -1  415.26   33.70
  -8  -2  -1  390.86   35.90
 -10   8   1  549.65   45.50
   2 -10   1  409.46   25.80
  -1   9  -1  460.95   27.80
  -8  -1  -1  398.56   45.70
   9  -8  -1  502.65   36.20
  -1   9  -1  509.75   31.10
   1  -9   1  531.95   29.10
  -9   8   1  532.65   45.70
  -8   0  -1  136.79   25.20
   0   8  -1  118.19   11.60
   0   8  -1  120.09   13.90
   8  -8  -1  132.19   17.60
  -8   8   1  111.59   22.40
   0  -8   1  128.79   12.70
   7  -8  -1  558.64   37.50
   1   7  -1  620.74   33.90
  -8   1  -1  636.04   46.70
   7  -8  -1  642.14   39.40
  -1  -7   1  532.75   31.30
  -7   8   1  501.05   48.40
   6  -8  -1  489.75   32.30
   2   6  -1  458.75   28.10
  -8   2  -1  440.66   38.20
   2   6  -1  479.95   25.10
   6  -8  -1  463.05   32.40
  -6   8   1  416.36   37.10
  -2  -6   1  438.16   27.70
  -8   3  -1  294.77   30.50
   3   5  -1  275.57   21.10
   5  -8  -1  295.27   23.20
   5  -8  -1  311.27   24.70
  -5   8   1  279.97   28.40
   4  -8  -1 1426.46   64.09
   4   4  -1 1402.06   61.69
  -8   4  -1 1415.76   78.49
   4  -8  -1 1434.56   60.49
  -4   8   1 1449.95   71.79
  -4   8   1 1518.55   66.59
  -8   5  -1  317.67   31.60
   3  -8  -1  284.87   17.90
   3  -8  -1  275.27   22.00
  -3   8   1  269.87   22.40
  -3   8   1  271.27   24.70
  -8   6  -1  435.76   38.20
   2  -8  -1  471.65   29.50
   6   2  -1  420.56   31.70
  -2   8   1  417.86   29.20
  -6  -2   1  390.66   22.90
  -6  -2   1  445.06   28.80
  -2   8   1  390.26   29.20
   1  -8  -1  588.54   33.60
  -8   7  -1  598.04   49.40
  -1   8   1  493.55   32.40
  -7  -1   1  492.55   28.10
  -7  -1   1  472.45   35.00
   8  -7   1  521.35   33.50
   0  -8  -1  133.59   16.50
  -8   8  -1  191.28   23.90
  -8   0   1  120.59   20.90
   8  -8   1  134.79   15.90
   0   8   1  123.29   14.90
  -8   9  -1  499.85   42.20
  -1  -8  -1  473.95   31.60
   8  -9   1  505.25   32.60
   1   8   1  489.25   31.20
  -8  10  -1  394.06   37.10
  -2  -8  -1  416.86   30.40
   2   8   1  456.75   29.90
   8 -10   1  409.56   29.30
 -10   2   1  453.15   40.00
  -3  -8  -1  166.38   18.20
  -8  11  -1  148.59   24.80
 -11   3   1  148.09   26.60
   8 -11   1  110.29   20.50
  10  -9  -1   95.49   17.30
  -9  -1  -1  111.59   20.20
  -1  10  -1   99.69   14.40
 -10   9   1  126.69   27.00
   1 -10   1  111.69   12.70
  -9   0  -1  454.05   39.70
   9  -9  -1  434.26   33.90
   0   9  -1  422.26   25.10
  -9   9   1  453.65   42.00
   0  -9   1  389.26   26.40
  -9   1  -1  574.74   46.30
   8  -9  -1  637.44   41.60
   1   8  -1  615.44   31.20
  -8   9   1  661.43   51.49
  -1  -8   1  627.44   35.10
   7  -9  -1  231.48   22.10
  -9   2  -1  234.88   28.50
   2   7  -1  239.38   16.70
   7  -9  -1  244.38   41.20
  -7   9   1  210.78   27.40
  -9   3  -1  500.65   44.00
   6  -9  -1  578.14   37.80
   6  -9  -1  591.04   34.80
  -6   9   1  698.33   49.99
  -9   4  -1  372.76   37.00
   5  -9  -1  385.66   24.50
   5  -9  -1  382.46   28.60
  -5   9   1  395.06   33.70
  -9   5  -1  404.26   38.00
   4  -9  -1  368.06   27.60
  -4   9   1  421.46   33.50
   3  -9  -1  582.04   35.80
  -9   6  -1  613.64   49.10
  -3   9   1  681.53   42.00
  -9   7  -1  184.18   30.30
   2  -9  -1  206.88   20.20
  -7  -2   1  210.48   20.50
  -2   9   1  251.57   22.80
  -7  -2   1  236.78   17.30
   1  -9  -1  604.64   36.50
  -9   8  -1  650.63   49.99
  -8  -1   1  568.64   32.70
   9  -8   1  640.54   39.40
  -8  -1   1  661.53   42.90
  -1   9   1  659.43   39.20
   0  -9  -1  432.56   29.90
  -9   9  -1  397.96   38.70
   0   9   1  392.16   28.60
  -9   0   1  383.16   34.00
  -9  10  -1  116.59   22.10
  -1  -9  -1   95.99   16.20
   9 -10   1  100.49   16.20
   1   9   1   97.19   15.20
 -10   1   1   69.59   15.50
   9 -11   1  251.77   23.90
  10 -10  -1  276.27   26.30
 -10   0  -1  253.07   29.10
   0  10  -1  286.07   20.30
 -10  10   1  222.68   29.60
   0 -10   1  267.57   22.20
 -10   1  -1  101.89   21.20
   9 -10  -1  135.19   21.80
   1   9  -1  113.59   12.10
  -1  -9   1  113.09   14.70
  -9  10   1  161.98   27.80
 -10   2  -1  592.94   47.80
   8 -10  -1  518.65   36.00
   8 -10  -1  456.45   35.80
  -8  10   1  535.05   45.50
   7 -10  -1  236.78   23.90
   7 -10  -1  243.88   21.70
 -10   3  -1  256.77   30.20
  -7  10   1  301.77   33.00
 -10   4  -1  145.99   25.90
   6 -10  -1  139.59   14.60
   6 -10  -1  155.58   18.20
  -6  10   1  169.08   22.60
   5 -10  -1  201.28   20.40
 -10   5  -1  158.78   27.80
  -5  10   1  214.38   24.70
 -10   6  -1  116.79   24.40
   4 -10  -1  116.69   15.00
 -10   7  -1  302.17   33.60
   3 -10  -1  301.47   24.10
  -7  -3   1  280.17   17.70
   2 -10  -1  491.45   32.80
 -10   8  -1  452.65   43.40
  -8  -2   1  508.25   29.10
  -8  -2   1  544.05   35.00
  10  -8   1  513.05   36.20
  -2  10   1  529.65   38.40
   1 -10  -1  124.19   16.00
 -10   9  -1  131.49   26.10
  10  -9   1  119.19   16.10
  -1  10   1  181.68   18.30
  -9  -1   1  101.69   19.70
   0 -10  -1  253.67   23.50
 -10  10  -1  249.97   33.40
 -10   0   1  298.77   32.80
  10 -10   1  271.77   25.40
   0  10   1  239.08   22.60
   9 -11  -1  337.37   29.90
 -11   3  -1  101.49   22.20
   8 -11  -1  121.09   19.50
  -8  11   1  182.28   29.20
   7 -11  -1  284.67   27.00
 -11   4  -1  358.96   37.50
  -7  11   1  355.06   36.30
 -11   5  -1  239.08   29.90
   6 -11  -1  235.68   22.90
  -6  11   1  235.68   28.90
 -11   6  -1  158.48   29.00
   5 -11  -1  226.18   22.00
  -5  11   1  187.18   23.10
 -11   7  -1  327.67   64.29
   4 -11  -1  326.17   26.50
  -4  11   1  351.26   31.10
   3 -11  -1  167.98   18.00
 -11   8  -1  152.58   28.90
  11  -8   1  145.09   19.40
  -3  11   1  200.78   21.60
  11  -9   1  376.66   31.10
   0   0  -2 9394.16  304.07
   0   0  -2 9999.00  301.97
   0   0   2 9851.11  301.87
  -1   0  -2  231.38   12.30
   0   1  -2  227.58   11.30
   1  -1  -2  227.68   15.60
   1  -1  -2  219.48   13.80
  -1   0  -2  216.88   13.50
   0   1  -2  218.68   10.30
  -1   1   2  229.28   14.90
  -1   1   2  215.08   13.60
   1   0   2  208.88   12.30
  -1   1  -2  217.78   10.00
   1   0  -2  226.08   14.20
   1   0  -2  249.88   13.50
   0  -1  -2  213.78   13.20
   0  -1  -2  221.58   15.00
   0   1   2  215.48   13.40
   0   1   2  210.68   14.20
   1  -1   2  214.48   10.30
  -1   0   2  197.78   12.10
  -1  -1  -2 2810.12   99.39
   2  -1  -2 2722.13  104.29
   2  -1  -2 2840.22  102.29
  -1  -1  -2 2688.13  101.59
   1   1   2 3364.06  102.69
  -2   1   2 3103.89  104.09
   1   1   2 3189.98  101.19
   3  -2  -2  387.96   26.20
   3  -2  -2  376.46   23.90
  -2  -1  -2  407.36   22.70
  -2  -1  -2  357.66   20.50
  -3   2   2  379.66   25.00
   2   1   2  395.16   21.90
   2   1   2  388.06   21.50
  -2   0  -2  162.08   10.80
   0   2  -2  148.99    6.80
   2  -2  -2  157.88   12.80
  -2   2   2  153.08   13.90
  -2   2   2  128.99   11.80
   2   0   2  129.59   10.20
  -2   1  -2 4464.75  139.29
   1   1  -2 4611.34  140.69
   1  -2  -2 4341.57  144.89
   1  -2  -2 4480.25  149.69
  -1   2   2 4232.38  147.69
  -1   2   2 4329.87  145.09
   2  -1   2 4200.78  139.29
   2   0  -2  131.19   11.70
   0  -2  -2  133.79   13.00
   0  -2  -2  148.79   11.70
   0   2   2  153.18   12.80
  -2   0   2  127.99   10.20
   2  -2   2  136.29    7.40
  -1  -2  -2  387.86   23.10
   3  -1  -2  377.06   25.00
   1   2   2  387.16   22.30
  -3   1   2  369.06   23.40
   1   2   2  380.56   22.00
   4  -2  -2 8444.86  285.47
  -2  -2  -2 8483.05  274.27
  -2  -2  -2 8684.93  276.97
  -4   2   2 8444.16  283.57
   2   2   2 8812.02  284.17
   2   2   2 8511.75  275.37
  -3  -2  -2  216.18   17.40
   5  -3  -2  242.78   23.00
  -3  -2  -2  209.38   16.70
   2  -5   2  174.48    9.40
  -5   3   2  187.28   20.50
   3   2   2  189.98   16.20
   4  -3  -2  420.26   30.60
  -3  -1  -2  456.15   24.70
  -3  -1  -2  415.46   24.90
   3   1   2  419.56   24.40
  -4   3   2  464.45   31.50
  -3   0  -2 4114.39  135.69
   0   3  -2 4197.98  127.79
   3  -3  -2 4128.09  146.59
  -3   0  -2 4141.39  138.19
   3   0   2 3896.21  135.49
  -3   3   2 3918.41  144.99
   2  -3  -2  162.68   15.30
   1   2  -2  156.18    9.20
   2  -3  -2  152.58   13.20
   1   2  -2  144.19    7.90
  -3   1  -2  146.89   10.70
  -2   3   2  120.09   13.20
  -2   3   2  136.69   12.60
   3  -1   2  123.29   10.00
   1  -3  -2  145.89   12.50
   2   1  -2  133.19   11.00
   1  -3  -2  154.38   14.70
  -1   3   2  151.88   14.10
  -2  -1   2  132.39    7.40
   3  -2   2  125.69    9.00
  -1   3   2  123.39   11.90
   3   0  -2 3748.22  140.09
   0  -3  -2 4057.49  137.49
   0  -3  -2 4194.78  135.09
   0   3   2 3903.01  134.89
   0   3   2 3894.61  136.19
   3  -3   2 3834.02  125.19
  -3   0   2 3897.61  133.09
   4  -1  -2  370.96   27.60
  -1  -3  -2  391.96   23.80
  -1  -3  -2  390.96   25.00
   1   3   2  405.76   32.30
   3  -4   2  429.16   18.20
  -4   1   2  448.36   27.70
   5  -2  -2  231.58   22.90
  -2  -3  -2  231.68   17.60
  -2  -3  -2  234.18   18.30
  -3   5  -2  227.48   14.50
  -5   2   2  180.88   19.30
   2   3   2  194.18   16.50
   3  -5   2  183.28   10.60
   2   3   2  180.28   15.80
   6  -3  -2 1634.34   87.69
  -3  -3  -2 1768.22   72.29
  -3   6  -2 1782.82   67.09
  -3  -3  -2 1858.11   73.69
  -3  -3  -2 1882.01   73.69
   3   3   2 1795.92   75.59
  -6   3   2 1677.23   83.49
   3  -6   2 1744.23   60.69
  -4  -3  -2  509.15   32.30
  -4  -3  -2  460.45   30.30
  -4  -3  -2  452.45   30.10
  -3   7  -2  472.45   27.30
  -7   4   2  489.95   40.70
   3  -7   2  498.45   22.10
  -2   6  -2  264.07   14.50
  -2   6  -2  236.98   13.80
  -4  -2  -2  233.48   20.60
  -4  -2  -2  251.97   20.00
   6  -4  -2  255.87   26.50
  -4  -2  -2  261.37   20.30
   2  -6   2  233.38   12.70
   4   2   2  232.78   19.50
  -6   4   2  249.68   26.40
  -4  -1  -2 1214.78   54.99
  -4  -1  -2 1309.97   59.19
  -1   5  -2 1264.27   46.60
   5  -4  -2 1283.67   65.49
  -4  -1  -2 1304.97   56.49
   1  -5   2 1371.86   46.10
  -5   4   2 1356.26   67.59
   4   1   2 1373.66   56.69
   4  -4  -2  906.71   45.30
   0   4  -2  874.51   33.10
   4  -4  -2  842.72   47.70
  -4   0  -2  856.01   43.50
  -4   0  -2  888.31   40.30
  -4   4   2  862.61   48.30
   4   0   2  858.31   39.70
  -4   1  -2  418.16   26.30
   1   3  -2  399.56   18.60
   3  -4  -2  396.76   28.20
  -3   4   2  413.06   25.70
  -3   4   2  383.06   27.90
   4  -1   2  362.96   21.40
   2  -4  -2 2871.61  106.09
   2   2  -2 2876.91   98.99
  -4   2  -2 2838.32  131.79
   2   2  -2 2881.71  100.19
   2  -4  -2 3010.80  111.49
  -2   4   2 3087.29  107.59
   4  -2   2 3023.80  100.79
   1  -4  -2  410.06   26.10
   1  -4  -2  370.46   23.60
   3   1  -2  391.66   24.30
  -4   3  -2  409.46   24.70
  -3  -1   2  351.16   18.20
  -1   4   2  357.16   23.50
   4  -3   2  394.16   19.70
   4   0  -2  899.71   46.00
  -4   4  -2  843.42   40.50
   0  -4  -2  865.41   41.20
   0  -4  -2  868.21   42.90
  -4   0   2  847.02   40.60
   0   4   2  868.01   42.60
   5  -1  -2 1281.07   64.29
  -1  -4  -2 1235.18   56.09
  -4   5  -2 1307.27   54.89
  -1  -4  -2 1169.88   54.49
   1   4   2 1330.97   56.79
   1   4   2 1347.87   57.39
   4  -5   2 1303.37   48.80
  -5   1   2 1378.86   62.29
  -2  -4  -2  244.68   19.90
  -4   6  -2  267.67   20.00
  -2  -4  -2  269.37   20.50
   4  -6   2  241.08   14.40
   2   4   2  243.78   20.30
  -6   2   2  246.28   25.10
   2   4   2  248.08   19.60
  -4   7  -2  509.65   31.70
  -3  -4  -2  514.35   31.80
  -3  -4  -2  504.85   31.60
  -3  -4  -2  525.55   31.70
  -7   3   2  529.05   40.90
   3   4   2  592.74   50.59
   3   4   2  500.25   31.00
   4  -7   2  543.35   24.70
  -4  -4  -2  711.43   46.20
  -4  -4  -2  668.63   39.80
  -4  -4  -2  704.53   39.50
  -4   8  -2  702.43   53.19
  -8   4   2  690.43   51.19
   4  -8   2  717.83   31.10
  -5  -4  -2  205.68   20.70
  -4   9  -2  209.38   19.80
  -5  -4  -2  199.68   19.50
   4  -9   2  174.48   13.70
  -9   5   2  198.78   26.60
  -5  -3  -2  153.38   17.50
  -5  -3  -2   98.39   15.40
  -3   8  -2  116.09   12.80
  -5  -3  -2   91.79   21.40
  -8   5   2  102.19   33.60
   3  -8   2   93.59    8.70
  -2   7  -2 2069.19   74.99
  -5  -2  -2 2077.19   84.19
  -5  -2  -2 2152.88   88.99
   7  -5  -2 2115.99   90.29
  -5  -2  -2 2001.10   84.39
  -2   7  -2 2082.99   73.59
  -7   5   2 1983.30   99.89
   2  -7   2 2057.59   71.79
  -5  -1  -2  164.78   18.10
  -1   6  -2  158.38   11.60
   6  -5  -2  180.68   18.90
   6  -5  -2  158.88   20.20
   5   1   2  201.48   17.50
   1  -6   2  193.78   11.80
  -6   5   2  181.48   22.10
   0   5  -2   50.09    6.10
  -5   0  -2   62.09   11.10
  -5   0  -2   37.50    8.80
   5  -5  -2   64.59   13.00
   5  -5  -2   79.59   15.80
  -5   5   2   44.00   12.40
   5   0   2   41.60    8.30
   4  -5  -2 2710.83  102.39
   4  -5  -2 2708.23  107.09
   1   4  -2 2615.04   89.19
  -5   1  -2 2514.65  101.89
   5  -1   2 2523.85   95.19
  -4   5   2 2618.74  107.59
   2   3  -2  193.48   13.80
   2   3  -2  181.38   12.80
   3  -5  -2  188.58   19.10
  -5   2  -2  214.98   19.10
   3  -5  -2  182.08   16.30
  -3   5   2  167.38   16.10
   5  -2   2  179.48   14.40
  -3   5   2  186.78   19.10
   3   2  -2  172.38   15.60
   2  -5  -2  152.48   16.90
   3   2  -2  191.18   14.00
   2  -5  -2  146.59   14.30
  -5   3  -2  172.28   17.10
  -2   5   2  171.58   17.10
  -2   5   2  143.19   15.20
   5  -3   2  182.48   13.90
   1  -5  -2 2464.15   94.59
   1  -5  -2 2620.74   97.99
   4   1  -2 2594.14  100.59
  -5   4  -2 2569.34   98.19
  -1   5   2 2418.66   95.49
  -1   5   2 2436.46   96.99
  -4  -1   2 2513.85   89.19
   0  -5  -2   62.99   11.70
   0  -5  -2   47.50    9.00
  -5   5  -2   52.99   10.90
   5   0  -2   59.49   13.30
  -5   0   2   58.49   11.20
   0   5   2   40.40    9.40
   0   5   2   40.10    8.40
  -1  -5  -2  183.08   17.00
   6  -1  -2  169.38   33.00
  -5   6  -2  165.78   17.70
  -1  -5  -2  132.69   14.50
   1   5   2  160.28   16.50
   5  -6   2  200.78   14.10
   1   5   2  153.88   15.60
  -6   1   2  177.18   20.40
  -2  -5  -2 2093.89   83.49
  -2  -5  -2 2036.60   80.69
  -5   7  -2 2166.58   88.79
  -2  -5  -2 2114.19   84.69
   2   5   2 2086.39   83.19
  -7   2   2 2003.20   94.99
   5  -7   2 1994.30   74.89
  -3  -5  -2   79.49   14.10
  -3  -5  -2  111.19   13.30
  -5   8  -2  119.59   15.50
  -3  -5  -2   96.19   16.70
   5  -8   2   94.39    9.70
  -8   3   2  109.69   21.90
   3   5   2   94.99   12.30
  -4  -5  -2  180.48   18.90
  -5   9  -2  220.88   21.90
  -4  -5  -2  197.38   19.80
  -4  -5  -2  208.58   20.60
  -9   4   2  173.68   29.10
  -5  -5  -2  828.52   49.60
  -5  -5  -2  868.61   45.90
  -5  -5  -2  841.52   49.20
  -5  10  -2  835.62   48.70
   5 -10   2  846.22   37.60
 -10   5   2  850.01   60.79
  -5  11  -2  133.69   21.50
  -6  -5  -2  106.89   18.90
 -11   6   2  124.49   26.60
   5 -11   2  132.09   13.00
  10  -6  -2  182.98   21.80
  -6  -4  -2  226.88   24.30
  -4  10  -2  192.48   19.70
 -10   6   2  145.99   27.80
   4 -10   2  189.68   14.00
   9  -6  -2  496.65   37.30
  -6  -3  -2  515.05   37.90
  -3   9  -2  490.05   31.50
  -9   6   2  441.66   41.80
   8  -6  -2  145.29   18.30
  -6  -2  -2  145.59   18.80
  -2   8  -2  136.49   11.80
  -2   8  -2  175.98   13.80
   2  -8   2  121.39   10.40
  -8   6   2  131.49   25.10
  -1   7  -2  139.99   11.20
  -6  -1  -2  124.09   20.40
   7  -6  -2  144.49   17.50
  -6  -1  -2  113.99   14.40
  -7   6   2  137.49   26.40
   1  -7   2  129.99   10.60
   6  -6  -2 1765.82   79.09
   0   6  -2 1735.23   64.29
  -6   0  -2 1680.53   71.49
  -6   0  -2 1796.92   80.79
   6  -6  -2 1816.72   85.39
   0  -6   2 1742.63   63.79
   6   0   2 1611.84   71.29
  -6   6   2 1685.73   86.69
   5  -6  -2   49.90   12.20
   1   5  -2   64.19    7.80
   5  -6  -2   62.79   12.70
  -6   1  -2   46.90   11.20
  -5   6   2   62.19   14.30
   6  -1   2   60.49   10.50
   4  -6  -2   19.20    6.40
   4  -6  -2   19.10    8.00
  -6   2  -2   24.00    7.90
   2   4  -2   14.00    5.20
   2   4  -2   27.40    5.60
  -4   6   2    9.50    5.20
   6  -2   2    8.50    4.10
  -4   6   2    2.60    4.20
   3  -6  -2 1963.40   81.09
   3  -6  -2 1842.42   76.59
   3   3  -2 1970.20   89.49
   3   3  -2 2006.60   70.89
  -6   3  -2 1895.91   82.99
  -3   6   2 1776.22   76.59
  -3   6   2 1694.23   80.19
   6  -3   2 1700.23   71.39
   4   2  -2   12.20    5.80
   4   2  -2   21.80    5.40
   2  -6  -2   30.40    8.20
  -6   4  -2   18.30    6.90
   2  -6  -2   19.70    7.00
  -2   6   2    6.80    4.20
  -2   6   2    8.90    5.90
   5   1  -2   64.09   13.70
   1  -6  -2   58.19   11.90
   1  -6  -2   56.09   10.90
  -6   5  -2   54.59   12.20
   5   1  -2   57.89   10.20
  -1   6   2   51.89   10.50
  -5  -1   2   73.09    9.50
  -1   6   2   64.19   11.20
  -6   6  -2 1819.62   82.19
   6   0  -2 1892.71   85.59
   0  -6  -2 1780.52   73.89
   0  -6  -2 1788.12   73.49
   0   6   2 1689.13   74.69
  -6   0   2 1733.43   76.09
   0   6   2 1633.94   73.49
  -6   7  -2  134.39   17.80
  -1  -6  -2  142.89   15.30
  -1  -6  -2  139.59   15.20
   1   6   2  145.39   15.80
  -7   1   2  153.58   19.70
  -2  -6  -2  143.29   14.60
  -2  -6  -2  116.49   19.70
  -2  -6  -2  137.99   14.00
  -6   8  -2  115.89   19.30
   6  -8   2  111.49   11.30
  -8   2   2   99.79   19.70
   2   6   2  125.49   14.70
  -3  -6  -2  485.45   32.50
  -6   9  -2  468.15   35.50
  -3  -6  -2  481.15   30.00
  -3  -6  -2  444.96   29.30
  -9   3   2  400.86   38.80
   3   6   2  431.26   30.20
   6  -9   2  408.26   24.70
  -4  -6  -2  201.28   21.20
  -6  10  -2  192.48   22.00
  -4  -6  -2  220.18   20.40
  -4  -6  -2  185.68   20.70
   6 -10   2  221.18   16.40
 -10   4   2  206.08   33.10
  -6  11  -2  161.28   20.10
  -5  -6  -2  154.28   27.90
  -5  -6  -2  109.89   17.20
   6 -11   2  118.99   13.50
 -11   5   2  143.99   26.20
  11  -7  -2  119.19   22.40
  -4  11  -2  126.79   16.60
  -7  -4  -2   64.29   18.80
   4 -11   2  125.39   12.40
 -11   7   2   88.89   22.90
  -7  -3  -2  696.83   65.99
  10  -7  -2  567.74   41.40
  -3  10  -2  505.85   32.40
 -10   7   2  580.94   49.20
   3 -10   2  604.34   28.80
   9  -7  -2  292.47   27.40
  -2   9  -2  251.97   19.10
  -7  -2  -2  212.88   49.10
  -2   9  -2  280.27   18.70
  -9   7   2  311.17   35.00
   2  -9   2  286.57   17.70
  -7  -1  -2  372.36   33.40
  -1   8  -2  383.86   23.00
   8  -7  -2  329.07   29.80
  -1   8  -2  382.86   20.70
  -8   7   2  494.35   42.60
   1  -8   2  457.15   23.20
  -7   0  -2  635.44   45.10
   7  -7  -2  672.83   43.00
   0   7  -2  690.23   33.10
   0  -7   2  665.93   31.90
   6  -7  -2  239.58   26.10
  -7   1  -2  221.28   24.80
   1   6  -2  256.57   17.80
   1   6  -2  244.68   13.10
   6  -7  -2  259.47   24.10
  -6   7   2  278.87   29.20
   5  -7  -2  925.41   57.69
   5  -7  -2  942.71   51.19
   2   5  -2  908.91   42.10
   2   5  -2  952.50   39.90
  -7   2  -2  945.81   56.19
  -5   7   2 1032.00   58.99
   7  -2   2 1013.70   48.20
   3   4  -2  795.32   38.30
  -7   3  -2  733.63   48.20
   4  -7  -2  774.52   43.20
   3   4  -2  740.53   36.50
   4  -7  -2  745.33   44.40
  -4   7   2  722.73   42.30
   7  -3   2  802.92   40.60
  -4   7   2  768.82   47.70
   4   3  -2  766.12   37.80
   3  -7  -2  691.93   40.80
  -7   4  -2  669.03   46.90
   4   3  -2  922.61   44.70
   3  -7  -2  771.62   43.40
   7  -4   2  764.82   39.40
  -3   7   2  779.72   45.80
  -3   7   2  793.52   43.00
   2  -7  -2  878.51   47.10
   2  -7  -2  940.81   47.70
   5   2  -2  901.71   51.19
   5   2  -2  923.21   45.00
  -7   5  -2  878.01   55.29
  -2   7   2 1087.29   51.59
  -2   7   2 1043.10   52.49
   1  -7  -2  246.08   21.00
  -7   6  -2  249.48   27.50
   1  -7  -2  244.38   21.40
   6   1  -2  289.07   26.70
  -6  -1   2  292.27   21.40
  -1   7   2  259.17   22.70
  -6  -1   2  259.87   16.70
   0  -7  -2  625.84   35.00
  -7   7  -2  590.64   43.50
   0  -7  -2  638.94   37.70
   0   7   2  629.74   38.40
   7  -7   2  687.23   35.70
  -7   0   2  669.23   41.00
  -1  -7  -2  386.36   28.50
  -1  -7  -2  378.76   26.00
  -7   8  -2  368.66   33.90
   7  -8   2  468.45   27.30
  -8   1   2  434.16   36.00
   1   7   2  461.75   30.60
  -2  -7  -2  256.57   20.20
  -2  -7  -2  264.17   24.50
  -2  -7  -2  261.47   23.10
  -7   9  -2  261.07   27.60
   7  -9   2  257.27   19.40
  -9   2   2  292.97   59.09
   2   7   2  308.57   24.20
  -3  -7  -2  549.95   29.90
  -3  -7  -2  531.55   31.90
  -3  -7  -2  507.45   35.30
 -10   3   2  515.75   44.50
   7 -10   2  571.84   31.40
   3   7   2  607.84   37.00
  -4  -7  -2  153.98   32.20
  -7  11  -2  132.39   22.20
 -11   4   2  141.29   26.40
   7 -11   2  141.89   15.20
  -3  11  -2   27.00    8.10
  11  -8  -2   46.80   11.60
  -8  -3  -2   14.10   10.00
 -11   8   2   -0.70    7.90
   3 -11   2   13.50    5.80
  -2  10  -2 1033.70   45.50
  -8  -2  -2  935.91   60.99
  10  -8  -2 1006.30   57.99
  -2  10  -2  962.50   50.99
   2 -10   2  966.90   43.10
 -10   8   2  993.20   69.39
   9  -8  -2  430.66   34.50
  -8  -1  -2  441.96   38.80
  -1   9  -2  438.36   25.70
  -1   9  -2  420.86   23.40
   1  -9   2  438.26   25.00
  -9   8   2  439.66   42.10
   0   8  -2   36.10    7.50
   8  -8  -2   22.50    9.50
  -8   0  -2   44.70   13.00
   0   8  -2   32.00    5.50
  -8   8   2   22.70    9.30
   1   7  -2 1064.39   47.50
  -8   1  -2 1057.39   64.79
   1   7  -2 1046.60   40.40
   7  -8  -2 1037.10   58.09
  -7   8   2 1008.50   66.09
   6  -8  -2  392.06   33.00
   2   6  -2  385.36   24.10
  -8   2  -2  377.16   35.20
   6  -8  -2  352.56   29.70
  -6   8   2  299.67   39.00
   3   5  -2  365.36   22.00
   5  -8  -2  344.47   27.80
   3   5  -2  322.77   25.00
  -8   3  -2  235.48   39.80
  -5   8   2  274.07   29.30
  -8   4  -2 2025.90  117.69
   4  -8  -2 2122.09   88.79
   4  -8  -2 2068.89   86.99
   4   4  -2 2026.00   80.29
   4   4  -2 2070.69   82.39
   8  -4   2 1991.70   86.19
  -4   8   2 2034.30   93.79
   3  -8  -2  314.27   25.10
   5   3  -2  301.87   24.90
   3  -8  -2  329.47   25.50
  -8   5  -2  370.86   36.70
   5   3  -2  340.57   32.60
   8  -5   2  283.17   23.20
  -3   8   2  326.37   28.20
   6   2  -2  315.57   28.80
  -8   6  -2  323.27   35.70
   2  -8  -2  344.07   24.80
   2  -8  -2  342.47   26.20
  -2   8   2  356.66   28.40
  -6  -2   2  348.37   19.20
   1  -8  -2 1048.50   51.99
   1  -8  -2  978.90   46.40
  -7  -1   2  940.11   42.20
  -7  -1   2 1010.60   49.40
  -1   8   2 1029.70   53.59
  -8   8  -2   47.50   14.10
   0  -8  -2   30.00    7.00
   0  -8  -2   24.50    7.70
  -8   0   2   14.50    8.20
   0   8   2    9.60    6.00
   8  -8   2    8.80    6.10
  -8   9  -2  403.96   36.90
  -1  -8  -2  423.26   30.80
   8  -9   2  402.16   26.90
  -9   1   2  415.96   35.80
   1   8   2  398.56   29.40
  -8  10  -2 1006.10   61.29
  -2  -8  -2  978.00   52.59
   8 -10   2  906.01   46.30
 -10   2   2  973.90   62.79
   2   8   2  975.00   51.59
  -8  11  -2   23.60   12.80
  -3  -8  -2   21.70    7.80
 -11   3   2   11.70   11.10
   8 -11   2   20.20    8.20
  -1  10  -2   91.69   13.30
  -9  -1  -2  108.69   21.30
  -1  10  -2   79.79   10.10
  10  -9  -2   93.19   17.30
 -10   9   2   87.99   22.10
   0   9  -2  376.66   25.10
  -9   0  -2  352.66   35.90
   0   9  -2  386.46   23.80
   9  -9  -2  387.16   32.30
  -9   9   2  340.67   37.90
  -9   1  -2  192.88   25.00
   1   8  -2  170.78   15.40
   1   8  -2  131.19   14.10
   8  -9  -2  165.98   20.80
  -8   9   2  120.59   24.30
  -9   2  -2   65.59   19.70
   7  -9  -2   64.89   13.90
   2   7  -2   50.39   10.50
  -7   9   2   40.20   13.70
   3   6  -2  583.74   33.90
  -9   3  -2  626.44   49.60
   6  -9  -2  633.24   41.40
   6  -9  -2  580.64   41.30
  -6   9   2  568.24   45.70
  -9   4  -2   95.79   21.10
   5  -9  -2  126.69   21.10
   5  -9  -2  132.99   16.50
  -5   9   2   98.89   19.60
  -9   5  -2  111.79   22.10
   5   4  -2  107.69   16.40
   4  -9  -2  165.18   18.50
   4  -9  -2   96.09   16.50
  -4   9   2   98.39   28.90
   3  -9  -2  561.94   36.70
  -9   6  -2  575.14   47.30
   3  -9  -2  606.14   34.80
  -9   7  -2   74.59   19.40
   2  -9  -2   81.49   14.80
  -2   9   2   77.59   16.20
  -7  -2   2   57.09    9.40
  -7  -2   2   53.19    8.40
  -9   8  -2  187.58   30.70
   1  -9  -2  133.09   16.90
  -8  -1   2  144.99   17.50
   9  -8   2  160.58   16.30
  -8  -1   2  147.69   13.70
  -1   9   2  113.99   15.50
  -9   9  -2  375.06   37.70
   0  -9  -2  363.56   28.00
   0   9   2  325.37   27.00
   9  -9   2  301.07   24.90
  -9   0   2  381.06   31.10
  -9  10  -2   77.39   17.60
  -1  -9  -2   94.79   15.30
 -10   1   2   87.59   20.00
   1   9   2   80.89   14.90
   9 -10   2   76.09   14.00
   9 -10  -2  160.68   20.90
 -10   1  -2  146.19   26.80
  -9  10   2  105.59   27.00
 -10   2  -2  465.65   42.80
   8 -10  -2  416.66   35.10
  -8  10   2  624.44   49.60
 -10   3  -2  489.75   43.30
   7 -10  -2  494.75   37.70
  -7  10   2  495.95   44.60
 -10   4  -2  381.06   38.30
   6 -10  -2  362.46   29.30
   6 -10  -2  383.76   31.00
  -6  10   2  370.46   36.30
   5 -10  -2  481.25   35.00
   5 -10  -2  480.05   31.60
 -10   5  -2  444.76   42.60
  -5  10   2  471.05   39.50
   4 -10  -2  366.06   29.20
   4 -10  -2  367.36   25.10
 -10   6  -2  339.17   37.20
  -4  10   2  386.86   33.20
   3 -10  -2  510.45   35.30
 -10   7  -2  466.25   44.90
  -3  10   2  506.15   37.60
 -10   8  -2  454.65   43.60
   2 -10  -2  517.85   35.60
  10  -8   2  568.04   36.60
  -2  10   2  566.74   39.10
   1 -10  -2  183.28   19.90
 -10   9  -2  151.58   24.90
  10  -9   2  153.08   17.30
  -1  10   2  150.98   18.90
  -9  -1   2  124.19   19.00
   8 -11  -2   60.29   14.70
 -11   3  -2   58.79   17.10
  -8  11   2   49.00   23.50
 -11   4  -2  425.36   43.80
   7 -11  -2  473.65   36.10
  -7  11   2  422.36   41.00
 -11   5  -2  212.68   34.60
   6 -11  -2  264.27   25.00
  -6  11   2  252.27   29.80
 -11   6  -2  276.67   35.80
   5 -11  -2  258.97   24.60
  -5  11   2  286.67   30.30
 -11   7  -2  528.15   47.10
   4 -11  -2  504.75   35.10
  -4  11   2  434.86   38.60
   3 -11  -2   84.79   15.10
 -11   8  -2   85.49   21.30
  -3  11   2   59.49   15.60
   0   0  -3 7418.76  270.67
   0   0  -3 8065.59  246.88
   0   0   3 7879.31  247.08
   0   0   3 7897.51  247.48
   1  -1  -3   49.70    9.20
  -1   0  -3   59.79    9.50
  -1   0  -3   57.79    6.20
   0   1  -3   57.69    5.50
   1  -1  -3   58.79    7.20
   0   1  -3   54.49    6.40
  -1   1   3   64.79    8.80
   1   0   3   49.20    6.40
   1   0   3   51.49    6.30
  -1   1   3   66.69    8.00
   0  -1  -3   36.40    7.80
   1   0  -3   48.70    6.10
  -1   1  -3   62.99    5.50
  -1   1  -3   59.89    6.90
   1   0  -3   53.19    9.10
   0  -1  -3   62.59    7.20
  -1   0   3   50.19    6.10
   1  -1   3   64.09    5.90
   0   1   3   61.19    7.70
  -1   2  -3 4491.75  145.99
   2  -1  -3 4638.64  158.38
   2  -1  -3 4476.35  152.48
  -1  -1  -3 4464.25  154.78
  -1  -1  -3 4695.73  150.98
   1   1   3 4504.25  151.28
  -2   1   3 4558.64  153.08
   1   1   3 4446.16  151.88
   3  -2  -3  206.28   17.30
  -2  -1  -3  192.28   16.60
   3  -2  -3  160.28   17.30
  -2  -1  -3  164.88   16.50
   2   1   3  192.18   15.00
   2   1   3  156.28   13.90
   0   2  -3   30.80    4.80
   2  -2  -3   32.10    7.00
  -2   0  -3   27.70    5.70
   2  -2  -3   47.90   11.00
  -2   0  -3   31.60    7.30
   0   2  -3   32.30    3.50
   2   0   3   30.10    6.10
  -2   2   3   45.50    8.40
  -2   2   3   32.60    7.70
  -2   1  -3 3913.01  134.79
   1   1  -3 3922.81  130.59
  -2   1  -3 3941.01  129.59
   1  -2  -3 4136.29  137.49
   1   1  -3 4037.00  133.79
   1  -2  -3 3790.22  141.19
  -1   2   3 4144.09  140.29
   2  -1   3 4025.70  130.69
  -1   2   3 4139.59  137.39
   0  -2  -3   27.00    6.70
   0  -2  -3   32.70    8.60
   2   0  -3   26.10    5.80
   2   0  -3   28.20    7.20
  -2   2  -3   30.50    3.40
   0   2   3   33.20    7.00
  -2   0   3   25.70    5.40
   2  -2   3   32.50    3.70
  -1  -2  -3  190.28   17.10
  -1  -2  -3  203.78   15.60
   3  -1  -3  177.98   15.80
   3  -1  -3  200.98   18.50
   1   2   3  201.18   16.10
   1   2   3  186.18   15.90
  -3   1   3  174.18   15.50
   4  -2  -3 3520.55  130.49
   4  -2  -3 3356.86  124.39
  -2  -2  -3 3482.25  119.59
  -2  -2  -3 3342.17  123.09
   2   2   3 3274.97  120.09
   2   2   3 3345.37  120.09
  -4   2   3 3222.98  124.59
   5  -3  -3  235.58   26.60
  -3  -2  -3  260.07   21.50
  -3  -2  -3  257.67   19.80
   5  -3  -3  272.27   23.40
   3   2   3  281.07   21.10
  -5   3   3  296.47   25.90
  -3  -1  -3  169.98   14.30
  -3  -1  -3  148.29   15.00
   4  -3  -3  157.58   18.60
  -4   3   3  150.68   16.80
   3   1   3  147.59   13.70
  -3   0  -3 1985.70   74.09
   3  -3  -3 2082.89   80.69
   3  -3  -3 1891.81   84.59
  -3   0  -3 2050.79   78.29
   0   3  -3 2045.70   65.29
  -3   3   3 1911.11   82.19
   3   0   3 2032.00   75.19
   2  -3  -3  186.08   18.90
  -3   1  -3  202.58   13.60
   2  -3  -3  218.38   17.40
   1   2  -3  212.88   13.20
  -3   1  -3  210.08   16.20
  -2   3   3  249.48   20.40
  -2   3   3  213.08   17.30
   3  -1   3  229.28   14.90
   1  -3  -3  197.68   19.10
   1  -3  -3  200.18   16.80
   2   1  -3  210.38   16.10
  -1   3   3  245.28   18.20
  -2  -1   3  234.88   10.50
  -1   3   3  206.68   18.60
   3  -2   3  249.28   13.80
   3   0  -3 2013.60   81.19
   0  -3  -3 1962.80   77.89
   0  -3  -3 2047.00   83.19
   0   3   3 2096.59   79.49
  -3   0   3 2072.19   74.59
   3  -3   3 2009.00   67.19
   0   3   3 2001.80   80.89
   4  -1  -3  130.89   16.00
  -1  -3  -3  158.38   16.20
  -1  -3  -3  124.59   13.00
  -4   1   3  144.69   14.20
   1   3   3  130.09   13.10
   1   3   3  137.59   14.10
  -2  -3  -3  292.07   22.60
  -2  -3  -3  300.47   21.70
   5  -2  -3  291.57   26.60
  -5   2   3  300.27   25.00
   2   3   3  289.17   22.00
   2   3   3  239.78   22.10
   6  -3  -3 1341.97   71.79
  -3  -3  -3 1389.66   61.19
  -3  -3  -3 1357.16   63.59
  -6   3   3 1406.96   70.19
   3   3   3 1379.96   62.49
  -4  -3  -3  123.39   16.00
  -4  -3  -3  141.49   15.40
  -3   7  -3  128.79   11.20
   7  -4  -3   90.89   16.30
  -4  -3  -3  162.58   17.40
  -7   4   3  147.79   24.20
   6  -4  -3  209.68   21.70
  -4  -2  -3  242.48   21.40
  -4  -2  -3  227.88   18.90
   6  -4  -3  229.68   25.20
   4   2   3  225.48   19.70
  -6   4   3  227.78   25.10
   5  -4  -3 1800.52   79.39
   5  -4  -3 1916.41   86.79
  -4  -1  -3 1869.71   72.89
  -4  -1  -3 1784.62   77.09
  -5   4   3 1640.04   81.69
   4   1   3 1770.42   73.29
   4  -4  -3   27.20    9.40
   4  -4  -3    9.20    5.80
  -4   0  -3   19.10    5.30
  -4   0  -3   21.20    6.00
  -4   4   3    9.00    4.70
   4   0   3    9.40    4.00
  -4   1  -3  207.78   19.00
   1   3  -3  207.18   11.50
   3  -4  -3  220.88   21.60
   1   3  -3  202.58   11.40
  -4   1  -3  175.98   16.10
   3  -4  -3  208.48   18.60
  -3   4   3  181.08   19.10
   4  -1   3  203.88   15.20
  -3   4   3  201.98   18.20
   2   2  -3 3690.73  125.79
   2  -4  -3 3581.54  132.59
   2  -4  -3 3683.83  138.89
  -2   4   3 3916.91  134.69
   4  -2   3 3771.92  124.69
  -2   4   3 3628.84  137.09
   3   1  -3  213.78   17.60
   1  -4  -3  210.08   20.50
   1  -4  -3  187.28   17.20
  -1   4   3  249.18   19.80
   4  -3   3  207.78   12.90
  -3  -1   3  215.58   11.20
  -1   4   3  229.48   20.50
   0  -4  -3   22.60    7.50
   0  -4  -3   15.40    5.40
   4   0  -3   17.50    7.10
   0   4   3   13.10    4.70
  -4   0   3   21.10    5.60
   4  -4   3   12.60    2.90
   0   4   3   19.60    6.90
   5  -1  -3 1971.00   86.39
  -1  -4  -3 1941.01   77.99
  -1  -4  -3 1976.90   81.79
   1   4   3 1895.21   78.79
   1   4   3 1894.91   78.49
  -5   1   3 1771.02   77.69
  -4   6  -3  234.28   17.20
  -2  -4  -3  209.08   19.10
  -2  -4  -3  240.58   24.80
   6  -2  -3  249.68   25.40
   2   4   3  204.18   18.90
   2   4   3  210.58   20.00
  -6   2   3  224.58   22.70
  -4   7  -3  150.28   13.80
  -3  -4  -3  125.89   15.80
  -3  -4  -3  132.09   15.60
   3   4   3  158.48   16.60
  -7   3   3  145.59   19.50
  -4  -4  -3 1403.66   66.89
  -4   8  -3 1422.16   65.59
  -4  -4  -3 1453.15   66.49
   9  -5  -3  265.57   27.40
  -4   9  -3  297.17   22.50
  -5  -4  -3  289.87   25.60
  -5  -4  -3  295.77   26.40
  -9   5   3  260.97   31.60
  -5  -3  -3  192.88   19.80
  -5  -3  -3  211.78   22.10
   8  -5  -3  210.38   23.50
  -3   8  -3  227.58   16.80
  -8   5   3  231.68   27.60
   7  -5  -3  898.91   52.39
  -5  -2  -3  913.71   50.89
  -5  -2  -3  927.41   48.10
  -7   5   3  961.10   59.99
  -5  -1  -3  557.34   36.70
  -5  -1  -3  563.74   34.80
  -5  -1  -3  566.94   33.70
   6  -5  -3  547.85   38.10
   5   1   3  576.94   34.20
  -6   5   3  566.94   42.40
   5  -5  -3  200.88   21.00
  -5   0  -3  233.48   21.60
  -5   0  -3  195.68   17.60
  -5   0  -3  227.48   19.00
   0   5  -3  203.68   11.60
   5  -5  -3  219.38   24.30
  -5   5   3  217.48   24.30
   5   0   3  281.67   21.20
  -5   1  -3 1488.65   69.99
   1   4  -3 1593.24   56.09
  -5   1  -3 1552.44   66.99
   4  -5  -3 1521.45   70.79
   5  -1   3 1689.63   65.19
  -4   5   3 1601.84   75.99
   2   3  -3  159.68   12.80
   3  -5  -3  160.78   19.40
   3  -5  -3  143.59   15.90
   2   3  -3  178.88   12.20
   5  -2   3  171.88   14.20
  -3   5   3  176.78   19.20
  -3   5   3  123.39   25.80
   2  -5  -3  170.68   16.80
   3   2  -3  192.28   16.20
  -5   3  -3  165.88   16.80
   2  -5  -3  183.58   19.60
   5  -3   3  167.08   13.10
  -2   5   3  154.98   29.20
  -2   5   3  144.09   17.00
   4   1  -3 1519.05   68.69
   1  -5  -3 1533.55   71.09
   1  -5  -3 1510.25   66.99
  -5   4  -3 1522.05   66.89
   5  -4   3 1622.34   58.19
  -4  -1   3 1640.14   55.99
  -1   5   3 1540.75   70.29
  -5   5  -3  226.08   19.40
   0  -5  -3  200.08   19.10
   5   0  -3  207.38   21.70
   0  -5  -3  193.98   20.50
   0   5   3  240.58   21.30
  -5   0   3  273.17   19.20
   0   5   3  241.98   21.00
   5  -5   3  227.58   13.60
  -1  -5  -3  578.34   34.90
   6  -1  -3  572.34   41.30
  -5   6  -3  586.14   33.90
  -1  -5  -3  579.64   37.00
   5  -6   3  585.74   24.70
  -6   1   3  565.04   36.10
   1   5   3  550.64   34.80
   5  -6   3  569.34   25.60
  -2  -5  -3  889.31   47.20
  -5   7  -3  904.21   46.30
  -2  -5  -3  939.11   49.60
   2   5   3  846.22   46.70
  -7   2   3  969.70   54.09
  -5   8  -3  231.38   22.00
  -3  -5  -3  201.38   20.00
  -3  -5  -3  245.18   22.20
  -3  -5  -3  187.58   20.80
   3   5   3  256.17   22.30
  -8   3   3  291.17   29.10
  -5   9  -3  268.27   23.80
  -4  -5  -3  300.07   26.00
  -4  -5  -3  296.77   25.50
  -9   4   3  228.28   29.00
  -5  10  -3  200.88   20.30
  -5  -5  -3  216.48   38.10
  -5  -5  -3  202.78   21.70
 -10   5   3  236.68   30.40
  11  -6  -3  326.27   33.00
  -5  11  -3  308.77   27.40
  -6  -5  -3  358.86   32.90
 -11   6   3  370.86   38.20
  -6  -4  -3   88.09   17.60
  -4  10  -3   92.39   13.80
  10  -6  -3  133.69   23.00
 -10   6   3   97.99   21.70
  -6  -3  -3  775.92   49.10
   9  -6  -3  803.62   50.79
  -9   6   3  783.82   57.69
   8  -6  -3  504.65   38.40
  -6  -2  -3  550.24   42.10
  -8   6   3  542.65   46.20
   7  -6  -3  176.18   20.40
  -6  -1  -3  160.58   19.50
  -7   6   3  175.08   29.20
  -6   0  -3 2166.38   95.79
   0   6  -3 2217.68   76.09
   6  -6  -3 2246.78   97.19
  -6   6   3 2268.67  105.49
   5  -6  -3  899.81   54.19
   1   5  -3  865.01   45.10
  -6   1  -3  821.42   49.00
   5  -6  -3  826.72   48.90
   6  -1   3  817.22   42.50
  -5   6   3  879.91   54.29
  -6   2  -3  279.47   25.30
   4  -6  -3  266.87   23.80
   4  -6  -3  281.47   26.60
   2   4  -3  277.37   16.70
   2   4  -3  264.27   17.40
  -4   6   3  294.37   26.80
  -4   6   3  271.57   23.60
   6  -2   3  300.27   20.90
  -6   3  -3 1356.56   66.89
   3   3  -3 1388.06   55.59
   3   3  -3 1429.56   60.39
   3  -6  -3 1359.06   64.39
  -3   6   3 1471.35   66.29
  -3   6   3 1389.86   69.19
   6  -3   3 1484.85   58.69
   2  -6  -3  273.17   24.60
   4   2  -3  293.17   24.10
   2  -6  -3  278.07   23.00
  -6   4  -3  270.67   23.80
   4   2  -3  301.47   20.10
  -2   6   3  268.27   24.10
   6  -4   3  299.07   19.20
  -2   6   3  271.77   23.50
   1  -6  -3  821.32   47.00
   5   1  -3  823.62   48.80
   1  -6  -3  892.71   45.90
  -6   5  -3  778.02   45.30
  -1   6   3  810.52   46.60
   6  -5   3  837.02   37.10
  -5  -1   3  857.31   35.50
   0  -6  -3 2133.69   93.09
   6   0  -3 2203.88  100.09
   0  -6  -3 2237.58   90.89
  -6   6  -3 2129.69   92.39
   0   6   3 2310.47   93.89
  -6   0   3 2256.57   87.89
   6  -6   3 2313.67   80.19
  -1  -6  -3  187.78   20.30
  -1  -6  -3  147.09   17.30
  -6   7  -3  190.78   19.70
   1   6   3  156.18   17.20
  -7   1   3  156.48   18.90
   6  -7   3  169.78   12.50
  -2  -6  -3  498.85   35.60
  -6   8  -3  517.95   37.50
  -2  -6  -3  554.34   36.00
  -8   2   3  549.45   40.60
   2   6   3  561.84   35.60
   6  -8   3  524.95   25.10
  -3  -6  -3  781.72   45.60
  -3  -6  -3  819.82   44.50
  -6   9  -3  649.64   44.20
  -3  -6  -3  752.72   44.80
  -9   3   3  784.12   53.19
   3   6   3  770.72   44.60
  -6  10  -3  116.69   18.40
  -4  -6  -3  115.39   19.20
  -4  -6  -3  123.99   19.10
 -10   4   3  119.49   23.90
  -5  -6  -3  290.27   29.30
  -6  11  -3  290.77   27.90
  -5  -6  -3  367.86   30.60
 -11   5   3  356.46   38.50
  -3  10  -3  150.38   16.80
  -7  -3  -3  189.88   23.80
  10  -7  -3  197.78   22.40
 -10   7   3  113.79   24.00
  -7  -2  -3  137.09   23.50
   9  -7  -3  103.69   17.80
  -9   7   3  115.29   25.00
  -1   8  -3  751.22   39.80
   8  -7  -3  803.92   50.69
  -7  -1  -3  830.12   52.59
  -8   7   3  865.21   60.69
  -7   0  -3  183.48   21.60
   7  -7  -3  173.38   21.00
   0   7  -3  155.08   11.70
  -7   7   3  165.08   29.00
  -7   1  -3  140.49   23.00
   1   6  -3  119.59   10.80
   6  -7  -3  100.89   28.30
  -6   7   3  160.08   27.40
   5  -7  -3 1049.59   56.69
   2   5  -3 1021.60   43.60
   2   5  -3 1038.70   45.10
  -7   2  -3 1054.79   59.19
  -5   7   3 1105.39   63.59
   7  -2   3 1023.90   50.19
   4  -7  -3   86.39   15.00
   4  -7  -3   47.60   14.00
  -7   3  -3   62.59   13.10
   3   4  -3   50.59   10.50
   3   4  -3   59.19    8.10
   7  -3   3   64.89   11.60
  -4   7   3   52.69   13.00
   4   3  -3   71.19   11.10
  -7   4  -3   94.29   17.90
   4   3  -3   45.40   10.60
   3  -7  -3   50.19   11.40
   3  -7  -3   41.90   12.10
   7  -4   3   61.99   10.30
  -3   7   3   53.89   12.50
   2  -7  -3 1007.60   55.69
   2  -7  -3 1032.90   52.69
  -7   5  -3 1002.20   57.09
   5   2  -3 1034.10   48.50
   5   2  -3 1001.50   56.09
  -2   7   3 1038.20   55.49
   7  -5   3 1056.99   46.50
  -7   6  -3  146.19   18.90
   6   1  -3   98.49   18.80
   7  -6   3  135.99   12.60
  -1   7   3  138.99   17.00
  -6  -1   3  138.09   11.70
   0  -7  -3  174.38   29.90
  -7   7  -3  166.68   20.50
   0  -7  -3  174.68   18.40
   7  -7   3  154.58   13.80
   7  -7   3  149.39   13.60
  -7   0   3  170.28   16.90
  -1  -7  -3  846.62   47.80
  -7   8  -3  870.11   53.79
  -1  -7  -3  809.52   46.60
  -8   1   3  884.11   50.49
   1   7   3  859.41   47.80
  -2  -7  -3  123.69   15.60
  -2  -7  -3  137.99   17.20
  -7   9  -3  137.79   23.10
  -2  -7  -3  141.79   18.00
   7  -9   3  143.39   12.20
   2   7   3  128.39   16.60
  -9   2   3  154.08   38.90
  -3  -7  -3  154.48   18.60
  -3  -7  -3  193.48   23.20
  -3  -7  -3  223.28   21.80
  -7  10  -3  155.48   31.70
 -10   3   3  142.69   25.10
   3   7   3  159.08   18.50
  -8  -2  -3  355.66   35.40
 -10   8   3  411.36   43.40
  -8  -1  -3  475.15   40.80
  -1   9  -3  468.25   23.60
   9  -8  -3  444.16   36.00
  -9   8   3  486.55   46.20
   8  -8  -3  164.38   25.70
   0   8  -3  161.98   12.90
  -8   0  -3  171.18   27.70
  -8   8   3  178.98   30.50
   7  -8  -3  750.92   48.90
   1   7  -3  714.93   34.30
  -8   1  -3  800.62   52.69
  -7   8   3  703.53   53.99
   2   6  -3  501.35   24.10
  -8   2  -3  423.76   37.50
   2   6  -3  458.95   25.70
   6  -8  -3  394.76   33.40
  -6   8   3  446.86   40.10
   5  -8  -3  213.98   22.40
   3   5  -3  189.98   16.90
   3   5  -3  207.18   16.20
  -8   3  -3  180.28   23.70
  -5   8   3  167.28   21.90
  -8   4  -3 1268.07   69.39
   4  -8  -3 1243.08   65.49
   4   4  -3 1235.98   59.19
   4   4  -3 1204.48   53.29
   4  -8  -3 1341.07   63.69
   8  -4   3 1070.89   67.59
  -4   8   3 1192.68   66.59
   3  -8  -3  171.68   18.90
  -8   5  -3  174.08   22.20
   3  -8  -3  209.38   22.60
   5   3  -3  178.78   29.40
  -3   8   3  164.88   20.90
   8  -5   3  198.18   17.50
   2  -8  -3  456.25   32.30
   2  -8  -3  441.26   32.80
   6   2  -3  441.06   38.90
  -8   6  -3  521.45   40.30
   8  -6   3  402.76   27.60
  -2   8   3  423.76   33.30
   1  -8  -3  749.33   43.60
   1  -8  -3  942.21   61.99
  -8   7  -3  734.03   51.39
   8  -7   3  684.53   37.00
  -7  -1   3  719.93   34.50
  -7  -1   3  694.63   31.10
  -1   8   3  740.93   45.20
  -8   8  -3  130.59   22.90
   0  -8  -3  132.49   16.90
   0   8   3  176.48   19.80
  -8   0   3  162.48   17.90
   8  -8   3  173.88   15.50
   8  -8   3  159.28   15.50
  -1  -8  -3  343.27   33.50
  -8   9  -3  456.45   39.20
  -1  -8  -3  469.95   33.10
  -1  -8  -3  399.26   28.10
   8  -9   3  443.66   26.40
   1   8   3  476.15   33.70
  -9   1   3  483.15   35.90
  -2  -8  -3  321.37   25.80
  -2  -8  -3  311.47   31.90
  -8  10  -3  332.47   33.20
   2   8   3  354.76   29.00
 -10   2   3  328.47   32.60
   8 -10   3  415.46   23.60
  -9  -1  -3   50.69   15.80
  10  -9  -3   78.49   15.70
 -10   9   3   53.99   18.10
   0   9  -3  478.65   26.30
  -9   0  -3  505.25   43.50
   9  -9  -3  519.55   40.10
  -9   9   3  475.25   49.40
  -9   1  -3  478.55   42.50
   8  -9  -3  423.36   36.20
   1   8  -3  445.66   26.10
  -8   9   3  489.45   45.30
  -9   2  -3  130.79   23.40
   7  -9  -3  134.19   22.70
  -7   9   3  133.89   26.00
   3   6  -3  774.32   39.40
   3   6  -3  775.32   37.60
   6  -9  -3  851.01   51.59
  -9   3  -3  772.42   56.29
  -6   9   3  858.71   56.79
  -9   4  -3  355.16   35.50
   5  -9  -3  316.97   28.30
   4   5  -3  347.37   24.60
  -5   9   3  283.07   30.70
   5   4  -3  298.97   25.70
   4  -9  -3  269.57   28.00
  -9   5  -3  326.47   34.20
   4  -9  -3  322.37   27.50
  -4   9   3  309.77   29.90
   3  -9  -3  784.12   46.20
   3  -9  -3  720.83   44.20
  -9   6  -3  678.83   52.49
  -3   9   3  690.13   46.40
   2  -9  -3  118.99   15.90
  -9   7  -3   92.89   20.50
  -2   9   3  150.18   19.60
   1  -9  -3  450.85   33.40
   1  -9  -3  432.26   32.60
  -9   8  -3  533.45   44.80
  -8  -1   3  494.15   26.50
   9  -8   3  469.75   30.00
  -8  -1   3  478.35   23.60
   9  -8   3  505.35   31.40
  -1   9   3  521.05   37.60
   0  -9  -3  556.64   36.90
   0  -9  -3  488.55   29.50
   0  -9  -3  408.36   37.80
  -9   9  -3  501.75   44.00
  -9   0   3  520.35   34.30
   9  -9   3  519.15   30.90
  -9   0   3  509.45   28.30
   0   9   3  518.05   36.50
   9  -9   3  519.85   31.10
  -9  10  -3  100.69   21.30
  -1  -9  -3   67.99   14.30
   9 -10   3   82.19   13.30
   1   9   3  106.69   18.30
 -10   1   3  117.79   28.00
   9 -10  -3   67.09   15.40
 -10   1  -3   66.19   18.40
  -9  10   3   33.80   13.70
   8 -10  -3  431.26   35.60
   2   8  -3  386.46   31.60
 -10   2  -3  444.96   56.09
   7 -10  -3  166.78   22.00
 -10   3  -3  154.78   28.30
  -7  10   3  160.88   27.50
 -10   4  -3   96.59   22.10
   6 -10  -3   85.69   15.60
  -6  10   3   41.40   14.90
   5 -10  -3  226.38   24.20
 -10   5  -3  283.17   33.70
   5   5  -3  225.38   24.50
  -5  10   3  252.37   28.10
 -10   6  -3   59.59   15.90
   4 -10  -3   96.39   17.30
   4 -10  -3   69.69   14.10
  -4  10   3   51.59   14.00
   3 -10  -3  152.28   18.30
 -10   7  -3  165.38   30.30
  -3  10   3  128.09   22.70
 -10   8  -3  396.96   40.30
   2 -10  -3  399.66   31.60
  -2  10   3  424.06   34.20
  10  -8   3  420.56   35.40
   1 -10  -3   61.79   13.60
 -10   9  -3   63.89   19.50
  -1  10   3   76.39   16.50
  10  -9   3   86.29   14.20
 -11   5  -3  133.79   27.00
  -6  11   3  129.49   30.60
 -11   6  -3  161.48   29.20
  -5  11   3  275.57   46.60
   0   0  -4 3716.33  126.59
   0   0  -4 3764.92  133.49
   0   0   4 3744.23  127.59
   0   0   4 3862.91  127.19
  -1   0  -4  163.68   12.50
   1  -1  -4  160.28   16.50
   0   1  -4  170.38   14.50
  -1   0  -4  146.69   14.40
   1  -1  -4  177.88   14.30
   0   1  -4  151.08   10.90
  -1   1   4  163.98   14.00
   1   0   4  176.48   13.50
   1   0  -4  163.98   15.40
   1   0  -4  171.08   13.00
   0  -1  -4  174.28   16.70
  -1   1  -4  173.38   14.40
   0  -1  -4  149.99   13.20
  -1   1  -4  172.58   11.30
   0   1   4  144.19   13.20
  -1   0   4  157.28   12.10
   1  -1   4  155.18   11.10
   0   1   4  173.88   14.40
   2  -1  -4 2452.15   98.89
  -1   2  -4 2335.77   88.09
  -1   2  -4 2444.96   81.09
  -1  -1  -4 2372.66   90.19
  -1  -1  -4 2418.66   96.69
   1   1   4 2677.63   93.59
  -2   1   4 2636.84   93.69
   1   1   4 2649.14   92.69
  -2  -1  -4   62.29   12.40
   3  -2  -4   46.60   11.40
   3  -2  -4   41.20    8.90
  -2  -1  -4   39.40    7.70
  -1   3  -4   40.70    6.70
   2   1   4   59.49   10.00
  -3   2   4   50.69   10.40
  -2   0  -4   29.70    7.40
   0   2  -4   31.30    4.00
  -2   0  -4   26.20    5.90
   2  -2  -4   44.10   10.90
   2  -2  -4   41.80    8.80
   0   2  -4   35.10    7.80
   2   0   4   28.30    6.50
  -2   2   4   33.80    7.40
  -2   2   4   40.60    8.60
  -2   1  -4 1522.45   52.79
  -2   1  -4 1477.55   59.19
   1  -2  -4 1513.95   66.29
   1   1  -4 1478.45   58.79
   1   1  -4 1494.95   53.89
   1  -2  -4 1477.85   59.49
  -1   2   4 1252.07   59.29
   2  -1   4 1180.08   52.89
  -1   2   4 1186.78   56.99
  -2   2  -4   41.50    7.80
  -2   2  -4   25.80    4.30
   2   0  -4   34.70    9.20
   0  -2  -4   27.10    8.20
   2   0  -4   30.50    6.70
   0  -2  -4   34.50    7.80
   0   2   4   36.40    7.90
   2  -2   4   32.40    4.50
   0   2   4   48.90    9.60
  -2   0   4   38.70    6.80
  -2   3  -4   42.70    7.30
   3  -1  -4   45.70    9.10
  -1  -2  -4   44.80   10.70
  -1  -2  -4   37.70    8.30
   3  -1  -4   37.00    9.40
   1   2   4   54.89   10.20
   1   2   4   60.59   11.10
  -2  -2  -4 1225.78   54.79
   4  -2  -4 1292.67   59.39
   4  -2  -4 1277.57   77.89
  -2  -2  -4 1305.47   61.39
  -4   2   4 1207.38   58.09
   2   2   4 1251.37   56.69
   2   2   4 1267.47   57.19
  -3  -2  -4  115.89   15.40
   5  -3  -4  111.89   18.00
  -3  -2  -4   99.69   12.40
   5  -3  -4  126.29   21.60
   3   2   4  107.49   13.30
  -5   3   4   86.99   16.60
  -1   4  -4  151.18   10.10
   4  -3  -4  150.18   18.70
   4  -3  -4  133.29   16.00
  -3  -1  -4  154.38   14.20
  -3  -1  -4  151.68   16.90
  -4   3   4  143.79   16.50
   3   1   4  140.39   14.50
   0   3  -4 2033.30   73.09
   3  -3  -4 2069.99   84.49
   3  -3  -4 1959.10   99.39
  -3   0  -4 1961.20   76.99
  -3   0  -4 2067.49   84.29
   3   0   4 2194.38   79.89
  -3   3   4 2182.88   87.79
   1   2  -4  163.58   11.40
  -3   1  -4  153.78   15.00
  -3   1  -4  170.38   12.90
   2  -3  -4  169.08   16.30
   2  -3  -4  203.98   21.10
  -2   3   4  173.48   16.30
  -2   3   4  193.58   18.50
   3  -1   4  171.08   13.70
   1  -3  -4  181.78   16.80
   2   1  -4  162.58   13.50
   1  -3  -4  167.98   19.30
  -3   2  -4  175.98   15.10
   2   1  -4  194.38   16.80
  -3   2  -4  160.28   11.40
  -1   3   4  192.98   16.90
  -1   3   4  202.28   18.40
   3  -2   4  175.28   12.30
   0  -3  -4 1999.50   95.69
   3   0  -4 2076.79   81.99
   0  -3  -4 2067.19   82.79
   3   0  -4 1992.80   85.69
   0   3   4 2122.49   85.59
   3  -3   4 2154.88   70.69
  -3   0   4 2210.48   76.89
   0   3   4 2181.88   85.09
   4  -1  -4  146.99   18.20
   4  -1  -4  133.19   15.00
  -1  -3  -4  148.79   15.10
  -1  -3  -4  124.09   16.20
  -4   1   4  133.39   13.80
   1   3   4  143.19   15.50
   1   3   4  133.19   14.80
   5  -2  -4   76.69   14.20
  -2  -3  -4   98.09   12.40
  -2  -3  -4  111.29   14.50
   5  -2  -4  127.99   21.00
   2   3   4   96.59   12.80
  -5   2   4  121.19   14.70
   2   3   4  117.59   13.50
  -3  -3  -4 1020.10   51.59
   6  -3  -4  987.50   55.99
  -6   3   4 1204.78   59.89
   7  -4  -4  604.84   41.80
  -4  -3  -4  574.44   36.40
  -7   4   4  633.14   45.10
  -4  -2  -4   10.20    5.00
   6  -4  -4   28.90    9.30
  -6   4   4   16.10    8.00
   5  -4  -4 1526.75   73.69
  -4  -1  -4 1587.74   67.09
  -5   4   4 1625.94   77.09
   4   1   4 1667.23   69.49
   4  -4  -4  581.24   40.90
   0   4  -4  526.05   23.10
  -4   0  -4  520.05   33.40
   4  -4  -4  532.35   35.40
  -4   0  -4  531.55   29.90
  -4   4   4  546.85   36.90
   4   0   4  507.15   30.20
  -4   1  -4  364.46   22.20
   1   3  -4  345.67   17.90
   1   3  -4  370.66   17.10
   3  -4  -4  336.77   30.20
   3  -4  -4  364.06   26.70
   1   3  -4  339.97   19.80
  -4   1  -4  379.16   26.30
  -3   4   4  380.16   27.30
   4  -1   4  337.57   21.90
  -3   4   4  339.07   27.90
   2   2  -4 4194.88  149.99
   2  -4  -4 4392.06  164.38
  -4   2  -4 4452.65  153.18
   2  -4  -4 4277.27  155.58
  -2   4   4 4425.46  156.88
   4  -2   4 4481.65  146.39
  -2   4   4 4400.26  160.58
   1  -4  -4  363.16   29.70
   3   1  -4  352.16   25.40
   1  -4  -4  356.06   25.90
  -1   4   4  359.26   27.40
  -1   4   4  338.87   25.50
   4  -3   4  346.77   18.60
   0  -4  -4  528.75   35.70
   0  -4  -4  513.75   32.00
   4   0  -4  511.95   34.30
   4  -4   4  474.55   20.50
   0   4   4  487.45   32.00
  -4   0   4  464.95   25.60
   0   4   4  454.05   31.60
  -1  -4  -4 1580.94   69.99
  -1  -4  -4 1577.44   75.19
   5  -1  -4 1619.84   77.99
  -5   1   4 1615.54   68.39
   1   4   4 1704.63   72.99
   6  -2  -4    2.10    4.30
  -2  -4  -4    3.00    3.80
   2   4   4    3.90    3.60
  -6   2   4    5.90    5.30
   7  -3  -4  594.64   41.30
  -3  -4  -4  634.94   37.80
  -4   7  -4  617.64   31.40
  -7   3   4  551.64   40.60
   3   4   4  580.94   37.30
  -4  -4  -4 1207.28   61.69
  -4   8  -4 1258.07   54.09
   8  -4  -4 1270.87   69.09
  -8   4   4 1410.46   74.39
  -5  -4  -4   63.29   12.90
   9  -5  -4   57.89   14.50
  -4   9  -4   96.39   12.40
  -5  -4  -4   80.29   16.40
  -9   5   4   47.90   14.00
   8  -5  -4  141.79   19.50
  -5  -3  -4  168.28   18.00
  -5  -3  -4  140.19   18.50
  -3   8  -4  151.08   11.90
  -8   5   4  114.39   22.00
   7  -5  -4  706.03   45.40
  -5  -2  -4  681.63   39.50
  -7   5   4  569.24   44.60
   6  -5  -4   20.60    8.70
  -5  -1  -4   23.40    7.50
  -6   5   4   48.70   12.60
   5  -5  -4   69.59   15.10
  -5   0  -4   63.79   11.50
   5   0   4   78.19   13.10
  -5   5   4   83.49   16.00
   1   4  -4  872.81   32.50
   1   4  -4  856.81   35.20
   4  -5  -4  820.82   47.40
  -4   5   4  856.31   50.59
   5  -1   4  797.22   41.20
   3  -5  -4   76.39   14.40
   3  -5  -4   56.69   13.40
   2   3  -4   59.09    6.90
   2   3  -4   65.39   11.90
  -5   2  -4   60.49   10.80
   5  -2   4   76.39   11.60
  -3   5   4   45.30   11.80
  -3   5   4   59.89   11.30
   2  -5  -4   63.89   12.80
   3   2  -4   77.59   13.00
   2  -5  -4   43.20   11.40
   5  -3   4   69.89    8.50
  -2   5   4   82.99   14.00
  -2   5   4   51.29   12.30
   1  -5  -4  915.91   46.10
   4   1  -4  831.42   45.60
   1  -5  -4  745.53   47.70
  -1   5   4  745.53   45.10
   5  -4   4  760.32   33.50
   0  -5  -4   77.49   14.30
   5   0  -4   69.19   15.50
   0  -5  -4   95.79   17.40
   0   5   4   72.99   14.10
   5  -5   4   74.49    6.50
  -5   0   4   77.79    9.50
  -1  -5  -4   23.30    9.30
  -5   6  -4   43.60    9.80
   1   5   4   31.80    8.20
  -6   1   4   41.80    9.80
  -2  -5  -4  682.53   40.30
  -5   7  -4  737.93   37.50
   2   5   4  589.64   38.90
  -7   2   4  522.75   37.40
  -5   8  -4  161.68   16.60
  -3  -5  -4  161.08   18.50
   8  -3  -4  181.88   21.10
  -8   3   4  162.98   25.90
   3   5   4  198.28   20.40
  -5   9  -4   86.49   14.50
  -4  -5  -4   78.69   15.70
   9  -4  -4   41.40   12.30
  -4  -5  -4   77.79   15.20
  -9   4   4   88.79   18.90
  -5  10  -4  335.57   27.00
  10  -5  -4  326.47   33.30
  -5  -5  -4  352.16   30.50
  -5  -5  -4  341.97   30.00
 -10   5   4  363.06   36.20
  -6  -4  -4  239.08   24.10
  10  -6  -4  263.97   27.90
  -6  -4  -4  236.38   26.40
  -4  10  -4  263.57   20.90
 -10   6   4  227.28   30.40
  -6  -3  -4  351.46   32.10
   9  -6  -4  369.96   33.50
  -6  -3  -4  338.97   29.00
  -9   6   4  466.45   41.50
  -6  -2  -4  246.58   25.30
  -6  -2  -4  212.28   21.60
   8  -6  -4  237.18   26.40
  -8   6   4  231.88   29.10
  -6  -1  -4  269.07   25.60
   7  -6  -4  247.58   25.90
  -7   6   4  179.88   29.10
  -6   0  -4 1070.29   59.39
   6  -6  -4 1077.39   61.29
  -6   6   4 1211.58   67.29
   5  -6  -4  198.48   35.40
   1   5  -4  224.38   12.60
  -5   6   4  162.28   35.90
   6  -1   4  196.48   18.20
  -6   2  -4  233.38   22.90
   2   4  -4  227.98   16.40
   4  -6  -4  208.48   21.80
   2   4  -4  205.28   14.00
   6  -2   4  226.38   18.70
  -4   6   4  214.38   23.60
   3  -6  -4 1143.69   58.29
   3   3  -4 1111.89   52.19
   3   3  -4 1164.58   47.70
  -6   3  -4 1156.08   59.19
  -3   6   4 1144.39   61.69
   6  -3   4 1188.68   50.39
   2  -6  -4  232.38   22.10
   4   2  -4  220.88   20.60
  -6   4  -4  240.78   22.30
   6  -4   4  201.48   15.40
  -2   6   4  226.48   23.10
  -6   5  -4  203.18   20.20
   5   1  -4  171.58   21.00
  -1   6   4  186.68   20.70
   6  -5   4  186.58   13.40
  -6   6  -4 1083.69   55.09
   0  -6  -4 1008.90   54.69
  -6   0   4 1095.29   56.59
   6  -6   4 1106.99   41.40
   0   6   4 1136.39   57.89
  -6   7  -4  277.57   23.20
  -1  -6  -4  267.47   23.40
  -7   1   4  214.38   20.20
   1   6   4  191.68   20.50
  -6   8  -4  209.18   20.70
  -2  -6  -4  183.38   20.30
   2   6   4  240.28   22.90
  -8   2   4  188.48   21.00
  -6   9  -4  349.87   29.70
  -3  -6  -4  331.27   28.90
  -3  -6  -4  386.06   29.90
   3   6   4  432.36   31.60
  -9   3   4  393.66   34.80
  -4  -6  -4  199.98   22.90
  -6  10  -4  216.88   23.10
  -4  -6  -4  217.98   23.30
  10  -4  -4  234.38   28.00
 -10   4   4  231.88   29.40
  10  -7  -4  403.36   36.00
  -7  -3  -4  327.97   32.00
 -10   7   4  359.56   39.20
  -7  -2  -4   53.19   13.90
   9  -7  -4   45.60   13.70
  -9   7   4   58.59   17.20
  -7  -1  -4  687.83   47.20
   8  -7  -4  740.53   49.10
  -8   7   4  654.13   51.99
  -7   0  -4  543.05   40.30
   7  -7  -4  474.45   38.80
  -7   7   4  478.65   42.50
  -7   1  -4  103.09   19.10
   6  -7  -4  167.58   21.50
   1   6  -4  135.39   10.20
  -6   7   4  131.89   24.40
   5  -7  -4 1405.86   70.59
   2   5  -4 1379.46   52.89
  -7   2  -4 1376.16   71.49
   2   5  -4 1335.57   55.39
  -5   7   4 1362.96   74.49
  -7   3  -4  311.07   28.80
   3   4  -4  310.77   19.60
   4  -7  -4  330.97   28.50
   3   4  -4  313.07   23.10
   7  -3   4  308.77   22.60
  -4   7   4  326.17   30.40
   4   3  -4  273.57   19.80
   4   3  -4  321.87   25.80
   3  -7  -4  309.17   27.30
  -7   4  -4  292.17   27.70
  -3   7   4  318.87   28.70
   7  -4   4  303.67   21.30
   5   2  -4 1257.87   66.19
   2  -7  -4 1351.16   65.49
   5   2  -4 1338.97   58.19
  -7   5  -4 1285.07   82.59
   7  -5   4 1339.57   54.89
  -2   7   4 1391.86   69.69
   1  -7  -4  156.78   18.30
  -7   6  -4  102.79   18.10
   7  -6   4  112.39   11.00
  -1   7   4  106.69   18.10
   0  -7  -4  437.16   33.10
  -7   7  -4  536.45   37.70
   0   7   4  460.75   34.00
   7  -7   4  501.75   25.00
  -7   0   4  471.55   27.60
   7  -7   4  453.95   23.00
  -7   8  -4  681.23   48.70
  -1  -7  -4  689.33   43.00
   1   7   4  696.43   43.50
  -8   1   4  702.93   40.90
  -7   9  -4   39.40   16.60
  -2  -7  -4   66.89   13.20
   2   7   4   59.59   12.90
  -3  -7  -4  341.07   29.10
  -3  -7  -4  338.67   28.70
  -7  10  -4  351.46   31.70
 -10   3   4  324.57   32.90
  -8  -1  -4  171.08   22.50
  -8   0  -4   11.00    9.60
   8  -8  -4   26.00    9.60
  -8   8   4   12.70    9.80
   1   7  -4  326.37   17.60
   7  -8  -4  369.16   32.40
  -8   1  -4  308.07   30.50
  -7   8   4  276.77   31.90
  -8   2  -4   81.39   18.40
   6  -8  -4  121.59   21.60
   2   6  -4  101.49   10.40
   2   6  -4   84.19   13.40
  -6   8   4   94.39   19.50
   3   5  -4  106.79   16.00
   5  -8  -4  144.79   19.20
   3   5  -4  116.39   11.50
  -8   3  -4  107.19   20.40
  -5   8   4  129.49   21.90
   4  -8  -4  512.45   36.80
   4   4  -4  476.45   27.60
  -8   4  -4  447.36   37.50
   4   4  -4  465.15   33.60
  -4   8   4  448.46   38.30
   3  -8  -4   94.19   16.40
   5   3  -4  132.49   20.30
  -8   5  -4  113.19   21.80
  -3   8   4  159.18   20.20
   8  -5   4  129.49   13.40
   2  -8  -4   75.19   15.20
  -8   6  -4   75.29   17.00
   8  -6   4   84.69   11.60
  -2   8   4  106.79   19.30
   1  -8  -4  374.66   29.10
  -8   7  -4  334.87   31.70
  -1   8   4  310.77   28.20
   8  -7   4  258.87   19.40
  -8   8  -4   12.70    8.40
   0  -8  -4   14.40    6.40
   8  -8   4    4.20    4.50
   0   8   4   13.00    6.80
  -8   0   4   19.50    6.70
   8  -8   4   11.00    5.10
  -8   9  -4  151.08   24.90
  -9   1   4  174.08   19.80
   1   8   4  172.28   20.50
  -9   0  -4  219.98   29.40
   9  -9  -4  244.48   27.70
  -9   9   4  260.87   34.70
  -9   1  -4  300.57   33.30
  -8   9   4  240.78   50.89
   2   7  -4  220.88   14.90
  -9   2  -4  281.67   29.20
   7  -9  -4  176.78   23.70
   2   7  -4  222.68   16.50
  -7   9   4  267.17   31.40
   3   6  -4  300.87   21.70
   6  -9  -4  301.07   29.40
  -9   3  -4  318.17   33.10
   3   6  -4  307.07   25.40
  -6   9   4  380.16   36.30
  -9   4  -4  144.39   24.30
   4   5  -4  226.78   18.00
   5  -9  -4  249.18   25.50
   4   5  -4  171.28   19.50
  -5   9   4  248.38   28.10
   5   4  -4  160.98   21.70
   4  -9  -4  175.98   20.90
  -9   5  -4  177.58   23.50
  -4   9   4  183.48   23.10
   3  -9  -4  339.17   29.30
  -9   6  -4  297.97   31.90
  -3   9   4  388.86   33.70
   2  -9  -4  211.58   22.90
  -9   7  -4  202.78   27.20
   9  -7   4  210.58   19.10
  -2   9   4  208.88   23.50
   1  -9  -4  324.07   32.80
  -9   8  -4  295.47   32.70
  -1   9   4  293.87   28.50
   9  -8   4  329.97   23.30
   0  -9  -4  232.58   24.20
  -9   9  -4  233.18   27.80
   0   9   4  210.48   27.70
   9  -9   4  231.18   17.90
  -9   0   4  277.87   19.90
 -10   3  -4  413.56   41.10
   7 -10  -4  478.95   39.30
  -7  10   4  494.55   44.80
   6 -10  -4  261.37   46.00
 -10   4  -4  252.57   32.10
  -6  10   4  169.18   32.50
 -10   5  -4  638.24   53.29
  -5  10   4  695.93   64.59
   4 -10  -4  171.18   36.20
 -10   6  -4  173.78   38.50
  -4  10   4  155.08   30.40
   3 -10  -4  455.55   35.10
 -10   7  -4  314.67   54.59
  -3  10   4  420.76   55.99
   0   0  -5 2007.50   84.59
   0   0  -5 1998.70   82.59
   0   0   5 2179.58   78.79
  -1   0  -5    6.20    4.90
   0   1  -5    2.60    3.10
  -1   0  -5    0.90    2.40
   0   1  -5    4.10    2.10
   1  -1  -5    4.40    3.30
  -1   1   5    6.90    3.00
  -1   1   5   -2.80    2.20
   1   0   5    3.60    2.80
   0  -1  -5    5.90    3.10
  -1   1  -5    0.30    1.50
  -1   1  -5    4.30    4.10
   1   0  -5    5.20    3.20
   0  -1  -5    4.70    3.70
  -1   0   5    2.60    1.80
   0   1   5   -0.20    2.10
   1  -1   5    8.50    3.20
   0   1   5    3.30    3.10
   2  -1  -5 1748.23   71.09
  -1   2  -5 1795.22   61.09
  -1   2  -5 1798.32   71.89
  -1  -1  -5 1859.71   79.09
   2  -1  -5 1664.43   90.69
  -1  -1  -5 1771.62   70.09
  -2   1   5 1750.12   70.09
   1   1   5 1691.53   71.09
   1   1   5 1746.43   71.69
  -2  -1  -5  332.77   22.20
   3  -2  -5  312.27   24.00
  -1   3  -5  313.17   20.80
  -2  -1  -5  291.17   26.50
   3  -2  -5  308.17   28.20
  -3   2   5  296.17   23.50
   2   1   5  335.17   23.60
   0   2  -5   10.70    3.30
   0   2  -5   16.20    5.60
   2  -2  -5   16.20    5.20
   2  -2  -5   12.70    5.10
  -2   0  -5    5.80    3.80
  -2   0  -5   15.90    4.40
   2   0   5    6.00    3.40
  -2   2   5   16.10    5.90
   1  -2  -5 2130.49   85.49
   1   1  -5 2252.17   88.19
   1  -2  -5 2255.67   95.29
   1   1  -5 2231.38   79.39
  -2   1  -5 2132.59   96.29
  -2   1  -5 2216.48   78.39
  -1   2   5 2184.98   86.49
   2  -1   5 2195.88   80.39
  -1   2   5 2099.69   86.39
   2   0  -5   16.30    6.50
   2   0  -5   10.30    4.60
   0  -2  -5   12.70    6.20
  -2   2  -5   15.10    5.10
   0  -2  -5   10.10    4.40
  -2   2  -5    8.30    2.80
   0   2   5   13.80    5.10
   2  -2   5   10.60    3.60
  -2   0   5   18.90    4.70
   0   2   5    4.90    3.50
  -1  -2  -5  321.77   23.10
  -1  -2  -5  383.26   42.70
   3  -1  -5  330.57   23.70
   3  -1  -5  309.47   27.40
  -2   3  -5  314.97   21.60
   1   2   5  334.17   24.60
   1   2   5  313.37   24.10
  -3   1   5  354.76   23.30
  -2  -2  -5 2863.61  107.79
  -2   4  -5 2862.71  102.09
   4  -2  -5 2833.72  111.59
   2   2   5 2838.42  110.09
   2   2   5 2920.71  111.29
  -4   2   5 2967.80  111.29
  -3  -2  -5  113.59   14.30
   5  -3  -5  173.78   19.30
  -2   5  -5  147.59   12.10
  -5   3   5  141.19   16.90
   4  -3  -5   32.30    9.20
  -1   4  -5   27.20    6.40
  -3  -1  -5   20.10    6.20
   3   1   5   23.10    6.40
  -4   3   5   27.60    8.90
   0   3  -5 1602.74   63.89
  -3   0  -5 1594.94   64.09
   3  -3  -5 1675.93   71.49
  -3   3   5 1532.65   71.69
   3   0   5 1563.14   65.99
   1   2  -5   56.39   10.50
   2  -3  -5   48.20   10.80
  -3   1  -5   51.59   10.30
   2  -3  -5   54.69   16.90
   1   2  -5   56.79    6.70
  -3   1  -5   63.49    8.20
  -2   3   5   49.10   10.70
  -2   3   5   44.60    9.90
   3  -1   5   50.89    8.90
   1  -3  -5   51.09   10.10
  -3   2  -5   56.59    6.70
   2   1  -5   70.79   11.90
  -3   2  -5   67.19   12.10
   2   1  -5   60.79   12.20
  -1   3   5   66.69   12.40
  -1   3   5   64.29   13.10
   3  -2   5   64.09    7.70
  -3   3  -5 1639.04   66.99
   0  -3  -5 1639.84   70.09
   3   0  -5 1620.54   78.19
   3   0  -5 1663.73   67.49
   0   3   5 1585.74   71.29
   0   3   5 1637.14   71.49
  -3   0   5 1585.64   60.49
   3  -3   5 1556.74   56.79
  -3   4  -5   24.70    5.70
  -1  -3  -5   23.10    6.60
   4  -1  -5   17.30    7.20
   4  -1  -5   23.20    7.10
  -4   1   5   29.20    7.20
   1   3   5   28.90    8.30
   5  -2  -5  131.69   16.10
  -2  -3  -5  123.49   14.50
   2   3   5  141.89   28.70
  -5   2   5  118.19   14.70
   6  -3  -5 1262.67   65.89
  -3  -3  -5 1262.97   60.29
  -6   3   5 1236.78   63.09
  -4  -3  -5   95.29   15.90
   7  -4  -5   72.89   15.90
  -7   4   5   99.89   19.30
  -2   6  -5  206.68   13.50
  -4  -2  -5  185.98   18.50
   6  -4  -5  244.38   24.90
  -6   4   5  198.68   31.30
  -1   5  -5 1214.58   46.90
  -4  -1  -5 1172.28   54.49
   5  -4  -5 1187.38   61.39
  -5   4   5 1067.59   60.29
   4  -4  -5   28.50    9.30
  -4   0  -5   22.10    6.00
   0   4  -5   19.80    6.00
  -4   4   5   35.10   10.20
   4   0   5   32.30    7.90
   3  -4  -5   69.19   13.50
   1   3  -5   62.19   10.70
  -4   1  -5   63.59    8.60
   1   3  -5   73.19    7.10
   4  -1   5   84.79   10.90
  -3   4   5   57.69   12.60
   2   2  -5 1596.34   68.89
  -4   2  -5 1693.53   62.49
  -4   2  -5 1597.54   69.99
   2   2  -5 1631.94   61.99
   2  -4  -5 1583.94   71.19
   4  -2   5 1483.15   61.79
  -2   4   5 1609.34   74.39
   3   1  -5   61.99   10.70
   3   1  -5   62.29   12.30
   1  -4  -5   65.09   13.30
  -4   3  -5   62.79   11.40
   4  -3   5   61.09    7.50
  -1   4   5   96.89   16.90
   0  -4  -5   23.10    7.10
   4   0  -5   22.70    7.00
  -4   4  -5   31.20    7.60
   4   0  -5   17.10    7.90
  -4   0   5   22.60    4.90
   0   4   5   28.60    8.40
   5  -1  -5 1233.68   60.79
  -1  -4  -5 1236.38   66.29
   1   4   5 1185.58   59.89
  -5   1   5 1183.48   53.89
   6  -2  -5  204.88   25.40
  -2  -4  -5  216.18   20.70
   2   4   5  180.28   20.00
  -6   2   5  165.18   17.90
   7  -3  -5   96.09   18.00
  -3  -4  -5   82.39   14.60
  -7   3   5   68.89   13.90
   8  -4  -5  670.23   46.70
  -4  -4  -5  652.63   41.50
  -4   8  -5  685.33   34.30
  -8   4   5  676.03   46.70
  -5  -4  -5  266.87   35.60
   9  -5  -5  206.18   36.70
  -4   9  -5  245.28   18.80
  -5  -4  -5  223.38   23.80
  -9   5   5  215.38   26.80
  -5  -3  -5  114.69   15.80
   8  -5  -5  149.69   20.30
  -8   5   5  190.08   23.90
   7  -5  -5  812.12   51.49
  -5  -2  -5  801.52   45.10
  -7   5   5  760.02   52.09
  -1   6  -5  230.98   14.40
   6  -5  -5  270.57   26.60
  -5  -1  -5  242.58   21.40
  -6   5   5  258.57   27.40
  -5   0  -5   66.09   12.20
   5  -5  -5   63.59   13.60
   0   5  -5   72.39   11.80
  -5   5   5  105.39   18.30
  -5   1  -5 1289.47   56.99
   1   4  -5 1296.97   53.49
   5  -1   5 1300.37   58.09
   2   3  -5  170.18   12.30
   2   3  -5  167.98   13.00
   2   3  -5  176.78   16.40
   3  -5  -5  136.39   17.20
  -3   5   5  187.68   30.90
   5  -2   5  171.68   15.10
   3   2  -5  194.08   18.70
   2  -5  -5  157.78   18.20
   3   2  -5  190.18   16.00
   5  -3   5  143.69   13.00
   1  -5  -5 1234.18   85.19
   4   1  -5 1277.57   59.09
   4   1  -5 1224.18   62.89
  -1   5   5 1316.67   65.69
   5  -4   5 1273.37   49.50
   0  -5  -5   83.99   14.90
   5   0  -5   84.79   15.50
   0   5   5   70.29   14.80
  -5   0   5   91.59    9.50
   6  -1  -5  191.18   22.20
  -1  -5  -5  256.37   23.80
  -6   1   5  264.77   20.50
   1   5   5  240.88   23.20
   7  -2  -5  776.02   49.80
  -5   7  -5  779.92   41.10
  -2  -5  -5  818.02   46.50
   2   5   5  766.62   46.30
  -7   2   5  728.33   43.40
  -5   8  -5  134.79   15.80
  -3  -5  -5  129.29   16.80
   8  -3  -5  159.08   20.50
  -8   3   5  119.39   19.90
   9  -4  -5  246.68   27.80
  -5   9  -5  254.87   21.50
  -9   4   5  200.28   25.50
  -6  -3  -5  558.84   41.30
   9  -6  -5  524.65   42.20
  -9   6   5  518.95   44.60
   8  -6  -5  198.38   23.60
  -6  -2  -5  206.18   23.30
  -6  -2  -5  185.28   20.40
  -8   6   5  208.78   32.20
   7  -6  -5   76.79   16.20
  -6  -1  -5   82.99   17.40
  -6  -1  -5   57.09   12.30
  -7   6   5   72.89   17.00
   6  -6  -5 1150.18   63.89
   0   6  -5 1097.99   43.40
  -6   6   5 1153.58   66.49
   1   5  -5  295.37   19.60
   5  -6  -5  316.47   29.20
  -5   6   5  377.76   33.20
   2   4  -5   83.19    9.30
   4  -6  -5  106.99   18.80
   2   4  -5   92.49    8.20
   2   4  -5   95.79   13.40
   6  -2   5   76.49   12.40
  -4   6   5   64.79   14.60
   3   3  -5 1092.99   45.00
   3  -6  -5 1080.89   57.29
   3   3  -5 1018.60   51.89
   3   3  -5 1094.99   48.50
  -3   6   5 1049.59   60.09
   6  -3   5  993.60   46.70
   2  -6  -5   86.09   15.80
   4   2  -5   86.09   16.50
   6  -4   5   80.59   10.10
  -2   6   5   80.79   16.10
   1  -6  -5  341.87   28.00
   6  -5   5  329.47   18.50
  -1   6   5  353.16   30.00
   0  -6  -5 1150.78   58.99
  -6   6  -5 1110.79   56.69
   0   6   5 1118.09   59.99
  -6   0   5 1139.89   45.80
  -1  -6  -5   57.69   12.70
  -6   7  -5   83.29   14.40
   7  -1  -5   55.49   13.60
   1   6   5   66.99   14.10
  -7   1   5   66.69   11.90
  -2  -6  -5  224.98   22.60
  -6   8  -5  195.08   20.20
   8  -2  -5  203.18   24.40
   2   6   5  227.38   22.90
  -8   2   5  207.18   20.80
  -3  -6  -5  605.44   40.40
   9  -3  -5  550.84   43.20
  -6   9  -5  513.85   35.60
  -9   3   5  525.85   39.40
   9  -7  -5  154.08   27.00
  -7  -2  -5  199.68   43.10
  -9   7   5  208.98   27.80
   8  -7  -5  359.16   33.10
  -7  -1  -5  323.47   32.00
  -8   7   5  364.06   36.50
   7  -7  -5   97.09   19.90
  -7   0  -5   78.09   16.00
  -7   7   5   91.79   19.80
  -7   1  -5   96.79   19.00
   6  -7  -5   70.19   16.50
  -6   7   5   57.09   14.50
   5  -7  -5  494.35   38.40
  -7   2  -5  471.15   37.60
   2   5  -5  458.05   28.00
   2   5  -5  500.05   22.80
  -5   7   5  457.35   39.40
   3   4  -5  103.19   10.90
   4  -7  -5  124.79   21.10
   3   4  -5  141.29   16.20
  -7   3  -5  127.49   21.00
  -4   7   5   91.09   18.00
   7  -3   5  148.39   16.20
   4   3  -5  108.49   13.60
   3  -7  -5   94.09   17.20
  -7   4  -5   91.69   17.40
   4   3  -5  122.99   28.10
  -3   7   5  127.69   22.50
   2  -7  -5  493.65   35.70
  -7   5  -5  476.75   36.20
  -2   7   5  518.35   38.70
   7  -5   5  432.16   25.40
   1  -7  -5   46.20   11.70
  -7   6  -5   62.59   12.60
  -1   7   5   65.29   14.40
   7  -6   5   73.99    9.40
  -7   7  -5   78.69   16.20
   0  -7  -5   79.19   15.20
   0   7   5   94.19   17.40
  -7   0   5   93.99    9.50
  -7   8  -5  370.36   30.20
  -1  -7  -5  279.57   27.10
  -8   1   5  290.87   22.80
   1   7   5  344.17   29.40
  -2  -7  -5  177.58   21.70
   9  -2  -5  169.18   28.40
  -7   9  -5  168.88   20.90
  -9   2   5  179.68   27.30
   2   7   5  153.88   19.70
   8  -8  -5   50.39   14.60
  -8   0  -5   58.49   13.10
  -8   8   5   52.29   16.10
  -8   1  -5  597.04   45.30
   7  -8  -5  535.75   42.60
  -7   8   5  553.64   46.40
  -8   2  -5  251.77   28.10
   2   6  -5  291.97   16.10
   2   6  -5  298.87   21.20
   6  -8  -5  291.47   29.90
  -6   8   5  292.17   32.00
   3   5  -5  197.78   14.90
   5  -8  -5  211.08   23.30
   3   5  -5  212.98   20.70
  -8   3  -5  197.08   24.40
  -5   8   5  185.68   24.80
   4   4  -5 1045.50   59.29
   4  -8  -5 1082.09   61.59
  -8   4  -5 1094.49   63.39
   4   4  -5 1091.19   47.90
  -4   8   5 1115.09   64.89
  -8   5  -5  257.87   26.10
   3  -8  -5  209.68   23.30
   8  -5   5  216.78   18.00
  -3   8   5  214.18   25.30
  -8   6  -5  326.07   30.10
   2  -8  -5  292.37   27.60
  -2   8   5  269.97   27.60
   8  -6   5  267.47   19.50
  -8   7  -5  470.75   37.70
   1  -8  -5  562.44   38.50
   8  -7   5  465.05   25.90
  -1   8   5  494.25   37.70
  -8   8  -5   59.09   13.30
   0  -8  -5   84.29   17.20
   0   8   5   60.89   14.40
   7  -9  -5   70.69   17.00
  -9   2  -5   77.59   19.10
  -7   9   5   68.19   19.60
  -9   3  -5  574.44   45.60
   6  -9  -5  573.24   43.00
  -6   9   5  484.95   44.30
   4   5  -5  246.58   28.40
   5  -9  -5  196.48   30.90
   4   5  -5  205.18   17.30
  -5   9   5  154.88   33.10
   4  -9  -5  211.58   34.10
  -9   5  -5  180.58   27.90
  -4   9   5  141.49   34.70
   3  -9  -5  527.15   39.10
  -9   6  -5  530.65   42.80
  -3   9   5  548.25   43.10
  -9   7  -5   52.89   15.00
   2  -9  -5   56.49   13.10
  -2   9   5   60.89   14.30
   0   0  -6 4435.56  153.58
   0   0   6 4650.73  157.38
   1  -1  -6   24.20    6.90
  -1   0  -6   14.40    4.90
   0   1  -6   12.60    6.40
   1   0   6   12.60    5.20
  -1   1   6   20.50    6.00
  -1   1  -6    8.10    5.70
   1   0  -6   21.80    6.30
   0  -1  -6    8.70    4.80
   1   0  -6    5.70    6.20
  -1   1  -6   27.10    6.70
   1  -1   6   15.30    5.70
   0   1   6   18.90    5.70
   0   1   6   16.90    6.50
  -1   2  -6  913.81   35.80
  -1  -1  -6  920.71   43.70
  -1   2  -6  909.51   47.70
   2  -1  -6  872.81   44.50
   1   1   6  888.01   45.20
  -2   1   6  883.71   42.50
  -2  -1  -6   62.89   11.10
   3  -2  -6   90.39   15.10
  -1   3  -6   82.19   15.30
  -3   2   6   91.39   12.20
   2   1   6   96.09   14.80
  -2   0  -6  136.09   12.90
   0   2  -6  139.49   10.00
   0   2  -6  115.49   18.00
   2  -2  -6  136.19   15.10
  -2   2   6  130.39   14.80
   2   0   6  105.49   13.40
  -2   1  -6  959.50   41.60
   1   1  -6  999.80   42.90
   1   1  -6  926.81   51.19
   1  -2  -6  944.21   48.20
  -1   2   6  957.00   49.60
  -1   2   6 1061.29   49.99
   2  -1   6 1003.60   44.40
   0  -2  -6  144.99   15.50
  -2   2  -6  134.29   16.80
   2   0  -6  132.79   13.60
  -2   2  -6  139.29   10.40
   2   0  -6  132.39   26.30
   0   2   6  139.89   15.40
   0   2   6  116.49   14.50
  -2   0   6  139.79   14.30
   2  -2   6  147.79   11.80
  -2   3  -6   78.19   13.30
  -1  -2  -6   60.69   11.70
   3  -1  -6   66.69   12.00
   1   2   6  109.99   13.70
  -3   1   6   94.49   10.80
  -2  -2  -6  861.21   44.90
   4  -2  -6  825.42   46.90
  -4   2   6  942.41   47.10
  -2   5  -6  191.38   16.70
   5  -3  -6  204.18   21.70
  -3  -2  -6  206.08   19.80
  -5   3   6  158.68   18.70
   4  -3  -6   14.60    6.70
  -3  -1  -6   45.80    9.70
  -1   4  -6   27.90    7.90
  -4   3   6   33.40    9.50
   3  -3  -6 2306.67   94.39
   0   3  -6 2195.08   89.29
  -3   0  -6 2325.87   86.89
   3   0   6 2259.97   89.29
  -3   3   6 2262.87   94.69
   2  -3  -6   16.60    6.60
  -3   1  -6   17.40    5.40
   1   2  -6   18.20    4.60
  -2   3   6   16.90    6.30
   3  -1   6   12.40    5.40
   2   1  -6   35.20    9.80
   1  -3  -6   21.00    6.80
  -3   2  -6   10.60    5.50
   2   1  -6   23.70    6.50
  -1   3   6    8.40    5.00
   3  -2   6   21.50    5.60
   0  -3  -6 2250.67   92.19
   3   0  -6 2283.27   89.19
   0   3   6 2117.49  109.39
   3  -3   6 2308.87   78.69
  -3   0   6 2318.87   80.59
   4  -1  -6   26.80    7.70
  -3   4  -6   24.20    7.20
  -4   1   6   20.10    6.20
   1   3   6   31.90    9.10
  -3   5  -6  179.38   16.90
  -2  -3  -6  213.58   20.00
  -5   2   6  168.98   17.40
  -3  -3  -6 1304.37   63.29
   6  -3  -6 1391.66   69.39
  -3   6  -6 1315.67   61.09
  -6   3   6 1271.67   69.89
   7  -4  -6  177.18   21.40
  -4  -3  -6  141.59   16.90
  -3   7  -6  139.69   13.50
  -7   4   6  162.98   20.10
  -2   6  -6   76.99    9.60
  -4  -2  -6   56.39   11.40
   6  -4  -6   52.39   14.80
  -6   4   6   36.20   11.00
   5  -4  -6  540.45   38.50
  -4  -1  -6  502.55   33.80
  -1   5  -6  588.64   31.10
  -5   4   6  503.05   37.10
  -4   0  -6   61.69   11.00
   0   4  -6   74.59   11.60
   4  -4  -6   66.69   14.00
  -4   4   6   69.29   14.80
   1   3  -6   60.29   12.40
   3  -4  -6   47.20   11.10
   1   3  -6   55.39    6.10
  -4   1  -6   58.99   10.10
   4  -1   6   80.99   12.50
  -3   4   6   65.39   14.30
   2  -4  -6  864.11   48.40
  -4   2  -6  811.32   38.70
   2   2  -6  871.31   48.20
   2   2  -6  866.51   40.00
  -2   4   6  936.41   51.19
   4  -2   6  910.91   41.00
   1  -4  -6   94.59   15.90
   3   1  -6   46.20    9.00
   3   1  -6   58.09   14.00
   4  -3   6   77.39    8.90
  -1   4   6   77.69   14.50
   4   0  -6   84.99   14.00
   0  -4  -6   74.39   13.90
   0   4   6   61.99   12.50
  -4   0   6   73.79    7.70
   5  -1  -6  575.24   37.00
  -1  -4  -6  555.74   36.40
   1   4   6  524.35   36.60
  -5   1   6  505.55   29.30
   6  -2  -6   47.60   12.60
  -2  -4  -6   55.69   11.90
  -4   6  -6   53.19    9.70
   2   4   6   68.19   14.90
  -6   2   6   73.09   12.50
   7  -3  -6  144.99   19.90
  -4   7  -6  141.09   13.70
  -3  -4  -6  153.98   18.00
  -7   3   6  141.19   18.10
   8  -4  -6  308.27   30.70
  -4  -4  -6  345.27   37.50
  -8   4   6  346.57   30.30
  -5  -3  -6  106.39   18.50
  -8   5   6  106.09   20.70
   7  -5  -6  496.75   39.30
  -5  -2  -6  475.75   33.50
  -2   7  -6  463.45   25.90
  -7   5   6  507.45   38.80
  -5  -1  -6  247.58   22.10
   6  -5  -6  283.27   28.30
  -1   6  -6  242.98   17.90
  -6   5   6  247.08   26.70
  -5   0  -6  265.07   27.20
   5  -5  -6  246.88   25.00
   0   5  -6  243.18   18.70
  -5   5   6  243.58   25.90
  -5   1  -6  544.55   32.60
   4  -5  -6  559.24   39.30
   1   4  -6  581.94   33.80
  -4   5   6  695.63   44.40
   2   3  -6  160.68   12.90
   2   3  -6  143.59   20.50
   3  -5  -6  159.08   19.10
  -3   5   6  210.18   23.00
   5  -2   6  181.28   20.20
   3   2  -6  175.38   18.80
   2  -5  -6  145.99   18.30
   3   2  -6  160.88   14.60
  -2   5   6  136.89   22.00
   5  -3   6  158.48   14.00
   4   1  -6  552.04   34.30
   1  -5  -6  547.75   37.80
  -1   5   6  614.34   41.00
   5  -4   6  670.83   32.00
   0  -5  -6  225.58   23.30
   5   0  -6  266.17   23.20
   0   5   6  257.77   25.10
  -1  -5  -6  250.37   23.60
   6  -1  -6  208.78   22.60
   1   5   6  236.18   24.20
  -6   1   6  243.68   18.80
   7  -2  -6  446.66   36.50
  -2  -5  -6  450.15   33.70
  -7   2   6  526.45   33.40
   2   5   6  494.65   36.30
  -3  -5  -6   78.69   14.60
  -5   8  -6  124.69   17.50
   8  -3  -6   93.29   18.60
  -8   3   6   91.59   16.50
  -6  -2  -6  249.97   30.70
   8  -6  -6  215.08   26.10
  -8   6   6  270.97   29.20
  -6  -1  -6   93.49   16.10
  -1   7  -6   94.09   10.50
   7  -6  -6  146.59   19.40
  -7   6   6   88.39   18.00
   6  -6  -6 1453.45   76.09
   0   6  -6 1480.65   59.49
  -6   6   6 1507.45   78.49
   5  -6  -6  266.57   27.00
   1   5  -6  284.77   21.00
  -5   6   6  222.98   25.70
   2   4  -6   85.39    8.40
   4  -6  -6  124.29   20.80
   2   4  -6  105.79   13.30
  -4   6   6   71.69   16.30
   3   3  -6 1440.56   59.29
   3   3  -6 1419.96   68.59
   3  -6  -6 1507.55   73.09
   3   3  -6 1387.86   56.39
  -3   6   6 1460.65   75.09
   6  -3   6 1502.55   63.39
   4   2  -6   87.99   13.90
   2  -6  -6  109.49   18.60
  -2   6   6   86.79   16.90
   6  -4   6   62.09    9.50
   5   1  -6  272.07   23.60
   1  -6  -6  323.87   27.70
  -1   6   6  270.37   26.60
   6   0  -6 1578.24   75.49
   0  -6  -6 1578.14   75.19
   0   6   6 1551.44   76.99
  -1  -6  -6   94.09   17.20
   7  -1  -6  111.59   20.00
  -6   7  -6   89.09   15.70
   1   6   6   90.29   21.60
  -7   1   6   89.59   12.60
   8  -2  -6  250.67   27.10
  -6   8  -6  228.88   22.30
  -2  -6  -6  223.18   22.70
  -8   2   6  196.18   20.20
   2   6   6  216.88   23.60
  -7   0  -6  179.98   24.10
   7  -7  -6  197.28   24.90
  -7   7   6  154.38   37.50
   6  -7  -6   51.09   12.90
   1   6  -6   75.09   11.40
  -7   1  -6   75.39   25.20
  -6   7   6   53.09   15.10
   2   5  -6  435.46   30.20
  -7   2  -6  485.25   38.60
   5  -7  -6  449.06   36.60
  -5   7   6  432.46   37.90
   3   4  -6  105.59   16.10
   3   4  -6  113.69   10.60
   3   4  -6   94.39   10.50
  -7   3  -6   88.69   17.30
   4  -7  -6   85.09   16.90
  -4   7   6   95.79   18.50
   3  -7  -6  122.49   20.90
   4   3  -6  112.89   12.20
  -7   4  -6   95.19   18.40
   4   3  -6  123.29   14.00
  -3   7   6   93.99   18.40
  -7   5  -6  448.96   35.60
   5   2  -6  483.95   33.00
   2  -7  -6  451.25   35.30
   7  -5   6  463.65   25.80
  -2   7   6  533.35   40.10
  -7   6  -6   60.19   14.30
   6   1  -6   41.00   11.30
   1  -7  -6   77.69   14.40
  -1   7   6   62.59   17.40
   0  -7  -6  249.58   24.70
   7   0  -6  221.68   24.40
  -7   7  -6  216.18   23.50
   0   7   6  263.17   25.80
   6  -8  -6  225.28   26.80
  -8   2  -6  256.27   29.10
  -6   8   6  281.17   31.60
   5  -8  -6  175.68   22.80
   3   5  -6  155.48   13.70
  -8   3  -6  168.68   22.50
  -5   8   6  199.28   24.60
   4   4  -6  427.36   27.60
   4  -8  -6  414.46   35.20
  -4   8   6  522.85   41.80
   5   3  -6  172.78   18.60
   3  -8  -6  190.98   22.50
  -8   5  -6  173.68   22.80
  -3   8   6  183.38   28.30
   2  -8  -6  255.77   26.00
  -8   6  -6  281.67   28.50
   6   2  -6  240.68   23.90
  -2   8   6  277.07   28.20
   0   0  -7  643.84   33.70
  -1   0  -7    5.10    4.00
   0   1  -7    1.10    2.70
   1   0   7   10.60    5.10
  -1   1  -7   13.20    3.90
   1   0  -7   17.80    5.50
   0   1   7    9.10    5.10
  -1   2  -7 1004.50   40.30
  -1  -1  -7 1084.79   49.70
   2  -1  -7 1015.90   49.90
  -2   1   7 1013.90   47.20
  -2  -1  -7   53.19   10.60
  -3   2   7   64.19   11.40
  -2   0  -7    0.90    3.20
   2  -2  -7   -3.90    3.00
   0   2  -7   -1.20    2.20
  -2   2   7   -2.10    2.70
   2   0   7    0.60    4.80
   1  -2  -7 1189.18   56.79
  -2   1  -7 1263.47   50.49
   1   1  -7 1218.68   50.69
  -1   2   7 1145.29   56.19
   2  -1   7 1151.18   52.39
   2   0  -7    2.40    3.20
   0  -2  -7   -0.10    3.60
   0   2   7   -1.70    2.40
   3  -1  -7   53.79   11.20
  -1  -2  -7   53.79   11.10
  -3   1   7   63.49   10.20
   4  -2  -7  882.31   49.00
  -2  -2  -7  886.31   47.10
  -4   2   7  954.50   46.20
  -3  -2  -7   47.30   10.30
   5  -3  -7   83.69   16.40
  -5   3   7   69.49   12.80
   4  -3  -7   19.40    8.90
  -3  -1  -7    9.80    4.50
  -4   3   7   18.00    6.70
  -3   0  -7  564.54   32.90
   3  -3  -7  646.84   39.50
  -3   3   7  654.63   39.20
   2  -3  -7   84.79   14.80
  -3   1  -7   99.39   11.00
   3  -1   7   78.49   13.30
  -2   3   7   87.59   15.30
   2   1  -7  102.29   11.80
  -3   2  -7   84.69    9.20
   1  -3  -7   71.89   12.90
   3  -2   7   89.89   11.40
  -1   3   7  101.09   16.90
   3   0  -7  658.73   36.40
   0  -3  -7  634.44   39.10
   0   3   7  595.44   38.60
   4  -1  -7   10.90    9.30
  -1  -3  -7    9.50    5.60
   1   3   7   10.80    5.80
  -4   1   7   15.20    5.60
   5  -2  -7   56.79   13.40
  -2  -3  -7   57.39   11.90
  -5   2   7   69.59   12.10
   6  -3  -7  328.17   29.90
  -3  -3  -7  339.27   27.60
  -6   3   7  335.37   27.40
  -2   6  -7   69.69   13.30
  -4  -2  -7   79.39   15.10
   6  -4  -7   71.59   15.50
  -1   5  -7  734.23   40.40
  -4  -1  -7  694.33   39.70
   5  -4  -7  724.83   46.00
  -5   4   7  676.83   43.80
  -4   0  -7   38.40   10.30
   0   4  -7   19.60   11.50
   4  -4  -7   36.40   11.00
  -4   4   7   49.60   11.70
  -4   1  -7   78.39   10.10
   3  -4  -7   79.79   14.80
  -3   4   7   67.29   14.30
   4  -1   7   34.30   11.40
   2  -4  -7 1237.08   62.89
   2   2  -7 1307.27   52.29
  -4   2  -7 1254.87   52.49
  -2   4   7 1307.27   64.89
   4  -2   7 1213.88   54.39
   1  -4  -7   82.79   16.10
   3   1  -7   64.29   11.20
   4  -3   7   66.19    9.90
  -1   4   7   63.99   13.50
   4   0  -7   55.29   11.50
   0  -4  -7   21.30    8.60
   0   4   7   34.20    9.40
   5  -1  -7  674.03   42.60
  -1  -4  -7  744.33   44.00
  -5   1   7  709.63   34.10
   1   4   7  678.23   43.80
   6  -2  -7   54.19   14.30
  -2  -4  -7   61.29   12.20
  -6   2   7   38.90    9.80
  -5  -1  -7   91.29   14.60
   6  -5  -7   90.99   18.20
  -6   5   7   94.89   16.50
   5  -5  -7   28.20    8.30
  -5   0  -7   25.20    7.10
  -5   5   7   13.50    8.40
  -5   1  -7  768.92   47.90
   4  -5  -7  897.51   51.39
  -4   5   7  788.72   50.09
   2   3  -7   43.70    7.00
   3  -5  -7   74.99   14.50
   5  -2   7   28.30    9.60
  -3   5   7   46.20   12.30
   3   2  -7   73.09   11.50
   2  -5  -7   73.79   14.40
  -2   5   7   72.09   14.70
   4   1  -7  855.81   44.60
   1  -5  -7  821.32   49.20
  -1   5   7  821.42   50.29
   5   0  -7   21.40    7.20
   0   5   7   22.50    7.20
  -1  -5  -7  118.99   23.40
   6  -1  -7   97.39   17.30
  -6   1   7   82.79   10.10
   1   5   7   70.59   14.00
  -5   6   7  131.89   21.50
   4  -6  -7   83.09   16.90
  -4   6   7   95.59   19.00
   3  -6  -7  525.95   38.80
   3   3  -7  528.15   28.10
  -3   6   7  522.05   40.00
   2  -6  -7  106.99   18.90
   4   2  -7  104.19   13.50
  -2   6   7   93.69   27.00
   1  -6  -7  108.69   27.50
   5   1  -7  122.29   18.20
  -1   6   7  147.79   19.00
   0   0  -8  830.02   40.50
  -1   0  -8   17.30    5.30
   0   1  -8   21.20    4.90
   0  -1  -8   15.80    6.80
   1   0  -8   13.20    6.00
  -1   1  -8   29.50    6.30
  -1  -1  -8  534.25   31.70
   2  -1  -8  500.55   32.40
   3  -2  -8   80.99   14.60
  -2  -1  -8  104.99   13.50
  -3   2   8   83.59   13.30
  -2   0  -8   15.00    5.90
   2  -2  -8   17.70    7.70
  -2   2   8   18.90    5.80
   1   1  -8 1039.90   45.00
   1  -2  -8 1031.70   52.09
  -2   1  -8 1026.00   44.80
   2  -1   8  959.30   48.40
   0  -2  -8   25.50    7.70
   2   0  -8   19.80    6.10
   3  -1  -8   86.89   14.60
  -1  -2  -8  102.99   13.50
  -2  -2  -8 1242.78   57.89
   4  -2  -8 1161.68   59.39
  -4   2   8 1119.99   60.69
  -3  -1  -8   36.70    8.80
   4  -3  -8   37.90   11.40
  -4   3   8   47.60   10.40
   3  -3  -8  808.32   46.20
  -3   0  -8  757.12   39.00
  -3   3   8  678.03   41.50
   2  -3  -8    1.00    4.60
  -3   1  -8    5.40    3.60
   1   2  -8    4.30    3.30
  -2   3   8    0.70    5.50
   2   1  -8    2.90    3.70
  -3   2  -8    7.00    3.70
   1  -3  -8   -3.70    3.50
  -1   3   8    8.00    4.80
   0  -3  -8  740.73   43.40
   3   0  -8  771.42   41.20
   4  -1  -8   55.99   12.10
  -1  -3  -8   43.40   10.30
   3  -4  -8   89.59   16.80
  -4   1  -8   92.49   13.90
  -3   4   8   94.09   16.10
   2  -4  -8  491.45   35.40
   2   2  -8  501.45   26.00
  -2   4   8  479.15   34.90
   3   1  -8   71.59   11.30
   1  -4  -8   69.69   15.70
  -1   4   8   69.09   13.00
   0   0   0    0.00    0.00

_computing_structure_solution     'SHELXT 2014/5 (Sheldrick, 2014)'
;
_shelx_hkl_checksum              87637
loop_
_space_group_symop_operation_xyz
'x, y, z'
'-y, x-y, z'
'-x+y, -x, z'
'y, x, z'
'x-y, -y, z'
'-x, -x+y, z'
loop_
_atom_site_label
_atom_site_type_symbol
_atom_site_fract_x
_atom_site_fract_y
_atom_site_fract_z
_atom_site_U_iso_or_equiv
_atom_site_adp_type
_atom_site_occupancy
_atom_site_site_symmetry_order
_atom_site_calc_flag
_atom_site_refinement_flags_posn
_atom_site_refinement_flags_adp
_atom_site_refinement_flags_occupancy
_atom_site_disorder_assembly
_atom_site_disorder_group
La1 La 0.31559(4) 1.000000 -0.16962(4) 0.01104(11) Uani 1 2 d S T P . .
K1 K 0.333333 0.666667 1.1696(3) 0.0175(5) Uani 1 3 d S T P . .
K2 K 0.000000 0.7162(3) 0.3267(4) 0.0355(5) Uani 1 2 d S T P . .
Mg1 Mg 0.333333 0.666667 0.6518(5) 0.0115(7) Uani 1 3 d S T P . .
O1 O 0.1957(8) 0.1957(8) 0.8007(16) 0.035(2) Uani 1 2 d S T P . .
O2 O 0.3421(4) 0.4926(7) 0.8551(9) 0.0135(10) Uani 1 1 d . . . . .
O3 O 0.3100(4) 0.8502(5) 0.4948(6) 0.0172(9) Uani 1 1 d . . . . .
O4 O 0.3274(7) 1.000000 0.1912(12) 0.0221(16) Uani 1 2 d S T P . .
B1 B 0.3439(9) 0.3439(9) 0.8337(15) 0.015(2) Uani 1 2 d S T P . .
B2 B 0.3703(11) 1.000000 0.3890(14) 0.012(2) Uani 1 2 d S T P . .
loop_
_atom_site_aniso_label
_atom_site_aniso_U_11
_atom_site_aniso_U_22
_atom_site_aniso_U_33
_atom_site_aniso_U_23
_atom_site_aniso_U_13
_atom_site_aniso_U_12
La1 0.01157(15) 0.01051(19) 0.01069(18) 0.000 0.0002(3) 0.00525(10)
K1 0.0200(7) 0.0200(7) 0.0125(10) 0.000 0.000 0.0100(4)
K2 0.0172(10) 0.0380(9) 0.0445(13) 0.0004(10) 0.000 0.0086(5)
Mg1 0.0111(10) 0.0111(10) 0.0122(16) 0.000 0.000 0.0056(5)
O1 0.014(3) 0.014(3) 0.078(6) -0.007(3) -0.007(3) 0.008(3)
O2 0.0151(16) 0.0125(18) 0.014(3) 0.0023(17) -0.0008(15) 0.0075(15)
O3 0.0221(19) 0.014(2) 0.0161(19) 0.0028(15) 0.0022(16) 0.0098(16)
O4 0.031(3) 0.020(3) 0.012(4) 0.000 0.001(2) 0.0100(16)
B1 0.017(3) 0.017(3) 0.015(5) 0.002(3) 0.002(3) 0.011(4)
B2 0.012(3) 0.017(5) 0.010(5) 0.000 0.002(3) 0.008(2)
loop_
_atom_type_symbol
_atom_type_description
_atom_type_scat_dispersion_real
_atom_type_scat_dispersion_imag
_atom_type_scat_source
B B 0.0013 0.0007 'International Tables Vol C Tables 4.2.6.8 and 6.1.1.4'
K K 0.2009 0.2494 'International Tables Vol C Tables 4.2.6.8 and 6.1.1.4'
La La -0.2871 2.4523 'International Tables Vol C Tables 4.2.6.8 and 6.1.1.4'
Mg Mg 0.0486 0.0363 'International Tables Vol C Tables 4.2.6.8 and 6.1.1.4'
O O 0.0106 0.0060 'International Tables Vol C Tables 4.2.6.8 and 6.1.1.4'
loop_
_geom_angle_atom_site_label_1
_geom_angle_atom_site_label_2
_geom_angle_atom_site_label_3
_geom_angle
_geom_angle_site_symmetry_1
_geom_angle_site_symmetry_3
_geom_angle_publ_flag
O4 La1 O1 96.5(3) . 3_564 ?
O4 La1 O1 96.5(3) . 1_564 ?
O1 La1 O1 75.5(3) 3_564 1_564 ?
O4 La1 O3 147.66(11) . 1_554 ?
O1 La1 O3 81.1(2) 3_564 1_554 ?
O1 La1 O3 113.8(3) 1_564 1_554 ?
O4 La1 O3 147.66(12) . 5_674 ?
O1 La1 O3 113.8(3) 3_564 5_674 ?
O1 La1 O3 81.1(2) 1_564 5_674 ?
O3 La1 O3 54.12(16) 1_554 5_674 ?
O4 La1 O2 86.47(13) . 4_564 ?
O1 La1 O2 129.17(17) 3_564 4_564 ?
O1 La1 O2 53.8(2) 1_564 4_564 ?
O3 La1 O2 120.07(14) 1_554 4_564 ?
O3 La1 O2 65.99(15) 5_674 4_564 ?
O4 La1 O2 86.47(13) . 3_564 ?
O1 La1 O2 53.8(2) 3_564 3_564 ?
O1 La1 O2 129.17(17) 1_564 3_564 ?
O3 La1 O2 65.99(15) 1_554 3_564 ?
O3 La1 O2 120.07(14) 5_674 3_564 ?
O2 La1 O2 172.7(3) 4_564 3_564 ?
O4 La1 O2 84.22(18) . 6_664 ?
O1 La1 O2 168.1(2) 3_564 6_664 ?
O1 La1 O2 116.26(17) 1_564 6_664 ?
O3 La1 O2 91.88(16) 1_554 6_664 ?
O3 La1 O2 68.57(15) 5_674 6_664 ?
O2 La1 O2 62.7(3) 4_564 6_664 ?
O2 La1 O2 114.53(3) 3_564 6_664 ?
O4 La1 O2 84.22(18) . 2_664 ?
O1 La1 O2 116.26(17) 3_564 2_664 ?
O1 La1 O2 168.1(2) 1_564 2_664 ?
O3 La1 O2 68.57(15) 1_554 2_664 ?
O3 La1 O2 91.88(16) 5_674 2_664 ?
O2 La1 O2 114.53(3) 4_564 2_664 ?
O2 La1 O2 62.7(3) 3_564 2_664 ?
O2 La1 O2 51.9(3) 6_664 2_664 ?
O4 La1 B2 167.8(2) . 1_554 ?
O1 La1 B2 93.2(3) 3_564 1_554 ?
O1 La1 B2 93.2(3) 1_564 1_554 ?
O3 La1 B2 27.71(9) 1_554 1_554 ?
O3 La1 B2 27.71(9) 5_674 1_554 ?
O2 La1 B2 93.24(12) 4_564 1_554 ?
O2 La1 B2 93.24(12) 3_564 1_554 ?
O2 La1 B2 84.8(2) 6_664 1_554 ?
O2 La1 B2 84.8(2) 2_664 1_554 ?
O4 La1 B1 90.7(2) . 3_564 ?
O1 La1 B1 26.8(2) 3_564 3_564 ?
O1 La1 B1 102.1(2) 1_564 3_564 ?
O3 La1 B1 72.7(2) 1_554 3_564 ?
O3 La1 B1 121.4(2) 5_674 3_564 ?
O2 La1 B1 155.11(17) 4_564 3_564 ?
O2 La1 B1 27.05(19) 3_564 3_564 ?
O2 La1 B1 141.59(18) 6_664 3_564 ?
O2 La1 B1 89.71(18) 2_664 3_564 ?
B2 La1 B1 94.6(2) 1_554 3_564 ?
O4 La1 B1 90.7(2) . 1_564 ?
O1 La1 B1 102.1(2) 3_564 1_564 ?
O1 La1 B1 26.8(2) 1_564 1_564 ?
O3 La1 B1 121.4(2) 1_554 1_564 ?
O3 La1 B1 72.7(2) 5_674 1_564 ?
O2 La1 B1 27.05(19) 4_564 1_564 ?
O2 La1 B1 155.11(17) 3_564 1_564 ?
O2 La1 B1 89.71(18) 6_664 1_564 ?
O2 La1 B1 141.59(18) 2_664 1_564 ?
B2 La1 B1 94.6(2) 1_554 1_564 ?
B1 La1 B1 128.5(3) 3_564 1_564 ?
O2 K1 O2 64.37(19) . 3_565 ?
O2 K1 O2 64.4(2) . 2_665 ?
O2 K1 O2 64.4(2) 3_565 2_665 ?
O2 K1 O3 177.25(11) . 1_556 ?
O2 K1 O3 113.00(14) 3_565 1_556 ?
O2 K1 O3 115.58(13) 2_665 1_556 ?
O2 K1 O3 113.00(14) . 2_666 ?
O2 K1 O3 115.58(13) 3_565 2_666 ?
O2 K1 O3 177.25(11) 2_665 2_666 ?
O3 K1 O3 67.09(14) 1_556 2_666 ?
O2 K1 O3 115.58(13) . 3_566 ?
O2 K1 O3 177.25(12) 3_565 3_566 ?
O2 K1 O3 113.00(14) 2_665 3_566 ?
O3 K1 O3 67.09(14) 1_556 3_566 ?
O3 K1 O3 67.09(14) 2_666 3_566 ?
O2 K1 O4 130.6(2) . 1_556 ?
O2 K1 O4 75.18(17) 3_565 1_556 ?
O2 K1 O4 73.45(16) 2_665 1_556 ?
O3 K1 O4 47.87(18) 1_556 1_556 ?
O3 K1 O4 109.26(16) 2_666 1_556 ?
O3 K1 O4 103.48(17) 3_566 1_556 ?
O2 K1 O4 75.18(17) . 2_666 ?
O2 K1 O4 73.45(16) 3_565 2_666 ?
O2 K1 O4 130.6(2) 2_665 2_666 ?
O3 K1 O4 103.48(17) 1_556 2_666 ?
O3 K1 O4 47.87(18) 2_666 2_666 ?
O3 K1 O4 109.26(16) 3_566 2_666 ?
O4 K1 O4 119.78(3) 1_556 2_666 ?
O2 K1 O4 73.45(16) . 3_566 ?
O2 K1 O4 130.6(2) 3_565 3_566 ?
O2 K1 O4 75.18(17) 2_665 3_566 ?
O3 K1 O4 109.26(16) 1_556 3_566 ?
O3 K1 O4 103.48(17) 2_666 3_566 ?
O3 K1 O4 47.87(18) 3_566 3_566 ?
O4 K1 O4 119.78(3) 1_556 3_566 ?
O4 K1 O4 119.78(3) 2_666 3_566 ?
O2 K1 Mg1 142.04(12) . 1_556 ?
O2 K1 Mg1 142.04(12) 3_565 1_556 ?
O2 K1 Mg1 142.04(12) 2_665 1_556 ?
O3 K1 Mg1 39.65(8) 1_556 1_556 ?
O3 K1 Mg1 39.65(9) 2_666 1_556 ?
O3 K1 Mg1 39.65(8) 3_566 1_556 ?
O4 K1 Mg1 87.32(16) 1_556 1_556 ?
O4 K1 Mg1 87.32(16) 2_666 1_556 ?
O4 K1 Mg1 87.32(16) 3_566 1_556 ?
O2 K1 B2 154.0(2) . 1_556 ?
O2 K1 B2 98.73(19) 3_565 1_556 ?
O2 K1 B2 90.88(17) 2_665 1_556 ?
O3 K1 B2 25.22(16) 1_556 1_556 ?
O3 K1 B2 91.84(17) 2_666 1_556 ?
O3 K1 B2 80.32(19) 3_566 1_556 ?
O4 K1 B2 24.9(2) 1_556 1_556 ?
O4 K1 B2 120.77(15) 2_666 1_556 ?
O4 K1 B2 109.4(2) 3_566 1_556 ?
Mg1 K1 B2 63.22(16) 1_556 1_556 ?
O2 K1 B2 98.73(19) . 2_666 ?
O2 K1 B2 90.88(17) 3_565 2_666 ?
O2 K1 B2 154.0(2) 2_665 2_666 ?
O3 K1 B2 80.3(2) 1_556 2_666 ?
O3 K1 B2 25.22(16) 2_666 2_666 ?
O3 K1 B2 91.84(17) 3_566 2_666 ?
O4 K1 B2 109.4(2) 1_556 2_666 ?
O4 K1 B2 24.9(2) 2_666 2_666 ?
O4 K1 B2 120.77(15) 3_566 2_666 ?
Mg1 K1 B2 63.22(16) 1_556 2_666 ?
B2 K1 B2 101.27(19) 1_556 2_666 ?
O3 K2 O3 130.4(2) . 6 ?
O3 K2 O4 161.56(16) . 3_465 ?
O3 K2 O4 49.97(17) 6 3_465 ?
O3 K2 O4 49.97(17) . . ?
O3 K2 O4 161.56(16) 6 . ?
O4 K2 O4 122.5(3) 3_465 . ?
O3 K2 B2 26.58(16) . . ?
O3 K2 B2 145.6(2) 6 . ?
O4 K2 B2 139.75(19) 3_465 . ?
O4 K2 B2 26.1(3) . . ?
O3 K2 B2 145.6(2) . 3_465 ?
O3 K2 B2 26.58(16) 6 3_465 ?
O4 K2 B2 26.1(3) 3_465 3_465 ?
O4 K2 B2 139.75(19) . 3_465 ?
B2 K2 B2 142.6(3) . 3_465 ?
O3 K2 B2 82.85(12) . 2_665 ?
O3 K2 B2 82.85(12) 6 2_665 ?
O4 K2 B2 114.07(13) 3_465 2_665 ?
O4 K2 B2 114.07(13) . 2_665 ?
B2 K2 B2 105.75(15) . 2_665 ?
B2 K2 B2 105.75(15) 3_465 2_665 ?
O3 K2 O1 67.47(10) . 3_565 ?
O3 K2 O1 67.47(10) 6 3_565 ?
O4 K2 O1 101.77(17) 3_465 3_565 ?
O4 K2 O1 101.77(17) . 3_565 ?
B2 K2 O1 78.36(18) . 3_565 ?
B2 K2 O1 78.36(18) 3_465 3_565 ?
B2 K2 O1 96.9(2) 2_665 3_565 ?
O3 K2 B1 113.34(10) . 3_564 ?
O3 K2 B1 113.34(10) 6 3_564 ?
O4 K2 B1 76.13(17) 3_465 3_564 ?
O4 K2 B1 76.13(17) . 3_564 ?
B2 K2 B1 100.38(19) . 3_564 ?
B2 K2 B1 100.38(19) 3_465 3_564 ?
B2 K2 B1 88.0(2) 2_665 3_564 ?
O1 K2 B1 175.2(2) 3_565 3_564 ?
O3 K2 B1 65.19(10) . 3_565 ?
O3 K2 B1 65.19(10) 6 3_565 ?
O4 K2 B1 111.16(18) 3_465 3_565 ?
O4 K2 B1 111.16(18) . 3_565 ?
B2 K2 B1 85.11(18) . 3_565 ?
B2 K2 B1 85.11(18) 3_465 3_565 ?
B2 K2 B1 73.3(2) 2_665 3_565 ?
O1 K2 B1 23.57(19) 3_565 3_565 ?
B1 K2 B1 161.2(3) 3_564 3_565 ?
O3 K2 O3 96.65(9) . 4_455 ?
O3 K2 O3 59.31(15) 6 4_455 ?
O4 K2 O3 97.11(14) 3_465 4_455 ?
O4 K2 O3 136.78(14) . 4_455 ?
B2 K2 O3 122.66(16) . 4_455 ?
B2 K2 O3 83.47(15) 3_465 4_455 ?
B2 K2 O3 23.75(11) 2_665 4_455 ?
O1 K2 O3 84.41(16) 3_565 4_455 ?
B1 K2 O3 100.09(16) 3_564 4_455 ?
B1 K2 O3 62.45(15) 3_565 4_455 ?
O3 K2 O3 59.31(15) . 2_665 ?
O3 K2 O3 96.65(9) 6 2_665 ?
O4 K2 O3 136.78(14) 3_465 2_665 ?
O4 K2 O3 97.11(14) . 2_665 ?
B2 K2 O3 83.47(15) . 2_665 ?
B2 K2 O3 122.66(16) 3_465 2_665 ?
B2 K2 O3 23.75(11) 2_665 2_665 ?
O1 K2 O3 84.41(16) 3_565 2_665 ?
B1 K2 O3 100.09(16) 3_564 2_665 ?
B1 K2 O3 62.45(15) 3_565 2_665 ?
O3 K2 O3 40.35(13) 4_455 2_665 ?
O3 Mg1 O3 96.87(18) . 2_665 ?
O3 Mg1 O3 96.87(18) . 3_565 ?
O3 Mg1 O3 96.87(18) 2_665 3_565 ?
O3 Mg1 O2 170.2(2) . . ?
O3 Mg1 O2 87.40(18) 2_665 . ?
O3 Mg1 O2 91.38(17) 3_565 . ?
O3 Mg1 O2 87.40(18) . 3_565 ?
O3 Mg1 O2 91.38(17) 2_665 3_565 ?
O3 Mg1 O2 170.2(2) 3_565 3_565 ?
O2 Mg1 O2 83.6(3) . 3_565 ?
O3 Mg1 O2 91.38(17) . 2_665 ?
O3 Mg1 O2 170.2(2) 2_665 2_665 ?
O3 Mg1 O2 87.40(18) 3_565 2_665 ?
O2 Mg1 O2 83.6(3) . 2_665 ?
O2 Mg1 O2 83.6(3) 3_565 2_665 ?
O3 Mg1 K1 59.76(14) . 1_554 ?
O3 Mg1 K1 59.76(14) 2_665 1_554 ?
O3 Mg1 K1 59.76(14) 3_565 1_554 ?
O2 Mg1 K1 129.65(19) . 1_554 ?
O2 Mg1 K1 129.65(19) 3_565 1_554 ?
O2 Mg1 K1 129.7(2) 2_665 1_554 ?
O3 Mg1 La1 51.12(12) . 1_556 ?
O3 Mg1 La1 128.50(10) 2_665 1_556 ?
O3 Mg1 La1 122.77(10) 3_565 1_556 ?
O2 Mg1 La1 119.6(2) . 1_556 ?
O2 Mg1 La1 54.00(9) 3_565 1_556 ?
O2 Mg1 La1 54.20(9) 2_665 1_556 ?
K1 Mg1 La1 110.79(5) 1_554 1_556 ?
O3 Mg1 La1 122.77(10) . 2_666 ?
O3 Mg1 La1 51.12(12) 2_665 2_666 ?
O3 Mg1 La1 128.50(10) 3_565 2_666 ?
O2 Mg1 La1 54.00(9) . 2_666 ?
O2 Mg1 La1 54.20(9) 3_565 2_666 ?
O2 Mg1 La1 119.6(2) 2_665 2_666 ?
K1 Mg1 La1 110.79(5) 1_554 2_666 ?
La1 Mg1 La1 108.12(5) 1_556 2_666 ?
O3 Mg1 La1 128.50(10) . 3_566 ?
O3 Mg1 La1 122.77(10) 2_665 3_566 ?
O3 Mg1 La1 51.12(12) 3_565 3_566 ?
O2 Mg1 La1 54.20(9) . 3_566 ?
O2 Mg1 La1 119.6(2) 3_565 3_566 ?
O2 Mg1 La1 54.00(9) 2_665 3_566 ?
K1 Mg1 La1 110.79(5) 1_554 3_566 ?
La1 Mg1 La1 108.12(5) 1_556 3_566 ?
La1 Mg1 La1 108.12(5) 2_666 3_566 ?
O3 Mg1 K1 120.24(14) . . ?
O3 Mg1 K1 120.24(14) 2_665 . ?
O3 Mg1 K1 120.24(14) 3_565 . ?
O2 Mg1 K1 50.35(19) . . ?
O2 Mg1 K1 50.35(19) 3_565 . ?
O2 Mg1 K1 50.3(2) 2_665 . ?
K1 Mg1 K1 180.0 1_554 . ?
La1 Mg1 K1 69.21(5) 1_556 . ?
La1 Mg1 K1 69.21(5) 2_666 . ?
La1 Mg1 K1 69.21(5) 3_566 . ?
O3 Mg1 K2 39.96(10) . . ?
O3 Mg1 K2 60.62(11) 2_665 . ?
O3 Mg1 K2 115.36(16) 3_565 . ?
O2 Mg1 K2 139.26(9) . . ?
O2 Mg1 K2 73.43(19) 3_565 . ?
O2 Mg1 K2 125.30(10) 2_665 . ?
K1 Mg1 K2 56.73(5) 1_554 . ?
La1 Mg1 K2 72.45(4) 1_556 . ?
La1 Mg1 K2 85.40(3) 2_666 . ?
La1 Mg1 K2 164.98(7) 3_566 . ?
K1 Mg1 K2 123.27(5) . . ?
B1 O1 La1 97.05(19) . 2_666 ?
B1 O1 La1 97.05(19) . 1_546 ?
La1 O1 La1 161.9(4) 2_666 1_546 ?
B1 O1 K2 84.9(6) . 2_665 ?
La1 O1 K2 96.3(2) 2_666 2_665 ?
La1 O1 K2 96.3(2) 1_546 2_665 ?
B1 O2 Mg1 134.4(6) . . ?
B1 O2 K1 133.9(5) . . ?
Mg1 O2 K1 91.7(2) . . ?
B1 O2 La1 89.1(4) . 2_666 ?
Mg1 O2 La1 86.79(13) . 2_666 ?
K1 O2 La1 91.95(16) . 2_666 ?
B1 O2 La1 93.0(4) . 3_566 ?
Mg1 O2 La1 86.60(14) . 3_566 ?
K1 O2 La1 91.79(16) . 3_566 ?
La1 O2 La1 172.5(2) 2_666 3_566 ?
B2 O3 Mg1 154.7(5) . . ?
B2 O3 La1 91.3(4) . 1_556 ?
Mg1 O3 La1 90.58(16) . 1_556 ?
B2 O3 K2 92.6(4) . . ?
Mg1 O3 K2 110.50(15) . . ?
La1 O3 K2 109.44(14) 1_556 . ?
B2 O3 K1 95.0(4) . 1_554 ?
Mg1 O3 K1 80.59(15) . 1_554 ?
La1 O3 K1 170.31(17) 1_556 1_554 ?
K2 O3 K1 77.67(11) . 1_554 ?
B2 O3 K2 68.0(4) . 3_565 ?
Mg1 O3 K2 87.65(13) . 3_565 ?
La1 O3 K2 109.62(12) 1_556 3_565 ?
K2 O3 K2 136.41(17) . 3_565 ?
K1 O3 K2 66.32(9) 1_554 3_565 ?
B2 O4 La1 166.0(6) . . ?
B2 O4 K2 82.6(4) . 2_675 ?
La1 O4 K2 106.2(2) . 2_675 ?
B2 O4 K2 82.6(4) . . ?
La1 O4 K2 106.2(2) . . ?
K2 O4 K2 98.9(2) 2_675 . ?
B2 O4 K1 84.2(2) . 4_564 ?
La1 O4 K1 88.64(18) . 4_564 ?
K2 O4 K1 69.93(5) 2_675 4_564 ?
K2 O4 K1 163.7(3) . 4_564 ?
B2 O4 K1 84.2(2) . 1_554 ?
La1 O4 K1 88.64(18) . 1_554 ?
K2 O4 K1 163.7(3) 2_675 1_554 ?
K2 O4 K1 69.93(5) . 1_554 ?
K1 O4 K1 118.04(19) 4_564 1_554 ?
O1 B1 O2 119.9(3) . 4 ?
O1 B1 O2 119.9(3) . . ?
O2 B1 O2 120.1(7) 4 . ?
O1 B1 La1 56.17(14) . 1_546 ?
O2 B1 La1 63.9(2) 4 1_546 ?
O2 B1 La1 172.6(6) . 1_546 ?
O1 B1 La1 56.17(14) . 2_666 ?
O2 B1 La1 172.6(6) 4 2_666 ?
O2 B1 La1 63.9(2) . 2_666 ?
La1 B1 La1 111.5(3) 1_546 2_666 ?
O1 B1 La1 170.4(8) . 3_566 ?
O2 B1 La1 60.8(3) 4 3_566 ?
O2 B1 La1 60.8(3) . 3_566 ?
La1 B1 La1 124.24(13) 1_546 3_566 ?
La1 B1 La1 124.24(13) 2_666 3_566 ?
O1 B1 K2 89.7(6) . 2_666 ?
O2 B1 K2 88.8(5) 4 2_666 ?
O2 B1 K2 88.8(5) . 2_666 ?
La1 B1 K2 85.1(2) 1_546 2_666 ?
La1 B1 K2 85.1(2) 2_666 2_666 ?
La1 B1 K2 99.9(3) 3_566 2_666 ?
O1 B1 K2 71.6(6) . 2_665 ?
O2 B1 K2 100.4(5) 4 2_665 ?
O2 B1 K2 100.4(5) . 2_665 ?
La1 B1 K2 84.4(2) 1_546 2_665 ?
La1 B1 K2 84.4(2) 2_666 2_665 ?
La1 B1 K2 98.8(3) 3_566 2_665 ?
K2 B1 K2 161.2(3) 2_666 2_665 ?
O4 B2 O3 121.0(4) . 5_675 ?
O4 B2 O3 121.0(4) . . ?
O3 B2 O3 117.7(7) 5_675 . ?
O4 B2 La1 153.8(7) . 1_556 ?
O3 B2 La1 61.0(4) 5_675 1_556 ?
O3 B2 La1 61.0(4) . 1_556 ?
O4 B2 K2 71.3(4) . . ?
O3 B2 K2 139.0(6) 5_675 . ?
O3 B2 K2 60.8(3) . . ?
La1 B2 K2 91.1(2) 1_556 . ?
O4 B2 K2 71.3(4) . 2_675 ?
O3 B2 K2 60.8(3) 5_675 2_675 ?
O3 B2 K2 139.0(6) . 2_675 ?
La1 B2 K2 91.1(2) 1_556 2_675 ?
K2 B2 K2 93.1(3) . 2_675 ?
O4 B2 K2 99.1(5) . 3_565 ?
O3 B2 K2 88.3(5) 5_675 3_565 ?
O3 B2 K2 88.3(5) . 3_565 ?
La1 B2 K2 107.1(3) 1_556 3_565 ?
K2 B2 K2 130.66(17) . 3_565 ?
K2 B2 K2 130.66(17) 2_675 3_565 ?
O4 B2 K1 70.9(3) . 4_564 ?
O3 B2 K1 59.8(3) 5_675 4_564 ?
O3 B2 K1 152.9(6) . 4_564 ?
La1 B2 K1 120.37(17) 1_556 4_564 ?
K2 B2 K1 141.0(3) . 4_564 ?
K2 B2 K1 66.14(8) 2_675 4_564 ?
K2 B2 K1 65.08(16) 3_565 4_564 ?
O4 B2 K1 70.9(3) . 1_554 ?
O3 B2 K1 152.9(6) 5_675 1_554 ?
O3 B2 K1 59.8(3) . 1_554 ?
La1 B2 K1 120.37(17) 1_556 1_554 ?
K2 B2 K1 66.14(8) . 1_554 ?
K2 B2 K1 141.0(3) 2_675 1_554 ?
K2 B2 K1 65.08(16) 3_565 1_554 ?
K1 B2 K1 109.0(3) 4_564 1_554 ?
loop_
_geom_bond_atom_site_label_1
_geom_bond_atom_site_label_2
_geom_bond_distance
_geom_bond_site_symmetry_2
_geom_bond_publ_flag
La1 O4 2.389(8) . ?
La1 O1 2.5140(14) 3_564 ?
La1 O1 2.5140(14) 1_564 ?
La1 O3 2.591(4) 1_554 ?
La1 O3 2.591(4) 5_674 ?
La1 O2 2.697(3) 4_564 ?
La1 O2 2.697(3) 3_564 ?
La1 O2 2.704(3) 6_664 ?
La1 O2 2.704(3) 2_664 ?
La1 B2 2.961(9) 1_554 ?
La1 B1 3.003(5) 3_564 ?
La1 B1 3.003(5) 1_564 ?
K1 O2 2.638(7) . ?
K1 O2 2.638(7) 3_565 ?
K1 O2 2.638(7) 2_665 ?
K1 O3 2.793(4) 1_556 ?
K1 O3 2.793(4) 2_666 ?
K1 O3 2.793(4) 3_566 ?
K1 O4 3.059(3) 1_556 ?
K1 O4 3.059(3) 2_666 ?
K1 O4 3.059(3) 3_566 ?
K1 Mg1 3.189(4) 1_556 ?
K1 B2 3.220(6) 1_556 ?
K1 B2 3.220(6) 2_666 ?
K2 O3 2.687(4) . ?
K2 O3 2.687(4) 6 ?
K2 O4 2.937(4) 3_465 ?
K2 O4 2.937(4) . ?
K2 B2 3.075(7) . ?
K2 B2 3.075(7) 3_465 ?
K2 B2 3.169(10) 2_665 ?
K2 O1 3.235(11) 3_565 ?
K2 B1 3.306(11) 3_564 ?
K2 B1 3.397(11) 3_565 ?
K2 O3 3.418(4) 4_455 ?
K2 O3 3.418(4) 2_665 ?
Mg1 O3 2.063(4) . ?
Mg1 O3 2.063(4) 2_665 ?
Mg1 O3 2.063(4) 3_565 ?
Mg1 O2 2.107(6) . ?
Mg1 O2 2.107(6) 3_565 ?
Mg1 O2 2.107(6) 2_665 ?
O1 B1 1.364(11) . ?
O2 B1 1.366(8) . ?
O3 B2 1.377(6) . ?
O4 B2 1.365(14) . ?
