#------------------------------------------------------------------------------
#$Date: 2020-10-04 06:21:21 +0300 (Sun, 04 Oct 2020) $
#$Revision: 257102 $
#$URL: file:///home/coder/svn-repositories/cod/cif/4/00/36/4003659.cif $
#------------------------------------------------------------------------------
#
# This file is available in the Crystallography Open Database (COD),
# http://www.crystallography.net/
#
# All data on this site have been placed in the public domain by the
# contributors.
#
data_4003659
loop_
_publ_author_name
'L\'opez-Vergara, Adri\'an'
'Vizca\'ino-Anaya, Luc\'ia'
'Porras-V\'azquez, Jos\'e M.'
'Baldinozzi, Gianguido'
'Santos-G\'omez, Luc\'ia dos'
'Canales-Vazquez, Jes\'us'
'Marrero-L\'opez, David'
'Losilla, Enrique R.'
_publ_section_title
;
 Unravelling Crystal Superstructures and Transformations in the
 La6--xMoO12&#x2212;\d (0.6 &#x2264; x &#x2264; 3.0) Series: A System with
 Tailored Ionic/Electronic Conductivity
;
_journal_issue                   16
_journal_name_full               'Chemistry of Materials'
_journal_page_first              7052
_journal_page_last               7062
_journal_paper_doi               10.1021/acs.chemmater.0c02673
_journal_volume                  32
_journal_year                    2020
_chemical_formula_sum            'La21.17 Mo3.83 O44.88'
_chemical_formula_weight         4026.06
_space_group_IT_number           166
_space_group_name_Hall           '-R 3 2"'
_space_group_name_H-M_alt        'R -3 m :H'
_symmetry_cell_setting           trigonal
_symmetry_space_group_name_H-M   'R -3 m :H'
_audit_creation_date             2020-06-23T12:54
_audit_creation_method           'from EXP file using GSAS2CIF'
_audit_update_record
' 2020-06-23T12:54  Initial CIF as created by GSAS2CIF'
_cell_angle_alpha                90.0
_cell_angle_beta                 90.0
_cell_angle_gamma                120.0
_cell_formula_units_Z            3
_cell_length_a                   20.4941(22)
_cell_length_b                   20.4941
_cell_length_c                   9.5181(11)
_cell_measurement_temperature    298
_cell_volume                     3462.1(5)
_computing_structure_refinement  GSAS
_diffrn_ambient_temperature      298
_diffrn_measurement_device_type  Neutron
_diffrn_radiation_probe          neutron
_diffrn_radiation_wavelength     1.1545
_pd_block_id                     2020-06-23T12:54|UNDOPED_1500_05_ATOM|JOSE|l
_pd_calc_method                  'Rietveld Refinement'
_pd_instr_location               ' ?'
_pd_meas_2theta_range_inc        0.05
_pd_meas_2theta_range_max        164.75
_pd_meas_2theta_range_min        3.8
_pd_meas_number_of_points        3220
_pd_phase_name
;
;
_pd_proc_2theta_range_inc        0.05
_pd_proc_2theta_range_max        164.5277
_pd_proc_2theta_range_min        3.5777
_pd_proc_info_datetime           2020-06-23T12:54:42
_pd_proc_info_excluded_regions   ' ?'
_pd_proc_ls_background_function
;   GSAS Background function number 2 with 36 terms.
 Cosine Fourier series
      1:    135.436     2:    1879.75     3:   -2189.74     4:    1857.65    
      5:   -2007.47     6:    1815.37     7:   -1919.10     8:    1777.95    
      9:   -1766.28    10:    1570.31    11:   -1533.40    12:    1418.98    
     13:   -1339.98    14:    1224.80    15:   -1129.03    16:    995.555    
     17:   -962.410    18:    826.377    19:   -758.981    20:    619.913    
     21:   -610.504    22:    478.968    23:   -412.539    24:    371.487    
     25:   -291.497    26:    237.164    27:   -237.225    28:    142.133    
     29:   -170.702    30:    76.0121    31:   -105.447    32:    59.3331    
     33:   -34.3694    34:    23.9205    35:   -34.2317    36:   -5.18022    
;
_pd_proc_ls_peak_cutoff          0.00500
_pd_proc_ls_profile_function
;
 CW Profile function number 2 with  18 terms
 Profile coefficients for Simpson's rule integration of pseudovoigt function
 C.J. Howard (1982). J. Appl. Cryst.,15,615-620.
 P. Thompson, D.E. Cox & J.B. Hastings (1987). J. Appl. Cryst.,20,79-83.
 #1(GU)   =  978.314 #2(GV)   = -558.440 #3(GW)   =  475.007
 #4(LX)   =    0.000 #5(LY)   =   41.779 #6(trns) =    0.000
 #7(asym) =   2.6598 #8(shft) =   0.0000 #9(GP)   =    0.000
 #10(stec)=     0.00 #11(ptec)=     0.00 #12(sfec)=     0.00
 #13(L11) =    0.000 #14(L22) =    0.000 #15(L33) =    0.000
 #16(L12) =    0.000 #17(L13) =    0.000 #18(L23) =    0.000
 Peak tails are ignored  where the intensity is below 0.0050 times the peak
   Aniso. broadening axis   0.0   0.0   1.0
;
_pd_proc_ls_prof_R_factor        0.0475
_pd_proc_ls_prof_wR_expected     0.0243
_pd_proc_ls_prof_wR_factor       0.0652
_pd_proc_number_of_points        3220
_pd_spec_mounting                ' ?'
_refine_ls_goodness_of_fit_all   2.70
_refine_ls_matrix_type           full
_refine_ls_number_parameters     40
_refine_ls_number_restraints     0
_refine_ls_R_Fsqd_factor         0.06540
_refine_ls_shift/su_max          0.06
_refine_ls_shift/su_mean         0.00
_reflns_d_resolution_high        0.583
_reflns_d_resolution_low         10.247
_reflns_limit_h_max              30
_reflns_limit_h_min              0
_reflns_limit_k_max              17
_reflns_limit_k_min              0
_reflns_limit_l_max              16
_reflns_limit_l_min              -16
_reflns_number_total             2165
_cod_data_source_file            cm0c02673_si_003.cif
_cod_data_source_block           UNDOPED_1500_05_ATOM_publ
_cod_depositor_comments
;
The following automatic conversions were performed:

data item '_geom_angle_publ_flag' value 'N' was changed to 'n' in
accordance with the
/home/data/users/saulius/crontab/automatic-downloads/rss-feeds/ACS/lib/dictionaries/cif_core.dic
dictionary named 'cif_core.dic' version 2.4.2 last updated on
2011-04-26 (140 times).

data item '_geom_bond_publ_flag' value 'N' was changed to 'n' in
accordance with the
/home/data/users/saulius/crontab/automatic-downloads/rss-feeds/ACS/lib/dictionaries/cif_core.dic
dictionary named 'cif_core.dic' version 2.4.2 last updated on
2011-04-26 (119 times).

Automatic conversion script
Id: cif_fix_values 7556 2019-12-06 15:28:31Z antanas 

 Adding full bibliography for 4003658--4003659.cif.

 Adding full bibliography for 4003658--4003659.cif.
;
_cod_original_cell_volume        3462.1(9)
_cod_original_sg_symbol_H-M      'R -3 m'
_cod_database_code               4003659
loop_
_symmetry_equiv_pos_site_id
_symmetry_equiv_pos_as_xyz
1 +x,+y,+z
2 -y,x-y,+z
3 y-x,-x,+z
4 y-x,+y,+z
5 -y,-x,+z
6 +x,x-y,+z
-1 -x,-y,-z
-2 +y,y-x,-z
-3 x-y,+x,-z
-4 x-y,-y,-z
-5 +y,+x,-z
-6 -x,y-x,-z
101 +x+1/3,+y+2/3,+z+2/3
102 -y+1/3,x-y+2/3,+z+2/3
103 y-x+1/3,-x+2/3,+z+2/3
104 y-x+1/3,+y+2/3,+z+2/3
105 -y+1/3,-x+2/3,+z+2/3
106 +x+1/3,x-y+2/3,+z+2/3
-101 -x+2/3,-y+1/3,-z+1/3
-102 +y+2/3,y-x+1/3,-z+1/3
-103 x-y+2/3,+x+1/3,-z+1/3
-104 x-y+2/3,-y+1/3,-z+1/3
-105 +y+2/3,+x+1/3,-z+1/3
-106 -x+2/3,y-x+1/3,-z+1/3
201 +x+2/3,+y+1/3,+z+1/3
202 -y+2/3,x-y+1/3,+z+1/3
203 y-x+2/3,-x+1/3,+z+1/3
204 y-x+2/3,+y+1/3,+z+1/3
205 -y+2/3,-x+1/3,+z+1/3
206 +x+2/3,x-y+1/3,+z+1/3
-201 -x+1/3,-y+2/3,-z+2/3
-202 +y+1/3,y-x+2/3,-z+2/3
-203 x-y+1/3,+x+2/3,-z+2/3
-204 x-y+1/3,-y+2/3,-z+2/3
-205 +y+1/3,+x+2/3,-z+2/3
-206 -x+1/3,y-x+2/3,-z+2/3
loop_
_atom_site_type_symbol
_atom_site_label
_atom_site_fract_x
_atom_site_fract_y
_atom_site_fract_z
_atom_site_occupancy
_atom_site_thermal_displace_type
_atom_site_U_iso_or_equiv
_atom_site_symmetry_multiplicity
Mo Mo1 0.0 0.0 0.0 1.0 Uiso 0.09688 3
La La2 0.0 -0.21849 0.0 1.0 Uiso 0.01756 18
La La3 -0.58832 0.0 0.0 1.0 Uiso 0.00135 18
O O1 0.0 0.0 0.25 0.0735 Uiso 0.005 6
O O2 -0.11802 -0.05901 0.60696 1.0 Uiso 0.02338 18
O O3 -0.39864 -0.19932 0.2571 1.0 Uiso 0.00176 18
O O4 0.00171 -0.19614 0.22203 1.0 Uiso 0.05639 36
O O5 -0.21083 -0.60542 0.24494 1.0 Uiso 0.75401 18
O O6 -0.60292 -0.01305 0.26628 0.876 Uiso 0.02568 36
O O7 -0.53484 -0.46516 0.59369 0.7042 Uiso 0.01229 18
La La1 -0.13279 -0.06639 0.33749 0.5278 Uiso 0.0021 18
Mo Mo2 -0.13279 -0.06639 0.33749 0.4722 Uiso 0.0021 18
La La4 -0.40456 -0.20228 -0.0014 1.0 Uiso 0.00844 18
loop_
_atom_type_symbol
_atom_type_number_in_cell
_atom_type_scat_length_neutron
_atom_type_scat_source
Mo 11.5 0.6715 International_Tables_Vol_C
La 63.5 0.8240 International_Tables_Vol_C
O 134.653 0.5803 International_Tables_Vol_C
loop_
_geom_angle_atom_site_label_1
_geom_angle_atom_site_label_2
_geom_angle_atom_site_label_3
_geom_angle
_geom_angle_site_symmetry_1
_geom_angle_site_symmetry_2
_geom_angle_site_symmetry_3
_geom_angle_publ_flag
O4 La2 O4 156.455(4) 1_555 . -6_555 n
O4 La2 O6 115.4124(8) 1_555 . 104_444 n
O4 La2 O6 83.472(4) 1_555 . -203_444 n
O4 La2 O7 72.7737(23) 1_555 . -102_434 n
O4 La2 O7 103.0685(29) 1_555 . 201_554 n
O4 La2 O6 83.472(4) -6_555 . 104_444 n
O4 La2 O6 115.4124(8) -6_555 . -203_444 n
O4 La2 O7 103.0684(29) -6_555 . -102_434 n
O4 La2 O7 72.7736(23) -6_555 . 201_554 n
O6 La2 O6 78.7411(16) 104_444 . -203_444 n
O6 La2 O7 70.4607(19) 104_444 . -102_434 n
O6 La2 O7 126.8560(27) 104_444 . 201_554 n
O6 La2 O7 126.8562(27) -203_444 . -102_434 n
O6 La2 O7 70.4606(19) -203_444 . 201_554 n
O7 La2 O7 160.23540(20) -102_434 . 201_554 n
La3 La3 O3 37.0681(12) 4_455 . 103_444 n
La3 La3 O3 37.0675(12) 4_455 . -203_344 n
La3 La3 O4 93.96740(10) 4_455 . 106_444 n
La3 La3 O4 93.96740(10) 4_455 . -202_344 n
La3 La3 O6 93.7208(6) 4_455 . 1_555 n
La3 La3 O6 93.7208(6) 4_455 . -4_555 n
La3 La3 O6 144.6942(8) 4_455 . 102_454 n
La3 La3 O6 144.6942(8) 4_455 . -206_234 n
O3 La3 O3 74.1356(24) 103_444 . -203_344 n
O3 La3 O4 113.1401(35) 103_444 . 106_444 n
O3 La3 O4 73.5866(31) 103_444 . -202_344 n
O3 La3 O6 114.5827(18) 103_444 . 1_555 n
O3 La3 O6 71.7935(28) 103_444 . -4_555 n
O3 La3 O6 107.7802(20) 103_444 . 102_454 n
O3 La3 O6 175.5341(6) 103_444 . -206_234 n
O3 La3 O4 73.5869(31) -203_344 . 106_444 n
O3 La3 O4 113.1398(35) -203_344 . -202_344 n
O3 La3 O6 71.7938(28) -203_344 . 1_555 n
O3 La3 O6 114.5823(18) -203_344 . -4_555 n
O3 La3 O6 175.5341(6) -203_344 . 102_454 n
O3 La3 O6 107.7808(20) -203_344 . -206_234 n
O4 La3 O4 172.06509(20) 106_444 . -202_344 n
O4 La3 O6 108.200(4) 106_444 . 1_555 n
O4 La3 O6 71.257(4) 106_444 . -4_555 n
O4 La3 O6 108.8307(26) 106_444 . 102_454 n
O4 La3 O6 64.1700(29) 106_444 . -206_234 n
O4 La3 O6 71.257(4) -202_344 . 1_555 n
O4 La3 O6 108.200(4) -202_344 . -4_555 n
O4 La3 O6 64.1700(29) -202_344 . 102_454 n
O4 La3 O6 108.8308(26) -202_344 . -206_234 n
O6 La3 O6 172.5584(12) 1_555 . -4_555 n
O6 La3 O6 103.7757(22) 1_555 . 102_454 n
O6 La3 O6 69.8767(12) 1_555 . -206_234 n
O6 La3 O6 69.8767(12) -4_555 . 102_454 n
O6 La3 O6 103.7757(22) -4_555 . -206_234 n
O6 La3 O6 70.6117(15) 102_454 . -206_234 n
La1 O1 La1 109.4821(28) 1_555 . 2_555 n
La1 O1 La1 109.4821(28) 1_555 . 3_555 n
La1 O1 La1 109.4821(28) 2_555 . 3_555 n
La1 O2 La1 105.6248(17) 1_555 . -2_556 n
La1 O2 La1 105.6253(17) 1_555 . -3_556 n
La1 O2 La4 96.9765(29) 1_555 . -101_445 n
La1 O2 La1 125.2051(18) -2_556 . -3_556 n
La1 O2 La4 109.7322(13) -2_556 . -101_445 n
La1 O2 La4 109.7320(13) -3_556 . -101_445 n
La3 O3 La3 105.8644(24) 202_455 . 205_445 n
La3 O3 La1 113.7890(24) 202_455 . -101_334 n
La3 O3 La4 109.9596(25) 202_455 . 1_555 n
La3 O3 La1 113.7878(24) 205_445 . -101_334 n
La3 O3 La4 109.9577(25) 205_445 . 1_555 n
La1 O3 La4 103.5028(28) -101_445 . 1_555 n
La2 O4 La3 104.286(5) 1_555 . 206_555 n
La2 O4 La1 125.9836(19) 1_555 . 2_555 n
La2 O4 La4 112.6434(35) 1_555 . 203_445 n
La3 O4 La1 100.715(4) 206_555 . 2_555 n
La3 O4 La4 108.135(4) 206_555 . 203_445 n
La1 O4 La4 103.522(4) 2_555 . 203_445 n
La2 O6 La3 100.8157(31) 204_455 . 1_555 n
La2 O6 La3 105.3236(16) 204_455 . 203_345 n
La2 O6 La4 116.3786(22) 204_455 . -203_455 n
La3 O6 La3 109.8685(13) 1_555 . 203_345 n
La3 O6 La4 105.3038(26) 1_555 . -203_455 n
La3 O6 La4 117.7800(21) 203_345 . -203_455 n
La2 O7 La2 129.3006(30) 101_445 . 105_445 n
La2 O7 La4 103.7985(17) 101_445 . 102_445 n
La2 O7 La4 106.0652(25) 101_445 . -202_445 n
La2 O7 La4 103.7988(17) 105_445 . 102_445 n
La2 O7 La4 106.0638(25) 105_445 . -202_445 n
La4 O7 La4 105.8807(22) 102_445 . -202_445 n
O1 La1 O2 103.624(4) 1_555 . 1_555 n
O1 La1 O2 62.5844(23) 1_555 . -2_556 n
O1 La1 O2 62.5841(23) 1_555 . -3_556 n
O1 La1 O3 176.4887(5) 1_555 . -101_334 n
O1 La1 O4 106.4546(35) 1_555 . 3_555 n
O1 La1 O4 106.4546(35) 1_555 . 4_555 n
O1 La1 O5 66.1359(21) 1_555 . -201_334 n
O2 La1 O2 73.3375(15) 1_555 . -2_556 n
O2 La1 O2 73.3373(15) 1_555 . -3_556 n
O2 La1 O3 79.8874(33) 1_555 . -101_334 n
O2 La1 O4 118.3263(31) 1_555 . 3_555 n
O2 La1 O4 118.3258(31) 1_555 . 4_555 n
O2 La1 O5 169.7600(16) 1_555 . -201_334 n
O2 La1 O2 104.1984(12) -2_556 . -3_556 n
O2 La1 O3 118.9782(19) -2_556 . -101_334 n
O2 La1 O4 74.9748(24) -2_556 . 3_555 n
O2 La1 O4 166.6510(13) -2_556 . 4_555 n
O2 La1 O5 100.6950(24) -2_556 . -201_334 n
O2 La1 O3 118.9793(19) -3_556 . -101_334 n
O2 La1 O4 166.6508(13) -3_556 . 3_555 n
O2 La1 O4 74.9749(24) -3_556 . 4_555 n
O2 La1 O5 100.6960(24) -3_556 . -201_334 n
O3 La1 O4 71.5282(30) -101_334 . 3_555 n
O3 La1 O4 71.5290(30) -101_334 . 4_555 n
O3 La1 O5 110.3526(17) -101_334 . -201_334 n
O4 La1 O4 102.668(4) 3_555 . 4_555 n
O4 La1 O5 66.754(4) 3_555 . -201_334 n
O4 La1 O5 66.755(4) 4_555 . -201_334 n
O2 La4 O3 79.6334(23) -101_334 . 1_555 n
O2 La4 O4 69.3410(25) -101_334 . 102_444 n
O2 La4 O4 69.3410(25) -101_334 . 105_444 n
O2 La4 O6 111.7971(17) -101_334 . -202_334 n
O2 La4 O6 111.7964(17) -101_334 . -205_344 n
O2 La4 O7 177.57300(30) -101_334 . 203_444 n
O2 La4 O7 103.4538(19) -101_334 . -203_344 n
O3 La4 O4 115.1371(32) 1_555 . 102_444 n
O3 La4 O4 115.1352(32) 1_555 . 105_444 n
O3 La4 O6 72.5887(23) 1_555 . -202_334 n
O3 La4 O6 72.5873(23) 1_555 . -205_344 n
O3 La4 O7 102.7936(27) 1_555 . 203_444 n
O3 La4 O7 176.9130(5) 1_555 . -203_344 n
O4 La4 O4 104.970(4) 102_444 . 105_444 n
O4 La4 O6 68.9596(30) 102_444 . -202_334 n
O4 La4 O6 172.0793(9) 102_444 . -205_344 n
O4 La4 O7 109.3584(28) 102_444 . 203_444 n
O4 La4 O7 66.3814(34) 102_444 . -203_344 n
O4 La4 O6 172.0801(9) 105_444 . -202_334 n
O4 La4 O6 68.9586(30) 105_444 . -205_344 n
O4 La4 O7 109.3577(28) 105_444 . 203_444 n
O4 La4 O7 66.3804(34) 105_444 . -203_344 n
O6 La4 O6 116.5696(23) -202_334 . -205_344 n
O6 La4 O7 69.1929(19) -202_334 . 203_444 n
O6 La4 O7 105.9944(25) -202_334 . -203_344 n
O6 La4 O7 69.1928(19) -205_344 . 203_444 n
O6 La4 O7 105.9929(25) -205_344 . -203_344 n
O7 La4 O7 74.1193(22) 203_444 . -203_344 n
loop_
_geom_bond_atom_site_label_1
_geom_bond_atom_site_label_2
_geom_bond_distance
_geom_bond_site_symmetry_1
_geom_bond_site_symmetry_2
_geom_bond_publ_flag
Mo1 O1 2.37951(27) . 1_555 n
Mo1 O1 2.37951(27) . -1_555 n
Mo1 O5 2.33128(22) . 101_554 n
Mo1 O5 2.33128(22) . 102_444 n
Mo1 O5 2.33128(22) . 103_544 n
Mo1 O5 2.33128(22) . -201_334 n
Mo1 O5 2.33128(22) . -202_444 n
Mo1 O5 2.33128(22) . -203_344 n
La2 La3 3.9591(4) . 5_545 n
La2 La3 3.79528(33) . 104_444 n
La2 La3 3.79528(33) . 206_555 n
La2 O4 2.15889(24) . 1_555 n
La2 O4 2.15889(24) . -6_555 n
La2 O5 2.93657(29) . 103_544 n
La2 O5 2.93652(29) . -202_444 n
La2 O6 2.37247(24) . 104_444 n
La2 O6 2.37247(24) . -203_444 n
La2 O7 2.47749(25) . -102_434 n
La2 O7 2.47747(25) . 201_554 n
La2 La4 3.9898(4) . 2_555 n
La2 La4 3.9898(4) . -3_555 n
La2 La4 3.94890(33) . -102_433 n
La2 La4 3.94888(33) . 203_445 n
La3 La2 3.9591(4) . 5_455 n
La3 La2 3.79528(33) . 106_444 n
La3 La2 3.79528(33) . 204_455 n
La3 La3 3.6202(4) . 4_455 n
La3 O3 2.26853(22) . 103_444 n
La3 O3 2.26856(22) . -203_344 n
La3 O4 2.63384(24) . 106_444 n
La3 O4 2.63384(24) . -202_344 n
La3 O6 2.55042(29) . 1_555 n
La3 O6 2.55042(29) . -4_555 n
La3 O6 2.60396(26) . 102_454 n
La3 O6 2.60396(26) . -206_234 n
La3 La1 3.9934(4) . 103_444 n
La3 La1 3.9934(4) . -203_344 n
La3 La4 3.87623(33) . 103_444 n
La3 La4 3.87621(33) . -203_344 n
O1 Mo1 2.37951(27) . 1_555 n
O1 La1 2.49958(24) . 1_555 n
O1 La1 2.49958(24) . 2_555 n
O1 La1 2.49958(24) . 3_555 n
O1 Mo2 2.49958(24) . 1_555 n
O1 Mo2 2.49958(24) . 2_555 n
O1 Mo2 2.49958(24) . 3_555 n
O2 La1 2.57815(29) . 1_555 n
O2 La1 2.29889(23) . -2_556 n
O2 La1 2.29888(23) . -3_556 n
O2 Mo2 2.57815(29) . 1_555 n
O2 Mo2 2.29889(23) . -2_556 n
O2 Mo2 2.29888(23) . -3_556 n
O2 La4 2.62271(27) . -101_334 n
O3 La3 2.26853(22) . 202_455 n
O3 La3 2.26856(22) . 205_445 n
O3 La1 2.49644(25) . -101_334 n
O3 Mo2 2.49644(25) . -101_334 n
O3 La4 2.46268(28) . 1_555 n
O4 La2 2.15889(24) . 1_555 n
O4 La3 2.63384(24) . 206_555 n
O4 La1 2.55168(23) . 2_555 n
O4 Mo2 2.55168(23) . 2_555 n
O4 La4 2.57819(24) . 203_445 n
O5 Mo1 2.33128(22) . 201_445 n
O5 La2 2.93657(29) . 202_445 n
O5 La2 2.93652(29) . 205_445 n
O5 La1 2.37798(27) . -201_334 n
O5 Mo2 2.37798(27) . -201_334 n
O6 La2 2.37247(24) . 204_455 n
O6 La3 2.55042(29) . 1_555 n
O6 La3 2.60396(26) . 203_345 n
O6 La4 2.32242(23) . -203_344 n
O7 La2 2.47747(25) . 101_445 n
O7 La2 2.47749(25) . 105_445 n
O7 La4 2.59182(26) . 102_445 n
O7 La4 2.46497(28) . -202_334 n
La1 La3 3.9934(4) . 202_455 n
La1 La3 3.9934(4) . 205_445 n
La1 O1 2.49958(24) . 1_555 n
La1 O2 2.57815(29) . 1_555 n
La1 O2 2.29888(23) . -2_556 n
La1 O2 2.29889(23) . -3_556 n
La1 O3 2.49644(25) . -101_334 n
La1 O4 2.55168(23) . 3_555 n
La1 O4 2.55168(23) . 4_555 n
La1 O5 2.37798(27) . -201_334 n
La1 La1 4.0821(4) . 2_555 n
La1 La1 4.0821(4) . 3_555 n
La1 La1 3.88901(32) . -2_556 n
La1 La1 3.88901(32) . -3_556 n
La1 La4 3.89461(33) . -101_334 n
La1 La4 4.0292(4) . 202_455 n
La1 La4 4.0292(4) . 203_445 n
Mo2 O1 2.49958(24) . 1_555 n
Mo2 O2 2.57815(29) . 1_555 n
Mo2 O2 2.29888(23) . -2_556 n
Mo2 O2 2.29889(23) . -3_556 n
Mo2 O3 2.49644(25) . -101_334 n
Mo2 O4 2.55168(23) . 3_555 n
Mo2 O4 2.55168(23) . 4_555 n
Mo2 O5 2.37798(27) . -201_334 n
La4 La2 3.9898(4) . 3_555 n
La4 La2 3.9898(4) . 4_555 n
La4 La2 3.94888(33) . 102_444 n
La4 La2 3.94890(33) . 105_444 n
La4 La3 3.87623(33) . 202_455 n
La4 La3 3.87621(33) . 205_445 n
La4 O2 2.62271(27) . -101_334 n
La4 O3 2.46268(28) . 1_555 n
La4 O4 2.57819(24) . 102_444 n
La4 O4 2.57822(24) . 105_444 n
La4 O6 2.32242(23) . -202_334 n
La4 O6 2.32246(23) . -205_344 n
La4 O7 2.59182(26) . 203_444 n
La4 O7 2.46497(28) . -203_344 n
La4 La1 4.0292(4) . 102_444 n
La4 La1 4.0292(4) . 103_444 n
La4 La1 3.89461(33) . -101_334 n
La4 La4 4.03608(33) . -101_333 n
loop_
_pd_meas_intensity_total
_pd_proc_ls_weight
_pd_proc_intensity_bkg_calc
_pd_calc_intensity_total
267(32) 0.000964 371.9 371.9
278(34) 0.000881 379.2 379.2
288(35) 0.000807 386. 386.
291(34) 0.000891 393.8 393.7
335(38) 0.000704 401. 401.
327(38) 0.000711 408. 408.
349(27) 0.001424 415.4 415.4
335(38) 0.000704 423. 423.
335(27) 0.001392 429.7 429.7
385(28) 0.001285 436.8 436.8
407(30) 0.001141 443.9 443.8
395(29) 0.001181 450.9 450.9
400(23) 0.001842 457.8 457.8
429(30) 0.001089 464.7 464.7
424(25) 0.001666 471.6 471.6
432(24) 0.001694 478.4 478.4
450(25) 0.001562 485.1 485.1
477(26) 0.001479 491.8 491.8
476(22) 0.002029 498.4 498.4
471(26) 0.001491 505.0 505.0
473(22) 0.002011 511.5 511.5
473(22) 0.002047 517.9 517.9
548(24) 0.001736 524.3 524.3
566(24) 0.001680 530.6 530.6
576(24) 0.001680 536.8 536.8
586(25) 0.001626 542.9 542.9
618(25) 0.001575 548.9 548.9
628(26) 0.001538 554.9 554.9
635(26) 0.001526 560.8 560.8
646(26) 0.001502 566.6 566.6
650(26) 0.001514 572.3 572.3
685(27) 0.001413 577.9 577.9
684(26) 0.001446 583.4 583.4
663(26) 0.001468 588.8 588.8
630(25) 0.001575 594.2 594.2
725(27) 0.001362 599.4 599.4
648(26) 0.001538 604.6 604.6
675(26) 0.001468 609.6 609.6
679(26) 0.001479 614.6 615.0
707(27) 0.001403 619.4 619.9
722(27) 0.001403 624.2 624.9
673(26) 0.001491 628.8 629.8
746(27) 0.001362 633.3 634.9
707(26) 0.001435 637.8 640.2
712(27) 0.001424 642.1 646.1
733(27) 0.001382 646.3 652.7
759(27) 0.001352 650.4 660.4
762(28) 0.001322 654.4 669.6
717(27) 0.001424 658.3 680.6
724(27) 0.001424 662.1 693.6
762(27) 0.001342 665.8 708.5
774(28) 0.001322 669.4 725.0
762(27) 0.001352 672.9 742.1
763(27) 0.001332 676.2 758.6
794(28) 0.001294 679.5 773.3
757(27) 0.001362 682.6 784.5
808(28) 0.001266 685.6 791.2
788(28) 0.001303 688.5 792.7
738(27) 0.001403 691.4 789.1
801(28) 0.001276 694.1 781.4
740(27) 0.001392 696.6 770.9
727(27) 0.001424 699.1 759.3
795(28) 0.001285 701.5 747.9
697(26) 0.001479 703.8 737.9
780(27) 0.001332 705.9 729.9
734(27) 0.001392 708.0 724.1
755(27) 0.001362 709.9 720.3
670(25) 0.001550 711.8 718.6
745(27) 0.001382 713.5 717.9
764(27) 0.001352 715.2 718.1
729(27) 0.001413 716.7 719.0
753(27) 0.001372 718.2 720.3
711(26) 0.001446 719.5 722.0
709(26) 0.001457 720.7 724.2
727(27) 0.001424 721.9 727.1
749(27) 0.001372 722.9 730.5
731(27) 0.001403 723.9 735.6
736(27) 0.001403 724.7 742.1
720(27) 0.001424 725.5 750.3
736(27) 0.001392 726.2 760.1
758(27) 0.001362 726.8 771.1
722(27) 0.001424 727.3 782.7
795(28) 0.001294 727.7 793.9
811(28) 0.001276 728.1 803.3
755(27) 0.001362 728.3 809.9
716(26) 0.001435 728.5 812.6
752(27) 0.001372 728.6 811.1
746(27) 0.001382 728.6 805.5
724(26) 0.001435 728.6 796.7
734(27) 0.001403 728.4 785.9
719(27) 0.001424 728.2 774.3
711(26) 0.001468 728.0 763.2
728(27) 0.001413 727.6 753.3
674(26) 0.001526 727.2 745.1
677(26) 0.001538 726.8 738.7
641(25) 0.001613 726.3 733.9
703(26) 0.001468 725.7 730.4
653(25) 0.001600 725.0 728.0
651(25) 0.001587 724.4 726.1
696(26) 0.001479 723.6 724.8
696(26) 0.001502 722.8 723.6
679(26) 0.001526 722.0 722.5
665(25) 0.001550 721.1 721.5
696(26) 0.001502 720.2 720.6
654(25) 0.001587 719.2 719.2
676(26) 0.001526 718.2 718.2
671(25) 0.001550 717.2 717.2
683(26) 0.001526 716.1 716.1
662(25) 0.001562 715.0 715.0
625(25) 0.001666 713.9 713.8
643(25) 0.001626 712.7 712.7
678(26) 0.001526 711.5 711.5
701(26) 0.001468 710.3 710.3
705(26) 0.001479 709.1 709.1
654(25) 0.001587 707.8 707.8
644(25) 0.001600 706.6 706.6
667(25) 0.001562 705.3 705.3
691(26) 0.001502 704.0 704.0
658(25) 0.001575 702.7 702.7
628(25) 0.001652 701.4 701.4
686(26) 0.001502 700.1 700.1
661(25) 0.001562 698.8 698.8
651(25) 0.001575 697.5 697.5
685(26) 0.001502 696.2 696.2
696(26) 0.001468 694.9 694.9
702(26) 0.001468 693.6 693.7
673(26) 0.001514 692.3 692.4
739(27) 0.001382 691.0 691.2
686(26) 0.001468 689.8 689.9
732(27) 0.001392 688.5 688.8
642(25) 0.001550 687.3 687.6
707(27) 0.001424 686.1 686.5
664(26) 0.001502 684.9 685.3
665(26) 0.001502 683.7 684.1
688(27) 0.001424 682.6 683.0
688(26) 0.001446 681.5 681.9
688(27) 0.001413 680.4 680.8
720(27) 0.001352 679.3 679.9
675(26) 0.001435 678.3 679.0
670(26) 0.001457 677.3 678.3
731(28) 0.001303 676.3 677.9
721(27) 0.001342 675.4 677.8
669(27) 0.001424 674.5 678.2
673(27) 0.001413 673.7 679.3
736(28) 0.001294 672.9 681.1
742(28) 0.001285 672.1 683.7
728(28) 0.001294 671.4 687.1
683(27) 0.001392 670.8 691.0
709(28) 0.001322 670.1 695.0
714(28) 0.001313 669.6 698.6
734(28) 0.001276 669.0 701.4
739(28) 0.001266 668.6 702.8
708(28) 0.001313 668.1 702.5
769(29) 0.001223 667.8 700.6
742(28) 0.001276 667.5 697.2
807(29) 0.001157 667.2 693.0
737(28) 0.001276 667.0 688.4
756(28) 0.001249 666.8 684.1
766(28) 0.001240 666.7 680.6
787(29) 0.001197 666.7 678.3
734(28) 0.001303 666.7 677.4
802(29) 0.001181 666.8 678.0
842(30) 0.001141 667.0 680.1
764(28) 0.001249 667.2 683.8
766(28) 0.001266 667.4 688.6
805(29) 0.001189 667.7 694.3
817(29) 0.001197 668.1 700.1
746(28) 0.001294 668.6 705.5
781(28) 0.001249 669.1 709.7
680(26) 0.001435 669.7 712.2
764(28) 0.001294 670.3 712.5
758(28) 0.001285 671.0 710.8
765(28) 0.001303 671.8 707.4
768(28) 0.001285 672.6 702.9
713(27) 0.001403 673.5 698.1
740(27) 0.001352 674.4 693.4
712(27) 0.001424 675.4 689.6
724(27) 0.001382 676.5 686.8
707(26) 0.001446 677.7 685.2
714(27) 0.001413 678.9 684.5
715(27) 0.001424 680.1 684.8
697(26) 0.001457 681.4 685.8
722(27) 0.001413 682.8 687.3
727(27) 0.001403 684.3 689.1
729(27) 0.001413 685.8 691.1
707(26) 0.001446 687.3 693.1
721(27) 0.001424 689.0 694.9
702(26) 0.001468 690.6 696.5
763(27) 0.001352 692.4 697.9
713(26) 0.001435 694.2 699.1
681(26) 0.001514 696.0 700.3
707(26) 0.001457 697.9 701.4
700(26) 0.001468 699.9 702.4
698(26) 0.001479 701.9 703.9
697(26) 0.001479 704.0 705.5
746(27) 0.001382 706.1 707.2
715(26) 0.001446 708.3 709.1
695(26) 0.001479 710.5 711.1
740(27) 0.001382 712.7 713.2
726(27) 0.001424 715.0 715.5
756(27) 0.001362 717.4 717.9
696(26) 0.001468 719.8 720.3
722(26) 0.001435 722.3 722.9
696(26) 0.001479 724.7 725.6
779(28) 0.001303 727.3 728.5
706(26) 0.001468 729.8 731.7
732(27) 0.001403 732.5 735.3
740(27) 0.001372 735.1 739.4
713(26) 0.001446 737.8 744.2
739(27) 0.001392 740.5 749.8
751(27) 0.001352 743.2 756.3
726(27) 0.001424 746.0 763.4
702(26) 0.001457 748.8 771.1
747(27) 0.001362 751.7 778.8
729(27) 0.001403 754.5 786.0
688(26) 0.001491 757.4 792.1
754(27) 0.001352 760.4 796.7
719(27) 0.001424 763.3 799.4
706(26) 0.001446 766.3 800.3
730(27) 0.001392 769.2 799.8
712(26) 0.001435 772.2 798.4
757(27) 0.001342 775.2 796.8
775(28) 0.001322 778.3 795.5
744(27) 0.001382 781.3 795.0
761(27) 0.001332 784.4 795.4
776(28) 0.001322 787.4 796.9
756(27) 0.001342 790.5 799.4
753(27) 0.001342 793.6 802.6
714(26) 0.001435 796.7 806.2
764(27) 0.001332 799.8 810.0
762(27) 0.001332 802.9 814.9
788(28) 0.001294 806.0 818.4
812(28) 0.001257 809.1 821.5
709(27) 0.001424 812.1 824.2
776(28) 0.001322 815.2 826.6
806(28) 0.001266 818.3 829.0
864(29) 0.001173 821.4 831.6
795(28) 0.001294 824.5 834.4
834(29) 0.001231 827.5 837.8
832(29) 0.001214 830.6 841.4
822(28) 0.001240 833.6 845.7
752(27) 0.001362 836.6 850.2
797(28) 0.001276 839.6 855.0
795(28) 0.001285 842.6 859.8
828(28) 0.001240 845.6 864.6
908(30) 0.001119 848.5 869.8
904(30) 0.001119 851.4 875.9
909(30) 0.001126 854.3 884.1
965(31) 0.001047 857.2 895.5
992(31) 0.001021 860.1 911.8
1036(32) 0.000977 862.9 934.3
1018(32) 0.000995 865.7 963.9
1115(33) 0.000896 868.4 1000.6
1177(34) 0.000860 871.2 1043.0
1364(37) 0.000734 874. 1088.
1358(37) 0.000734 877. 1133.
1351(37) 0.000742 879. 1171.
1427(38) 0.000700 882. 1197.
1430(38) 0.000685 884. 1208.
1498(39) 0.000668 887. 1202.
1465(39) 0.000668 889. 1181.
1328(37) 0.000738 892. 1149.
1311(37) 0.000738 894. 1111.
1283(36) 0.000763 897. 1073.
1173(35) 0.000816 899.0 1038.7
1056(33) 0.000918 901.3 1010.8
1132(35) 0.000840 903.5 990.2
967(32) 0.000995 905.7 976.6
956(32) 0.000989 907.9 968.6
881(30) 0.001082 910.0 964.3
913(31) 0.001021 912.1 962.0
798(29) 0.001181 914.1 960.2
852(30) 0.001096 916.1 958.2
825(30) 0.001134 918.0 955.9
863(31) 0.001075 919.9 953.5
839(30) 0.001111 921.7 951.4
821(30) 0.001126 923.5 950.1
806(29) 0.001157 925.2 949.9
799(29) 0.001157 926.9 950.7
796(29) 0.001165 928.5 952.5
828(30) 0.001119 930.1 954.8
828(30) 0.001119 931.6 957.2
820(30) 0.001126 933.1 959.1
852(30) 0.001082 934.5 960.1
773(29) 0.001197 935.9 960.1
841(30) 0.001096 937.3 959.1
819(30) 0.001141 938.5 956.3
768(29) 0.001206 939.8 954.3
868(31) 0.001068 940.9 953.4
842(30) 0.001104 942.0 952.3
810(29) 0.001157 943.1 951.1
860(30) 0.001082 944.1 950.4
867(30) 0.001104 945.1 950.2
906(31) 0.001041 946.0 950.3
867(30) 0.001104 946.9 950.7
910(31) 0.001047 947.7 951.3
922(31) 0.001047 948.5 952.1
934(31) 0.001027 949.2 952.9
946(31) 0.001041 949.9 953.7
984(32) 0.000983 950.5 954.7
939(31) 0.001047 951.1 984.6
977(32) 0.001008 951.6 988.1
1022(32) 0.000970 952.1 992.2
1043(33) 0.000947 952.5 997.2
1066(33) 0.000941 952.9 1003.9
1010(32) 0.000983 953.2 1012.9
1143(34) 0.000886 953.5 1025.5
1064(33) 0.000941 953.8 1043.1
1132(34) 0.000891 954.0 1067.3
1162(34) 0.000875 954.2 1099.6
1201(34) 0.000855 954.3 1141.5
1239(35) 0.000816 954.4 1192.8
1323(36) 0.000780 954. 1254.
1452(38) 0.000707 954. 1324.
1593(39) 0.000644 954. 1404.
1685(40) 0.000613 954. 1497.
1840(42) 0.000562 954. 1610.
2092(45) 0.000492 954. 1758.
2389(48) 0.000436 954. 1963.
2789(52) 0.000371 954. 2263.
3273(56) 0.0003166 953. 2666.
3710(60) 0.0002806 953. 3200.
4241(64) 0.0002441 953. 3864.
5020(70) 0.0002064 953. 4632.
5439(73) 0.0001902 952. 5449.
6114(77) 0.0001695 952. 6229.
6569(80) 0.0001578 951. 6871.
7072(83) 0.0001466 951. 7273.
7264(83) 0.0001438 951. 7359.
7131(83) 0.0001452 950. 7110.
6764(81) 0.0001520 950. 6573.
6046(76) 0.0001727 949. 5838.
5300(72) 0.0001956 948. 5011.
4434(66) 0.0002324 948. 4187.
3794(60) 0.0002759 947. 3443.
2942(53) 0.000352 947. 2827.
2537(50) 0.000408 946. 2361.
2273(47) 0.000460 945. 2046.
2128(45) 0.000485 945. 1873.
2014(44) 0.000514 944. 1826.
2054(44) 0.000510 944. 1888.
2160(46) 0.000479 943. 2040.
2261(47) 0.000457 942. 2263.
2471(49) 0.000423 942. 2530.
2574(50) 0.000402 941. 2810.
2732(51) 0.000379 940. 3064.
2871(53) 0.000363 939. 3254.
2838(52) 0.000364 939. 3342.
3037(54) 0.0003417 938. 3309.
2866(53) 0.000363 937. 3159.
2711(51) 0.000381 937. 2917.
2439(49) 0.000425 936. 2620.
2206(46) 0.000471 935. 2305.
1886(43) 0.000548 935. 2004.
1625(40) 0.000641 934. 1740.
1432(37) 0.000723 933. 1523.
1237(35) 0.000835 932.8 1328.3
1203(34) 0.000865 932.2 1210.3
1105(33) 0.000935 931.6 1130.9
1053(32) 0.000983 931.0 1081.5
1069(32) 0.000977 930.4 1054.0
1037(32) 0.001001 929.9 1042.3
1071(32) 0.000970 929.3 1041.5
1052(32) 0.000989 928.8 1048.7
1145(33) 0.000902 928.3 1060.4
1160(33) 0.000896 927.8 1074.4
1143(33) 0.000907 927.4 1087.9
1141(33) 0.000907 926.9 1099.5
1256(35) 0.000821 926.5 1107.2
1321(36) 0.000785 926. 1110.
1294(35) 0.000798 926. 1110.
1330(36) 0.000776 925. 1107.
1414(37) 0.000734 925. 1106.
1281(35) 0.000807 925. 1106.
1393(37) 0.000734 925. 1109.
1378(36) 0.000755 924. 1104.
1385(37) 0.000742 924. 1110.
1368(37) 0.000751 924. 1114.
1385(37) 0.000742 924. 1112.
1365(37) 0.000751 924. 1104.
1270(35) 0.000798 924. 1089.
1287(35) 0.000798 924. 1069.
1243(35) 0.000812 924. 1046.
1120(33) 0.000902 924.0 1023.2
1118(33) 0.000902 924.1 1002.1
1022(32) 0.000989 924.2 984.5
980(32) 0.001008 924.4 971.2
954(31) 0.001061 924.6 962.8
951(31) 0.001041 924.9 959.0
960(31) 0.001027 925.2 960.1
925(31) 0.001068 925.6 964.5
910(30) 0.001082 926.0 972.0
927(31) 0.001041 926.4 981.7
948(31) 0.001041 926.9 992.6
963(32) 0.001001 927.4 1003.4
998(32) 0.000964 928.0 1012.9
966(32) 0.000995 928.6 1019.8
945(31) 0.001021 929.3 1023.5
958(32) 0.000989 930.0 1024.2
1018(33) 0.000947 930.7 1022.2
984(32) 0.000964 931.5 1018.7
966(32) 0.000983 932.4 1014.7
964(32) 0.000983 933.3 1010.5
931(31) 0.001014 934.2 1007.2
978(32) 0.000959 935.2 1004.3
981(32) 0.000964 936.3 1001.5
869(30) 0.001082 937.3 998.8
961(32) 0.000977 938.5 996.6
964(32) 0.000970 939.7 994.7
891(31) 0.001054 940.9 993.8
902(31) 0.001047 942.2 994.3
954(32) 0.000983 943.5 996.5
874(31) 0.001075 944.9 999.9
896(31) 0.001054 946.3 1005.6
927(31) 0.001021 947.8 1013.1
931(31) 0.001014 949.3 1022.5
925(31) 0.001034 950.8 1033.4
907(31) 0.001047 952.5 1046.1
897(31) 0.001068 954.1 1060.1
905(31) 0.001054 955.8 1074.6
975(32) 0.000989 957.6 1088.2
972(32) 0.000983 959.4 1099.4
1018(32) 0.000959 961.2 1106.7
980(32) 0.000983 963.1 1109.2
1047(33) 0.000935 965.1 1107.3
1045(33) 0.000930 967.0 1102.4
1082(33) 0.000907 969.1 1096.4
1175(35) 0.000831 971.1 1091.0
1098(33) 0.000902 973.3 1087.1
1123(34) 0.000875 975.4 1085.1
1089(33) 0.000913 977.6 1084.5
1090(33) 0.000907 979.9 1085.1
1081(33) 0.000924 982.1 1086.0
1003(32) 0.000995 984.5 1086.9
1010(32) 0.000995 986.8 1088.1
1083(33) 0.000918 989.2 1090.1
1035(32) 0.000970 991.7 1093.3
992(32) 0.001008 994.2 1097.6
960(31) 0.001047 996.7 1102.6
1007(32) 0.001001 999.3 1108.7
980(31) 0.001034 1001.9 1112.8
942(31) 0.001068 1004.5 1114.7
927(30) 0.001096 1007.2 1114.6
1002(32) 0.001008 1009.9 1112.9
977(31) 0.001034 1012.6 1110.6
960(31) 0.001061 1015.4 1108.4
932(30) 0.001089 1018.2 1106.6
939(31) 0.001075 1021.0 1105.2
1023(32) 0.000995 1023.9 1103.6
1002(31) 0.001014 1026.8 1101.4
1001(31) 0.001014 1029.7 1098.1
1017(32) 0.000995 1032.7 1093.8
1019(32) 0.000989 1035.6 1088.9
1115(33) 0.000907 1038.7 1083.9
1048(32) 0.000964 1041.7 1079.5
983(31) 0.001027 1044.7 1076.2
1031(32) 0.000983 1047.8 1073.8
955(31) 0.001054 1050.9 1073.7
1090(33) 0.000930 1054.0 1075.4
1096(33) 0.000924 1057.2 1079.3
1113(33) 0.000907 1060.3 1085.6
1098(33) 0.000924 1063.5 1095.2
1100(33) 0.000918 1066.7 1108.1
1162(34) 0.000870 1069.9 1125.7
1234(35) 0.000816 1073.2 1148.7
1266(35) 0.000798 1076. 1178.
1250(35) 0.000807 1080. 1213.
1235(35) 0.000816 1082.9 1254.8
1351(37) 0.000747 1086. 1300.
1409(37) 0.000719 1090. 1345.
1496(39) 0.000671 1093. 1387.
1467(38) 0.000689 1096. 1419.
1468(38) 0.000685 1099. 1437.
1486(38) 0.000678 1103. 1437.
1438(38) 0.000700 1106. 1421.
1524(39) 0.000661 1109. 1392.
1530(39) 0.000661 1113. 1355.
1388(37) 0.000727 1116. 1315.
1374(37) 0.000738 1119. 1277.
1342(37) 0.000751 1123. 1244.
1351(37) 0.000742 1126. 1217.
1259(35) 0.000807 1129. 1197.
1325(36) 0.000759 1133. 1185.
1339(37) 0.000751 1136. 1179.
1244(35) 0.000812 1139. 1178.
1232(35) 0.000816 1142.6 1181.1
1357(37) 0.000738 1146. 1188.
1328(36) 0.000759 1149. 1197.
1279(36) 0.000789 1152. 1208.
1304(36) 0.000772 1156. 1220.
1269(36) 0.000793 1159. 1233.
1233(35) 0.000816 1162.2 1245.5
1211(35) 0.000831 1165.4 1257.6
1254(35) 0.000803 1169. 1269.
1265(36) 0.000793 1172. 1277.
1313(36) 0.000767 1175. 1281.
1200(34) 0.000845 1178.1 1280.1
1225(35) 0.000816 1181.2 1275.6
1278(36) 0.000789 1184. 1268.
1267(35) 0.000798 1187. 1260.
1273(36) 0.000789 1190. 1252.
1342(37) 0.000751 1193. 1245.
1246(35) 0.000807 1196. 1240.
1279(36) 0.000785 1199. 1238.
1383(37) 0.000727 1202. 1239.
1390(37) 0.000723 1205. 1241.
1530(39) 0.000647 1208. 1244.
1607(40) 0.000625 1211. 1250.
1778(42) 0.000562 1214. 1259.
1714(42) 0.000578 1217. 1264.
1800(43) 0.000551 1219. 1267.
1879(43) 0.000531 1222. 1270.
1879(44) 0.000526 1225. 1271.
1884(44) 0.000526 1227. 1271.
1907(44) 0.000514 1230. 1272.
1873(44) 0.000528 1233. 1274.
1866(44) 0.000521 1235. 1278.
1766(43) 0.000554 1238. 1285.
1729(42) 0.000564 1240. 1297.
1660(41) 0.000586 1242. 1312.
1652(42) 0.000578 1245. 1333.
1502(39) 0.000651 1247. 1358.
1480(39) 0.000647 1249. 1387.
1375(38) 0.000696 1252. 1418.
1351(38) 0.000707 1254. 1449.
1268(36) 0.000755 1256. 1478.
1305(37) 0.000723 1258. 1501.
1342(38) 0.000711 1260. 1517.
1332(38) 0.000711 1262. 1527.
1314(37) 0.000719 1264. 1532.
1339(38) 0.000711 1266. 1532.
1382(38) 0.000685 1268. 1531.
1366(38) 0.000685 1269. 1527.
1371(38) 0.000693 1271. 1522.
1374(38) 0.000689 1273. 1515.
1477(40) 0.000634 1274. 1508.
1403(39) 0.000671 1276. 1504.
1522(40) 0.000622 1277. 1508.
1517(40) 0.000619 1279. 1525.
1597(41) 0.000589 1280. 1558.
1583(41) 0.000604 1282. 1611.
1675(42) 0.000562 1283. 1683.
1888(45) 0.000505 1284. 1774.
1907(45) 0.000500 1285. 1910.
2027(46) 0.000473 1286. 2017.
2146(47) 0.000445 1287. 2116.
2226(48) 0.000436 1288. 2191.
2193(48) 0.000438 1289. 2232.
2215(48) 0.000441 1290. 2232.
2106(47) 0.000460 1291. 2193.
2127(47) 0.000460 1292. 2125.
1978(45) 0.000494 1292. 2039.
1893(44) 0.000524 1293. 1946.
1858(44) 0.000528 1293. 1854.
1766(42) 0.000564 1294. 1769.
1627(41) 0.000610 1294. 1695.
1546(39) 0.000651 1295. 1633.
1491(39) 0.000668 1295. 1585.
1482(38) 0.000685 1295. 1550.
1413(38) 0.000711 1295. 1526.
1389(37) 0.000734 1296. 1510.
1406(37) 0.000723 1296. 1504.
1381(37) 0.000742 1296. 1504.
1283(35) 0.000798 1295. 1511.
1377(37) 0.000751 1295. 1521.
1295(36) 0.000793 1295. 1535.
1300(36) 0.000793 1295. 1555.
1334(36) 0.000776 1294. 1582.
1349(36) 0.000767 1294. 1654.
1414(37) 0.000730 1294. 1717.
1503(38) 0.000696 1293. 1816.
1666(40) 0.000619 1293. 1969.
1945(43) 0.000533 1292. 2201.
2306(47) 0.000453 1291. 2540.
2815(52) 0.000368 1290. 3016.
3581(59) 0.0002902 1290. 3648.
4211(64) 0.0002480 1289. 4443.
5294(72) 0.0001956 1288. 5388.
6457(79) 0.0001615 1287. 6436.
7445(85) 0.0001401 1286. 7511.
8684(91) 0.0001197 1284. 8508.
9571(96) 0.0001090 1283. 9299.
10211(99) 0.0001020 1282. 9756.
10480(100) 0.0000992 1281. 9793.
10223(99) 0.0001024 1279. 9405.
9435(95) 0.0001103 1278. 8671.
8295(89) 0.0001254 1276. 7714.
6923(81) 0.0001513 1275. 6660.
5487(73) 0.0001892 1273. 5624.
4220(64) 0.0002464 1271. 4684.
3471(58) 0.0003025 1270. 3888.
2928(53) 0.000355 1268. 3256.
2460(49) 0.000422 1266. 2790.
2182(46) 0.000481 1264. 2475.
2090(45) 0.000496 1262. 2296.
2102(45) 0.000494 1260. 2240.
2143(45) 0.000489 1258. 2297.
2343(48) 0.000443 1256. 2472.
2632(50) 0.000395 1254. 2775.
3055(54) 0.0003429 1252. 3218.
3644(59) 0.0002853 1249. 3809.
4379(65) 0.0002374 1247. 4546.
5171(70) 0.0002035 1245. 5405.
6071(76) 0.0001713 1242. 6341.
7039(82) 0.0001476 1240. 7281.
7912(87) 0.0001327 1238. 8129.
8652(91) 0.0001200 1235. 8770.
9119(94) 0.0001139 1233. 9098.
9185(94) 0.0001141 1230. 9043.
8988(93) 0.0001154 1227. 8612.
8240(89) 0.0001262 1225. 7883.
7326(84) 0.0001431 1222. 6971.
6258(78) 0.0001656 1219. 5991.
5036(70) 0.0002064 1216. 5039.
3915(61) 0.0002661 1214. 4181.
3202(56) 0.0003235 1211. 3459.
2687(51) 0.000386 1208. 2884.
2345(48) 0.000443 1205. 2452.
1980(44) 0.000521 1202. 2141.
1812(42) 0.000572 1199. 1927.
1628(40) 0.000638 1196. 1782.
1537(39) 0.000671 1193. 1685.
1521(39) 0.000675 1190. 1584.
1555(39) 0.000668 1187. 1536.
1467(38) 0.000696 1184. 1502.
1463(38) 0.000704 1181. 1477.
1447(38) 0.000707 1178. 1465.
1521(39) 0.000671 1174. 1460.
1544(39) 0.000661 1171. 1466.
1506(38) 0.000682 1168. 1481.
1559(39) 0.000647 1165. 1505.
1625(40) 0.000628 1162. 1536.
1658(40) 0.000613 1158. 1569.
1617(40) 0.000625 1155. 1601.
1603(40) 0.000622 1152. 1626.
1705(41) 0.000595 1149. 1641.
1699(41) 0.000589 1146. 1644.
1602(40) 0.000625 1142. 1636.
1654(41) 0.000604 1139. 1618.
1653(41) 0.000604 1136. 1592.
1543(40) 0.000638 1133. 1559.
1667(41) 0.000601 1129. 1524.
1679(41) 0.000583 1126. 1489.
1673(41) 0.000589 1123. 1457.
1640(41) 0.000595 1120. 1429.
1644(41) 0.000595 1116. 1405.
1631(41) 0.000592 1113. 1382.
1596(40) 0.000613 1110. 1330.
1646(41) 0.000586 1107. 1310.
1627(41) 0.000592 1104. 1291.
1569(41) 0.000607 1100. 1275.
1583(41) 0.000610 1097. 1263.
1514(40) 0.000625 1094. 1257.
1602(41) 0.000595 1091. 1260.
1576(41) 0.000604 1088. 1273.
1494(40) 0.000634 1085. 1299.
1463(40) 0.000641 1082. 1340.
1604(41) 0.000592 1079. 1396.
1572(41) 0.000601 1076. 1467.
1617(42) 0.000581 1073. 1553.
1735(43) 0.000541 1070. 1650.
1767(43) 0.000533 1067. 1757.
1826(44) 0.000512 1064. 1857.
1830(44) 0.000514 1061. 1943.
1939(45) 0.000487 1059. 2002.
1904(45) 0.000492 1056. 2023.
1920(45) 0.000492 1053. 2012.
1811(44) 0.000521 1050. 1950.
1799(44) 0.000524 1048. 1855.
1761(43) 0.000536 1045. 1743.
1597(41) 0.000598 1043. 1625.
1517(40) 0.000622 1040. 1513.
1444(39) 0.000661 1038. 1414.
1359(38) 0.000704 1035. 1331.
1275(36) 0.000755 1033. 1266.
1335(37) 0.000715 1031. 1219.
1185(35) 0.000826 1028.4 1187.7
1232(36) 0.000780 1026. 1169.
1222(35) 0.000803 1024. 1158.
1236(36) 0.000789 1022. 1155.
1213(35) 0.000812 1020. 1155.
1163(35) 0.000840 1018.0 1157.3
1134(34) 0.000881 1016.1 1160.1
1186(35) 0.000831 1014.2 1162.5
1161(34) 0.000865 1012.4 1165.2
1219(35) 0.000821 1010.7 1167.9
1211(35) 0.000826 1009.0 1171.6
1170(34) 0.000860 1007.4 1183.1
1218(35) 0.000831 1005.8 1195.9
1238(35) 0.000807 1004. 1217.
1352(36) 0.000755 1003. 1248.
1349(37) 0.000751 1002. 1295.
1446(38) 0.000704 1000. 1361.
1543(39) 0.000661 999. 1450.
1698(41) 0.000601 998. 1565.
1879(43) 0.000541 997. 1706.
2066(45) 0.000500 996. 1870.
2323(48) 0.000440 995. 2051.
2399(48) 0.000429 994. 2238.
2646(51) 0.000391 993. 2421.
2732(52) 0.000377 993. 2587.
2951(54) 0.0003481 992. 2728.
2995(54) 0.0003455 991. 2844.
3037(54) 0.0003392 991. 2949.
2970(54) 0.0003455 991. 3060.
3069(55) 0.0003367 990. 3192.
3048(54) 0.0003379 990. 3359.
3100(55) 0.0003306 990. 3557.
3443(58) 0.0002983 990. 3772.
3476(58) 0.0002962 990. 3982.
3727(60) 0.0002769 990. 4152.
3855(61) 0.0002670 990. 4243.
4070(63) 0.0002536 990. 4221.
3911(62) 0.0002644 990. 4073.
3680(60) 0.0002796 991. 3814.
3292(57) 0.0003133 991. 3478.
2989(54) 0.0003442 992. 3107.
2627(51) 0.000392 992. 2736.
2145(46) 0.000481 993. 2393.
1947(44) 0.000528 994. 2098.
1638(40) 0.000625 994. 1861.
1563(39) 0.000657 995. 1686.
1437(38) 0.000711 996. 1572.
1484(38) 0.000689 997. 1513.
1432(38) 0.000711 998. 1504.
1413(37) 0.000723 1000. 1540.
1460(38) 0.000704 1001. 1612.
1586(40) 0.000641 1002. 1715.
1660(40) 0.000616 1004. 1838.
1765(42) 0.000581 1005. 1970.
1867(43) 0.000548 1007. 2099.
1933(44) 0.000528 1008. 2209.
2130(46) 0.000481 1010. 2284.
2115(46) 0.000483 1012. 2312.
2045(45) 0.000496 1014. 2285.
2064(45) 0.000496 1016. 2207.
2018(45) 0.000503 1018. 2091.
1867(43) 0.000543 1020. 1953.
1778(42) 0.000575 1022. 1809.
1642(40) 0.000619 1024. 1672.
1553(39) 0.000657 1026. 1552.
1443(38) 0.000707 1029. 1446.
1457(38) 0.000700 1031. 1369.
1462(38) 0.000696 1033. 1314.
1325(36) 0.000767 1036. 1278.
1408(37) 0.000727 1038. 1257.
1409(37) 0.000723 1041. 1249.
1363(37) 0.000747 1044. 1249.
1311(36) 0.000780 1046. 1255.
1376(37) 0.000738 1049. 1264.
1328(36) 0.000763 1052. 1274.
1362(37) 0.000751 1055. 1281.
1318(36) 0.000776 1058. 1284.
1293(36) 0.000785 1061. 1281.
1253(35) 0.000812 1064. 1273.
1233(35) 0.000831 1066.8 1260.5
1276(36) 0.000793 1070. 1245.
1239(35) 0.000821 1073.1 1227.2
1219(35) 0.000840 1076.3 1199.4
1228(35) 0.000826 1079.5 1183.4
1228(35) 0.000826 1082.8 1170.6
1178(34) 0.000870 1086.1 1161.1
1106(33) 0.000907 1089.5 1155.6
1208(35) 0.000840 1092.8 1154.0
1169(34) 0.000865 1096.2 1156.7
1186(34) 0.000845 1099.7 1163.4
1153(34) 0.000870 1103.2 1174.0
1159(34) 0.000870 1106.6 1188.1
1154(34) 0.000865 1110.2 1205.2
1267(36) 0.000789 1114. 1225.
1275(36) 0.000776 1117. 1245.
1152(34) 0.000865 1120.8 1264.6
1282(36) 0.000763 1124. 1282.
1185(35) 0.000840 1128.0 1295.9
1229(36) 0.000793 1132. 1305.
1225(35) 0.000798 1135. 1311.
1222(36) 0.000793 1139. 1311.
1233(36) 0.000793 1143. 1310.
1315(37) 0.000727 1146. 1306.
1310(37) 0.000742 1150. 1295.
1306(37) 0.000734 1154. 1288.
1252(36) 0.000763 1157. 1279.
1291(37) 0.000734 1161. 1269.
1294(37) 0.000738 1165. 1260.
1249(37) 0.000751 1168. 1252.
1287(37) 0.000734 1172. 1245.
1251(36) 0.000759 1175. 1240.
1273(37) 0.000734 1179. 1237.
1230(36) 0.000759 1183. 1236.
1195(36) 0.000793 1186. 1238.
1246(37) 0.000738 1190. 1241.
1160(35) 0.000807 1193. 1245.
1270(37) 0.000734 1197. 1251.
1193(36) 0.000772 1201. 1258.
1156(35) 0.000812 1204. 1265.
1263(37) 0.000738 1207. 1276.
1198(36) 0.000776 1211. 1285.
1310(37) 0.000715 1214. 1293.
1294(37) 0.000730 1218. 1303.
1217(36) 0.000767 1221. 1313.
1293(37) 0.000730 1224. 1323.
1221(36) 0.000776 1228. 1333.
1247(36) 0.000763 1231. 1343.
1279(37) 0.000738 1234. 1351.
1275(36) 0.000759 1237. 1358.
1347(38) 0.000704 1240. 1362.
1378(38) 0.000704 1243. 1364.
1341(37) 0.000723 1246. 1364.
1315(37) 0.000742 1249. 1365.
1390(38) 0.000696 1252. 1366.
1314(36) 0.000755 1255. 1372.
1410(38) 0.000693 1258. 1378.
1474(39) 0.000671 1261. 1386.
1355(37) 0.000730 1264. 1395.
1406(44) 0.000528 1266. 1404.
1358(37) 0.000730 1269. 1411.
1424(38) 0.000711 1271. 1417.
1435(44) 0.000517 1274. 1419.
1323(36) 0.000763 1276. 1419.
1355(37) 0.000747 1279. 1416.
1374(43) 0.000554 1281. 1414.
1381(37) 0.000734 1283. 1411.
1297(36) 0.000793 1285. 1409.
1311(42) 0.000581 1288. 1407.
1367(37) 0.000751 1290. 1408.
1355(36) 0.000759 1292. 1409.
1318(41) 0.000586 1293. 1413.
1333(36) 0.000767 1295. 1419.
1354(36) 0.000763 1297. 1427.
1350(42) 0.000572 1299. 1439.
1431(37) 0.000719 1300. 1456.
1416(37) 0.000730 1302. 1478.
1588(45) 0.000485 1303. 1509.
1636(40) 0.000628 1305. 1550.
1702(41) 0.000610 1306. 1603.
1788(48) 0.000430 1307. 1666.
1879(43) 0.000548 1308. 1740.
2059(45) 0.000505 1310. 1819.
2218(47) 0.000462 1311. 1900.
2152(46) 0.000477 1312. 1973.
2389(48) 0.000432 1312. 2042.
2365(48) 0.000434 1313. 2075.
2460(49) 0.000416 1314. 2079.
2505(49) 0.000413 1314. 2054.
2377(48) 0.000429 1315. 2009.
2450(49) 0.000418 1316. 1953.
2299(47) 0.000447 1316. 1899.
2172(46) 0.000471 1316. 1854.
2142(46) 0.000477 1316. 1826.
2179(46) 0.000473 1317. 1820.
2155(46) 0.000473 1317. 1839.
2239(47) 0.000457 1317. 1879.
2241(47) 0.000455 1317. 1939.
2339(48) 0.000434 1316. 2012.
2350(48) 0.000430 1316. 2089.
2386(48) 0.000427 1316. 2161.
2380(49) 0.000423 1316. 2216.
2266(47) 0.000447 1315. 2248.
2387(49) 0.000425 1315. 2252.
2310(48) 0.000438 1314. 2230.
2273(47) 0.000447 1313. 2185.
2180(46) 0.000464 1313. 2122.
2116(46) 0.000477 1312. 2046.
2103(46) 0.000483 1311. 1964.
1899(43) 0.000531 1310. 1882.
1870(43) 0.000538 1309. 1806.
1833(43) 0.000551 1308. 1740.
1791(42) 0.000564 1307. 1687.
1810(42) 0.000556 1305. 1648.
1638(40) 0.000616 1304. 1623.
1677(41) 0.000604 1303. 1612.
1657(41) 0.000610 1301. 1615.
1636(40) 0.000613 1300. 1632.
1534(39) 0.000661 1298. 1666.
1545(39) 0.000647 1297. 1720.
1640(40) 0.000613 1295. 1801.
1669(41) 0.000607 1293. 1914.
1739(42) 0.000578 1291. 2063.
1942(44) 0.000514 1290. 2254.
2213(47) 0.000459 1288. 2485.
2459(49) 0.000410 1286. 2751.
2961(55) 0.0003367 1284. 3041.
3157(56) 0.0003200 1282. 3336.
3701(61) 0.0002732 1280. 3611.
4094(64) 0.0002426 1278. 3834.
4353(66) 0.0002324 1275. 3972.
4411(67) 0.0002261 1273. 4002.
4300(66) 0.0002310 1271. 3912.
4151(65) 0.0002404 1269. 3726.
3664(61) 0.0002723 1266. 3470.
3213(57) 0.0003046 1264. 3177.
2697(52) 0.000370 1262. 2877.
2368(49) 0.000411 1259. 2593.
2003(45) 0.000487 1257. 2339.
1914(44) 0.000510 1254. 2124.
1678(42) 0.000581 1252. 1949.
1703(42) 0.000570 1249. 1813.
1543(40) 0.000631 1247. 1711.
1518(40) 0.000625 1244. 1637.
1480(39) 0.000654 1242. 1585.
1438(39) 0.000661 1239. 1550.
1457(39) 0.000651 1236. 1527.
1485(40) 0.000641 1234. 1509.
1520(40) 0.000625 1231. 1496.
1483(40) 0.000622 1228. 1486.
1456(39) 0.000651 1226. 1481.
1501(40) 0.000616 1223. 1471.
1443(40) 0.000641 1220. 1461.
1409(39) 0.000654 1218. 1451.
1382(39) 0.000668 1215. 1443.
1366(39) 0.000664 1212. 1435.
1322(38) 0.000700 1210. 1429.
1480(40) 0.000616 1207. 1425.
1395(39) 0.000651 1204. 1421.
1354(39) 0.000675 1202. 1419.
1408(39) 0.000644 1199. 1415.
1322(38) 0.000682 1196. 1411.
1324(38) 0.000693 1194. 1405.
1335(39) 0.000675 1191. 1397.
1270(38) 0.000711 1189. 1388.
1297(38) 0.000700 1186. 1377.
1223(37) 0.000738 1183. 1366.
1270(37) 0.000715 1181. 1353.
1179(36) 0.000772 1178. 1340.
1199(36) 0.000759 1176. 1327.
1208(37) 0.000751 1174. 1315.
1288(37) 0.000715 1171. 1303.
1159(36) 0.000785 1169. 1292.
1286(37) 0.000715 1166. 1284.
1225(37) 0.000751 1164. 1278.
1227(36) 0.000755 1162. 1276.
1311(38) 0.000700 1160. 1278.
1328(38) 0.000711 1157. 1270.
1265(37) 0.000730 1155. 1278.
1261(37) 0.000747 1153. 1288.
1371(38) 0.000685 1151. 1299.
1295(37) 0.000734 1149. 1311.
1328(38) 0.000707 1147. 1322.
1297(37) 0.000747 1145. 1332.
1408(39) 0.000675 1143. 1340.
1352(37) 0.000715 1141. 1346.
1462(39) 0.000661 1140. 1350.
1414(38) 0.000689 1138. 1353.
1383(38) 0.000700 1136. 1356.
1436(38) 0.000685 1135. 1362.
1382(38) 0.000704 1133. 1372.
1381(37) 0.000715 1132. 1390.
1456(38) 0.000678 1130. 1418.
1467(38) 0.000678 1129. 1458.
1516(39) 0.000651 1127. 1512.
1508(39) 0.000664 1126. 1579.
1585(40) 0.000625 1125. 1661.
1645(41) 0.000610 1124. 1755.
1701(41) 0.000589 1123. 1858.
1857(43) 0.000543 1122. 1963.
1941(44) 0.000517 1121. 2064.
1997(44) 0.000507 1120. 2150.
2153(46) 0.000469 1119. 2214.
2178(46) 0.000464 1118. 2238.
2201(47) 0.000460 1118. 2221.
2158(46) 0.000471 1117. 2164.
2114(46) 0.000479 1116. 2076.
1926(44) 0.000528 1116. 1969.
1776(42) 0.000572 1116. 1854.
1677(41) 0.000607 1115. 1742.
1595(40) 0.000638 1115. 1640.
1535(39) 0.000664 1115. 1551.
1476(38) 0.000689 1115. 1479.
1408(37) 0.000727 1114. 1423.
1483(38) 0.000689 1114. 1383.
1385(37) 0.000738 1114. 1356.
1381(37) 0.000738 1115. 1341.
1444(38) 0.000711 1115. 1335.
1424(37) 0.000719 1115. 1336.
1519(39) 0.000675 1115. 1346.
1529(39) 0.000671 1116. 1363.
1461(38) 0.000707 1116. 1385.
1421(37) 0.000723 1117. 1415.
1485(38) 0.000689 1117. 1451.
1505(38) 0.000685 1118. 1493.
1547(39) 0.000661 1119. 1540.
1608(40) 0.000638 1120. 1588.
1615(40) 0.000641 1120. 1633.
1590(40) 0.000641 1121. 1670.
1667(40) 0.000619 1122. 1694.
1651(40) 0.000625 1123. 1702.
1655(40) 0.000619 1125. 1694.
1619(40) 0.000638 1126. 1671.
1611(39) 0.000644 1127. 1638.
1594(40) 0.000641 1128. 1598.
1516(38) 0.000682 1130. 1555.
1427(37) 0.000727 1131. 1512.
1491(38) 0.000689 1132. 1471.
1446(37) 0.000715 1134. 1435.
1389(37) 0.000747 1136. 1406.
1455(38) 0.000707 1137. 1385.
1450(38) 0.000711 1139. 1374.
1430(37) 0.000727 1141. 1375.
1431(37) 0.000719 1142. 1390.
1472(38) 0.000700 1144. 1419.
1486(38) 0.000700 1146. 1466.
1586(39) 0.000647 1148. 1529.
1685(40) 0.000616 1150. 1610.
1825(42) 0.000570 1152. 1708.
1959(44) 0.000528 1154. 1819.
2334(48) 0.000443 1156. 1939.
2422(48) 0.000429 1158. 2061.
2644(51) 0.000392 1160. 2174.
2846(52) 0.000364 1163. 2268.
3044(54) 0.0003404 1165. 2330.
3053(54) 0.0003392 1167. 2352.
2973(54) 0.0003481 1170. 2329.
2822(52) 0.000366 1172. 2274.
2689(51) 0.000384 1174. 2195.
2354(48) 0.000438 1177. 2105.
2141(46) 0.000483 1179. 2014.
1977(44) 0.000521 1182. 1934.
1827(42) 0.000564 1184. 1871.
1732(41) 0.000592 1187. 1828.
1630(40) 0.000631 1189. 1808.
1694(41) 0.000601 1192. 1809.
1557(39) 0.000657 1194. 1828.
1679(41) 0.000610 1197. 1861.
1700(41) 0.000601 1199. 1901.
1777(42) 0.000564 1202. 1942.
1786(42) 0.000572 1205. 1980.
1833(43) 0.000543 1207. 2007.
1857(43) 0.000541 1210. 2020.
1889(44) 0.000526 1213. 2015.
1877(43) 0.000531 1215. 1992.
1832(43) 0.000533 1218. 1954.
1854(43) 0.000536 1221. 1905.
1714(42) 0.000564 1223. 1849.
1649(41) 0.000595 1226. 1791.
1541(40) 0.000631 1229. 1735.
1583(41) 0.000610 1231. 1685.
1510(40) 0.000634 1234. 1647.
1592(41) 0.000610 1237. 1612.
1553(41) 0.000610 1239. 1589.
1508(40) 0.000634 1242. 1575.
1536(40) 0.000616 1245. 1569.
1512(40) 0.000628 1247. 1569.
1599(41) 0.000589 1250. 1573.
1615(41) 0.000586 1253. 1580.
1698(43) 0.000554 1255. 1586.
1667(42) 0.000564 1258. 1592.
1655(42) 0.000564 1260. 1596.
1653(42) 0.000570 1263. 1598.
1676(42) 0.000559 1265. 1598.
1693(43) 0.000551 1268. 1596.
1693(42) 0.000556 1270. 1593.
1640(42) 0.000570 1273. 1588.
1681(42) 0.000559 1275. 1590.
1699(43) 0.000554 1278. 1579.
1622(41) 0.000583 1280. 1566.
1541(41) 0.000610 1282. 1550.
1576(41) 0.000604 1285. 1536.
1572(41) 0.000601 1287. 1519.
1585(41) 0.000604 1289. 1504.
1449(39) 0.000657 1291. 1491.
1493(39) 0.000647 1293. 1479.
1548(40) 0.000619 1296. 1470.
1510(39) 0.000644 1298. 1461.
1532(40) 0.000631 1300. 1451.
1490(39) 0.000657 1302. 1446.
1555(40) 0.000625 1304. 1443.
1467(39) 0.000675 1306. 1439.
1536(40) 0.000638 1308. 1437.
1437(38) 0.000693 1310. 1436.
1450(38) 0.000685 1311. 1436.
1515(39) 0.000657 1313. 1438.
1422(38) 0.000696 1315. 1442.
1365(37) 0.000738 1317. 1449.
1415(38) 0.000707 1318. 1458.
1424(38) 0.000711 1320. 1470.
1398(37) 0.000719 1322. 1484.
1358(37) 0.000747 1323. 1501.
1437(38) 0.000704 1325. 1519.
1521(39) 0.000671 1326. 1540.
1475(38) 0.000689 1327. 1562.
1530(39) 0.000671 1329. 1584.
1627(40) 0.000625 1330. 1606.
1587(39) 0.000644 1331. 1630.
1586(39) 0.000647 1333. 1658.
1621(40) 0.000631 1334. 1690.
1762(42) 0.000578 1335. 1730.
1752(41) 0.000589 1336. 1783.
1747(41) 0.000586 1337. 1849.
1878(43) 0.000541 1338. 1933.
2061(45) 0.000500 1339. 2034.
2120(46) 0.000483 1340. 2153.
2386(49) 0.000425 1341. 2285.
2532(50) 0.000405 1342. 2424.
2699(51) 0.000380 1342. 2562.
2985(54) 0.0003392 1343. 2688.
3108(55) 0.0003294 1344. 2790.
3115(55) 0.0003282 1344. 2859.
3162(56) 0.0003200 1345. 2889.
3025(55) 0.0003367 1346. 2883.
2794(52) 0.000366 1346. 2859.
2681(52) 0.000377 1347. 2822.
2364(48) 0.000430 1347. 2793.
2236(47) 0.000459 1347. 2786.
2296(48) 0.000441 1348. 2813.
2238(47) 0.000451 1348. 2879.
2421(49) 0.000423 1348. 2990.
2636(51) 0.000381 1349. 3143.
2914(54) 0.0003468 1349. 3334.
3214(56) 0.0003177 1349. 3550.
3600(60) 0.0002796 1349. 3776.
3902(62) 0.0002568 1349. 3988.
4232(64) 0.0002411 1349. 4160.
4531(67) 0.0002221 1349. 4267.
4709(69) 0.0002131 1349. 4295.
4611(68) 0.0002188 1349. 4240.
4354(66) 0.0002317 1349. 4112.
4159(65) 0.0002404 1349. 3928.
3867(62) 0.0002610 1349. 3705.
3526(59) 0.0002873 1349. 3461.
3249(57) 0.0003078 1348. 3213.
2949(54) 0.0003429 1348. 2974.
2788(53) 0.000363 1348. 2757.
2442(49) 0.000411 1348. 2569.
2460(49) 0.000410 1347. 2416.
2396(49) 0.000422 1347. 2292.
2264(48) 0.000443 1346. 2198.
2194(47) 0.000460 1346. 2129.
2267(47) 0.000445 1346. 2078.
2097(46) 0.000479 1345. 2039.
2111(46) 0.000479 1345. 2007.
2011(45) 0.000505 1344. 1977.
1980(44) 0.000507 1344. 1947.
1974(44) 0.000507 1343. 1914.
1882(43) 0.000538 1343. 1878.
1877(43) 0.000536 1342. 1841.
1766(42) 0.000567 1342. 1803.
1800(42) 0.000564 1341. 1768.
1723(41) 0.000583 1340. 1739.
1711(41) 0.000592 1340. 1717.
1671(41) 0.000607 1339. 1702.
1717(41) 0.000592 1339. 1695.
1650(40) 0.000613 1338. 1698.
1717(41) 0.000583 1337. 1709.
1751(42) 0.000581 1337. 1729.
1843(43) 0.000543 1336. 1758.
1838(43) 0.000546 1335. 1795.
1811(42) 0.000556 1335. 1840.
1931(44) 0.000519 1334. 1892.
1952(44) 0.000510 1333. 1951.
1982(44) 0.000510 1333. 2016.
2144(47) 0.000459 1332. 2088.
2026(45) 0.000489 1331. 2166.
2207(47) 0.000455 1331. 2249.
2324(49) 0.000423 1330. 2337.
2505(51) 0.000389 1329. 2428.
2624(51) 0.000381 1329. 2519.
2831(54) 0.0003429 1328. 2604.
3000(56) 0.0003246 1327. 2672.
3225(57) 0.0003046 1327. 2723.
3284(58) 0.0002952 1326. 2744.
3412(60) 0.0002806 1325. 2730.
3152(57) 0.0003122 1325. 2684.
2956(56) 0.0003235 1324. 2609.
2742(54) 0.0003494 1323. 2516.
2447(50) 0.000395 1323. 2415.
2268(49) 0.000422 1322. 2316.
2030(46) 0.000464 1321. 2224.
1970(45) 0.000489 1321. 2145.
1899(45) 0.000496 1320. 2081.
1882(45) 0.000500 1320. 2032.
1903(45) 0.000498 1319. 1999.
1869(45) 0.000505 1319. 1982.
1949(46) 0.000481 1318. 1981.
1890(45) 0.000503 1318. 1984.
1913(45) 0.000494 1317. 2008.
1888(45) 0.000496 1317. 2042.
1886(45) 0.000500 1316. 2082.
2099(47) 0.000451 1316. 2127.
2080(47) 0.000453 1315. 2170.
2248(49) 0.000420 1315. 2213.
2120(47) 0.000451 1314. 2251.
2277(49) 0.000413 1314. 2280.
2301(49) 0.000415 1314. 2297.
2301(49) 0.000415 1313. 2300.
2263(49) 0.000422 1313. 2289.
2223(48) 0.000429 1312. 2265.
2149(47) 0.000453 1312. 2233.
2013(46) 0.000473 1312. 2200.
1956(45) 0.000494 1311. 2169.
1964(45) 0.000496 1311. 2145.
1978(45) 0.000492 1311. 2130.
1928(45) 0.000500 1311. 2123.
1890(44) 0.000528 1310. 2124.
1915(44) 0.000510 1310. 2129.
1997(45) 0.000496 1310. 2139.
1974(45) 0.000505 1310. 2148.
1989(45) 0.000505 1310. 2153.
2019(45) 0.000492 1309. 2150.
2085(45) 0.000487 1309. 2136.
2051(45) 0.000489 1309. 2108.
2117(46) 0.000481 1309. 2066.
1960(44) 0.000519 1309. 2013.
1984(44) 0.000514 1309. 1953.
1945(44) 0.000521 1308. 1892.
1875(43) 0.000551 1308. 1834.
1841(42) 0.000556 1308. 1783.
1755(41) 0.000583 1308. 1741.
1856(42) 0.000556 1308. 1709.
1838(42) 0.000559 1308. 1690.
1909(43) 0.000538 1308. 1684.
1921(43) 0.000538 1308. 1691.
1980(44) 0.000519 1308. 1709.
1939(43) 0.000531 1308. 1738.
1945(43) 0.000531 1308. 1777.
1994(44) 0.000517 1308. 1824.
2170(46) 0.000475 1308. 1876.
2130(46) 0.000483 1308. 1930.
2221(47) 0.000462 1308. 1983.
2294(47) 0.000449 1308. 2033.
2351(48) 0.000438 1308. 2076.
2363(48) 0.000434 1308. 2103.
2462(49) 0.000418 1308. 2122.
2402(48) 0.000429 1308. 2124.
2300(47) 0.000445 1308. 2111.
2285(47) 0.000449 1308. 2084.
2119(45) 0.000485 1308. 2045.
1993(44) 0.000512 1308. 1998.
1983(44) 0.000517 1308. 1946.
1799(42) 0.000570 1308. 1892.
1842(43) 0.000554 1308. 1837.
1724(41) 0.000595 1307. 1784.
1763(42) 0.000581 1307. 1735.
1755(41) 0.000583 1307. 1688.
1725(41) 0.000595 1307. 1645.
1626(40) 0.000628 1307. 1608.
1730(41) 0.000592 1307. 1576.
1756(41) 0.000583 1307. 1549.
1722(41) 0.000592 1307. 1529.
1719(41) 0.000598 1307. 1516.
1630(40) 0.000628 1307. 1508.
1610(40) 0.000634 1306. 1505.
1658(40) 0.000619 1306. 1509.
1567(39) 0.000647 1306. 1518.
1533(39) 0.000668 1306. 1532.
1625(40) 0.000631 1306. 1547.
1559(39) 0.000651 1305. 1569.
1630(40) 0.000625 1305. 1594.
1563(39) 0.000654 1305. 1621.
1578(39) 0.000644 1305. 1650.
1563(39) 0.000651 1304. 1678.
1599(40) 0.000638 1304. 1704.
1645(40) 0.000616 1304. 1728.
1617(40) 0.000625 1303. 1745.
1580(39) 0.000644 1303. 1755.
1689(41) 0.000598 1302. 1758.
1597(40) 0.000634 1302. 1753.
1533(39) 0.000661 1301. 1741.
1612(40) 0.000628 1301. 1723.
1533(39) 0.000661 1300. 1700.
1540(39) 0.000657 1300. 1674.
1564(39) 0.000644 1299. 1649.
1556(39) 0.000651 1299. 1626.
1551(39) 0.000647 1298. 1604.
1437(38) 0.000700 1297. 1584.
1538(39) 0.000651 1297. 1568.
1530(39) 0.000657 1296. 1555.
1524(39) 0.000661 1295. 1547.
1490(39) 0.000671 1294. 1543.
1448(38) 0.000689 1294. 1544.
1497(39) 0.000675 1293. 1549.
1452(38) 0.000685 1292. 1559.
1525(39) 0.000654 1291. 1571.
1495(39) 0.000671 1290. 1586.
1575(40) 0.000631 1289. 1602.
1532(39) 0.000647 1288. 1617.
1568(40) 0.000638 1287. 1630.
1536(40) 0.000638 1286. 1640.
1557(40) 0.000638 1285. 1646.
1561(40) 0.000631 1284. 1648.
1608(41) 0.000610 1283. 1647.
1643(41) 0.000598 1281. 1644.
1611(40) 0.000613 1280. 1640.
1633(41) 0.000592 1279. 1636.
1599(40) 0.000616 1278. 1638.
1625(41) 0.000592 1277. 1644.
1535(40) 0.000628 1275. 1656.
1619(41) 0.000592 1274. 1673.
1512(40) 0.000638 1272. 1696.
1645(42) 0.000578 1271. 1724.
1638(41) 0.000586 1270. 1759.
1680(42) 0.000562 1268. 1795.
1666(42) 0.000570 1267. 1832.
1769(43) 0.000533 1265. 1872.
1845(44) 0.000510 1264. 1912.
1857(45) 0.000505 1262. 1954.
1988(46) 0.000475 1261. 1997.
2054(47) 0.000451 1259. 2038.
2218(49) 0.000423 1257. 2076.
2237(49) 0.000416 1256. 2106.
2406(51) 0.000386 1254. 2126.
2427(51) 0.000386 1252. 2130.
2398(51) 0.000388 1250. 2120.
2202(49) 0.000418 1249. 2096.
2117(48) 0.000441 1247. 2062.
2105(48) 0.000441 1245. 2021.
1882(45) 0.000489 1243. 1977.
1938(46) 0.000483 1242. 1931.
1776(44) 0.000524 1240. 1885.
1728(43) 0.000536 1238. 1840.
1650(42) 0.000570 1236. 1796.
1609(41) 0.000586 1234. 1754.
1595(42) 0.000581 1232. 1715.
1572(41) 0.000601 1230. 1680.
1522(40) 0.000619 1228. 1646.
1558(41) 0.000610 1227. 1616.
1537(40) 0.000616 1225. 1590.
1468(39) 0.000654 1223. 1569.
1499(40) 0.000631 1221. 1553.
1462(39) 0.000664 1219. 1541.
1401(38) 0.000685 1217. 1532.
1486(39) 0.000651 1215. 1528.
1443(39) 0.000671 1213. 1525.
1410(38) 0.000693 1211. 1524.
1426(38) 0.000678 1209. 1522.
1469(39) 0.000671 1207. 1521.
1483(39) 0.000657 1205. 1520.
1447(38) 0.000682 1203. 1519.
1447(38) 0.000682 1201. 1517.
1511(39) 0.000654 1199. 1516.
1514(39) 0.000651 1197. 1514.
1466(38) 0.000678 1195. 1512.
1567(40) 0.000631 1194. 1510.
1524(39) 0.000657 1192. 1508.
1580(40) 0.000631 1190. 1506.
1572(40) 0.000634 1188. 1505.
1545(39) 0.000647 1186. 1504.
1700(41) 0.000592 1184. 1503.
1658(41) 0.000604 1182. 1502.
1621(40) 0.000619 1181. 1499.
1715(41) 0.000586 1179. 1496.
1735(42) 0.000581 1177. 1492.
1697(41) 0.000592 1175. 1487.
1731(42) 0.000581 1174. 1484.
1752(42) 0.000575 1172. 1483.
1713(41) 0.000583 1170. 1484.
1733(42) 0.000578 1169. 1490.
1719(41) 0.000586 1167. 1501.
1710(41) 0.000583 1165. 1522.
1732(42) 0.000581 1164. 1548.
1721(41) 0.000586 1162. 1581.
1773(42) 0.000562 1161. 1623.
1866(43) 0.000538 1159. 1671.
1761(42) 0.000572 1158. 1725.
1987(45) 0.000503 1157. 1782.
2034(45) 0.000496 1155. 1840.
2195(47) 0.000459 1154. 1895.
2257(48) 0.000443 1153. 1942.
2335(48) 0.000432 1151. 1979.
2268(48) 0.000443 1150. 2001.
2372(49) 0.000422 1149. 2008.
2214(47) 0.000457 1148. 2001.
2219(47) 0.000453 1147. 1986.
2003(45) 0.000500 1146. 1966.
2045(45) 0.000494 1145. 1946.
1872(43) 0.000536 1144. 1928.
1859(43) 0.000538 1143. 1916.
1689(41) 0.000601 1142. 1909.
1832(43) 0.000546 1142. 1909.
1784(42) 0.000564 1141. 1911.
1857(43) 0.000546 1140. 1919.
1954(44) 0.000514 1140. 1931.
1986(44) 0.000507 1139. 1944.
1966(44) 0.000517 1138. 1957.
1941(44) 0.000517 1138. 1969.
2050(45) 0.000489 1138. 1979.
1971(44) 0.000517 1137. 1986.
1993(44) 0.000507 1137. 1990.
2068(45) 0.000487 1137. 1993.
2045(45) 0.000496 1137. 1992.
1935(44) 0.000524 1136. 1988.
1942(44) 0.000514 1136. 1979.
1893(43) 0.000536 1136. 1966.
1739(41) 0.000583 1136. 1949.
1879(43) 0.000531 1136. 1927.
1825(43) 0.000554 1137. 1903.
1768(42) 0.000575 1137. 1875.
1730(42) 0.000578 1137. 1846.
1705(41) 0.000592 1137. 1815.
1614(40) 0.000628 1138. 1782.
1579(40) 0.000634 1138. 1746.
1609(40) 0.000622 1139. 1708.
1537(39) 0.000657 1139. 1671.
1487(39) 0.000675 1140. 1633.
1451(38) 0.000689 1141. 1597.
1483(38) 0.000678 1141. 1565.
1497(39) 0.000668 1142. 1536.
1485(39) 0.000671 1143. 1513.
1490(38) 0.000678 1144. 1496.
1451(38) 0.000689 1145. 1485.
1412(38) 0.000704 1146. 1481.
1469(38) 0.000678 1147. 1484.
1451(38) 0.000689 1148. 1494.
1492(39) 0.000661 1149. 1512.
1521(39) 0.000654 1150. 1537.
1479(39) 0.000671 1152. 1568.
1445(38) 0.000682 1153. 1607.
1486(39) 0.000664 1154. 1652.
1598(40) 0.000619 1156. 1702.
1694(42) 0.000572 1157. 1756.
1689(41) 0.000583 1159. 1813.
1744(43) 0.000554 1160. 1870.
1803(43) 0.000538 1162. 1924.
1866(44) 0.000514 1164. 1973.
2023(46) 0.000479 1165. 2013.
2107(47) 0.000451 1167. 2041.
2135(47) 0.000449 1169. 2055.
2118(47) 0.000445 1171. 2053.
2113(47) 0.000449 1173. 2035.
2017(46) 0.000464 1175. 2005.
1941(45) 0.000487 1177. 1964.
1895(45) 0.000492 1179. 1919.
1894(45) 0.000494 1181. 1872.
1729(43) 0.000533 1183. 1828.
1690(43) 0.000551 1185. 1789.
1654(42) 0.000559 1187. 1756.
1602(42) 0.000575 1189. 1731.
1606(42) 0.000570 1192. 1712.
1682(43) 0.000551 1194. 1700.
1634(42) 0.000556 1196. 1693.
1634(42) 0.000562 1199. 1689.
1658(43) 0.000551 1201. 1687.
1660(43) 0.000546 1203. 1687.
1657(43) 0.000548 1206. 1686.
1696(43) 0.000538 1208. 1686.
1669(43) 0.000548 1211. 1687.
1714(43) 0.000531 1213. 1690.
1710(43) 0.000538 1216. 1695.
1690(43) 0.000541 1218. 1703.
1819(45) 0.000505 1221. 1714.
1785(44) 0.000517 1223. 1727.
1955(46) 0.000473 1226. 1743.
1948(46) 0.000471 1228. 1759.
1912(45) 0.000494 1231. 1773.
1969(46) 0.000471 1234. 1785.
1981(46) 0.000473 1236. 1792.
1977(46) 0.000477 1239. 1793.
2004(46) 0.000473 1241. 1788.
1902(45) 0.000492 1244. 1778.
1909(45) 0.000503 1247. 1763.
1923(45) 0.000494 1249. 1744.
1845(44) 0.000519 1252. 1725.
1825(44) 0.000526 1254. 1706.
1766(43) 0.000554 1257. 1688.
1767(43) 0.000543 1260. 1674.
1705(42) 0.000575 1262. 1663.
1729(42) 0.000564 1265. 1657.
1816(43) 0.000538 1267. 1656.
1639(41) 0.000598 1270. 1660.
1674(41) 0.000595 1273. 1669.
1674(41) 0.000583 1275. 1684.
1693(41) 0.000592 1278. 1703.
1689(41) 0.000589 1280. 1726.
1751(42) 0.000570 1283. 1754.
1701(41) 0.000589 1285. 1784.
1811(42) 0.000556 1287. 1817.
1735(42) 0.000575 1290. 1850.
1880(43) 0.000536 1292. 1883.
1953(44) 0.000517 1295. 1912.
2103(46) 0.000479 1297. 1939.
2048(45) 0.000492 1299. 1957.
2044(45) 0.000496 1301. 1966.
2018(45) 0.000498 1304. 1966.
2034(45) 0.000496 1306. 1959.
1984(44) 0.000512 1308. 1944.
1873(43) 0.000543 1310. 1926.
1794(42) 0.000562 1312. 1904.
1775(42) 0.000570 1314. 1882.
1748(41) 0.000583 1316. 1860.
1674(41) 0.000604 1318. 1840.
1612(40) 0.000628 1320. 1823.
1720(41) 0.000595 1322. 1809.
1631(40) 0.000622 1324. 1798.
1683(41) 0.000601 1326. 1790.
1671(40) 0.000613 1328. 1785.
1642(40) 0.000616 1329. 1781.
1654(41) 0.000610 1331. 1778.
1729(41) 0.000589 1333. 1778.
1711(41) 0.000592 1334. 1780.
1710(41) 0.000592 1336. 1786.
1639(40) 0.000622 1337. 1796.
1675(41) 0.000604 1339. 1812.
1733(41) 0.000583 1340. 1833.
1641(40) 0.000622 1342. 1861.
1782(42) 0.000570 1343. 1896.
1793(42) 0.000559 1344. 1938.
1838(43) 0.000554 1345. 1988.
1969(44) 0.000519 1346. 2044.
2023(45) 0.000496 1347. 2105.
2217(47) 0.000460 1348. 2170.
2319(48) 0.000440 1349. 2235.
2542(50) 0.000397 1350. 2299.
2663(51) 0.000383 1351. 2356.
2813(53) 0.000363 1352. 2405.
2872(53) 0.0003507 1353. 2440.
2922(54) 0.0003494 1353. 2460.
2961(54) 0.0003442 1354. 2462.
2825(53) 0.000357 1355. 2446.
2689(51) 0.000380 1355. 2414.
2457(49) 0.000411 1355. 2369.
2396(49) 0.000422 1356. 2316.
2267(47) 0.000453 1356. 2258.
2168(46) 0.000466 1356. 2198.
2104(45) 0.000485 1357. 2138.
1996(44) 0.000514 1357. 2082.
1953(51) 0.000389 1357. 2031.
1871(43) 0.000546 1357. 1984.
1953(50) 0.000394 1357. 1943.
2002(51) 0.000379 1357. 1906.
1900(43) 0.000548 1357. 1873.
1883(50) 0.000408 1357. 1843.
1818(49) 0.000413 1356. 1816.
1824(42) 0.000572 1356. 1790.
1828(49) 0.000415 1356. 1767.
1687(47) 0.000445 1356. 1747.
1721(41) 0.000598 1355. 1730.
1666(47) 0.000455 1355. 1716.
1758(49) 0.000418 1354. 1706.
1686(41) 0.000610 1353. 1700.
1688(48) 0.000441 1353. 1698.
1746(49) 0.000420 1352. 1701.
1683(41) 0.000598 1351. 1709.
1708(48) 0.000436 1351. 1722.
1705(49) 0.000423 1350. 1741.
1739(42) 0.000581 1349. 1765.
1789(50) 0.000403 1348. 1795.
1852(51) 0.000389 1347. 1831.
1842(43) 0.000536 1346. 1872.
1798(50) 0.000402 1345. 1919.
1893(45) 0.000505 1344. 1970.
1975(45) 0.000500 1343. 2024.
2129(47) 0.000445 1342. 2080.
2259(49) 0.000422 1340. 2135.
2391(50) 0.000397 1339. 2187.
2505(51) 0.000379 1338. 2232.
2705(54) 0.0003455 1337. 2267.
2563(52) 0.000370 1335. 2288.
2688(54) 0.0003455 1334. 2294.
2756(54) 0.0003392 1332. 2285.
2519(52) 0.000371 1331. 2261.
2319(50) 0.000400 1330. 2227.
2331(50) 0.000397 1328. 2185.
2100(47) 0.000445 1326. 2139.
2061(47) 0.000445 1325. 2091.
1999(47) 0.000462 1323. 2044.
1926(46) 0.000481 1322. 1999.
1909(46) 0.000481 1320. 1958.
1898(45) 0.000485 1318. 1921.
1947(46) 0.000477 1317. 1887.
1828(45) 0.000503 1315. 1856.
1814(44) 0.000507 1313. 1827.
1803(44) 0.000510 1312. 1799.
1871(45) 0.000489 1310. 1772.
1656(42) 0.000559 1308. 1745.
1628(42) 0.000564 1307. 1718.
1703(43) 0.000546 1305. 1692.
1589(41) 0.000583 1303. 1668.
1486(40) 0.000625 1301. 1647.
1564(41) 0.000598 1299. 1628.
1613(41) 0.000583 1298. 1613.
1549(41) 0.000601 1296. 1601.
1540(40) 0.000619 1294. 1593.
1507(40) 0.000625 1292. 1589.
1530(40) 0.000622 1290. 1589.
1588(41) 0.000601 1289. 1593.
1554(40) 0.000619 1287. 1600.
1596(41) 0.000595 1285. 1610.
1577(40) 0.000619 1283. 1622.
1591(41) 0.000604 1281. 1637.
1683(42) 0.000578 1280. 1651.
1588(40) 0.000613 1278. 1664.
1641(41) 0.000601 1276. 1676.
1708(42) 0.000570 1274. 1682.
1708(41) 0.000586 1273. 1691.
1674(41) 0.000589 1271. 1698.
1625(40) 0.000616 1269. 1704.
1703(41) 0.000586 1268. 1710.
1637(40) 0.000616 1266. 1716.
1663(41) 0.000601 1264. 1724.
1695(41) 0.000598 1263. 1731.
1685(41) 0.000598 1261. 1739.
1643(40) 0.000619 1259. 1747.
1785(42) 0.000570 1258. 1753.
1636(40) 0.000628 1256. 1758.
1683(41) 0.000604 1255. 1759.
1795(42) 0.000572 1253. 1757.
1699(41) 0.000604 1252. 1751.
1655(40) 0.000622 1250. 1742.
1748(41) 0.000586 1249. 1730.
1669(40) 0.000619 1248. 1714.
1698(41) 0.000607 1246. 1696.
1608(40) 0.000641 1245. 1677.
1662(40) 0.000622 1244. 1657.
1547(39) 0.000671 1242. 1637.
1548(39) 0.000664 1241. 1617.
1467(38) 0.000704 1240. 1599.
1452(37) 0.000715 1239. 1581.
1470(38) 0.000700 1237. 1565.
1580(39) 0.000654 1236. 1551.
1464(38) 0.000711 1235. 1538.
1502(38) 0.000685 1234. 1527.
1512(38) 0.000682 1233. 1517.
1437(37) 0.000723 1232. 1508.
1440(38) 0.000711 1231. 1501.
1551(39) 0.000668 1230. 1494.
1483(38) 0.000700 1229. 1489.
1484(38) 0.000689 1229. 1485.
1412(37) 0.000727 1228. 1481.
1436(37) 0.000723 1227. 1478.
1585(39) 0.000647 1226. 1477.
1451(38) 0.000707 1226. 1476.
1547(39) 0.000664 1225. 1476.
1451(38) 0.000707 1224. 1476.
1535(39) 0.000668 1224. 1477.
1492(38) 0.000689 1223. 1478.
1434(37) 0.000715 1223. 1478.
1458(38) 0.000704 1222. 1478.
1548(39) 0.000661 1222. 1477.
1551(39) 0.000661 1222. 1476.
1536(39) 0.000664 1221. 1473.
1496(38) 0.000685 1221. 1471.
1523(39) 0.000668 1221. 1468.
1552(39) 0.000657 1220. 1466.
1557(39) 0.000654 1220. 1464.
1509(39) 0.000675 1220. 1462.
1457(38) 0.000696 1220. 1460.
1505(39) 0.000675 1220. 1459.
1515(39) 0.000671 1220. 1457.
1587(40) 0.000638 1220. 1457.
1579(40) 0.000641 1220. 1456.
1562(39) 0.000651 1220. 1455.
1498(38) 0.000678 1220. 1455.
1523(39) 0.000664 1220. 1455.
1536(39) 0.000657 1220. 1456.
1526(39) 0.000664 1220. 1459.
1467(38) 0.000689 1220. 1462.
1510(39) 0.000668 1221. 1466.
1481(38) 0.000685 1221. 1472.
1496(39) 0.000675 1221. 1480.
1563(39) 0.000644 1222. 1489.
1454(38) 0.000696 1222. 1500.
1528(39) 0.000657 1222. 1514.
1577(40) 0.000638 1223. 1530.
1636(40) 0.000616 1223. 1549.
1600(40) 0.000628 1224. 1571.
1646(41) 0.000610 1224. 1596.
1588(40) 0.000634 1225. 1623.
1596(40) 0.000625 1225. 1653.
1670(41) 0.000601 1226. 1686.
1778(42) 0.000562 1226. 1719.
1778(42) 0.000562 1227. 1752.
1833(43) 0.000541 1228. 1783.
1958(44) 0.000510 1228. 1811.
1916(44) 0.000512 1229. 1835.
2017(45) 0.000492 1230. 1853.
1904(44) 0.000512 1230. 1864.
1954(45) 0.000503 1231. 1867.
1884(44) 0.000517 1232. 1865.
1860(44) 0.000524 1232. 1856.
1789(43) 0.000536 1233. 1842.
1685(42) 0.000578 1234. 1824.
1802(44) 0.000526 1235. 1803.
1676(42) 0.000572 1236. 1781.
1683(42) 0.000564 1236. 1759.
1644(42) 0.000578 1237. 1738.
1649(42) 0.000570 1238. 1718.
1632(41) 0.000583 1239. 1701.
1596(41) 0.000586 1240. 1686.
1687(42) 0.000556 1240. 1674.
1629(42) 0.000578 1241. 1664.
1608(42) 0.000581 1242. 1658.
1667(42) 0.000562 1243. 1653.
1665(42) 0.000564 1244. 1651.
1609(42) 0.000575 1245. 1651.
1689(43) 0.000554 1246. 1652.
1647(42) 0.000570 1246. 1653.
1650(42) 0.000562 1247. 1655.
1685(43) 0.000554 1248. 1655.
1651(42) 0.000567 1249. 1655.
1739(43) 0.000538 1250. 1653.
1682(43) 0.000554 1251. 1649.
1676(42) 0.000567 1251. 1643.
1665(42) 0.000562 1252. 1636.
1677(42) 0.000567 1253. 1629.
1582(41) 0.000598 1254. 1621.
1698(42) 0.000562 1255. 1615.
1675(42) 0.000567 1255. 1609.
1666(41) 0.000583 1256. 1603.
1629(41) 0.000583 1257. 1599.
1651(41) 0.000592 1258. 1596.
1646(41) 0.000589 1259. 1592.
1588(40) 0.000619 1259. 1589.
1668(41) 0.000586 1260. 1587.
1633(41) 0.000610 1261. 1584.
1585(40) 0.000619 1261. 1581.
1575(40) 0.000634 1262. 1578.
1485(39) 0.000671 1263. 1575.
1504(39) 0.000671 1263. 1572.
1506(39) 0.000664 1264. 1569.
1502(38) 0.000678 1265. 1567.
1530(39) 0.000661 1265. 1566.
1518(39) 0.000675 1266. 1565.
1501(38) 0.000678 1266. 1566.
1471(38) 0.000700 1267. 1568.
1536(39) 0.000668 1267. 1571.
1536(39) 0.000671 1268. 1575.
1492(38) 0.000693 1268. 1582.
1522(38) 0.000685 1269. 1589.
1571(39) 0.000657 1269. 1597.
1560(39) 0.000664 1270. 1605.
1558(39) 0.000668 1270. 1615.
1669(40) 0.000619 1271. 1624.
1615(40) 0.000641 1271. 1634.
1663(40) 0.000628 1271. 1643.
1647(40) 0.000628 1272. 1652.
1708(40) 0.000613 1272. 1661.
1761(41) 0.000592 1272. 1669.
1711(41) 0.000604 1272. 1676.
1707(40) 0.000613 1273. 1683.
1721(41) 0.000607 1273. 1689.
1644(40) 0.000628 1273. 1693.
1660(40) 0.000625 1273. 1697.
1678(40) 0.000622 1273. 1700.
1616(40) 0.000638 1274. 1703.
1622(40) 0.000638 1274. 1704.
1650(40) 0.000628 1274. 1706.
1562(39) 0.000661 1274. 1706.
1648(40) 0.000625 1274. 1705.
1662(40) 0.000625 1274. 1704.
1671(40) 0.000613 1274. 1701.
1580(39) 0.000651 1274. 1698.
1639(40) 0.000631 1274. 1694.
1674(41) 0.000610 1274. 1689.
1640(40) 0.000622 1274. 1683.
1545(39) 0.000668 1274. 1677.
1673(41) 0.000610 1274. 1672.
1682(41) 0.000607 1274. 1666.
1581(39) 0.000651 1274. 1661.
1594(40) 0.000641 1273. 1657.
1637(40) 0.000616 1273. 1655.
1617(40) 0.000634 1273. 1653.
1660(40) 0.000613 1273. 1653.
1638(40) 0.000616 1273. 1653.
1614(40) 0.000631 1273. 1652.
1742(41) 0.000583 1272. 1652.
1666(41) 0.000604 1272. 1652.
1656(40) 0.000616 1272. 1651.
1576(39) 0.000644 1272. 1650.
1689(41) 0.000595 1271. 1649.
1688(41) 0.000604 1271. 1647.
1645(40) 0.000619 1271. 1644.
1615(40) 0.000628 1271. 1641.
1669(40) 0.000613 1270. 1638.
1713(41) 0.000595 1270. 1634.
1732(41) 0.000586 1270. 1631.
1666(41) 0.000610 1269. 1628.
1691(41) 0.000601 1269. 1624.
1669(40) 0.000613 1269. 1621.
1726(41) 0.000589 1268. 1619.
1657(40) 0.000616 1268. 1618.
1638(40) 0.000625 1268. 1618.
1679(41) 0.000610 1267. 1620.
1673(41) 0.000610 1267. 1624.
1612(40) 0.000638 1267. 1631.
1614(40) 0.000634 1266. 1641.
1727(41) 0.000592 1266. 1653.
1662(40) 0.000619 1266. 1668.
1780(42) 0.000578 1265. 1685.
1792(42) 0.000572 1265. 1705.
1724(41) 0.000598 1265. 1726.
1834(42) 0.000562 1264. 1747.
1868(43) 0.000548 1264. 1768.
1984(44) 0.000521 1264. 1788.
2007(44) 0.000514 1264. 1806.
1876(43) 0.000546 1263. 1821.
1994(44) 0.000514 1263. 1832.
1793(42) 0.000575 1263. 1839.
1782(42) 0.000570 1263. 1844.
1790(42) 0.000575 1262. 1845.
1762(42) 0.000578 1262. 1844.
1869(43) 0.000543 1262. 1842.
1830(43) 0.000546 1262. 1838.
1747(41) 0.000583 1262. 1833.
1767(42) 0.000562 1261. 1827.
1834(43) 0.000546 1261. 1821.
1819(43) 0.000546 1261. 1813.
1747(42) 0.000567 1261. 1806.
1800(43) 0.000543 1261. 1797.
1771(42) 0.000562 1261. 1788.
1782(43) 0.000543 1261. 1779.
1737(42) 0.000562 1261. 1768.
1719(42) 0.000559 1261. 1758.
1731(42) 0.000562 1261. 1748.
1727(43) 0.000551 1261. 1739.
1705(42) 0.000564 1261. 1730.
1737(43) 0.000548 1261. 1723.
1705(42) 0.000559 1261. 1719.
1769(43) 0.000531 1261. 1714.
1776(43) 0.000536 1261. 1711.
1731(43) 0.000541 1261. 1709.
1739(43) 0.000538 1262. 1708.
1757(43) 0.000536 1262. 1707.
1801(44) 0.000519 1262. 1706.
1812(44) 0.000507 1262. 1706.
1777(44) 0.000528 1263. 1706.
1769(43) 0.000533 1263. 1705.
1778(44) 0.000517 1263. 1705.
1744(43) 0.000541 1264. 1704.
1732(43) 0.000543 1264. 1704.
1745(43) 0.000531 1265. 1705.
1800(44) 0.000524 1265. 1705.
1781(43) 0.000531 1266. 1706.
1684(43) 0.000548 1266. 1707.
1785(43) 0.000533 1267. 1708.
1784(43) 0.000531 1267. 1709.
1785(44) 0.000528 1268. 1709.
1762(43) 0.000541 1269. 1708.
1818(44) 0.000528 1269. 1708.
1787(44) 0.000528 1270. 1707.
1809(43) 0.000538 1271. 1707.
1757(43) 0.000548 1271. 1707.
1741(43) 0.000554 1272. 1709.
1717(42) 0.000567 1273. 1712.
1795(43) 0.000548 1274. 1717.
1732(43) 0.000554 1275. 1724.
1767(42) 0.000562 1276. 1735.
1761(42) 0.000562 1277. 1749.
1735(42) 0.000575 1278. 1766.
1748(42) 0.000567 1279. 1786.
1818(43) 0.000551 1280. 1810.
1784(42) 0.000559 1281. 1838.
1839(43) 0.000551 1282. 1869.
1833(43) 0.000546 1283. 1902.
1941(44) 0.000524 1284. 1937.
1992(44) 0.000510 1285. 1973.
1908(43) 0.000533 1286. 2009.
1949(44) 0.000521 1287. 2045.
1955(44) 0.000524 1289. 2080.
2013(44) 0.000507 1290. 2112.
2005(44) 0.000512 1291. 2142.
2043(45) 0.000500 1293. 2168.
2097(45) 0.000487 1294. 2192.
2114(45) 0.000485 1295. 2212.
2178(46) 0.000471 1297. 2227.
2186(46) 0.000469 1298. 2238.
2234(47) 0.000462 1299. 2244.
2169(46) 0.000473 1301. 2245.
2159(46) 0.000473 1302. 2240.
2113(45) 0.000487 1304. 2232.
2131(46) 0.000481 1305. 2220.
1982(44) 0.000514 1307. 2206.
1933(43) 0.000531 1308. 2190.
1932(43) 0.000531 1310. 2175.
1992(44) 0.000514 1312. 2159.
1904(43) 0.000538 1313. 2144.
1962(44) 0.000521 1315. 2131.
2025(45) 0.000505 1316. 2118.
2069(45) 0.000496 1318. 2104.
2063(45) 0.000496 1320. 2091.
2221(47) 0.000457 1321. 2076.
2147(46) 0.000479 1323. 2060.
2165(46) 0.000473 1325. 2042.
2167(46) 0.000469 1327. 2021.
2077(45) 0.000496 1328. 1999.
2050(45) 0.000498 1330. 1976.
2040(45) 0.000500 1332. 1952.
1934(43) 0.000533 1333. 1927.
1814(42) 0.000567 1335. 1903.
1783(42) 0.000572 1337. 1880.
1814(42) 0.000567 1339. 1859.
1795(42) 0.000572 1340. 1839.
1742(41) 0.000589 1342. 1822.
1836(42) 0.000562 1344. 1806.
1796(42) 0.000575 1346. 1792.
1731(41) 0.000592 1348. 1780.
1721(41) 0.000604 1349. 1770.
1737(41) 0.000595 1351. 1762.
1700(41) 0.000604 1353. 1755.
1734(41) 0.000598 1355. 1750.
1729(41) 0.000598 1356. 1747.
1777(42) 0.000578 1358. 1746.
1624(40) 0.000641 1360. 1747.
1765(41) 0.000586 1362. 1751.
1791(42) 0.000578 1363. 1756.
1778(41) 0.000583 1365. 1764.
1754(41) 0.000592 1367. 1774.
1732(41) 0.000598 1369. 1786.
1741(41) 0.000598 1370. 1800.
1852(42) 0.000562 1372. 1815.
1822(42) 0.000570 1374. 1833.
1751(41) 0.000595 1376. 1851.
1852(42) 0.000562 1377. 1870.
1918(43) 0.000541 1379. 1889.
1918(43) 0.000543 1380. 1909.
1892(43) 0.000551 1382. 1928.
1980(44) 0.000524 1384. 1946.
1956(43) 0.000533 1385. 1962.
2051(44) 0.000507 1387. 1976.
2098(45) 0.000494 1388. 1989.
2090(45) 0.000496 1390. 1998.
2115(45) 0.000492 1392. 2004.
2248(47) 0.000460 1393. 2006.
2105(45) 0.000492 1395. 2004.
2122(45) 0.000489 1396. 1999.
2113(45) 0.000489 1398. 1991.
2123(46) 0.000481 1399. 1981.
1976(44) 0.000524 1400. 1969.
1907(43) 0.000538 1402. 1956.
1987(44) 0.000512 1403. 1944.
1917(43) 0.000538 1404. 1932.
1869(43) 0.000551 1406. 1922.
1835(43) 0.000554 1407. 1914.
1856(42) 0.000556 1408. 1908.
1911(44) 0.000528 1410. 1904.
1832(43) 0.000554 1411. 1902.
1852(43) 0.000546 1412. 1903.
1896(43) 0.000531 1413. 1906.
1870(43) 0.000531 1414. 1910.
1935(44) 0.000521 1415. 1914.
1984(45) 0.000498 1416. 1920.
2063(46) 0.000481 1417. 1925.
1952(44) 0.000507 1418. 1929.
2053(46) 0.000481 1419. 1933.
2068(46) 0.000469 1420. 1934.
1991(45) 0.000498 1421. 1935.
1987(45) 0.000485 1422. 1933.
1944(45) 0.000500 1423. 1930.
2039(46) 0.000477 1424. 1926.
1956(45) 0.000494 1425. 1921.
1967(45) 0.000489 1426. 1914.
2013(46) 0.000481 1426. 1908.
1954(45) 0.000487 1427. 1901.
1969(45) 0.000487 1428. 1894.
2004(46) 0.000475 1428. 1888.
1971(46) 0.000483 1429. 1882.
1969(46) 0.000481 1430. 1877.
1963(45) 0.000485 1430. 1872.
1994(46) 0.000479 1431. 1868.
2086(47) 0.000455 1431. 1865.
2030(46) 0.000473 1432. 1864.
2021(46) 0.000473 1432. 1863.
1950(45) 0.000489 1433. 1864.
1943(45) 0.000494 1433. 1867.
1952(45) 0.000496 1433. 1872.
1964(45) 0.000487 1434. 1877.
1952(45) 0.000498 1434. 1884.
1907(44) 0.000507 1434. 1893.
1994(45) 0.000489 1434. 1902.
2088(46) 0.000466 1435. 1913.
2018(45) 0.000489 1435. 1924.
1985(45) 0.000492 1435. 1936.
2045(45) 0.000487 1435. 1948.
1980(45) 0.000500 1435. 1960.
2083(46) 0.000479 1435. 1973.
1899(44) 0.000524 1435. 1986.
1985(44) 0.000510 1435. 2000.
1948(44) 0.000512 1435. 2013.
2015(44) 0.000507 1435. 2026.
2078(45) 0.000487 1435. 2040.
1998(44) 0.000507 1435. 2054.
1976(44) 0.000517 1435. 2067.
2054(45) 0.000500 1435. 2081.
2010(45) 0.000505 1435. 2094.
2034(44) 0.000510 1435. 2107.
2050(45) 0.000500 1434. 2119.
2130(46) 0.000483 1434. 2130.
2126(45) 0.000487 1434. 2140.
2272(47) 0.000459 1434. 2147.
2295(47) 0.000447 1433. 2153.
2308(47) 0.000451 1433. 2155.
2330(47) 0.000447 1433. 2155.
2392(48) 0.000436 1432. 2151.
2316(47) 0.000451 1432. 2144.
2258(47) 0.000462 1431. 2134.
2193(46) 0.000475 1431. 2121.
2072(45) 0.000505 1430. 2105.
2088(45) 0.000500 1430. 2088.
1887(43) 0.000551 1429. 2070.
1917(43) 0.000546 1429. 2051.
1842(42) 0.000570 1428. 2033.
1852(42) 0.000562 1428. 2014.
1787(41) 0.000583 1427. 1997.
1751(41) 0.000598 1427. 1980.
1784(41) 0.000589 1426. 1965.
1793(41) 0.000583 1426. 1951.
1756(41) 0.000598 1425. 1938.
1823(42) 0.000575 1424. 1926.
1786(41) 0.000583 1424. 1916.
1791(41) 0.000586 1423. 1907.
1800(41) 0.000586 1422. 1899.
1717(41) 0.000607 1422. 1892.
1752(41) 0.000598 1421. 1886.
1811(41) 0.000583 1420. 1881.
1733(41) 0.000601 1420. 1876.
1787(41) 0.000586 1419. 1873.
1772(41) 0.000595 1418. 1871.
1815(42) 0.000572 1417. 1869.
1822(42) 0.000572 1417. 1869.
1754(41) 0.000601 1416. 1869.
1836(42) 0.000567 1415. 1871.
1782(41) 0.000586 1414. 1873.
1756(41) 0.000598 1414. 1877.
1776(41) 0.000586 1413. 1882.
1748(41) 0.000595 1412. 1887.
1847(42) 0.000567 1411. 1894.
1803(42) 0.000575 1410. 1902.
1868(42) 0.000556 1410. 1911.
1727(41) 0.000604 1409. 1921.
1877(43) 0.000554 1408. 1932.
1838(42) 0.000564 1407. 1943.
1816(42) 0.000575 1406. 1956.
1918(43) 0.000543 1406. 1968.
1955(43) 0.000531 1405. 1981.
1932(43) 0.000538 1404. 1994.
1909(43) 0.000546 1403. 2007.
2021(44) 0.000514 1402. 2019.
1992(44) 0.000521 1402. 2031.
2106(45) 0.000496 1401. 2041.
2078(45) 0.000500 1400. 2049.
2151(46) 0.000481 1399. 2055.
2246(46) 0.000464 1398. 2058.
2266(47) 0.000459 1397. 2058.
2114(45) 0.000489 1397. 2054.
2131(45) 0.000492 1396. 2046.
2106(45) 0.000494 1395. 2035.
2058(45) 0.000505 1394. 2020.
2058(44) 0.000510 1393. 2002.
2039(44) 0.000512 1393. 1983.
2011(44) 0.000517 1392. 1961.
1854(42) 0.000564 1391. 1938.
1909(43) 0.000546 1390. 1915.
1927(43) 0.000541 1389. 1891.
1838(42) 0.000570 1389. 1868.
1859(42) 0.000556 1388. 1846.
1873(42) 0.000556 1387. 1824.
1842(42) 0.000562 1386. 1804.
1786(42) 0.000581 1386. 1785.
1873(43) 0.000551 1385. 1768.
1781(42) 0.000581 1384. 1752.
1809(42) 0.000570 1383. 1738.
1763(41) 0.000583 1382. 1725.
1801(42) 0.000564 1382. 1714.
1805(42) 0.000570 1381. 1705.
1720(41) 0.000586 1380. 1697.
1682(41) 0.000604 1379. 1692.
1667(41) 0.000604 1379. 1687.
1685(41) 0.000598 1378. 1685.
1724(42) 0.000578 1377. 1684.
1701(41) 0.000589 1376. 1685.
1667(41) 0.000589 1376. 1687.
1777(42) 0.000559 1375. 1690.
1664(41) 0.000589 1374. 1694.
1721(42) 0.000570 1374. 1699.
1781(43) 0.000551 1373. 1706.
1779(43) 0.000551 1372. 1712.
1792(43) 0.000541 1371. 1720.
1742(42) 0.000562 1371. 1727.
1727(42) 0.000562 1370. 1734.
1695(42) 0.000572 1369. 1741.
1782(43) 0.000546 1369. 1748.
1784(43) 0.000543 1368. 1754.
1799(43) 0.000536 1367. 1759.
1809(43) 0.000536 1366. 1764.
1817(44) 0.000526 1366. 1768.
1880(44) 0.000512 1365. 1770.
1910(44) 0.000512 1364. 1773.
1781(43) 0.000538 1364. 1774.
1882(44) 0.000519 1363. 1775.
1872(44) 0.000521 1362. 1776.
1759(43) 0.000554 1362. 1776.
1946(45) 0.000503 1361. 1776.
1874(44) 0.000528 1360. 1776.
1865(44) 0.000521 1359. 1776.
1827(43) 0.000548 1359. 1776.
1883(44) 0.000526 1358. 1775.
1878(44) 0.000528 1357. 1774.
1862(43) 0.000536 1357. 1772.
1843(43) 0.000548 1356. 1771.
1869(43) 0.000533 1355. 1769.
1835(42) 0.000556 1355. 1767.
1912(44) 0.000528 1354. 1764.
1791(42) 0.000570 1353. 1762.
1792(42) 0.000570 1352. 1760.
1741(41) 0.000598 1352. 1758.
1776(42) 0.000575 1351. 1756.
1792(41) 0.000583 1350. 1754.
1748(41) 0.000595 1349. 1752.
1876(42) 0.000559 1349. 1750.
1815(42) 0.000575 1348. 1748.
1803(41) 0.000583 1347. 1745.
1731(41) 0.000607 1346. 1742.
1750(41) 0.000607 1346. 1739.
1734(41) 0.000607 1345. 1736.
1746(41) 0.000610 1344. 1733.
1702(40) 0.000622 1343. 1729.
1679(40) 0.000631 1343. 1726.
1652(39) 0.000644 1342. 1722.
1710(40) 0.000622 1341. 1719.
1771(41) 0.000601 1340. 1716.
1733(40) 0.000619 1339. 1713.
1765(41) 0.000604 1338. 1710.
1796(41) 0.000592 1338. 1707.
1616(39) 0.000661 1337. 1705.
1676(40) 0.000631 1336. 1703.
1744(41) 0.000610 1335. 1700.
1708(40) 0.000622 1334. 1698.
1647(39) 0.000644 1333. 1696.
1747(41) 0.000607 1332. 1694.
1713(40) 0.000622 1332. 1692.
1813(41) 0.000583 1331. 1690.
1768(41) 0.000601 1330. 1688.
1702(40) 0.000625 1329. 1686.
1815(41) 0.000583 1328. 1684.
1796(41) 0.000589 1327. 1682.
1642(39) 0.000647 1326. 1679.
1685(40) 0.000628 1325. 1675.
1718(40) 0.000616 1324. 1672.
1579(39) 0.000668 1323. 1668.
1601(39) 0.000661 1322. 1664.
1659(40) 0.000638 1321. 1660.
1611(39) 0.000654 1320. 1655.
1634(39) 0.000644 1319. 1651.
1629(39) 0.000647 1318. 1647.
1577(39) 0.000664 1317. 1644.
1643(40) 0.000641 1316. 1641.
1575(39) 0.000671 1315. 1639.
1510(38) 0.000693 1314. 1637.
1600(39) 0.000657 1313. 1636.
1557(38) 0.000678 1312. 1636.
1527(38) 0.000689 1311. 1637.
1525(38) 0.000693 1310. 1638.
1565(39) 0.000675 1309. 1640.
1589(39) 0.000661 1307. 1643.
1516(38) 0.000696 1306. 1646.
1556(38) 0.000678 1305. 1650.
1521(38) 0.000689 1304. 1654.
1581(39) 0.000668 1303. 1658.
1660(40) 0.000638 1302. 1664.
1586(39) 0.000661 1301. 1669.
1549(38) 0.000678 1300. 1674.
1587(39) 0.000664 1298. 1678.
1619(39) 0.000647 1297. 1683.
1693(40) 0.000619 1296. 1687.
1721(40) 0.000613 1295. 1691.
1677(40) 0.000625 1294. 1693.
1780(41) 0.000589 1292. 1696.
1659(40) 0.000634 1291. 1697.
1755(41) 0.000601 1290. 1697.
1642(40) 0.000638 1289. 1696.
1602(39) 0.000654 1288. 1695.
1599(39) 0.000657 1286. 1692.
1652(40) 0.000634 1285. 1688.
1605(39) 0.000651 1284. 1683.
1623(39) 0.000647 1283. 1678.
1634(40) 0.000641 1281. 1673.
1616(39) 0.000644 1280. 1666.
1530(38) 0.000685 1279. 1659.
1614(39) 0.000644 1278. 1652.
1613(39) 0.000647 1276. 1645.
1608(39) 0.000651 1275. 1637.
1560(39) 0.000668 1274. 1629.
1544(39) 0.000668 1273. 1621.
1506(38) 0.000693 1271. 1613.
1572(39) 0.000654 1270. 1604.
1592(39) 0.000647 1269. 1595.
1518(38) 0.000678 1268. 1587.
1602(39) 0.000644 1266. 1578.
1561(39) 0.000651 1265. 1569.
1496(38) 0.000689 1264. 1561.
1482(38) 0.000682 1263. 1553.
1529(39) 0.000664 1261. 1546.
1493(39) 0.000675 1260. 1538.
1458(38) 0.000696 1259. 1532.
1578(40) 0.000631 1258. 1525.
1470(38) 0.000685 1257. 1519.
1502(39) 0.000661 1255. 1514.
1496(39) 0.000668 1254. 1508.
1523(39) 0.000647 1253. 1504.
1519(39) 0.000651 1252. 1499.
1552(40) 0.000634 1250. 1495.
1509(39) 0.000654 1249. 1492.
1489(39) 0.000654 1248. 1488.
1499(39) 0.000657 1247. 1486.
1552(40) 0.000628 1246. 1483.
1485(39) 0.000654 1245. 1481.
1557(40) 0.000625 1243. 1479.
1534(40) 0.000634 1242. 1478.
1454(39) 0.000664 1241. 1476.
1584(40) 0.000616 1240. 1475.
1565(40) 0.000619 1239. 1475.
1502(39) 0.000644 1238. 1474.
1478(39) 0.000661 1237. 1474.
1511(40) 0.000641 1236. 1474.
1579(40) 0.000616 1234. 1473.
1611(41) 0.000604 1233. 1474.
1518(39) 0.000647 1232. 1474.
1574(40) 0.000619 1231. 1474.
1493(39) 0.000664 1230. 1475.
1540(40) 0.000638 1229. 1475.
1536(39) 0.000644 1228. 1476.
1521(39) 0.000651 1227. 1478.
1510(39) 0.000661 1226. 1479.
1473(39) 0.000671 1225. 1481.
1534(39) 0.000657 1224. 1484.
1475(38) 0.000678 1223. 1487.
1532(39) 0.000661 1222. 1490.
1560(39) 0.000644 1221. 1493.
1508(38) 0.000682 1221. 1497.
1549(39) 0.000654 1220. 1500.
1522(38) 0.000678 1219. 1504.
1499(38) 0.000685 1218. 1508.
1538(39) 0.000671 1217. 1513.
1558(39) 0.000661 1216. 1517.
1546(38) 0.000682 1215. 1522.
1610(40) 0.000641 1215. 1527.
1526(38) 0.000693 1214. 1533.
1468(37) 0.000719 1213. 1539.
1569(39) 0.000671 1212. 1545.
1517(38) 0.000696 1212. 1552.
1566(38) 0.000682 1211. 1559.
1564(39) 0.000675 1210. 1566.
1562(38) 0.000682 1209. 1574.
1660(40) 0.000641 1209. 1582.
1682(40) 0.000634 1208. 1591.
1596(39) 0.000668 1207. 1600.
1693(40) 0.000634 1207. 1609.
1645(39) 0.000651 1206. 1618.
1658(39) 0.000647 1206. 1628.
1703(40) 0.000631 1205. 1637.
1719(40) 0.000628 1204. 1647.
1728(40) 0.000619 1204. 1657.
1682(40) 0.000638 1203. 1667.
1706(40) 0.000634 1203. 1676.
1720(40) 0.000625 1202. 1686.
1698(40) 0.000631 1202. 1695.
1750(40) 0.000622 1201. 1704.
1678(40) 0.000641 1201. 1712.
1715(40) 0.000628 1200. 1719.
1706(40) 0.000638 1200. 1726.
1738(40) 0.000622 1200. 1732.
1812(41) 0.000595 1199. 1736.
1843(41) 0.000592 1199. 1739.
1838(41) 0.000586 1198. 1741.
1753(40) 0.000616 1198. 1741.
1762(40) 0.000619 1198. 1740.
1762(40) 0.000613 1197. 1737.
1814(41) 0.000592 1197. 1734.
1696(40) 0.000641 1197. 1729.
1768(41) 0.000610 1196. 1723.
1683(39) 0.000644 1196. 1717.
1656(39) 0.000657 1196. 1710.
1714(40) 0.000631 1195. 1703.
1620(39) 0.000668 1195. 1695.
1633(39) 0.000661 1195. 1688.
1626(39) 0.000668 1195. 1680.
1628(39) 0.000664 1194. 1673.
1612(39) 0.000668 1194. 1666.
1563(38) 0.000693 1194. 1660.
1599(39) 0.000675 1194. 1654.
1650(39) 0.000651 1193. 1648.
1585(38) 0.000682 1193. 1643.
1656(39) 0.000647 1193. 1639.
1692(40) 0.000638 1193. 1635.
1600(45) 0.000505 1193. 1631.
1642(39) 0.000654 1192. 1628.
1683(40) 0.000634 1192. 1625.
1623(45) 0.000498 1192. 1623.
1654(39) 0.000644 1192. 1621.
1638(39) 0.000654 1192. 1619.
1636(45) 0.000489 1192. 1618.
1657(39) 0.000644 1191. 1618.
1638(39) 0.000647 1191. 1618.
1667(46) 0.000481 1191. 1618.
1558(38) 0.000678 1191. 1619.
1570(38) 0.000678 1191. 1620.
1644(46) 0.000481 1191. 1621.
1600(39) 0.000661 1191. 1624.
1539(38) 0.000685 1190. 1626.
1613(45) 0.000489 1190. 1629.
1580(39) 0.000664 1190. 1632.
1679(40) 0.000628 1190. 1636.
1599(45) 0.000487 1190. 1640.
1614(39) 0.000651 1190. 1644.
1657(40) 0.000628 1190. 1648.
1677(46) 0.000466 1189. 1653.
1633(40) 0.000638 1189. 1657.
1638(40) 0.000634 1189. 1662.
1675(40) 0.000619 1189. 1666.
1641(40) 0.000634 1189. 1670.
1687(41) 0.000610 1189. 1674.
1715(41) 0.000604 1189. 1677.
1752(41) 0.000586 1188. 1680.
1658(40) 0.000622 1188. 1684.
1694(41) 0.000601 1188. 1686.
1637(40) 0.000628 1188. 1689.
1663(40) 0.000613 1188. 1691.
1673(41) 0.000607 1187. 1694.
1737(42) 0.000581 1187. 1696.
1729(41) 0.000589 1187. 1697.
1685(41) 0.000595 1187. 1699.
1719(41) 0.000586 1187. 1700.
1717(41) 0.000583 1186. 1700.
1760(42) 0.000570 1186. 1700.
1777(42) 0.000556 1186. 1700.
1793(42) 0.000559 1186. 1699.
1733(42) 0.000567 1185. 1698.
1748(42) 0.000564 1185. 1696.
1766(42) 0.000556 1185. 1693.
1670(41) 0.000586 1184. 1690.
1746(42) 0.000559 1184. 1687.
1686(41) 0.000583 1184. 1682.
1635(41) 0.000592 1183. 1678.
1740(42) 0.000559 1183. 1673.
1595(40) 0.000613 1183. 1667.
1638(41) 0.000589 1182. 1661.
1558(40) 0.000619 1182. 1655.
1625(41) 0.000601 1182. 1649.
1642(41) 0.000589 1181. 1642.
1516(40) 0.000634 1181. 1636.
1530(40) 0.000634 1180. 1629.
1598(41) 0.000607 1180. 1622.
1488(39) 0.000654 1179. 1615.
1529(40) 0.000634 1179. 1608.
1553(40) 0.000631 1179. 1602.
1560(40) 0.000625 1178. 1595.
1484(39) 0.000664 1178. 1589.
1537(40) 0.000638 1177. 1582.
1556(40) 0.000638 1177. 1576.
1584(40) 0.000622 1176. 1570.
1490(39) 0.000671 1175. 1564.
1527(39) 0.000647 1175. 1559.
1508(39) 0.000671 1174. 1553.
1433(38) 0.000696 1174. 1548.
1439(38) 0.000704 1173. 1543.
1477(38) 0.000685 1173. 1539.
1449(38) 0.000711 1172. 1535.
1449(38) 0.000696 1171. 1531.
1427(37) 0.000727 1171. 1528.
1457(38) 0.000707 1170. 1525.
1462(38) 0.000711 1170. 1523.
1486(38) 0.000700 1169. 1522.
1423(37) 0.000734 1168. 1520.
1471(38) 0.000707 1168. 1520.
1469(37) 0.000723 1167. 1520.
1502(38) 0.000696 1166. 1521.
1493(38) 0.000704 1165. 1523.
1517(38) 0.000700 1165. 1525.
1471(37) 0.000723 1164. 1528.
1452(37) 0.000723 1163. 1532.
1441(37) 0.000742 1163. 1536.
1601(39) 0.000664 1162. 1541.
1533(38) 0.000689 1161. 1546.
1521(38) 0.000704 1160. 1551.
1589(39) 0.000671 1160. 1557.
1595(39) 0.000664 1159. 1563.
1577(38) 0.000682 1158. 1570.
1640(39) 0.000651 1157. 1576.
1669(40) 0.000634 1156. 1582.
1703(40) 0.000631 1156. 1589.
1734(40) 0.000613 1155. 1595.
1672(40) 0.000634 1154. 1600.
1725(40) 0.000622 1153. 1605.
1652(39) 0.000644 1153. 1609.
1713(40) 0.000619 1152. 1613.
1745(40) 0.000616 1151. 1616.
1704(40) 0.000628 1150. 1618.
1709(40) 0.000619 1149. 1619.
1660(39) 0.000647 1148. 1618.
1765(41) 0.000607 1148. 1617.
1707(40) 0.000622 1147. 1615.
1697(40) 0.000631 1146. 1612.
1668(40) 0.000638 1145. 1608.
1617(39) 0.000657 1144. 1604.
1595(38) 0.000678 1144. 1598.
1611(39) 0.000661 1143. 1593.
1624(39) 0.000654 1142. 1586.
1526(38) 0.000707 1141. 1580.
1656(39) 0.000644 1140. 1573.
1611(39) 0.000661 1139. 1567.
1576(38) 0.000682 1139. 1560.
1622(39) 0.000657 1138. 1553.
1569(39) 0.000675 1137. 1547.
1588(38) 0.000678 1136. 1540.
1605(39) 0.000668 1136. 1534.
1537(38) 0.000689 1135. 1529.
1533(38) 0.000700 1134. 1523.
1578(38) 0.000678 1133. 1518.
1552(38) 0.000685 1132. 1513.
1531(38) 0.000700 1132. 1508.
1597(39) 0.000668 1131. 1504.
1539(38) 0.000689 1130. 1500.
1623(39) 0.000654 1130. 1496.
1488(37) 0.000715 1129. 1493.
1585(39) 0.000675 1128. 1489.
1481(37) 0.000719 1127. 1486.
1541(38) 0.000689 1127. 1484.
1513(38) 0.000707 1126. 1482.
1557(38) 0.000685 1125. 1480.
1481(37) 0.000715 1125. 1479.
1461(37) 0.000730 1124. 1477.
1481(37) 0.000719 1123. 1477.
1466(37) 0.000723 1123. 1477.
1494(37) 0.000715 1122. 1477.
1547(38) 0.000689 1122. 1477.
1469(37) 0.000723 1121. 1478.
1523(38) 0.000700 1120. 1479.
1419(37) 0.000751 1120. 1481.
1482(37) 0.000715 1119. 1483.
1466(37) 0.000727 1119. 1485.
1399(36) 0.000763 1118. 1488.
1497(38) 0.000707 1118. 1490.
1449(37) 0.000734 1117. 1493.
1448(37) 0.000734 1117. 1497.
1447(37) 0.000730 1116. 1500.
1471(37) 0.000723 1116. 1503.
1439(37) 0.000738 1115. 1507.
1418(37) 0.000747 1115. 1510.
1427(37) 0.000738 1115. 1513.
1483(37) 0.000719 1114. 1516.
1485(38) 0.000711 1114. 1519.
1426(37) 0.000738 1114. 1522.
1455(37) 0.000723 1113. 1524.
1483(38) 0.000711 1113. 1527.
1533(38) 0.000678 1113. 1529.
1423(37) 0.000738 1112. 1530.
1487(38) 0.000700 1112. 1532.
1477(38) 0.000707 1112. 1533.
1463(38) 0.000704 1112. 1533.
1540(39) 0.000675 1111. 1534.
1498(38) 0.000685 1111. 1534.
1492(38) 0.000693 1111. 1534.
1476(38) 0.000693 1111. 1533.
1502(38) 0.000682 1111. 1533.
1457(38) 0.000696 1110. 1532.
1478(38) 0.000693 1110. 1532.
1513(39) 0.000668 1110. 1532.
1503(39) 0.000675 1110. 1531.
1518(39) 0.000664 1110. 1531.
1549(39) 0.000654 1110. 1531.
1504(39) 0.000664 1110. 1531.
1549(39) 0.000651 1110. 1531.
1540(39) 0.000647 1110. 1531.
1621(40) 0.000616 1110. 1531.
1499(39) 0.000664 1110. 1531.
1569(40) 0.000634 1110. 1532.
1648(41) 0.000601 1110. 1532.
1571(40) 0.000634 1110. 1532.
1476(39) 0.000675 1110. 1532.
1598(40) 0.000619 1110. 1532.
1610(40) 0.000619 1110. 1531.
1529(39) 0.000651 1110. 1531.
1595(40) 0.000625 1111. 1530.
1454(38) 0.000689 1111. 1529.
1639(40) 0.000613 1111. 1527.
1643(41) 0.000610 1111. 1525.
1588(40) 0.000634 1111. 1523.
1585(40) 0.000634 1111. 1521.
1614(40) 0.000628 1112. 1518.
1570(40) 0.000641 1112. 1515.
1560(39) 0.000654 1112. 1512.
1608(40) 0.000631 1112. 1509.
1539(39) 0.000668 1113. 1506.
1553(39) 0.000657 1113. 1503.
1490(38) 0.000696 1113. 1500.
1494(38) 0.000689 1113. 1497.
1548(39) 0.000668 1114. 1494.
1408(37) 0.000738 1114. 1491.
1503(38) 0.000696 1114. 1488.
1452(37) 0.000715 1115. 1486.
1553(38) 0.000678 1115. 1484.
1544(39) 0.000675 1115. 1482.
1465(37) 0.000719 1115. 1480.
1417(37) 0.000742 1116. 1479.
1536(38) 0.000693 1116. 1477.
1468(37) 0.000719 1117. 1476.
1562(38) 0.000682 1117. 1475.
1544(38) 0.000689 1117. 1474.
1517(38) 0.000704 1118. 1474.
1453(37) 0.000734 1118. 1474.
1502(37) 0.000715 1118. 1473.
1487(37) 0.000715 1119. 1473.
1428(36) 0.000755 1119. 1474.
1490(37) 0.000719 1119. 1474.
1470(37) 0.000730 1120. 1475.
1443(37) 0.000747 1120. 1476.
1476(37) 0.000727 1121. 1477.
1490(37) 0.000719 1121. 1478.
1375(36) 0.000780 1121. 1480.
1472(37) 0.000730 1122. 1481.
1473(37) 0.000734 1122. 1483.
1501(37) 0.000715 1123. 1486.
1486(37) 0.000727 1123. 1488.
1466(37) 0.000738 1123. 1491.
1406(36) 0.000772 1124. 1494.
1487(37) 0.000727 1124. 1497.
1495(37) 0.000727 1125. 1501.
1493(37) 0.000727 1125. 1505.
1473(37) 0.000734 1125. 1509.
1424(36) 0.000759 1126. 1514.
1484(37) 0.000734 1126. 1518.
1516(37) 0.000715 1126. 1523.
1497(37) 0.000723 1127. 1528.
1573(38) 0.000693 1127. 1534.
1582(38) 0.000689 1127. 1539.
1572(38) 0.000689 1128. 1544.
1583(38) 0.000693 1128. 1550.
1564(38) 0.000696 1128. 1556.
1559(38) 0.000700 1129. 1562.
1591(38) 0.000689 1129. 1567.
1557(38) 0.000704 1129. 1573.
1548(38) 0.000707 1130. 1579.
1531(37) 0.000719 1130. 1584.
1592(38) 0.000689 1130. 1589.
1639(39) 0.000671 1131. 1595.
1610(38) 0.000682 1131. 1600.
1617(38) 0.000682 1131. 1604.
1650(39) 0.000668 1132. 1609.
1682(39) 0.000654 1132. 1613.
1664(39) 0.000661 1132. 1617.
1544(37) 0.000715 1132. 1620.
1616(38) 0.000682 1133. 1623.
1652(39) 0.000664 1133. 1625.
1638(39) 0.000671 1133. 1627.
1530(37) 0.000719 1133. 1628.
1561(38) 0.000704 1133. 1629.
1616(38) 0.000685 1134. 1629.
1609(38) 0.000685 1134. 1628.
1592(38) 0.000689 1134. 1627.
1578(38) 0.000700 1134. 1627.
1585(38) 0.000693 1134. 1625.
1657(39) 0.000664 1134. 1622.
1564(38) 0.000704 1135. 1619.
1557(38) 0.000704 1135. 1616.
1553(38) 0.000707 1135. 1612.
1558(38) 0.000704 1135. 1608.
1585(38) 0.000693 1135. 1604.
1527(37) 0.000719 1135. 1599.
1518(37) 0.000723 1135. 1594.
1569(38) 0.000700 1135. 1588.
1513(37) 0.000719 1135. 1582.
1479(37) 0.000742 1135. 1576.
1479(37) 0.000734 1135. 1570.
1521(37) 0.000715 1135. 1564.
1527(37) 0.000715 1136. 1557.
1486(37) 0.000730 1136. 1550.
1482(37) 0.000723 1136. 1544.
1465(37) 0.000747 1136. 1537.
1484(37) 0.000727 1136. 1531.
1435(37) 0.000747 1136. 1524.
1544(38) 0.000693 1136. 1518.
1527(38) 0.000704 1136. 1512.
1529(38) 0.000693 1136. 1506.
1474(37) 0.000727 1135. 1500.
1447(37) 0.000730 1135. 1494.
1468(37) 0.000719 1135. 1489.
1422(37) 0.000742 1135. 1484.
1549(38) 0.000678 1135. 1479.
1457(38) 0.000707 1135. 1475.
1411(37) 0.000747 1135. 1471.
1406(37) 0.000730 1135. 1467.
1515(38) 0.000678 1135. 1464.
1449(38) 0.000707 1135. 1461.
1478(38) 0.000696 1135. 1458.
1502(39) 0.000671 1135. 1456.
1512(39) 0.000675 1135. 1454.
1529(39) 0.000657 1134. 1453.
1509(39) 0.000668 1134. 1452.
1470(38) 0.000678 1134. 1451.
1550(39) 0.000647 1134. 1451.
1575(40) 0.000631 1134. 1451.
1520(39) 0.000654 1134. 1452.
1477(39) 0.000668 1134. 1453.
1463(38) 0.000682 1134. 1454.
1538(39) 0.000644 1133. 1455.
1442(38) 0.000685 1133. 1457.
1511(39) 0.000654 1133. 1459.
1563(40) 0.000631 1133. 1461.
1482(39) 0.000664 1133. 1464.
1595(40) 0.000619 1133. 1466.
1548(40) 0.000641 1133. 1469.
1530(39) 0.000644 1133. 1472.
1499(39) 0.000668 1132. 1475.
1549(40) 0.000641 1132. 1478.
1512(39) 0.000657 1132. 1481.
1586(40) 0.000631 1132. 1484.
1590(40) 0.000631 1132. 1487.
1525(39) 0.000651 1132. 1490.
1522(39) 0.000668 1132. 1493.
1547(39) 0.000651 1131. 1495.
1571(39) 0.000651 1131. 1498.
1520(39) 0.000668 1131. 1500.
1528(39) 0.000675 1131. 1503.
1639(40) 0.000622 1131. 1504.
1500(38) 0.000693 1131. 1506.
1566(39) 0.000657 1131. 1508.
1548(39) 0.000671 1131. 1509.
1602(39) 0.000651 1131. 1510.
1613(39) 0.000651 1130. 1510.
1606(39) 0.000647 1130. 1511.
1525(38) 0.000689 1130. 1511.
1528(38) 0.000689 1130. 1511.
1458(37) 0.000723 1130. 1510.
1529(38) 0.000689 1130. 1509.
1510(38) 0.000707 1130. 1508.
1548(38) 0.000682 1130. 1507.
1494(38) 0.000711 1130. 1505.
1529(38) 0.000696 1130. 1504.
1529(38) 0.000696 1130. 1502.
1486(37) 0.000715 1130. 1500.
1435(37) 0.000751 1130. 1499.
1467(37) 0.000727 1130. 1497.
1485(37) 0.000719 1130. 1494.
1443(37) 0.000747 1130. 1493.
1427(37) 0.000747 1129. 1491.
1489(37) 0.000715 1129. 1489.
1414(36) 0.000759 1129. 1487.
1488(37) 0.000715 1129. 1485.
1444(37) 0.000738 1130. 1482.
1454(37) 0.000738 1130. 1480.
1438(37) 0.000742 1130. 1478.
1504(38) 0.000711 1130. 1476.
1466(37) 0.000734 1130. 1473.
1465(37) 0.000730 1130. 1471.
1443(37) 0.000747 1130. 1468.
1467(37) 0.000734 1130. 1466.
1411(36) 0.000759 1130. 1463.
1500(37) 0.000719 1130. 1460.
1499(37) 0.000719 1130. 1458.
1476(37) 0.000727 1130. 1455.
1428(36) 0.000755 1130. 1452.
1398(36) 0.000772 1130. 1449.
1473(37) 0.000730 1130. 1447.
1448(37) 0.000742 1131. 1444.
1388(36) 0.000780 1131. 1442.
1451(37) 0.000742 1131. 1439.
1471(37) 0.000738 1131. 1437.
1491(37) 0.000727 1131. 1435.
1387(36) 0.000780 1131. 1433.
1424(36) 0.000763 1131. 1431.
1479(37) 0.000734 1132. 1430.
1438(37) 0.000751 1132. 1428.
1449(37) 0.000747 1132. 1427.
1391(36) 0.000780 1132. 1426.
1434(36) 0.000763 1132. 1426.
1435(36) 0.000755 1132. 1425.
1457(37) 0.000747 1133. 1425.
1442(36) 0.000759 1133. 1425.
1434(36) 0.000759 1133. 1425.
1457(37) 0.000751 1133. 1426.
1441(36) 0.000759 1133. 1427.
1412(36) 0.000772 1134. 1428.
1404(36) 0.000776 1134. 1429.
1389(36) 0.000789 1134. 1430.
1429(36) 0.000767 1134. 1432.
1399(36) 0.000780 1134. 1434.
1420(36) 0.000776 1135. 1436.
1449(36) 0.000755 1135. 1438.
1458(37) 0.000747 1135. 1441.
1460(36) 0.000755 1135. 1443.
1417(36) 0.000772 1136. 1446.
1459(37) 0.000747 1136. 1448.
1418(36) 0.000780 1136. 1451.
1444(36) 0.000755 1136. 1454.
1452(37) 0.000747 1137. 1457.
1486(37) 0.000742 1137. 1459.
1509(37) 0.000727 1137. 1462.
1412(36) 0.000772 1137. 1465.
1441(36) 0.000763 1138. 1468.
1453(36) 0.000755 1138. 1471.
1461(37) 0.000738 1138. 1474.
1461(37) 0.000751 1138. 1477.
1471(37) 0.000734 1138. 1480.
1477(37) 0.000730 1139. 1482.
1444(37) 0.000747 1139. 1485.
1470(37) 0.000734 1139. 1488.
1489(38) 0.000711 1139. 1491.
1396(36) 0.000772 1140. 1494.
1485(37) 0.000719 1140. 1496.
1388(36) 0.000763 1140. 1499.
1454(37) 0.000727 1140. 1502.
1420(36) 0.000755 1141. 1505.
1486(38) 0.000696 1141. 1508.
1429(37) 0.000738 1141. 1510.
1481(38) 0.000707 1141. 1513.
1513(38) 0.000682 1141. 1516.
1485(38) 0.000689 1142. 1518.
1422(37) 0.000734 1142. 1521.
1436(38) 0.000700 1142. 1524.
1425(37) 0.000723 1142. 1526.
1487(38) 0.000685 1142. 1529.
1461(38) 0.000689 1143. 1531.
1454(38) 0.000689 1143. 1533.
1447(38) 0.000704 1143. 1535.
1575(40) 0.000625 1143. 1537.
1488(39) 0.000675 1143. 1539.
1487(39) 0.000671 1144. 1541.
1529(39) 0.000644 1144. 1542.
1508(39) 0.000661 1144. 1543.
1545(39) 0.000647 1144. 1544.
1466(39) 0.000668 1144. 1545.
1545(39) 0.000644 1144. 1546.
1450(38) 0.000682 1144. 1547.
1518(39) 0.000644 1145. 1547.
1527(39) 0.000647 1145. 1547.
1529(39) 0.000644 1145. 1547.
1541(40) 0.000638 1145. 1547.
1563(40) 0.000634 1145. 1546.
1573(40) 0.000634 1145. 1545.
1545(40) 0.000638 1145. 1545.
1577(40) 0.000638 1145. 1544.
1589(40) 0.000628 1146. 1542.
1568(40) 0.000638 1146. 1541.
1535(39) 0.000654 1146. 1540.
1653(40) 0.000613 1146. 1538.
1635(40) 0.000613 1146. 1537.
1518(38) 0.000678 1146. 1535.
1527(39) 0.000664 1146. 1534.
1567(39) 0.000657 1146. 1532.
1572(39) 0.000654 1146. 1531.
1533(39) 0.000675 1146. 1529.
1590(39) 0.000647 1147. 1527.
1580(39) 0.000664 1147. 1526.
1573(39) 0.000661 1147. 1524.
1511(38) 0.000700 1147. 1522.
1542(38) 0.000682 1147. 1521.
1568(39) 0.000675 1147. 1519.
1593(39) 0.000664 1147. 1518.
1602(39) 0.000671 1147. 1516.
1523(38) 0.000696 1147. 1515.
1504(37) 0.000719 1147. 1513.
1543(38) 0.000696 1147. 1512.
1566(38) 0.000693 1147. 1511.
1526(38) 0.000707 1148. 1510.
1552(38) 0.000704 1148. 1509.
1576(38) 0.000685 1148. 1509.
1547(38) 0.000704 1148. 1508.
1572(38) 0.000693 1148. 1508.
1533(38) 0.000707 1148. 1507.
1601(38) 0.000682 1148. 1507.
1518(37) 0.000719 1148. 1507.
1579(38) 0.000685 1148. 1508.
1595(38) 0.000689 1149. 1508.
1581(38) 0.000693 1149. 1509.
1521(37) 0.000719 1149. 1510.
1543(38) 0.000711 1149. 1511.
1526(37) 0.000719 1149. 1513.
1551(38) 0.000704 1149. 1514.
1505(37) 0.000730 1149. 1516.
1601(38) 0.000682 1150. 1518.
1506(37) 0.000730 1150. 1521.
1536(37) 0.000715 1150. 1523.
1597(38) 0.000685 1150. 1526.
1535(37) 0.000715 1150. 1529.
1545(38) 0.000711 1151. 1532.
1570(38) 0.000696 1151. 1536.
1501(37) 0.000730 1151. 1539.
1638(39) 0.000671 1152. 1543.
1592(38) 0.000689 1152. 1547.
1599(38) 0.000685 1152. 1551.
1640(39) 0.000671 1152. 1555.
1578(38) 0.000696 1153. 1559.
1600(38) 0.000689 1153. 1564.
1601(38) 0.000689 1153. 1569.
1551(38) 0.000707 1154. 1573.
1618(38) 0.000682 1154. 1578.
1624(39) 0.000675 1155. 1583.
1625(39) 0.000675 1155. 1588.
1627(38) 0.000678 1156. 1593.
1615(38) 0.000678 1156. 1598.
1614(38) 0.000678 1157. 1603.
1623(38) 0.000682 1157. 1608.
1661(39) 0.000661 1158. 1613.
1632(39) 0.000671 1158. 1618.
1600(38) 0.000689 1159. 1623.
1609(38) 0.000682 1159. 1628.
1592(38) 0.000685 1160. 1633.
1640(39) 0.000671 1160. 1638.
1593(38) 0.000693 1161. 1643.
1608(38) 0.000678 1162. 1648.
1633(39) 0.000675 1163. 1653.
1602(38) 0.000689 1163. 1658.
1605(38) 0.000678 1164. 1662.
1636(39) 0.000675 1165. 1667.
1685(39) 0.000654 1166. 1672.
1600(38) 0.000682 1166. 1676.
1614(38) 0.000678 1167. 1681.
1688(39) 0.000651 1168. 1685.
1555(38) 0.000704 1169. 1690.
1596(38) 0.000685 1170. 1694.
1626(39) 0.000675 1171. 1699.
1620(39) 0.000675 1172. 1703.
1673(39) 0.000647 1173. 1707.
1733(40) 0.000634 1174. 1711.
1656(39) 0.000657 1175. 1715.
1612(39) 0.000671 1176. 1719.
1682(39) 0.000647 1177. 1723.
1677(39) 0.000651 1178. 1727.
1674(40) 0.000641 1179. 1730.
1661(39) 0.000654 1180. 1733.
1736(40) 0.000622 1182. 1736.
1725(40) 0.000622 1183. 1739.
1735(40) 0.000616 1184. 1742.
1622(39) 0.000664 1185. 1744.
1754(41) 0.000601 1187. 1747.
1767(41) 0.000604 1188. 1748.
1712(40) 0.000616 1189. 1750.
1783(41) 0.000592 1191. 1751.
1714(41) 0.000610 1192. 1752.
1744(41) 0.000607 1193. 1753.
1800(42) 0.000575 1195. 1753.
1824(42) 0.000572 1196. 1753.
1744(41) 0.000586 1198. 1752.
1721(41) 0.000604 1199. 1752.
1769(42) 0.000575 1201. 1751.
1827(42) 0.000559 1202. 1749.
1769(42) 0.000570 1204. 1748.
1762(42) 0.000578 1205. 1746.
1756(42) 0.000570 1207. 1743.
1710(41) 0.000592 1209. 1741.
1725(42) 0.000575 1210. 1738.
1813(43) 0.000551 1212. 1735.
1715(42) 0.000575 1214. 1732.
1764(42) 0.000562 1215. 1729.
1779(43) 0.000554 1217. 1726.
1715(42) 0.000575 1219. 1722.
1673(41) 0.000586 1220. 1719.
1797(43) 0.000548 1222. 1715.
1659(41) 0.000586 1224. 1711.
1749(42) 0.000562 1226. 1708.
1734(42) 0.000564 1228. 1704.
1666(41) 0.000586 1229. 1700.
1741(42) 0.000564 1231. 1697.
1772(43) 0.000551 1233. 1693.
1697(42) 0.000578 1235. 1689.
1692(42) 0.000581 1237. 1686.
1659(41) 0.000595 1239. 1683.
1731(42) 0.000564 1241. 1679.
1660(41) 0.000607 1242. 1676.
1693(41) 0.000583 1244. 1673.
1693(41) 0.000586 1246. 1670.
1633(40) 0.000616 1248. 1667.
1640(40) 0.000613 1250. 1664.
1610(40) 0.000616 1252. 1662.
1648(40) 0.000628 1254. 1659.
1712(41) 0.000586 1256. 1657.
1638(40) 0.000625 1258. 1655.
1641(40) 0.000631 1260. 1652.
1655(40) 0.000619 1261. 1650.
1670(40) 0.000613 1263. 1648.
1647(39) 0.000644 1265. 1647.
1574(39) 0.000651 1267. 1645.
1645(40) 0.000638 1269. 1643.
1559(38) 0.000678 1271. 1642.
1655(40) 0.000634 1273. 1640.
1634(40) 0.000641 1275. 1639.
1661(39) 0.000651 1276. 1638.
1666(40) 0.000631 1278. 1637.
1660(39) 0.000644 1280. 1636.
1616(39) 0.000671 1282. 1635.
1661(39) 0.000647 1284. 1634.
1668(40) 0.000641 1286. 1633.
1627(39) 0.000668 1287. 1632.
1608(39) 0.000668 1289. 1631.
1636(39) 0.000661 1291. 1631.
1703(40) 0.000638 1293. 1630.
1621(39) 0.000668 1294. 1630.
1564(38) 0.000693 1296. 1629.
1604(38) 0.000685 1298. 1629.
1658(39) 0.000654 1299. 1628.
1675(39) 0.000644 1301. 1628.
1574(38) 0.000696 1302. 1627.
1606(38) 0.000682 1304. 1627.
1671(39) 0.000647 1306. 1627.
1618(38) 0.000678 1307. 1626.
1631(39) 0.000671 1309. 1626.
1612(39) 0.000675 1310. 1626.
1630(39) 0.000675 1311. 1626.
1632(39) 0.000675 1313. 1625.
1545(38) 0.000704 1314. 1625.
1580(38) 0.000696 1315. 1625.
1683(39) 0.000654 1317. 1625.
1542(38) 0.000700 1318. 1624.
1597(38) 0.000689 1319. 1624.
1617(38) 0.000678 1320. 1624.
1609(39) 0.000671 1322. 1624.
1641(39) 0.000671 1323. 1624.
1636(39) 0.000671 1324. 1624.
1635(39) 0.000661 1325. 1624.
1613(38) 0.000682 1326. 1623.
1694(39) 0.000651 1327. 1623.
1676(39) 0.000644 1328. 1623.
1619(39) 0.000675 1329. 1623.
1652(39) 0.000668 1329. 1623.
1538(38) 0.000707 1330. 1623.
1622(39) 0.000671 1331. 1623.
1665(39) 0.000657 1332. 1623.
1592(38) 0.000682 1332. 1623.
1561(38) 0.000700 1333. 1623.
1532(37) 0.000715 1334. 1623.
1607(39) 0.000675 1334. 1623.
1627(39) 0.000671 1335. 1623.
1619(39) 0.000671 1335. 1623.
1743(40) 0.000622 1336. 1623.
1624(39) 0.000675 1336. 1623.
1611(39) 0.000675 1336. 1623.
1633(39) 0.000668 1336. 1623.
1590(38) 0.000689 1337. 1623.
1673(39) 0.000651 1337. 1623.
1602(38) 0.000678 1337. 1623.
1646(39) 0.000664 1337. 1623.
1595(38) 0.000682 1337. 1623.
1613(38) 0.000678 1337. 1623.
1695(39) 0.000644 1337. 1623.
1596(38) 0.000682 1337. 1623.
1633(39) 0.000671 1337. 1623.
1631(39) 0.000664 1337. 1623.
1599(38) 0.000682 1337. 1623.
1645(39) 0.000668 1336. 1623.
1678(39) 0.000647 1336. 1623.
1613(39) 0.000671 1336. 1623.
1662(39) 0.000661 1335. 1623.
1655(39) 0.000657 1335. 1623.
1632(39) 0.000664 1334. 1623.
1589(38) 0.000689 1334. 1623.
1635(39) 0.000664 1333. 1623.
1666(42) 0.000567 1333. 1623.
1611(38) 0.000678 1332. 1622.
1594(38) 0.000685 1331. 1622.
1613(41) 0.000586 1331. 1622.
1705(40) 0.000628 1330. 1622.
1610(38) 0.000678 1329. 1622.
1666(42) 0.000575 1328. 1622.
1605(39) 0.000668 1328. 1622.
1671(42) 0.000570 1327. 1622.
1664(42) 0.000581 1326. 1621.
1595(39) 0.000668 1325. 1621.
1699(42) 0.000564 1324. 1621.
1582(41) 0.000595 1323. 1621.
1731(40) 0.000616 1322. 1621.
1617(42) 0.000581 1321. 1621.
1675(42) 0.000562 1320. 1621.
1624(40) 0.000634 1319. 1621.
1683(42) 0.000562 1317. 1621.
1611(41) 0.000586 1316. 1621.
1680(40) 0.000616 1315. 1621.
1646(42) 0.000556 1314. 1621.
1676(42) 0.000559 1313. 1621.
1688(41) 0.000601 1311. 1621.
1657(43) 0.000551 1310. 1621.
1628(40) 0.000638 1309. 1621.
1664(41) 0.000610 1307. 1621.
1545(42) 0.000578 1306. 1622.
1659(40) 0.000628 1305. 1622.
1632(40) 0.000625 1303. 1622.
1588(42) 0.000562 1302. 1622.
1560(39) 0.000644 1301. 1622.
1620(40) 0.000631 1299. 1622.
1550(39) 0.000651 1298. 1623.
1592(40) 0.000631 1297. 1623.
1639(41) 0.000610 1295. 1623.
1537(39) 0.000657 1294. 1623.
1628(41) 0.000610 1292. 1624.
1633(41) 0.000610 1291. 1624.
1572(46) 0.000483 1290. 1624.
1558(40) 0.000638 1288. 1624.
1611(40) 0.000631 1287. 1625.
1541(45) 0.000492 1285. 1625.
1706(41) 0.000586 1284. 1625.
1701(41) 0.000598 1283. 1626.
1599(49) 0.000416 1281. 1626.
1695(41) 0.000592 1280. 1626.
1675(40) 0.000613 1279. 1627.
1452(43) 0.000538 1277. 1627.
1717(48) 0.000440 1276. 1628.
1663(40) 0.000619 1275. 1628.
1615(45) 0.000494 1273. 1628.
1645(47) 0.000459 1272. 1629.
1660(40) 0.000625 1271. 1629.
1631(45) 0.000489 1270. 1629.
1631(46) 0.000481 1268. 1630.
1659(40) 0.000625 1267. 1630.
1652(45) 0.000485 1266. 1631.
1685(46) 0.000466 1265. 1631.
1640(39) 0.000657 1264. 1631.
1533(44) 0.000521 1263. 1632.
1709(46) 0.000471 1262. 1632.
1725(40) 0.000625 1261. 1632.
1599(39) 0.000668 1260. 1632.
1633(45) 0.000492 1259. 1633.
1640(39) 0.000671 1258. 1633.
1618(39) 0.000657 1257. 1633.
1660(45) 0.000485 1256. 1633.
1528(37) 0.000719 1255. 1633.
1501(38) 0.000711 1254. 1633.
1675(46) 0.000481 1254. 1633.
1555(37) 0.000719 1253. 1633.
1613(39) 0.000661 1252. 1633.
1607(39) 0.000675 1252. 1633.
1593(38) 0.000704 1251. 1633.
1614(39) 0.000657 1251. 1633.
1602(38) 0.000678 1250. 1633.
1576(38) 0.000711 1250. 1632.
1628(39) 0.000654 1249. 1632.
1573(38) 0.000704 1249. 1632.
1580(38) 0.000707 1248. 1631.
1613(39) 0.000657 1248. 1631.
1638(39) 0.000675 1248. 1630.
1597(38) 0.000704 1248. 1630.
1581(39) 0.000671 1248. 1629.
1633(38) 0.000678 1247. 1629.
1559(37) 0.000719 1247. 1628.
1674(40) 0.000641 1247. 1627.
1591(38) 0.000693 1247. 1627.
1595(38) 0.000693 1248. 1626.
1704(40) 0.000631 1248. 1625.
1608(38) 0.000696 1248. 1624.
1552(38) 0.000711 1248. 1623.
1635(39) 0.000657 1248. 1622.
1623(38) 0.000689 1249. 1621.
1647(39) 0.000664 1249. 1620.
1670(39) 0.000644 1249. 1619.
1688(39) 0.000664 1250. 1618.
1537(38) 0.000711 1250. 1617.
1650(39) 0.000657 1251. 1616.
1627(38) 0.000689 1252. 1615.
1680(39) 0.000647 1252. 1614.
1547(38) 0.000700 1253. 1613.
1657(39) 0.000671 1254. 1612.
1599(38) 0.000678 1254. 1610.
1657(39) 0.000668 1255. 1609.
1619(38) 0.000689 1256. 1608.
1628(39) 0.000654 1257. 1607.
1531(37) 0.000723 1258. 1606.
1621(38) 0.000693 1259. 1605.
1677(40) 0.000634 1260. 1604.
1605(38) 0.000693 1261. 1603.
1631(38) 0.000689 1262. 1602.
1662(41) 0.000589 1263. 1601.
1624(38) 0.000682 1264. 1600.
1635(38) 0.000685 1266. 1600.
1709(42) 0.000570 1267. 1599.
1571(38) 0.000707 1268. 1598.
1601(38) 0.000700 1269. 1597.
1610(41) 0.000604 1271. 1597.
1618(38) 0.000689 1272. 1596.
1556(38) 0.000707 1273. 1596.
1672(42) 0.000581 1275. 1595.
1545(37) 0.000719 1276. 1595.
1584(38) 0.000696 1278. 1595.
1578(40) 0.000619 1279. 1594.
1562(38) 0.000711 1281. 1594.
1630(39) 0.000657 1282. 1594.
1604(41) 0.000610 1284. 1594.
1499(37) 0.000734 1286. 1594.
1673(40) 0.000641 1287. 1594.
1598(40) 0.000613 1289. 1594.
1589(38) 0.000693 1290. 1595.
1591(39) 0.000664 1292. 1595.
1545(40) 0.000631 1294. 1595.
1567(40) 0.000613 1295. 1596.
1668(40) 0.000634 1297. 1596.
1614(39) 0.000657 1299. 1597.
1535(40) 0.000622 1300. 1598.
1578(40) 0.000641 1302. 1598.
1575(39) 0.000675 1304. 1599.
1594(41) 0.000583 1305. 1600.
1590(40) 0.000638 1307. 1601.
1615(39) 0.000644 1309. 1602.
1648(42) 0.000562 1310. 1603.
1635(41) 0.000610 1312. 1604.
1612(39) 0.000647 1314. 1605.
1569(42) 0.000578 1315. 1607.
1606(40) 0.000619 1317. 1608.
1606(40) 0.000631 1319. 1609.
1581(42) 0.000575 1320. 1611.
1601(40) 0.000616 1322. 1612.
1676(41) 0.000607 1324. 1614.
1615(43) 0.000548 1325. 1615.
1679(41) 0.000586 1327. 1617.
1667(41) 0.000598 1328. 1619.
1654(43) 0.000536 1330. 1620.
1614(41) 0.000598 1331. 1622.
1595(40) 0.000625 1333. 1624.
1668(41) 0.000583 1334. 1625.
1649(41) 0.000586 1336. 1627.
1645(41) 0.000598 1337. 1629.
1658(41) 0.000586 1339. 1631.
1577(40) 0.000619 1340. 1632.
1618(41) 0.000607 1341. 1634.
1594(40) 0.000616 1343. 1636.
1549(40) 0.000628 1344. 1638.
1688(41) 0.000583 1345. 1639.
1639(41) 0.000601 1346. 1641.
1652(41) 0.000598 1347. 1643.
1701(42) 0.000578 1349. 1645.
1679(41) 0.000592 1350. 1646.
1703(42) 0.000581 1351. 1648.
1619(40) 0.000616 1352. 1650.
1667(41) 0.000598 1353. 1651.
1691(41) 0.000595 1354. 1653.
1705(41) 0.000586 1355. 1655.
1669(41) 0.000607 1355. 1656.
1632(40) 0.000616 1356. 1658.
1718(41) 0.000595 1357. 1659.
1676(41) 0.000604 1358. 1661.
1642(40) 0.000628 1358. 1662.
1707(41) 0.000598 1359. 1664.
1645(40) 0.000628 1360. 1665.
1702(41) 0.000604 1360. 1666.
1757(41) 0.000592 1361. 1668.
1684(40) 0.000616 1361. 1669.
1722(41) 0.000610 1362. 1670.
1640(40) 0.000634 1362. 1671.
1632(39) 0.000644 1362. 1672.
1643(40) 0.000638 1363. 1673.
1637(39) 0.000647 1363. 1674.
1736(41) 0.000607 1363. 1675.
1693(40) 0.000628 1363. 1676.
1706(40) 0.000622 1364. 1677.
1612(39) 0.000661 1364. 1678.
1701(40) 0.000625 1364. 1678.
1670(40) 0.000638 1364. 1679.
1658(40) 0.000641 1364. 1680.
1681(40) 0.000638 1364. 1680.
1679(40) 0.000634 1364. 1681.
1667(40) 0.000641 1364. 1682.
1635(39) 0.000654 1363. 1682.
1627(39) 0.000661 1363. 1683.
1671(40) 0.000641 1363. 1683.
1694(40) 0.000634 1363. 1683.
1655(39) 0.000647 1362. 1684.
1689(40) 0.000638 1362. 1684.
1689(40) 0.000634 1362. 1684.
1608(39) 0.000675 1361. 1685.
1613(39) 0.000668 1361. 1685.
1665(39) 0.000647 1360. 1685.
1675(39) 0.000647 1360. 1685.
1685(40) 0.000641 1359. 1685.
1648(39) 0.000654 1359. 1685.
1652(39) 0.000657 1358. 1685.
1649(39) 0.000654 1358. 1685.
1626(39) 0.000664 1357. 1685.
1668(39) 0.000651 1356. 1685.
1719(40) 0.000631 1356. 1685.
1677(39) 0.000644 1355. 1685.
1654(39) 0.000657 1354. 1685.
1730(40) 0.000628 1354. 1685.
1629(39) 0.000657 1353. 1685.
1654(39) 0.000657 1352. 1685.
1671(39) 0.000654 1351. 1685.
1666(39) 0.000644 1351. 1684.
1719(40) 0.000628 1350. 1684.
1685(39) 0.000647 1349. 1684.
1691(40) 0.000631 1348. 1684.
1634(39) 0.000657 1348. 1684.
1690(40) 0.000638 1347. 1683.
1634(39) 0.000647 1346. 1683.
1673(40) 0.000631 1345. 1683.
1643(39) 0.000647 1344. 1682.
1682(40) 0.000622 1344. 1682.
1661(40) 0.000628 1343. 1682.
1741(41) 0.000607 1342. 1682.
1735(41) 0.000595 1341. 1681.
1730(41) 0.000595 1341. 1681.
1709(41) 0.000607 1340. 1681.
1716(41) 0.000586 1339. 1680.
1736(42) 0.000581 1339. 1680.
1707(41) 0.000592 1338. 1680.
1707(42) 0.000575 1337. 1679.
1698(42) 0.000581 1336. 1679.
1712(42) 0.000578 1336. 1679.
1703(42) 0.000564 1335. 1678.
1729(42) 0.000556 1334. 1678.
1733(43) 0.000548 1334. 1678.
1754(43) 0.000533 1333. 1677.
1656(42) 0.000559 1333. 1677.
1691(43) 0.000548 1332. 1677.
1732(44) 0.000521 1331. 1676.
1729(44) 0.000524 1331. 1676.
1660(43) 0.000546 1330. 1676.
1741(44) 0.000507 1330. 1676.
1606(43) 0.000548 1329. 1675.
1603(43) 0.000551 1329. 1675.
1723(45) 0.000498 1328. 1675.
1730(45) 0.000498 1328. 1675.
1700(44) 0.000507 1328. 1674.
1609(44) 0.000524 1327. 1674.
1670(44) 0.000507 1327. 1674.
1657(44) 0.000512 1326. 1674.
1652(44) 0.000519 1326. 1673.
1741(46) 0.000479 1326. 1673.
1646(51) 0.000380 1325. 1673.
1560(43) 0.000538 1325. 1673.
1687(52) 0.000366 1324. 1672.
1729(53) 0.000356 1324. 1672.
1626(51) 0.000388 1324. 1672.
1637(52) 0.000374 1323. 1672.
1618(63) 0.0002520 1323. 1671.
1640(51) 0.000383 1323. 1671.
1544(61) 0.0002653 1322. 1671.
1640(64) 0.0002480 1322. 1670.
1673(63) 0.0002544 1321. 1670.
1676(64) 0.0002449 1321. 1669.
1555(87) 0.0001315 1320. 1669.
1680(63) 0.0002560 1320. 1668.
1672(90) 0.0001232 1319. 1668.
1722(92) 0.0001187 1319. 1667.
1733(87) 0.0001330 1318. 1666.
1764(93) 0.0001166 1317. 1665.
1753(90) 0.0001240 1316. 1665.
1742(87) . . .
loop_
_refln_index_h
_refln_index_k
_refln_index_l
_refln_observed_status
_refln_F_squared_meas
_refln_F_squared_calc
_refln_phase_calc
_refln_d_spacing
_gsas_i100_meas
1 1 0 o 10.224 5.509 180.00 10.24708 2.20
1 0 1 o 0.000 6.471 180.00 8.38802 0.00
2 0 -1 o 0.000 0.030 0.00 6.49071 0.00
3 0 0 o 18.229 5.251 180.00 5.91615 1.31
2 1 1 o 13.020 3.782 180.00 5.48326 1.61
2 2 0 o 5.914 1.150 0.00 5.12354 0.32
1 0 -2 o 0.000 9.235 180.00 4.59665 0.00
3 1 -1 o 0.000 1.465 180.00 4.37240 0.00
2 0 2 o 0.105 3.823 0.00 4.19401 0.00
4 0 1 o 187.562 107.294 0.00 4.02159 6.26
2 1 -2 o 0.000 3.228 0.00 3.88148 0.00
4 1 0 o 0.000 3.467 0.00 3.87303 0.00
3 2 1 o 0.000 4.430 180.00 3.74360 0.00
3 1 2 o 68.227 54.122 0.00 3.42149 3.31
3 3 0 o 78.110 62.266 180.00 3.41569 1.89
5 0 -1 o 3308.881 3127.085 0.00 3.32592 75.88
4 0 -2 o 51.798 47.264 0.00 3.24536 1.13
0 0 3 o 3467.245 3783.549 0.00 3.17269 24.16
4 2 -1 o 1.621 1.787 0.00 3.16346 0.07
3 2 -2 o 4.616 4.484 0.00 3.09390 0.18
1 1 3 o 9.278 5.495 180.00 3.03074 0.35
5 1 1 o 67.655 37.586 0.00 3.02270 2.57
6 0 0 o 236.619 107.316 180.00 2.95808 4.31
5 0 2 o 11.021 25.149 180.00 2.84536 0.19
5 2 0 o 6.495 15.004 180.00 2.84203 0.22
3 0 3 o 2.226 17.818 0.00 2.79601 0.04
3 0 -3 o 0.775 6.201 0.00 2.79601 0.01
4 3 1 o 0.141 3.236 0.00 2.78969 0.00
4 2 2 o 0.000 11.931 0.00 2.74163 0.00
2 2 3 o 14.258 48.203 0.00 2.69740 0.43
5 1 -2 o 18.212 28.473 180.00 2.64847 0.53
6 1 -1 o 0.000 35.132 180.00 2.60340 0.00
4 4 0 o 0.000 45.669 180.00 2.56177 0.00
4 3 -2 o 4.539 3.700 0.00 2.48751 0.12
4 1 3 o 5.296 3.811 180.00 2.45433 0.13
4 1 -3 o 174.639 125.672 180.00 2.45433 4.42
5 3 -1 o 32.130 22.192 180.00 2.45005 0.81
7 0 1 o 9.455 6.530 0.00 2.45005 0.12
6 2 1 o 22.723 10.157 180.00 2.38289 0.54
1 0 4 o 116.735 71.936 180.00 2.35841 1.37
6 1 2 o 18.325 10.495 180.00 2.35273 0.43
7 1 0 o 0.199 0.109 180.00 2.35084 0.00
3 3 3 o 0.305 0.060 180.00 2.32459 0.01
2 0 -4 o 405.127 38.882 180.00 2.29833 4.51
2 1 4 o 0.262 0.121 180.00 2.24261 0.01
5 3 2 o 2.723 1.717 0.00 2.23772 0.06
7 0 -2 o 80.913 51.019 0.00 2.23772 0.86
6 3 0 o 116.373 80.846 180.00 2.23610 2.46
5 4 1 o 71.617 89.002 0.00 2.21033 1.48
6 2 -2 o 0.130 0.128 180.00 2.18620 0.00
6 0 -3 o 979.854 966.989 180.00 2.16357 9.72
6 0 3 o 44.209 43.629 180.00 2.16357 0.44
8 0 -1 o 9.960 9.950 0.00 2.16064 0.10
3 1 -4 o 65.360 76.931 180.00 2.14234 1.27
5 2 -3 o 2.970 6.325 0.00 2.11690 0.06
5 2 3 o 0.602 1.282 0.00 2.11690 0.01
7 2 -1 o 2.527 5.807 0.00 2.11415 0.05
4 0 4 o 22.541 56.301 0.00 2.09700 0.21
3 2 4 o 0.848 0.869 180.00 2.05443 0.02
5 4 -2 o 48.069 48.748 0.00 2.05066 0.86
5 5 0 o 11189.337 11325.677 0.00 2.04942 100.00
8 1 1 o 50.088 54.289 0.00 2.02953 0.88
8 0 2 o 9.604 10.899 0.00 2.01080 0.08
4 4 3 o 7.153 7.640 0.00 1.99315 0.12
6 4 -1 o 141.242 149.546 180.00 1.99085 2.39
5 0 -4 o 10923.607 11109.677 0.00 1.97651 91.10
7 2 2 o 0.457 0.463 0.00 1.97316 0.01
9 0 0 o 143.736 145.741 0.00 1.97205 1.19
7 3 1 o 8.287 8.843 180.00 1.95431 0.14
4 2 -4 o 34.804 37.612 180.00 1.94074 0.56
8 2 0 o 49.431 52.285 180.00 1.93652 0.79
5 1 4 o 8.663 7.609 180.00 1.90684 0.13
8 1 -2 o 229.836 199.318 0.00 1.90383 3.57
1 0 -5 o 347.740 269.157 0.00 1.89276 2.67
7 1 3 o 33.366 24.011 0.00 1.88883 0.51
7 1 -3 o 15.530 11.175 0.00 1.88883 0.24
6 4 2 o 210.712 104.910 180.00 1.87180 3.17
2 0 5 o 15.941 7.333 180.00 1.86127 0.12
4 3 4 o 61.603 39.289 0.00 1.84406 0.90
7 3 -2 o 0.216 0.150 0.00 1.84133 0.00
7 4 0 o 36.553 25.921 180.00 1.84043 0.53
2 1 -5 o 45.930 40.429 180.00 1.83131 0.66
6 3 -3 o 45.746 42.250 180.00 1.82775 0.66
6 3 3 o 18.183 16.793 0.00 1.82775 0.26
9 1 -1 o 27.783 26.053 0.00 1.82598 0.40
6 5 1 o 727.493 682.203 180.00 1.82598 10.44
6 1 -4 o 58.702 48.988 180.00 1.78709 0.81
3 1 5 o 6.317 5.398 0.00 1.77548 0.09
8 3 -1 o 30.005 25.519 180.00 1.77063 0.41
4 0 -5 o 124.917 112.157 0.00 1.74941 0.83
10 0 1 o 2469.948 2311.272 0.00 1.74477 16.27
3 2 -5 o 40.313 43.817 180.00 1.72446 0.52
5 5 3 o 2552.679 2791.197 0.00 1.72149 32.79
5 3 -4 o 33.664 34.581 180.00 1.73509 0.44
7 0 4 o 8.463 8.694 0.00 1.73509 0.06
9 2 1 o 60.179 65.973 180.00 1.72002 0.77
6 5 -2 o 245.890 257.160 180.00 1.73283 3.20
9 1 2 o 3.372 3.526 180.00 1.73283 0.04
6 2 4 o 3.711 4.177 180.00 1.71074 0.05
6 6 0 o 2.985 3.400 180.00 1.70785 0.02
8 3 2 o 4.969 5.847 180.00 1.68530 0.06
10 1 0 o 123.511 144.918 180.00 1.68461 1.52
5 0 5 o 2025.102 2255.228 0.00 1.67760 12.39
9 0 3 o 65.401 70.541 0.00 1.67487 0.40
9 0 -3 o 14.206 15.322 0.00 1.67487 0.09
7 5 -1 o 6.411 6.789 0.00 1.67351 0.08
10 0 -2 o 0.793 0.699 180.00 1.66296 0.00
4 2 5 o 40.038 31.664 180.00 1.65556 0.48
8 2 3 o 0.003 0.002 180.00 1.65294 0.00
8 2 -3 o 6.596 5.130 180.00 1.65294 0.08
8 4 1 o 6.166 4.780 0.00 1.65163 0.07
5 4 4 o 35.130 28.425 0.00 1.64341 0.41
9 2 -2 o 9.080 7.477 0.00 1.64149 0.11
9 3 0 o 138.685 114.865 0.00 1.64085 1.63
5 1 -5 o 53.736 46.424 180.00 1.63437 0.63
8 0 -4 o 0.460 0.418 0.00 1.62268 0.00
7 2 -4 o 75.924 95.454 0.00 1.60271 0.85
7 5 2 o 32.642 41.285 0.00 1.60092 0.37
4 3 -5 o 15.327 18.097 180.00 1.59432 0.17
7 4 3 o 35.854 40.540 180.00 1.59197 0.40
7 4 -3 o 2.975 3.364 0.00 1.59197 0.03
11 0 -1 o 13.253 14.673 0.00 1.59080 0.07
0 0 6 o 210.566 220.413 0.00 1.58634 0.39
8 4 -2 o 2.429 2.576 0.00 1.58173 0.03
10 2 -1 o 3.194 4.811 180.00 1.57197 0.03
1 1 6 o 2.434 4.546 0.00 1.56767 0.03
8 1 4 o 9.847 20.345 180.00 1.56488 0.11
8 5 0 o 3.785 8.158 180.00 1.56266 0.04
6 1 5 o 7.102 15.028 180.00 1.55707 0.08
7 6 1 o 5.139 10.135 180.00 1.55379 0.05
6 4 -4 o 69.056 106.565 180.00 1.54695 0.73
3 0 6 o 3.976 4.713 0.00 1.53222 0.02
3 0 -6 o 0.015 0.018 0.00 1.53222 0.00
7 3 4 o 56.866 69.995 180.00 1.52962 0.59
11 0 2 o 80.880 102.876 180.00 1.52806 0.42
5 3 5 o 10.399 15.433 180.00 1.52232 0.11
7 0 -5 o 0.019 0.029 180.00 1.52232 0.00
9 4 -1 o 11.302 18.005 0.00 1.51925 0.12
11 1 1 o 0.629 1.002 180.00 1.51925 0.01
2 2 6 o 9.342 15.296 180.00 1.51537 0.09
10 2 2 o 11.192 16.938 0.00 1.51135 0.11
6 2 -5 o 39.073 46.236 180.00 1.50579 0.39
6 6 3 o 6.815 7.319 180.00 1.50381 0.07
7 6 -2 o 3.242 2.559 180.00 1.49517 0.03
10 1 3 o 1231.288 861.755 180.00 1.48788 12.08
10 1 -3 o 138.006 96.587 180.00 1.48788 1.35
10 3 1 o 12.937 8.963 180.00 1.48692 0.13
12 0 0 o 3.331 2.229 0.00 1.47904 0.02
4 1 6 o 14.891 11.313 0.00 1.46798 0.14
4 1 -6 o 3.272 2.486 180.00 1.46798 0.03
9 1 -4 o 9.251 7.308 0.00 1.46569 0.09
6 5 4 o 661.298 522.350 180.00 1.46569 6.31
9 4 2 o 304.157 245.467 0.00 1.46432 2.90
11 1 -2 o 17.183 13.867 180.00 1.46432 0.16
7 7 0 o 200.610 162.992 0.00 1.46387 0.96
11 2 0 o 27.216 22.112 180.00 1.46387 0.26
5 4 -5 o 283.869 242.819 0.00 1.45926 2.69
9 3 -3 o 155.322 134.458 0.00 1.45747 1.47
9 3 3 o 114.290 98.938 0.00 1.45747 1.08
8 0 5 o 60.689 59.914 180.00 1.44469 0.28
8 6 -1 o 36.571 38.318 180.00 1.44207 0.34
3 3 6 o 39.711 44.518 180.00 1.43875 0.37
8 3 -4 o 13.508 15.537 180.00 1.43659 0.12
10 3 -2 o 0.006 0.007 0.00 1.43531 0.00
7 2 5 o 6.672 7.460 180.00 1.43054 0.06
9 5 1 o 88.166 95.114 0.00 1.42800 0.80
10 0 4 o 7688.978 7919.914 0.00 1.42268 34.76
10 4 0 o 49.756 51.380 0.00 1.42101 0.45
8 1 -5 o 0.114 0.139 0.00 1.40345 0.00
8 5 3 o 18.931 22.903 0.00 1.40185 0.17
8 5 -3 o 1.367 1.654 0.00 1.40185 0.01
12 1 -1 o 9.684 11.645 0.00 1.40105 0.09
9 2 4 o 92.972 113.549 180.00 1.40916 0.83
6 0 -6 o 171.606 202.466 180.00 1.39800 0.75
6 0 6 o 0.897 1.058 180.00 1.39800 0.00
8 6 2 o 54.777 64.555 0.00 1.39484 0.48
6 4 5 o 44.518 54.308 0.00 1.39047 0.39
5 2 -6 o 0.915 1.224 0.00 1.38517 0.01
5 2 6 o 12.532 16.755 0.00 1.38517 0.11
7 5 -4 o 12.414 17.458 180.00 1.38325 0.11
9 5 -2 o 83.682 121.824 0.00 1.38210 0.72
7 3 -5 o 20.575 34.383 180.00 1.37784 0.18
11 3 -1 o 26.907 47.540 0.00 1.37557 0.23
8 4 4 o 41.446 71.554 0.00 1.37082 0.35
12 1 2 o 0.758 0.766 0.00 1.35762 0.01
9 6 0 o 15.305 15.340 180.00 1.35726 0.13
1 0 7 o 129.652 126.230 180.00 1.35575 0.54
13 0 1 o 17.009 15.762 180.00 1.35143 0.07
8 7 1 o 93.196 86.359 180.00 1.35143 0.77
4 4 6 o 108.722 100.164 0.00 1.34870 0.89
2 0 -7 o 0.093 0.089 0.00 1.34404 0.00
12 0 3 o 47.167 47.295 0.00 1.34053 0.19
12 0 -3 o 34.438 34.531 0.00 1.34053 0.14
12 2 1 o 33.887 34.318 0.00 1.33983 0.28
11 0 -4 o 115.780 122.700 180.00 1.33544 0.47
11 3 2 o 70.261 74.797 0.00 1.33440 0.57
2 1 7 o 15.698 16.747 0.00 1.33262 0.13
9 1 5 o 5.025 5.331 0.00 1.33057 0.04
6 5 -5 o 63.380 67.241 0.00 1.33057 0.51
7 7 3 o 123.387 129.979 0.00 1.32920 0.99
11 2 3 o 4.377 4.611 180.00 1.32920 0.04
11 2 -3 o 2.235 2.354 180.00 1.32920 0.02
10 5 -1 o 1548.597 1624.429 0.00 1.32852 12.39
10 2 -4 o 3.006 3.036 180.00 1.32424 0.02
7 1 6 o 16.416 14.176 180.00 1.31496 0.13
7 1 -6 o 29.026 25.064 180.00 1.31496 0.23
7 6 4 o 0.043 0.036 180.00 1.31332 0.00
8 7 -2 o 4.504 3.765 180.00 1.31233 0.04
13 0 -2 o 16.653 13.920 0.00 1.31233 0.07
13 1 0 o 50.615 42.213 180.00 1.31200 0.40
3 1 -7 o 1.174 0.975 180.00 1.31064 0.01
8 3 5 o 58.391 48.908 180.00 1.30869 0.46
11 4 1 o 23.859 20.467 180.00 1.30674 0.19
12 2 -2 o 0.010 0.009 180.00 1.30170 0.00
4 0 7 o 48.394 46.683 180.00 1.30005 0.19
10 0 -5 o 1629.560 1606.273 0.00 1.29814 6.26
10 4 3 o 0.004 0.004 0.00 1.29688 0.00
10 4 -3 o 11.961 11.891 0.00 1.29688 0.09
6 3 6 o 80.161 79.671 0.00 1.29383 0.61
6 3 -6 o 4.671 4.642 0.00 1.29383 0.04
9 4 -4 o 23.907 23.512 180.00 1.29226 0.18
11 1 4 o 3.356 3.301 180.00 1.29226 0.03
10 5 2 o 0.579 0.565 0.00 1.29132 0.00
12 3 0 o 83.738 81.309 180.00 1.29101 0.64
3 2 7 o 29.146 27.835 0.00 1.28971 0.22
9 2 -5 o 17.714 16.461 0.00 1.28785 0.13
8 8 0 o 15.816 13.269 180.00 1.28088 0.06
10 3 4 o 35.456 26.940 180.00 1.27219 0.26
11 4 -2 o 288.214 219.146 180.00 1.27129 2.13
5 0 -7 o 5057.417 3885.555 0.00 1.26975 18.69
7 5 5 o 9.702 7.665 0.00 1.26798 0.07
9 7 -1 o 41.302 34.119 0.00 1.26621 0.30
4 2 -7 o 30.760 31.769 180.00 1.26012 0.22
8 4 -5 o 0.008 0.009 180.00 1.25838 0.00
10 6 1 o 4.922 5.611 180.00 1.25665 0.04
14 0 -1 o 356.889 406.869 0.00 1.25665 1.30
5 5 6 o 149.315 175.850 0.00 1.25445 1.08
11 5 0 o 306.026 365.478 180.00 1.25188 2.21
5 1 7 o 490.815 586.805 180.00 1.25070 3.53
9 6 3 o 53.592 63.753 180.00 1.24787 0.38
9 6 -3 o 174.053 207.055 180.00 1.24787 1.25
13 2 -1 o 24.394 28.959 180.00 1.24730 0.17
8 6 -4 o 112.124 129.484 180.00 1.24376 0.80
9 0 6 o 193.453 188.459 0.00 1.23606 0.68
9 0 -6 o 98.394 95.854 0.00 1.23606 0.35
9 5 4 o 83.383 78.484 0.00 1.23469 0.59
9 7 2 o 28.729 26.534 0.00 1.23388 0.20
4 3 7 o 86.228 77.401 0.00 1.23247 0.61
11 0 5 o 365.293 319.504 180.00 1.23084 1.28
8 2 -6 o 1.648 1.396 180.00 1.22716 0.01
8 2 6 o 0.098 0.083 180.00 1.22716 0.00
14 0 2 o 364.591 306.822 0.00 1.22503 1.27
10 6 -2 o 222.218 187.008 180.00 1.22503 1.54
10 2 5 o 0.012 0.010 0.00 1.22206 0.00
12 4 -1 o 23.144 19.237 180.00 1.22047 0.16
12 1 -4 o 58.823 48.126 0.00 1.21715 0.40
13 2 2 o 2.366 1.932 180.00 1.21637 0.02
6 1 -7 o 4.963 4.058 180.00 1.21502 0.03
7 6 -5 o 19.885 16.478 180.00 1.21346 0.14
13 1 -3 o 59.459 50.126 0.00 1.21243 0.41
13 1 3 o 9.289 7.831 180.00 1.21243 0.06
14 1 1 o 8.312 7.087 180.00 1.21191 0.06
9 4 5 o 59.366 69.078 0.00 1.19679 0.40
11 1 -5 o 40.519 47.148 180.00 1.19679 0.27
12 3 3 o 55.671 63.507 180.00 1.19580 0.37
12 3 -3 o 1.006 1.148 0.00 1.19580 0.01
13 3 1 o 11.836 13.366 180.00 1.19531 0.08
9 8 1 o 60.755 68.606 0.00 1.19531 0.40
7 4 -6 o 7.722 9.407 0.00 1.20159 0.05
7 4 6 o 1.997 2.433 180.00 1.20159 0.01
11 3 -4 o 19.777 24.135 180.00 1.20033 0.13
10 7 0 o 2.777 3.364 180.00 1.19933 0.02
12 4 2 o 0.002 0.002 180.00 1.19144 0.00
5 3 -7 o 0.596 0.712 0.00 1.19829 0.00
7 0 7 o 43.304 51.710 0.00 1.19829 0.14
6 2 7 o 0.727 0.745 0.00 1.19018 0.00
8 8 3 o 3.433 3.419 180.00 1.18774 0.02
1 0 -8 o 0.036 0.035 0.00 1.18709 0.00
8 7 4 o 83.070 83.034 180.00 1.18419 0.54
13 0 4 o 18.280 18.272 180.00 1.18419 0.06
14 1 -2 o 29.836 30.089 180.00 1.18347 0.20
15 0 0 o 5648.639 5716.925 0.00 1.18323 18.50
10 3 -5 o 55.996 59.457 180.00 1.18080 0.37
11 6 -1 o 16.607 18.200 180.00 1.17937 0.11
2 0 8 o 5.998 6.595 0.00 1.17921 0.02
12 2 4 o 191.309 218.307 0.00 1.17636 1.24
14 2 0 o 43.969 50.176 180.00 1.17542 0.28
2 1 -8 o 25.493 27.478 0.00 1.17148 0.16
10 5 -4 o 5564.551 5674.682 0.00 1.16869 35.69
9 8 -2 o 4.606 4.645 0.00 1.16799 0.03
13 3 -2 o 14.591 14.715 180.00 1.16799 0.09
5 4 7 o 8.123 8.065 180.00 1.16680 0.05
11 5 3 o 101.324 98.716 180.00 1.16450 0.65
11 5 -3 o 1321.014 1287.005 180.00 1.16450 8.42
12 5 1 o 66.875 64.997 0.00 1.16405 0.43
6 6 6 o 11.646 11.240 180.00 1.16230 0.07
8 0 -7 o 40.587 38.743 0.00 1.15931 0.13
8 6 5 o 62.565 59.437 0.00 1.15796 0.40
3 1 8 o 27.882 26.388 180.00 1.15646 0.18
10 1 6 o 278.463 263.310 180.00 1.15489 1.75
10 1 -6 o 49.731 47.025 180.00 1.15489 0.31
11 4 4 o 81.286 77.022 180.00 1.15378 0.51
11 6 2 o 46.835 44.466 180.00 1.15311 0.29
13 4 0 o 132.398 125.814 0.00 1.15289 0.83
7 2 -7 o 151.060 144.152 0.00 1.15196 0.95
9 5 -5 o 290.420 279.083 0.00 1.15063 1.81
4 0 -8 o 12.698 12.300 180.00 1.14916 0.04
3 2 -8 o 59.449 58.206 180.00 1.14200 0.37
9 3 6 o 4.272 4.170 180.00 1.14050 0.03
9 3 -6 o 1.436 1.402 180.00 1.14050 0.01
12 5 -2 o 209.022 203.102 0.00 1.13878 1.28
9 9 0 o 6.354 6.169 180.00 1.13856 0.02
8 1 7 o 11.742 11.357 180.00 1.13767 0.07
12 1 5 o 4.082 3.916 180.00 1.13639 0.02
15 1 -1 o 670.378 635.370 180.00 1.13512 4.10
6 4 -7 o 171.859 154.533 180.00 1.13073 1.04
10 8 -1 o 35.474 31.738 180.00 1.12822 0.21
5 0 8 o 6653.025 5957.517 0.00 1.12808 20.12
9 7 -4 o 3.144 2.922 180.00 1.12559 0.02
7 3 7 o 23.277 22.585 180.00 1.12390 0.14
11 3 5 o 35.546 35.686 180.00 1.12267 0.21
10 7 -3 o 33.215 34.072 0.00 1.12185 0.20
10 7 3 o 0.203 0.208 0.00 1.12185 0.00
11 7 1 o 4.154 4.304 180.00 1.12144 0.02
14 3 -1 o 33.620 34.835 0.00 1.12144 0.20
4 2 8 o 97.914 101.778 180.00 1.12130 0.59
14 0 -4 o 139.288 151.113 0.00 1.11886 0.42
10 6 4 o 167.599 181.827 180.00 1.11886 1.00
12 6 0 o 4.143 4.529 0.00 1.11805 0.02
5 1 -8 o 353.937 388.895 180.00 1.11465 2.10
8 5 -6 o 3.841 4.199 0.00 1.11325 0.02
8 5 6 o 4.605 5.034 0.00 1.11325 0.03
13 2 -4 o 117.871 128.434 180.00 1.11225 0.70
15 1 2 o 345.214 375.667 180.00 1.11165 2.04
13 0 -5 o 0.340 0.371 180.00 1.10943 0.00
8 7 -5 o 21.295 23.238 180.00 1.10943 0.13
15 0 -3 o 1542.112 1690.106 0.00 1.10864 4.53
15 0 3 o 1358.479 1488.850 0.00 1.10864 3.99
10 8 2 o 0.761 0.859 0.00 1.10517 0.00
12 2 -5 o 0.291 0.331 180.00 1.10299 0.00
14 2 3 o 24.822 28.156 0.00 1.10221 0.14
14 2 -3 o 56.880 64.519 180.00 1.10221 0.33
16 0 1 o 740.337 837.721 180.00 1.10182 2.15
4 3 -8 o 66.858 75.573 0.00 1.10169 0.39
11 7 -2 o 12.352 13.307 180.00 1.09879 0.07
14 3 2 o 0.342 0.369 0.00 1.09879 0.00
6 5 7 o 303.609 318.555 180.00 1.09780 1.76
9 1 -7 o 65.017 68.217 180.00 1.09780 0.38
10 5 5 o 1234.790 1250.724 0.00 1.09665 7.13
13 5 -1 o 4.386 4.274 0.00 1.09551 0.03
15 2 1 o 6.943 6.766 0.00 1.09551 0.04
12 4 -4 o 9.523 8.507 180.00 1.09310 0.05
6 1 8 o 53.674 42.341 180.00 1.08917 0.31
14 1 4 o 4.002 3.042 180.00 1.08693 0.02
8 3 -7 o 4.586 3.459 180.00 1.08541 0.03
11 4 -5 o 290.700 219.716 180.00 1.08430 1.65
13 4 -3 o 79.916 60.667 0.00 1.08356 0.45
13 4 3 o 137.801 104.610 0.00 1.08356 0.78
12 0 -6 o 208.506 161.255 0.00 1.08179 0.59
12 0 6 o 83.597 64.652 0.00 1.08179 0.24
16 0 -2 o 302.083 238.791 180.00 1.08032 0.85
10 0 7 o 3568.207 2865.631 0.00 1.07938 10.04
14 4 1 o 106.500 88.503 0.00 1.07719 0.60
7 0 -8 o 32.444 27.001 180.00 1.07707 0.09
5 3 8 o 0.209 0.174 180.00 1.07707 0.00
11 2 6 o 70.674 59.452 180.00 1.07581 0.40
7 7 6 o 5.478 4.608 180.00 1.07581 0.03
11 2 -6 o 55.879 47.006 180.00 1.07581 0.31
13 3 4 o 1.383 1.165 180.00 1.07491 0.01
9 8 4 o 276.454 232.752 0.00 1.07491 1.55
13 5 2 o 11.371 9.549 0.00 1.07437 0.06
15 2 -2 o 19.298 16.204 0.00 1.07437 0.11
11 8 0 o 108.562 91.031 180.00 1.07419 0.61
16 1 0 o 9.543 8.002 0.00 1.07419 0.05
9 2 7 o 0.560 0.465 0.00 1.07344 0.00
9 9 3 o 38.483 30.932 0.00 1.07165 0.21
10 9 1 o 193.923 154.641 0.00 1.07129 1.08
6 2 -8 o 5.381 4.280 0.00 1.07117 0.03
11 6 -4 o 0.135 0.116 180.00 1.06327 0.00
15 3 0 o 148.467 133.195 180.00 1.06257 0.82
7 5 -7 o 0.038 0.036 180.00 1.06185 0.00
9 7 5 o 20.367 20.210 180.00 1.06081 0.11
12 7 -1 o 28.782 30.287 0.00 1.05977 0.16
5 4 -8 o 17.140 22.048 0.00 1.05403 0.09
10 4 -6 o 40.532 45.685 0.00 1.05845 0.22
10 4 6 o 6.994 7.883 0.00 1.05845 0.04
12 5 4 o 29.549 38.416 0.00 1.05200 0.16
1 1 9 o 3.983 5.178 180.00 1.05197 0.02
0 0 9 o 1084.497 1271.447 0.00 1.05756 0.99
10 9 -2 o 75.046 97.499 0.00 1.05150 0.41
14 4 -2 o 193.818 231.562 0.00 1.05708 1.06
8 4 7 o 71.275 87.699 0.00 1.05619 0.39
13 2 5 o 68.093 87.762 180.00 1.04962 0.37
10 6 -5 o 304.518 384.462 180.00 1.05517 1.65
14 0 5 o 198.397 250.481 0.00 1.05517 0.54
12 6 -3 o 0.164 0.210 0.00 1.05449 0.00
12 6 3 o 5.196 6.641 0.00 1.05449 0.03
13 6 1 o 53.177 68.153 0.00 1.04861 0.29
8 0 8 o 39.264 50.292 180.00 1.04850 0.11
7 2 8 o 120.069 149.141 0.00 1.04306 0.64
3 0 9 o 15.968 19.472 180.00 1.04106 0.04
3 0 -9 o 14.876 18.141 180.00 1.04106 0.04
12 7 2 o 1.693 2.055 180.00 1.04060 0.01
14 5 0 o 89.644 108.646 0.00 1.04043 0.48
11 0 -7 o 911.482 1097.455 180.00 1.03975 2.42
17 0 -1 o 96.775 114.751 0.00 1.03780 0.26
2 2 9 o 23.323 27.439 180.00 1.03573 0.12
10 2 -7 o 23.634 27.705 0.00 1.03444 0.12
12 4 5 o 7.702 8.980 0.00 1.03348 0.04
16 2 -1 o 11.340 13.090 180.00 1.03252 0.06
8 1 -8 o 47.317 54.553 180.00 1.03241 0.25
9 6 -6 o 81.765 92.514 180.00 1.03130 0.43
9 6 6 o 58.631 66.338 180.00 1.03130 0.31
15 1 -4 o 422.209 469.377 180.00 1.03050 2.21
13 6 -2 o 99.328 109.118 0.00 1.03003 0.52
7 6 7 o 0.797 0.857 0.00 1.02921 0.00
14 1 -5 o 2.411 2.524 0.00 1.02826 0.01
6 4 8 o 13.208 13.469 180.00 1.02721 0.07
10 8 -4 o 74.928 74.210 180.00 1.02533 0.39
10 10 0 o 4251.133 4200.119 0.00 1.02471 11.03
7 3 -8 o 4.690 4.783 180.00 1.02209 0.02
14 3 -4 o 235.398 252.593 0.00 1.02024 1.21
11 7 4 o 0.541 0.580 0.00 1.02024 0.00
4 1 9 o 3.254 3.494 0.00 1.02021 0.02
4 1 -9 o 98.929 106.236 0.00 1.02021 0.51
17 0 2 o 222.977 242.605 0.00 1.01978 0.57
11 1 7 o 6.121 6.815 180.00 1.01898 0.03
9 4 -7 o 4.913 5.470 0.00 1.01898 0.03
9 8 -5 o 2.618 2.987 0.00 1.01806 0.01
13 3 -5 o 22.505 25.677 180.00 1.01806 0.12
11 8 3 o 21.791 25.212 0.00 1.01745 0.11
16 1 -3 o 13.476 15.592 0.00 1.01745 0.07
16 1 3 o 0.881 1.019 180.00 1.01745 0.00
11 8 -3 o 87.017 100.679 180.00 1.01745 0.45
11 9 -1 o 267.790 311.810 180.00 1.01715 1.37
15 4 -1 o 0.056 0.065 0.00 1.01715 0.00
16 2 2 o 20.442 24.542 180.00 1.01476 0.10
12 8 1 o 1.214 1.447 180.00 1.01217 0.01
13 1 6 o 29.523 34.570 0.00 1.01102 0.15
13 1 -6 o 132.678 155.363 0.00 1.01102 0.67
3 3 9 o 45.565 52.383 180.00 1.01025 0.23
13 7 0 o 171.619 194.034 180.00 1.00967 0.87
10 3 7 o 4.825 5.341 0.00 1.00905 0.02
11 6 5 o 16.253 17.367 180.00 1.00816 0.08
15 3 3 o 12.138 12.630 180.00 1.00757 0.06
15 3 -3 o 50.838 52.900 180.00 1.00757 0.26
17 1 1 o 1.820 1.868 0.00 1.00727 0.01
16 0 4 o 725.012 674.922 180.00 1.00540 1.83
6 5 -8 o 70.456 55.653 180.00 1.00234 0.35
9 1 8 o 51.041 40.317 180.00 1.00234 0.26
12 3 -6 o 3.922 2.955 0.00 1.00132 0.02
12 3 6 o 1.297 0.978 180.00 1.00132 0.01
15 2 4 o 64.085 46.924 180.00 1.00059 0.32
13 5 -4 o 6.336 4.639 180.00 1.00059 0.03
11 9 2 o 451.862 325.917 180.00 1.00016 2.26
15 4 2 o 3.701 2.670 180.00 1.00016 0.02
12 5 -5 o 125.195 86.799 0.00 0.99854 0.62
16 3 1 o 104.938 72.051 180.00 0.99768 0.52
8 8 6 o 75.891 52.049 180.00 0.99657 0.38
6 0 -9 o 50.491 34.822 0.00 0.99583 0.13
6 0 9 o 75.044 51.755 180.00 0.99583 0.19
12 8 -2 o 0.048 0.033 180.00 0.99543 0.00
8 6 -7 o 2.500 1.753 0.00 0.99469 0.01
14 6 -1 o 77.991 56.638 180.00 0.99298 0.39
8 3 8 o 1.531 1.114 0.00 0.99289 0.01
5 2 9 o 0.399 0.302 0.00 0.99116 0.00
5 2 -9 o 4.381 3.317 180.00 0.99116 0.02
17 1 -2 o 1.771 1.354 180.00 0.99076 0.01
9 5 7 o 46.492 36.173 0.00 0.99004 0.23
14 5 3 o 258.539 208.766 0.00 0.98863 1.27
14 5 -3 o 30.049 24.264 0.00 0.98863 0.15
10 0 -8 o 5455.808 4453.911 0.00 0.98826 13.40
14 4 4 o 0.511 0.440 180.00 0.98658 0.00
18 0 0 o 11.125 9.764 180.00 0.98603 0.03
9 2 -8 o 7.187 6.789 180.00 0.98369 0.04
11 5 6 o 38.690 37.385 180.00 0.98273 0.19
11 5 -6 o 370.892 358.380 180.00 0.98273 1.81
10 9 4 o 62.624 61.283 0.00 0.98204 0.30
16 3 -2 o 20.378 20.069 0.00 0.98163 0.10
17 2 0 o 298.247 294.274 0.00 0.98149 1.45
12 1 -7 o 33.288 33.077 0.00 0.98092 0.16
15 1 5 o 14.652 14.682 180.00 0.98010 0.07
15 5 1 o 1068.991 1079.124 0.00 0.97928 5.18
4 4 9 o 18.060 18.565 0.00 0.97754 0.09
14 6 2 o 202.918 209.651 180.00 0.97716 0.98
10 8 5 o 20.242 21.417 180.00 0.97565 0.10
10 10 3 o 1147.499 1226.227 0.00 0.97511 5.53
7 5 8 o 25.144 27.057 0.00 0.97475 0.12
12 7 -4 o 239.825 266.316 0.00 0.97314 1.15
12 9 0 o 2.133 2.392 0.00 0.97261 0.01
11 3 -7 o 60.431 68.435 180.00 0.97205 0.29
11 7 -5 o 17.783 20.384 180.00 0.97126 0.09
14 3 5 o 8.060 9.238 0.00 0.97126 0.04
11 10 1 o 645.293 746.564 180.00 0.97046 3.09
8 4 -8 o 124.249 143.873 0.00 0.97037 0.59
16 4 0 o 185.353 216.446 180.00 0.96826 0.88
13 6 4 o 9.620 11.065 180.00 0.96448 0.05
7 1 9 o 15.374 17.682 180.00 0.96446 0.07
7 1 -9 o 22.376 25.736 180.00 0.96446 0.11
15 5 -2 o 11.467 13.174 0.00 0.96409 0.05
8 7 7 o 0.702 0.805 0.00 0.96342 0.00
13 0 7 o 6.136 7.038 0.00 0.96342 0.01
13 7 3 o 5.213 5.961 180.00 0.96213 0.02
13 7 -3 o 152.545 174.453 180.00 0.96213 0.72
13 8 -1 o 1.684 1.924 180.00 0.96187 0.01
12 2 7 o 176.691 197.497 0.00 0.95919 0.83
16 0 -5 o 15.876 17.551 0.00 0.95843 0.04
11 0 8 o 766.231 836.172 180.00 0.95758 1.80
10 7 6 o 67.953 73.173 0.00 0.95669 0.32
10 7 -6 o 48.278 51.987 0.00 0.95669 0.23
16 2 -4 o 0.261 0.277 180.00 0.95192 0.00
17 0 -4 o 2.300 2.459 0.00 0.95605 0.01
6 3 -9 o 12.482 13.342 0.00 0.95603 0.06
6 3 9 o 1.991 2.128 180.00 0.95603 0.01
11 10 -2 o 257.888 274.581 180.00 0.95567 1.21
1 0 10 o 1.812 1.919 0.00 0.95044 0.00
10 5 -7 o 2093.261 2217.091 0.00 0.95502 9.79
13 5 5 o 38.349 40.494 180.00 0.95426 0.18
15 2 -5 o 11.561 12.207 180.00 0.95426 0.05
7 6 -8 o 24.586 25.859 0.00 0.94932 0.11
18 1 -1 o 7.188 7.584 180.00 0.95351 0.03
14 7 1 o 5.139 5.422 180.00 0.95351 0.02
10 2 8 o 34.711 36.629 180.00 0.95342 0.16
15 0 -6 o 129.864 135.064 0.00 0.94845 0.30
15 0 6 o 95.205 99.017 0.00 0.94845 0.22
13 8 2 o 15.102 15.413 180.00 0.94747 0.07
15 6 0 o 386.400 393.270 180.00 0.94734 1.79
11 4 7 o 452.090 454.460 180.00 0.94683 2.09
2 0 -10 o 8.131 8.077 0.00 0.94638 0.02
17 3 -1 o 105.776 101.969 180.00 0.94536 0.49
14 2 6 o 80.841 75.660 0.00 0.94442 0.37
14 2 -6 o 1.919 1.796 0.00 0.94442 0.01
2 1 10 o 85.739 75.436 180.00 0.94237 0.39
14 4 -5 o 20.977 18.322 0.00 0.94208 0.10
18 0 3 o 16.773 14.483 0.00 0.94160 0.04
18 0 -3 o 0.103 0.089 0.00 0.94160 0.00
11 1 -8 o 48.604 41.687 180.00 0.94128 0.22
9 4 8 o 0.185 0.159 180.00 0.94128 0.00
11 9 -4 o 206.579 173.563 180.00 0.93983 0.94
15 4 -4 o 4.009 3.368 0.00 0.93983 0.02
5 5 9 o 1145.010 961.852 0.00 0.93981 5.23
18 1 2 o 88.769 74.393 0.00 0.93947 0.41
14 7 -2 o 63.341 53.083 0.00 0.93947 0.29
10 9 -5 o 107.893 90.399 0.00 0.93813 0.49
17 2 -3 o 197.427 165.954 0.00 0.93765 0.90
17 2 3 o 158.196 132.976 0.00 0.93765 0.72
12 8 4 o 143.168 123.331 180.00 0.93590 0.65
3 1 -10 o 22.608 20.075 0.00 0.93450 0.10
10 3 -8 o 98.347 89.633 180.00 0.93343 0.45
13 4 6 o 0.278 0.259 180.00 0.93261 0.00
13 4 -6 o 4.660 4.333 180.00 0.93261 0.02
17 1 4 o 62.156 58.578 0.00 0.93202 0.28
9 0 -9 o 142.402 134.263 0.00 0.93200 0.32
9 0 9 o 279.111 263.158 0.00 0.93200 0.63
17 3 2 o 0.056 0.053 0.00 0.93167 0.00
11 11 0 o 17.275 16.442 0.00 0.93155 0.04
9 7 -7 o 21.434 20.592 180.00 0.93106 0.10
4 0 10 o 14.014 13.563 0.00 0.93064 0.03
12 7 5 o 1.696 1.648 0.00 0.93036 0.01
12 9 3 o 0.097 0.095 180.00 0.92990 0.00
12 9 -3 o 72.469 70.906 0.00 0.92990 0.33
19 0 1 o 97.805 95.983 0.00 0.92966 0.22
16 5 -1 o 0.753 0.739 180.00 0.92966 0.00
8 2 -9 o 19.794 19.766 180.00 0.92817 0.09
8 2 9 o 34.100 34.052 180.00 0.92817 0.15
14 0 -7 o 14.541 14.706 0.00 0.92724 0.03
10 6 7 o 899.933 910.138 180.00 0.92724 4.04
3 2 10 o 5.493 5.596 0.00 0.92682 0.02
16 4 -3 o 206.452 213.460 180.00 0.92609 0.92
16 4 3 o 542.917 561.347 180.00 0.92609 2.43
12 10 -1 o 80.746 83.949 0.00 0.92586 0.36
18 2 1 o 157.537 163.786 180.00 0.92586 0.71
9 9 6 o 130.422 138.874 0.00 0.92498 0.58
16 3 4 o 106.910 115.854 180.00 0.92441 0.48
13 2 -7 o 72.839 81.335 180.00 0.92347 0.32
13 6 -5 o 11.997 13.684 180.00 0.92279 0.05
13 9 1 o 34.935 40.613 0.00 0.92210 0.16
8 6 8 o 0.384 0.447 180.00 0.92203 0.00
14 6 -4 o 25.914 31.000 180.00 0.92067 0.12
14 8 0 o 251.477 302.382 0.00 0.92021 1.12
5 0 -10 o 705.048 851.380 0.00 0.91933 1.56
9 5 -8 o 41.533 49.941 0.00 0.91832 0.18
7 4 9 o 0.011 0.013 0.00 0.91695 0.00
7 4 -9 o 16.597 19.532 180.00 0.91695 0.07
16 5 2 o 76.284 89.089 180.00 0.91664 0.34
19 0 -2 o 194.187 226.784 0.00 0.91664 0.43
4 2 -10 o 0.197 0.223 180.00 0.91565 0.00
17 0 5 o 124.616 139.768 0.00 0.91539 0.27
17 4 1 o 59.161 64.555 0.00 0.91473 0.26
12 6 6 o 19.248 20.198 180.00 0.91388 0.08
12 6 -6 o 38.578 40.483 180.00 0.91388 0.17
18 2 -2 o 20.847 20.974 180.00 0.91299 0.09
12 10 2 o 153.339 154.276 0.00 0.91299 0.67
12 4 -7 o 13.576 13.309 0.00 0.91242 0.06
5 1 10 o 117.750 113.491 180.00 0.91202 0.52
16 2 5 o 24.379 23.263 180.00 0.91176 0.11
12 1 8 o 55.040 51.248 0.00 0.91103 0.24
15 5 4 o 3639.740 3304.483 0.00 0.90972 15.91
13 9 -2 o 1.293 1.174 0.00 0.90939 0.01
19 1 0 o 4.122 3.738 180.00 0.90928 0.02
14 1 7 o 43.223 39.197 180.00 0.90883 0.19
15 6 -3 o 227.399 208.174 180.00 0.90774 0.99
15 6 3 o 956.720 875.834 180.00 0.90774 4.17
15 7 -1 o 1.360 1.249 180.00 0.90752 0.01
4 3 10 o 41.259 39.582 180.00 0.90488 0.18
11 3 8 o 131.322 127.418 180.00 0.90391 0.57
11 10 4 o 633.053 620.454 180.00 0.90263 2.74
17 4 -2 o 30.151 29.607 0.00 0.90231 0.13
18 3 0 o 2.584 2.539 0.00 0.90220 0.01
13 3 7 o 1.214 1.196 180.00 0.90176 0.01
9 8 7 o 158.624 156.231 0.00 0.90176 0.69
11 9 5 o 59.144 58.439 180.00 0.90112 0.26
15 4 5 o 4.633 4.578 0.00 0.90112 0.02
6 6 9 o 29.909 29.770 180.00 0.89913 0.13
6 1 -10 o 1.434 1.429 0.00 0.89790 0.01
12 8 -5 o 103.342 102.960 180.00 0.89766 0.44
16 6 1 o 1.443 1.436 0.00 0.89703 0.01
8 7 -8 o 91.464 90.941 180.00 0.89696 0.39
13 0 -8 o 0.108 0.108 180.00 0.89696 0.00
13 8 -4 o 5.894 5.803 0.00 0.89571 0.03
10 1 9 o 0.002 0.002 0.00 0.89569 0.00
10 1 -9 o 137.103 134.972 180.00 0.89569 0.59
15 7 2 o 60.727 59.572 0.00 0.89540 0.26
11 6 -7 o 1.861 1.811 0.00 0.89486 0.01
17 1 -5 o 2.466 2.373 0.00 0.89423 0.01
11 11 3 o 0.640 0.611 0.00 0.89382 0.00
12 2 -8 o 218.705 207.579 0.00 0.89354 0.93
5 3 -10 o 0.944 0.857 0.00 0.89109 0.00
7 0 10 o 33.656 30.563 0.00 0.89109 0.07
10 5 8 o 3881.257 3511.036 0.00 0.89017 16.50
11 8 -6 o 0.002 0.002 180.00 0.88945 0.00
11 8 6 o 91.671 83.267 0.00 0.88945 0.39
16 1 -6 o 2.794 2.538 0.00 0.88945 0.01
16 1 6 o 0.583 0.529 180.00 0.88945 0.00
18 1 -4 o 57.106 52.207 180.00 0.88894 0.24
14 7 4 o 15.744 14.394 180.00 0.88894 0.07
9 3 -9 o 2.233 2.042 180.00 0.88892 0.01
9 3 9 o 2.628 2.403 180.00 0.88892 0.01
13 10 0 o 72.316 66.577 180.00 0.88853 0.31
17 5 0 o 25.412 23.396 0.00 0.88853 0.11
12 5 7 o 119.325 110.821 0.00 0.88811 0.51
6 2 10 o 116.135 108.793 180.00 0.88774 0.49
16 3 -5 o 64.340 60.626 0.00 0.88750 0.27
12 11 1 o 10.728 10.269 180.00 0.88689 0.05
16 6 -2 o 11.249 11.233 180.00 0.88531 0.05
14 6 5 o 136.697 140.487 180.00 0.88419 0.58
14 8 3 o 120.982 125.574 0.00 0.88379 0.51
14 8 -3 o 162.012 168.162 0.00 0.88379 0.68
20 0 -1 o 633.804 661.074 0.00 0.88359 1.33
11 4 -8 o 362.773 378.991 180.00 0.88352 1.53
15 3 -6 o 13.768 14.617 180.00 0.88282 0.06
15 3 6 o 0.432 0.459 180.00 0.88282 0.00
17 3 -4 o 76.644 82.242 180.00 0.88233 0.32
5 4 10 o 14.377 15.923 0.00 0.87791 0.06
19 2 -1 o 74.653 82.506 0.00 0.88032 0.31
14 9 -1 o 24.976 27.604 0.00 0.88032 0.10
8 5 9 o 22.221 24.300 180.00 0.87584 0.09
8 5 -9 o 11.786 12.888 180.00 0.87584 0.05
12 11 -2 o 27.002 29.485 180.00 0.87556 0.11
15 1 -7 o 304.842 332.077 180.00 0.87506 1.27
8 0 -10 o 9.881 10.750 0.00 0.87471 0.02
15 5 -5 o 622.818 677.166 0.00 0.87448 2.59
19 1 3 o 38.755 42.106 180.00 0.87409 0.16
19 1 -3 o 31.261 33.964 180.00 0.87409 0.13
15 8 1 o 51.902 56.378 180.00 0.87390 0.22
20 0 2 o 10.789 11.734 0.00 0.87239 0.02
10 8 -7 o 12.103 13.179 180.00 0.87189 0.05
7 2 -10 o 12.506 13.630 180.00 0.87154 0.05
18 4 -1 o 47.928 52.341 0.00 0.87074 0.20
9 7 8 o 47.936 52.364 180.00 0.87067 0.20
14 5 6 o 290.548 317.969 0.00 0.87000 1.20
14 5 -6 o 81.200 88.863 0.00 0.87000 0.34
19 0 4 o 64.294 70.464 0.00 0.86953 0.13
16 5 -4 o 150.717 165.181 180.00 0.86953 0.62
14 9 2 o 146.632 160.859 0.00 0.86924 0.61
19 2 2 o 82.918 90.963 0.00 0.86924 0.34
16 7 0 o 0.009 0.010 0.00 0.86915 0.00
14 3 -7 o 188.689 207.359 0.00 0.86875 0.78
11 7 7 o 0.186 0.205 180.00 0.86875 0.00
11 10 -5 o 1.228 1.352 180.00 0.86818 0.01
18 3 3 o 0.001 0.001 180.00 0.86780 0.00
18 3 -3 o 0.510 0.562 180.00 0.86780 0.00
10 6 -8 o 666.691 736.521 180.00 0.86755 2.74
14 0 8 o 53.433 59.030 0.00 0.86755 0.11
18 2 4 o 186.394 207.065 180.00 0.86641 0.77
12 10 -4 o 0.389 0.432 180.00 0.86641 0.00
8 1 10 o 4.314 4.807 0.00 0.86530 0.02
13 2 8 o 64.791 72.062 180.00 0.86445 0.27
1 0 -11 o 136.902 152.081 180.00 0.86425 0.28
13 9 4 o 207.017 227.768 0.00 0.86333 0.85
15 8 -2 o 5.656 6.197 180.00 0.86305 0.02
6 4 -10 o 14.058 15.166 180.00 0.86223 0.06
13 8 5 o 10.428 11.197 180.00 0.86201 0.04
20 1 1 o 133.153 141.097 180.00 0.86146 0.54
2 0 11 o 59.566 62.700 0.00 0.86119 0.12
10 10 6 o 90.318 93.954 0.00 0.86075 0.37
12 0 9 o 37.161 38.151 0.00 0.86027 0.08
12 0 -9 o 91.770 94.217 0.00 0.86027 0.19
18 4 2 o 0.018 0.018 0.00 0.86001 0.00
16 0 7 o 264.936 266.347 180.00 0.85953 0.54
7 3 10 o 0.081 0.081 180.00 0.85919 0.00
2 1 -11 o 11.580 11.193 0.00 0.85817 0.05
17 4 4 o 27.815 26.212 0.00 0.85727 0.11
7 7 9 o 3.002 2.828 180.00 0.85725 0.01
11 2 -9 o 31.874 30.025 180.00 0.85725 0.13
11 2 9 o 47.241 44.501 180.00 0.85725 0.19
13 5 -7 o 9.809 9.057 0.00 0.85652 0.04
15 2 7 o 53.226 49.144 180.00 0.85652 0.22
18 1 5 o 75.843 69.001 0.00 0.85598 0.31
14 7 -5 o 106.325 96.732 0.00 0.85598 0.43
17 5 3 o 155.769 140.365 0.00 0.85561 0.63
13 10 -3 o 9.572 8.625 180.00 0.85561 0.04
17 5 -3 o 73.629 66.348 0.00 0.85561 0.30
13 10 3 o 6.845 6.168 180.00 0.85561 0.03
17 6 -1 o 3.926 3.522 0.00 0.85543 0.02
19 3 1 o 84.941 76.184 0.00 0.85543 0.34
12 4 8 o 0.002 0.002 180.00 0.85537 0.00
12 12 0 o 369.548 320.084 0.00 0.85392 0.75
14 1 -8 o 5.342 4.518 180.00 0.85241 0.02
3 1 11 o 25.391 21.429 180.00 0.85221 0.10
13 7 6 o 0.007 0.006 180.00 0.85178 0.00
13 7 -6 o 41.333 34.759 180.00 0.85178 0.17
15 7 -4 o 1.921 1.612 180.00 0.85133 0.01
20 1 -2 o 401.283 336.529 180.00 0.85106 1.62
17 3 5 o 2.295 1.931 0.00 0.85007 0.01
13 11 -1 o 97.637 82.586 180.00 0.84953 0.39
4 0 -11 o 37.785 32.064 180.00 0.84928 0.08
10 4 9 o 18.877 16.246 0.00 0.84839 0.08
10 4 -9 o 100.071 86.126 0.00 0.84839 0.40
14 4 7 o 0.068 0.060 180.00 0.84769 0.00
6 5 10 o 26.206 22.999 180.00 0.84736 0.10
9 1 -10 o 0.380 0.333 180.00 0.84736 0.00
14 10 1 o 43.758 38.948 0.00 0.84663 0.18
13 3 -8 o 2.514 2.240 0.00 0.84657 0.01
9 8 -8 o 212.324 189.188 0.00 0.84657 0.85
3 2 -11 o 31.774 28.411 180.00 0.84638 0.13
19 3 -2 o 0.003 0.002 180.00 0.84525 0.00
17 6 2 o 12.816 11.676 180.00 0.84525 0.05
21 0 0 o 275.483 251.318 180.00 0.84516 0.55
15 9 0 o 17.670 16.120 0.00 0.84516 0.07
10 9 7 o 2.687 2.464 0.00 0.84480 0.01
18 5 1 o 23.567 21.905 180.00 0.84375 0.09
16 6 4 o 14.161 13.324 0.00 0.84265 0.06
20 2 0 o 54.113 51.112 180.00 0.84230 0.22
8 3 -10 o 120.842 115.101 180.00 0.84163 0.48
11 6 8 o 6.326 6.096 180.00 0.84085 0.03
5 0 11 o 4053.551 3918.393 0.00 0.84066 8.05
13 11 2 o 8.730 8.618 0.00 0.83956 0.03
12 7 -7 o 223.924 223.038 0.00 0.83912 0.89
10 0 10 o 581.833 583.137 0.00 0.83880 1.15
16 5 5 o 356.417 358.575 180.00 0.83860 1.41
19 0 -5 o 324.150 326.112 0.00 0.83860 0.64
16 7 3 o 4.701 4.759 180.00 0.83826 0.02
16 7 -3 o 3.352 3.393 180.00 0.83826 0.01
4 2 11 o 11.910 12.134 180.00 0.83785 0.05
18 0 6 o 10.380 10.630 0.00 0.83744 0.02
18 0 -6 o 9.361 9.587 0.00 0.83744 0.02
14 10 -2 o 81.145 83.559 0.00 0.83676 0.32
9 2 10 o 33.876 34.917 0.00 0.83601 0.13
18 2 -5 o 42.176 43.445 180.00 0.83581 0.17
12 10 5 o 44.629 45.972 0.00 0.83581 0.18
16 8 -1 o 44.838 46.043 0.00 0.83530 0.18
12 5 -8 o 0.287 0.294 180.00 0.83524 0.00
5 1 -11 o 237.387 243.247 180.00 0.83506 0.94
17 2 -6 o 0.156 0.159 180.00 0.83465 0.00
17 2 6 o 0.652 0.665 180.00 0.83465 0.00
12 11 4 o 2.093 2.123 0.00 0.83423 0.01
9 6 -9 o 1.705 1.729 180.00 0.83422 0.01
9 6 9 o 83.867 85.048 180.00 0.83422 0.33
18 5 -2 o 3.842 3.882 0.00 0.83398 0.02
19 4 0 o 6.740 6.802 180.00 0.83390 0.03
13 6 7 o 47.097 47.268 180.00 0.83355 0.19
13 9 -5 o 25.493 25.373 0.00 0.83304 0.10
20 0 -4 o 2482.008 2410.617 0.00 0.83148 4.87
7 5 -10 o 54.792 52.637 0.00 0.83050 0.21
4 3 -11 o 47.456 45.370 0.00 0.82957 0.19
12 9 -6 o 93.014 88.920 0.00 0.82917 0.36
12 9 6 o 31.728 30.332 0.00 0.82917 0.12
14 9 -4 o 0.864 0.827 180.00 0.82876 0.00
19 2 -4 o 0.884 0.846 180.00 0.82876 0.00
17 0 -7 o 18.997 18.291 0.00 0.82808 0.04
8 4 10 o 15.385 14.873 180.00 0.82778 0.06
17 4 -5 o 0.855 0.829 0.00 0.82759 0.00
17 7 1 o 60.150 58.861 0.00 0.82710 0.23
16 4 6 o 333.389 331.117 180.00 0.82647 1.30
16 4 -6 o 253.514 251.788 180.00 0.82647 0.99
16 8 2 o 44.538 45.042 0.00 0.82581 0.17
15 7 5 o 44.712 48.678 0.00 0.82224 0.17
16 2 -7 o 4.605 4.715 180.00 0.82539 0.02
21 1 -1 o 2.007 2.185 0.00 0.82176 0.01
10 8 8 o 25.383 27.629 180.00 0.82171 0.10
12 12 3 o 137.736 144.385 0.00 0.82458 0.54
15 1 8 o 131.425 138.566 180.00 0.82436 0.51
18 4 -4 o 167.536 181.038 0.00 0.82074 0.65
6 1 11 o 16.004 16.950 180.00 0.82419 0.06
18 6 0 o 47.634 51.273 180.00 0.82042 0.18
15 8 4 o 112.899 121.578 180.00 0.82339 0.44
13 1 -9 o 6.787 7.311 0.00 0.82338 0.03
13 1 9 o 45.194 48.679 0.00 0.82338 0.18
11 0 -10 o 304.016 324.509 180.00 0.81980 0.59
11 7 -8 o 3.724 3.938 0.00 0.81908 0.01
14 3 8 o 253.488 268.095 0.00 0.81908 0.98
5 3 11 o 29.693 31.345 0.00 0.81891 0.11
7 0 -11 o 12.625 13.327 180.00 0.81891 0.02
12 3 -9 o 18.672 19.595 180.00 0.81811 0.07
12 3 9 o 0.118 0.124 0.00 0.81811 0.00
17 7 -2 o 1.093 1.146 180.00 0.81788 0.00
14 11 0 o 85.454 89.605 180.00 0.81781 0.33
15 4 -7 o 0.001 0.001 0.00 0.81748 0.00
11 9 -7 o 177.712 186.356 180.00 0.81748 0.68
10 2 -10 o 28.992 30.430 0.00 0.81719 0.11
21 0 -3 o 639.069 672.935 180.00 0.81668 1.23
21 0 3 o 34.333 36.152 180.00 0.81668 0.07
15 9 3 o 0.113 0.119 0.00 0.81668 0.00
15 9 -3 o 24.438 25.733 0.00 0.81668 0.09
20 3 -1 o 55.646 58.676 180.00 0.81653 0.21
13 12 1 o 193.896 204.454 180.00 0.81653 0.75
6 2 -11 o 0.319 0.337 180.00 0.81630 0.00
8 8 9 o 33.021 35.230 180.00 0.81551 0.13
12 8 7 o 149.117 160.352 180.00 0.81489 0.57
7 6 10 o 64.184 69.251 180.00 0.81460 0.25
16 6 -5 o 9.852 10.649 180.00 0.81442 0.04
20 2 3 o 66.882 72.506 180.00 0.81410 0.26
20 2 -3 o 16.951 18.376 0.00 0.81410 0.07
15 6 -6 o 150.625 163.969 180.00 0.81335 0.58
15 6 6 o 324.566 353.319 180.00 0.81335 1.24
20 1 4 o 233.914 254.772 180.00 0.81296 0.90
21 1 2 o 3.810 4.149 0.00 0.81272 0.01
17 1 7 o 28.208 30.665 0.00 0.81232 0.11
15 10 -1 o 538.374 580.407 0.00 0.81139 2.06
16 0 -8 o 72.820 78.454 180.00 0.81134 0.14
9 4 -10 o 52.972 55.243 0.00 0.80950 0.20
11 1 10 o 0.124 0.129 180.00 0.80950 0.00
15 2 -8 o 5.547 5.695 180.00 0.80881 0.02
13 5 8 o 77.441 79.514 180.00 0.80881 0.30
5 4 -11 o 1.669 1.707 180.00 0.80864 0.01
19 3 4 o 316.512 317.989 0.00 0.80789 1.21
17 6 -4 o 40.462 40.651 0.00 0.80789 0.15
11 5 -9 o 0.167 0.168 180.00 0.80788 0.00
11 5 9 o 207.626 208.531 180.00 0.80788 0.79
20 3 2 o 11.469 11.460 180.00 0.80766 0.04
13 12 -2 o 10.483 10.475 180.00 0.80766 0.04
16 3 7 o 2.933 2.903 0.00 0.80726 0.01
12 11 -5 o 7.122 6.977 180.00 0.80681 0.03
19 4 3 o 0.183 0.178 180.00 0.80650 0.00
19 4 -3 o 36.798 35.802 0.00 0.80650 0.14
19 5 -1 o 275.176 266.844 0.00 0.80635 1.05
16 9 1 o 175.416 170.105 180.00 0.80635 0.67
8 0 11 o 14.806 14.291 180.00 0.80614 0.03
14 6 -7 o 124.222 116.808 180.00 0.80477 0.47
10 3 10 o 4.430 4.148 0.00 0.80449 0.02
20 0 5 o 724.510 676.554 0.00 0.80432 1.37
22 0 1 o 183.749 170.582 0.00 0.80387 0.35
7 2 11 o 124.381 115.197 0.00 0.80365 0.47
11 11 6 o 7.218 6.662 180.00 0.80329 0.03
13 11 -4 o 131.833 121.324 180.00 0.80291 0.50
15 10 2 o 16.600 15.256 0.00 0.80269 0.06
17 8 0 o 154.953 142.346 180.00 0.80261 0.59
14 9 5 o 72.288 66.214 0.00 0.80185 0.27
19 2 5 o 2.543 2.329 180.00 0.80185 0.01
21 2 1 o 5.368 4.913 180.00 0.80140 0.02
14 4 -8 o 8.997 8.234 180.00 0.80135 0.03
14 10 4 o 34.634 31.704 0.00 0.80046 0.13
10 9 -8 o 20.159 18.599 0.00 0.79891 0.08
8 1 -11 o 6.758 6.245 180.00 0.79875 0.03
18 5 4 o 70.221 65.484 180.00 0.79803 0.26
19 5 2 o 303.527 284.025 0.00 0.79781 1.14
16 9 -2 o 423.702 396.479 180.00 0.79781 1.60
15 5 7 o 1350.718 1272.092 0.00 0.79743 5.08
8 6 -10 o 57.015 53.961 0.00 0.79716 0.21
15 8 -5 o 65.593 62.279 180.00 0.79699 0.25
6 4 11 o 171.773 165.089 180.00 0.79634 0.65
14 8 6 o 0.031 0.030 180.00 0.79598 0.00
14 8 -6 o 0.170 0.165 0.00 0.79598 0.00
22 0 -2 o 435.644 425.237 0.00 0.79540 0.82
9 5 10 o 164.179 161.503 0.00 0.79476 0.62
18 4 5 o 3.574 3.521 0.00 0.79459 0.01
18 6 3 o 62.447 61.652 180.00 0.79430 0.23
18 6 -3 o 17.140 16.921 0.00 0.79430 0.06
20 4 1 o 4.776 4.719 180.00 0.79415 0.02
12 7 8 o 258.371 255.341 0.00 0.79410 0.97
7 3 -11 o 26.104 25.814 0.00 0.79394 0.10
10 7 9 o 66.431 65.703 0.00 0.79322 0.25
10 7 -9 o 10.724 10.607 0.00 0.79322 0.04
0 0 12 o 3447.271 3409.025 0.00 0.79317 2.15
21 2 -2 o 31.295 30.929 180.00 0.79301 0.12
11 10 7 o 299.411 295.305 180.00 0.79264 1.12
14 11 -3 o 247.081 242.011 180.00 0.79192 0.92
14 11 3 o 153.210 150.067 180.00 0.79192 0.57
18 7 -1 o 16.399 16.034 180.00 0.79178 0.06
16 8 -4 o 13.074 12.609 180.00 0.79087 0.05
1 1 12 o 50.238 48.405 180.00 0.79081 0.19
12 1 -10 o 50.211 47.719 180.00 0.79002 0.19
13 6 -8 o 95.389 89.652 180.00 0.78938 0.36
19 1 6 o 90.817 84.685 180.00 0.78888 0.34
19 1 -6 o 35.296 32.913 180.00 0.78888 0.13
15 0 -9 o 615.091 570.570 0.00 0.78851 1.15
15 0 9 o 654.073 606.730 0.00 0.78851 1.22
22 1 0 o 81.582 75.411 0.00 0.78824 0.30
13 13 0 o 44.945 41.546 0.00 0.78824 0.08
13 8 -7 o 0.060 0.056 0.00 0.78794 0.00
20 1 -5 o 476.344 437.054 180.00 0.78752 1.77
14 2 -9 o 42.948 39.144 0.00 0.78618 0.16
14 2 9 o 1.627 1.483 180.00 0.78618 0.01
3 0 12 o 59.717 54.424 180.00 0.78614 0.11
3 0 -12 o 0.020 0.018 180.00 0.78614 0.00
20 4 -2 o 16.971 15.465 180.00 0.78599 0.06
11 3 -10 o 2.595 2.366 180.00 0.78536 0.01
14 12 -1 o 188.414 172.254 0.00 0.78478 0.70
17 0 8 o 115.456 105.585 0.00 0.78473 0.21
9 1 11 o 54.379 49.782 180.00 0.78458 0.20
6 5 -11 o 486.240 445.133 180.00 0.78458 1.80
18 3 6 o 46.181 42.399 180.00 0.78424 0.17
18 3 -6 o 46.816 42.982 180.00 0.78424 0.17
17 7 4 o 344.413 317.392 0.00 0.78389 1.28
2 2 12 o 82.721 76.285 0.00 0.78383 0.31
18 7 2 o 5.119 4.730 180.00 0.78368 0.02
21 3 0 o 29.843 27.601 180.00 0.78361 0.11
14 7 7 o 33.426 31.048 0.00 0.78332 0.12
18 1 -7 o 4.645 4.315 0.00 0.78332 0.02
17 6 5 o 5.167 4.834 180.00 0.78291 0.02
19 3 -5 o 10.515 9.837 0.00 0.78290 0.04
15 11 1 o 73.372 69.214 180.00 0.78249 0.27
19 6 1 o 181.620 171.329 180.00 0.78249 0.67
16 2 8 o 6.869 6.486 0.00 0.78244 0.03
17 3 -7 o 5.187 5.363 0.00 0.77879 0.02
12 2 10 o 1.852 1.925 180.00 0.77853 0.01
13 11 5 o 38.570 40.225 0.00 0.77837 0.14
16 10 0 o 291.116 282.195 180.00 0.78133 1.08
17 8 -3 o 1.258 1.320 0.00 0.77810 0.00
17 8 3 o 187.649 196.777 180.00 0.77810 0.69
10 0 -11 o 2811.152 2966.000 0.00 0.77777 5.18
8 7 10 o 5.567 5.472 0.00 0.78079 0.02
13 0 10 o 7.313 7.189 0.00 0.78079 0.01
4 1 -12 o 0.413 0.441 0.00 0.77704 0.00
4 1 12 o 97.161 103.712 180.00 0.77704 0.36
8 3 11 o 1.982 1.988 180.00 0.78002 0.01
14 12 2 o 169.455 181.246 0.00 0.77690 0.62
10 5 -10 o 408.017 439.477 0.00 0.77630 1.50
21 1 -4 o 19.002 19.385 0.00 0.77935 0.07
13 4 9 o 0.082 0.083 0.00 0.77933 0.00
13 4 -9 o 0.001 0.001 0.00 0.77933 0.00
14 10 -5 o 116.491 125.670 0.00 0.77614 0.43
15 4 8 o 0.174 0.189 180.00 0.77569 0.00
11 9 8 o 87.649 94.909 180.00 0.77569 0.32
9 2 -11 o 26.804 29.052 180.00 0.77554 0.10
17 5 6 o 215.687 234.183 0.00 0.77521 0.79
13 10 -6 o 0.461 0.501 0.00 0.77521 0.00
17 5 -6 o 284.785 309.206 0.00 0.77521 1.05
13 10 6 o 0.115 0.125 180.00 0.77521 0.00
13 12 4 o 186.205 202.412 180.00 0.77488 0.68
20 3 -4 o 217.994 236.967 180.00 0.77488 0.80
9 9 9 o 49.173 53.455 0.00 0.77486 0.18
19 6 -2 o 215.138 233.948 180.00 0.77467 0.79
15 11 -2 o 166.166 180.695 180.00 0.77467 0.61
20 5 0 o 1799.535 1956.990 0.00 0.77461 6.61
18 5 -5 o 4.772 5.183 180.00 0.77392 0.02
17 9 -1 o 35.342 38.290 0.00 0.77352 0.13
12 8 -8 o 87.284 94.530 180.00 0.77347 0.32
3 3 12 o 13.792 14.783 0.00 0.77261 0.05
11 4 10 o 169.460 179.344 180.00 0.77188 0.62
17 1 -8 o 106.063 111.013 0.00 0.77128 0.39
7 5 11 o 99.925 104.325 0.00 0.77114 0.37
15 10 -4 o 1883.787 1947.297 0.00 0.77048 6.89
19 0 7 o 115.592 118.817 0.00 0.76994 0.21
16 5 -7 o 674.543 693.360 180.00 0.76994 2.47
23 0 -1 o 0.359 0.368 180.00 0.76915 0.00
8 4 -11 o 75.786 77.625 0.00 0.76896 0.28
12 6 -9 o 13.962 14.319 180.00 0.76830 0.05
12 6 9 o 7.945 8.148 180.00 0.76830 0.03
18 2 7 o 14.616 15.020 180.00 0.76778 0.05
12 10 -7 o 0.034 0.035 0.00 0.76778 0.00
16 8 5 o 29.965 30.841 180.00 0.76738 0.11
18 8 1 o 0.178 0.184 0.00 0.76699 0.00
22 2 -1 o 40.456 41.698 0.00 0.76699 0.15
16 3 -8 o 0.013 0.013 0.00 0.76695 0.00
16 9 4 o 144.593 149.280 180.00 0.76616 0.53
19 5 -4 o 103.098 106.440 0.00 0.76616 0.38
6 0 -12 o 12.931 13.351 180.00 0.76611 0.02
6 0 12 o 434.754 448.856 180.00 0.76611 0.79
17 9 2 o 128.012 132.162 0.00 0.76597 0.47
13 9 7 o 130.611 134.797 0.00 0.76563 0.48
22 1 -3 o 6.898 7.104 0.00 0.76498 0.03
13 13 3 o 7.099 7.311 0.00 0.76498 0.03
22 1 3 o 27.099 27.908 0.00 0.76498 0.10
14 6 8 o 125.478 129.102 180.00 0.76481 0.46
22 0 4 o 83.633 85.531 0.00 0.76403 0.15
5 2 12 o 20.279 20.728 180.00 0.76398 0.07
5 2 -12 o 3.522 3.600 0.00 0.76398 0.01
9 7 -10 o 1.431 1.451 0.00 0.76327 0.01
11 0 11 o 401.993 403.233 180.00 0.76255 0.73
16 7 6 o 64.210 64.074 180.00 0.76224 0.23
16 7 -6 o 51.935 51.824 180.00 0.76224 0.19
21 2 4 o 7.516 7.457 0.00 0.76192 0.03
23 0 2 o 3.613 3.573 0.00 0.76172 0.01
19 7 0 o 1.815 1.792 0.00 0.76166 0.01
17 4 7 o 7.702 7.568 0.00 0.76139 0.03
10 6 10 o 330.631 323.449 180.00 0.76116 1.20
14 0 -10 o 52.131 50.998 0.00 0.76116 0.09
17 7 -5 o 8.638 8.427 0.00 0.76101 0.03
21 3 3 o 37.504 36.415 0.00 0.76075 0.14
21 3 -3 o 42.352 41.122 180.00 0.76075 0.15
21 4 -1 o 457.553 443.246 180.00 0.76063 1.66
10 2 11 o 42.337 40.884 180.00 0.76044 0.15
22 2 2 o 0.879 0.839 180.00 0.75963 0.00
18 8 -2 o 15.948 15.214 180.00 0.75963 0.06
13 2 -10 o 22.328 21.185 180.00 0.75907 0.08
16 10 -3 o 617.121 584.266 180.00 0.75867 2.24
16 10 3 o 86.816 82.194 180.00 0.75867 0.31
15 5 -8 o 2222.329 2103.034 0.00 0.75850 8.05
7 6 -11 o 4.395 4.158 0.00 0.75836 0.02
4 4 12 o 8.958 8.485 180.00 0.75769 0.03
15 12 0 o 0.846 0.802 180.00 0.75749 0.00
15 7 -7 o 55.609 52.775 0.00 0.75722 0.20
21 1 5 o 25.018 23.787 0.00 0.75685 0.09
14 13 1 o 72.323 68.868 0.00 0.75647 0.26
20 4 4 o 1.032 0.983 180.00 0.75567 0.00
11 10 -8 o 130.760 123.182 180.00 0.75437 0.47
11 1 -11 o 0.326 0.306 180.00 0.75424 0.00
9 4 11 o 3.627 3.410 180.00 0.75424 0.01
18 7 -4 o 220.434 205.073 180.00 0.75363 0.80
11 8 -9 o 33.861 31.495 0.00 0.75362 0.12
16 1 -9 o 7.986 7.428 180.00 0.75362 0.03
16 1 9 o 0.170 0.158 0.00 0.75362 0.00
11 8 9 o 3.245 3.018 180.00 0.75362 0.01
21 4 2 o 404.420 374.906 180.00 0.75344 1.46
12 4 -10 o 36.928 33.862 0.00 0.75289 0.13
13 12 -5 o 2.800 2.560 180.00 0.75275 0.01
20 3 5 o 136.065 124.402 180.00 0.75275 0.49
20 5 -3 o 835.427 759.998 0.00 0.75250 3.01
20 5 3 o 606.150 551.422 0.00 0.75250 2.18
23 1 1 o 39.765 36.084 0.00 0.75238 0.14
16 11 -1 o 0.368 0.334 180.00 0.75238 0.00
12 12 6 o 0.053 0.047 180.00 0.75191 0.00
7 1 12 o 46.766 41.750 0.00 0.75155 0.17
7 1 -12 o 63.981 57.118 0.00 0.75155 0.23
16 6 7 o 5.695 5.043 0.00 0.75110 0.02
14 1 10 o 24.685 21.774 180.00 0.75087 0.09
20 6 -1 o 583.171 510.372 180.00 0.75036 2.10
13 8 8 o 14.863 13.000 0.00 0.75032 0.05
10 3 -11 o 71.220 62.184 180.00 0.75019 0.26
15 3 9 o 59.140 51.296 180.00 0.74957 0.21
15 3 -9 o 41.208 35.742 180.00 0.74957 0.15
14 13 -2 o 0.052 0.045 180.00 0.74940 0.00
15 10 5 o 578.697 500.002 0.00 0.74872 2.08
17 10 1 o 64.226 55.530 0.00 0.74836 0.23
22 3 1 o 12.602 10.896 0.00 0.74836 0.05
12 11 7 o 0.669 0.614 180.00 0.74511 0.00
14 12 -4 o 38.627 33.606 0.00 0.74759 0.14
16 9 -5 o 415.625 385.446 180.00 0.74476 1.49
19 5 5 o 192.653 178.664 0.00 0.74476 0.69
6 3 -12 o 3.757 3.271 180.00 0.74754 0.01
6 3 12 o 73.744 64.200 180.00 0.74754 0.26
8 6 11 o 31.004 29.157 180.00 0.74423 0.11
13 3 10 o 108.707 95.644 180.00 0.74687 0.39
9 8 10 o 4.875 4.289 180.00 0.74687 0.02
20 2 6 o 2.432 2.304 0.00 0.74394 0.01
20 2 -6 o 37.078 35.119 0.00 0.74394 0.13
18 1 8 o 1.910 1.700 0.00 0.74633 0.01
14 7 -8 o 9.443 8.404 0.00 0.74633 0.03
20 6 2 o 308.952 295.799 180.00 0.74346 1.11
20 0 -7 o 1180.767 1137.486 0.00 0.74315 2.11
21 0 6 o 19.777 17.779 180.00 0.74591 0.04
15 9 -6 o 51.045 45.890 0.00 0.74591 0.18
15 9 6 o 0.424 0.382 0.00 0.74591 0.00
21 0 -6 o 193.906 174.320 180.00 0.74591 0.35
11 6 -10 o 1.330 1.287 0.00 0.74293 0.00
15 11 4 o 265.044 240.130 180.00 0.74561 0.95
19 6 4 o 78.528 71.147 180.00 0.74561 0.28
22 0 -5 o 272.656 264.336 0.00 0.74280 0.49
23 1 -2 o 57.062 51.947 0.00 0.74543 0.20
16 11 2 o 13.183 12.002 180.00 0.74543 0.05
18 9 0 o 226.913 206.908 0.00 0.74537 0.81
17 3 8 o 51.172 49.918 180.00 0.74240 0.18
9 5 -11 o 5.660 5.532 0.00 0.74227 0.02
14 5 -9 o 128.387 126.481 0.00 0.74168 0.46
14 5 9 o 255.414 251.622 0.00 0.74168 0.91
17 10 -2 o 253.575 250.382 0.00 0.74151 0.91
22 3 -2 o 7.989 7.888 0.00 0.74151 0.03
19 2 -7 o 18.125 17.975 180.00 0.74121 0.06
14 9 -7 o 10.262 10.178 0.00 0.74121 0.04
21 2 -5 o 7.238 7.220 180.00 0.74085 0.03
19 7 -3 o 1.420 1.423 0.00 0.74062 0.01
19 7 3 o 106.035 106.254 0.00 0.74062 0.38
21 5 1 o 342.481 344.050 180.00 0.74050 1.22
5 5 12 o 2667.707 2738.812 0.00 0.73970 9.53
24 0 0 o 77.600 80.180 0.00 0.73952 0.14
12 5 10 o 137.353 144.482 0.00 0.73906 0.49
12 1 11 o 12.174 13.184 0.00 0.73841 0.04
19 4 6 o 27.133 29.775 0.00 0.73813 0.10
19 4 -6 o 84.980 93.253 0.00 0.73813 0.30
17 9 -4 o 29.527 32.845 0.00 0.73783 0.11
23 2 0 o 267.058 300.203 180.00 0.73760 0.95
15 8 7 o 10.580 12.019 180.00 0.73736 0.04
15 12 3 o 0.294 0.342 180.00 0.73678 0.00
15 12 -3 o 63.870 74.192 0.00 0.73678 0.23
19 8 -1 o 35.647 41.567 0.00 0.73666 0.13
10 10 9 o 395.259 469.833 0.00 0.73592 1.41
9 0 -12 o 4.435 5.275 0.00 0.73588 0.01
9 0 12 o 32.570 38.743 0.00 0.73588 0.06
18 4 -7 o 53.920 64.548 0.00 0.73546 0.19
20 4 -5 o 2.044 2.454 180.00 0.73511 0.01
19 0 -8 o 107.852 129.647 0.00 0.73473 0.19
16 5 8 o 507.898 610.536 180.00 0.73473 1.81
11 3 11 o 4.725 5.679 180.00 0.73460 0.02
23 0 -4 o 20.129 24.125 180.00 0.73404 0.04
8 2 -12 o 57.101 68.411 180.00 0.73399 0.20
8 2 12 o 11.022 13.206 180.00 0.73399 0.04
21 5 -2 o 65.627 78.534 180.00 0.73387 0.23
18 7 5 o 128.716 152.764 180.00 0.73323 0.46
12 10 8 o 26.627 31.393 0.00 0.73285 0.09
18 2 -8 o 140.587 165.753 180.00 0.73285 0.50
18 8 4 o 32.523 37.791 0.00 0.73216 0.12
22 2 -4 o 251.482 292.220 0.00 0.73216 0.89
14 14 0 o 0.178 0.205 0.00 0.73193 0.00
22 4 0 o 66.013 76.274 0.00 0.73193 0.23
1 0 13 o 15.127 17.289 180.00 0.73154 0.03
15 1 -10 o 119.087 135.922 180.00 0.73149 0.42
13 9 -8 o 212.433 238.642 0.00 0.73098 0.76
13 0 -11 o 19.373 21.673 0.00 0.73086 0.03
8 7 -11 o 101.931 114.036 180.00 0.73086 0.36
13 7 9 o 56.590 62.041 180.00 0.73029 0.20
13 7 -9 o 12.070 13.232 180.00 0.73029 0.04
19 8 2 o 0.368 0.400 180.00 0.73013 0.00
20 1 7 o 498.610 537.219 180.00 0.72984 1.77
2 0 -13 o 11.209 12.001 0.00 0.72968 0.02
10 8 -10 o 1.156 1.235 180.00 0.72963 0.00
20 7 1 o 37.210 39.028 0.00 0.72916 0.13
15 13 -1 o 57.838 60.665 180.00 0.72916 0.21
12 2 -11 o 162.322 169.187 0.00 0.72900 0.58
18 6 -6 o 49.716 51.275 0.00 0.72873 0.18
18 6 6 o 0.063 0.065 180.00 0.72873 0.00
7 4 -12 o 60.987 62.133 180.00 0.72841 0.22
7 4 12 o 10.140 10.331 180.00 0.72841 0.04
2 1 13 o 26.150 26.129 180.00 0.72784 0.09
11 7 10 o 96.331 96.110 180.00 0.72779 0.34
14 3 -10 o 0.001 0.001 180.00 0.72779 0.00
14 12 5 o 35.547 35.324 0.00 0.72766 0.13
16 12 1 o 3.007 2.960 180.00 0.72732 0.01
17 4 -8 o 0.258 0.254 0.00 0.72729 0.00
10 5 11 o 2312.943 2267.567 0.00 0.72717 8.21
14 11 6 o 282.938 275.642 180.00 0.72690 1.00
14 11 -6 o 238.661 232.506 180.00 0.72690 0.85
21 4 -4 o 325.254 315.027 180.00 0.72662 1.15
17 11 0 o 9.163 8.838 0.00 0.72640 0.03
19 3 7 o 186.007 178.726 0.00 0.72616 0.66
17 6 -7 o 3.388 3.255 0.00 0.72616 0.01
15 11 -5 o 385.106 368.211 180.00 0.72583 1.37
19 6 -5 o 96.043 91.829 180.00 0.72583 0.34
18 9 -3 o 56.690 54.044 0.00 0.72561 0.20
18 9 3 o 86.150 82.129 0.00 0.72561 0.31
3 1 -13 o 1.247 1.171 0.00 0.72419 0.00
15 7 8 o 8.804 8.235 180.00 0.72365 0.03
11 4 -11 o 258.158 241.274 180.00 0.72353 0.92
14 13 4 o 284.478 264.990 0.00 0.72299 1.01
20 7 -2 o 47.385 44.101 0.00 0.72283 0.17
15 13 2 o 5.933 5.522 180.00 0.72283 0.02
21 6 0 o 42.052 39.128 0.00 0.72277 0.15
13 11 -7 o 0.098 0.091 0.00 0.72254 0.00
4 0 13 o 69.144 64.227 0.00 0.72239 0.12
16 0 10 o 36.413 33.818 180.00 0.72234 0.06
24 1 -1 o 61.238 56.779 180.00 0.72189 0.22
18 0 -9 o 5.641 5.218 180.00 0.72119 0.01
18 0 9 o 16.379 15.149 180.00 0.72119 0.03
16 12 -2 o 42.653 39.429 180.00 0.72104 0.15
14 10 7 o 58.277 53.806 0.00 0.72076 0.21
3 2 13 o 2.035 1.877 180.00 0.72060 0.01
13 5 -10 o 12.279 11.326 0.00 0.72056 0.04
15 2 10 o 2.749 2.535 0.00 0.72056 0.01
20 6 -4 o 497.936 447.607 180.00 0.71765 1.76
24 0 -3 o 68.007 62.611 0.00 0.72021 0.12
24 0 3 o 206.082 189.730 0.00 0.72021 0.36
10 1 -12 o 496.403 446.007 180.00 0.71761 1.76
10 1 12 o 46.472 41.754 180.00 0.71761 0.16
18 10 -1 o 25.656 23.605 180.00 0.72010 0.09
5 0 -13 o 731.472 653.346 0.00 0.71706 1.29
23 1 4 o 3.007 2.753 180.00 0.71942 0.01
16 11 -4 o 12.078 11.058 0.00 0.71942 0.04
17 2 9 o 3.235 2.961 0.00 0.71941 0.01
17 2 -9 o 1.307 1.197 0.00 0.71941 0.00
6 6 12 o 46.390 42.455 180.00 0.71937 0.16
18 5 7 o 12.726 11.607 180.00 0.71898 0.05
9 7 11 o 0.672 0.597 0.00 0.71642 0.00
17 8 6 o 17.424 15.452 180.00 0.71617 0.06
17 8 -6 o 11.942 10.590 0.00 0.71617 0.04
17 9 5 o 185.630 168.768 0.00 0.71866 0.66
23 2 -3 o 297.279 269.665 180.00 0.71844 1.05
23 2 3 o 45.009 40.828 180.00 0.71844 0.16
17 10 4 o 28.638 25.366 0.00 0.71590 0.10
22 3 4 o 78.403 69.444 180.00 0.71590 0.28
12 9 9 o 77.186 68.363 0.00 0.71589 0.27
12 9 -9 o 6.646 5.887 0.00 0.71589 0.02
23 3 -1 o 0.582 0.528 0.00 0.71833 0.00
16 6 -8 o 0.509 0.461 180.00 0.71830 0.00
24 1 2 o 170.544 150.983 180.00 0.71574 0.60
4 2 -13 o 0.184 0.163 0.00 0.71531 0.00
14 4 10 o 17.129 15.161 0.00 0.71527 0.06
23 0 5 o 31.069 27.505 180.00 0.71515 0.05
19 9 1 o 48.405 42.904 0.00 0.71483 0.17
10 6 -11 o 435.751 386.573 180.00 0.71468 1.54
14 0 11 o 42.379 37.596 0.00 0.71468 0.07
16 4 9 o 94.532 84.255 180.00 0.71415 0.33
16 4 -9 o 377.286 336.271 180.00 0.71415 1.33
9 3 12 o 172.013 153.373 0.00 0.71411 0.61
9 3 -12 o 144.272 128.638 0.00 0.71411 0.51
18 10 2 o 0.785 0.701 180.00 0.71400 0.00
16 8 -7 o 70.596 63.253 180.00 0.71373 0.25
5 1 13 o 0.293 0.263 180.00 0.71358 0.00
10 9 10 o 9.535 8.568 0.00 0.71353 0.03
22 2 5 o 25.346 22.817 0.00 0.71341 0.09
18 8 -5 o 0.621 0.559 180.00 0.71341 0.00
22 4 -3 o 154.313 139.396 0.00 0.71320 0.55
14 14 3 o 22.621 20.434 0.00 0.71320 0.08
22 4 3 o 50.796 45.885 0.00 0.71320 0.18
12 11 -8 o 25.414 23.013 0.00 0.71306 0.09
13 2 11 o 0.007 0.006 180.00 0.71295 0.00
23 3 2 o 22.303 20.490 180.00 0.71227 0.08
22 5 -1 o 221.348 206.790 0.00 0.71138 0.78
20 0 8 o 2057.543 1923.411 0.00 0.71134 3.64
20 8 0 o 279.721 265.007 180.00 0.71051 0.99
4 3 13 o 14.102 13.424 180.00 0.71014 0.05
12 7 -10 o 0.345 0.328 0.00 0.71010 0.00
14 9 8 o 3.362 3.218 0.00 0.70963 0.01
19 2 8 o 29.974 28.693 180.00 0.70963 0.11
21 5 4 o 293.990 282.971 180.00 0.70901 1.04
19 9 -2 o 94.188 90.769 0.00 0.70886 0.33
17 7 7 o 211.022 203.797 0.00 0.70859 0.75
21 4 5 o 153.116 148.255 180.00 0.70828 0.54
17 11 -3 o 4.131 4.008 180.00 0.70807 0.01
17 11 3 o 0.004 0.003 0.00 0.70807 0.00
25 0 1 o 600.005 582.649 0.00 0.70797 1.06
12 4 11 o 0.922 0.897 180.00 0.70783 0.00
8 5 12 o 89.488 87.655 180.00 0.70728 0.32
8 5 -12 o 8.240 8.071 180.00 0.70728 0.03
6 1 -13 o 5.611 5.549 180.00 0.70676 0.02
13 6 10 o 2.366 2.343 180.00 0.70671 0.01
24 2 1 o 0.100 0.100 0.00 0.70629 0.00
15 8 -8 o 178.325 178.573 180.00 0.70625 0.63
14 1 -11 o 24.826 24.939 180.00 0.70614 0.09
13 13 6 o 21.802 22.067 180.00 0.70590 0.08
22 1 -6 o 28.280 28.624 180.00 0.70590 0.10
22 1 6 o 12.935 13.092 180.00 0.70590 0.05
19 8 -4 o 256.428 261.762 0.00 0.70564 0.91
15 6 9 o 44.320 45.255 180.00 0.70563 0.16
15 6 -9 o 307.406 313.892 180.00 0.70563 1.09
22 5 2 o 335.799 344.628 0.00 0.70549 1.19
16 13 0 o 46.449 47.757 180.00 0.70544 0.16
21 1 -7 o 51.184 53.039 0.00 0.70523 0.18
14 13 -5 o 11.408 11.960 0.00 0.70492 0.04
21 6 -3 o 33.180 35.061 0.00 0.70472 0.12
21 6 3 o 8.579 9.066 0.00 0.70472 0.03
15 14 1 o 36.619 38.848 0.00 0.70462 0.13
18 4 8 o 107.672 114.378 0.00 0.70458 0.38
7 0 13 o 7.154 7.926 0.00 0.70342 0.01
5 3 -13 o 0.071 0.079 180.00 0.70342 0.00
17 0 -10 o 183.475 203.547 0.00 0.70338 0.32
13 3 -11 o 3.277 3.691 180.00 0.70281 0.01
9 8 -11 o 99.756 112.343 0.00 0.70281 0.35
21 3 6 o 73.474 83.154 0.00 0.70257 0.26
21 3 -6 o 7.528 8.520 0.00 0.70257 0.03
25 0 -2 o 27.946 31.815 0.00 0.70217 0.05
20 3 -7 o 177.843 202.935 180.00 0.70191 0.63
13 12 7 o 2.979 3.399 180.00 0.70191 0.01
6 2 13 o 40.610 46.377 180.00 0.70177 0.14
16 2 -10 o 74.785 85.419 180.00 0.70173 0.26
16 11 5 o 1.239 1.415 180.00 0.70161 0.00
23 1 -5 o 2.946 3.366 180.00 0.70161 0.01
17 12 -1 o 52.907 60.445 0.00 0.70131 0.19
21 7 -1 o 3.119 3.564 180.00 0.70131 0.01
23 4 1 o 3.525 4.028 0.00 0.70131 0.01
16 10 -6 o 161.798 184.528 180.00 0.70092 0.57
16 10 6 o 50.505 57.600 180.00 0.70092 0.18
24 2 -2 o 86.399 98.213 0.00 0.70053 0.31
20 6 5 o 80.861 91.388 180.00 0.69997 0.29
20 1 -8 o 443.354 499.311 180.00 0.69964 1.57
11 6 11 o 0.000 0.000 180.00 0.69953 0.00
20 7 4 o 19.536 21.880 180.00 0.69904 0.07
15 13 -4 o 176.589 197.774 180.00 0.69904 0.62
11 11 9 o 11.288 12.641 180.00 0.69903 0.04
12 0 -12 o 0.414 0.464 0.00 0.69900 0.00
12 0 12 o 47.741 53.450 0.00 0.69900 0.08
15 14 -2 o 45.600 51.011 0.00 0.69889 0.16
17 6 8 o 20.322 22.250 0.00 0.69640 0.07
19 3 -8 o 222.009 243.068 0.00 0.69640 0.79
12 5 -11 o 1.562 1.708 180.00 0.69629 0.01
15 10 -7 o 784.216 875.654 0.00 0.69864 2.77
20 5 6 o 34.082 37.106 0.00 0.69606 0.12
20 5 -6 o 70.601 76.866 0.00 0.69606 0.25
17 10 -5 o 162.541 181.147 0.00 0.69834 0.58
22 3 -5 o 56.751 63.247 180.00 0.69834 0.20
18 11 1 o 16.179 17.997 0.00 0.69805 0.06
23 4 -2 o 11.518 12.442 180.00 0.69567 0.04
21 7 2 o 35.415 38.254 180.00 0.69567 0.13
17 12 2 o 0.046 0.050 180.00 0.69567 0.00
19 10 0 o 39.098 42.185 0.00 0.69562 0.14
25 1 0 o 279.587 301.665 180.00 0.69562 0.99
16 9 7 o 268.182 287.958 180.00 0.69541 0.95
19 5 -7 o 41.455 44.511 0.00 0.69541 0.15
8 0 -13 o 2.705 2.895 180.00 0.69528 0.00
12 8 10 o 24.325 25.997 180.00 0.69523 0.09
16 12 4 o 7.844 8.688 0.00 0.69742 0.03
11 2 12 o 9.750 10.796 0.00 0.69738 0.03
7 7 12 o 148.478 164.403 0.00 0.69738 0.53
11 2 -12 o 6.267 6.939 0.00 0.69738 0.02
5 4 13 o 0.861 0.949 0.00 0.69688 0.00
11 9 -10 o 142.275 156.722 180.00 0.69684 0.50
15 4 -10 o 12.139 13.371 0.00 0.69684 0.04
14 8 -9 o 3.399 3.514 0.00 0.69421 0.01
14 8 9 o 6.544 6.765 0.00 0.69421 0.02
22 0 7 o 198.147 201.797 0.00 0.69382 0.35
7 2 -13 o 2.895 2.932 180.00 0.69368 0.01
17 1 10 o 20.280 20.505 180.00 0.69364 0.07
20 8 3 o 63.219 63.108 180.00 0.69333 0.22
20 8 -3 o 174.949 174.643 180.00 0.69333 0.62
22 6 1 o 4.941 4.912 180.00 0.69324 0.02
13 11 8 o 0.035 0.035 180.00 0.69320 0.00
24 1 -4 o 25.407 24.607 180.00 0.69263 0.09
10 4 12 o 2.612 2.525 180.00 0.69259 0.01
10 4 -12 o 7.033 6.800 0.00 0.69259 0.02
18 11 -2 o 13.368 12.869 0.00 0.69248 0.05
24 3 0 o 285.131 273.927 0.00 0.69243 1.01
21 2 7 o 0.097 0.093 0.00 0.69223 0.00
21 5 -5 o 2.061 1.941 0.00 0.69194 0.01
14 10 -8 o 56.539 52.630 0.00 0.69162 0.20
18 10 -4 o 86.714 79.225 180.00 0.69105 0.31
8 1 13 o 14.401 12.984 0.00 0.69052 0.05
16 3 10 o 61.582 55.474 0.00 0.69048 0.22
18 5 -8 o 26.488 23.681 180.00 0.69005 0.09
15 1 11 o 422.109 376.860 180.00 0.68995 1.50
23 3 -4 o 36.817 32.733 0.00 0.68948 0.13
19 1 -9 o 8.910 7.922 180.00 0.68948 0.03
19 1 9 o 103.965 92.430 180.00 0.68948 0.37
6 4 -13 o 83.714 74.370 180.00 0.68896 0.30
14 6 -10 o 72.102 64.060 180.00 0.68892 0.26
19 8 5 o 28.292 25.146 0.00 0.68881 0.10
16 13 -3 o 88.876 79.068 180.00 0.68862 0.32
16 13 3 o 12.583 11.194 0.00 0.68862 0.04
20 9 -1 o 0.034 0.031 180.00 0.68853 0.00
10 8 11 o 0.948 0.845 0.00 0.68839 0.00
22 6 -2 o 43.927 39.411 180.00 0.68779 0.16
20 4 7 o 8.686 7.819 180.00 0.68754 0.03
7 3 13 o 6.055 5.462 0.00 0.68741 0.02
14 3 11 o 197.074 179.282 0.00 0.68684 0.70
11 7 -11 o 3.142 2.858 180.00 0.68684 0.01
19 7 -6 o 102.903 93.938 0.00 0.68662 0.37
19 7 6 o 193.413 176.563 0.00 0.68662 0.69
19 9 4 o 1.130 1.035 0.00 0.68638 0.00
18 3 9 o 24.969 22.877 180.00 0.68637 0.09
18 3 -9 o 15.749 14.430 180.00 0.68637 0.06
23 5 0 o 78.953 72.530 180.00 0.68619 0.28
18 7 -7 o 287.860 265.171 180.00 0.68600 1.02
16 8 8 o 93.397 86.680 180.00 0.68541 0.33
9 6 12 o 198.823 185.626 180.00 0.68481 0.71
9 6 -12 o 27.555 25.726 180.00 0.68481 0.10
15 5 10 o 212.221 198.909 0.00 0.68430 0.76
15 12 6 o 93.408 87.946 0.00 0.68355 0.33
15 12 -6 o 130.984 123.325 0.00 0.68355 0.47
22 5 -4 o 13.696 12.913 0.00 0.68332 0.05
20 9 2 o 3.051 2.879 180.00 0.68318 0.01
15 15 0 o 1363.619 1287.231 0.00 0.68314 2.43
20 7 -5 o 5.765 5.460 180.00 0.68267 0.02
15 13 5 o 67.970 64.379 180.00 0.68267 0.24
21 8 1 o 33.885 32.167 180.00 0.68239 0.12
16 0 -11 o 454.287 431.745 180.00 0.68226 0.81
14 12 -7 o 14.461 13.861 0.00 0.68143 0.05
9 1 -13 o 11.864 11.389 0.00 0.68130 0.04
6 5 13 o 134.511 129.125 180.00 0.68130 0.48
11 10 10 o 88.303 84.806 180.00 0.68127 0.32
16 12 -5 o 12.953 12.457 180.00 0.68116 0.05
16 14 -1 o 332.473 320.855 180.00 0.68088 1.19
26 0 -1 o 2.803 2.705 0.00 0.68088 0.01
17 7 -8 o 270.675 261.322 0.00 0.68085 0.97
18 12 0 o 216.174 215.387 180.00 0.67863 0.77
13 5 11 o 42.789 41.366 180.00 0.68075 0.15
15 2 -11 o 38.501 37.220 0.00 0.68075 0.14
8 3 -13 o 45.649 45.643 180.00 0.67831 0.16
13 8 -10 o 63.131 63.146 180.00 0.67827 0.23
25 0 4 o 1516.805 1475.603 0.00 0.68030 2.71
13 10 9 o 27.948 27.191 180.00 0.68030 0.10
13 10 -9 o 23.787 23.144 180.00 0.68030 0.08
17 5 -9 o 267.279 260.047 0.00 0.68030 0.95
17 5 9 o 127.014 123.577 0.00 0.68030 0.45
2 0 14 o 64.289 64.516 0.00 0.67788 0.12
21 1 8 o 17.360 17.422 0.00 0.67787 0.06
15 11 7 o 534.770 523.112 180.00 0.67993 1.91
19 6 7 o 82.779 80.975 180.00 0.67993 0.30
15 14 4 o 18.697 18.815 0.00 0.67733 0.07
19 10 3 o 93.048 91.642 0.00 0.67948 0.33
19 10 -3 o 37.570 37.002 0.00 0.67948 0.13
25 1 -3 o 256.310 252.435 180.00 0.67948 0.92
25 1 3 o 441.355 434.684 180.00 0.67948 1.58
25 2 -1 o 78.715 77.631 180.00 0.67939 0.28
17 13 1 o 1.354 1.336 0.00 0.67939 0.00
21 8 -2 o 15.950 16.058 0.00 0.67719 0.06
1 0 -14 o 41.335 40.779 180.00 0.67936 0.07
22 7 0 o 313.031 315.179 0.00 0.67715 1.12
10 0 13 o 510.815 514.604 0.00 0.67683 0.92
24 1 5 o 130.638 131.624 180.00 0.67669 0.47
24 2 4 o 2.505 2.490 180.00 0.67881 0.01
13 1 -12 o 22.420 22.301 180.00 0.67877 0.08
13 1 12 o 1.340 1.333 0.00 0.67877 0.00
24 3 3 o 82.767 83.396 0.00 0.67651 0.30
24 3 -3 o 112.318 113.172 0.00 0.67651 0.40
2 1 -14 o 64.146 64.633 180.00 0.67640 0.23
14 4 -11 o 0.173 0.175 180.00 0.67629 0.00
12 3 -12 o 14.139 14.244 180.00 0.67581 0.05
12 3 12 o 30.572 30.801 180.00 0.67581 0.11
26 0 2 o 12.059 12.149 180.00 0.67572 0.02
16 14 2 o 343.458 346.021 180.00 0.67572 1.23
9 2 13 o 0.000 0.000 180.00 0.67536 0.00
14 7 10 o 98.320 99.047 0.00 0.67532 0.35
18 1 -10 o 45.258 45.593 0.00 0.67532 0.16
18 10 5 o 43.103 43.422 180.00 0.67522 0.15
24 4 -1 o 0.725 0.731 180.00 0.67495 0.00
13 12 -8 o 100.595 101.341 180.00 0.67492 0.36
20 3 8 o 177.648 178.966 180.00 0.67492 0.64
10 9 -11 o 11.051 11.133 0.00 0.67482 0.04
18 9 6 o 3.020 3.043 180.00 0.67461 0.01
18 9 -6 o 5.628 5.670 180.00 0.67461 0.02
21 7 -4 o 8.254 8.315 0.00 0.67439 0.03
23 4 4 o 97.306 98.032 0.00 0.67439 0.35
17 12 -4 o 318.889 321.266 0.00 0.67439 1.15
8 8 12 o 5.526 5.567 0.00 0.67435 0.02
17 13 -2 o 1.255 1.264 0.00 0.67425 0.00
25 2 2 o 3.880 3.909 0.00 0.67425 0.01
17 9 -7 o 116.677 117.530 0.00 0.67402 0.42
23 3 5 o 3.681 3.707 180.00 0.67376 0.01
19 11 -1 o 145.365 146.321 180.00 0.67349 0.52
3 1 14 o 0.137 0.138 0.00 0.67347 0.00
7 5 -13 o 93.041 93.354 0.00 0.67244 0.33
17 3 -10 o 32.040 32.144 0.00 0.67241 0.12
4 0 -14 o 0.431 0.432 180.00 0.67202 0.00
15 10 8 o 1519.957 1522.582 0.00 0.67201 5.47
12 7 11 o 211.061 211.355 0.00 0.67192 0.76
18 11 4 o 13.148 13.147 180.00 0.67148 0.05
16 7 9 o 26.363 26.363 180.00 0.67148 0.10
16 7 -9 o 16.905 16.904 180.00 0.67148 0.06
23 0 -7 o 0.012 0.012 180.00 0.67113 0.00
8 4 13 o 2.579 2.577 180.00 0.67100 0.01
19 9 -5 o 15.310 15.295 0.00 0.67086 0.06
23 5 -3 o 11.764 11.753 180.00 0.67069 0.04
23 5 3 o 17.142 17.125 180.00 0.67069 0.06
3 2 -14 o 0.400 0.399 0.00 0.67058 0.00
24 0 6 o 342.894 342.884 0.00 0.67027 0.62
24 0 -6 o 120.002 119.999 0.00 0.67026 0.22
11 5 -12 o 45.971 46.026 180.00 0.67001 0.17
11 5 12 o 584.192 584.885 180.00 0.67001 2.11
24 4 2 o 28.655 28.707 0.00 0.66992 0.10
18 8 7 o 9.483 9.517 0.00 0.66969 0.03
22 2 -7 o 194.096 194.774 0.00 0.66969 0.70
20 10 1 o 424.337 428.401 0.00 0.66917 1.53
19 5 8 o 57.783 58.361 0.00 0.66914 0.21
16 9 -8 o 304.402 307.448 180.00 0.66914 1.10
13 6 -11 o 6.173 6.243 180.00 0.66905 0.02
23 2 -6 o 63.082 64.030 180.00 0.66884 0.23
23 2 6 o 4.743 4.814 180.00 0.66884 0.02
19 11 2 o 329.189 336.405 180.00 0.66849 1.19
22 5 5 o 140.896 145.600 0.00 0.66801 0.51
15 15 3 o 427.565 443.750 0.00 0.66783 1.55
23 6 -1 o 46.482 48.347 180.00 0.66775 0.17
26 1 1 o 85.572 89.006 0.00 0.66775 0.31
5 0 14 o 1023.294 1064.954 0.00 0.66772 1.85
22 0 -8 o 14.958 15.570 0.00 0.66772 0.03
22 6 4 o 18.843 19.880 0.00 0.66720 0.07
11 0 -13 o 17.591 18.783 180.00 0.66673 0.03
19 0 10 o 277.074 296.105 0.00 0.66669 0.50
16 5 -10 o 225.410 240.892 180.00 0.66669 0.82
4 2 14 o 5.118 5.516 0.00 0.66631 0.02
21 2 -8 o 10.041 10.824 0.00 0.66630 0.04
17 0 11 o 192.562 207.974 0.00 0.66621 0.35
7 6 13 o 19.307 21.054 180.00 0.66392 0.07
13 9 10 o 0.977 1.064 180.00 0.66389 0.00
24 2 -5 o 133.890 145.669 0.00 0.66379 0.49
18 12 -3 o 242.272 262.715 180.00 0.66362 0.88
18 12 3 o 3.878 4.206 180.00 0.66362 0.01
21 9 0 o 159.982 174.514 180.00 0.66562 0.58
21 4 -7 o 240.123 262.498 180.00 0.66544 0.87
10 2 -13 o 2.210 2.419 0.00 0.66532 0.01
12 10 -10 o 94.455 103.415 0.00 0.66528 0.34
18 2 10 o 0.043 0.047 0.00 0.66528 0.00
25 0 -5 o 251.484 275.553 0.00 0.66518 0.46
20 9 -4 o 0.015 0.015 0.00 0.66300 0.00
25 3 1 o 203.401 223.166 180.00 0.66493 0.74
26 1 -2 o 48.390 51.395 0.00 0.66287 0.18
23 6 2 o 0.922 0.979 0.00 0.66287 0.00
5 1 -14 o 39.072 42.872 180.00 0.66491 0.14
16 2 11 o 0.052 0.057 180.00 0.66481 0.00
14 13 7 o 104.574 110.222 0.00 0.66265 0.38
14 14 6 o 60.641 66.542 0.00 0.66460 0.22
22 4 6 o 79.059 86.753 0.00 0.66460 0.29
22 4 -6 o 112.282 123.208 0.00 0.66460 0.41
15 14 -5 o 44.332 46.280 0.00 0.66240 0.16
12 12 9 o 5.263 5.770 0.00 0.66438 0.02
22 7 -3 o 134.356 139.319 0.00 0.66223 0.49
22 7 3 o 106.893 110.842 0.00 0.66223 0.39
20 10 -2 o 20.000 21.903 0.00 0.66426 0.07
4 3 -14 o 22.284 23.008 180.00 0.66213 0.08
20 4 -8 o 3.899 4.025 180.00 0.66212 0.01
10 7 -12 o 12.232 12.340 0.00 0.66158 0.04
10 7 12 o 0.253 0.255 180.00 0.66158 0.00
11 1 13 o 0.689 0.683 180.00 0.66115 0.00
9 4 -13 o 20.666 20.475 0.00 0.66115 0.08
17 4 10 o 31.421 31.088 0.00 0.66112 0.12
18 7 8 o 205.425 200.208 180.00 0.66074 0.75
11 9 11 o 183.258 177.994 180.00 0.66065 0.67
15 4 11 o 2.241 2.177 180.00 0.66065 0.01
17 11 -6 o 68.042 65.611 180.00 0.66045 0.25
17 11 6 o 44.207 42.628 180.00 0.66045 0.16
21 0 9 o 163.740 156.765 180.00 0.66023 0.30
15 9 9 o 0.445 0.426 0.00 0.66023 0.00
21 0 -9 o 0.007 0.007 180.00 0.66023 0.00
15 9 -9 o 50.455 48.306 0.00 0.66023 0.19
25 3 -2 o 45.172 43.090 180.00 0.66011 0.17
17 14 0 o 97.090 92.500 0.00 0.66007 0.36
23 1 7 o 19.251 18.252 180.00 0.65990 0.07
16 11 -7 o 14.688 13.926 0.00 0.65990 0.05
21 7 5 o 8.663 8.163 180.00 0.65965 0.03
17 12 5 o 30.259 28.511 0.00 0.65965 0.11
23 4 -5 o 4.779 4.503 0.00 0.65965 0.02
24 5 1 o 119.588 112.095 0.00 0.65940 0.44
16 15 1 o 328.662 308.069 180.00 0.65940 1.21
6 1 14 o 0.109 0.102 0.00 0.65938 0.00
12 8 -11 o 0.182 0.170 0.00 0.65928 0.00
20 2 9 o 29.590 27.516 0.00 0.65887 0.11
20 2 -9 o 3.805 3.538 180.00 0.65887 0.01
15 0 -12 o 1930.247 1794.429 0.00 0.65884 3.55
15 0 12 o 2051.848 1907.474 0.00 0.65884 3.77
20 6 -7 o 325.982 302.239 180.00 0.65853 1.20
10 3 13 o 10.221 9.470 180.00 0.65842 0.04
15 7 -10 o 110.248 102.127 0.00 0.65838 0.41
22 8 -1 o 157.473 145.706 180.00 0.65804 0.58
17 1 -11 o 35.541 32.881 0.00 0.65792 0.13
21 6 6 o 3.854 3.565 0.00 0.65772 0.01
21 6 -6 o 10.490 9.705 0.00 0.65772 0.04
21 8 4 o 45.083 41.723 180.00 0.65752 0.17
14 2 -12 o 1.998 1.849 0.00 0.65748 0.01
14 2 12 o 43.181 39.966 180.00 0.65748 0.16
27 0 0 o 32.007 29.636 0.00 0.65735 0.06
22 3 7 o 162.494 150.559 180.00 0.65718 0.60
17 10 7 o 152.433 141.237 0.00 0.65718 0.56
18 11 -5 o 38.958 36.144 180.00 0.65693 0.14
18 13 -1 o 9.431 8.764 0.00 0.65669 0.03
5 3 14 o 39.535 36.744 0.00 0.65666 0.15
7 0 -14 o 21.363 19.855 0.00 0.65666 0.04
14 12 8 o 8.156 7.581 0.00 0.65666 0.03
16 14 -4 o 183.888 171.692 180.00 0.65617 0.68
26 0 -4 o 34.201 31.933 180.00 0.65617 0.06
26 2 0 o 28.613 26.765 0.00 0.65600 0.11
6 2 -14 o 97.900 92.507 180.00 0.65532 0.36
15 11 -8 o 514.037 485.778 180.00 0.65531 1.90
19 6 -8 o 66.819 63.145 180.00 0.65531 0.25
16 3 -11 o 26.236 24.834 180.00 0.65523 0.10
25 2 -4 o 62.793 59.918 180.00 0.65482 0.23
17 13 4 o 119.953 114.461 180.00 0.65482 0.44
19 4 -9 o 12.660 12.082 0.00 0.65482 0.05
19 4 9 o 40.285 38.446 0.00 0.65482 0.15
16 15 -2 o 128.598 123.046 180.00 0.65470 0.48
24 5 -2 o 181.857 174.006 0.00 0.65470 0.67
8 6 -13 o 2.744 2.646 0.00 0.65438 0.01
16 6 10 o 3.289 3.174 0.00 0.65434 0.01
19 12 1 o 85.697 83.467 0.00 0.65400 0.32
25 4 0 o 8.732 8.995 180.00 0.65201 0.03
20 11 0 o 284.576 293.138 180.00 0.65201 1.06
14 6 11 o 90.399 88.332 180.00 0.65389 0.34
21 5 7 o 82.017 84.789 180.00 0.65184 0.31
13 4 -12 o 129.773 128.409 0.00 0.65346 0.48
13 4 12 o 91.979 91.012 0.00 0.65346 0.34
21 9 -3 o 185.175 192.779 180.00 0.65144 0.69
21 9 3 o 284.064 295.729 180.00 0.65144 1.06
22 8 2 o 0.249 0.247 180.00 0.65337 0.00
23 7 1 o 228.895 238.561 180.00 0.65136 0.86
5 4 -14 o 11.501 11.990 0.00 0.65134 0.04
9 5 13 o 167.581 167.867 0.00 0.65305 0.62
22 6 -5 o 0.632 0.635 180.00 0.65292 0.00
24 4 -4 o 10.264 10.747 180.00 0.65085 0.04
9 9 12 o 0.298 0.312 0.00 0.65082 0.00
12 1 -13 o 16.372 17.149 180.00 0.65041 0.06
12 11 10 o 59.570 62.390 180.00 0.65038 0.22
18 13 2 o 9.427 9.703 180.00 0.65205 0.04
8 0 14 o 0.540 0.564 0.00 0.65003 0.00
17 9 8 o 59.644 62.323 0.00 0.65002 0.22
15 5 -11 o 1354.654 1414.270 0.00 0.64993 5.08
19 11 -4 o 85.685 88.978 180.00 0.64954 0.32
19 12 -2 o 264.997 274.612 0.00 0.64942 1.00
19 8 -7 o 137.049 141.464 0.00 0.64922 0.52
20 0 -10 o 196.366 202.068 0.00 0.64907 0.37
20 9 5 o 3.512 3.607 180.00 0.64898 0.01
7 2 14 o 4.600 4.695 180.00 0.64872 0.02
20 8 -6 o 41.484 42.036 180.00 0.64844 0.16
20 8 6 o 10.089 10.223 180.00 0.64844 0.04
18 6 -9 o 1.498 1.510 180.00 0.64823 0.01
18 6 9 o 18.318 18.462 0.00 0.64823 0.07
11 3 -13 o 12.512 12.468 0.00 0.64781 0.05
19 2 -10 o 9.584 9.541 0.00 0.64777 0.04
14 9 -10 o 45.048 44.848 0.00 0.64777 0.17
23 0 8 o 114.792 113.255 180.00 0.64742 0.22
11 10 -11 o 409.872 403.543 180.00 0.64733 1.55
14 11 -9 o 105.972 103.415 180.00 0.64694 0.40
14 11 9 o 334.477 326.404 180.00 0.64694 1.27
12 6 -12 o 40.824 39.817 0.00 0.64691 0.15
12 6 12 o 21.648 21.114 0.00 0.64691 0.08
23 7 -2 o 27.395 26.673 180.00 0.64683 0.10
17 14 -3 o 242.536 233.822 0.00 0.64623 0.92
17 14 3 o 100.721 97.102 0.00 0.64623 0.38
21 10 -1 o 4.805 4.628 180.00 0.64616 0.02
8 1 -14 o 10.358 9.974 0.00 0.64614 0.04
18 8 -8 o 35.059 33.755 0.00 0.64613 0.13
22 2 8 o 281.916 271.434 0.00 0.64613 1.07
20 10 4 o 1236.137 1185.190 0.00 0.64566 4.70
24 6 0 o 62.707 60.076 180.00 0.64551 0.24
8 7 13 o 8.116 7.771 180.00 0.64523 0.03
13 0 13 o 0.774 0.741 180.00 0.64523 0.00
15 8 10 o 0.002 0.001 180.00 0.64520 0.00
6 4 14 o 66.515 63.723 180.00 0.64486 0.25
13 8 11 o 0.292 0.280 0.00 0.64477 0.00
16 13 6 o 30.796 29.544 0.00 0.64458 0.12
16 13 -6 o 1.430 1.372 180.00 0.64458 0.01
23 6 -4 o 66.951 64.320 180.00 0.64438 0.26
26 1 4 o 69.173 66.454 0.00 0.64438 0.26
15 13 -7 o 134.136 129.237 180.00 0.64407 0.51
20 7 7 o 54.992 52.984 180.00 0.64407 0.21
12 2 13 o 0.066 0.064 0.00 0.64396 0.00
18 4 -10 o 16.965 16.370 180.00 0.64392 0.06
21 8 -5 o 58.990 56.981 0.00 0.64383 0.23
25 3 4 o 305.454 303.544 180.00 0.64185 1.18
27 0 3 o 202.086 195.563 0.00 0.64368 0.39
27 0 -3 o 62.283 60.272 0.00 0.64368 0.12
27 1 -1 o 3.090 2.993 0.00 0.64360 0.01
21 10 2 o 36.428 36.258 180.00 0.64174 0.14
7 3 -14 o 54.081 52.399 0.00 0.64358 0.21
25 2 5 o 21.655 21.673 0.00 0.64131 0.08
17 13 -5 o 103.829 103.914 180.00 0.64131 0.40
26 3 -1 o 90.974 91.283 0.00 0.64108 0.35
22 9 1 o 258.650 259.527 0.00 0.64108 1.00
16 12 7 o 0.763 0.747 180.00 0.64280 0.00
10 5 -13 o 420.403 412.543 0.00 0.64269 1.61
26 0 5 o 126.827 124.688 180.00 0.64257 0.24
16 14 5 o 165.420 162.630 180.00 0.64257 0.63
26 2 3 o 1.904 1.876 0.00 0.64241 0.01
26 2 -3 o 0.077 0.076 0.00 0.64241 0.00
21 4 8 o 185.960 183.543 180.00 0.64231 0.71
16 16 0 o 16.452 16.599 0.00 0.64044 0.03
14 7 -11 o 0.260 0.257 180.00 0.64223 0.00
18 1 11 o 10.580 10.456 180.00 0.64223 0.04
11 4 13 o 35.514 35.890 180.00 0.64018 0.14
20 1 10 o 272.855 275.789 180.00 0.64014 1.06
14 13 -8 o 181.628 183.866 0.00 0.63980 0.70
17 3 11 o 119.210 120.715 180.00 0.63972 0.46
17 8 9 o 0.902 0.915 0.00 0.63934 0.00
17 8 -9 o 34.154 34.627 180.00 0.63934 0.13
27 1 2 o 32.640 33.103 180.00 0.63923 0.13
24 1 -7 o 43.540 44.181 180.00 0.63904 0.17
20 11 3 o 384.773 390.922 180.00 0.63866 1.50
25 4 -3 o 24.828 25.224 180.00 0.63866 0.10
25 4 3 o 15.586 15.835 180.00 0.63866 0.06
20 11 -3 o 180.325 183.207 180.00 0.63866 0.70
17 15 -1 o 98.534 100.138 0.00 0.63858 0.38
6 5 -14 o 210.188 213.624 180.00 0.63856 0.82
9 1 14 o 14.669 14.909 180.00 0.63856 0.06
11 8 12 o 59.504 60.619 180.00 0.63807 0.23
11 8 -12 o 1.096 1.116 0.00 0.63807 0.00
16 1 12 o 0.627 0.639 180.00 0.63807 0.00
16 1 -12 o 12.564 12.799 180.00 0.63807 0.05
18 10 -7 o 9.535 9.731 180.00 0.63780 0.04
17 6 -10 o 62.159 63.495 180.00 0.63766 0.24
19 3 10 o 0.265 0.271 0.00 0.63766 0.00
24 4 5 o 28.817 29.456 0.00 0.63757 0.11
18 14 1 o 12.620 12.923 0.00 0.63735 0.05
16 11 8 o 1.037 1.063 0.00 0.63732 0.00
23 1 -8 o 34.419 35.255 180.00 0.63732 0.13
19 10 6 o 183.860 188.776 0.00 0.63706 0.72
25 1 -6 o 271.578 278.840 180.00 0.63706 1.06
19 10 -6 o 55.017 56.488 0.00 0.63706 0.22
25 1 6 o 257.386 264.268 180.00 0.63706 1.01
16 15 4 o 274.755 282.605 180.00 0.63687 1.08
24 5 4 o 55.036 56.608 0.00 0.63687 0.22
22 9 -2 o 253.852 261.390 0.00 0.63676 1.00
26 3 2 o 88.291 90.913 0.00 0.63676 0.35
23 8 0 o 76.414 78.711 0.00 0.63672 0.30
19 13 0 o 187.815 193.461 0.00 0.63672 0.74
23 3 -7 o 1.832 1.889 0.00 0.63657 0.01
19 11 5 o 319.365 330.143 180.00 0.63634 1.25
25 5 -1 o 237.185 245.670 0.00 0.63612 0.93
8 3 14 o 106.538 110.366 180.00 0.63610 0.42
20 6 8 o 186.423 193.127 180.00 0.63609 0.73
22 8 -4 o 123.497 128.324 180.00 0.63565 0.49
15 3 12 o 70.141 72.894 180.00 0.63561 0.28
15 3 -12 o 129.508 134.592 180.00 0.63561 0.51
9 7 -13 o 18.856 19.618 0.00 0.63524 0.07
13 11 -10 o 27.126 28.223 0.00 0.63521 0.11
1 1 15 o 24.964 25.360 180.00 0.63332 0.10
10 0 -14 o 736.448 765.892 0.00 0.63488 1.46
17 10 -8 o 3.234 3.363 0.00 0.63487 0.01
22 3 -8 o 70.845 73.676 180.00 0.63487 0.28
18 14 -2 o 10.181 10.280 180.00 0.63310 0.04
16 5 11 o 254.297 264.369 180.00 0.63479 1.01
19 0 -11 o 55.384 57.578 0.00 0.63479 0.11
24 3 6 o 0.540 0.560 180.00 0.63461 0.00
24 3 -6 o 0.346 0.360 180.00 0.63461 0.00
13 2 -13 o 4.403 4.407 180.00 0.63281 0.02
0 0 15 o 3202.565 3323.780 0.00 0.63454 2.11
18 5 10 o 0.043 0.043 0.00 0.63278 0.00
20 10 -5 o 244.342 243.623 0.00 0.63269 0.98
18 13 -4 o 80.239 83.188 0.00 0.63443 0.32
17 15 2 o 133.034 137.755 0.00 0.63432 0.53
24 6 -3 o 138.357 137.288 180.00 0.63255 0.55
24 6 3 o 85.418 84.758 180.00 0.63255 0.34
28 0 1 o 22.836 22.604 180.00 0.63247 0.05
20 12 -1 o 9.427 9.331 180.00 0.63247 0.04
19 9 7 o 1.120 1.157 0.00 0.63412 0.00
13 9 -11 o 113.817 112.268 0.00 0.63237 0.46
14 0 -13 o 32.997 34.025 0.00 0.63402 0.07
10 6 13 o 40.718 41.987 180.00 0.63402 0.16
14 10 10 o 150.845 155.467 0.00 0.63399 0.60
19 12 4 o 46.175 44.991 0.00 0.63201 0.18
13 13 9 o 7.876 7.672 180.00 0.63200 0.03
22 1 9 o 3.487 3.397 180.00 0.63200 0.01
22 1 -9 o 1.917 1.868 180.00 0.63200 0.01
9 2 -14 o 0.246 0.252 180.00 0.63366 0.00
25 5 2 o 16.338 15.860 0.00 0.63190 0.07
18 2 -11 o 211.817 216.516 180.00 0.63358 0.84
12 10 11 o 136.926 139.963 0.00 0.63358 0.54
22 5 -7 o 14.507 13.993 0.00 0.63171 0.06
26 1 -5 o 21.840 20.918 0.00 0.63149 0.09
23 6 5 o 13.442 12.874 0.00 0.63149 0.05
27 2 1 o 61.896 58.883 0.00 0.63127 0.25
7 5 14 o 148.668 141.355 0.00 0.63125 0.60
3 0 -15 o 42.984 40.491 0.00 0.63092 0.09
3 0 15 o 70.650 66.552 180.00 0.63092 0.14
14 5 -12 o 52.535 49.316 0.00 0.63078 0.21
14 5 12 o 70.476 66.157 0.00 0.63078 0.28
8 4 -14 o 18.514 17.147 180.00 0.63006 0.07
21 5 -8 o 33.047 30.604 180.00 0.63005 0.13
17 4 -11 o 34.636 32.045 0.00 0.62997 0.14
23 5 6 o 0.100 0.092 180.00 0.62980 0.00
23 5 -6 o 0.416 0.384 0.00 0.62980 0.00
2 2 15 o 43.086 39.767 0.00 0.62973 0.17
23 7 4 o 298.748 275.538 180.00 0.62962 1.21
21 3 -9 o 76.539 70.590 0.00 0.62961 0.31
21 3 9 o 0.743 0.685 0.00 0.62961 0.00
25 0 7 o 590.258 543.868 0.00 0.62932 1.20
12 4 -13 o 0.300 0.276 0.00 0.62922 0.00
16 8 -10 o 2.756 2.540 180.00 0.62919 0.01
25 3 -5 o 68.064 62.728 180.00 0.62911 0.28
21 11 1 o 7.903 7.290 0.00 0.62889 0.03
24 7 -1 o 225.107 207.660 0.00 0.62889 0.92
16 10 9 o 209.347 193.971 180.00 0.62843 0.85
16 10 -9 o 9.313 8.629 180.00 0.62843 0.04
20 12 2 o 47.441 44.016 0.00 0.62832 0.19
28 0 -2 o 0.026 0.024 0.00 0.62832 0.00
24 2 7 o 50.189 46.697 0.00 0.62814 0.21
14 1 13 o 64.042 59.689 180.00 0.62804 0.26
4 1 -15 o 28.373 27.559 180.00 0.62619 0.12
4 1 15 o 74.466 72.328 180.00 0.62619 0.31
16 16 3 o 5.257 4.923 0.00 0.62778 0.02
26 4 1 o 195.289 183.158 180.00 0.62771 0.80
19 8 8 o 247.008 231.778 0.00 0.62768 1.01
22 10 0 o 5.958 5.818 0.00 0.62594 0.02
15 7 11 o 37.261 35.021 180.00 0.62761 0.15
15 15 6 o 33.977 32.056 0.00 0.62743 0.14
13 3 13 o 49.422 48.490 180.00 0.62569 0.20
9 8 13 o 0.082 0.080 180.00 0.62569 0.00
17 7 10 o 3.556 3.490 0.00 0.62566 0.01
10 10 12 o 1633.233 1548.290 0.00 0.62722 6.71
27 2 -2 o 1.131 1.074 180.00 0.62715 0.00
10 2 14 o 3.304 3.260 0.00 0.62535 0.01
15 14 7 o 12.057 11.502 0.00 0.62696 0.05
21 10 -4 o 63.551 63.058 180.00 0.62492 0.26
20 5 -9 o 252.551 250.606 0.00 0.62491 1.05
20 5 9 o 292.643 290.389 0.00 0.62491 1.22
11 0 14 o 88.319 85.155 180.00 0.62652 0.18
24 7 2 o 245.489 243.854 0.00 0.62481 1.02
21 11 -2 o 0.000 0.000 0.00 0.62481 0.00
21 7 -7 o 0.673 0.670 180.00 0.62463 0.00
17 12 -7 o 210.456 209.412 0.00 0.62463 0.88
23 4 7 o 31.804 31.647 0.00 0.62463 0.13
24 5 -5 o 139.409 138.952 0.00 0.62442 0.58
16 15 -5 o 23.015 22.939 180.00 0.62442 0.10
19 13 3 o 44.327 44.225 0.00 0.62427 0.19
23 8 -3 o 10.301 10.277 0.00 0.62427 0.04
19 13 -3 o 58.118 57.984 0.00 0.62427 0.24
23 8 3 o 18.346 18.303 0.00 0.62427 0.08
7 6 -14 o 76.888 76.750 180.00 0.62419 0.32
16 6 -11 o 9.401 9.389 0.00 0.62410 0.04
18 12 6 o 1.365 1.364 0.00 0.62393 0.01
18 12 -6 o 39.833 39.815 180.00 0.62393 0.17
3 3 15 o 0.336 0.336 0.00 0.62386 0.00
13 7 12 o 87.766 87.809 180.00 0.62373 0.37
13 7 -12 o 87.928 87.972 180.00 0.62373 0.37
26 4 -2 o 294.260 294.499 180.00 0.62365 1.23
11 6 -13 o 5.002 5.012 180.00 0.62337 0.02
21 1 -10 o 48.225 48.324 0.00 0.62334 0.20
22 8 5 o 7.084 7.101 0.00 0.62326 0.03
15 13 8 o 121.527 121.935 180.00 0.62303 0.51
20 7 -8 o 9.164 9.195 180.00 0.62303 0.04
22 7 -6 o 0.877 0.881 0.00 0.62278 0.00
22 7 6 o 0.354 0.356 0.00 0.62278 0.00
27 1 -4 o 57.049 57.361 0.00 0.62261 0.24
28 1 0 o 17.842 17.954 180.00 0.62247 0.08
18 11 7 o 57.531 57.949 180.00 0.62232 0.24
18 13 5 o 0.094 0.095 0.00 0.62211 0.00
22 9 4 o 124.160 127.945 0.00 0.62032 0.53
26 3 -4 o 2.584 2.663 0.00 0.62032 0.01
25 6 1 o 169.631 171.429 180.00 0.62190 0.72
9 4 14 o 3.010 3.042 0.00 0.62188 0.01
11 1 -14 o 9.239 9.339 0.00 0.62188 0.04
16 12 -8 o 5.968 6.032 0.00 0.62188 0.03
27 3 0 o 83.956 86.689 180.00 0.62018 0.36
18 15 0 o 187.190 193.283 180.00 0.62018 0.80
19 12 -5 o 278.001 288.489 0.00 0.61983 1.20
23 9 -1 o 10.604 11.035 0.00 0.61962 0.05
17 16 1 o 8.877 9.238 180.00 0.61962 0.04
10 3 -14 o 5.208 5.421 180.00 0.61961 0.02
20 0 11 o 1080.964 1126.320 0.00 0.61952 2.33
12 5 13 o 64.025 65.289 0.00 0.62108 0.27
20 3 -10 o 55.306 56.419 180.00 0.62105 0.24
13 12 10 o 7.963 8.123 0.00 0.62105 0.03
5 2 -15 o 75.901 79.311 0.00 0.61929 0.33
5 2 15 o 44.538 46.539 180.00 0.61929 0.19
12 11 -11 o 0.792 0.812 0.00 0.62066 0.00
22 6 7 o 1.621 1.700 0.00 0.61891 0.01
6 0 -15 o 130.839 134.622 180.00 0.62042 0.28
6 0 15 o 249.080 256.281 180.00 0.62042 0.53
15 10 -10 o 123.810 129.976 0.00 0.61878 0.54
24 1 8 o 66.137 69.531 180.00 0.61847 0.29
19 2 11 o 5.410 5.689 0.00 0.61840 0.02
14 9 11 o 0.050 0.052 0.00 0.61840 0.00
17 15 -4 o 0.537 0.565 180.00 0.61806 0.00
19 7 -9 o 163.260 171.604 0.00 0.61805 0.71
19 7 9 o 38.211 40.164 0.00 0.61805 0.17
18 0 -12 o 18.127 19.052 180.00 0.61803 0.04
18 0 12 o 107.165 112.632 180.00 0.61803 0.23
25 6 -2 o 223.411 234.730 180.00 0.61796 0.98
23 7 -5 o 15.980 16.737 180.00 0.61757 0.07
19 14 -1 o 17.148 17.912 0.00 0.61737 0.08
18 10 8 o 159.170 166.201 180.00 0.61735 0.70
18 14 4 o 140.764 145.900 0.00 0.61694 0.62
17 2 -12 o 180.387 186.857 0.00 0.61691 0.79
17 2 12 o 204.557 211.893 0.00 0.61691 0.90
20 13 1 o 149.029 147.012 180.00 0.61514 0.67
9 5 -14 o 6.994 6.896 0.00 0.61512 0.03
18 4 11 o 43.903 43.192 0.00 0.61505 0.20
15 1 -13 o 250.872 257.777 180.00 0.61656 1.11
16 9 10 o 195.658 200.898 180.00 0.61654 0.86
19 5 -10 o 53.156 54.579 0.00 0.61654 0.23
8 6 14 o 2.139 2.179 180.00 0.61624 0.01
23 3 8 o 26.092 26.571 0.00 0.61623 0.12
12 9 -12 o 1.096 1.068 180.00 0.61469 0.00
12 9 12 o 15.890 15.484 0.00 0.61469 0.07
15 8 -11 o 166.023 168.720 180.00 0.61616 0.74
4 4 15 o 15.728 15.877 180.00 0.61592 0.07
14 3 -13 o 0.918 0.887 0.00 0.61434 0.00
11 7 13 o 46.004 44.471 180.00 0.61434 0.21
21 2 10 o 61.781 59.686 180.00 0.61432 0.28
25 5 -4 o 927.853 933.820 0.00 0.61582 4.12
15 12 9 o 123.164 123.935 0.00 0.61582 0.55
15 12 -9 o 18.860 18.978 0.00 0.61582 0.08
23 9 2 o 22.290 22.366 180.00 0.61572 0.10
17 16 -2 o 49.315 49.483 180.00 0.61572 0.22
26 5 0 o 39.765 39.859 180.00 0.61569 0.18
22 10 -3 o 12.053 11.593 0.00 0.61410 0.05
22 10 3 o 141.694 136.290 0.00 0.61410 0.64
24 8 1 o 33.299 31.988 0.00 0.61404 0.15
20 9 -7 o 0.013 0.013 180.00 0.61555 0.00
19 9 -8 o 0.135 0.130 180.00 0.61401 0.00
10 8 -13 o 5.782 5.755 180.00 0.61545 0.03
22 0 10 o 302.007 300.354 0.00 0.61542 0.67
21 9 -6 o 315.913 302.154 180.00 0.61378 1.43
21 9 6 o 261.612 250.218 180.00 0.61378 1.18
16 4 -12 o 421.867 402.366 180.00 0.61358 1.91
16 4 12 o 119.076 113.572 180.00 0.61358 0.54
19 14 2 o 60.183 57.347 0.00 0.61351 0.27
21 12 0 o 14.135 13.464 0.00 0.61348 0.06
21 10 5 o 153.355 145.586 180.00 0.61314 0.70
12 1 14 o 37.867 35.900 180.00 0.61292 0.17
7 1 15 o 9.172 8.687 0.00 0.61261 0.04
7 1 -15 o 21.834 20.681 0.00 0.61261 0.10
28 0 4 o 113.168 107.190 180.00 0.61251 0.26
20 12 -4 o 9.309 8.817 180.00 0.61251 0.04
28 1 3 o 23.490 22.620 180.00 0.61082 0.11
28 1 -3 o 4.098 3.947 0.00 0.61082 0.02
29 0 -1 o 157.692 152.030 0.00 0.61075 0.37
11 3 14 o 19.067 18.388 0.00 0.61074 0.09
6 3 -15 o 21.078 20.444 180.00 0.61044 0.10
6 3 15 o 21.392 20.749 180.00 0.61044 0.10
22 5 8 o 75.346 71.589 0.00 0.61182 0.35
20 1 -11 o 329.556 313.321 180.00 0.61175 1.52
24 8 -2 o 7.941 7.732 180.00 0.61024 0.04
26 0 -7 o 172.680 168.743 180.00 0.61007 0.41
16 14 -7 o 154.024 150.512 180.00 0.61007 0.72
13 5 -13 o 5.031 4.926 180.00 0.60997 0.02
15 2 13 o 44.516 43.586 0.00 0.60997 0.21
27 2 4 o 268.655 256.330 0.00 0.61142 1.24
18 7 -10 o 72.230 70.762 180.00 0.60995 0.34
20 13 -2 o 30.971 29.588 180.00 0.61132 0.14
21 8 7 o 7.513 7.195 0.00 0.61115 0.03
28 2 -1 o 45.304 44.642 180.00 0.60967 0.21
25 0 -8 o 1002.852 988.641 0.00 0.60965 2.37
16 0 13 o 162.488 155.842 180.00 0.61106 0.38
19 3 -11 o 177.025 174.777 0.00 0.60958 0.84
17 6 11 o 1.174 1.159 0.00 0.60958 0.01
20 4 10 o 23.500 22.549 180.00 0.61103 0.11
27 1 5 o 7.948 7.636 180.00 0.61095 0.04
17 14 6 o 250.775 248.400 0.00 0.60942 1.19
17 14 -6 o 296.289 293.484 0.00 0.60942 1.40
24 7 -4 o 45.347 45.065 0.00 0.60926 0.21
21 11 4 o 16.475 16.373 0.00 0.60926 0.08
18 9 9 o 0.037 0.037 0.00 0.60925 0.00
18 9 -9 o 1.371 1.362 0.00 0.60925 0.01
25 7 0 o 41.920 41.764 180.00 0.60913 0.20
17 13 7 o 226.101 225.819 180.00 0.60899 1.07
25 2 -7 o 15.287 15.268 0.00 0.60899 0.07
26 3 5 o 1.376 1.379 0.00 0.60879 0.01
22 9 -5 o 127.124 127.389 0.00 0.60879 0.61
18 15 -3 o 49.985 50.191 180.00 0.60866 0.24
27 3 3 o 152.191 152.818 180.00 0.60866 0.73
27 3 -3 o 10.062 10.103 0.00 0.60866 0.05
18 15 3 o 112.076 112.537 180.00 0.60866 0.53
22 11 -1 o 0.489 0.491 180.00 0.60860 0.00
8 7 -14 o 13.857 13.930 180.00 0.60858 0.07
13 0 -14 o 31.139 31.305 0.00 0.60858 0.07
24 2 -8 o 24.673 24.806 0.00 0.60857 0.12
29 0 2 o 255.975 259.373 0.00 0.60702 0.62
14 4 13 o 23.542 23.830 0.00 0.60676 0.11
26 4 4 o 191.054 192.969 180.00 0.60818 0.92
14 12 -10 o 92.304 93.420 0.00 0.60673 0.45
15 6 -12 o 486.998 492.003 180.00 0.60816 2.34
15 6 12 o 100.410 101.442 180.00 0.60816 0.48
17 15 5 o 12.583 12.730 0.00 0.60665 0.06
27 4 -1 o 93.173 94.155 0.00 0.60646 0.46
10 5 14 o 525.150 530.629 0.00 0.60644 2.57
14 10 -11 o 28.283 28.564 0.00 0.60637 0.14
26 2 6 o 28.602 28.856 180.00 0.60621 0.14
26 2 -6 o 33.509 33.807 180.00 0.60621 0.16
5 5 15 o 2564.587 2586.271 0.00 0.60615 12.61
12 2 -14 o 0.660 0.669 0.00 0.60751 0.00
15 14 -8 o 13.382 13.566 0.00 0.60750 0.06
24 0 9 o 305.772 308.139 0.00 0.60605 0.75
24 0 -9 o 110.887 111.746 0.00 0.60605 0.27
13 11 11 o 31.397 31.830 180.00 0.60743 0.15
28 2 2 o 19.025 19.160 180.00 0.60595 0.09
27 0 6 o 320.070 324.480 0.00 0.60728 0.78
27 0 -6 o 313.661 317.982 0.00 0.60728 0.76
24 4 -7 o 2.663 2.678 0.00 0.60579 0.01
10 9 13 o 1.154 1.160 0.00 0.60570 0.01
19 6 10 o 138.438 139.150 180.00 0.60567 0.69
15 11 10 o 222.404 223.548 180.00 0.60567 1.10
18 14 -5 o 6.629 6.660 0.00 0.60559 0.03
23 4 -8 o 104.704 105.050 0.00 0.60538 0.52
17 12 8 o 286.160 287.105 0.00 0.60538 1.42
21 7 8 o 15.528 15.580 0.00 0.60538 0.08
18 5 -11 o 0.018 0.018 0.00 0.60531 0.00
23 2 9 o 92.054 92.166 180.00 0.60499 0.46
23 2 -9 o 32.901 32.941 180.00 0.60499 0.16
12 7 -13 o 3.126 3.121 0.00 0.60359 0.02
22 11 2 o 50.206 50.247 180.00 0.60490 0.25
19 11 -7 o 145.959 145.983 180.00 0.60473 0.73
18 11 -8 o 77.985 77.882 180.00 0.60328 0.40
25 5 5 o 318.137 317.993 0.00 0.60454 1.60
20 11 -6 o 168.504 168.307 180.00 0.60306 0.86
25 4 6 o 54.271 54.207 180.00 0.60306 0.28
20 11 6 o 181.825 181.612 180.00 0.60306 0.93
25 4 -6 o 16.859 16.839 180.00 0.60306 0.09
26 5 -3 o 113.534 113.444 180.00 0.60441 0.57
26 5 3 o 0.928 0.928 180.00 0.60441 0.00
8 2 15 o 13.360 13.346 0.00 0.60299 0.07
8 2 -15 o 103.333 103.219 180.00 0.60299 0.53
23 10 1 o 39.086 39.050 180.00 0.60435 0.20
11 4 -14 o 121.371 121.255 180.00 0.60433 0.61
25 6 4 o 242.869 242.624 180.00 0.60290 1.25
27 4 2 o 166.171 166.020 0.00 0.60280 0.86
17 17 0 o 339.852 339.554 0.00 0.60277 0.88
9 0 -15 o 0.406 0.405 0.00 0.60404 0.00
9 0 15 o 3.467 3.462 0.00 0.60404 0.01
11 11 12 o 8.221 8.209 180.00 0.60392 0.04
21 12 3 o 0.666 0.666 180.00 0.60232 0.00
21 12 -3 o 0.144 0.144 180.00 0.60232 0.00
16 8 11 o 1.645 1.644 180.00 0.60217 0.01
23 9 -4 o 106.655 106.559 0.00 0.60082 0.57
17 16 4 o 7.246 7.240 0.00 0.60082 0.04
14 8 -12 o 153.715 153.567 0.00 0.60079 0.82
14 8 12 o 189.659 189.476 0.00 0.60079 1.01
23 10 -2 o 2.667 2.664 180.00 0.60073 0.01
27 6 0 o 16.253 16.178 0.00 0.58294 0.16
24 9 0 o 0.059 0.059 0.00 0.60069 0.00
4 3 16 o 54.914 54.660 0.00 0.58289 0.55
23 6 -7 o 0.459 0.459 180.00 0.60056 0.00
26 1 7 o 40.506 40.442 0.00 0.60056 0.22
14 14 9 o 33.844 33.840 0.00 0.60185 0.18
22 4 9 o 103.942 103.930 0.00 0.60185 0.54
22 4 -9 o 39.991 39.987 0.00 0.60185 0.21
27 1 -7 o 1.862 1.853 0.00 0.58282 0.02
27 2 -5 o 12.293 12.266 0.00 0.60037 0.07
20 10 7 o 468.717 468.703 0.00 0.60160 2.46
29 1 1 o 132.301 131.912 180.00 0.60019 0.71
19 15 1 o 46.714 46.577 0.00 0.60019 0.25
13 6 13 o 10.455 10.455 0.00 0.60151 0.05
9 7 14 o 36.721 36.610 0.00 0.60017 0.20
22 6 -8 o 41.315 41.189 0.00 0.60017 0.22
17 9 -10 o 162.988 162.983 0.00 0.60148 0.86
20 12 5 o 61.787 61.785 0.00 0.60141 0.33
28 0 -5 o 19.800 19.799 180.00 0.60141 0.05
18 16 -1 o 55.250 55.242 180.00 0.60122 0.29
26 6 -1 o 11.751 11.749 0.00 0.60122 0.06
7 4 -15 o 7.878 7.844 180.00 0.59988 0.04
7 4 15 o 11.066 11.017 180.00 0.59988 0.06
10 8 14 o 13.444 13.388 0.00 0.58340 0.13
23 6 8 o 0.660 0.657 180.00 0.58340 0.01
26 1 -8 o 20.425 20.340 0.00 0.58340 0.20
16 2 -13 o 32.398 31.945 180.00 0.59842 0.18
18 8 10 o 32.948 32.482 180.00 0.59840 0.18
22 2 -10 o 3.243 3.197 0.00 0.59840 0.02
20 14 0 o 1.607 1.598 0.00 0.59966 0.01
21 11 -5 o 0.050 0.050 180.00 0.59832 0.00
24 7 5 o 72.055 71.003 0.00 0.59832 0.40
25 7 3 o 79.862 78.636 180.00 0.59820 0.44
25 7 -3 o 24.491 24.115 0.00 0.59820 0.14
17 0 -13 o 273.728 271.830 0.00 0.59945 0.74
28 3 1 o 1.019 1.003 0.00 0.59814 0.01
23 0 -10 o 5.818 5.776 0.00 0.59942 0.02
13 2 14 o 15.203 14.963 0.00 0.59812 0.08
12 0 15 o 180.853 180.078 0.00 0.58314 0.89
12 0 -15 o 10.227 10.183 180.00 0.58314 0.05
24 6 -6 o 146.522 144.035 180.00 0.59790 0.82
24 6 6 o 206.692 203.184 180.00 0.59790 1.16
14 0 14 o 127.328 126.193 0.00 0.59914 0.35
10 6 -14 o 132.387 131.206 180.00 0.59914 0.72
26 6 -4 o 25.360 25.271 0.00 0.58400 0.23
18 16 -4 o 55.019 54.825 180.00 0.58400 0.51
29 1 4 o 58.182 57.930 180.00 0.58305 0.57
19 15 4 o 18.368 18.288 0.00 0.58305 0.18
17 7 -11 o 222.438 220.344 0.00 0.59907 1.22
19 1 -12 o 15.748 15.468 180.00 0.59772 0.09
19 1 12 o 83.380 81.897 180.00 0.59772 0.47
26 6 2 o 16.482 16.185 0.00 0.59765 0.09
18 16 2 o 0.004 0.003 0.00 0.59765 0.00
19 14 -4 o 2.049 2.025 0.00 0.59877 0.01
17 11 -9 o 14.713 14.543 180.00 0.59876 0.08
17 11 9 o 16.503 16.312 180.00 0.59876 0.09
21 13 -1 o 30.146 29.632 0.00 0.59611 0.18
26 4 -5 o 339.230 332.762 180.00 0.59731 1.92
13 8 -13 o 31.292 31.174 180.00 0.58368 0.29
25 3 7 o 65.255 64.391 180.00 0.59851 0.36
19 8 -10 o 0.065 0.065 180.00 0.58366 0.00
20 9 8 o 1.463 1.435 180.00 0.59710 0.01
21 1 11 o 14.229 13.953 0.00 0.59703 0.08
24 8 4 o 186.050 183.335 0.00 0.59572 1.09
18 3 -12 o 9.550 9.412 0.00 0.59570 0.06
18 3 12 o 9.419 9.284 0.00 0.59570 0.06
12 8 13 o 0.418 0.416 0.00 0.59438 0.00
18 17 1 o 164.061 163.573 180.00 0.58436 1.47
15 1 14 o 212.556 211.920 180.00 0.58435 1.91
20 10 -8 o 881.307 878.667 0.00 0.58434 7.91
20 13 4 o 240.488 235.879 180.00 0.59673 1.38
21 6 9 o 5.230 5.130 0.00 0.59673 0.03
21 6 -9 o 0.116 0.113 0.00 0.59673 0.00
18 7 11 o 18.252 18.212 180.00 0.58523 0.16
29 1 -2 o 127.281 124.864 180.00 0.59664 0.73
19 15 -2 o 45.349 44.488 0.00 0.59664 0.26
15 4 -13 o 25.002 24.701 0.00 0.59538 0.15
11 9 -13 o 262.528 259.372 180.00 0.59538 1.55
21 4 -10 o 258.542 255.485 180.00 0.59536 1.53
27 5 1 o 57.479 57.346 0.00 0.59410 0.35
25 8 -1 o 84.447 84.252 180.00 0.59410 0.51
14 1 -14 o 3.159 3.152 180.00 0.59409 0.02
12 4 14 o 7.418 7.347 0.00 0.59509 0.04
16 16 6 o 0.001 0.001 0.00 0.59387 0.00
21 13 2 o 18.531 18.583 0.00 0.59263 0.12
10 1 15 o 154.000 153.915 180.00 0.59381 0.95
10 1 -15 o 255.887 255.746 180.00 0.59381 1.57
20 3 11 o 27.784 27.531 180.00 0.59502 0.17
13 12 -11 o 215.424 213.466 180.00 0.59502 1.28
2 1 16 o 23.207 23.270 0.00 0.59255 0.15
16 7 12 o 10.689 10.660 0.00 0.58588 0.09
16 7 -12 o 6.037 6.021 0.00 0.58588 0.05
18 13 -7 o 20.962 21.018 0.00 0.59248 0.13
26 7 -2 o 24.232 24.174 180.00 0.58486 0.21
6 6 15 o 8.022 7.963 180.00 0.59481 0.05
19 16 0 o 107.968 107.708 180.00 0.58483 0.94
2 0 -16 o 7.058 7.063 180.00 0.59355 0.02
5 1 16 o 5.714 5.699 180.00 0.58478 0.05
4 2 -16 o 12.042 12.012 180.00 0.58574 0.10
25 6 -5 o 307.667 308.388 180.00 0.59230 1.97
22 8 -7 o 1.114 1.115 0.00 0.59347 0.01
25 2 8 o 27.257 27.185 180.00 0.59111 0.18
17 13 -8 o 145.251 144.866 180.00 0.59111 0.96
28 3 -2 o 16.864 16.762 180.00 0.59463 0.10
21 10 -7 o 177.168 176.717 180.00 0.58471 1.55
5 0 -16 o 1960.721 1950.790 0.00 0.58670 7.71
17 1 13 o 6.407 6.416 180.00 0.59338 0.04
16 9 -11 o 198.312 197.720 180.00 0.59105 1.32
19 5 11 o 51.365 51.212 0.00 0.59105 0.34
28 4 0 o 51.371 50.943 0.00 0.58771 0.39
14 13 10 o 2.039 2.042 180.00 0.59336 0.01
1 0 16 o 140.854 140.091 180.00 0.59454 0.42
17 17 3 o 141.462 141.750 0.00 0.59218 0.91
16 15 7 o 146.292 145.582 180.00 0.59447 0.88
24 5 7 o 78.768 78.386 0.00 0.59447 0.48
11 10 13 o 207.664 207.184 180.00 0.58558 1.73
9 8 -14 o 1.135 1.137 180.00 0.59210 0.01
13 3 -14 o 95.126 95.298 180.00 0.59210 0.61
16 14 8 o 125.531 125.757 180.00 0.59210 0.81
26 0 8 o 177.989 178.310 180.00 0.59210 0.57
21 5 10 o 23.741 23.687 180.00 0.58556 0.20
23 8 -6 o 17.840 17.774 180.00 0.59090 0.12
19 13 6 o 6.852 6.826 180.00 0.59090 0.05
23 8 6 o 13.604 13.554 180.00 0.59090 0.09
19 13 -6 o 8.368 8.337 180.00 0.59090 0.06
20 8 -9 o 49.927 49.522 180.00 0.58977 0.35
20 8 9 o 83.883 83.203 180.00 0.58977 0.58
3 2 16 o 1.065 1.055 180.00 0.58863 0.01
24 8 -5 o 3.496 3.489 0.00 0.58549 0.03
22 12 -2 o 1.025 1.016 0.00 0.58968 0.01
15 5 13 o 270.872 268.758 0.00 0.58750 2.05
22 12 1 o 83.405 83.592 0.00 0.59311 0.52
23 7 7 o 30.404 30.115 180.00 0.58856 0.22
20 13 -5 o 70.065 69.768 180.00 0.58645 0.56
21 8 -8 o 2.722 2.728 0.00 0.59309 0.02
22 11 -4 o 18.259 18.177 0.00 0.59075 0.12
4 0 16 o 10.895 10.802 0.00 0.58960 0.04
15 10 11 o 916.160 918.377 0.00 0.59302 5.74
9 3 15 o 103.944 104.025 0.00 0.59183 0.67
9 3 -15 o 84.479 84.546 0.00 0.59183 0.55
27 5 -2 o 281.222 279.847 0.00 0.59066 1.89
25 8 2 o 30.934 30.783 180.00 0.59066 0.21
29 2 0 o 14.100 14.029 0.00 0.59063 0.09
23 11 0 o 39.044 38.848 180.00 0.59063 0.26
24 10 -1 o 72.365 72.206 0.00 0.58532 0.61
28 2 -4 o 275.081 275.191 180.00 0.59174 1.79
19 14 5 o 32.727 32.418 0.00 0.58838 0.24
3 1 -16 o 22.602 22.483 180.00 0.59058 0.15
17 5 12 o 76.179 76.201 0.00 0.59171 0.50
13 10 12 o 148.535 148.578 180.00 0.59171 0.97
17 5 -12 o 20.724 20.730 0.00 0.59171 0.13
13 10 -12 o 54.064 54.079 180.00 0.59171 0.35
22 3 10 o 10.229 10.139 180.00 0.58942 0.07
17 10 10 o 231.036 228.988 0.00 0.58942 1.62
19 12 7 o 155.601 154.733 0.00 0.59051 1.05
30 0 0 o 885.988 885.857 0.00 0.59162 2.89
19 11 8 o 192.293 190.963 180.00 0.58722 1.48
20 4 -11 o 6.359 6.337 180.00 0.58619 0.05
29 0 -4 o 85.688 85.922 0.00 0.59272 0.27
14 6 -13 o 21.125 20.999 180.00 0.59042 0.14
20 6 -10 o 208.721 207.461 180.00 0.59040 1.42
26 7 1 o 0.014 0.013 180.00 0.58820 0.00
12 5 -14 o 68.338 67.706 0.00 0.58819 0.50
24 4 8 o 1.502 1.489 0.00 0.58818 0.01
20 14 -3 o 0.944 0.936 0.00 0.58923 0.01
20 14 3 o 5.518 5.467 0.00 0.58923 0.04
23 9 5 o 0.492 0.489 180.00 0.59033 0.00
17 16 -5 o 4.276 4.249 180.00 0.59033 0.03
16 3 13 o 2.803 2.800 0.00 0.59141 0.02
23 1 10 o 0.503 0.503 180.00 0.59138 0.00
16 11 -10 o 5.433 5.426 0.00 0.59138 0.04
24 9 3 o 1.440 1.431 0.00 0.59021 0.01
24 9 -3 o 17.254 17.137 0.00 0.59021 0.12
21 2 -11 o 0.341 0.337 180.00 0.58909 0.00
11 6 14 o 4.325 4.294 0.00 0.59013 0.03
8 5 15 o 102.832 101.925 180.00 0.58792 0.77
8 5 -15 o 8.409 8.334 0.00 0.58792 0.06
22 0 -11 o 1.975 1.961 0.00 0.59006 0.01
23 10 4 o 161.913 160.992 180.00 0.58686 1.26
16 13 9 o 5.237 5.207 180.00 0.58686 0.04
16 13 -9 o 19.943 19.830 0.00 0.58686 0.16
27 4 -4 o 89.852 88.995 0.00 0.58880 0.65
