#------------------------------------------------------------------------------
#$Date: 2019-11-22 23:11:02 +0200 (Fri, 22 Nov 2019) $
#$Revision: 231528 $
#$URL: file:///home/coder/svn-repositories/cod/cif/4/00/33/4003352.cif $
#------------------------------------------------------------------------------
#
# This file is available in the Crystallography Open Database (COD),
# http://www.crystallography.net/
#
# All data on this site have been placed in the public domain by the
# contributors.
#
data_4003352
loop_
_publ_author_name
'Zhou, Zhengyang'
'Qiu, Yi'
'Liang, Fei'
'Palatinus, Luk\'a\<s'
'Poupon, Morgane'
'Yang, Tao'
'Cong, Rihong'
'Lin, Zheshuai'
'Sun, Junliang'
_publ_section_title
;
 CsSiB3O7: A Beryllium-Free Deep-Ultraviolet Nonlinear Optical Material
 Discovered by the Combination of Electron Diffraction and
 First-Principles Calculations
;
_journal_issue                   7
_journal_name_full               'Chemistry of Materials'
_journal_page_first              2203
_journal_paper_doi               10.1021/acs.chemmater.8b00545
_journal_volume                  30
_journal_year                    2018
_chemical_formula_sum            'B3 Cs O7 Si'
_chemical_formula_weight         305.4
_space_group_IT_number           33
_space_group_name_Hall           'P 2c -2n'
_space_group_name_H-M_alt        'P n a 21'
_symmetry_cell_setting           orthorhombic
_symmetry_Int_Tables_number      33
_symmetry_space_group_name_Hall  'P 2c -2n'
_symmetry_space_group_name_H-M   'P n a 21'
_cell_angle_alpha                90
_cell_angle_beta                 90
_cell_angle_gamma                90
_cell_formula_units_Z            4
_cell_length_a                   9.2171
_cell_length_b                   10.027
_cell_length_c                   6.9348
_cell_measurement_temperature    293
_cell_volume                     640.913
_diffrn_ambient_temperature      293
_diffrn_measured_fraction_theta_full 0.74
_diffrn_measured_fraction_theta_max 0.74
_diffrn_radiation_probe          electron
_diffrn_radiation_type           electron
_diffrn_radiation_wavelength     0.0335
_diffrn_reflns_av_unetI/netI     0.0279
_diffrn_reflns_limit_h_max       12
_diffrn_reflns_limit_h_min       -12
_diffrn_reflns_limit_k_max       11
_diffrn_reflns_limit_k_min       -11
_diffrn_reflns_limit_l_max       9
_diffrn_reflns_limit_l_min       -9
_diffrn_reflns_number            17705
_diffrn_reflns_theta_full        1.34
_diffrn_reflns_theta_max         1.34
_diffrn_reflns_theta_min         0.17
_exptl_absorpt_coefficient_mu    0
_exptl_crystal_density_diffrn    3.1652
_exptl_crystal_F_000             560
_refine_diff_density_max         0.17
_refine_diff_density_min         -0.15
_refine_ls_abs_structure_details
'  1493 of Friedel pairs used in the refinement'
_refine_ls_extinction_method     none
_refine_ls_goodness_of_fit_gt    4.56
_refine_ls_goodness_of_fit_ref   4.34
_refine_ls_number_constraints    4
_refine_ls_number_parameters     153
_refine_ls_number_reflns         4851
_refine_ls_number_restraints     0
_refine_ls_R_factor_all          0.1040
_refine_ls_R_factor_gt           0.0961
_refine_ls_shift/su_max          0.1589
_refine_ls_shift/su_mean         0.0264
_refine_ls_structure_factor_coef F
_refine_ls_weighting_details     w=1/(\s^2^(F)+0.0001F^2^)
_refine_ls_weighting_scheme      sigma
_refine_ls_wR_factor_gt          0.1020
_refine_ls_wR_factor_ref         0.1024
_reflns_number_gt                4373
_reflns_number_total             4851
_reflns_threshold_expression     I>3\s(I)
_cod_data_source_file            cm8b00545_si_002.cif
_cod_data_source_block           I
_cod_original_cell_volume        640.9133
_cod_original_sg_symbol_Hall     'P -2xabc;-2yab;2zc'
_cod_original_formula_sum        'B3 Cs1 O7 Si1'
_cod_database_code               4003352
loop_
_space_group_symop_id
_space_group_symop_operation_xyz
1 x,y,z
2 -x,-y,z+1/2
3 x+1/2,-y+1/2,z
4 -x+1/2,y+1/2,z+1/2
loop_
_atom_site_label
_atom_site_type_symbol
_atom_site_fract_x
_atom_site_fract_y
_atom_site_fract_z
_atom_site_adp_type
_atom_site_U_iso_or_equiv
_atom_site_site_symmetry_multiplicity
_atom_site_occupancy
_atom_site_calc_flag
Cs1 Cs 0.49036(11) 0.8181(2) 0.00306 Uani 0.0187(6) 4 1 d
Si1 Si 0.2639(3) 0.6105(4) 0.4870(5) Uiso 0.0006(6) 4 1 d
B1 B 0.0390(6) 0.7929(11) 0.4632(9) Uiso 0.001 4 1 d
B2 B 0.3406(6) 0.4484(12) 0.1899(9) Uiso 0.001 4 1 d
B3 B 0.3192(6) 0.4915(12) 0.8513(8) Uiso 0.001 4 1 d
O1 O 0.1049(5) 0.6575(8) 0.4254(6) Uiso 0.0042(9) 4 1 d
O2 O 0.0789(5) 0.8413(9) 0.6534(6) Uiso 0.0064(10) 4 1 d
O3 O 0.0936(5) 0.8931(8) 0.3096(7) Uiso 0.0061(10) 4 1 d
O4 O 0.2561(5) 0.5720(8) 0.7159(7) Uiso 0.0076(10) 4 1 d
O5 O 0.2944(4) 0.5308(8) 0.0420(6) Uiso 0.0057(10) 4 1 d
O6 O 0.3840(5) 0.7222(8) 0.4476(6) Uiso 0.0068(10) 4 1 d
O7 O 0.2961(5) 0.4737(8) 0.3746(7) Uiso 0.0059(10) 4 1 d
loop_
_atom_site_aniso_label
_atom_site_aniso_type_symbol
_atom_site_aniso_U_11
_atom_site_aniso_U_22
_atom_site_aniso_U_33
_atom_site_aniso_U_12
_atom_site_aniso_U_13
_atom_site_aniso_U_23
Cs1 Cs 0.0205(5) 0.0215(15) 0.0142(4) 0.0036(6) -0.0001(5) 0.0017(8)
loop_
_geom_angle_atom_site_label_1
_geom_angle_atom_site_label_2
_geom_angle_atom_site_label_3
_geom_angle_site_symmetry_3
_geom_angle
Si1 O1 B1 . 126.0(5)
B1 O2 B2 4_555 125.7(6)
B1 O3 B3 4_554 122.6(5)
Si1 O4 B3 . 141.9(5)
B2 O5 B3 1_554 118.8(8)
Si1 O6 B1 3_565 126.9(7)
Si1 O7 B2 . 131.9(7)
loop_
_geom_bond_atom_site_label_1
_geom_bond_atom_site_label_2
_geom_bond_site_symmetry_2
_geom_bond_distance
O1 Si1 . 1.597(5)
O1 B1 . 1.510(13)
O2 B1 . 1.453(8)
O2 B2 4_555 1.330(12)
O3 B1 . 1.548(11)
O3 B3 4_554 1.305(12)
O4 Si1 . 1.635(6)
O4 B3 . 1.368(10)
O5 B2 . 1.385(10)
O5 B3 1_554 1.399(8)
O6 Si1 . 1.599(8)
O6 B1 3_565 1.441(7)
O7 Si1 . 1.606(8)
O7 B2 . 1.369(8)
loop_
_refln_index_h
_refln_index_k
_refln_index_l
_refln_intensity_calc
_refln_intensity_meas
_refln_intensity_sigma
_refln_scale_group_code
_refln_observed_status
-5 8 -7 371.41 319.40 39.50 1 o
-4 7 -6 474.57 276.40 43.70 1 o
-1 9 -6 324.53 320.70 41.90 1 o
1 10 -6 258.62 181.60 39.60 1 o
-11 1 -5 90.90 39.90 38.20 1 <
-8 3 -5 571.57 359.10 44.70 1 o
-5 5 -5 804.71 687.40 50.60 1 o
-10 0 -4 404.45 168.40 42.30 1 o
-7 2 -4 1685.10 1508.30 55.90 1 o
-4 4 -4 2105.60 2057.20 65.50 1 o
1 7 -4 551.08 570.10 57.00 1 o
6 10 -4 201.23 155.20 38.90 1 o
-9 -1 -3 238.78 366.80 47.60 1 o
-6 1 -3 1894.50 2113.20 66.90 1 o
-3 3 -3 2775.50 2787.50 76.60 1 o
2 6 -3 706.21 717.40 63.30 1 o
7 9 -3 312.42 368.70 41.00 1 o
-11 -4 -2 189.77 34.20 40.20 1 <
-8 -2 -2 907.31 1180.00 57.70 1 o
-2 2 -2 11753.00 13007.40 116.40 1 o
8 8 -2 822.24 285.00 42.20 1 o
-10 -5 -1 90.15 162.30 42.50 1 o
4 4 -1 2209.00 2270.90 77.10 1 o
9 7 -1 72.93 132.50 41.00 1 o
-9 -6 0 402.24 189.60 45.40 1 o
5 3 0 8571.80 11533.20 91.50 1 o
-8 -7 1 338.19 334.80 48.10 1 o
-5 -5 1 1534.10 1524.50 67.90 1 o
6 2 1 2022.70 1876.10 69.80 1 o
8 3 1 645.47 604.80 56.10 1 o
-7 -8 2 763.12 382.50 45.50 1 o
-4 -6 2 1631.80 1775.30 65.50 1 o
-1 -4 2 5899.30 4855.30 94.30 1 o
9 2 2 524.72 452.30 48.40 1 o
11 3 2 497.61 284.80 41.00 1 o
-6 -9 3 114.04 211.20 43.10 1 o
-3 -7 3 801.43 504.90 58.50 1 o
5 -2 3 4454.70 4378.30 73.10 1 o
10 1 3 1090.80 996.00 45.40 1 o
12 2 3 131.44 155.20 37.20 1 o
3 -5 4 1152.50 968.40 61.70 1 o
8 -2 4 131.70 232.30 46.70 1 o
-2 -10 5 198.32 287.00 40.20 1 o
1 -8 5 212.40 234.30 45.50 1 o
4 -6 5 252.08 377.40 48.20 1 o
6 -5 5 420.07 416.20 46.20 1 o
9 -3 5 204.76 92.70 40.20 1 <
4 -8 6 324.18 309.40 40.80 1 o
7 -6 6 53.15 66.10 38.40 1 <
9 -5 6 308.14 312.00 37.60 1 o
-6 7 -7 345.99 234.90 39.10 2 o
-3 9 -7 119.74 114.30 38.70 2 <
-7 5 -6 503.60 241.90 41.90 2 o
-2 8 -6 558.43 390.80 43.80 2 o
-9 2 -5 873.60 508.90 43.60 2 o
-6 4 -5 166.35 319.40 48.40 2 o
-3 6 -5 1699.20 1255.40 52.80 2 o
2 9 -5 481.16 653.30 44.00 2 o
4 10 -5 522.53 305.70 40.10 2 o
-2 5 -4 837.75 673.20 62.90 2 o
3 8 -4 301.45 467.90 48.00 2 o
5 9 -4 340.29 457.10 42.40 2 o
-9 -1 -3 432.23 203.00 46.90 2 o
-6 1 -3 3409.30 2846.10 68.10 2 o
4 7 -3 2580.40 3031.90 60.80 2 o
-11 -4 -2 143.77 107.80 40.30 2 <
-8 -2 -2 1177.90 1624.90 58.10 2 o
3 5 -2 4054.00 4402.30 75.40 2 o
5 6 -2 2111.10 1943.90 63.30 2 o
-10 -5 -1 109.30 96.90 42.80 2 <
4 4 -1 3014.10 2452.50 75.50 2 o
-9 -6 0 254.67 134.40 45.30 2 <
5 3 0 10216.00 13040.40 93.20 2 o
1 -1 1 10390.00 8385.80 174.10 2 o
6 2 1 1326.30 1825.80 68.40 2 o
8 3 1 437.53 452.00 55.50 2 o
2 -2 2 7622.30 10880.80 114.40 2 o
7 1 2 1716.40 1319.80 62.70 2 o
9 2 2 694.15 474.20 48.10 2 o
11 3 2 527.64 432.90 41.20 2 o
-6 -9 3 295.26 282.40 43.00 2 o
3 -3 3 2733.20 2016.60 75.10 2 o
10 1 3 314.71 496.40 43.30 2 o
12 2 3 100.19 91.20 36.50 2 <
-5 -10 4 88.32 114.90 40.10 2 <
-2 -8 4 1036.90 927.60 51.60 2 o
1 -6 4 507.18 681.30 60.00 2 o
6 -3 4 368.90 443.70 55.90 2 o
-4 -11 5 168.97 252.00 37.30 2 o
-1 -9 5 498.94 318.10 42.90 2 o
2 -7 5 1097.80 692.70 49.10 2 o
7 -4 5 332.02 497.20 44.80 2 o
9 -3 5 77.75 11.20 40.00 2 <
0 -10 6 262.09 324.80 38.20 2 o
5 -7 6 119.27 196.10 40.20 2 o
-7 6 -7 420.71 277.70 38.80 3 o
-4 8 -7 254.17 85.10 39.00 3 <
-2 9 -7 193.43 195.80 38.70 3 o
-8 4 -6 238.69 198.70 40.20 3 o
-3 7 -6 145.11 223.80 43.20 3 o
2 10 -6 75.66 118.50 38.70 3 o
-4 5 -5 477.47 627.40 52.20 3 o
1 8 -5 335.22 233.90 45.60 3 o
-11 -1 -4 336.99 366.50 40.20 3 o
-8 1 -4 193.30 186.90 47.40 3 o
-5 3 -4 1519.00 1033.40 61.70 3 o
0 6 -4 213.80 356.00 60.40 3 o
7 10 -4 275.51 152.40 37.00 3 o
-1 4 -3 10459.00 10498.60 90.40 3 o
6 8 -3 786.28 614.90 44.80 3 o
8 9 -3 557.69 253.10 38.50 3 o
-11 -4 -2 386.67 288.40 40.00 3 o
-8 -2 -2 880.33 1368.80 56.80 3 o
5 6 -2 1955.80 1792.70 62.00 3 o
7 7 -2 1233.20 941.20 48.00 3 o
-10 -5 -1 213.43 124.20 42.50 3 <
-4 -1 -1 14312.00 15593.30 111.50 3 o
6 5 -1 2803.50 3017.60 65.90 3 o
5 3 0 9930.80 12574.70 92.30 3 o
7 4 0 629.37 894.70 60.00 3 o
-10 -8 1 305.87 278.10 41.50 3 o
-7 -6 1 2427.50 1943.60 58.10 3 o
6 2 1 1430.00 1449.60 68.00 3 o
-9 -9 2 363.60 407.40 41.20 3 o
-6 -7 2 523.13 543.80 51.90 3 o
-3 -5 2 4261.30 3949.00 74.40 3 o
7 1 2 2175.50 1917.40 63.60 3 o
-8 -10 3 230.76 39.40 38.40 3 <
-5 -8 3 273.29 504.60 47.50 3 o
-2 -6 3 848.52 1156.20 63.40 3 o
8 0 3 675.16 768.00 52.30 3 o
10 1 3 1286.40 993.60 44.60 3 o
-4 -9 4 295.97 368.90 43.40 3 o
-1 -7 4 913.55 1164.70 57.70 3 o
4 -4 4 2520.20 2302.90 64.60 3 o
9 -1 4 427.40 210.80 42.90 3 o
-3 -10 5 541.83 323.10 40.20 3 o
5 -5 5 473.98 517.40 48.60 3 o
10 -2 5 244.31 231.60 38.60 3 o
1 -9 6 302.61 221.30 40.50 3 o
6 -6 6 528.30 566.00 42.30 3 o
-5 7 -7 254.67 49.10 39.10 4 <
-3 8 -7 471.88 268.40 40.10 4 o
-9 3 -6 138.75 101.10 39.30 4 <
-6 5 -6 230.14 182.00 42.50 4 o
-1 8 -6 181.25 237.50 42.30 4 o
1 9 -6 306.99 386.10 41.50 4 o
-10 1 -5 492.19 571.00 41.20 4 o
-7 3 -5 561.15 445.70 46.40 4 o
-2 6 -5 479.21 308.80 52.40 4 o
5 10 -5 117.01 194.90 38.80 4 o
-11 -1 -4 280.54 319.50 39.60 4 o
-3 4 -4 550.33 652.50 62.50 4 o
4 8 -4 1128.30 979.00 47.50 4 o
6 9 -4 124.43 125.80 39.90 4 o
-4 2 -3 605.88 754.00 68.20 4 o
3 6 -3 1904.80 2099.50 64.20 4 o
-11 -4 -2 438.63 186.20 39.80 4 o
-8 -2 -2 1455.50 1737.40 57.60 4 o
9 8 -2 214.11 198.50 38.80 4 o
-4 -1 -1 10499.00 14134.70 108.80 4 o
8 6 -1 409.83 378.00 46.10 4 o
10 7 -1 252.47 335.20 39.30 4 o
-11 -7 0 226.79 258.00 39.20 4 o
-8 -5 0 1108.80 1135.40 53.70 4 o
7 4 0 516.66 726.20 59.40 4 o
9 5 0 674.87 668.50 45.80 4 o
11 6 0 85.39 102.10 37.50 4 <
-10 -8 1 173.72 127.70 41.10 4 o
-7 -6 1 1418.40 1626.20 57.00 4 o
-4 -4 1 1687.10 1866.10 75.90 4 o
6 2 1 1238.80 1350.70 66.90 4 o
-8 -8 2 340.77 551.20 43.40 4 o
7 1 2 1617.10 1613.00 62.80 4 o
-7 -9 3 262.46 254.90 40.70 4 o
-4 -7 3 2378.10 2187.80 58.90 4 o
1 -4 3 10758.00 9505.50 88.20 4 o
6 -1 3 2618.60 2029.20 63.90 4 o
8 0 3 1566.20 1374.00 53.70 4 o
-6 -10 4 183.04 72.60 38.50 4 <
-3 -8 4 219.18 298.70 46.60 4 o
7 -2 4 1166.10 1072.70 52.90 4 o
9 -1 4 365.29 484.10 43.40 4 o
-2 -9 5 1126.50 788.90 44.10 4 o
1 -7 5 90.51 126.80 47.90 4 <
8 -3 5 541.90 406.30 42.70 4 o
10 -2 5 147.90 111.20 38.40 4 <
-1 -10 6 449.16 239.40 38.20 4 o
2 -8 6 538.77 432.90 41.70 4 o
4 -7 6 160.11 227.60 41.10 4 o
7 -5 6 469.09 556.00 41.10 4 o
9 -4 6 226.31 259.20 37.70 4 o
3 -9 7 152.46 121.20 36.50 4 o
5 -8 7 105.24 116.70 36.30 4 o
-6 6 -7 189.39 119.60 38.90 5 o
-1 9 -7 232.40 148.00 38.70 5 o
-7 4 -6 354.63 267.60 42.10 5 o
-2 7 -6 97.38 114.80 43.50 5 <
3 10 -6 164.04 179.50 38.00 5 o
-8 2 -5 393.02 412.00 43.80 5 o
-5 4 -5 610.19 528.90 51.40 5 o
2 8 -5 395.94 239.90 44.80 5 o
-6 2 -4 2660.90 2361.10 61.20 5 o
-1 5 -4 4077.70 3651.70 68.80 5 o
6 9 -4 60.43 35.30 39.50 5 <
-10 -2 -3 208.15 -11.40 41.90 5 <
-2 3 -3 3779.80 3511.60 80.10 5 o
5 7 -3 549.16 476.50 50.10 5 o
7 8 -3 789.73 515.60 42.60 5 o
-11 -4 -2 289.58 198.80 39.80 5 o
-3 1 -2 4241.40 4460.70 98.20 5 o
2 4 -2 9504.00 9449.50 93.30 5 o
-10 -5 -1 564.74 253.80 42.20 5 o
-4 -1 -1 15830.00 16194.70 111.30 5 o
1 2 -1 29706.00 35753.90 164.50 5 o
8 6 -1 467.77 509.60 46.80 5 o
10 7 -1 395.73 423.40 39.60 5 o
-11 -7 0 342.11 292.90 39.10 5 o
-8 -5 0 1370.50 1229.20 54.00 5 o
7 4 0 542.67 608.70 59.00 5 o
9 5 0 679.57 579.00 45.90 5 o
11 6 0 129.63 167.10 37.70 5 o
6 2 1 1510.50 1325.00 67.60 5 o
-8 -8 2 439.14 558.40 44.40 5 o
-5 -6 2 2151.40 1757.40 62.80 5 o
-1 -5 3 1933.50 1735.20 69.10 5 o
4 -2 3 479.18 675.20 68.30 5 o
-5 -9 4 476.38 610.80 42.60 5 o
3 -4 4 772.10 954.20 62.30 5 o
5 -3 4 1779.50 2170.30 62.80 5 o
-4 -10 5 240.37 96.70 39.00 5 <
-1 -8 5 203.54 179.80 44.60 5 o
4 -5 5 418.39 745.50 51.40 5 o
11 -1 5 142.01 119.60 35.80 5 o
5 -6 6 196.80 419.10 41.90 5 o
4 -8 7 40.25 157.90 37.30 5 o
6 -7 7 311.58 440.90 37.80 5 o
-7 5 -7 295.05 286.40 39.10 6 o
-4 7 -7 565.59 548.80 41.40 6 o
-2 8 -7 165.94 249.80 39.30 6 o
-5 5 -6 750.15 659.20 45.20 6 o
0 8 -6 186.60 220.30 42.70 6 o
2 9 -6 432.20 119.20 40.20 6 <
-8 2 -5 336.44 230.80 43.80 6 o
-3 5 -5 1267.00 1431.20 56.40 6 o
4 9 -5 613.53 446.60 41.60 6 o
6 10 -5 85.91 68.40 36.40 6 <
-4 3 -4 960.55 1116.20 62.70 6 o
1 6 -4 563.17 343.60 59.40 6 o
3 7 -4 849.95 667.60 52.20 6 o
-10 -2 -3 143.57 117.40 41.90 6 <
7 8 -3 620.79 693.60 43.30 6 o
9 9 -3 56.78 19.90 36.40 6 <
-3 1 -2 6694.50 5770.00 99.20 6 o
4 5 -2 978.16 1150.20 65.50 6 o
-10 -5 -1 288.85 297.10 41.90 6 o
-4 -1 -1 17726.00 17313.70 111.70 6 o
10 7 -1 412.86 382.20 39.80 6 o
-11 -7 0 385.45 188.20 38.60 6 o
-8 -5 0 911.29 918.70 52.10 6 o
-5 -3 0 12587.00 13775.40 93.50 6 o
7 4 0 599.42 698.80 59.20 6 o
9 5 0 1165.60 1132.20 46.70 6 o
11 6 0 75.28 154.40 37.50 6 o
-9 -7 1 192.33 269.50 44.20 6 o
-1 -2 1 33197.00 38239.70 167.20 6 o
6 2 1 1449.60 1892.40 67.80 6 o
-5 -6 2 2216.20 2662.70 64.70 6 o
-2 -4 2 10043.00 8683.80 92.90 6 o
-6 -8 3 1094.80 469.50 45.30 6 o
11 2 3 371.79 363.80 39.10 6 o
-2 -7 4 790.31 1004.30 55.00 6 o
3 -4 4 957.34 1039.60 61.90 6 o
8 -1 4 158.10 347.80 46.30 6 o
10 0 4 374.93 381.10 40.10 6 o
-3 -9 5 326.42 239.30 40.80 6 o
2 -6 5 510.00 430.60 51.50 6 o
7 -3 5 830.26 973.60 46.90 6 o
9 -2 5 947.11 669.80 41.90 6 o
11 -1 5 112.23 40.70 35.70 6 <
-2 -10 6 250.87 305.20 37.30 6 o
1 -8 6 495.05 248.30 41.80 6 o
3 -7 6 107.43 153.70 41.70 6 o
8 -4 6 283.88 334.70 39.40 6 o
2 -9 7 208.96 241.90 37.10 6 o
7 -6 7 97.09 199.90 37.00 6 o
-5 6 -7 397.21 350.30 40.60 7 o
-8 3 -6 143.77 162.20 40.70 7 o
-3 6 -6 303.91 288.30 45.10 7 o
-1 7 -6 793.82 480.60 45.40 7 o
-9 1 -5 728.96 552.20 42.80 7 o
-6 3 -5 1085.80 935.70 50.70 7 o
1 7 -5 1478.60 1398.20 52.10 7 o
3 8 -5 645.50 590.70 45.10 7 o
-7 1 -4 1648.60 1129.10 54.60 7 o
-2 4 -4 2236.20 1653.00 65.40 7 o
5 8 -4 251.58 133.40 42.90 7 o
7 9 -4 435.73 339.50 38.90 7 o
-5 1 -3 1725.70 1942.60 67.60 7 o
2 5 -3 6755.60 6995.60 77.50 7 o
-6 -1 -2 807.88 744.80 64.00 7 o
6 6 -2 1537.10 1853.00 58.00 7 o
8 7 -2 655.75 665.10 43.60 7 o
10 8 -2 434.97 412.90 38.50 7 o
-4 -1 -1 14209.00 18777.00 113.90 7 o
3 3 -1 2798.50 2592.70 93.70 7 o
-5 -3 0 11540.00 10812.50 89.70 7 o
9 5 0 903.04 852.20 46.10 7 o
11 6 0 79.46 257.00 37.80 7 o
-9 -7 1 723.46 631.20 45.80 7 o
-6 -5 1 2060.20 2130.50 65.50 7 o
6 2 1 2166.20 1880.50 68.20 7 o
-7 -7 2 254.72 599.90 47.90 7 o
3 -1 2 8269.70 7268.40 102.50 7 o
-8 -9 3 123.69 209.00 39.50 7 o
9 1 3 150.93 347.30 45.00 7 o
11 2 3 605.74 515.60 39.60 7 o
-4 -8 4 530.47 578.90 46.50 7 o
-1 -6 4 443.08 406.70 58.90 7 o
6 -2 4 1743.80 2357.00 61.40 7 o
8 -1 4 645.46 550.30 47.60 7 o
10 0 4 412.58 281.90 40.50 7 o
-5 -10 5 165.56 312.10 39.10 7 o
-2 -8 5 259.76 258.90 43.70 7 o
5 -4 5 1360.20 1773.80 54.20 7 o
-1 -9 6 142.13 282.40 39.80 7 o
2 -7 6 103.16 58.80 42.40 7 <
4 -6 6 774.02 567.20 44.20 7 o
3 -8 7 168.14 249.10 38.50 7 o
-6 5 -7 1474.20 891.30 43.10 8 o
-1 8 -7 411.00 386.90 41.10 8 o
1 9 -7 260.48 167.70 38.80 8 o
-9 2 -6 429.99 341.80 40.30 8 o
-4 5 -6 501.91 352.70 46.20 8 o
1 8 -6 390.22 178.60 42.60 8 o
3 9 -6 196.82 320.10 40.20 8 o
-7 2 -5 803.52 645.80 48.00 8 o
-2 5 -5 958.79 710.10 57.20 8 o
5 9 -5 118.62 262.70 40.10 8 o
-10 -1 -4 595.31 331.80 42.20 8 o
-5 2 -4 823.28 1003.70 62.00 8 o
2 6 -4 4172.00 4815.00 68.30 8 o
-11 -3 -3 296.25 303.80 40.50 8 o
-8 -1 -3 536.88 534.80 52.10 8 o
-3 2 -3 9570.20 8964.70 88.90 8 o
4 6 -3 1248.50 824.90 59.40 8 o
6 7 -3 932.35 857.90 48.10 8 o
8 8 -3 74.77 259.90 39.60 8 o
-9 -3 -2 690.84 898.80 48.30 8 o
-6 -1 -2 1092.40 585.20 63.70 8 o
10 8 -2 228.41 358.40 37.60 8 o
3 3 -1 2681.40 2534.60 92.50 8 o
5 4 -1 9437.80 10136.00 83.00 8 o
-5 -3 0 11526.00 13425.70 92.60 8 o
9 5 0 1346.20 986.50 46.30 8 o
11 6 0 39.88 129.00 37.30 8 o
-6 -5 1 3727.20 4411.10 69.90 8 o
4 1 1 19089.00 20208.50 115.90 8 o
-4 -5 2 1516.50 1161.00 64.30 8 o
1 -2 2 15632.00 15554.40 123.60 8 o
10 3 2 86.51 100.50 41.50 8 <
12 4 2 244.81 311.70 36.80 8 o
-8 -9 3 307.96 330.30 39.60 8 o
-5 -7 3 398.99 410.30 50.10 8 o
5 -1 3 902.23 1031.60 64.80 8 o
9 1 3 582.01 312.40 44.90 8 o
-6 -9 4 287.02 177.80 39.90 8 o
-3 -7 4 427.60 396.90 51.30 8 o
4 -3 4 1294.90 1451.10 62.80 8 o
-4 -9 5 356.00 258.90 39.70 8 o
1 -6 5 700.05 820.30 53.30 8 o
8 -2 5 206.91 359.60 42.50 8 o
10 -1 5 391.19 342.20 38.80 8 o
0 -8 6 719.22 627.10 42.50 8 o
5 -5 6 911.81 511.40 43.60 8 o
7 -4 6 346.85 161.00 40.60 8 o
9 -3 6 27.85 5.80 37.20 8 <
4 -7 7 732.87 801.20 40.60 8 o
6 -6 7 157.33 213.10 38.10 8 o
-4 6 -7 91.62 136.50 41.40 9 o
-9 2 -6 312.41 175.80 40.00 9 o
-7 3 -6 1379.60 1821.10 48.20 9 o
-2 6 -6 1377.80 1457.00 50.40 9 o
-10 0 -5 132.19 23.90 40.60 9 <
-7 2 -5 2474.30 1561.80 51.30 9 o
-5 2 -4 778.15 1068.60 62.80 9 o
2 6 -4 3909.00 4373.20 67.40 9 o
4 7 -4 215.00 179.00 48.50 9 o
6 8 -4 482.20 707.20 42.90 9 o
8 9 -4 289.75 212.20 36.80 9 o
-11 -3 -3 120.64 54.30 40.80 9 <
-8 -1 -3 1231.80 1014.80 53.70 9 o
6 7 -3 1324.40 1482.80 49.90 9 o
8 8 -3 488.38 404.00 40.40 9 o
-9 -3 -2 2153.80 1100.80 49.40 9 o
1 3 -2 19380.00 23343.30 123.20 9 o
5 4 -1 7490.40 7215.10 78.20 9 o
7 5 -1 526.22 838.70 55.50 9 o
9 6 -1 216.03 264.60 41.90 9 o
11 7 -1 63.86 89.60 36.80 9 <
-10 -6 0 1092.90 952.70 44.90 9 o
-5 -3 0 16418.00 14435.90 94.90 9 o
11 6 0 114.31 240.50 37.60 9 o
-8 -6 1 534.68 558.90 49.50 9 o
-3 -3 1 3922.80 3605.40 94.90 9 o
4 1 1 12771.00 16417.30 111.80 9 o
-9 -8 2 109.89 200.30 41.20 9 o
10 3 2 97.82 172.00 41.70 9 o
12 4 2 306.56 205.40 36.80 9 o
-7 -8 3 658.61 857.40 44.60 9 o
-2 -5 3 4442.10 5628.00 75.00 9 o
5 -1 3 1873.40 1798.40 67.00 9 o
-3 -7 4 915.49 715.50 52.70 9 o
2 -4 4 3562.10 2971.50 68.20 9 o
11 1 4 357.08 270.40 38.10 9 o
-6 -10 5 115.37 35.30 37.10 9 <
-1 -7 5 230.10 553.00 48.50 9 o
6 -3 5 450.70 389.60 48.30 9 o
8 -2 5 165.53 102.90 42.70 9 <
10 -1 5 870.55 710.70 40.60 9 o
-2 -9 6 134.83 196.90 39.20 9 o
3 -6 6 663.52 557.80 44.80 9 o
5 -5 6 425.64 382.00 43.50 9 o
0 -9 7 207.64 140.00 37.60 9 o
2 -8 7 203.10 139.60 38.80 9 o
7 -5 7 404.48 353.30 38.00 9 o
-7 4 -7 298.16 657.70 41.80 10 o
-5 5 -7 110.86 307.70 42.10 10 o
2 9 -7 95.55 192.10 37.80 10 o
-10 1 -6 327.39 240.70 38.80 10 o
-5 4 -6 718.03 616.20 47.10 10 o
2 8 -6 1005.30 1286.20 45.40 10 o
4 9 -6 114.96 138.50 38.90 10 o
-10 0 -5 107.68 230.20 40.20 10 o
-8 1 -5 804.07 895.70 46.90 10 o
-3 4 -5 4615.90 5026.20 68.10 10 o
6 9 -5 300.04 308.40 38.50 10 o
-11 -2 -4 611.31 412.90 40.70 10 o
-8 0 -4 3708.60 3751.40 57.40 10 o
-1 4 -4 2802.50 3353.10 69.70 10 o
-11 -3 -3 307.16 138.80 40.30 10 o
-6 0 -3 1175.90 1280.30 63.00 10 o
1 4 -3 12985.00 12965.70 93.30 10 o
-9 -3 -2 2466.50 2446.60 52.50 10 o
-4 0 -2 20467.00 21289.30 111.00 10 o
3 4 -2 1862.70 1693.80 75.20 10 o
5 5 -2 3678.30 4268.40 68.50 10 o
7 6 -2 343.37 399.90 48.30 10 o
9 7 -2 104.82 82.90 40.00 10 <
7 5 -1 764.02 665.50 54.80 10 o
9 6 -1 334.86 492.40 42.90 10 o
11 7 -1 55.38 298.70 36.20 10 o
-10 -6 0 797.79 853.80 44.20 10 o
-8 -6 1 429.70 249.90 48.60 10 o
4 1 1 21475.00 20418.90 116.20 10 o
-6 -6 2 1903.30 1635.50 58.00 10 o
-1 -3 2 22365.00 19204.10 117.60 10 o
8 2 2 1245.10 1139.80 55.10 10 o
10 3 2 77.69 155.30 41.10 10 o
12 4 2 267.34 116.90 36.00 10 o
-9 -9 3 97.25 65.90 37.70 10 <
-4 -6 3 491.75 383.80 57.80 10 o
-7 -9 4 181.40 164.90 39.20 10 o
-2 -6 4 3172.20 3333.10 64.40 10 o
5 -2 4 639.73 951.70 60.20 10 o
7 -1 4 640.30 1343.50 54.10 10 o
11 1 4 309.49 393.80 38.70 10 o
-3 -8 5 1776.40 1102.10 45.50 10 o
2 -5 5 2192.30 1550.60 57.80 10 o
-1 -8 6 509.60 587.60 42.30 10 o
6 -4 6 443.85 405.80 42.70 10 o
8 -3 6 170.27 264.10 39.70 10 o
3 -7 7 191.69 218.00 39.70 10 o
-3 7 -8 151.52 109.50 38.20 11 <
-8 3 -7 128.23 325.00 39.30 11 o
-3 6 -7 392.53 464.00 42.40 11 o
-8 2 -6 865.28 430.50 42.00 11 o
-3 5 -6 1166.30 1144.10 49.80 11 o
-1 6 -6 397.08 330.50 46.60 11 o
-11 -1 -5 164.90 146.30 38.40 11 o
-8 1 -5 649.57 653.70 45.90 11 o
-1 5 -5 1067.20 838.90 58.70 11 o
-11 -2 -4 384.35 412.00 40.60 11 o
-6 1 -4 431.90 890.10 59.90 11 o
1 5 -4 5519.10 4536.80 70.20 11 o
-9 -2 -3 1435.10 1140.40 48.70 11 o
3 5 -3 1610.20 1477.60 64.80 11 o
5 6 -3 460.04 355.50 54.50 11 o
7 7 -3 143.88 276.70 42.50 11 o
9 8 -3 177.51 211.30 37.70 11 o
-9 -3 -2 1513.40 1793.80 51.30 11 o
-4 0 -2 18683.00 21384.80 111.90 11 o
5 5 -2 4883.10 4299.20 69.00 11 o
7 6 -2 533.55 756.20 49.20 11 o
9 7 -2 153.86 234.30 40.10 11 o
-2 0 -1 19132.00 20369.30 155.50 11 o
9 6 -1 248.34 184.30 41.90 11 o
11 7 -1 27.92 91.70 36.40 11 <
-10 -6 0 866.25 795.40 44.20 11 o
-8 -6 1 312.07 743.90 50.40 11 o
6 1 2 1171.80 1284.20 66.10 11 o
8 2 2 1601.90 1308.60 56.90 11 o
10 3 2 122.69 27.90 42.10 11 <
12 4 2 272.96 260.80 37.20 11 o
-9 -9 3 113.27 128.00 38.70 11 o
-6 -7 3 402.50 653.30 48.60 11 o
1 -3 3 3534.90 4241.60 86.50 11 o
-7 -9 4 542.56 334.30 40.00 11 o
-4 -7 4 504.69 809.40 49.90 11 o
3 -3 4 8582.20 7881.60 78.40 11 o
5 -2 4 991.75 1079.10 61.80 11 o
-5 -9 5 55.80 160.70 39.80 11 o
7 -2 5 739.12 1252.80 49.30 11 o
9 -1 5 694.55 326.20 41.60 11 o
-3 -9 6 466.49 371.00 40.10 11 o
2 -6 6 1384.30 1463.10 49.60 11 o
4 -5 6 266.14 288.60 45.50 11 o
-1 -9 7 60.05 158.40 37.50 11 o
6 -5 7 785.81 599.60 40.80 11 o
8 -4 7 133.11 102.20 37.50 11 <
-6 4 -7 235.67 289.70 41.00 12 o
3 9 -7 68.50 115.40 37.00 12 o
-6 3 -6 149.59 195.50 44.20 12 o
3 8 -6 86.33 89.80 40.00 12 <
5 9 -6 388.36 485.90 38.80 12 o
-11 -1 -5 153.37 94.40 37.80 12 <
-6 2 -5 673.98 719.40 51.40 12 o
5 8 -5 339.85 322.10 40.80 12 o
7 9 -5 114.71 163.70 35.90 12 o
-11 -2 -4 849.11 562.00 40.70 12 o
-4 2 -4 2813.60 2762.20 67.50 12 o
5 7 -4 325.47 260.30 45.10 12 o
7 8 -4 314.47 349.20 39.60 12 o
-9 -2 -3 707.06 744.80 46.80 12 o
-4 1 -3 3833.90 4330.80 77.90 12 o
-9 -3 -2 3021.60 2975.40 54.20 12 o
-2 0 -1 25858.00 22663.40 156.90 12 o
-7 -4 0 415.33 823.90 61.30 12 o
-10 -7 1 305.49 308.80 42.40 12 o
-5 -4 1 7185.80 7535.00 80.80 12 o
2 0 1 18461.00 20672.80 154.30 12 o
-8 -7 2 450.31 502.10 45.50 12 o
4 0 2 22671.00 28523.50 121.20 12 o
6 1 2 1648.90 1637.30 66.50 12 o
8 2 2 2043.40 1702.80 57.10 12 o
10 3 2 438.18 374.10 42.70 12 o
12 4 2 99.17 93.10 36.80 12 <
-8 -8 3 95.44 189.10 41.30 12 o
8 1 3 2561.90 2151.90 55.50 12 o
10 2 3 479.70 160.60 41.40 12 o
-6 -8 4 1177.40 1243.40 45.50 12 o
1 -4 4 2122.80 2566.10 68.00 12 o
-4 -8 5 142.71 452.90 42.70 12 o
3 -4 5 3888.60 3732.70 65.20 12 o
5 -3 5 561.91 873.50 54.00 12 o
-2 -8 6 1084.80 725.50 43.00 12 o
5 -4 6 564.57 650.30 46.20 12 o
7 -3 6 1342.80 940.60 44.10 12 o
9 -2 6 508.92 431.50 39.80 12 o
2 -7 7 1149.10 713.60 42.20 12 o
-4 6 -8 173.54 290.80 38.30 13 o
-2 7 -8 233.15 240.70 38.50 13 o
-4 5 -7 173.17 348.40 42.50 13 o
-2 6 -7 210.37 185.90 42.00 13 o
0 7 -7 1012.00 1007.80 44.30 13 o
-9 1 -6 127.98 189.80 39.50 13 o
-4 4 -6 1351.00 710.90 49.00 13 o
-2 5 -6 565.40 591.60 49.10 13 o
-4 3 -5 2280.30 1652.30 60.10 13 o
-2 4 -5 1215.10 1018.90 60.80 13 o
-9 -1 -4 628.41 828.40 45.60 13 o
-4 2 -4 2467.40 2490.70 67.40 13 o
-2 3 -4 1215.80 1409.00 67.70 13 o
-9 -2 -3 1177.60 927.90 47.20 13 o
-2 2 -3 1626.90 1273.10 83.20 13 o
-9 -3 -2 1301.20 1418.30 49.80 13 o
-2 1 -2 5032.50 5020.40 110.80 13 o
-7 -4 0 1835.00 1238.90 62.00 13 o
-10 -7 1 415.38 205.30 42.20 13 o
2 0 1 18332.00 20028.20 153.70 13 o
-10 -8 2 399.04 564.20 41.50 13 o
-5 -5 2 5510.80 6026.90 73.60 13 o
4 0 2 21113.00 27638.50 120.20 13 o
6 1 2 975.74 1389.60 65.80 13 o
8 2 2 1642.40 1664.90 57.50 13 o
10 3 2 100.99 117.20 42.20 13 <
12 4 2 177.86 221.20 37.00 13 o
-8 -8 3 162.44 171.40 41.30 13 o
-3 -5 3 2357.70 1855.90 65.10 13 o
6 0 3 1899.40 1829.30 64.80 13 o
8 1 3 4086.50 3698.40 59.90 13 o
10 2 3 215.72 280.70 41.50 13 o
-8 -9 4 242.71 190.10 37.70 13 o
-3 -6 4 224.61 312.30 55.00 13 o
-1 -5 4 5700.50 5772.80 72.40 13 o
-6 -9 5 842.18 687.10 40.50 13 o
-1 -6 5 974.08 741.80 52.60 13 o
1 -5 5 585.17 755.50 57.00 13 o
-4 -9 6 112.72 295.10 38.60 13 o
1 -6 6 272.94 274.80 45.20 13 o
3 -5 6 1576.30 1827.80 51.10 13 o
5 -4 6 539.84 507.30 45.60 13 o
-2 -9 7 274.85 289.60 37.30 13 o
5 -5 7 447.23 434.00 41.10 13 o
7 -4 7 830.03 520.30 39.90 13 o
-5 5 -8 298.11 273.20 38.40 14 o
-3 6 -8 149.34 140.70 38.30 14 o
-7 3 -7 532.12 394.20 40.20 14 o
-5 4 -7 267.01 289.30 41.60 14 o
-7 2 -6 124.63 51.10 41.50 14 <
-5 3 -6 2275.40 2434.40 51.90 14 o
4 8 -6 759.75 657.40 41.30 14 o
-7 1 -5 248.82 236.00 45.60 14 o
2 6 -5 872.59 891.60 52.00 14 o
4 7 -5 1635.60 1591.50 47.90 14 o
6 8 -5 140.64 253.00 38.80 14 o
0 4 -4 7438.60 7066.90 76.10 14 o
2 5 -4 870.79 1019.60 60.30 14 o
4 6 -4 964.70 1094.40 54.20 14 o
6 7 -4 242.10 439.10 43.30 14 o
8 8 -4 72.30 304.50 38.00 14 o
-7 -1 -3 1134.80 883.40 56.90 14 o
0 3 -3 1745.60 2172.50 81.90 14 o
2 4 -3 2164.50 2184.30 71.90 14 o
4 5 -3 1839.50 2107.40 63.30 14 o
6 6 -3 1312.00 1198.20 51.40 14 o
8 7 -3 617.96 637.60 42.30 14 o
-7 -2 -2 3310.10 3008.00 64.10 14 o
0 2 -2 34141.00 39559.50 148.50 14 o
10 7 -2 187.31 94.60 37.70 14 <
-7 -3 -1 474.14 425.70 59.20 14 o
0 1 -1 6922.10 10191.20 178.60 14 o
10 6 -1 296.82 399.50 39.90 14 o
-7 -4 0 485.98 998.10 60.10 14 o
-7 -5 1 1222.80 1245.20 58.50 14 o
-10 -8 2 505.83 410.10 41.30 14 o
-7 -6 2 723.81 746.00 51.00 14 o
2 -1 2 5827.40 4964.10 109.60 14 o
12 4 2 192.01 274.50 37.00 14 o
-5 -6 3 600.37 1471.10 57.10 14 o
2 -2 3 1991.50 1903.40 83.00 14 o
4 -1 3 6274.30 4517.60 78.30 14 o
10 2 3 128.20 315.10 41.40 14 o
-5 -7 4 1328.80 1052.20 48.00 14 o
2 -3 4 615.41 985.00 65.70 14 o
4 -2 4 6718.90 5613.00 72.30 14 o
6 -1 4 1334.80 942.60 58.70 14 o
8 0 4 3662.70 3783.90 56.90 14 o
10 1 4 375.22 368.40 40.90 14 o
-5 -8 5 148.34 245.60 41.00 14 o
-3 -7 5 297.02 344.60 44.70 14 o
4 -3 5 859.21 984.00 57.20 14 o
6 -2 5 512.51 495.50 49.90 14 o
8 -1 5 506.54 593.80 44.40 14 o
10 0 5 311.89 478.00 39.50 14 o
-3 -8 6 118.18 148.30 39.40 14 o
6 -3 6 455.89 379.40 43.50 14 o
8 -2 6 317.18 508.00 41.30 14 o
10 -1 6 160.35 151.10 36.60 14 o
-1 -8 7 290.60 341.00 38.80 14 o
3 -7 8 162.94 140.40 36.40 14 o
-1 7 -8 378.10 176.80 39.60 15 o
-3 5 -7 348.00 384.90 43.10 15 o
-1 6 -7 216.22 438.00 43.90 15 o
1 7 -7 105.49 105.60 40.90 15 <
3 8 -7 48.53 57.30 38.80 15 <
-10 0 -6 218.30 480.30 39.20 15 o
-5 3 -6 3227.00 2512.10 53.20 15 o
-3 4 -6 876.51 810.20 51.30 15 o
-5 2 -5 1273.10 1366.10 58.10 15 o
-7 -1 -3 674.26 936.80 59.50 15 o
4 5 -3 709.52 1105.90 63.50 15 o
6 6 -3 1267.00 978.50 52.40 15 o
8 7 -3 873.31 849.90 43.30 15 o
-7 -2 -2 3106.50 3459.90 66.80 15 o
2 3 -2 5034.30 4316.80 98.00 15 o
4 4 -2 3156.70 3245.30 74.20 15 o
6 5 -2 3834.30 3000.80 64.90 15 o
8 6 -2 850.98 706.00 46.40 15 o
10 7 -2 318.74 116.20 38.50 15 o
-7 -3 -1 522.43 592.60 61.60 15 o
2 2 -1 2339.90 1779.20 118.40 15 o
6 4 -1 2858.20 3784.20 69.50 15 o
8 5 -1 1373.30 1248.90 51.40 15 o
10 6 -1 326.00 332.60 40.30 15 o
-9 -5 0 1240.10 1059.20 48.40 15 o
8 4 0 1307.70 1446.40 56.20 15 o
10 5 0 280.88 244.50 41.80 15 o
-9 -6 1 108.14 264.80 45.40 15 o
0 -1 1 5796.00 9674.50 198.20 15 o
-9 -7 2 119.80 284.90 43.00 15 o
-7 -6 2 280.52 388.10 50.90 15 o
0 -2 2 39440.00 39457.10 153.60 15 o
12 4 2 389.17 370.40 37.50 15 o
-7 -7 3 356.28 287.50 44.70 15 o
0 -3 3 2809.30 3000.70 87.90 15 o
-7 -8 4 563.50 422.30 41.70 15 o
0 -4 4 6386.30 6579.20 77.60 15 o
2 -3 4 1542.60 1372.40 68.40 15 o
-7 -9 5 194.76 228.50 37.60 15 o
0 -5 5 2607.80 2627.50 63.30 15 o
2 -4 5 1145.60 1188.00 61.00 15 o
10 0 5 204.26 287.80 39.10 15 o
-5 -9 6 711.98 516.20 39.00 15 o
2 -5 6 555.70 588.70 49.20 15 o
4 -4 6 423.90 597.60 48.40 15 o
6 -3 6 412.69 405.50 44.30 15 o
8 -2 6 300.00 343.60 41.30 15 o
10 -1 6 244.17 253.90 37.40 15 o
2 -6 7 195.06 90.70 41.00 15 <
4 -5 7 190.15 276.80 41.30 15 o
6 -4 7 279.04 124.70 39.80 15 o
8 -3 7 61.24 120.50 37.80 15 o
4 -6 8 334.82 456.00 37.90 15 o
-4 5 -8 61.28 128.20 38.50 16 o
-2 6 -8 620.13 607.40 40.90 16 o
-8 2 -7 147.20 133.80 38.70 16 o
-6 3 -7 229.09 145.10 40.70 16 o
-8 1 -6 82.44 203.20 41.00 16 o
1 6 -6 568.54 683.00 47.10 16 o
3 7 -6 106.72 134.00 42.00 16 o
5 8 -6 58.24 147.10 38.90 16 o
-10 -1 -5 561.25 742.30 41.60 16 o
-3 3 -5 1244.40 1215.70 61.10 16 o
-1 4 -5 4902.60 5662.50 70.80 16 o
1 5 -5 797.89 1182.90 59.00 16 o
3 6 -5 1064.00 1125.50 50.70 16 o
5 7 -5 213.63 288.90 42.20 16 o
7 8 -5 768.54 387.20 38.30 16 o
-10 -2 -4 1047.30 831.90 43.10 16 o
-5 1 -4 2021.80 1631.60 62.90 16 o
-3 2 -4 5258.20 5276.60 74.30 16 o
-7 -2 -2 3636.90 2945.30 64.80 16 o
6 5 -2 3401.70 3208.40 63.60 16 o
-7 -3 -1 374.92 550.40 59.80 16 o
2 2 -1 2253.00 1645.50 113.80 16 o
4 3 -1 7758.80 8220.20 89.80 16 o
6 4 -1 1979.10 2451.80 65.20 16 o
8 5 -1 1196.10 1169.60 49.70 16 o
10 6 -1 371.06 281.10 39.30 16 o
-9 -5 0 972.51 1053.00 48.30 16 o
10 5 0 276.30 221.60 40.90 16 o
-9 -6 1 87.64 111.40 45.00 16 <
-9 -7 2 417.88 232.80 42.80 16 o
-2 -3 2 4876.80 4616.70 95.10 16 o
-9 -8 3 288.19 414.30 39.80 16 o
-2 -4 3 1343.30 1642.80 71.10 16 o
-4 -6 4 2626.10 2875.70 59.30 16 o
-2 -5 4 1119.50 842.90 61.00 16 o
-4 -7 5 1032.90 937.80 46.50 16 o
-2 -6 5 780.17 533.10 51.40 16 o
-4 -8 6 376.59 502.90 40.60 16 o
-2 -7 6 45.46 169.20 41.70 16 o
-2 -8 7 145.56 174.60 38.00 16 o
-2 5 -7 1490.10 1447.80 47.60 17 o
2 7 -7 327.02 519.00 42.00 17 o
4 8 -7 125.27 97.80 38.70 17 <
-6 2 -6 390.75 540.30 46.60 17 o
-4 3 -6 528.13 304.60 50.20 17 o
-8 0 -5 779.48 698.80 46.30 17 o
-10 -2 -4 667.44 761.80 43.80 17 o
-1 3 -4 5744.60 6601.20 80.90 17 o
1 4 -4 3377.60 3813.70 72.90 17 o
3 5 -4 1271.80 1157.50 62.50 17 o
5 6 -4 1119.80 901.60 52.10 17 o
7 7 -4 462.20 363.00 42.40 17 o
9 8 -4 336.79 217.70 37.80 17 o
-10 -3 -3 253.69 437.70 42.90 17 o
-3 1 -3 7092.10 6754.90 90.30 17 o
9 7 -3 140.45 158.00 39.70 17 o
-7 -2 -2 3102.50 3728.10 68.70 17 o
-7 -3 -1 392.86 431.10 62.10 17 o
6 4 -1 3100.70 3144.60 68.60 17 o
-9 -5 0 1402.50 1106.80 49.60 17 o
6 3 0 3208.70 3020.70 70.60 17 o
8 4 0 1222.10 1232.60 55.20 17 o
10 5 0 232.38 393.20 42.20 17 o
-11 -7 1 38.95 100.10 39.00 17 <
-9 -6 1 92.91 103.40 45.70 17 <
-2 -2 1 2183.80 1432.10 120.10 17 o
-4 -4 2 3188.10 3647.00 75.60 17 o
-6 -6 3 1123.70 1032.90 53.70 17 o
-4 -5 3 292.54 235.90 62.00 17 o
-6 -7 4 488.06 359.70 45.10 17 o
-6 -8 5 248.98 298.00 40.80 17 o
3 -3 5 1368.90 1654.70 62.90 17 o
5 -2 5 902.06 629.30 56.00 17 o
7 -1 5 97.78 121.00 46.30 17 <
11 1 5 208.12 183.00 36.40 17 o
1 -5 6 2182.30 1920.10 54.20 17 o
3 -4 6 743.17 877.30 50.80 17 o
5 -3 6 3411.40 3302.30 55.30 17 o
7 -2 6 275.23 452.60 42.60 17 o
9 -1 6 64.68 81.40 38.90 17 <
1 -6 7 174.60 203.20 41.80 17 o
3 -5 7 341.92 182.50 41.90 17 o
5 -4 7 655.61 711.20 43.40 17 o
7 -3 7 571.83 466.90 40.40 17 o
1 -7 8 639.97 429.70 38.70 17 o
3 -6 8 87.38 121.30 38.00 17 o
5 -5 8 983.87 428.00 38.80 17 o
-5 4 -8 264.49 289.20 39.40 18 o
-3 5 -8 592.55 507.60 41.00 18 o
-1 6 -8 346.38 441.10 40.70 18 o
1 7 -8 262.43 305.70 39.10 18 o
-7 2 -7 169.96 280.40 40.30 18 o
-2 4 -6 948.95 798.10 51.70 18 o
2 6 -6 1689.90 1444.30 49.30 18 o
4 7 -6 382.28 337.60 41.90 18 o
6 8 -6 1375.40 970.00 40.90 18 o
-6 1 -5 3700.00 4496.20 61.90 18 o
-4 2 -5 1693.80 1528.50 60.80 18 o
8 8 -5 355.83 399.10 37.60 18 o
-8 -1 -4 655.97 422.40 47.70 18 o
-10 -3 -3 216.65 124.60 41.70 18 <
-1 2 -3 6698.30 6352.50 95.30 18 o
5 5 -3 1753.60 1526.50 61.10 18 o
7 6 -3 564.73 551.00 46.50 18 o
9 7 -3 266.91 226.10 39.10 18 o
-5 -1 -2 1616.90 1262.80 70.90 18 o
-7 -3 -1 408.47 451.60 60.10 18 o
-9 -5 0 1356.20 1145.90 48.30 18 o
6 3 0 3017.70 3077.50 68.80 18 o
8 4 0 1684.10 1304.00 54.50 18 o
10 5 0 91.02 166.40 40.40 18 o
-11 -7 1 61.69 25.30 38.80 18 <
-4 -3 1 9012.50 10561.90 95.30 18 o
-6 -5 2 2640.10 2507.70 64.20 18 o
-8 -7 3 1013.00 1161.80 46.20 18 o
-6 -6 3 910.99 1061.20 52.80 18 o
7 1 3 2235.80 2584.70 62.10 18 o
-8 -8 4 280.11 240.70 39.50 18 o
1 -3 4 7511.00 7820.00 80.90 18 o
3 -2 4 5073.50 5396.20 74.70 18 o
5 -1 4 2132.30 2063.00 63.70 18 o
9 1 4 174.18 95.70 42.50 18 <
11 2 4 901.15 804.10 39.60 18 o
-1 -5 5 1520.10 1462.80 59.50 18 o
11 1 5 278.69 86.70 36.40 18 <
-3 -7 6 201.25 321.80 42.20 18 o
-1 -6 6 445.67 625.20 47.00 18 o
-3 -8 7 238.25 284.20 38.00 18 o
-6 3 -8 319.42 255.70 38.80 19 o
-3 4 -7 1126.50 952.90 46.50 19 o
-1 5 -7 352.42 429.60 44.40 19 o
1 6 -7 324.27 308.20 43.20 19 o
3 7 -7 1036.00 644.00 41.50 19 o
5 8 -7 413.83 341.80 38.50 19 o
-7 1 -6 664.68 382.90 43.80 19 o
-5 2 -6 533.84 466.20 48.70 19 o
-9 -1 -5 1305.50 1195.10 44.70 19 o
2 5 -5 838.17 712.70 57.10 19 o
4 6 -5 424.75 614.90 48.50 19 o
6 7 -5 130.96 397.90 41.20 19 o
8 8 -5 448.93 399.10 38.00 19 o
-6 0 -4 2702.60 1761.80 61.50 19 o
-10 -3 -3 248.99 113.30 41.80 19 <
-8 -2 -3 2252.80 2183.10 55.60 19 o
9 6 -2 649.19 637.20 42.90 19 o
-7 -3 -1 879.89 527.10 60.90 19 o
-9 -5 0 1306.00 1207.00 49.10 19 o
6 3 0 3504.40 3079.20 68.70 19 o
8 4 0 1901.80 1407.80 54.60 19 o
10 5 0 147.07 130.10 40.80 19 o
-11 -7 1 36.86 79.20 39.10 19 <
-4 -3 1 9641.90 9502.70 93.80 19 o
-8 -6 2 1301.10 1434.90 51.00 19 o
-6 -5 2 1731.70 2376.20 64.40 19 o
-8 -7 3 978.85 1043.10 46.20 19 o
-1 -3 3 8104.70 8833.40 92.50 19 o
1 -2 3 6555.80 8826.90 99.30 19 o
3 -1 3 5998.50 5740.30 86.80 19 o
7 1 3 1490.90 1545.10 60.10 19 o
9 2 3 954.66 945.30 46.50 19 o
11 3 3 724.34 305.10 38.90 19 o
-3 -5 4 1462.70 2332.30 64.30 19 o
11 2 4 597.18 540.70 39.20 19 o
-5 -7 5 164.03 174.50 43.00 19 o
-5 -8 6 131.60 122.10 38.60 19 o
2 -4 6 998.82 789.60 51.70 19 o
4 -3 6 297.45 392.90 48.60 19 o
6 -2 6 293.22 369.50 44.50 19 o
8 -1 6 287.92 385.40 40.90 19 o
10 0 6 302.34 162.10 37.10 19 o
2 -5 7 1156.70 1566.80 46.20 19 o
4 -4 7 88.24 93.30 41.40 19 <
6 -3 7 361.79 477.10 41.20 19 o
8 -2 7 117.67 49.60 37.20 19 <
-2 5 -8 511.42 509.70 41.90 20 o
0 6 -8 1324.00 935.50 43.10 20 o
2 7 -8 77.34 126.90 38.30 20 o
-8 1 -7 782.56 677.40 41.30 20 o
-6 2 -7 221.62 246.00 41.90 20 o
-3 3 -6 2447.60 3275.40 59.20 20 o
-1 4 -6 853.09 590.00 52.60 20 o
1 5 -6 2297.90 2158.60 54.50 20 o
3 6 -6 1227.40 1037.00 47.40 20 o
5 7 -6 213.75 174.70 41.40 20 o
-9 -1 -5 625.63 574.50 43.00 20 o
-11 -3 -4 429.93 569.90 40.10 20 o
-4 1 -4 2074.30 2005.90 66.10 20 o
-2 2 -4 10252.00 9827.50 84.50 20 o
4 5 -4 3953.10 4698.20 67.30 20 o
6 6 -4 1949.20 2187.90 51.50 20 o
8 7 -4 264.59 465.60 41.10 20 o
-8 -2 -3 2580.50 2224.40 55.30 20 o
-10 -4 -2 534.27 371.90 42.80 20 o
5 4 -2 3372.80 2994.90 68.60 20 o
7 5 -2 2507.20 2268.60 56.60 20 o
9 6 -2 900.23 691.90 42.70 20 o
-7 -3 -1 464.61 441.40 60.50 20 o
-11 -6 0 68.90 121.50 39.40 20 o
-9 -5 0 1189.80 1493.10 49.50 20 o
4 2 0 5027.40 5094.10 94.60 20 o
6 3 0 3171.60 4034.90 70.50 20 o
8 4 0 1444.30 1351.90 54.50 20 o
-11 -7 1 67.19 52.00 39.40 20 <
-6 -4 1 2569.80 2802.40 68.10 20 o
-8 -6 2 1268.30 1146.40 50.10 20 o
-3 -4 3 7577.00 7645.10 79.80 20 o
9 2 3 1249.70 1524.00 48.20 20 o
11 3 3 278.88 354.10 38.70 20 o
-7 -7 4 453.39 541.70 43.40 20 o
-5 -6 4 442.98 750.10 50.80 20 o
-7 -8 5 1013.80 696.00 40.90 20 o
2 -3 5 1438.20 1668.10 62.40 20 o
4 -2 5 755.28 749.80 58.40 20 o
6 -1 5 3192.50 3000.80 57.40 20 o
8 0 5 739.94 592.50 44.00 20 o
10 1 5 1313.10 1018.40 41.20 20 o
-4 -7 6 302.80 255.70 41.20 20 o
-2 -6 6 1455.90 1264.00 48.00 20 o
10 0 6 121.00 193.70 36.50 20 o
-4 -8 7 128.87 137.70 36.90 20 o
3 -5 8 545.05 634.80 40.10 20 o
5 -4 8 133.24 1.40 38.00 20 <
-7 2 -8 545.97 353.30 39.00 21 o
-5 3 -8 665.57 604.60 41.50 21 o
-4 3 -7 302.81 462.50 44.90 21 o
-2 4 -7 291.69 407.50 44.90 21 o
0 5 -7 1073.10 941.30 46.70 21 o
2 6 -7 863.44 1333.00 45.10 21 o
4 7 -7 1117.60 1324.50 43.30 21 o
-10 -1 -6 351.03 414.40 38.90 21 o
-8 0 -6 748.28 857.60 43.70 21 o
-5 1 -5 1400.00 1400.50 58.30 21 o
5 6 -5 1133.90 1221.20 48.30 21 o
7 7 -5 244.51 263.70 39.10 21 o
-11 -3 -4 207.19 368.10 39.60 21 o
-8 -2 -3 2215.40 2310.30 55.50 21 o
-6 -1 -3 5466.30 4518.30 69.60 21 o
8 6 -3 276.15 178.20 42.90 21 o
10 7 -3 121.38 51.60 37.20 21 <
-10 -4 -2 283.62 246.50 42.40 21 o
1 2 -2 20871.00 21313.40 128.50 21 o
3 3 -2 20530.00 18436.10 106.70 21 o
5 4 -2 1917.40 2242.40 66.00 21 o
-7 -3 -1 393.03 674.80 60.80 21 o
11 6 -1 56.00 154.10 37.00 21 o
-11 -6 0 100.89 182.10 39.60 21 o
2 1 0 15249.00 13000.30 154.80 21 o
4 2 0 2058.60 2923.40 91.90 21 o
6 3 0 4088.00 3650.60 69.70 21 o
8 4 0 1585.80 1419.70 54.80 21 o
-8 -5 1 1431.40 1705.80 54.90 21 o
-6 -4 1 3379.00 3665.20 70.20 21 o
-10 -7 2 176.21 282.70 42.30 21 o
1 -1 2 26275.00 27851.00 145.60 21 o
5 1 2 3564.10 3069.70 74.40 21 o
7 2 2 3275.50 3887.30 66.80 21 o
-7 -6 3 392.77 600.20 48.20 21 o
-5 -5 3 1760.00 1678.20 62.80 21 o
11 3 3 460.68 375.00 38.70 21 o
-9 -8 4 629.53 387.60 39.30 21 o
4 -1 4 573.40 909.80 63.30 21 o
-4 -6 5 1205.80 1098.80 49.70 21 o
-2 -5 5 977.86 1399.00 58.50 21 o
8 0 5 734.37 669.80 44.60 21 o
10 1 5 662.02 566.10 40.00 21 o
-6 -8 6 776.92 539.80 40.00 21 o
-1 -6 7 167.82 197.60 41.30 21 o
1 -5 7 303.11 541.20 44.20 21 o
3 -4 7 805.03 742.20 44.30 21 o
5 -3 7 479.65 190.80 41.80 21 o
7 -2 7 286.35 356.10 39.60 21 o
-1 -7 8 401.88 460.20 38.50 21 o
-3 4 -8 291.57 378.20 42.30 22 o
-1 5 -8 462.85 524.30 42.30 22 o
1 6 -8 756.23 588.00 41.50 22 o
3 7 -8 142.04 180.50 38.30 22 o
-8 0 -6 320.10 639.50 43.20 22 o
-6 1 -6 643.70 575.00 46.60 22 o
-4 2 -6 1640.60 1938.90 55.20 22 o
6 7 -6 100.87 154.80 39.50 22 o
-10 -2 -5 291.83 205.90 40.10 22 o
-1 3 -5 1244.60 1075.50 63.00 22 o
1 4 -5 5679.80 5965.90 71.70 22 o
3 5 -5 2048.30 2092.90 57.70 22 o
5 6 -5 2090.40 1696.00 49.60 22 o
-9 -2 -4 184.42 141.20 43.50 22 o
-6 -1 -3 2817.40 4254.60 69.40 22 o
-4 0 -3 3883.70 4083.50 78.00 22 o
6 5 -3 705.58 634.80 54.80 22 o
8 6 -3 157.47 163.80 42.40 22 o
10 7 -3 139.89 136.90 36.70 22 o
-10 -4 -2 582.91 467.80 42.10 22 o
-7 -3 -1 457.99 945.30 61.40 22 o
11 6 -1 389.66 150.90 37.80 22 o
-11 -6 0 116.02 183.30 39.40 22 o
2 1 0 13653.00 10169.20 153.10 22 o
4 2 0 6648.30 6245.40 96.70 22 o
6 3 0 4284.70 3588.10 70.00 22 o
8 4 0 1128.20 1349.20 54.50 22 o
-8 -5 1 1639.30 1332.90 54.50 22 o
-10 -7 2 271.36 345.50 42.30 22 o
-3 -3 2 21320.00 20364.60 110.00 22 o
-1 -2 2 24286.00 22734.10 131.70 22 o
5 1 2 2329.00 2724.60 74.00 22 o
7 2 2 4231.80 4192.60 67.50 22 o
9 3 2 1131.60 1588.60 49.10 22 o
-7 -6 3 489.84 597.30 49.00 22 o
-9 -8 4 572.02 377.40 39.30 22 o
-2 -4 4 5599.00 6206.70 74.10 22 o
6 0 4 2222.90 2658.00 62.50 22 o
8 1 4 484.75 796.10 47.20 22 o
10 2 4 558.39 562.60 41.00 22 o
-8 -8 5 109.12 423.30 38.70 22 o
-6 -7 5 250.94 162.20 42.00 22 o
-1 -5 6 2170.30 2369.80 54.40 22 o
1 -4 6 459.29 609.60 51.60 22 o
3 -3 6 2045.20 1671.90 53.90 22 o
5 -2 6 240.88 279.10 46.90 22 o
7 -1 6 642.01 602.20 43.00 22 o
-5 -8 7 460.46 485.70 38.10 22 o
-3 -7 7 348.56 404.90 40.40 22 o
2 -5 8 470.04 345.90 39.80 22 o
4 -4 8 431.43 389.40 39.90 22 o
6 -3 8 106.14 60.30 37.80 22 <
-6 2 -8 488.69 570.80 40.80 23 o
-7 1 -7 472.10 477.70 40.80 23 o
-5 2 -7 1080.10 645.80 44.30 23 o
-3 3 -7 1918.10 1588.90 49.00 23 o
-1 4 -7 2412.30 2642.40 52.10 23 o
1 5 -7 256.96 257.60 43.90 23 o
3 6 -7 599.31 968.30 44.10 23 o
5 7 -7 191.08 148.30 38.90 23 o
-2 3 -6 655.55 382.80 53.90 23 o
0 4 -6 3156.90 3140.50 59.90 23 o
2 5 -6 693.78 766.30 49.60 23 o
-10 -2 -5 340.25 379.50 39.80 23 o
-9 -2 -4 154.11 248.50 43.20 23 o
-7 -1 -4 619.65 640.90 53.30 23 o
7 6 -4 218.62 188.60 43.20 23 o
9 7 -4 144.13 247.60 37.70 23 o
-4 0 -3 1558.00 2573.80 74.60 23 o
-2 1 -3 33825.00 31197.90 125.10 23 o
2 3 -3 6230.20 5961.90 84.30 23 o
4 4 -3 831.51 698.60 62.80 23 o
6 5 -3 245.23 318.40 53.70 23 o
-10 -4 -2 473.86 167.50 42.00 23 o
-7 -3 -1 217.70 418.40 60.60 23 o
9 5 -1 364.22 301.20 43.30 23 o
11 6 -1 159.48 201.50 37.20 23 o
-11 -6 0 72.06 147.90 39.60 23 o
2 1 0 9419.40 11051.50 153.40 23 o
4 2 0 3106.10 3391.80 92.60 23 o
-10 -6 1 213.93 338.90 43.40 23 o
-8 -5 1 1436.70 1624.70 55.40 23 o
-5 -4 2 1699.40 2130.10 67.70 23 o
7 2 2 3258.60 3056.10 65.40 23 o
9 3 2 2006.40 1920.80 50.50 23 o
-9 -7 3 293.93 281.10 41.80 23 o
-6 -6 4 2205.20 2441.90 53.50 23 o
-4 -5 4 4315.80 3937.40 66.20 23 o
8 1 4 560.20 779.10 47.90 23 o
10 2 4 821.28 658.10 41.20 23 o
1 -3 5 1504.70 1288.00 63.00 23 o
3 -2 5 3247.10 2291.20 64.50 23 o
5 -1 5 2240.10 2612.10 60.90 23 o
-5 -7 6 304.62 304.40 41.70 23 o
0 -5 7 357.60 417.00 44.20 23 o
2 -4 7 268.06 460.20 44.60 23 o
4 -3 7 478.24 276.50 43.20 23 o
6 -2 7 568.44 459.80 41.50 23 o
-3 4 -9 731.06 726.70 40.10 24 o
-1 5 -9 211.27 87.20 38.50 24 <
-2 4 -8 500.12 500.80 42.90 24 o
-9 -1 -6 179.41 198.50 39.20 24 o
7 7 -6 118.99 244.90 38.30 24 o
-8 -1 -5 593.42 610.80 45.50 24 o
-6 0 -5 1102.70 797.30 53.30 24 o
6 6 -5 1065.00 686.10 44.40 24 o
8 7 -5 1294.20 1427.90 42.20 24 o
-3 1 -4 1432.40 1661.10 70.20 24 o
-1 2 -4 8330.70 8768.70 85.90 24 o
1 3 -4 11625.00 10712.90 86.80 24 o
3 4 -4 1703.00 1680.20 64.70 24 o
5 5 -4 7088.00 6981.80 68.60 24 o
-11 -4 -3 144.05 155.80 39.40 24 o
-10 -4 -2 490.11 524.50 42.40 24 o
-8 -3 -2 634.51 766.00 53.40 24 o
10 6 -2 235.74 477.50 39.70 24 o
-7 -3 -1 630.20 815.00 61.40 24 o
-5 -2 -1 11292.00 12389.50 92.90 24 o
7 4 -1 2268.80 2838.30 63.30 24 o
9 5 -1 298.00 431.00 43.80 24 o
-11 -6 0 75.55 249.00 39.40 24 o
2 1 0 11352.00 13339.40 156.30 24 o
4 2 0 4391.50 4348.90 94.60 24 o
-10 -6 1 350.40 221.90 43.10 24 o
-7 -5 2 1873.10 1689.90 57.60 24 o
-5 -4 2 1720.70 1960.40 67.30 24 o
9 3 2 2621.70 1964.40 50.40 24 o
11 4 2 886.05 778.00 41.10 24 o
-2 -3 3 6469.20 6860.10 86.60 24 o
2 -1 3 35783.00 32053.80 126.80 24 o
4 0 3 1226.40 1527.20 72.30 24 o
6 1 3 4085.70 4666.50 69.40 24 o
-8 -7 4 746.74 812.00 43.20 24 o
-5 -6 5 336.72 848.30 46.90 24 o
-3 -5 5 3098.00 2171.20 58.10 24 o
9 1 5 881.97 752.40 41.80 24 o
2 -3 6 494.20 311.00 52.50 24 o
-4 -7 7 2065.70 2148.90 46.00 24 o
-1 -6 8 670.97 716.10 40.10 24 o
1 -5 8 686.21 537.10 40.90 24 o
3 -4 8 565.51 337.20 40.10 24 o
5 -3 8 451.79 609.80 40.20 24 o
7 -2 8 173.21 184.30 36.90 24 o
-7 1 -8 268.98 311.10 39.00 25 o
-8 0 -7 548.68 424.80 40.70 25 o
-6 1 -7 926.00 818.40 44.30 25 o
2 5 -7 1186.70 1058.00 46.50 25 o
4 6 -7 256.76 299.90 40.80 25 o
6 7 -7 829.39 584.50 39.00 25 o
-9 -1 -6 119.56 120.10 39.20 25 o
-5 1 -6 2235.20 2704.80 55.20 25 o
-3 2 -6 3570.40 3830.90 62.50 25 o
-1 3 -6 2518.00 2429.30 60.70 25 o
1 4 -6 344.02 306.00 52.90 25 o
3 5 -6 1645.60 1408.50 50.30 25 o
5 6 -6 623.13 613.90 43.60 25 o
-6 0 -5 945.97 1046.00 53.40 25 o
-4 1 -5 2561.20 2913.10 65.40 25 o
-2 2 -5 557.85 608.20 62.80 25 o
0 3 -5 11070.00 10177.40 81.70 25 o
2 4 -5 2462.90 1850.10 63.60 25 o
-11 -4 -3 295.61 309.40 38.90 25 o
9 6 -3 520.37 557.60 41.80 25 o
-10 -4 -2 301.88 300.00 41.70 25 o
-8 -3 -2 854.61 808.70 53.40 25 o
8 5 -2 233.97 194.90 46.70 25 o
10 6 -2 464.76 636.10 40.40 25 o
-7 -3 -1 1070.20 912.10 61.90 25 o
5 3 -1 717.77 820.70 70.60 25 o
7 4 -1 4590.20 4101.00 67.20 25 o
-4 -2 0 3440.40 3788.80 94.70 25 o
-2 -1 0 12548.00 12226.80 159.90 25 o
2 1 0 10654.00 11328.40 158.20 25 o
-10 -6 1 317.41 400.30 43.10 25 o
-9 -6 2 820.47 680.50 46.30 25 o
9 3 2 2049.90 2070.90 51.80 25 o
11 4 2 386.09 390.10 40.10 25 o
-6 -5 3 749.82 708.40 56.30 25 o
-4 -4 3 758.53 912.00 64.50 25 o
6 1 3 2448.50 3079.20 67.40 25 o
8 2 3 3030.00 3039.40 57.70 25 o
-7 -7 5 190.40 275.70 40.90 25 o
9 1 5 1843.50 1481.40 45.20 25 o
-6 -7 6 169.44 223.60 39.30 25 o
-4 -6 6 757.57 922.20 45.10 25 o
-2 -5 6 891.01 1057.00 50.30 25 o
4 -2 6 1150.40 1506.60 53.60 25 o
6 -1 6 608.57 815.10 46.90 25 o
8 0 6 649.38 435.90 41.10 25 o
-2 4 -9 266.64 191.80 38.70 26 o
7 6 -5 648.70 747.80 43.30 26 o
8 6 -4 341.53 290.10 41.80 26 o
-11 -4 -3 274.26 325.50 38.90 26 o
-9 -3 -3 175.48 162.70 44.10 26 o
7 5 -3 337.81 699.30 50.30 26 o
-10 -4 -2 162.11 207.80 41.40 26 o
-8 -3 -2 1077.90 704.70 52.80 26 o
6 4 -2 854.96 1543.60 63.50 26 o
-7 -3 -1 1122.40 725.90 61.30 26 o
3 2 -1 39244.00 36990.50 142.00 26 o
5 3 -1 886.61 1011.80 71.20 26 o
-6 -3 0 4965.90 4798.50 74.30 26 o
-4 -2 0 3453.20 2878.60 94.30 26 o
-2 -1 0 15207.00 14365.60 161.90 26 o
11 5 0 294.02 300.70 39.30 26 o
9 3 2 2481.70 2421.40 52.20 26 o
11 4 2 589.04 815.20 41.50 26 o
-10 -7 3 354.63 308.40 40.50 26 o
-8 -6 3 309.35 226.80 44.70 26 o
8 2 3 1968.40 2405.10 55.80 26 o
-9 -7 4 204.46 283.90 39.50 26 o
-7 -6 4 130.25 350.20 44.50 26 o
-5 -5 4 3644.80 3831.70 62.30 26 o
3 -1 4 1633.80 1783.70 69.00 26 o
7 1 4 1338.00 1459.80 55.80 26 o
-4 -5 5 942.32 1164.20 53.10 26 o
-2 -4 5 1698.10 1480.10 62.20 26 o
0 -3 5 12200.00 12363.60 84.80 26 o
2 -2 5 749.51 760.40 62.70 26 o
10 1 6 388.02 254.90 37.00 26 o
-5 -7 7 419.33 458.60 39.20 26 o
7 -1 7 214.38 196.90 39.80 26 o
-2 -6 8 952.06 881.40 40.90 26 o
2 -4 8 713.02 529.30 41.30 26 o
4 -3 8 202.11 265.80 40.30 26 o
6 -2 8 436.64 252.20 39.20 26 o
4 6 -8 258.96 312.80 38.90 27 o
5 6 -7 151.92 367.90 40.80 27 o
4 5 -6 627.80 662.50 46.60 27 o
6 6 -6 1105.60 572.70 42.10 27 o
-9 -2 -5 802.57 858.30 43.50 27 o
5 5 -5 885.27 718.40 49.30 27 o
7 6 -5 871.82 949.70 43.30 27 o
-10 -3 -4 104.86 277.40 40.50 27 o
4 4 -4 5403.10 5762.00 72.00 27 o
6 5 -4 328.48 786.10 50.80 27 o
-11 -4 -3 279.87 322.60 39.30 27 o
-9 -3 -3 149.74 290.50 44.40 27 o
5 4 -3 5821.80 6113.50 73.00 27 o
-10 -4 -2 622.17 646.50 42.70 27 o
-8 -3 -2 1548.30 2104.50 56.40 27 o
4 3 -2 2565.00 3034.10 78.00 27 o
-7 -3 -1 1214.30 1087.90 62.30 27 o
-5 -2 -1 10590.00 10613.40 90.50 27 o
3 2 -1 33070.00 30972.00 135.60 27 o
-6 -3 0 3459.10 3316.50 70.60 27 o
-4 -2 0 1867.50 2942.10 93.40 27 o
-2 -1 0 11342.00 9647.20 156.70 27 o
11 5 0 567.34 296.70 39.10 27 o
9 3 2 2175.80 2087.80 50.80 27 o
11 4 2 203.11 124.90 39.00 27 o
-10 -7 3 98.43 221.00 39.20 27 o
8 2 3 2522.80 2222.00 54.70 27 o
10 3 3 477.88 477.70 41.50 27 o
-9 -7 4 98.40 110.80 38.70 27 <
-7 -6 4 174.30 306.70 43.70 27 o
7 1 4 682.83 875.70 52.90 27 o
9 2 4 326.22 291.30 42.40 27 o
-8 -7 5 1247.60 1176.70 42.30 27 o
-6 -6 5 1136.60 940.50 45.20 27 o
-4 -5 5 530.64 687.40 51.70 27 o
4 -1 5 1804.10 1364.20 60.90 27 o
6 0 5 770.18 795.10 52.20 27 o
-5 -6 6 387.90 494.50 42.20 27 o
-3 -5 6 2644.60 2392.90 52.00 27 o
-1 -4 6 237.48 241.70 51.60 27 o
1 -3 6 3200.60 4192.70 64.10 27 o
3 -2 6 4336.40 3953.10 61.40 27 o
1 -5 9 176.54 182.90 36.40 27 o
3 -4 9 489.92 472.00 38.10 27 o
-4 2 -8 202.92 1284.80 44.60 28 o
-2 3 -8 658.08 484.00 43.30 28 o
-5 1 -7 206.43 220.10 43.50 28 o
-3 2 -7 693.43 1295.40 49.50 28 o
-1 3 -7 1288.20 776.90 49.20 28 o
1 4 -7 1708.30 2083.50 51.50 28 o
-8 -1 -6 313.99 648.20 42.50 28 o
-6 0 -6 1181.20 797.10 47.70 28 o
-4 1 -6 668.20 492.30 52.60 28 o
-2 2 -6 3138.30 3086.50 62.80 28 o
2 4 -6 3257.20 2980.40 58.20 28 o
-7 -1 -5 505.45 359.10 47.40 28 o
-3 1 -5 6283.10 7050.10 75.10 28 o
-1 2 -5 9853.70 9598.60 80.40 28 o
1 3 -5 1438.50 1665.00 64.20 28 o
3 4 -5 4528.60 4913.80 67.30 28 o
-8 -2 -4 340.27 714.60 47.30 28 o
-6 -1 -4 698.76 883.10 59.40 28 o
-4 0 -4 16152.00 18530.50 95.40 28 o
-2 1 -4 1735.90 1991.80 73.00 28 o
0 2 -4 17211.00 17439.30 98.40 28 o
2 3 -4 1174.70 1167.00 67.70 28 o
-7 -2 -3 2788.70 2858.10 62.10 28 o
-5 -1 -3 2296.00 2861.00 69.00 28 o
-1 1 -3 15688.00 14090.30 109.00 28 o
1 2 -3 13037.00 10543.00 101.10 28 o
3 3 -3 5170.40 5082.30 79.70 28 o
-8 -3 -2 2378.80 1651.50 55.60 28 o
-6 -2 -2 2678.50 2251.50 66.40 28 o
-4 -1 -2 1520.00 1619.70 82.70 28 o
2 2 -2 24895.00 27907.40 130.00 28 o
11 6 -2 370.15 145.10 37.20 28 o
-7 -3 -1 1031.30 898.30 61.50 28 o
-5 -2 -1 8669.80 9853.00 88.40 28 o
-3 -1 -1 10253.00 9852.80 116.00 28 o
1 1 -1 16128.00 13302.80 170.50 28 o
-6 -3 0 2650.80 2909.40 69.60 28 o
-4 -2 0 6886.60 6490.50 97.10 28 o
-2 -1 0 10744.00 10098.50 154.50 28 o
11 5 0 265.26 480.80 39.50 28 o
-3 -2 1 28209.00 26505.40 128.80 28 o
11 4 2 628.73 380.90 39.40 28 o
10 3 3 379.87 466.40 40.70 28 o
9 2 4 91.57 94.10 41.40 28 <
11 3 4 406.21 283.10 37.70 28 o
8 1 5 892.05 1184.30 45.60 28 o
10 2 5 327.13 434.50 38.60 28 o
-7 -7 6 102.63 133.10 38.00 28 o
9 1 6 97.66 155.80 37.80 28 o
-6 -7 7 265.52 428.70 37.80 28 o
-4 -6 7 140.14 234.40 39.70 28 o
4 -2 7 174.28 167.80 43.00 28 o
6 -1 7 780.05 783.20 42.20 28 o
8 0 7 415.22 403.30 38.70 28 o
-3 -6 8 87.73 141.20 37.40 28 o
-1 -5 8 854.69 994.00 41.90 28 o
1 -4 8 254.41 297.70 40.40 28 o
3 -3 8 948.27 1008.20 42.70 28 o
5 -2 8 163.86 247.40 39.10 28 o
7 -1 8 310.91 350.20 37.60 28 o
0 -5 9 604.10 258.50 37.50 28 o
2 -4 9 400.15 367.00 37.40 28 o
3 5 -8 533.35 701.80 41.60 29 o
6 6 -7 299.08 225.80 39.20 29 o
7 6 -6 240.64 243.10 39.10 29 o
8 6 -5 388.35 309.70 39.60 29 o
9 6 -4 551.28 357.50 40.10 29 o
-5 -1 -3 2784.80 2252.10 69.50 29 o
10 6 -3 735.94 671.50 39.80 29 o
-6 -2 -2 1826.60 2180.40 67.00 29 o
-4 -1 -2 1897.00 1761.40 84.20 29 o
-2 0 -2 40839.00 39000.90 149.70 29 o
11 6 -2 104.34 191.00 37.80 29 o
-7 -3 -1 701.35 420.30 60.90 29 o
-5 -2 -1 8405.20 8264.50 86.90 29 o
-3 -1 -1 12692.00 9685.20 118.10 29 o
10 5 -1 133.51 216.60 41.10 29 o
-8 -4 0 934.15 1542.30 56.50 29 o
-6 -3 0 1983.00 2311.10 68.80 29 o
-4 -2 0 2326.50 3234.20 94.60 29 o
-2 -1 0 8945.40 9945.10 158.80 29 o
11 5 0 104.50 426.10 39.90 29 o
-7 -4 1 1217.50 2003.00 64.20 29 o
-5 -3 1 1954.20 1890.90 74.20 29 o
-3 -2 1 30900.00 25379.40 129.50 29 o
-1 -1 1 15751.00 17573.50 182.80 29 o
-6 -4 2 509.70 772.80 63.10 29 o
-4 -3 2 1415.40 2048.60 77.20 29 o
-2 -2 2 28370.00 26025.30 129.90 29 o
11 4 2 466.41 443.30 39.90 29 o
-7 -5 3 1129.40 1132.20 53.00 29 o
-5 -4 3 3687.00 5216.30 71.80 29 o
-3 -3 3 3944.70 3907.00 78.40 29 o
-1 -2 3 10342.00 10577.30 103.50 29 o
1 -1 3 18581.00 16061.20 114.40 29 o
-4 -4 4 3457.50 3604.70 67.90 29 o
-2 -3 4 1501.00 2644.20 71.50 29 o
0 -2 4 11361.00 10580.20 90.30 29 o
11 3 4 833.49 761.00 40.20 29 o
10 2 5 613.55 445.10 39.50 29 o
9 1 6 234.88 348.40 39.60 29 o
8 0 7 322.82 381.50 39.50 29 o
7 -1 8 155.41 314.90 38.00 29 o
-4 2 -9 296.69 171.10 38.80 30 o
-2 3 -9 362.74 370.90 39.70 30 o
-5 1 -8 159.15 223.40 40.40 30 o
-3 2 -8 198.07 253.40 42.30 30 o
-1 3 -8 2055.40 1443.00 46.10 30 o
1 4 -8 205.86 384.40 41.80 30 o
-8 -1 -7 708.33 715.40 41.30 30 o
0 3 -7 210.34 431.10 47.60 30 o
2 4 -7 525.78 429.40 45.00 30 o
4 5 -7 185.68 345.40 42.10 30 o
3 4 -6 746.21 932.90 51.20 30 o
5 5 -6 1171.70 1195.80 46.00 30 o
6 5 -5 849.27 1689.90 48.70 30 o
7 5 -4 559.06 438.20 45.20 30 o
8 5 -3 101.14 322.10 44.80 30 o
-6 -2 -2 1962.10 2539.90 68.30 30 o
-4 -1 -2 2422.00 1902.40 85.40 30 o
9 5 -2 952.74 909.70 45.40 30 o
-7 -3 -1 780.57 940.80 63.00 30 o
-5 -2 -1 8714.70 9576.30 90.10 30 o
-3 -1 -1 7950.60 9152.90 118.30 30 o
10 5 -1 143.27 298.30 41.00 30 o
-10 -5 0 164.88 193.70 42.90 30 o
-8 -4 0 1784.50 1771.70 58.00 30 o
-6 -3 0 4973.40 3510.50 72.40 30 o
11 5 0 272.44 392.80 39.40 30 o
-11 -6 1 307.88 403.10 40.80 30 o
-9 -5 1 668.82 744.10 47.90 30 o
-7 -4 1 949.94 1802.00 64.30 30 o
-10 -6 2 603.68 397.50 44.10 30 o
-8 -5 2 575.35 699.60 51.10 30 o
-6 -4 2 1460.20 1730.40 65.70 30 o
2 0 2 55670.00 41437.40 153.10 30 o
11 4 2 319.78 627.00 40.50 30 o
-9 -6 3 191.71 331.20 43.60 30 o
-7 -5 3 863.29 878.40 52.40 30 o
1 -1 3 21609.00 19814.10 119.10 30 o
-8 -6 4 323.75 562.70 43.90 30 o
-6 -5 4 389.68 405.10 50.80 30 o
2 -1 4 2939.60 2452.40 76.40 30 o
4 0 4 16181.00 16896.70 94.00 30 o
11 3 4 561.57 462.50 38.40 30 o
-7 -6 5 628.80 661.40 43.80 30 o
-5 -5 5 1324.50 1181.00 51.10 30 o
1 -2 5 8221.60 8900.90 79.90 30 o
3 -1 5 1659.30 2368.90 66.50 30 o
-6 -6 6 512.95 635.30 42.40 30 o
-4 -5 6 603.07 829.20 46.80 30 o
-2 -4 6 2290.30 1687.60 55.30 30 o
2 -2 6 3839.50 4958.90 67.30 30 o
4 -1 6 1073.80 1329.40 54.80 30 o
-5 -6 7 504.96 526.70 40.40 30 o
-3 -5 7 193.09 362.20 42.80 30 o
-1 -4 7 2782.70 2843.70 53.00 30 o
1 -3 7 236.45 372.70 47.50 30 o
3 -2 7 3189.60 2607.50 52.80 30 o
-4 -6 8 290.17 658.60 39.10 30 o
-2 -5 8 831.28 642.20 41.40 30 o
0 -4 8 350.59 552.90 42.40 30 o
2 -3 8 253.59 285.70 42.10 30 o
-1 -5 9 253.53 277.10 37.80 30 o
1 -4 9 378.15 378.60 39.30 30 o
-1 3 -9 199.71 376.60 40.00 31 o
1 4 -9 351.41 440.70 40.20 31 o
4 5 -8 231.71 160.70 39.30 31 o
-8 -1 -7 930.63 855.40 41.70 31 o
-6 0 -7 144.11 251.90 42.30 31 o
-4 1 -7 666.72 495.10 45.90 31 o
7 6 -7 212.88 145.10 37.50 31 o
-9 -2 -6 116.62 224.90 39.40 31 o
-7 -1 -6 461.68 474.60 44.60 31 o
-3 1 -6 4419.30 3485.50 63.50 31 o
-1 2 -6 358.23 397.90 57.80 31 o
8 6 -6 656.51 726.40 39.40 31 o
-10 -3 -5 155.53 308.60 39.30 31 o
2 3 -5 1641.50 1884.60 65.20 31 o
9 6 -5 130.82 231.10 38.30 31 o
3 3 -4 17999.00 16912.30 93.90 31 o
5 4 -4 6003.80 5083.80 68.80 31 o
6 4 -3 1243.50 1362.50 61.20 31 o
7 4 -2 6202.80 6593.50 71.30 31 o
-7 -3 -1 1488.30 1255.20 63.20 31 o
-5 -2 -1 9370.80 9509.00 89.00 31 o
-3 -1 -1 7564.90 9569.60 118.40 31 o
8 4 -1 618.09 1029.90 54.10 31 o
-10 -5 0 186.16 227.30 42.50 31 o
-8 -4 0 1281.20 1059.90 55.80 31 o
9 4 0 1836.60 1532.40 50.00 31 o
-11 -6 1 559.05 397.50 40.70 31 o
-9 -5 1 264.19 480.90 47.20 31 o
-10 -6 2 245.17 359.70 43.40 31 o
4 1 2 550.41 1116.80 84.80 31 o
11 4 2 593.16 695.50 40.60 31 o
5 1 3 2493.30 2291.20 70.10 31 o
6 1 4 1435.70 2024.70 62.50 31 o
7 1 5 301.34 584.50 47.90 31 o
6 0 6 1267.00 1237.80 48.90 31 o
5 -1 7 986.96 1052.50 46.20 31 o
6 -1 8 219.23 308.50 39.00 31 o
-3 2 -9 490.18 434.00 40.40 32 o
-6 0 -8 1372.80 1112.60 43.30 32 o
-4 1 -8 377.24 565.20 43.40 32 o
-2 2 -8 924.66 839.20 45.40 32 o
3 4 -7 1438.80 1016.80 47.30 32 o
5 5 -7 176.08 263.50 41.40 32 o
6 5 -6 292.08 273.50 42.30 32 o
-10 -3 -5 193.73 141.40 39.10 32 o
-8 -2 -5 283.31 511.80 45.00 32 o
-6 -1 -5 3090.60 3752.70 60.90 32 o
-4 0 -5 1860.00 2316.00 65.40 32 o
-2 1 -5 12563.00 12616.60 86.30 32 o
7 5 -5 642.62 548.90 44.00 32 o
9 6 -5 227.47 181.70 38.00 32 o
-11 -4 -4 394.00 306.10 39.00 32 o
1 2 -4 8659.70 8699.70 85.90 32 o
10 6 -4 427.21 495.40 38.70 32 o
4 3 -3 10267.00 10766.70 85.80 32 o
7 4 -2 4731.80 4946.30 67.40 32 o
-7 -3 -1 1265.40 1018.30 63.00 32 o
-5 -2 -1 11118.00 12635.80 94.20 32 o
8 4 -1 1040.80 760.30 53.70 32 o
-10 -5 0 131.31 265.90 43.20 32 o
-8 -4 0 2567.00 2519.80 59.80 32 o
9 4 0 2073.50 1646.40 50.90 32 o
-11 -6 1 248.05 137.60 40.20 32 o
3 1 1 10711.00 10701.90 120.90 32 o
4 1 2 1065.30 870.00 84.20 32 o
11 4 2 243.29 475.00 40.40 32 o
5 1 3 2069.70 1834.40 69.20 32 o
6 1 4 1319.60 1431.80 61.50 32 o
8 2 4 907.43 577.40 47.10 32 o
-6 -5 5 1058.20 1118.60 47.60 32 o
7 1 5 462.35 383.50 47.40 32 o
9 2 5 1377.20 1065.60 43.20 32 o
-7 -6 6 112.62 70.00 38.90 32 <
-5 -5 6 768.43 612.00 44.20 32 o
-3 -4 6 976.96 748.20 50.30 32 o
-1 -3 6 5111.10 5185.10 65.50 32 o
8 1 6 39.17 132.80 40.40 32 o
-6 -6 7 198.43 177.30 37.90 32 o
-4 -5 7 167.70 225.40 40.80 32 o
-2 -4 7 143.06 294.50 43.90 32 o
0 -3 7 202.65 452.50 46.30 32 o
-3 -5 8 749.37 665.80 40.40 32 o
-1 -4 8 197.72 243.90 40.50 32 o
1 -3 8 1024.80 1260.70 44.70 32 o
2 -3 9 532.49 390.10 38.80 32 o
0 3 -9 481.66 582.20 41.90 33 o
2 4 -9 228.97 345.00 39.50 33 o
5 5 -8 834.42 827.10 41.50 33 o
-7 -1 -7 43.89 111.10 41.70 33 <
-3 1 -7 756.82 946.30 50.70 33 o
-1 2 -7 3901.60 3747.00 58.90 33 o
2 3 -6 477.15 627.40 55.70 33 o
4 4 -6 942.18 1639.40 51.70 33 o
5 4 -5 1058.30 1385.30 53.90 33 o
-11 -4 -4 399.73 389.40 39.40 33 o
-9 -3 -4 840.72 1130.20 46.00 33 o
-7 -2 -4 4932.30 3922.00 61.20 33 o
-5 -1 -4 3530.40 2678.80 67.60 33 o
-1 1 -4 5508.70 6125.10 85.70 33 o
8 5 -4 472.76 598.50 43.70 33 o
2 2 -3 1648.70 1587.10 86.70 33 o
9 5 -3 343.60 418.20 42.70 33 o
5 3 -2 6227.20 6448.70 78.20 33 o
-7 -3 -1 2572.30 2119.60 65.50 33 o
-5 -2 -1 10946.00 11839.40 93.00 33 o
8 4 -1 831.23 1133.70 54.50 33 o
-10 -5 0 71.03 156.50 43.20 33 o
9 4 0 1421.80 1050.00 49.00 33 o
3 1 1 7150.80 8773.70 118.20 33 o
11 4 2 555.63 536.30 40.70 33 o
7 2 3 2406.80 2402.10 62.50 33 o
-9 -6 4 985.94 622.30 42.50 33 o
-7 -5 4 356.91 521.10 47.20 33 o
-5 -4 4 4862.30 3730.10 66.40 33 o
-3 -3 4 13339.00 13693.00 88.80 33 o
-1 -2 4 9537.30 9564.70 87.60 33 o
8 2 4 330.19 222.20 46.50 33 o
-8 -6 5 201.28 207.10 41.20 33 o
-2 -3 5 2274.40 2912.80 67.40 33 o
9 2 5 1744.10 1722.10 45.70 33 o
1 -2 6 471.29 723.40 58.10 33 o
3 -1 6 4810.60 4316.50 65.10 33 o
4 -1 7 739.18 1021.80 47.10 33 o
5 -1 8 211.50 286.00 40.20 33 o
-4 1 -9 547.60 788.90 41.40 34 o
-1 2 -8 239.27 483.60 44.40 34 o
1 3 -8 1679.80 1500.90 47.30 34 o
4 4 -7 426.71 355.00 43.80 34 o
6 5 -7 557.31 646.70 41.50 34 o
-8 -2 -6 198.75 265.20 41.50 34 o
-6 -1 -6 1024.20 944.40 48.30 34 o
-4 0 -6 4856.60 4169.40 62.50 34 o
-2 1 -6 563.47 1107.70 60.40 34 o
0 2 -6 9926.30 11239.10 80.70 34 o
7 5 -6 772.06 404.00 40.80 34 o
3 3 -5 924.99 1647.70 63.40 34 o
-11 -4 -4 727.33 556.80 39.60 34 o
-9 -3 -4 445.90 724.40 44.50 34 o
-7 -2 -4 4332.70 4588.20 62.80 34 o
6 4 -4 765.46 577.00 53.30 34 o
-10 -4 -3 413.38 344.00 41.60 34 o
0 1 -3 43026.00 32652.70 133.40 34 o
9 5 -3 151.76 360.80 42.50 34 o
10 5 -2 164.49 259.00 40.50 34 o
6 3 -1 1278.70 962.50 65.40 34 o
-10 -5 0 512.64 271.60 43.10 34 o
9 4 0 1488.60 1657.70 50.50 34 o
3 1 1 8205.90 9519.40 119.10 34 o
6 2 2 3703.70 3967.50 71.30 34 o
-10 -6 3 548.90 569.60 42.50 34 o
-8 -5 3 345.61 313.70 47.60 34 o
-6 -4 3 2424.10 2327.10 65.00 34 o
-4 -3 3 8847.90 8558.40 82.80 34 o
-2 -2 3 1333.80 1669.90 86.70 34 o
9 3 3 272.00 606.40 45.80 34 o
1 -1 4 5318.30 5914.30 85.60 34 o
10 3 4 196.21 173.20 39.60 34 o
4 0 5 1247.20 1487.80 63.60 34 o
7 1 6 605.81 669.30 44.30 34 o
-7 -6 7 395.48 391.40 38.30 34 o
-5 -5 7 615.15 688.30 42.30 34 o
-3 -4 7 1855.30 1622.50 47.80 34 o
8 1 7 989.30 773.40 41.20 34 o
-4 -5 8 76.97 200.70 38.40 34 o
-2 -4 8 483.62 750.00 42.90 34 o
-1 -4 9 730.32 704.10 39.90 34 o
1 -3 9 301.03 206.10 38.90 34 o
3 -2 9 391.05 416.50 39.60 34 o
-1 2 -9 119.80 245.90 40.60 35 o
1 3 -9 108.94 176.70 39.80 35 o
-7 -1 -8 402.57 387.30 39.10 35 o
4 4 -8 545.80 429.20 41.70 35 o
2 3 -7 2606.50 3065.70 54.80 35 o
-8 -2 -6 183.76 95.70 41.40 35 <
5 4 -6 815.26 679.50 46.60 35 o
-1 1 -5 822.82 1129.60 66.30 35 o
1 2 -5 15488.00 14398.90 89.50 35 o
8 5 -5 343.29 841.30 42.80 35 o
4 3 -4 983.19 2050.20 66.50 35 o
-10 -4 -3 204.01 233.30 41.30 35 o
-8 -3 -3 769.21 562.10 49.50 35 o
-6 -2 -3 3000.80 3083.70 67.40 35 o
-4 -1 -3 6551.60 7877.80 83.90 35 o
-2 0 -3 11248.00 11260.70 104.80 35 o
7 4 -3 5498.30 4954.50 63.80 35 o
3 2 -2 8040.20 8806.80 102.60 35 o
10 5 -2 584.36 320.20 41.50 35 o
-11 -5 -1 716.72 849.60 42.30 35 o
6 3 -1 625.76 1045.50 65.50 35 o
11 5 -1 923.95 802.30 41.00 35 o
9 4 0 1339.40 1642.70 50.00 35 o
-11 -6 2 96.67 192.50 40.60 35 o
-9 -5 2 270.90 463.90 47.40 35 o
-7 -4 2 4634.80 4465.50 67.90 35 o
-5 -3 2 6805.60 6888.40 79.60 35 o
6 2 2 4714.90 4849.70 72.60 35 o
0 -1 3 46240.00 41149.50 142.80 35 o
9 3 3 43.22 257.70 44.20 35 o
10 3 4 238.61 240.00 40.00 35 o
-9 -6 5 117.75 205.10 38.70 35 o
-7 -5 5 990.85 954.30 45.70 35 o
6 1 5 5818.50 4631.90 62.70 35 o
-8 -6 6 125.58 259.00 38.50 35 o
-6 -5 6 322.97 387.10 43.20 35 o
-4 -4 6 448.32 465.00 48.70 35 o
-2 -3 6 941.05 866.40 56.20 35 o
0 -2 6 8923.90 7012.80 72.80 35 o
7 1 6 1004.70 1139.50 46.00 35 o
9 2 6 325.17 347.50 39.20 35 o
1 -2 7 1412.40 1876.00 52.70 35 o
3 -1 7 356.36 648.90 47.90 35 o
4 -1 8 271.60 149.90 41.20 35 o
6 0 8 864.95 1001.90 41.70 35 o
0 2 -8 142.27 172.40 42.80 36 o
2 3 -8 489.02 308.00 42.10 36 o
-8 -2 -7 94.36 178.00 38.70 36 o
-6 -1 -7 965.19 1147.20 45.50 36 o
-4 0 -7 671.21 934.70 47.80 36 o
5 4 -7 1453.40 1004.90 44.30 36 o
1 2 -6 580.33 611.40 58.50 36 o
8 5 -6 597.85 484.30 39.30 36 o
-9 -3 -5 484.31 517.50 41.90 36 o
-7 -2 -5 287.65 396.80 46.80 36 o
-5 -1 -5 1470.60 2012.50 60.90 36 o
6 4 -5 474.95 825.00 48.50 36 o
2 2 -4 9317.90 10458.30 86.40 36 o
9 5 -4 981.02 1166.70 43.60 36 o
-10 -4 -3 391.77 286.60 41.20 36 o
-8 -3 -3 511.03 417.90 49.30 36 o
-6 -2 -3 2529.60 2949.80 67.20 36 o
1 1 -2 41025.00 36699.70 154.40 36 o
10 5 -2 251.14 179.60 40.90 36 o
6 3 -1 681.09 973.90 65.10 36 o
11 5 -1 761.74 817.70 41.30 36 o
9 4 0 1210.60 1410.10 50.10 36 o
5 2 1 14355.00 14090.60 96.60 36 o
-11 -6 2 226.36 157.80 41.00 36 o
-9 -5 2 596.37 727.90 48.10 36 o
-7 -4 2 7070.80 5549.70 70.30 36 o
-5 -3 2 6298.10 6842.80 79.60 36 o
-3 -2 2 7056.50 7049.20 100.60 36 o
8 3 2 2512.70 2476.90 58.20 36 o
2 0 3 11031.00 10431.20 105.00 36 o
9 3 3 140.04 500.00 45.30 36 o
-8 -5 4 603.14 703.20 45.80 36 o
5 1 4 4714.40 4500.90 70.80 36 o
-9 -6 5 322.03 363.20 39.00 36 o
-3 -3 5 1949.90 1866.20 63.50 36 o
-1 -2 5 13554.00 11407.90 84.60 36 o
8 2 5 429.19 737.90 45.30 36 o
2 -1 6 713.78 973.40 59.70 36 o
4 0 6 8128.90 8739.20 72.10 36 o
-6 -5 7 962.41 899.90 41.90 36 o
7 1 7 200.48 231.70 41.20 36 o
-5 -5 8 380.62 426.80 39.10 36 o
-3 -4 8 949.02 553.50 41.50 36 o
-1 -3 8 821.76 1284.50 45.50 36 o
1 -2 8 265.81 288.50 43.10 36 o
2 -2 9 560.45 418.40 39.90 36 o
4 -1 9 743.14 1089.60 41.70 36 o
2 3 -9 437.75 511.10 40.30 37 o
-6 -1 -8 397.86 387.20 40.80 37 o
-4 0 -8 3874.60 4391.40 54.20 37 o
-2 1 -8 307.19 412.20 43.80 37 o
5 4 -8 150.04 475.00 40.50 37 o
-8 -2 -7 251.60 323.30 39.30 37 o
3 3 -7 959.84 597.20 46.20 37 o
-1 1 -6 729.74 2064.70 62.90 37 o
6 4 -6 1174.80 825.10 45.50 37 o
8 5 -6 240.63 250.50 39.00 37 o
-9 -3 -5 410.65 670.90 42.90 37 o
-7 -2 -5 591.37 569.20 47.70 37 o
4 3 -5 1632.20 1782.80 61.30 37 o
9 5 -5 178.78 153.40 39.20 37 o
7 4 -4 736.17 826.60 49.60 37 o
-10 -4 -3 137.94 345.50 41.90 37 o
-8 -3 -3 489.51 648.40 50.20 37 o
-6 -2 -3 3404.90 3755.80 68.90 37 o
5 3 -3 4446.60 4672.20 72.50 37 o
10 5 -3 985.88 731.60 42.30 37 o
8 4 -2 954.72 974.60 52.00 37 o
-11 -5 -1 838.91 786.90 42.50 37 o
4 2 -1 11349.00 12889.80 105.40 37 o
11 5 -1 730.97 778.20 41.20 37 o
7 3 0 7989.50 7747.60 75.90 37 o
12 5 0 148.33 230.30 36.80 37 o
-10 -5 1 281.24 280.00 43.90 37 o
-8 -4 1 943.64 981.20 56.00 37 o
-1 -1 2 41203.00 33005.80 151.80 37 o
9 3 3 66.38 203.30 44.50 37 o
-10 -6 4 426.29 395.50 40.30 37 o
-8 -5 4 334.87 334.30 44.40 37 o
-6 -4 4 1522.40 1340.20 56.20 37 o
-4 -3 4 3174.80 2382.00 66.50 37 o
-2 -2 4 11881.00 11402.10 88.50 37 o
7 2 4 5069.40 4415.00 61.60 37 o
1 -1 5 853.79 1295.10 64.90 37 o
8 2 5 651.58 659.10 44.40 37 o
-7 -5 6 772.55 897.50 43.60 37 o
-5 -4 6 623.72 618.50 46.30 37 o
4 0 6 7279.10 8216.10 70.20 37 o
-4 -4 7 681.78 536.10 43.70 37 o
-2 -3 7 1782.40 1932.00 50.40 37 o
7 1 7 948.43 652.60 41.70 37 o
1 -2 8 212.39 512.90 43.30 37 o
3 -1 8 205.87 278.70 42.10 37 o
4 -1 9 963.36 942.30 41.00 37 o
-4 0 -9 234.83 348.60 40.00 38 o
3 3 -9 210.14 160.10 38.60 38 o
1 2 -8 387.84 434.60 43.80 38 o
3 3 -8 1413.50 1446.20 45.80 38 o
-1 1 -7 224.46 870.80 50.80 38 o
6 4 -7 473.23 583.80 41.40 38 o
-9 -3 -6 52.06 63.30 38.80 38 <
-7 -2 -6 221.75 237.00 43.50 38 o
-5 -1 -6 3304.70 4543.80 60.40 38 o
4 3 -6 1354.40 1194.70 51.30 38 o
9 5 -6 899.80 604.30 38.40 38 o
0 1 -5 8026.90 7037.50 76.90 38 o
7 4 -5 2834.40 2412.20 49.80 38 o
-6 -2 -4 4956.40 5547.80 69.30 38 o
-4 -1 -4 427.11 1021.30 64.50 38 o
5 3 -4 3800.30 3519.40 67.40 38 o
3 2 -3 18669.00 19428.80 104.60 38 o
6 3 -2 1365.60 2095.70 66.00 38 o
11 5 -2 130.15 270.90 39.10 38 o
-11 -5 -1 1017.90 1034.50 43.10 38 o
4 2 -1 13984.00 12730.30 104.80 38 o
9 4 -1 2490.00 2226.40 51.80 38 o
7 3 0 5043.70 6243.40 73.00 38 o
12 5 0 103.33 212.20 36.60 38 o
-10 -5 1 261.87 192.40 43.70 38 o
-8 -4 1 717.85 810.70 55.60 38 o
-6 -3 1 550.90 1064.10 67.10 38 o
5 2 1 12820.00 13494.30 95.00 38 o
10 4 1 661.99 531.40 43.10 38 o
8 3 2 2057.30 2206.90 57.10 38 o
-9 -5 3 671.67 581.90 45.90 38 o
-7 -4 3 6158.30 4298.60 63.30 38 o
-5 -3 3 6636.80 7774.70 78.40 38 o
4 1 3 6799.90 7593.40 83.80 38 o
11 4 3 348.54 507.50 39.10 38 o
7 2 4 4938.10 4886.30 63.10 38 o
-8 -5 5 582.30 411.20 42.20 38 o
-6 -4 5 1145.10 910.80 49.20 38 o
5 1 5 2422.30 1941.50 60.60 38 o
10 3 5 296.32 416.70 39.00 38 o
-1 -2 6 476.48 438.00 57.40 38 o
1 -1 6 1566.20 1458.10 60.30 38 o
8 2 6 498.82 557.50 41.10 38 o
-7 -5 7 618.45 535.00 40.10 38 o
4 0 7 1299.50 744.20 46.10 38 o
-4 -4 8 561.39 492.50 40.20 38 o
-2 -3 8 455.38 453.00 42.40 38 o
0 -2 8 830.51 995.80 44.60 38 o
7 1 8 383.99 455.00 38.50 38 o
1 -2 9 211.81 179.30 39.30 38 o
3 -1 9 611.26 678.80 40.00 38 o
-1 1 -9 1050.30 1325.40 44.40 39 o
1 2 -9 364.00 294.10 41.20 39 o
-5 -1 -8 161.77 265.50 40.90 39 o
-1 1 -8 350.33 529.90 44.50 39 o
6 4 -8 129.09 113.40 37.90 39 <
-7 -2 -7 241.96 116.50 40.60 39 <
-5 -1 -7 157.91 215.70 44.00 39 o
4 3 -7 907.01 723.50 45.30 39 o
2 2 -6 4794.90 4885.70 66.60 39 o
9 5 -6 1089.20 734.30 39.20 39 o
-2 0 -5 1851.30 2711.40 68.50 39 o
7 4 -5 2432.10 2058.80 48.90 39 o
-10 -4 -4 65.31 147.10 40.20 39 o
-8 -3 -4 466.34 560.30 46.40 39 o
-6 -2 -4 6060.50 6501.80 71.10 39 o
5 3 -4 4523.90 4068.50 68.10 39 o
10 5 -4 197.51 365.80 38.50 39 o
1 1 -3 23619.00 21075.30 118.90 39 o
8 4 -3 2014.30 1404.10 49.80 39 o
-3 -1 -2 11104.00 10845.20 107.70 39 o
6 3 -2 955.80 1200.10 63.60 39 o
11 5 -2 715.09 633.20 39.60 39 o
-11 -5 -1 783.90 590.80 41.70 39 o
9 4 -1 887.56 994.70 48.60 39 o
7 3 0 6457.90 7289.10 74.90 39 o
12 5 0 66.20 271.80 36.50 39 o
-10 -5 1 193.62 193.80 43.40 39 o
-8 -4 1 633.50 930.40 55.30 39 o
-6 -3 1 630.24 818.60 65.80 39 o
5 2 1 9587.10 12784.30 93.90 39 o
10 4 1 162.38 320.70 42.50 39 o
8 3 2 1432.00 1654.20 55.80 39 o
-9 -5 3 640.16 666.20 45.90 39 o
-7 -4 3 5091.00 4571.50 64.10 39 o
-5 -3 3 5881.80 6239.60 74.70 39 o
-3 -2 3 22602.00 19487.40 104.50 39 o
6 2 3 2529.50 2550.70 66.20 39 o
11 4 3 223.52 375.90 38.90 39 o
2 0 4 9123.50 8343.10 85.50 39 o
9 3 4 314.02 566.60 42.80 39 o
-8 -5 5 640.60 482.00 41.80 39 o
-6 -4 5 1247.70 1054.90 49.40 39 o
-4 -3 5 1214.00 1546.20 60.10 39 o
-2 -2 5 695.24 637.20 62.50 39 o
5 1 5 3008.50 3120.90 62.90 39 o
8 2 6 265.24 388.90 40.80 39 o
-7 -5 7 769.69 698.30 40.10 39 o
-5 -4 7 1308.20 1301.50 44.40 39 o
-3 -3 7 527.54 701.40 45.60 39 o
6 1 7 714.81 763.20 43.30 39 o
2 -1 8 250.52 224.50 42.10 39 o
-2 -3 9 424.06 592.90 39.30 39 o
-7 -2 -8 622.18 489.50 39.20 40 o
-5 -1 -8 266.32 223.50 40.60 40 o
2 2 -8 1429.30 1235.80 46.20 40 o
4 3 -8 399.13 279.00 41.10 40 o
0 1 -7 3388.00 4601.10 60.60 40 o
2 2 -7 265.55 562.60 48.70 40 o
7 4 -7 749.37 732.20 41.60 40 o
-2 0 -6 7373.60 8242.60 74.50 40 o
7 4 -6 1132.20 1126.20 44.00 40 o
-8 -3 -5 517.95 685.80 44.90 40 o
-6 -2 -5 916.90 950.40 52.40 40 o
-4 -1 -5 3484.50 4672.50 69.00 40 o
5 3 -5 494.84 580.20 53.50 40 o
10 5 -5 228.37 336.70 37.50 40 o
-10 -4 -4 41.80 305.40 40.40 40 o
-8 -3 -4 986.27 830.80 47.00 40 o
3 2 -4 7424.50 6257.70 77.30 40 o
8 4 -4 260.45 523.40 44.80 40 o
11 5 -3 392.79 553.20 38.60 40 o
-3 -1 -2 11588.00 11438.30 108.20 40 o
11 5 -2 344.50 515.10 39.50 40 o
-11 -5 -1 478.77 574.80 41.40 40 o
9 4 -1 2879.40 2002.40 51.20 40 o
7 3 0 4567.90 5770.80 72.20 40 o
12 5 0 49.04 158.80 36.80 40 o
-4 -2 1 17278.00 15556.40 108.00 40 o
5 2 1 17223.00 14916.80 96.60 40 o
10 4 1 115.87 298.40 42.20 40 o
-10 -5 2 88.79 255.50 44.50 40 o
8 3 2 2583.50 2594.30 58.20 40 o
-1 -1 3 19925.00 21485.60 120.10 40 o
6 2 3 2122.90 2097.00 64.50 40 o
11 4 3 179.23 526.00 39.10 40 o
-9 -5 4 1325.50 1015.80 44.70 40 o
-7 -4 4 647.48 434.40 49.60 40 o
4 1 4 1456.10 1155.60 64.80 40 o
9 3 4 435.20 703.00 43.50 40 o
0 -1 5 13826.00 14537.40 89.20 40 o
7 2 5 2012.70 1212.50 48.90 40 o
-8 -5 6 255.64 47.00 39.10 40 <
-6 -4 6 476.81 857.00 45.00 40 o
-4 -3 6 420.87 423.50 49.00 40 o
5 1 6 1477.90 1479.80 51.70 40 o
1 -1 7 164.84 470.60 48.80 40 o
8 2 7 487.21 518.30 38.90 40 o
-5 -4 8 322.04 151.90 38.70 40 o
-3 -3 8 1355.10 1112.80 43.60 40 o
4 0 8 3209.70 3091.60 49.70 40 o
6 1 8 547.22 393.60 39.70 40 o
2 -1 9 1035.40 1354.30 42.90 40 o
0 1 -9 1547.50 1454.10 44.50 41 o
2 2 -9 534.53 278.20 39.70 41 o
-2 0 -8 378.27 573.50 44.20 41 o
-4 -1 -7 482.55 442.60 45.90 41 o
-2 0 -7 357.24 322.60 49.10 41 o
5 3 -7 1089.40 608.20 43.20 41 o
-8 -3 -6 603.83 608.60 42.20 41 o
-6 -2 -6 576.70 671.40 47.30 41 o
-4 -1 -6 499.00 791.50 53.90 41 o
3 2 -6 4562.40 4177.80 62.80 41 o
-10 -4 -5 586.37 308.50 39.40 41 o
-8 -3 -5 746.26 726.10 44.90 41 o
3 2 -5 3169.70 3061.30 66.40 41 o
8 4 -5 171.30 240.50 40.90 41 o
1 1 -4 5921.70 6102.30 82.70 41 o
8 4 -4 258.99 327.20 43.60 41 o
6 3 -3 197.11 268.70 58.90 41 o
11 5 -3 171.59 244.10 37.50 41 o
-11 -5 -2 137.15 294.50 40.10 41 o
-7 -3 -2 2540.40 2665.40 64.80 41 o
-5 -2 -2 2054.30 2434.20 74.10 41 o
4 2 -2 2870.90 2790.00 82.20 41 o
9 4 -2 1000.00 959.00 46.90 41 o
-11 -5 -1 479.42 648.50 41.80 41 o
9 4 -1 415.53 639.10 46.60 41 o
7 3 0 8235.90 6401.30 72.80 41 o
12 5 0 61.97 106.20 36.10 41 <
-4 -2 1 12925.00 12815.30 106.20 41 o
5 2 1 12115.00 13059.90 94.10 41 o
10 4 1 287.45 257.50 42.00 41 o
-10 -5 2 364.73 429.80 45.40 41 o
-8 -4 2 419.59 846.70 54.20 41 o
3 1 2 6332.80 6970.00 103.60 41 o
-5 -3 4 3743.10 4128.50 68.80 41 o
-3 -2 4 6503.00 6969.80 79.10 41 o
11 4 4 769.22 776.10 38.80 41 o
-9 -5 5 113.97 70.40 40.20 41 <
-7 -4 5 2225.00 1625.40 48.90 41 o
2 0 5 2144.50 2144.00 67.00 41 o
9 3 5 823.45 545.00 41.10 41 o
-2 -2 6 5379.50 5467.20 68.30 41 o
7 2 6 434.45 765.40 43.50 41 o
-6 -4 7 350.06 628.20 41.80 41 o
-4 -3 7 746.87 949.90 46.10 41 o
5 1 7 152.37 304.10 42.90 41 o
1 -1 8 830.79 947.90 44.90 41 o
-3 -3 9 77.55 234.50 37.90 41 o
4 0 9 328.50 422.50 39.00 41 o
-4 -1 -9 305.93 251.00 38.80 42 o
-2 0 -9 353.27 397.30 41.10 42 o
-6 -2 -8 381.20 587.10 40.70 42 o
-4 -1 -8 187.46 333.70 41.90 42 o
3 2 -8 397.97 390.00 41.90 42 o
5 3 -8 1402.90 1296.20 43.00 42 o
-8 -3 -7 100.53 186.30 38.40 42 o
-6 -2 -7 234.22 358.90 42.30 42 o
3 2 -7 1320.20 1539.30 49.70 42 o
8 4 -7 65.16 97.60 37.50 42 <
-8 -3 -6 535.41 521.00 42.30 42 o
1 1 -6 202.23 462.30 58.30 42 o
8 4 -6 276.38 246.50 39.30 42 o
-10 -4 -5 513.41 255.10 39.70 42 o
1 1 -5 1753.20 2069.80 66.80 42 o
6 3 -4 562.22 959.20 56.80 42 o
-3 -1 -3 7559.70 8290.20 91.80 42 o
-11 -5 -2 412.89 198.70 39.80 42 o
-9 -4 -2 2771.20 2910.40 53.80 42 o
-7 -3 -2 3501.90 3901.10 67.90 42 o
-5 -2 -2 1160.40 1650.30 72.30 42 o
4 2 -2 3447.80 3549.80 83.00 42 o
9 4 -2 1310.10 1376.60 47.80 42 o
-11 -5 -1 758.08 1007.70 43.10 42 o
2 1 -1 105870.00 65215.90 189.20 42 o
7 3 0 3996.00 4595.30 70.00 42 o
12 5 0 81.47 101.10 36.80 42 <
5 2 1 14564.00 14836.10 96.60 42 o
10 4 1 168.12 238.80 42.10 42 o
-10 -5 2 166.27 252.70 44.70 42 o
-8 -4 2 981.36 1258.60 55.50 42 o
-6 -3 2 991.40 1465.70 65.90 42 o
3 1 2 7697.50 8454.90 106.00 42 o
-10 -5 3 1706.50 1001.80 45.40 42 o
8 3 3 1179.60 1009.20 50.80 42 o
-1 -1 4 6520.00 6477.20 84.20 42 o
6 2 4 4391.70 6231.50 70.60 42 o
11 4 4 541.92 521.00 38.30 42 o
-9 -5 5 101.17 202.80 40.50 42 o
-7 -4 5 2664.50 2149.90 50.60 42 o
-5 -3 5 1988.50 2200.60 58.50 42 o
4 1 5 1437.40 1700.70 62.40 42 o
9 3 5 400.27 345.10 40.40 42 o
-9 -5 6 1630.00 987.00 41.20 42 o
2 0 6 4787.60 5924.80 69.60 42 o
7 2 6 54.22 205.60 42.30 42 o
-2 -2 7 288.69 328.90 47.40 42 o
5 1 7 323.94 316.00 43.10 42 o
-6 -4 8 127.56 234.90 37.80 42 o
-4 -3 8 113.13 363.30 39.80 42 o
1 -1 9 947.94 1103.70 42.60 42 o
1 1 -9 791.18 1008.30 42.40 43 o
1 1 -8 301.66 474.00 43.40 43 o
6 3 -8 204.12 253.80 38.30 43 o
6 3 -7 371.05 265.50 41.00 43 o
6 3 -6 210.34 323.90 43.80 43 o
9 4 -5 1281.30 944.90 42.10 43 o
-3 -1 -4 2622.60 1847.30 69.80 43 o
4 2 -4 5945.20 5455.90 73.30 43 o
9 4 -4 788.70 869.70 44.00 43 o
-5 -2 -3 17100.00 18853.70 96.40 43 o
9 4 -3 737.85 530.70 44.10 43 o
-9 -4 -2 1789.40 1531.90 49.10 43 o
-7 -3 -2 2035.10 1848.10 63.30 43 o
-11 -5 -1 555.12 724.80 42.20 43 o
7 3 -1 903.95 876.00 61.50 43 o
-11 -5 0 93.57 344.00 40.90 43 o
5 2 1 12716.00 15183.90 97.20 43 o
10 4 1 297.51 296.00 42.40 43 o
-4 -2 2 2886.90 3176.30 84.30 43 o
-10 -5 3 1152.70 1158.80 45.70 43 o
-8 -4 3 1058.50 1416.30 51.60 43 o
-6 -3 3 347.86 298.40 61.00 43 o
8 3 3 1079.40 1147.20 51.20 43 o
-10 -5 4 111.03 74.80 39.70 43 <
11 4 4 616.82 614.90 38.20 43 o
-1 -1 5 1869.80 1658.00 65.60 43 o
6 2 5 949.42 946.70 52.40 43 o
-5 -3 6 5520.00 5280.20 59.60 43 o
-3 -2 6 4553.40 3904.00 61.90 43 o
4 1 6 805.29 1273.20 54.40 43 o
9 3 6 199.34 149.20 37.90 43 o
-7 -4 7 544.87 630.10 40.20 43 o
2 0 7 483.34 277.80 47.50 43 o
7 2 7 285.76 432.30 40.10 43 o
7 2 8 448.96 407.60 37.80 43 o
-2 -2 9 272.37 346.50 39.30 43 o
-3 -1 -9 451.29 489.60 40.00 44 o
4 2 -9 218.51 316.40 38.90 44 o
-5 -2 -8 869.45 589.00 41.60 44 o
-3 -1 -8 711.70 436.50 43.10 44 o
4 2 -8 924.77 769.30 43.20 44 o
-5 -2 -7 1845.10 1541.60 47.50 44 o
-3 -1 -7 599.46 727.90 47.50 44 o
4 2 -7 319.64 563.10 45.50 44 o
-5 -2 -6 797.96 510.60 49.00 44 o
-3 -1 -6 3222.30 3439.00 62.00 44 o
4 2 -6 2117.20 2311.40 56.40 44 o
9 4 -6 487.47 411.40 38.20 44 o
-5 -2 -5 4961.20 4304.60 65.10 44 o
4 2 -5 1721.50 2173.30 63.30 44 o
9 4 -5 550.37 613.70 41.00 44 o
-7 -3 -4 2378.80 3135.30 57.70 44 o
-5 -2 -4 3163.10 2146.70 65.60 44 o
9 4 -4 613.52 597.10 42.60 44 o
-9 -4 -3 887.14 1109.40 46.30 44 o
-7 -3 -3 1332.40 1670.50 58.40 44 o
-5 -2 -3 16920.00 18096.70 94.40 44 o
2 1 -3 42936.00 37432.30 133.20 44 o
-11 -5 -2 376.06 382.60 39.80 44 o
-9 -4 -2 2221.90 2315.20 51.30 44 o
-7 -3 -2 3168.40 3503.40 66.40 44 o
2 1 -2 10623.00 10103.00 118.00 44 o
7 3 -2 4263.60 3272.20 65.60 44 o
-11 -5 -1 867.14 851.60 42.80 44 o
7 3 -1 872.44 819.50 61.20 44 o
-11 -5 0 113.20 367.80 41.10 44 o
5 2 1 12810.00 15504.70 97.40 44 o
10 4 1 405.48 200.40 42.20 44 o
5 2 2 786.43 859.80 70.30 44 o
10 4 2 291.67 377.30 41.30 44 o
-4 -2 3 2751.00 2418.20 73.40 44 o
3 1 3 7083.70 6737.60 89.20 44 o
8 3 3 563.83 701.80 50.00 44 o
-10 -5 4 60.72 47.20 39.40 44 <
-8 -4 4 359.51 541.40 45.90 44 o
-6 -3 4 1491.50 1290.70 58.20 44 o
8 3 4 847.55 1091.90 47.30 44 o
-10 -5 5 223.25 194.00 38.00 44 o
-8 -4 5 159.64 257.20 42.50 44 o
6 2 5 1186.20 820.90 52.50 44 o
-1 -1 6 320.78 624.50 58.20 44 o
6 2 6 321.49 670.20 45.50 44 o
-3 -2 7 1725.90 1654.10 49.70 44 o
4 1 7 793.00 922.00 46.60 44 o
-5 -3 8 450.95 783.90 40.80 44 o
2 0 8 891.66 1185.70 45.00 44 o
0 -1 9 825.16 1044.60 42.10 44 o
2 0 9 788.58 795.80 40.80 44 o
2 1 -9 2646.00 2140.70 47.10 45 o
2 1 -8 303.28 421.50 44.40 45 o
-7 -3 -7 439.96 220.40 40.70 45 o
-5 -2 -7 1056.90 1121.60 46.80 45 o
2 1 -7 6105.50 4386.30 59.50 45 o
7 3 -7 302.06 383.30 40.40 45 o
-9 -4 -6 292.80 284.30 38.60 45 o
-7 -3 -6 2592.30 2326.60 49.20 45 o
2 1 -6 826.98 897.20 60.50 45 o
7 3 -6 2095.50 2558.30 49.30 45 o
-9 -4 -5 1085.80 762.40 42.30 45 o
-7 -3 -5 1150.90 1253.00 49.20 45 o
2 1 -5 17644.00 14573.30 89.70 45 o
7 3 -5 1164.80 1254.30 48.80 45 o
-9 -4 -4 1001.50 706.80 44.20 45 o
-7 -3 -4 3171.30 3113.80 57.30 45 o
2 1 -4 3267.80 3335.60 79.20 45 o
7 3 -4 3313.10 3991.80 59.30 45 o
-11 -5 -3 586.91 511.50 39.50 45 o
-9 -4 -3 665.55 651.30 45.00 45 o
-7 -3 -3 1892.00 1513.40 58.30 45 o
7 3 -3 1822.60 1632.00 58.00 45 o
-11 -5 -2 167.01 177.00 39.10 45 o
-9 -4 -2 1843.50 1995.90 50.20 45 o
-7 -3 -2 3064.10 3094.60 65.60 45 o
7 3 -2 2680.60 3390.30 65.90 45 o
-11 -5 -1 728.81 658.80 41.40 45 o
10 4 -1 405.12 509.60 43.40 45 o
-11 -5 0 112.32 267.80 39.90 45 o
-9 -4 0 859.10 1481.60 50.80 45 o
10 4 0 303.38 460.50 43.00 45 o
-11 -5 1 944.29 718.50 42.10 45 o
5 2 1 13452.00 13325.40 94.60 45 o
10 4 1 243.87 282.60 42.40 45 o
5 2 2 1034.40 1272.40 71.00 45 o
10 4 2 527.47 474.00 41.80 45 o
-2 -1 3 43608.00 36138.40 132.60 45 o
-4 -2 4 3998.90 5988.30 74.20 45 o
3 1 4 1495.70 2830.10 71.30 45 o
8 3 4 600.07 585.70 46.00 45 o
-6 -3 5 1398.30 1625.90 52.30 45 o
-4 -2 5 1663.10 1868.90 62.60 45 o
3 1 5 2210.50 2810.80 66.20 45 o
8 3 5 1076.10 1244.10 45.10 45 o
-8 -4 6 220.24 167.90 39.70 45 o
-6 -3 6 549.72 550.80 44.60 45 o
-8 -4 7 208.87 297.10 37.00 45 o
6 2 7 376.16 229.90 40.80 45 o
-1 -1 8 201.51 293.30 42.10 45 o
4 1 8 237.48 293.20 40.90 45 o
6 2 8 430.13 446.60 39.30 45 o
-3 -2 9 298.72 509.90 38.40 45 o
4 1 9 415.25 566.50 39.00 45 o
-4 -2 -9 133.32 327.20 39.10 46 o
-2 -1 -9 1998.30 1355.10 44.00 46 o
3 1 -9 483.19 547.10 40.60 46 o
-2 -1 -8 299.03 463.30 44.70 46 o
5 2 -8 651.85 494.00 40.80 46 o
-2 -1 -7 5064.40 4823.50 60.40 46 o
5 2 -7 1515.70 973.00 45.80 46 o
-9 -4 -6 903.01 531.40 40.10 46 o
0 0 -6 9962.00 10237.00 79.70 46 o
5 2 -6 314.36 537.80 48.40 46 o
-9 -4 -5 673.11 863.50 43.00 46 o
5 2 -5 4990.40 4483.00 64.20 46 o
10 4 -5 378.72 163.10 37.70 46 o
-9 -4 -4 472.95 698.60 43.30 46 o
0 0 -4 12503.00 15341.30 99.40 46 o
5 2 -4 764.07 1388.60 63.10 46 o
10 4 -4 60.63 154.00 38.70 46 o
-11 -5 -3 600.03 523.50 40.00 46 o
-9 -4 -3 908.05 1075.30 45.80 46 o
-7 -3 -3 1809.80 1693.70 57.90 46 o
10 4 -3 147.56 165.20 39.70 46 o
-11 -5 -2 460.26 475.50 40.00 46 o
-9 -4 -2 847.80 963.50 46.90 46 o
-7 -3 -2 2881.30 3036.90 64.80 46 o
0 0 -2 92885.00 91765.10 209.40 46 o
10 4 -2 466.99 686.20 42.70 46 o
-11 -5 -1 798.10 736.10 41.60 46 o
10 4 -1 334.85 236.40 41.30 46 o
-11 -5 0 539.71 328.90 40.60 46 o
-9 -4 0 971.86 1092.20 50.20 46 o
10 4 0 251.37 439.70 43.10 46 o
-11 -5 1 1021.10 594.80 42.10 46 o
-9 -4 1 1410.30 1610.10 51.20 46 o
5 2 1 13120.00 14587.50 95.60 46 o
10 4 1 267.73 311.70 42.20 46 o
-11 -5 2 471.60 354.20 42.00 46 o
-9 -4 2 343.92 582.20 48.90 46 o
5 2 2 819.69 932.70 69.60 46 o
10 4 2 496.35 302.20 41.40 46 o
-11 -5 3 268.07 290.10 40.10 46 o
-9 -4 3 921.66 1090.00 47.50 46 o
5 2 3 13745.00 11534.90 84.30 46 o
-2 -1 4 3125.80 3639.50 78.10 46 o
-2 -1 5 15163.00 14900.70 89.60 46 o
8 3 5 960.60 1116.10 44.60 46 o
-4 -2 6 1560.50 1798.80 54.90 46 o
3 1 6 4711.70 4683.60 64.90 46 o
8 3 6 653.17 760.70 41.50 46 o
-4 -2 7 407.17 323.10 44.20 46 o
3 1 7 374.83 720.60 47.10 46 o
8 3 7 434.22 575.70 39.00 46 o
-6 -3 8 283.29 264.10 38.00 46 o
-4 -2 8 1250.20 900.50 42.80 46 o
-6 -3 -8 180.39 301.70 39.40 47 o
-4 -2 -8 1108.30 829.80 43.80 47 o
-4 -2 -7 379.54 213.30 45.30 47 o
3 1 -7 958.92 993.00 48.80 47 o
8 3 -7 301.47 331.00 38.60 47 o
-4 -2 -6 1923.50 1887.80 55.90 47 o
-2 -1 -6 789.20 1085.00 60.50 47 o
3 1 -6 3160.50 3640.50 62.60 47 o
8 3 -6 368.16 363.80 40.00 47 o
-2 -1 -5 14492.00 14468.40 89.10 47 o
8 3 -5 829.40 892.70 43.50 47 o
-2 -1 -4 3591.70 3748.40 79.50 47 o
-11 -5 -3 326.83 514.70 39.50 47 o
-9 -4 -3 564.62 758.00 45.30 47 o
5 2 -3 14147.00 13548.00 87.30 47 o
-11 -5 -2 275.69 489.40 40.00 47 o
-9 -4 -2 792.74 1266.60 47.80 47 o
5 2 -2 866.00 1012.10 69.30 47 o
10 4 -2 395.04 380.30 41.50 47 o
-11 -5 -1 866.46 809.80 41.90 47 o
5 2 -1 10295.00 11713.60 91.50 47 o
10 4 -1 347.95 354.50 41.50 47 o
-11 -5 0 1077.60 591.80 41.50 47 o
-9 -4 0 730.20 1076.50 49.90 47 o
10 4 0 231.60 437.90 42.40 47 o
-11 -5 1 761.72 583.20 41.70 47 o
-9 -4 1 1843.50 1924.60 52.50 47 o
10 4 1 202.55 108.10 41.50 47 <
-11 -5 2 279.44 220.50 41.80 47 o
-9 -4 2 905.65 685.30 49.00 47 o
-7 -3 2 4064.10 4598.00 69.10 47 o
0 0 2 85378.00 76736.70 196.40 47 o
10 4 2 411.01 972.60 42.90 47 o
-11 -5 3 403.58 199.40 40.10 47 o
-9 -4 3 1193.30 1194.20 47.60 47 o
-7 -3 3 2852.70 2871.60 61.30 47 o
5 2 3 13855.00 14340.30 89.00 47 o
10 4 3 194.01 199.20 40.10 47 o
-9 -4 4 535.31 531.70 43.20 47 o
0 0 4 13494.00 13716.80 97.10 47 o
5 2 4 598.74 962.70 62.00 47 o
10 4 4 76.89 -2.00 38.70 47 <
-9 -4 5 1161.90 890.90 42.30 47 o
5 2 5 4521.00 4231.70 64.30 47 o
10 4 5 215.14 146.80 37.30 47 o
-9 -4 6 575.55 537.40 39.30 47 o
0 0 6 11565.00 11924.80 81.90 47 o
5 2 6 468.13 615.20 48.40 47 o
-2 -1 7 5479.40 4229.50 57.90 47 o
5 2 7 1827.30 1370.70 46.20 47 o
-2 -1 8 174.35 261.40 42.20 47 o
5 2 8 433.12 363.30 40.50 47 o
-4 -2 9 153.13 207.30 37.20 47 o
-2 -1 9 1560.20 1666.90 44.10 47 o
3 1 9 377.11 429.90 39.80 47 o
-3 -2 -9 209.94 227.80 38.80 48 o
-1 -1 -9 861.29 817.30 41.80 48 o
4 1 -9 265.66 207.90 37.30 48 o
-1 -1 -8 423.95 434.20 43.30 48 o
-8 -4 -7 77.94 128.40 37.50 48 o
6 2 -7 305.05 362.50 41.10 48 o
-8 -4 -6 249.92 297.00 40.30 48 o
-6 -3 -6 257.89 285.90 44.40 48 o
-6 -3 -5 1565.00 1746.30 53.20 48 o
-4 -2 -5 1087.50 1880.20 62.30 48 o
3 1 -5 2986.10 2796.20 65.80 48 o
8 3 -5 747.53 1134.30 44.20 48 o
-4 -2 -4 5412.90 5047.30 72.40 48 o
3 1 -4 1452.50 1741.60 68.40 48 o
8 3 -4 593.46 574.90 45.60 48 o
-2 -1 -3 40345.00 36824.30 132.40 48 o
-11 -5 -2 448.74 343.90 39.30 48 o
5 2 -2 1342.40 1368.00 69.80 48 o
-11 -5 -1 612.67 600.50 41.30 48 o
5 2 -1 9775.60 9416.90 87.70 48 o
10 4 -1 214.25 314.60 42.10 48 o
-11 -5 0 213.79 161.30 39.70 48 o
-9 -4 0 1700.20 1150.40 49.90 48 o
10 4 0 422.46 849.20 43.60 48 o
-11 -5 1 855.55 552.30 41.90 48 o
-9 -4 1 1828.00 1761.00 52.20 48 o
-7 -3 1 2690.80 2437.50 66.20 48 o
10 4 1 236.38 396.60 41.80 48 o
-9 -4 2 462.68 802.00 49.60 48 o
-7 -3 2 3691.30 4431.60 69.30 48 o
10 4 2 606.43 579.40 42.50 48 o
-9 -4 3 1187.40 1127.50 48.00 48 o
-7 -3 3 2712.30 2829.00 61.80 48 o
7 3 3 2044.10 2715.00 61.30 48 o
10 4 3 223.53 244.30 40.30 48 o
-9 -4 4 693.68 662.70 44.10 48 o
-7 -3 4 1174.10 1800.90 54.40 48 o
7 3 4 2812.00 2971.90 56.50 48 o
10 4 4 206.78 200.30 38.80 48 o
-9 -4 5 715.81 854.30 42.40 48 o
-7 -3 5 1532.80 1520.00 49.40 48 o
2 1 5 16013.00 14903.70 89.40 48 o
7 3 5 1470.90 1769.00 49.50 48 o
-9 -4 6 437.90 337.00 39.00 48 o
-7 -3 6 1706.90 1374.40 45.60 48 o
-5 -2 6 667.19 1034.40 49.50 48 o
2 1 6 688.15 1066.50 59.80 48 o
7 3 6 2205.50 1891.90 46.90 48 o
-7 -3 7 647.75 314.80 39.60 48 o
-5 -2 7 1022.40 1032.30 45.30 48 o
2 1 7 7030.90 5672.50 61.10 48 o
7 3 7 827.45 366.80 40.50 48 o
0 0 8 494.64 843.60 45.40 48 o
2 1 8 279.48 565.30 43.50 48 o
2 0 -9 742.80 378.00 40.30 49 o
-5 -3 -8 1327.70 1213.50 43.40 49 o
-3 -2 -8 233.36 331.90 41.60 49 o
4 1 -8 266.65 245.90 41.00 49 o
7 2 -8 355.09 379.90 38.50 49 o
-1 -1 -7 240.86 446.80 48.80 49 o
4 1 -7 1154.10 604.50 45.50 49 o
-8 -4 -6 234.67 369.90 40.20 49 o
-1 -1 -6 149.93 294.20 58.40 49 o
6 2 -6 314.64 763.50 44.90 49 o
9 3 -6 148.62 201.70 38.10 49 o
-8 -4 -5 96.54 178.70 42.00 49 o
-6 -3 -5 408.00 612.30 50.00 49 o
6 2 -5 1008.50 1096.50 51.50 49 o
-4 -2 -4 6220.90 5234.30 73.30 49 o
11 4 -4 426.71 263.60 37.20 49 o
3 1 -3 7527.10 7987.00 90.90 49 o
8 3 -3 576.50 900.00 50.10 49 o
-11 -5 -2 138.55 263.20 39.50 49 o
-2 -1 -2 10451.00 9656.80 117.70 49 o
-11 -5 -1 587.55 753.90 42.30 49 o
5 2 -1 11216.00 13719.80 95.60 49 o
-11 -5 0 574.29 530.00 41.70 49 o
-9 -4 0 1379.10 1478.00 51.70 49 o
10 4 0 90.53 50.60 42.20 49 <
-9 -4 1 2179.00 2203.80 54.20 49 o
-7 -3 1 423.47 1074.40 64.60 49 o
10 4 1 270.19 333.70 42.10 49 o
-7 -3 2 5179.70 6240.00 73.80 49 o
7 3 2 5281.90 4722.50 68.90 49 o
10 4 2 186.26 547.40 42.60 49 o
-5 -2 3 14145.00 14589.00 90.20 49 o
2 1 3 40678.00 34036.40 130.90 49 o
7 3 3 1834.60 2699.70 61.60 49 o
-5 -2 4 741.34 1166.30 63.00 49 o
2 1 4 4174.20 4106.00 79.20 49 o
7 3 4 2045.00 2079.70 54.70 49 o
-5 -2 5 1968.40 2983.30 61.40 49 o
2 1 5 11574.00 12871.40 86.40 49 o
7 3 5 2258.60 1570.10 49.50 49 o
-5 -2 6 811.95 681.50 48.60 49 o
-3 -1 6 4706.60 4259.10 63.90 49 o
7 3 6 3558.30 3139.60 50.70 49 o
-3 -1 7 392.14 521.90 46.80 49 o
7 3 7 406.76 341.60 40.10 49 o
-5 -2 8 670.70 492.80 40.20 49 o
-3 -1 8 1103.80 1132.70 44.10 49 o
-3 -1 9 391.20 444.80 39.10 49 o
2 1 9 1762.30 1287.70 42.90 49 o
4 2 9 205.78 273.10 38.10 49 o
-2 -2 -9 359.06 331.50 39.80 50 o
-5 -3 -8 1172.50 886.50 42.50 50 o
5 1 -8 193.04 154.50 40.00 50 o
-5 -3 -7 1022.30 562.80 44.70 50 o
-3 -2 -7 1058.60 1235.00 48.50 50 o
2 0 -7 321.09 253.10 48.40 50 o
7 2 -7 460.41 491.60 40.60 50 o
-3 -2 -6 4265.80 4597.70 64.20 50 o
4 1 -6 651.12 627.90 52.30 50 o
-10 -5 -5 120.78 192.70 37.90 50 o
-8 -4 -5 203.72 284.60 42.30 50 o
-1 -1 -5 1109.90 1056.40 64.90 50 o
9 3 -5 505.08 593.80 40.70 50 o
-6 -3 -4 948.69 1118.50 57.80 50 o
6 2 -4 6493.20 5476.30 68.90 50 o
-4 -2 -3 1858.40 2031.40 71.60 50 o
11 4 -3 269.86 235.90 38.30 50 o
-11 -5 -2 472.13 503.80 39.90 50 o
3 1 -2 12376.00 11494.20 108.80 50 o
8 3 -2 1119.00 927.00 53.50 50 o
11 4 -2 581.86 538.20 39.60 50 o
-11 -5 -1 310.18 659.30 42.00 50 o
8 3 -1 1515.60 1822.40 58.20 50 o
-9 -4 0 1612.10 1540.90 51.90 50 o
-7 -3 0 5448.40 5734.00 73.20 50 o
5 2 0 1097.60 2005.10 78.70 50 o
-5 -2 1 13081.00 12821.80 94.90 50 o
10 4 1 133.72 383.90 42.60 50 o
-5 -2 2 1556.70 1504.50 72.70 50 o
2 1 2 12677.00 10447.90 119.90 50 o
7 3 2 2985.30 3555.10 65.80 50 o
10 4 2 408.44 270.40 41.40 50 o
-3 -1 3 7527.60 7264.40 89.90 50 o
7 3 3 2456.40 2999.60 61.70 50 o
-10 -4 4 390.63 258.50 41.50 50 o
-3 -1 4 1236.70 2674.90 71.40 50 o
7 3 4 2237.30 2271.90 55.20 50 o
-10 -4 5 223.07 268.70 38.60 50 o
4 2 5 2023.80 1469.00 61.70 50 o
-8 -3 6 825.71 466.10 41.00 50 o
4 2 6 2037.60 2293.00 56.30 50 o
9 4 6 266.07 275.50 37.80 50 o
-8 -3 7 226.85 194.70 37.70 50 o
4 2 7 311.61 381.40 44.20 50 o
-6 -2 8 836.92 455.80 38.80 50 o
4 2 8 867.96 889.30 43.00 50 o
1 1 9 1250.20 1418.60 43.10 50 o
1 -1 -9 642.46 779.60 42.90 51 o
-4 -3 -8 416.23 382.90 41.80 51 o
-2 -2 -8 1063.80 938.00 45.60 51 o
-7 -4 -7 767.66 802.20 42.60 51 o
0 -1 -7 4806.30 4422.20 60.40 51 o
5 1 -7 201.51 286.20 43.50 51 o
8 2 -7 218.66 196.10 39.00 51 o
-5 -3 -6 3560.90 3634.10 56.40 51 o
2 0 -6 8703.30 9000.40 76.10 51 o
-10 -5 -5 343.05 347.80 38.70 51 o
-3 -2 -5 2969.00 2960.40 66.70 51 o
7 2 -5 544.49 615.40 47.00 51 o
-10 -5 -4 93.57 160.40 39.40 51 o
-8 -4 -4 439.47 254.80 45.10 51 o
-1 -1 -4 6600.90 7417.50 85.70 51 o
4 1 -4 1519.70 1142.60 64.70 51 o
9 3 -4 569.52 812.30 43.60 51 o
-6 -3 -3 167.97 308.50 59.90 51 o
6 2 -3 3827.50 2994.10 67.60 51 o
-11 -5 -2 88.69 82.90 39.00 51 <
11 4 -2 492.58 281.60 38.90 51 o
-11 -5 -1 683.48 838.20 42.60 51 o
8 3 -1 996.91 1675.70 57.90 51 o
11 4 -1 486.88 422.70 40.00 51 o
-7 -3 0 4256.20 4613.20 71.40 51 o
5 2 0 740.16 1440.10 77.80 51 o
-5 -2 1 13297.00 11934.40 93.80 51 o
10 4 1 326.62 354.60 42.30 51 o
-3 -1 2 10155.00 8517.40 105.30 51 o
7 3 2 4439.10 4565.80 68.20 51 o
10 4 2 392.22 312.90 41.40 51 o
-10 -4 3 493.11 234.10 42.90 51 o
-8 -3 4 759.09 418.60 46.70 51 o
4 2 4 5384.10 5738.00 74.10 51 o
9 4 4 377.58 398.20 41.60 51 o
-6 -2 5 735.90 901.20 52.30 51 o
9 4 5 765.54 793.90 41.00 51 o
-6 -2 6 868.22 721.40 45.90 51 o
-4 -1 6 926.93 814.30 52.10 51 o
1 1 6 385.61 698.00 58.30 51 o
6 3 6 310.44 359.70 44.50 51 o
9 4 6 286.69 375.20 38.00 51 o
-4 -1 7 718.12 1044.80 45.80 51 o
6 3 7 821.07 772.90 42.30 51 o
-4 -1 8 288.98 333.00 39.80 51 o
-2 0 8 1303.60 1424.40 45.40 51 o
3 2 8 242.96 297.30 41.00 51 o
-2 0 9 380.81 448.10 39.60 51 o
3 2 9 286.96 429.80 38.60 51 o
-1 -2 -9 1129.20 602.80 40.90 52 o
4 0 -9 170.74 120.00 39.30 52 o
-6 -4 -8 176.14 133.60 38.60 52 o
-4 -3 -8 254.06 322.60 41.30 52 o
1 -1 -8 498.41 436.10 44.50 52 o
6 1 -8 218.24 174.70 39.90 52 o
-2 -2 -7 562.60 499.40 48.70 52 o
8 2 -7 301.21 293.50 39.20 52 o
-9 -5 -6 1255.20 990.50 40.80 52 o
-7 -4 -6 783.58 925.10 44.40 52 o
5 1 -6 1444.70 3109.30 56.20 52 o
-5 -3 -5 1029.00 962.70 55.50 52 o
2 0 -5 2860.60 2395.70 67.00 52 o
7 2 -5 960.04 773.90 47.50 52 o
10 3 -5 96.74 116.20 37.60 52 o
-10 -5 -4 147.28 195.20 39.30 52 o
4 1 -4 951.17 1184.10 65.30 52 o
-6 -3 -3 115.41 233.90 59.40 52 o
9 3 -3 235.97 574.10 45.00 52 o
-4 -2 -2 2908.70 2749.10 81.50 52 o
11 4 -2 262.89 189.10 39.80 52 o
-11 -5 -1 1409.90 926.40 42.90 52 o
8 3 -1 1290.20 1201.70 57.00 52 o
11 4 -1 572.82 387.70 40.20 52 o
-7 -3 0 8937.00 6940.40 74.90 52 o
5 2 0 1067.40 1619.90 77.90 52 o
-5 -2 1 11106.00 11647.90 92.60 52 o
10 4 1 136.61 311.70 42.20 52 o
-10 -4 2 765.32 436.90 45.80 52 o
-3 -1 2 7535.80 8561.50 104.50 52 o
7 3 2 3161.30 3875.60 67.00 52 o
-10 -4 3 733.14 322.60 43.10 52 o
-8 -3 3 1086.80 934.30 51.60 52 o
4 2 3 2145.80 2085.90 72.90 52 o
-6 -2 4 4528.70 5150.50 67.90 52 o
9 4 4 498.72 445.50 42.30 52 o
-4 -1 5 3020.80 2786.70 64.30 52 o
1 1 5 1333.80 1547.40 65.20 52 o
6 3 5 616.02 708.60 49.80 52 o
-4 -1 6 687.82 669.90 52.00 52 o
3 2 6 4837.00 4445.50 63.40 52 o
-2 0 7 357.63 416.10 47.70 52 o
3 2 7 1419.30 2219.90 50.90 52 o
8 4 7 79.85 114.60 37.20 52 o
-7 -2 8 190.82 250.20 36.90 52 o
5 3 8 1403.30 1104.50 42.70 52 o
0 1 9 1124.00 1241.00 42.60 52 o
2 -1 -9 2251.80 2308.50 47.40 53 o
-1 -2 -8 402.14 506.50 44.40 53 o
4 0 -8 4918.30 4468.00 54.60 53 o
7 1 -8 470.34 406.20 39.10 53 o
-6 -4 -7 671.43 547.40 42.50 53 o
-4 -3 -7 849.59 766.80 45.80 53 o
1 -1 -7 1043.10 858.30 51.00 53 o
6 1 -7 876.74 938.90 44.70 53 o
-9 -5 -6 712.72 685.00 40.30 53 o
-2 -2 -6 4159.90 3987.90 65.30 53 o
8 2 -6 380.66 273.10 40.30 53 o
-7 -4 -5 2939.00 2061.80 50.80 53 o
-5 -3 -5 706.51 1105.80 55.60 53 o
0 -1 -5 6139.20 5481.60 75.00 53 o
5 1 -5 2142.20 2335.90 61.70 53 o
-10 -5 -4 228.07 426.20 40.30 53 o
-3 -2 -4 5332.10 5239.80 75.30 53 o
2 0 -4 8979.90 10996.80 89.80 53 o
7 2 -4 4312.90 4884.40 63.10 53 o
10 3 -4 371.56 415.10 40.20 53 o
-8 -4 -3 2007.60 1291.10 50.40 53 o
-1 -1 -3 21457.00 24062.30 123.20 53 o
4 1 -3 5369.00 6243.00 81.40 53 o
-4 -2 -2 4127.40 3090.30 83.00 53 o
6 2 -2 2798.40 3193.70 68.90 53 o
-11 -5 -1 732.67 797.20 42.50 53 o
-2 -1 -1 97594.00 64899.70 190.00 53 o
3 1 -1 6988.60 7940.10 116.40 53 o
11 4 -1 359.41 504.40 41.20 53 o
-7 -3 0 3639.00 4623.40 71.40 53 o
5 2 0 1674.20 1476.80 78.80 53 o
10 4 1 394.57 268.00 42.30 53 o
-10 -4 2 194.10 262.50 45.40 53 o
-8 -3 2 1168.40 1250.70 56.90 53 o
7 3 2 3056.00 4106.40 68.00 53 o
-6 -2 3 3048.90 3009.30 67.50 53 o
9 4 3 1431.20 1672.70 47.40 53 o
-11 -4 4 542.89 618.70 40.40 53 o
-4 -1 4 644.36 1037.10 64.60 53 o
1 1 4 6221.40 5472.00 82.70 53 o
6 3 4 937.37 1565.50 58.20 53 o
9 4 4 220.77 241.50 41.50 53 o
-9 -3 5 401.67 468.50 41.50 53 o
-2 0 5 2796.90 3149.90 68.20 53 o
3 2 5 1557.00 2213.30 65.20 53 o
-9 -3 6 114.98 221.60 39.00 53 o
-7 -2 6 38.78 178.20 41.80 53 o
8 4 6 696.46 445.50 40.20 53 o
-7 -2 7 286.87 452.30 40.20 53 o
-5 -1 7 82.91 192.60 42.50 53 o
0 1 7 5258.40 5901.20 62.70 53 o
5 3 7 911.85 1001.80 44.90 53 o
-5 -1 8 174.65 326.40 39.50 53 o
2 2 8 1043.40 825.60 44.30 53 o
2 2 9 73.70 189.70 38.50 53 o
-3 -3 -8 980.90 975.50 44.90 54 o
2 -1 -8 555.52 493.00 44.00 54 o
7 1 -8 310.32 331.90 38.50 54 o
-6 -4 -7 366.91 403.20 41.90 54 o
-1 -2 -7 2771.90 3116.10 55.90 54 o
4 0 -7 654.71 927.50 47.70 54 o
-4 -3 -6 163.20 122.70 49.40 54 <
6 1 -6 846.23 627.50 46.60 54 o
-9 -5 -5 292.21 132.60 39.60 54 o
-7 -4 -5 1701.40 1732.60 49.30 54 o
8 2 -5 116.82 267.00 43.10 54 o
2 0 -4 8913.20 11290.40 89.90 54 o
10 3 -4 367.53 349.90 40.20 54 o
-10 -5 -3 819.56 924.40 42.90 54 o
-8 -4 -3 1108.40 1256.10 49.80 54 o
-1 -1 -3 25606.00 21746.10 120.20 54 o
4 1 -3 7094.90 8240.10 84.50 54 o
9 3 -2 1929.70 1730.30 50.40 54 o
12 4 -2 132.58 331.80 37.80 54 o
-11 -5 -1 1413.00 1289.00 44.00 54 o
-2 -1 -1 91067.00 65273.90 190.70 54 o
3 1 -1 8613.90 11823.10 121.30 54 o
11 4 -1 267.37 365.70 40.40 54 o
-7 -3 0 5897.60 7615.10 76.50 54 o
-10 -4 1 306.26 299.50 44.80 54 o
2 1 1 83351.00 60209.50 187.20 54 o
10 4 1 404.96 271.30 41.90 54 o
-8 -3 2 2073.90 2290.90 60.40 54 o
-6 -2 3 2635.50 2265.50 66.50 54 o
9 4 3 913.94 866.50 45.00 54 o
-11 -4 4 287.86 554.60 40.10 54 o
6 3 4 1345.20 1833.60 59.20 54 o
-9 -3 5 617.19 461.80 42.00 54 o
-7 -2 5 1290.30 905.10 48.30 54 o
3 2 5 2842.60 3603.40 68.60 54 o
8 4 5 747.95 910.20 43.20 54 o
-5 -1 6 2379.20 2191.40 53.70 54 o
5 3 6 3273.80 4042.10 56.80 54 o
8 4 6 378.31 448.60 40.20 54 o
2 2 7 332.28 312.10 47.90 54 o
-1 1 9 438.70 958.40 42.00 54 o
-2 -3 -9 368.32 385.20 40.60 55 o
3 -1 -9 435.05 470.70 40.10 55 o
-5 -4 -8 140.13 190.60 39.90 55 o
0 -2 -8 250.27 319.60 43.20 55 o
-3 -3 -7 531.00 737.40 47.00 55 o
2 -1 -7 3432.70 3007.30 55.60 55 o
7 1 -7 151.62 275.70 41.00 55 o
-6 -4 -6 719.38 539.20 45.40 55 o
1 -1 -6 205.07 474.70 59.80 55 o
9 2 -6 119.49 204.40 38.60 55 o
-9 -5 -5 52.85 118.90 40.60 55 <
-2 -2 -5 504.12 710.90 63.50 55 o
-5 -3 -4 4392.60 3694.00 68.20 55 o
5 1 -4 1675.10 1731.60 65.00 55 o
-10 -5 -3 595.12 1062.30 44.20 55 o
-8 -4 -3 1235.50 1373.10 50.70 55 o
7 2 -3 2535.40 3567.30 65.20 55 o
10 3 -3 276.85 194.00 41.70 55 o
9 3 -2 2426.60 2910.40 53.60 55 o
12 4 -2 198.88 319.70 37.70 55 o
8 3 0 198.50 413.10 55.90 55 o
11 4 0 302.76 337.40 40.50 55 o
-10 -4 1 357.01 427.00 45.60 55 o
-3 -1 1 8026.10 7284.00 117.80 55 o
2 1 1 98653.00 62128.00 189.60 55 o
10 4 1 263.66 172.20 42.30 55 o
-6 -2 2 5336.30 4797.80 73.80 55 o
4 2 2 2831.00 3018.10 83.80 55 o
-11 -4 3 164.75 336.80 41.70 55 o
-4 -1 3 5829.60 6021.90 81.80 55 o
1 1 3 18078.00 19257.70 119.60 55 o
9 4 3 1381.00 1311.20 46.50 55 o
-9 -3 4 819.83 675.80 45.20 55 o
-2 0 4 7581.70 8431.50 86.20 55 o
3 2 4 7280.70 7097.60 79.00 55 o
-5 -1 5 1970.90 2889.30 63.40 55 o
0 1 5 13130.00 13761.50 88.80 55 o
8 4 5 585.40 784.20 43.10 55 o
2 2 6 4351.60 5668.50 68.70 55 o
-8 -2 7 67.92 237.80 38.40 55 o
-1 1 7 409.17 1001.60 50.80 55 o
7 4 7 671.67 567.30 39.80 55 o
-6 -1 8 385.10 285.60 39.00 55 o
4 3 8 250.04 199.20 40.40 55 o
-4 0 9 405.66 438.80 38.90 55 o
1 2 9 211.69 443.80 39.90 55 o
-1 -3 -9 68.92 181.70 40.00 56 o
4 -1 -9 479.97 311.70 38.50 56 o
-2 -3 -8 234.19 334.10 43.00 56 o
6 0 -8 1032.00 735.60 41.30 56 o
-5 -4 -7 849.09 785.90 44.30 56 o
8 1 -7 488.47 588.10 40.20 56 o
-8 -5 -6 144.54 205.10 40.00 56 o
-1 -2 -6 477.76 565.20 58.50 56 o
7 1 -6 950.52 624.50 43.90 56 o
-4 -3 -5 1880.70 3026.50 64.90 56 o
1 -1 -5 1503.00 1338.70 65.40 56 o
6 1 -5 3959.50 4088.50 60.70 56 o
9 2 -5 2153.70 1338.30 43.60 56 o
-7 -4 -4 577.28 556.70 49.70 56 o
8 2 -4 396.97 463.40 46.20 56 o
11 3 -4 581.77 614.10 39.30 56 o
-10 -5 -3 903.40 843.00 43.00 56 o
-3 -2 -3 16315.00 17470.10 103.60 56 o
2 0 -3 8039.80 10171.00 103.10 56 o
10 3 -3 303.83 257.70 41.00 56 o
-6 -3 -2 661.80 700.60 63.50 56 o
4 1 -2 1603.00 1534.00 83.80 56 o
-9 -4 -1 1412.60 1300.10 50.10 56 o
6 2 -1 4130.00 4153.50 73.20 56 o
-12 -5 0 44.32 75.10 38.50 56 <
-5 -2 0 1045.20 1388.10 79.10 56 o
8 3 0 1084.30 1046.40 57.30 56 o
11 4 0 77.94 158.50 40.00 56 o
-10 -4 1 493.82 331.10 45.40 56 o
-8 -3 1 1736.90 2235.60 62.20 56 o
10 4 1 147.78 225.10 42.80 56 o
-6 -2 2 3404.30 3432.00 71.20 56 o
4 2 2 2415.40 3074.30 84.20 56 o
-9 -3 3 352.94 528.90 47.70 56 o
6 3 3 131.34 291.30 60.70 56 o
9 4 3 395.22 767.90 45.20 56 o
8 4 4 661.43 580.60 44.90 56 o
-10 -3 5 66.85 142.20 39.20 56 o
5 3 5 2218.80 1740.70 57.80 56 o
-8 -2 6 502.73 477.80 41.80 56 o
-6 -1 6 792.16 551.50 46.30 56 o
-1 1 6 500.93 779.80 60.10 56 o
7 4 6 760.47 527.80 42.30 56 o
-4 0 7 1166.70 901.80 46.90 56 o
1 2 7 1909.40 1404.40 51.00 56 o
-7 -1 8 478.72 363.00 38.20 56 o
-2 1 8 492.31 270.10 42.60 56 o
3 3 8 1479.60 1335.00 44.70 56 o
6 4 8 160.05 262.10 38.20 56 o
-3 -4 -9 939.64 712.30 41.10 57 o
2 -2 -9 146.91 185.20 40.20 57 o
4 -1 -8 254.32 164.40 41.50 57 o
-7 -5 -7 466.00 485.70 40.30 57 o
-2 -3 -7 2150.10 1936.30 52.60 57 o
3 -1 -7 336.30 548.20 48.00 57 o
-3 -3 -6 2971.70 3685.50 62.20 57 o
2 -1 -6 195.92 633.20 59.00 57 o
-6 -4 -5 593.61 671.50 49.40 57 o
4 0 -5 1821.50 1797.10 63.50 57 o
-7 -4 -4 948.72 761.80 50.00 57 o
-2 -2 -4 12725.00 11707.40 90.20 57 o
-10 -5 -3 1524.70 967.10 43.50 57 o
5 1 -3 2321.90 2840.50 69.70 57 o
-6 -3 -2 935.61 988.10 63.90 57 o
7 2 -2 3440.30 3625.40 67.30 57 o
-9 -4 -1 547.35 1025.90 49.10 57 o
6 2 -1 3358.00 3487.80 71.50 57 o
9 3 -1 538.26 1102.80 50.40 57 o
12 4 -1 523.91 789.00 39.80 57 o
-12 -5 0 83.53 90.80 38.20 57 <
-5 -2 0 371.87 717.40 77.10 57 o
8 3 0 148.86 421.30 55.90 57 o
11 4 0 347.33 462.90 41.10 57 o
-8 -3 1 1644.20 1153.20 59.50 57 o
10 4 1 475.93 327.30 43.00 57 o
-11 -4 2 348.45 504.00 44.00 57 o
-7 -2 3 3717.30 3616.50 66.00 57 o
-2 0 3 7411.70 7891.00 100.60 57 o
6 3 3 332.47 420.30 61.10 57 o
-10 -3 4 224.95 366.40 41.70 57 o
-5 -1 4 3136.30 3512.50 68.10 57 o
5 3 4 8573.30 7267.20 74.90 57 o
8 4 4 679.70 597.70 44.90 57 o
-8 -2 5 350.07 463.50 44.60 57 o
10 5 5 319.93 263.10 38.00 57 o
-4 0 6 8693.90 7332.30 68.40 57 o
4 3 6 500.85 425.80 50.10 57 o
-7 -1 7 76.76 78.30 39.30 57 <
-2 1 7 2413.20 2720.60 54.10 57 o
6 4 7 397.83 441.80 41.00 57 o
0 2 8 566.77 885.20 44.30 57 o
-3 1 9 577.75 592.30 39.70 57 o
2 3 9 482.28 289.20 39.30 57 o
0 -3 -9 1237.10 1434.80 44.50 58 o
3 -2 -9 1250.50 1510.00 44.20 58 o
-3 -4 -8 406.83 423.60 42.90 58 o
2 -2 -8 2415.30 2222.30 50.70 58 o
-4 -4 -7 219.80 417.90 45.10 58 o
1 -2 -7 4321.40 4550.30 60.70 58 o
6 0 -7 179.27 456.70 42.40 58 o
-5 -4 -6 1774.20 1177.70 49.10 58 o
0 -2 -6 7108.80 8975.00 77.90 58 o
8 1 -6 335.10 226.50 40.80 58 o
-8 -5 -5 402.01 493.90 43.40 58 o
-6 -4 -5 1184.20 805.10 50.00 58 o
-1 -2 -5 14830.00 13845.10 89.50 58 o
7 1 -5 80.54 273.10 46.10 58 o
10 2 -5 279.92 166.80 39.00 58 o
-9 -5 -4 1130.30 1082.20 45.00 58 o
6 1 -4 984.99 1098.80 59.90 58 o
9 2 -4 286.88 513.50 43.00 58 o
-5 -3 -3 6742.20 7381.50 77.50 58 o
8 2 -3 1575.50 1485.50 52.80 58 o
11 3 -3 800.06 465.60 39.70 58 o
-6 -3 -2 724.79 1194.40 64.80 58 o
-1 -1 -2 30406.00 30246.70 151.60 58 o
7 2 -2 2651.10 2795.00 65.60 58 o
10 3 -2 338.22 267.80 42.10 58 o
-9 -4 -1 1444.20 1160.40 49.90 58 o
9 3 -1 440.56 480.30 48.30 58 o
12 4 -1 225.96 340.50 37.50 58 o
-12 -5 0 53.87 124.80 38.30 58 o
-5 -2 0 427.96 1045.60 78.40 58 o
8 3 0 956.13 963.70 56.70 58 o
11 4 0 106.71 269.60 39.70 58 o
-8 -3 1 1268.80 1123.60 59.60 58 o
-11 -4 2 783.93 627.50 44.70 58 o
-4 -1 2 535.83 1391.70 84.70 58 o
1 1 2 33424.00 30490.20 151.80 58 o
-7 -2 3 2983.10 3562.60 65.90 58 o
3 2 3 17722.00 17573.10 103.90 58 o
-10 -3 4 210.65 214.50 40.80 58 o
5 3 4 5803.90 5110.10 70.70 58 o
-6 -1 5 3904.50 3723.70 60.40 58 o
-1 1 5 815.37 1192.80 65.60 58 o
4 3 5 3663.90 3056.00 64.40 58 o
7 4 5 974.42 1124.30 46.60 58 o
10 5 5 375.19 340.00 37.40 58 o
-9 -2 6 169.62 238.00 39.80 58 o
6 4 6 500.22 460.80 43.90 58 o
9 5 6 557.20 214.80 37.80 58 o
-3 1 8 252.99 342.30 41.90 58 o
2 3 8 284.28 321.00 41.50 58 o
5 4 8 270.39 228.50 38.40 58 o
-1 2 9 353.99 585.80 40.30 58 o
1 -3 -9 188.66 292.20 40.50 59 o
-5 -5 -8 404.45 664.90 41.10 59 o
-6 -5 -7 508.20 494.60 41.50 59 o
-1 -3 -7 152.88 458.20 49.30 59 o
4 -1 -7 2116.80 1771.60 50.50 59 o
-7 -5 -6 516.92 356.20 41.70 59 o
-2 -3 -6 846.66 812.90 57.20 59 o
3 -1 -6 3005.10 2784.20 62.40 59 o
6 0 -6 1513.60 1549.10 49.90 59 o
9 1 -6 473.60 367.50 40.40 59 o
-8 -5 -5 1116.60 664.50 43.10 59 o
-3 -3 -5 2698.10 2880.00 67.20 59 o
2 -1 -5 10458.00 10577.20 83.70 59 o
-4 -3 -4 2373.10 1294.50 64.60 59 o
1 -1 -4 8241.30 7265.90 87.80 59 o
-5 -3 -3 4557.60 5785.70 73.80 59 o
-8 -4 -2 1072.50 1583.50 54.00 59 o
-9 -4 -1 1063.50 923.00 48.70 59 o
12 4 -1 397.41 397.00 37.90 59 o
-12 -5 0 66.35 125.00 37.80 59 o
-10 -4 0 242.37 408.10 44.20 59 o
-5 -2 0 1435.00 1178.30 78.00 59 o
11 4 0 444.08 343.40 39.80 59 o
-6 -2 1 2543.60 3106.60 72.10 59 o
-9 -3 2 1576.50 1469.60 53.00 59 o
9 4 2 187.77 374.60 45.10 59 o
-10 -3 3 354.59 253.60 44.10 59 o
-5 -1 3 2728.60 1970.60 68.50 59 o
0 1 3 42028.00 40600.00 143.50 59 o
11 5 3 144.23 307.10 37.50 59 o
-9 -2 5 1753.00 1770.00 46.50 59 o
-4 0 5 2260.50 2390.00 64.60 59 o
1 2 5 8799.10 9791.30 82.40 59 o
3 3 6 1591.00 2543.90 58.60 59 o
-8 -1 7 1161.50 953.10 41.30 59 o
-3 1 7 361.23 595.20 47.00 59 o
2 3 7 1916.50 1835.00 50.50 59 o
5 4 7 494.90 437.40 42.50 59 o
-4 1 8 220.95 345.20 41.70 59 o
4 4 8 529.01 589.60 41.30 59 o
-2 2 9 321.61 245.40 39.40 59 o
-1 -4 -9 298.20 397.60 40.10 60 o
4 -2 -9 227.41 386.00 39.00 60 o
-2 -4 -8 319.39 331.60 42.00 60 o
3 -2 -8 421.72 265.70 42.60 60 o
6 -1 -8 304.01 223.70 39.80 60 o
2 -2 -7 355.87 256.00 48.20 60 o
9 1 -6 296.59 229.50 39.10 60 o
8 1 -5 1103.90 1332.20 47.10 60 o
4 0 -4 16274.00 17818.50 95.60 60 o
7 1 -4 1686.60 1609.90 56.50 60 o
10 2 -4 788.74 543.90 41.90 60 o
-8 -4 -2 1357.30 1515.50 53.10 60 o
2 0 -2 49256.00 44402.20 156.10 60 o
-9 -4 -1 1434.20 1356.80 50.20 60 o
-12 -5 0 50.55 174.30 37.90 60 o
-10 -4 0 298.25 350.40 44.20 60 o
-6 -2 1 4651.20 3786.10 73.90 60 o
-7 -2 2 3538.30 3794.50 69.60 60 o
-10 -3 3 303.62 291.20 43.70 60 o
11 5 3 620.13 311.20 38.10 60 o
-11 -3 4 366.75 489.70 40.70 60 o
-6 -1 4 2221.20 1811.00 62.80 60 o
-1 1 4 3214.50 4478.60 83.80 60 o
10 5 4 216.15 387.20 38.80 60 o
-7 -1 5 629.65 691.70 48.60 60 o
0 2 6 7387.10 6690.30 72.90 60 o
-6 0 7 511.49 560.80 43.50 60 o
-1 2 7 1948.90 2008.70 54.30 60 o
2 3 7 2815.70 3192.90 55.50 60 o
-4 1 8 188.12 349.90 42.10 60 o
1 3 8 2862.90 2697.10 50.60 60 o
4 4 8 504.76 701.30 42.30 60 o
0 3 9 439.21 632.60 41.60 60 o
3 4 9 306.31 223.00 38.20 60 o
-4 -5 -8 331.77 491.20 40.80 61 o
1 -3 -8 1832.50 1470.40 46.90 61 o
4 -2 -8 779.13 796.30 43.80 61 o
-5 -5 -7 219.81 415.20 42.00 61 o
0 -3 -7 172.97 396.30 48.10 61 o
8 0 -7 828.58 286.00 40.50 61 o
4 -1 -6 433.52 593.60 53.40 61 o
10 1 -6 230.57 184.30 37.80 61 o
-5 -4 -5 1315.80 1194.20 53.40 61 o
-6 -4 -4 72.82 124.30 53.40 61 <
-1 -2 -4 5148.70 6162.80 81.50 61 o
10 2 -4 779.92 641.90 42.90 61 o
-7 -4 -3 3483.40 4004.80 61.90 61 o
-2 -2 -3 1149.20 1370.90 84.20 61 o
6 1 -3 3955.30 6019.80 74.30 61 o
9 2 -3 2067.60 1825.40 50.10 61 o
-8 -4 -2 871.55 1140.60 52.60 61 o
-3 -2 -2 6741.70 6524.90 99.20 61 o
5 1 -2 2838.60 2148.40 76.10 61 o
-9 -4 -1 354.64 721.60 48.30 61 o
-4 -2 -1 13995.00 13179.70 106.10 61 o
-12 -5 0 205.91 55.00 38.70 61 <
-10 -4 0 157.66 92.00 43.70 61 <
-5 -2 0 1334.90 1696.30 79.20 61 o
-11 -4 1 740.70 654.80 43.40 61 o
-6 -2 1 3921.50 4089.20 74.40 61 o
-7 -2 2 2965.30 3487.50 69.00 61 o
-2 0 2 62190.00 45745.50 157.40 61 o
6 3 2 1058.70 1346.30 64.00 61 o
9 4 2 739.20 505.90 45.90 61 o
-8 -2 3 3821.50 3415.20 59.80 61 o
5 3 3 4472.80 5676.20 73.20 61 o
8 4 3 2966.90 2813.30 53.90 61 o
11 5 3 284.82 314.00 37.80 61 o
-11 -3 4 439.31 541.20 41.00 61 o
-4 0 4 19296.00 17484.40 95.30 61 o
4 3 4 1623.30 2011.10 65.40 61 o
7 4 4 817.58 700.60 48.50 61 o
10 5 4 256.62 196.80 38.50 61 o
3 3 5 765.11 1222.00 62.10 61 o
6 4 5 545.38 550.70 47.30 61 o
9 5 5 157.72 334.00 38.70 61 o
-8 -1 6 482.66 439.20 41.90 61 o
-3 1 6 3933.80 3267.20 62.90 61 o
2 3 6 332.30 268.00 54.00 61 o
5 4 6 483.39 671.80 46.00 61 o
8 5 6 122.75 199.60 38.10 61 o
-4 1 7 1614.80 2311.10 51.00 61 o
1 3 7 254.07 300.80 47.10 61 o
4 4 7 329.24 484.80 43.40 61 o
7 5 7 595.54 388.50 38.60 61 o
-5 1 8 674.44 584.20 41.50 61 o
3 4 8 618.99 633.40 41.60 61 o
-3 2 9 710.18 792.50 41.10 61 o
2 4 9 336.71 285.10 38.60 61 o
3 -3 -9 111.27 115.00 38.90 62 <
-1 -4 -8 129.87 171.80 42.20 62 o
7 -1 -8 802.99 515.80 40.40 62 o
-2 -4 -7 1399.20 1132.50 48.60 62 o
3 -2 -7 1392.90 1283.80 49.70 62 o
6 -1 -7 1224.70 1694.10 47.10 62 o
-8 -6 -6 397.12 582.40 41.10 62 o
-6 -5 -6 363.69 442.00 43.80 62 o
2 -2 -6 4143.50 4515.80 67.00 62 o
-7 -5 -5 723.04 682.10 45.20 62 o
-2 -3 -5 1831.50 1508.70 65.30 62 o
6 0 -5 679.83 975.30 53.20 62 o
9 1 -5 1263.30 1108.40 44.10 62 o
-8 -5 -4 242.32 337.60 44.30 62 o
2 -1 -4 1911.70 2070.90 74.50 62 o
-9 -5 -3 1122.50 995.30 45.20 62 o
-8 -4 -2 715.17 1065.30 52.20 62 o
-3 -2 -2 8098.70 7984.60 101.20 62 o
5 1 -2 2306.80 1658.50 74.20 62 o
8 2 -2 2468.20 2695.20 61.00 62 o
11 3 -2 1510.80 1211.70 43.50 62 o
-9 -4 -1 1186.50 1298.10 50.40 62 o
-4 -2 -1 12553.00 11478.30 103.80 62 o
-12 -5 0 116.04 2.30 38.50 62 <
-10 -4 0 279.97 518.90 44.80 62 o
-11 -4 1 911.18 546.60 43.50 62 o
-12 -4 2 186.23 182.80 40.60 62 o
6 3 2 1147.40 1482.40 64.90 62 o
9 4 2 565.13 495.80 45.30 62 o
-8 -2 3 3098.80 3073.60 59.40 62 o
2 2 3 1219.40 1934.90 86.80 62 o
5 3 3 4386.60 4828.10 72.10 62 o
11 5 3 753.73 438.90 38.20 62 o
-9 -2 4 150.47 317.00 44.00 62 o
1 2 4 8861.50 8589.00 86.30 62 o
-10 -2 5 172.80 343.40 40.50 62 o
-6 0 6 1423.00 1637.80 50.10 62 o
-1 2 6 966.78 986.10 59.30 62 o
-2 2 7 336.89 252.80 46.90 62 o
6 5 7 849.37 828.50 41.30 62 o
-3 2 8 246.91 268.80 41.80 62 o
5 5 8 533.22 369.80 38.40 62 o
-4 2 9 171.10 318.80 38.10 62 o
-1 3 9 109.93 189.40 38.50 62 o
1 -4 -9 177.25 247.20 39.40 63 o
-3 -5 -8 409.71 488.10 42.10 63 o
5 -2 -8 413.27 370.40 41.50 63 o
1 -3 -7 825.22 697.20 49.20 63 o
-8 -6 -6 131.19 105.90 39.30 63 <
-3 -4 -6 1158.00 1264.80 53.70 63 o
5 -1 -6 2472.00 2560.30 55.50 63 o
8 0 -6 639.11 589.00 42.70 63 o
-9 -6 -5 90.17 164.90 39.80 63 o
1 -2 -5 9805.50 11015.70 84.90 63 o
-8 -5 -4 266.69 490.10 45.10 63 o
-3 -3 -4 13411.00 14054.80 90.80 63 o
8 1 -4 231.09 312.40 47.70 63 o
11 2 -4 1246.90 728.20 40.20 63 o
-9 -5 -3 286.43 345.10 43.50 63 o
1 -1 -3 18811.00 16447.40 116.30 63 o
-8 -4 -2 984.08 1267.50 53.70 63 o
8 2 -2 3391.30 3401.50 62.50 63 o
11 3 -2 1133.80 1289.70 43.50 63 o
-9 -4 -1 945.23 1145.60 50.20 63 o
-4 -2 -1 11687.00 11282.00 104.70 63 o
4 1 -1 34325.00 30393.30 131.10 63 o
7 2 -1 7240.70 4913.70 72.50 63 o
10 3 -1 1254.80 1221.50 47.00 63 o
-10 -4 0 195.23 140.70 44.20 63 o
-11 -4 1 314.86 423.00 43.60 63 o
-12 -4 2 211.29 152.50 41.00 63 o
-10 -3 2 200.07 294.60 47.00 63 o
-5 -1 2 3408.30 3403.80 79.80 63 o
3 2 2 4728.00 5900.40 100.90 63 o
6 3 2 1242.80 1363.60 65.50 63 o
9 4 2 646.64 670.80 46.40 63 o
-11 -3 3 777.13 496.20 42.50 63 o
-6 -1 3 3672.60 3744.10 70.80 63 o
2 2 3 2247.40 1920.60 88.10 63 o
11 5 3 348.91 315.40 38.50 63 o
-7 -1 4 1159.20 1026.80 56.40 63 o
-2 1 4 1627.30 2695.50 77.00 63 o
-8 -1 5 1246.40 1545.20 48.30 63 o
-3 1 5 2859.90 3799.80 70.00 63 o
8 5 5 394.56 481.30 41.50 63 o
-9 -1 6 110.29 125.10 40.00 63 o
-4 1 6 578.76 823.50 53.70 63 o
4 4 6 802.49 817.30 48.80 63 o
7 5 6 646.83 555.00 41.30 63 o
-5 1 7 303.69 506.30 43.60 63 o
3 4 7 838.39 1033.50 45.50 63 o
6 5 7 371.14 218.40 39.70 63 o
-6 1 8 272.77 333.20 39.00 63 o
-1 3 8 899.73 1127.10 44.80 63 o
2 4 8 449.96 491.50 41.20 63 o
5 5 8 420.30 512.60 39.40 63 o
-2 3 9 577.06 417.20 39.20 63 o
1 4 9 484.84 382.10 38.80 63 o
-1 -5 -9 238.46 203.60 39.00 64 o
2 -4 -9 163.54 155.30 39.30 64 o
0 -4 -8 113.62 254.50 42.50 64 o
3 -3 -8 1255.80 919.80 44.20 64 o
6 -2 -8 645.83 392.20 40.20 64 o
-4 -5 -7 908.44 802.40 44.70 64 o
-1 -4 -7 2648.80 2512.80 52.80 64 o
7 -1 -7 109.99 83.90 40.90 64 <
-5 -5 -6 846.61 884.20 47.20 64 o
-9 -6 -5 230.51 240.60 40.00 64 o
-4 -4 -5 562.49 833.60 57.90 64 o
4 -1 -5 3741.60 3275.40 67.50 64 o
10 1 -5 731.79 679.50 40.30 64 o
-10 -6 -4 309.86 359.00 39.90 64 o
0 -2 -4 15104.00 16224.00 99.60 64 o
-9 -5 -3 539.28 415.10 43.90 64 o
-4 -3 -3 6919.30 7842.40 81.80 64 o
4 0 -3 3090.40 3021.90 77.80 64 o
7 1 -3 1222.50 1497.40 62.20 64 o
10 2 -3 157.85 225.80 42.20 64 o
-10 -5 -2 89.39 124.40 41.50 64 <
-8 -4 -2 1641.20 1777.60 55.00 64 o
-9 -4 -1 1313.50 739.30 48.90 64 o
-4 -2 -1 11540.00 11306.90 104.80 64 o
7 2 -1 3192.30 3476.40 70.40 64 o
10 3 -1 750.05 962.20 46.10 64 o
-10 -4 0 375.67 282.90 44.40 64 o
12 4 0 829.42 552.50 39.90 64 o
-9 -3 1 892.65 1051.40 52.50 64 o
-4 -1 1 32965.00 32544.60 133.10 64 o
-10 -3 2 181.04 212.00 46.00 64 o
-5 -1 2 3131.40 3139.70 78.90 64 o
3 2 2 3762.60 5535.60 100.30 64 o
6 3 2 970.17 1393.50 65.80 64 o
9 4 2 639.53 870.90 47.70 64 o
-11 -3 3 551.91 438.40 42.40 64 o
-1 1 3 23760.00 17727.60 118.30 64 o
-10 -2 4 753.74 606.10 43.30 64 o
6 4 4 1382.20 1365.40 57.00 64 o
9 5 4 378.78 573.40 41.80 64 o
-6 0 5 254.68 340.20 52.60 64 o
2 3 5 2213.80 2482.90 67.60 64 o
5 4 5 2874.10 3084.80 59.00 64 o
8 5 5 481.72 499.50 41.80 64 o
-2 2 6 5297.30 5157.20 68.50 64 o
1 3 6 2623.00 3789.00 65.10 64 o
-8 0 7 420.93 282.50 39.20 64 o
-3 2 7 1660.40 1201.10 49.00 64 o
-4 2 8 272.87 486.80 41.80 64 o
4 5 8 282.56 237.10 39.60 64 o
-2 -5 -8 483.12 491.20 42.00 65 o
1 -4 -8 241.44 282.90 42.30 65 o
-6 -6 -7 291.96 106.00 39.70 65 <
-1 -4 -7 2644.60 2383.50 52.90 65 o
2 -3 -7 666.21 866.10 48.80 65 o
5 -2 -7 705.09 881.70 45.00 65 o
8 -1 -7 398.29 433.20 40.30 65 o
-5 -5 -6 421.14 591.00 45.80 65 o
3 -2 -6 2828.50 3022.70 61.60 65 o
6 -1 -6 746.10 613.60 47.00 65 o
-1 -3 -5 904.43 1327.10 65.70 65 o
-10 -6 -4 366.07 404.50 39.80 65 o
-5 -4 -4 4097.60 4095.50 67.80 65 o
3 -1 -4 4723.50 5145.00 77.10 65 o
6 0 -4 1531.30 1766.90 62.70 65 o
9 1 -4 500.70 684.20 44.30 65 o
-9 -5 -3 362.93 363.40 43.30 65 o
-4 -3 -3 6881.10 8225.90 81.40 65 o
-10 -5 -2 124.47 118.80 41.50 65 <
9 2 -2 588.70 393.00 48.30 65 o
12 3 -2 475.84 308.80 38.70 65 o
-9 -4 -1 1308.20 1164.10 50.00 65 o
-4 -2 -1 10078.00 9504.10 102.10 65 o
-8 -3 0 2121.80 2321.20 62.50 65 o
12 4 0 669.35 424.80 39.50 65 o
-9 -3 1 586.41 721.30 52.30 65 o
-4 -1 1 33698.00 32125.80 132.90 65 o
9 4 2 679.20 837.50 47.30 65 o
-9 -2 3 1012.10 1155.60 49.70 65 o
-4 0 3 2194.40 2706.40 77.50 65 o
-10 -2 4 1769.40 1052.10 44.70 65 o
3 3 4 12318.00 12421.00 87.70 65 o
6 4 4 1459.60 1369.70 56.70 65 o
9 5 4 705.00 622.60 43.10 65 o
-9 -1 5 1016.50 952.00 44.50 65 o
-1 2 5 9503.40 9715.80 82.20 65 o
-10 -1 6 441.38 437.40 38.70 65 o
-5 1 6 2155.20 1591.30 52.20 65 o
6 5 6 573.58 449.90 43.40 65 o
-6 1 7 634.81 631.10 42.90 65 o
-1 3 7 331.32 181.40 46.80 65 o
2 4 7 448.70 477.50 45.90 65 o
5 5 7 237.57 205.60 41.10 65 o
-7 1 8 311.71 281.10 37.90 65 o
-2 3 8 207.46 249.00 41.60 65 o
1 4 8 386.34 277.00 41.90 65 o
-3 3 9 78.76 171.70 37.90 65 o
3 -4 -9 254.57 421.20 39.70 66 o
-4 -6 -8 168.88 290.10 39.90 66 o
4 -3 -8 140.89 143.10 40.90 66 o
7 -2 -8 177.58 206.40 38.30 66 o
-3 -5 -7 386.88 243.90 43.70 66 o
-7 -6 -6 155.95 156.40 40.40 66 o
1 -3 -6 1249.70 1919.30 60.40 66 o
10 0 -6 123.61 187.30 37.40 66 o
-6 -5 -5 994.05 1302.00 49.60 66 o
2 -2 -5 741.85 893.50 64.60 66 o
5 -1 -5 909.77 1395.80 59.30 66 o
8 0 -5 240.56 733.20 44.20 66 o
11 1 -5 383.35 237.20 37.20 66 o
-10 -6 -4 981.35 771.40 41.40 66 o
-1 -2 -3 9876.70 9186.90 102.30 66 o
11 2 -3 351.27 225.10 39.40 66 o
-10 -5 -2 112.40 161.40 41.50 66 o
-5 -3 -2 6701.90 6356.80 78.70 66 o
6 1 -2 1014.40 1527.60 67.90 66 o
9 2 -2 566.02 629.50 49.30 66 o
12 3 -2 506.68 494.00 38.30 66 o
-9 -4 -1 2196.30 1721.00 51.60 66 o
-4 -2 -1 7686.60 9658.20 102.50 66 o
-8 -3 0 162.61 524.80 57.50 66 o
9 3 0 2189.70 1950.30 53.40 66 o
12 4 0 339.23 462.60 39.30 66 o
-9 -3 1 544.55 667.50 52.00 66 o
-4 -1 1 35015.00 30587.70 132.00 66 o
-8 -2 2 1793.00 1649.20 60.30 66 o
4 3 3 6531.80 6676.60 80.40 66 o
7 4 3 2199.50 3012.20 60.10 66 o
10 5 3 1569.20 1298.00 44.30 66 o
-8 -1 4 590.71 719.00 49.00 66 o
0 2 4 15946.00 13673.60 95.80 66 o
9 5 4 943.11 1075.20 44.10 66 o
-4 1 5 2331.00 1995.60 64.30 66 o
4 4 5 1368.80 882.80 57.80 66 o
7 5 5 1196.20 1053.60 46.20 66 o
-8 0 6 382.89 355.20 41.50 66 o
3 4 6 426.31 581.50 51.60 66 o
6 5 6 105.50 235.80 42.80 66 o
-4 2 7 271.05 162.90 43.90 66 o
0 4 8 145.26 264.20 41.60 66 o
3 5 8 520.62 832.20 42.30 66 o
-1 4 9 357.47 588.20 40.20 66 o
1 -5 -9 92.96 133.80 38.50 67 o
-3 -6 -8 80.33 183.30 39.90 67 o
2 -4 -8 595.90 565.50 43.10 67 o
5 -3 -8 1365.60 861.40 42.60 67 o
-5 -6 -7 827.63 572.60 42.40 67 o
-2 -5 -7 865.99 1012.90 47.50 67 o
6 -2 -7 545.70 513.50 43.10 67 o
-4 -5 -6 259.33 473.40 47.80 67 o
-8 -6 -5 422.73 356.50 41.60 67 o
-3 -4 -5 5849.00 6147.20 72.10 67 o
-7 -5 -4 450.34 1317.30 50.40 67 o
1 -2 -4 8584.20 7795.50 85.90 67 o
10 1 -4 231.07 368.40 41.00 67 o
-6 -4 -3 699.89 1067.90 61.40 67 o
2 -1 -3 34621.00 26155.50 123.00 67 o
8 1 -3 1047.50 807.10 52.80 67 o
11 2 -3 347.86 122.40 39.60 67 o
-10 -5 -2 142.20 101.80 41.50 67 <
-5 -3 -2 4756.40 5211.70 76.80 67 o
-9 -4 -1 1433.30 1284.10 50.20 67 o
-4 -2 -1 10928.00 11395.90 105.20 67 o
11 3 -1 650.49 554.50 41.90 67 o
-8 -3 0 1541.40 997.60 59.20 67 o
6 2 0 7364.70 7433.50 81.50 67 o
9 3 0 1068.20 1277.80 51.60 67 o
12 4 0 1045.40 695.20 40.00 67 o
-12 -4 1 381.96 369.20 40.60 67 o
-7 -2 1 1498.90 1745.50 67.30 67 o
-11 -3 2 793.55 799.90 45.40 67 o
-7 -1 3 1032.80 1536.80 63.00 67 o
1 2 3 16052.00 16059.70 112.20 67 o
4 3 3 6468.40 7709.90 81.30 67 o
7 4 3 3968.00 3806.80 61.80 67 o
10 5 3 354.22 341.10 41.20 67 o
-11 -2 4 366.92 397.40 40.60 67 o
-6 0 4 2837.40 3810.70 67.50 67 o
-10 -1 5 846.55 719.70 42.20 67 o
-2 2 5 579.65 688.80 63.80 67 o
1 3 5 822.38 729.50 63.70 67 o
7 5 5 276.27 560.30 44.30 67 o
-6 1 6 724.97 622.90 46.40 67 o
5 5 6 554.80 616.10 45.30 67 o
-5 2 7 956.62 980.70 45.20 67 o
-2 3 7 1889.60 1363.00 49.20 67 o
1 4 7 2553.00 3485.00 54.60 67 o
-6 2 8 214.40 240.00 38.30 67 o
2 5 8 215.71 369.50 40.30 67 o
-2 4 9 314.47 289.00 37.90 67 o
1 5 9 183.35 235.70 37.90 67 o
-3 -6 -8 193.90 184.60 39.90 68 o
3 -4 -8 826.72 572.70 42.60 68 o
6 -3 -8 177.59 67.40 39.20 68 <
-2 -5 -7 1511.00 1779.70 49.60 68 o
1 -4 -7 2883.20 1868.40 51.60 68 o
4 -3 -7 645.02 825.10 46.20 68 o
7 -2 -7 1049.50 610.40 42.00 68 o
-6 -6 -6 1165.50 852.40 44.50 68 o
-1 -4 -6 1201.30 1482.90 57.30 68 o
2 -3 -6 223.33 443.80 55.10 68 o
5 -2 -6 354.90 568.80 49.10 68 o
8 -1 -6 276.73 557.40 42.50 68 o
-8 -6 -5 356.63 306.00 41.80 68 o
0 -3 -5 7471.40 8326.60 79.30 68 o
3 -2 -5 2740.00 2485.70 66.70 68 o
6 -1 -5 3365.50 2973.30 58.10 68 o
-7 -5 -4 598.70 796.40 48.50 68 o
4 -1 -4 2250.20 1900.10 67.60 68 o
10 1 -4 333.42 350.20 41.70 68 o
-6 -4 -3 2147.00 2237.60 64.20 68 o
-10 -5 -2 157.86 110.50 41.70 68 <
-5 -3 -2 4822.30 4674.80 76.10 68 o
-9 -4 -1 1602.40 973.80 49.80 68 o
11 3 -1 481.18 308.30 41.10 68 o
-8 -3 0 107.11 194.20 57.30 68 o
6 2 0 7740.70 6990.90 80.20 68 o
9 3 0 1458.80 1643.70 52.70 68 o
12 4 0 331.08 368.20 38.90 68 o
-12 -4 1 176.68 340.70 39.80 68 o
-7 -2 1 1335.00 1638.80 66.50 68 o
-11 -3 2 918.63 639.00 45.90 68 o
-6 -1 2 1051.30 1280.40 67.90 68 o
-10 -2 3 118.10 170.50 43.50 68 o
-2 1 3 17476.00 21352.90 117.30 68 o
7 4 3 2369.70 3208.30 60.20 68 o
10 5 3 374.12 405.00 41.40 68 o
-11 -2 4 365.06 350.80 41.00 68 o
-9 -1 4 572.23 569.50 45.00 68 o
2 3 4 2118.90 1925.60 70.40 68 o
5 4 4 2559.70 2434.40 63.80 68 o
8 5 4 970.70 622.10 44.50 68 o
-10 -1 5 302.11 457.20 41.30 68 o
-5 1 5 1428.20 1516.10 59.90 68 o
-1 3 6 3246.20 3853.20 64.90 68 o
2 4 6 723.04 1187.20 54.60 68 o
5 5 6 582.50 423.50 44.70 68 o
8 6 6 126.10 121.80 38.00 68 o
-8 1 7 454.58 404.80 39.40 68 o
-5 2 7 643.97 713.40 44.00 68 o
3 5 7 305.04 455.50 43.80 68 o
6 6 7 210.73 125.50 38.90 68 o
-4 3 8 108.15 126.70 39.70 68 o
-1 4 8 148.54 173.70 41.60 68 o
2 5 8 162.11 315.30 40.90 68 o
0 5 9 370.77 276.70 38.20 68 o
-2 -6 -8 335.37 458.60 41.90 69 o
1 -5 -8 330.95 642.60 43.00 69 o
-4 -6 -7 293.68 297.50 42.00 69 o
-1 -5 -7 550.03 446.60 46.10 69 o
-3 -5 -6 1334.10 1742.60 52.60 69 o
-5 -5 -5 655.92 604.80 50.60 69 o
-2 -4 -5 1498.30 1460.70 63.80 69 o
10 0 -5 268.51 292.20 39.80 69 o
-9 -6 -4 401.02 327.30 41.20 69 o
-4 -4 -4 3682.60 4421.40 70.80 69 o
11 1 -4 1163.00 872.50 41.60 69 o
-3 -3 -3 3179.40 3790.20 79.30 69 o
12 2 -3 156.52 226.50 37.80 69 o
-10 -5 -2 192.93 256.30 41.40 69 o
-2 -2 -2 20892.00 24584.70 130.80 69 o
10 2 -2 1114.10 805.70 45.90 69 o
-9 -4 -1 1117.00 1035.30 49.50 69 o
8 2 -1 2229.20 1658.10 61.50 69 o
11 3 -1 390.20 207.10 41.50 69 o
-8 -3 0 142.03 283.20 57.10 69 o
6 2 0 6246.70 6116.40 79.20 69 o
9 3 0 2341.30 2018.30 53.70 69 o
-12 -4 1 268.51 294.60 40.00 69 o
-7 -2 1 1390.00 1678.10 67.10 69 o
4 2 1 5679.80 6577.80 99.40 69 o
-11 -3 2 1432.30 834.50 46.40 69 o
-6 -1 2 568.71 970.40 67.30 69 o
-10 -2 3 108.62 143.40 43.50 69 o
10 5 3 809.08 811.10 42.50 69 o
-9 -1 4 243.90 162.40 44.10 69 o
-4 1 4 1376.90 1525.20 67.10 69 o
8 5 4 645.77 434.20 43.90 69 o
-8 0 5 721.41 451.90 44.90 69 o
0 3 5 8258.00 9296.00 80.90 69 o
3 4 5 5482.70 4587.40 68.90 69 o
6 5 5 1646.50 1139.30 48.10 69 o
9 6 5 335.80 332.90 38.60 69 o
-7 1 6 803.62 772.50 44.60 69 o
-6 2 7 183.64 129.30 40.80 69 o
-3 3 7 336.38 428.60 45.50 69 o
-2 4 8 515.80 658.60 42.50 69 o
1 5 8 893.16 759.70 42.80 69 o
4 6 8 580.48 425.60 38.80 69 o
-6 -7 -7 189.86 338.80 39.40 70 o
3 -3 -6 1958.30 2593.60 58.70 70 o
-7 -6 -5 1131.80 661.80 44.20 70 o
1 -3 -5 626.35 1262.90 65.60 70 o
4 -2 -5 1265.90 1385.50 62.60 70 o
-9 -6 -4 273.26 372.20 41.50 70 o
-1 -3 -4 5890.80 5521.50 79.00 70 o
2 -2 -4 7190.90 7093.20 82.30 70 o
5 -1 -4 5182.70 3638.50 69.50 70 o
3 -1 -3 3316.60 4500.50 87.50 70 o
6 0 -3 1984.20 1654.50 66.30 70 o
-10 -5 -2 165.42 143.70 41.40 70 o
-2 -2 -2 30631.00 29774.20 136.60 70 o
1 -1 -2 22020.00 23721.60 145.20 70 o
4 0 -2 25429.00 24735.50 118.80 70 o
7 1 -2 8177.60 7411.70 77.10 70 o
-9 -4 -1 478.95 573.70 48.50 70 o
-1 -1 -1 16946.00 13580.20 182.90 70 o
2 0 -1 19230.00 23533.40 164.00 70 o
5 1 -1 5277.10 5345.00 87.90 70 o
12 3 -1 597.33 573.90 40.50 70 o
-11 -4 0 304.80 275.90 41.60 70 o
3 1 0 37562.00 43690.90 159.60 70 o
6 2 0 4762.90 4831.60 76.90 70 o
-10 -3 1 406.89 499.40 46.50 70 o
1 1 1 14845.00 14805.90 187.10 70 o
4 2 1 9901.10 8955.80 102.80 70 o
-9 -2 2 726.84 466.20 50.80 70 o
-8 -1 3 940.20 1110.30 55.00 70 o
10 5 3 546.38 686.40 42.00 70 o
-10 -1 4 212.01 315.50 41.60 70 o
8 5 4 306.44 246.50 43.90 70 o
-6 1 5 1576.60 1805.20 55.90 70 o
6 5 5 560.25 843.60 48.30 70 o
9 6 5 306.83 241.70 38.60 70 o
-5 2 6 593.38 314.10 47.90 70 o
-2 3 6 371.31 338.40 55.30 70 o
1 4 6 394.82 852.50 56.00 70 o
4 5 6 274.93 383.80 46.70 70 o
7 6 6 175.11 191.50 39.70 70 o
-4 3 7 395.28 303.40 44.00 70 o
-1 4 7 2167.80 1898.20 50.90 70 o
2 5 7 758.12 1179.30 47.00 70 o
5 6 7 246.05 245.80 40.80 70 o
2 -5 -8 272.80 492.80 42.40 71 o
5 -4 -8 167.82 66.70 39.50 71 <
-3 -6 -7 1483.40 887.70 44.80 71 o
0 -5 -7 497.88 711.10 46.60 71 o
3 -4 -7 728.18 671.30 46.40 71 o
6 -3 -7 409.81 258.90 41.80 71 o
-5 -6 -6 482.71 294.80 44.00 71 o
-2 -5 -6 1179.10 884.40 51.40 71 o
1 -4 -6 718.29 506.40 54.80 71 o
7 -2 -6 196.03 250.70 43.40 71 o
10 -1 -6 488.13 208.50 38.70 71 o
-7 -6 -5 609.39 456.40 43.90 71 o
-4 -5 -5 1400.00 921.20 54.20 71 o
8 -1 -5 594.99 492.90 45.40 71 o
-6 -5 -4 1338.30 1150.40 53.70 71 o
-8 -5 -3 756.04 944.50 48.40 71 o
-10 -5 -2 340.04 475.70 42.90 71 o
-9 -4 -1 584.81 796.40 49.20 71 o
2 0 -1 16508.00 22605.30 163.90 71 o
5 1 -1 4817.40 5122.50 87.60 71 o
12 3 -1 320.93 485.30 40.00 71 o
-11 -4 0 344.67 281.00 42.20 71 o
3 1 0 42313.00 42678.70 159.90 71 o
6 2 0 5450.90 5171.00 76.80 71 o
-10 -3 1 378.06 414.90 47.20 71 o
-2 0 1 18467.00 17884.30 163.50 71 o
1 1 1 20215.00 17423.70 189.20 71 o
4 2 1 6037.50 6763.50 100.00 71 o
-9 -2 2 633.53 580.10 52.30 71 o
-1 1 2 22269.00 21882.10 146.10 71 o
2 2 2 14794.00 20130.10 127.00 71 o
5 3 2 6313.60 5931.70 78.30 71 o
-11 -2 3 516.73 558.60 43.70 71 o
-3 1 3 3687.90 3876.00 87.80 71 o
3 3 3 3351.40 3532.70 79.30 71 o
6 4 3 566.46 1175.20 61.20 71 o
-10 -1 4 265.13 232.70 42.40 71 o
-2 2 4 5846.50 5928.00 80.60 71 o
1 3 4 9678.50 8425.40 84.20 71 o
4 4 4 4225.70 3479.90 68.60 71 o
-1 3 5 778.84 977.60 63.80 71 o
2 4 5 967.39 1109.30 62.50 71 o
-8 1 6 156.43 163.60 41.40 71 o
-7 2 7 386.83 371.40 40.50 71 o
-6 3 8 174.36 100.70 37.70 71 <
-3 -7 -8 101.65 198.20 39.00 72 o
0 -6 -8 731.61 495.40 42.30 72 o
3 -5 -8 572.50 435.30 41.70 72 o
6 -4 -8 45.40 90.30 37.90 72 <
-5 -7 -7 143.21 143.70 39.20 72 o
-2 -6 -7 261.50 327.00 43.60 72 o
7 -3 -7 293.93 260.50 40.70 72 o
-7 -7 -6 132.35 176.60 39.30 72 o
-1 -4 -5 4251.40 4827.80 72.00 72 o
2 -3 -5 1040.70 1192.40 64.40 72 o
5 -2 -5 883.22 1029.10 58.00 72 o
-3 -4 -4 1118.20 1967.60 66.40 72 o
6 -1 -4 1529.50 1229.10 61.80 72 o
-5 -4 -3 4187.80 4780.60 72.50 72 o
10 1 -3 652.51 694.80 44.40 72 o
-7 -4 -2 2647.80 3303.90 65.40 72 o
11 2 -2 391.34 306.90 41.30 72 o
-9 -4 -1 808.17 623.30 48.90 72 o
12 3 -1 862.49 716.50 40.80 72 o
-11 -4 0 1071.50 911.10 44.30 72 o
3 1 0 37965.00 40857.10 158.70 72 o
6 2 0 5890.20 6094.20 79.30 72 o
-10 -3 1 479.78 450.00 47.30 72 o
-2 0 1 18339.00 18376.50 164.70 72 o
4 2 1 8003.20 7030.20 101.10 72 o
7 3 1 4000.70 3617.00 69.40 72 o
-12 -3 2 144.52 54.40 41.10 72 <
-4 0 2 28109.00 25087.30 120.60 72 o
5 3 2 3849.90 4619.10 76.30 72 o
8 4 2 1447.90 933.70 52.30 72 o
-11 -2 3 332.17 347.10 42.60 72 o
-6 0 3 1627.00 2005.80 67.60 72 o
6 4 3 1349.20 1653.70 63.00 72 o
9 5 3 443.98 495.90 43.70 72 o
-8 0 4 3538.60 3302.60 57.60 72 o
-5 1 4 2519.60 2358.90 67.40 72 o
7 5 4 792.65 876.00 48.20 72 o
-7 1 5 1187.60 1068.20 50.10 72 o
-4 2 5 1186.10 1376.90 63.00 72 o
5 5 5 711.48 848.70 50.60 72 o
8 6 5 482.65 486.10 41.20 72 o
-6 2 6 1546.40 979.90 47.10 72 o
-3 3 6 1752.90 1608.90 55.90 72 o
3 5 6 1564.90 1287.00 50.60 72 o
6 6 6 647.14 563.60 42.90 72 o
-8 2 7 416.68 483.50 39.80 72 o
-5 3 7 258.78 273.30 41.90 72 o
-2 4 7 379.46 343.90 45.30 72 o
1 5 7 345.13 356.40 44.50 72 o
4 6 7 244.79 232.20 40.90 72 o
-4 4 8 361.94 449.40 40.00 72 o
-1 5 8 295.67 524.20 41.60 72 o
2 6 8 363.67 363.70 40.20 72 o
-2 -7 -8 131.03 148.60 39.30 73 o
1 -6 -8 408.26 439.20 41.50 73 o
4 -5 -8 147.93 60.00 39.90 73 <
-4 -6 -6 912.28 799.00 46.60 73 o
-1 -5 -6 1450.90 1641.80 54.30 73 o
2 -4 -6 545.71 717.70 53.30 73 o
5 -3 -6 2032.20 2175.40 52.30 73 o
8 -2 -6 504.90 511.00 42.20 73 o
-6 -6 -5 558.02 426.20 45.70 73 o
9 -1 -5 935.10 860.80 43.20 73 o
-8 -6 -4 1163.70 1176.90 46.90 73 o
3 -2 -4 3004.90 3673.60 73.00 73 o
-10 -6 -3 439.02 500.50 42.30 73 o
-5 -4 -3 6601.10 7266.50 77.50 73 o
-2 -3 -3 4512.50 3223.80 82.80 73 o
4 -1 -3 5793.00 5974.60 82.20 73 o
-7 -4 -2 2006.40 2459.50 64.10 73 o
8 1 -2 90.27 137.20 56.10 73 <
11 2 -2 218.75 233.80 40.60 73 o
-9 -4 -1 876.34 867.00 50.00 73 o
12 3 -1 1010.10 747.50 40.70 73 o
-11 -4 0 186.30 229.00 42.60 73 o
3 1 0 47135.00 45638.60 162.90 73 o
-5 -1 1 3405.00 4116.50 87.90 73 o
7 3 1 856.25 1282.30 64.10 73 o
-12 -3 2 92.24 119.00 41.60 73 <
-7 -1 2 7362.10 5662.70 75.60 73 o
8 4 2 354.89 456.10 50.80 73 o
-9 -1 3 847.73 583.50 49.60 73 o
9 5 3 250.78 314.40 42.50 73 o
-11 -1 4 355.54 474.20 41.90 73 o
-8 0 4 4209.00 4239.50 60.50 73 o
10 6 4 162.42 153.00 38.00 73 o
-10 0 5 159.67 291.70 41.20 73 o
8 6 5 332.14 608.40 41.60 73 o
-9 1 6 79.61 215.90 40.50 73 o
-1 4 6 729.14 702.50 54.10 73 o
2 5 6 836.56 977.40 51.00 73 o
-3 4 7 576.75 424.30 44.90 73 o
0 5 7 258.64 321.60 44.70 73 o
3 6 7 905.68 826.60 43.60 73 o
-5 4 8 158.92 95.00 38.70 73 <
-2 5 8 244.52 266.00 40.60 73 o
1 6 8 345.17 518.20 41.10 73 o
-1 -7 -8 181.72 161.20 40.00 74 o
5 -5 -8 485.90 440.80 39.80 74 o
-1 -6 -7 307.32 456.10 44.00 74 o
2 -5 -7 663.08 799.20 46.30 74 o
5 -4 -7 379.31 455.90 43.80 74 o
-6 -7 -6 53.67 146.50 40.60 74 o
-3 -6 -6 414.41 537.00 47.40 74 o
9 -2 -6 111.73 151.80 39.20 74 o
-8 -7 -5 720.32 706.10 42.50 74 o
-3 -5 -5 1958.10 1803.10 59.80 74 o
3 -3 -5 1037.50 1409.30 64.60 74 o
6 -2 -5 641.66 483.60 52.00 74 o
-8 -6 -4 427.79 266.40 43.10 74 o
-5 -5 -4 2612.40 3625.40 65.30 74 o
7 -1 -4 966.60 815.90 54.90 74 o
10 0 -4 245.63 289.40 41.80 74 o
-10 -6 -3 641.52 479.50 41.00 74 o
11 1 -3 614.72 500.30 41.70 74 o
-7 -4 -2 2507.00 3094.80 65.20 74 o
-4 -3 -2 3871.30 3582.50 81.30 74 o
8 1 -2 255.54 391.70 57.50 74 o
-9 -4 -1 624.78 725.30 49.30 74 o
9 2 -1 1515.50 1584.10 54.00 74 o
12 3 -1 1253.60 1173.90 42.60 74 o
-11 -4 0 688.09 515.60 42.70 74 o
3 1 0 50995.00 45621.20 164.10 74 o
-5 -1 1 4152.50 4537.90 87.60 74 o
7 3 1 2562.50 2586.60 67.70 74 o
-10 -2 2 485.22 640.20 48.10 74 o
-7 -1 2 2288.80 2657.00 69.20 74 o
8 4 2 2071.10 1077.60 52.90 74 o
11 5 2 348.46 477.90 40.00 74 o
-12 -2 3 207.94 171.80 39.90 74 o
-9 -1 3 773.74 630.90 49.70 74 o
9 5 3 381.78 351.70 43.00 74 o
-11 -1 4 956.19 795.50 42.80 74 o
-6 1 4 1921.30 1530.60 63.50 74 o
-3 2 4 2719.90 3745.10 73.80 74 o
3 4 4 2152.20 2031.30 67.50 74 o
6 5 4 918.54 738.70 52.10 74 o
10 6 4 193.82 99.10 38.60 74 <
-8 1 5 516.17 644.90 46.10 74 o
-5 2 5 1537.60 1359.10 59.10 74 o
4 5 5 1063.20 965.70 54.40 74 o
7 6 5 515.02 600.00 43.40 74 o
-10 1 6 260.09 210.40 38.50 74 o
-7 2 6 342.32 362.50 43.60 74 o
5 6 6 485.49 323.80 43.20 74 o
6 7 7 301.94 326.30 39.60 74 o
3 -6 -8 51.49 116.60 39.60 75 <
-3 -7 -7 165.93 179.80 41.30 75 o
3 -5 -7 143.49 146.60 43.80 75 o
6 -4 -7 313.56 168.00 41.40 75 o
-8 -7 -5 786.74 877.50 42.40 75 o
-5 -6 -5 1064.30 1085.00 49.80 75 o
7 -2 -5 530.53 567.90 47.60 75 o
-2 -4 -4 1823.10 2369.40 69.50 75 o
1 -3 -4 7153.30 7146.80 82.60 75 o
4 -2 -4 2491.60 2483.40 68.50 75 o
-10 -6 -3 733.99 395.80 41.20 75 o
-7 -5 -3 448.46 389.10 50.90 75 o
8 0 -3 1398.00 1633.60 56.50 75 o
-4 -3 -2 4487.00 3758.50 81.70 75 o
-1 -2 -2 20421.00 22350.30 137.20 75 o
2 -1 -2 5082.80 4590.90 115.70 75 o
12 2 -2 136.96 34.50 38.40 75 <
-9 -4 -1 674.18 613.70 48.70 75 o
9 2 -1 2428.00 2248.70 56.00 75 o
-11 -4 0 112.37 125.20 42.10 75 <
-3 -1 0 50976.00 45831.60 163.70 75 o
10 3 0 543.18 548.40 45.80 75 o
-8 -2 1 545.10 1009.30 62.70 75 o
7 3 1 841.15 1051.70 65.00 75 o
-10 -2 2 213.03 312.40 47.40 75 o
8 4 2 728.28 433.80 52.20 75 o
11 5 2 202.86 268.50 39.20 75 o
-12 -2 3 63.06 151.70 40.00 75 o
-4 1 3 3900.90 3940.20 80.30 75 o
2 3 3 6827.30 6885.80 91.30 75 o
5 4 3 5543.20 5173.90 73.90 75 o
6 5 4 719.09 619.10 51.80 75 o
-3 3 5 943.83 1133.20 63.50 75 o
7 6 5 292.59 407.40 43.20 75 o
-8 2 6 555.55 472.50 42.50 75 o
-5 3 6 1765.80 2139.00 52.50 75 o
-2 4 6 508.92 584.80 53.10 75 o
1 5 6 934.70 1036.20 52.70 75 o
4 6 6 625.29 759.60 46.40 75 o
-7 3 7 284.26 356.70 40.50 75 o
2 6 7 180.12 124.90 42.00 75 <
5 7 7 166.18 266.20 39.30 75 o
-5 -8 -7 397.40 340.80 39.60 76 o
7 -4 -7 273.86 381.90 40.60 76 o
-5 -7 -6 315.29 170.50 42.50 76 o
-2 -6 -6 1193.80 1246.90 50.70 76 o
1 -5 -6 1179.30 1005.50 53.30 76 o
4 -4 -6 504.64 589.80 49.00 76 o
7 -3 -6 1642.30 1603.90 48.00 76 o
-5 -6 -5 802.24 978.00 49.60 76 o
-2 -5 -5 1312.70 944.30 60.30 76 o
1 -4 -5 3515.60 3746.80 70.90 76 o
4 -3 -5 642.95 1084.70 61.00 76 o
11 -1 -5 148.71 181.90 37.70 76 o
8 -1 -4 508.23 407.20 48.60 76 o
-7 -5 -3 738.56 433.90 51.10 76 o
5 -1 -3 1617.70 1683.70 69.70 76 o
12 1 -3 688.48 604.10 40.10 76 o
9 1 -2 219.26 156.10 49.50 76 o
6 1 -1 13097.00 12844.90 92.30 76 o
-11 -4 0 66.62 111.20 41.50 76 <
-6 -2 0 4223.10 4942.20 78.80 76 o
-3 -1 0 50207.00 46316.80 165.10 76 o
10 3 0 439.83 431.50 45.60 76 o
-11 -3 1 599.08 370.60 43.80 76 o
-8 -2 1 319.18 454.30 61.40 76 o
7 3 1 712.45 838.50 64.80 76 o
-2 1 2 5645.10 6424.10 119.00 76 o
1 2 2 19279.00 17376.30 133.20 76 o
11 5 2 527.62 471.10 40.60 76 o
-10 -1 3 676.39 766.30 45.50 76 o
5 4 3 3549.00 3502.20 70.90 76 o
-4 2 4 3168.30 3206.70 70.80 76 o
-1 3 4 6827.50 7419.40 83.80 76 o
9 6 4 343.99 379.30 40.70 76 o
-9 1 5 856.78 566.50 43.30 76 o
-6 2 5 353.98 314.40 51.30 76 o
3 5 5 951.55 1437.00 59.20 76 o
4 6 6 858.71 722.70 46.20 76 o
7 7 6 77.12 113.00 38.80 76 <
-8 3 7 250.48 192.50 38.00 76 o
-5 4 7 286.44 439.80 42.40 76 o
-2 5 7 1023.10 764.10 45.50 76 o
1 6 7 271.68 326.60 43.40 76 o
-4 5 8 81.25 178.90 38.50 76 o
-1 6 8 883.70 944.80 42.10 76 o
2 7 8 417.70 219.20 39.00 76 o
1 -7 -8 142.33 210.60 39.30 77 o
4 -6 -8 307.78 217.30 39.10 77 o
-5 -8 -7 282.75 316.50 38.90 77 o
-2 -7 -7 124.26 243.60 42.00 77 o
1 -6 -7 182.52 320.60 43.00 77 o
8 -4 -7 79.33 43.80 38.00 77 <
8 -3 -6 221.61 106.10 41.10 77 <
-7 -7 -5 443.79 202.00 41.90 77 o
5 -3 -5 275.77 379.80 54.20 77 o
8 -2 -5 325.77 274.00 43.50 77 o
-7 -6 -4 291.65 252.50 45.20 77 o
5 -2 -4 686.51 1081.60 64.20 77 o
-7 -5 -3 343.97 624.40 52.10 77 o
-4 -4 -3 890.70 704.80 66.30 77 o
-1 -3 -3 4397.30 5181.00 92.00 77 o
2 -2 -3 1368.20 1543.80 88.10 77 o
9 1 -2 271.19 378.30 50.20 77 o
6 1 -1 12552.00 10915.30 89.40 77 o
10 2 -1 176.45 118.10 45.90 77 <
-9 -3 0 1463.80 1275.80 54.10 77 o
-6 -2 0 4206.40 4471.60 78.50 77 o
-3 -1 0 45435.00 44579.20 163.90 77 o
10 3 0 296.89 307.10 45.40 77 o
-11 -3 1 533.67 334.80 44.40 77 o
7 3 1 806.18 1220.60 65.40 77 o
11 4 1 756.43 698.70 42.20 77 o
-11 -2 2 239.32 322.40 44.60 77 o
-8 -1 2 126.53 233.70 59.10 77 o
11 5 2 53.04 165.80 39.20 77 o
8 5 3 601.04 739.60 47.40 77 o
-10 0 4 366.41 300.30 42.80 77 o
-7 1 4 1171.40 1055.90 57.00 77 o
2 4 4 4146.40 3991.60 73.40 77 o
9 6 4 383.20 563.70 41.90 77 o
6 6 5 1798.10 1375.10 48.30 77 o
-9 2 6 123.22 93.60 39.70 77 <
-6 3 6 193.92 245.30 44.80 77 o
-3 4 6 244.79 705.50 51.50 77 o
3 6 6 578.91 432.70 46.60 77 o
7 7 6 199.25 217.50 39.10 77 o
4 7 7 927.95 1056.30 43.40 77 o
-5 5 8 415.49 472.50 39.00 77 o
-2 6 8 215.60 444.60 40.80 77 o
1 7 8 273.78 209.40 39.30 77 o
2 -7 -8 330.67 202.90 39.10 78 o
-4 -8 -7 183.44 14.00 39.80 78 <
-1 -7 -7 143.92 220.50 42.10 78 o
2 -6 -7 84.26 215.10 42.90 78 o
-4 -7 -6 514.55 438.90 44.00 78 o
-1 -6 -6 424.45 514.00 49.00 78 o
2 -5 -6 533.49 307.30 50.50 78 o
9 -3 -6 118.02 288.40 40.00 78 o
-4 -6 -5 918.61 706.70 50.70 78 o
-1 -5 -5 787.42 1075.40 61.80 78 o
9 -2 -5 757.41 670.00 43.10 78 o
9 -1 -4 314.23 401.50 44.30 78 o
-9 -6 -3 132.13 224.90 43.00 78 o
6 -1 -3 3063.20 3191.60 70.50 78 o
-9 -5 -2 384.63 491.70 45.80 78 o
6 0 -2 3479.30 3686.40 74.40 78 o
10 1 -2 228.07 144.00 44.80 78 o
10 2 -1 195.10 193.60 45.10 78 o
-9 -3 0 1809.90 1779.90 55.70 78 o
-6 -2 0 4850.50 4994.20 79.50 78 o
-3 -1 0 44609.00 42543.80 163.30 78 o
10 3 0 226.70 387.00 45.00 78 o
7 3 1 523.57 740.60 64.80 78 o
11 4 1 368.49 523.80 41.50 78 o
-11 -2 2 108.23 143.20 44.00 78 o
4 3 2 2072.30 1767.70 80.10 78 o
11 5 2 187.26 331.20 39.50 78 o
-11 -1 3 310.99 328.40 42.30 78 o
-8 0 3 1165.90 1268.70 56.60 78 o
-5 1 3 963.04 837.80 68.70 78 o
1 3 3 2653.30 3141.40 90.00 78 o
8 5 3 162.81 205.20 46.80 78 o
5 5 4 3618.30 3098.20 64.20 78 o
-10 1 5 492.51 535.10 41.60 78 o
2 5 5 1340.70 1538.00 62.30 78 o
-7 3 6 1114.00 798.00 44.20 78 o
-4 4 6 669.00 515.30 48.70 78 o
-1 5 6 1326.50 1424.60 53.60 78 o
6 7 6 76.76 243.20 40.70 78 o
3 7 7 238.33 272.70 41.30 78 o
-3 6 8 52.07 66.20 38.40 78 <
3 -7 -8 175.84 96.70 39.70 79 <
-3 -8 -7 105.20 67.50 40.60 79 <
0 -7 -7 691.39 754.50 45.20 79 o
3 -6 -7 438.13 428.50 44.10 79 o
6 -5 -7 105.90 80.10 41.10 79 <
-6 -8 -6 286.23 421.80 40.90 79 o
3 -5 -6 1972.40 1607.70 54.00 79 o
6 -4 -6 687.38 788.60 46.80 79 o
3 -4 -5 3295.70 3863.80 69.80 79 o
6 -3 -5 342.94 697.10 52.10 79 o
10 -2 -5 297.19 124.80 40.20 79 o
-9 -7 -4 146.56 297.10 41.00 79 o
6 -2 -4 3538.90 2984.30 67.30 79 o
10 -1 -4 282.18 353.30 42.50 79 o
-9 -6 -3 284.66 141.90 42.80 79 o
3 -2 -3 6762.50 7501.90 91.90 79 o
10 0 -3 380.22 372.70 44.40 79 o
-9 -5 -2 264.65 357.70 45.50 79 o
3 -1 -2 5110.10 5357.30 107.60 79 o
10 1 -2 187.24 215.80 44.80 79 o
10 2 -1 203.06 218.90 45.00 79 o
-9 -3 0 1230.10 1072.30 52.90 79 o
-6 -2 0 3339.30 3297.40 76.60 79 o
7 2 0 4288.30 4038.90 72.70 79 o
-6 -1 1 12425.00 11093.50 90.80 79 o
7 3 1 757.09 1165.30 64.60 79 o
11 4 1 751.23 778.60 42.20 79 o
11 5 2 215.04 153.50 39.20 79 o
-11 -1 3 266.29 177.20 42.40 79 o
4 4 3 494.77 503.50 66.70 79 o
8 5 3 130.28 244.00 46.00 79 o
-8 1 4 366.20 374.60 48.70 79 o
-5 2 4 256.87 530.50 64.10 79 o
-2 3 4 1068.50 901.60 69.30 79 o
1 4 4 2162.10 2351.20 71.60 79 o
8 6 4 395.24 452.50 43.00 79 o
-8 2 5 246.61 189.70 43.70 79 o
-5 3 5 580.81 550.00 55.20 79 o
-2 4 5 822.37 853.40 62.70 79 o
5 6 5 1489.90 1278.40 49.50 79 o
2 6 6 1237.20 1502.20 49.90 79 o
5 7 6 201.62 159.00 41.70 79 o
-7 4 7 222.00 197.50 39.10 79 o
-4 5 7 93.82 197.00 41.40 79 o
-1 6 7 74.53 198.90 42.40 79 o
-4 6 8 202.17 214.20 38.10 79 o
4 -6 -7 123.24 152.60 41.90 80 o
7 -5 -7 173.20 214.70 40.00 80 o
7 -4 -6 383.79 538.60 43.70 80 o
-6 -7 -5 191.63 358.90 44.20 80 o
-3 -6 -5 1092.00 1223.30 55.80 80 o
7 -3 -5 991.48 674.50 47.90 80 o
-6 -6 -4 863.90 988.30 51.00 80 o
-3 -5 -4 1158.90 909.70 65.70 80 o
0 -4 -4 4950.30 5133.50 78.70 80 o
7 -2 -4 1937.10 1893.60 57.40 80 o
-9 -6 -3 273.32 357.80 43.50 80 o
-6 -5 -3 1202.30 1047.70 59.30 80 o
-3 -4 -3 4132.70 5207.30 80.30 80 o
0 -3 -3 5366.30 4399.50 94.30 80 o
10 0 -3 565.68 448.40 43.60 80 o
-9 -5 -2 414.11 578.40 45.90 80 o
-6 -4 -2 3241.00 2077.40 68.50 80 o
-3 -3 -2 7717.60 9021.50 101.40 80 o
0 -2 -2 28286.00 31660.20 151.40 80 o
10 1 -2 193.56 172.90 44.60 80 o
-6 -3 -1 3337.10 3688.00 74.90 80 o
0 -1 -1 17583.00 13162.20 212.90 80 o
-9 -3 0 1263.10 1312.70 54.60 80 o
-6 -2 0 4818.00 4035.80 78.70 80 o
7 2 0 4021.70 4131.40 72.50 80 o
-9 -2 1 215.89 331.70 54.00 80 o
-6 -1 1 9266.40 9212.00 88.40 80 o
7 3 1 455.14 866.70 64.60 80 o
11 4 1 184.65 320.20 41.20 80 o
-9 -1 2 788.62 853.40 54.00 80 o
-6 0 2 2246.10 2407.90 73.50 80 o
-3 1 2 6171.50 6249.90 110.00 80 o
7 4 2 1101.60 2027.20 63.30 80 o
11 5 2 296.68 200.30 38.80 80 o
-6 1 3 2462.30 3470.50 72.00 80 o
7 5 3 425.37 601.30 51.60 80 o
4 5 4 2296.60 1382.30 64.10 80 o
-11 1 5 129.76 137.60 38.50 80 o
1 5 5 948.49 1226.80 63.80 80 o
4 6 5 458.53 718.70 50.40 80 o
8 7 5 825.26 507.30 40.20 80 o
-8 3 6 201.69 118.00 41.30 80 <
-5 4 6 407.64 243.10 46.80 80 o
-2 5 6 543.67 522.10 51.10 80 o
1 6 6 326.50 342.80 48.40 80 o
-8 4 7 83.32 -0.30 37.70 80 <
-5 5 7 277.04 139.90 41.10 80 o
-2 6 7 78.69 139.30 42.10 80 o
5 8 7 279.82 236.20 38.20 80 o
-2 -8 -7 41.94 31.40 40.20 81 <
1 -7 -7 254.95 135.20 42.30 81 o
1 -6 -6 416.77 327.10 48.30 81 o
4 -5 -6 258.47 320.30 46.80 81 o
8 -4 -6 369.04 215.00 40.50 81 o
4 -4 -5 680.23 495.50 57.30 81 o
-9 -7 -4 103.51 261.70 40.30 81 o
-6 -6 -4 1297.30 1050.10 51.40 81 o
-3 -5 -4 1073.60 1200.60 65.80 81 o
7 -2 -4 1560.40 2222.30 57.30 81 o
11 -1 -4 408.14 341.50 39.40 81 o
-9 -6 -3 127.65 345.80 42.90 81 o
-6 -5 -3 710.04 949.20 58.60 81 o
-3 -4 -3 4017.20 4196.40 77.50 81 o
7 -1 -3 609.21 761.00 61.20 81 o
-9 -5 -2 446.52 442.10 45.30 81 o
-6 -4 -2 1107.90 818.80 65.00 81 o
-3 -3 -2 13205.00 10952.20 103.40 81 o
0 -2 -2 36604.00 41932.30 160.40 81 o
11 1 -2 662.73 535.10 42.40 81 o
0 -1 -1 10229.00 11532.00 205.70 81 o
7 1 -1 1420.20 919.30 65.60 81 o
11 2 -1 216.31 270.60 41.20 81 o
-12 -4 0 368.09 279.30 40.10 81 o
-9 -3 0 1186.10 905.30 53.10 81 o
7 2 0 3745.40 3766.10 71.10 81 o
11 3 0 887.38 601.70 42.50 81 o
-12 -3 1 424.09 436.80 41.90 81 o
-9 -2 1 353.25 439.60 54.10 81 o
0 1 1 11815.00 14354.80 219.40 81 o
7 3 1 677.73 738.90 63.60 81 o
11 4 1 338.45 476.30 41.30 81 o
-12 -2 2 110.95 113.30 41.80 81 <
-9 -1 2 495.08 494.30 52.30 81 o
0 2 2 29237.00 26447.30 147.90 81 o
7 4 2 2526.00 2384.60 63.70 81 o
11 5 2 242.04 239.30 39.20 81 o
-12 -1 3 432.70 274.10 40.40 81 o
-6 1 3 2188.50 2481.60 69.60 81 o
-3 2 3 6943.30 7750.60 92.50 81 o
7 5 3 541.81 312.90 51.20 81 o
-9 1 4 218.99 477.60 45.90 81 o
-6 2 4 2832.10 3163.80 66.70 81 o
-3 3 4 7104.80 6041.60 78.10 81 o
4 5 4 1557.30 1888.30 65.10 81 o
-9 2 5 809.32 553.30 43.20 81 o
-6 3 5 910.87 583.90 51.20 81 o
-3 4 5 3105.90 3210.50 67.20 81 o
4 6 5 371.11 349.20 50.30 81 o
8 7 5 590.73 606.00 40.80 81 o
-9 3 6 115.05 236.30 39.60 81 o
-6 4 6 559.47 550.90 44.80 81 o
1 6 6 354.96 500.40 49.10 81 o
4 7 6 387.88 174.80 43.10 81 o
1 7 7 138.00 234.40 42.40 81 o
5 8 7 366.17 373.10 39.40 81 o
-2 7 8 70.61 143.30 38.60 81 o
-1 -8 -7 278.96 210.90 41.00 82 o
6 -6 -7 183.90 121.40 38.90 82 o
-1 -7 -6 750.10 634.30 47.30 82 o
2 -6 -6 1067.90 739.80 49.20 82 o
5 -5 -6 539.01 429.50 45.40 82 o
9 -4 -6 46.14 -5.60 38.30 82 <
-8 -8 -5 132.67 175.20 38.50 82 o
-5 -7 -5 171.74 95.80 44.90 82 <
-2 -6 -5 404.47 613.70 55.20 82 o
5 -4 -5 1003.20 729.20 53.20 82 o
-8 -7 -4 324.67 359.40 42.10 82 o
-5 -6 -4 276.27 379.40 52.70 82 o
-2 -5 -4 1398.10 1238.70 66.60 82 o
1 -4 -4 2175.90 1920.50 70.30 82 o
8 -2 -4 270.99 180.10 46.40 82 o
4 -2 -3 863.21 805.60 72.50 82 o
8 -1 -3 608.34 491.40 52.70 82 o
12 0 -3 193.13 180.00 37.60 82 o
-6 -4 -2 1375.50 1641.00 66.70 82 o
4 -1 -2 619.89 792.50 87.50 82 o
11 1 -2 594.33 329.70 41.90 82 o
-6 -3 -1 1352.80 1208.70 69.80 82 o
-3 -2 -1 15392.00 15221.90 126.30 82 o
7 1 -1 1304.00 1063.50 66.60 82 o
11 2 -1 537.47 348.70 42.10 82 o
-12 -4 0 328.24 257.20 40.40 82 o
-9 -3 0 646.05 655.60 53.00 82 o
7 2 0 4119.90 3621.50 71.80 82 o
11 3 0 632.04 636.50 43.10 82 o
-12 -3 1 296.26 232.90 41.70 82 o
7 3 1 965.70 1535.20 65.90 82 o
11 4 1 275.88 356.90 41.60 82 o
-12 -2 2 194.72 208.40 42.40 82 o
3 3 2 7818.90 10025.10 103.80 82 o
7 4 2 972.93 1821.70 62.80 82 o
11 5 2 327.34 456.80 40.00 82 o
3 4 3 3639.90 3088.80 76.70 82 o
7 5 3 342.86 325.00 51.80 82 o
3 5 4 2498.70 2115.80 68.10 82 o
7 6 4 336.79 227.80 45.50 82 o
-7 3 5 600.88 806.30 48.70 82 o
3 6 5 425.96 540.40 53.00 82 o
7 7 5 93.94 271.10 41.00 82 o
-7 4 6 328.52 229.70 42.40 82 o
3 7 6 299.27 300.80 43.90 82 o
0 7 7 376.91 453.90 42.90 82 o
3 8 7 191.64 365.30 40.00 82 o
-3 -9 -7 87.21 138.40 39.30 83 o
3 -7 -7 114.70 214.90 41.90 83 o
7 -6 -7 118.40 -18.10 38.80 83 <
-4 -8 -6 165.77 279.80 42.20 83 o
-1 -7 -6 543.81 454.00 46.70 83 o
6 -5 -6 162.23 144.40 43.40 83 o
2 -5 -5 950.35 1105.40 61.30 83 o
-8 -7 -4 200.07 197.60 42.30 83 o
-5 -6 -4 206.93 432.00 53.50 83 o
-2 -5 -4 830.96 764.20 65.80 83 o
5 -3 -4 826.96 997.00 64.60 83 o
9 -2 -4 198.57 279.10 43.80 83 o
1 -3 -3 4546.20 4345.30 92.60 83 o
-9 -5 -2 490.90 420.40 45.70 83 o
-6 -4 -2 801.89 743.00 65.60 83 o
8 0 -2 2423.80 2108.90 62.40 83 o
12 1 -2 266.96 201.70 38.50 83 o
-6 -3 -1 2921.30 2250.40 72.00 83 o
-3 -2 -1 14146.00 14822.00 125.70 83 o
12 2 -1 327.76 157.10 39.40 83 o
-12 -4 0 331.74 263.60 40.40 83 o
11 3 0 619.56 524.00 42.50 83 o
7 3 1 1147.00 666.90 64.60 83 o
11 4 1 327.21 332.20 41.20 83 o
-10 -1 2 418.62 481.90 48.00 83 o
3 3 2 11177.00 12114.60 106.50 83 o
7 4 2 2535.60 2712.90 65.00 83 o
11 5 2 85.29 198.30 39.00 83 o
-10 0 3 806.82 388.20 45.90 83 o
-7 1 3 957.50 1277.70 63.50 83 o
-4 2 3 902.21 1120.80 73.30 83 o
3 4 3 4356.90 4417.10 78.90 83 o
7 5 3 652.63 535.90 51.80 83 o
-10 1 4 244.91 177.20 42.30 83 o
-7 2 4 1285.90 1576.50 57.40 83 o
-4 3 4 1396.10 1476.00 66.70 83 o
-1 4 4 2930.50 2409.20 71.90 83 o
3 5 4 1344.50 1681.50 66.70 83 o
-4 4 5 310.32 566.10 57.90 83 o
-1 5 5 903.76 958.10 61.80 83 o
-4 5 6 431.92 379.40 45.80 83 o
-1 6 6 392.01 299.00 47.60 83 o
3 7 6 357.06 482.10 44.50 83 o
-4 6 7 191.10 126.30 40.60 83 o
-1 7 7 172.36 157.60 41.60 83 o
3 8 7 583.30 618.30 41.20 83 o
-2 -9 -7 536.05 278.00 39.90 84 o
1 -8 -7 146.51 176.10 41.30 84 o
-3 -8 -6 38.66 32.60 42.30 84 <
4 -6 -6 448.46 516.50 46.20 84 o
7 -5 -6 377.73 141.00 41.80 84 o
-7 -8 -5 149.27 77.30 40.30 84 <
-4 -7 -5 376.83 518.70 47.70 84 o
3 -5 -5 710.98 772.00 58.60 84 o
-1 -5 -4 2651.00 2758.50 70.60 84 o
2 -4 -4 1768.90 1880.80 70.40 84 o
6 -3 -4 416.67 233.50 58.60 84 o
10 -2 -4 652.64 539.60 42.60 84 o
-8 -6 -3 113.12 124.40 44.20 84 <
-5 -5 -3 567.36 636.10 63.60 84 o
5 -2 -3 7547.00 7697.70 82.00 84 o
9 -1 -3 239.24 100.70 46.90 84 <
1 -2 -2 12438.00 12408.70 130.20 84 o
-6 -3 -1 529.62 562.70 69.10 84 o
-3 -2 -1 15953.00 17834.70 128.90 84 o
4 0 -1 7769.60 7523.70 110.30 84 o
8 1 -1 237.01 669.10 61.20 84 o
12 2 -1 38.50 196.00 38.90 84 o
-12 -4 0 353.00 260.00 40.60 84 o
12 3 0 160.64 158.90 39.30 84 o
-10 -2 1 130.25 170.80 48.60 84 o
-7 -1 1 675.67 675.50 68.70 84 o
3 2 1 17784.00 14787.90 126.60 84 o
7 3 1 815.03 859.90 65.60 84 o
11 4 1 593.85 349.20 41.70 84 o
-10 -1 2 240.42 358.30 47.80 84 o
-4 1 2 696.48 1142.20 89.40 84 o
11 5 2 193.59 125.50 39.50 84 o
-1 3 3 3181.60 3843.60 93.20 84 o
6 5 3 1195.80 1078.40 60.30 84 o
10 6 3 765.64 575.00 40.80 84 o
-11 1 4 317.63 215.20 40.70 84 o
-8 2 4 358.70 232.40 48.70 84 o
2 5 4 1525.90 1189.00 67.20 84 o
6 6 4 1459.60 1594.40 52.40 84 o
-8 3 5 97.26 388.20 44.10 84 o
-5 4 5 1185.50 1080.60 54.70 84 o
2 6 5 910.98 941.40 56.40 84 o
6 7 5 152.00 177.50 42.30 84 o
-8 4 6 231.91 299.20 40.70 84 o
-5 5 6 356.94 508.00 45.00 84 o
-2 6 6 719.17 947.10 49.10 84 o
2 7 6 126.39 185.20 44.90 84 o
-5 6 7 142.93 156.10 39.80 84 o
-2 7 7 62.79 201.40 41.10 84 o
-2 -9 -7 402.90 326.90 40.20 85 o
2 -8 -7 84.80 52.60 40.80 85 <
5 -7 -7 61.66 98.70 39.30 85 <
1 -7 -6 486.76 510.80 46.80 85 o
8 -5 -6 81.03 56.80 39.50 85 <
-3 -7 -5 274.92 374.20 49.00 85 o
7 -4 -5 789.10 608.70 47.00 85 o
-7 -7 -4 64.00 137.10 43.40 85 o
-4 -6 -4 1542.90 1370.70 59.50 85 o
-1 -5 -4 3013.40 3440.00 72.10 85 o
11 -2 -4 368.97 117.20 38.90 85 o
-8 -6 -3 317.78 334.70 45.00 85 o
-5 -5 -3 840.39 881.00 64.10 85 o
2 -3 -3 2725.10 2661.30 85.30 85 o
10 -1 -3 428.12 594.20 44.70 85 o
5 -1 -2 1431.20 1209.10 76.00 85 o
-6 -3 -1 588.59 581.50 67.60 85 o
8 1 -1 663.77 378.60 61.20 85 o
12 3 0 393.30 239.20 39.30 85 o
-10 -2 1 354.94 294.50 48.50 85 o
-7 -1 1 558.48 726.00 67.90 85 o
-4 0 1 8921.60 7458.70 110.20 85 o
3 2 1 14484.00 13774.60 124.80 85 o
7 3 1 839.85 885.70 65.20 85 o
11 4 1 248.08 238.70 41.00 85 o
-1 2 2 11065.00 12586.40 131.30 85 o
11 5 2 84.82 133.10 39.00 85 o
-8 1 3 1523.40 1303.10 57.00 85 o
-5 2 3 4064.40 4561.50 76.10 85 o
2 4 3 691.43 1207.80 76.30 85 o
6 5 3 1278.10 1060.70 59.70 85 o
10 6 3 862.04 729.70 41.30 85 o
-11 1 4 548.29 289.50 40.90 85 o
-5 3 4 1111.20 1688.40 66.00 85 o
-2 4 4 1629.80 1765.70 70.00 85 o
-9 3 5 282.41 272.70 41.80 85 o
-2 5 5 1959.20 1883.70 63.80 85 o
5 7 5 45.17 132.70 44.00 85 o
-9 4 6 50.24 115.00 38.20 85 o
-6 5 6 222.84 310.30 43.20 85 o
1 7 6 380.21 369.10 45.80 85 o
5 8 6 101.78 43.40 40.30 85 <
-6 6 7 71.25 187.60 38.50 85 o
-3 7 7 230.66 310.30 40.80 85 o
1 8 7 160.32 285.20 41.00 85 o
0 -9 -7 233.98 165.30 40.10 86 o
3 -8 -7 65.75 77.30 40.30 86 <
-1 -8 -6 209.80 283.50 44.20 86 o
2 -7 -6 74.07 147.90 45.20 86 o
6 -6 -6 249.58 205.60 42.70 86 o
1 -6 -5 537.44 595.10 57.30 86 o
9 -4 -5 217.94 146.40 41.00 86 o
-10 -7 -3 29.53 20.20 39.00 86 <
-4 -5 -3 1319.40 1420.80 67.70 86 o
-1 -4 -3 8009.80 7615.20 90.60 86 o
-11 -6 -2 28.30 60.60 38.20 86 <
-8 -5 -2 116.16 202.20 48.90 86 o
-5 -4 -2 408.68 583.30 67.70 86 o
-6 -3 -1 303.91 585.20 67.40 86 o
12 3 0 177.71 238.00 39.60 86 o
-10 -2 1 120.94 72.20 47.50 86 <
-4 0 1 8749.50 7610.70 110.90 86 o
3 2 1 13177.00 11751.30 123.20 86 o
7 3 1 190.75 545.80 64.50 86 o
11 4 1 346.54 480.10 41.70 86 o
-11 -1 2 306.78 277.10 44.40 86 o
-8 0 2 2410.10 2442.60 65.80 86 o
6 4 2 248.94 498.50 65.00 86 o
10 5 2 43.13 183.40 41.50 86 o
-2 3 3 2891.10 3083.20 86.80 86 o
10 6 3 826.99 578.40 40.80 86 o
-9 2 4 470.98 595.30 46.10 86 o
-6 3 4 798.02 999.00 60.50 86 o
1 5 4 2768.30 3338.90 72.30 86 o
5 6 4 656.40 387.60 53.60 86 o
9 7 4 141.43 307.90 39.30 86 o
-3 5 5 1196.90 1213.30 59.70 86 o
4 7 5 649.06 955.60 49.00 86 o
8 8 5 169.13 150.20 37.70 86 o
-7 5 6 260.52 348.80 41.70 86 o
4 8 6 280.58 264.90 41.80 86 o
-7 6 7 170.31 237.50 37.60 86 o
-4 7 7 478.88 651.20 42.00 86 o
3 9 7 106.19 128.00 38.20 86 o
4 -8 -7 265.80 221.20 39.60 87 o
-4 -9 -6 73.36 145.50 40.10 87 o
-1 -8 -6 157.98 247.00 43.60 87 o
3 -7 -6 198.56 240.50 44.90 87 o
7 -6 -6 315.06 184.30 41.20 87 o
-5 -8 -5 281.54 313.30 43.30 87 o
-2 -7 -5 892.26 723.50 51.40 87 o
10 -4 -5 123.13 118.70 38.40 87 o
-3 -6 -4 167.88 241.00 60.50 87 o
4 -4 -4 2091.60 1940.00 68.00 87 o
8 -3 -4 428.95 497.40 46.80 87 o
-4 -5 -3 435.68 434.60 65.10 87 o
3 -3 -3 1576.20 1663.90 78.00 87 o
7 -2 -3 1137.60 1155.10 62.10 87 o
12 -1 -3 186.75 322.50 38.30 87 o
-11 -6 -2 265.91 49.40 38.40 87 <
-5 -4 -2 354.93 611.20 67.00 87 o
2 -2 -2 12144.00 13202.70 123.90 87 o
6 -1 -2 322.82 430.40 67.30 87 o
10 0 -2 760.56 741.80 46.40 87 o
-6 -3 -1 232.96 405.60 67.50 87 o
1 -1 -1 6531.90 4520.40 187.40 87 o
9 1 -1 822.18 454.10 52.80 87 o
-10 -3 0 355.73 103.90 46.00 87 <
-7 -2 0 2778.70 3004.30 72.00 87 o
4 1 0 3096.00 3054.00 106.10 87 o
8 2 0 1107.90 1400.30 62.90 87 o
-11 -2 1 181.48 218.00 44.60 87 o
3 2 1 11636.00 13171.10 125.10 87 o
7 3 1 335.64 501.00 64.00 87 o
12 4 1 248.62 178.80 38.50 87 o
-5 1 2 1667.20 2135.10 79.90 87 o
2 3 2 1954.90 2181.80 102.40 87 o
6 4 2 420.17 356.10 64.30 87 o
11 5 2 157.82 162.90 39.20 87 o
-12 0 3 402.41 240.90 40.30 87 o
-9 1 3 291.44 223.40 48.40 87 o
-6 2 3 1676.10 1143.40 67.10 87 o
10 6 3 562.06 507.90 40.90 87 o
-10 2 4 562.85 447.60 42.80 87 o
-3 4 4 1144.50 1022.70 67.60 87 o
9 7 4 84.09 68.70 39.20 87 <
-7 4 5 571.72 557.90 46.50 87 o
-4 5 5 377.15 298.60 53.50 87 o
4 7 5 1118.90 826.00 48.40 87 o
8 8 5 242.70 146.10 37.90 87 o
-8 5 6 83.11 -35.10 39.60 87 <
-1 7 6 554.19 326.90 45.80 87 o
3 8 6 63.79 43.60 41.90 87 <
-5 7 7 124.21 156.60 39.00 87 o
-1 8 7 246.00 313.50 40.80 87 o
3 9 7 60.68 43.50 38.20 87 <
2 -9 -7 114.69 147.20 39.80 88 o
-3 -9 -6 115.48 139.40 41.30 88 o
4 -7 -6 141.15 190.60 43.90 88 o
8 -6 -6 75.49 -14.80 39.40 88 <
-4 -8 -5 23.54 -51.70 44.80 88 <
-1 -7 -5 98.79 191.00 51.80 88 o
-9 -8 -4 174.93 -3.20 38.80 88 <
1 -5 -4 2248.00 2380.00 71.00 88 o
5 -4 -4 1181.60 1483.50 64.40 88 o
9 -3 -4 704.67 482.30 43.90 88 o
-10 -7 -3 11.60 79.00 38.30 88 <
-7 -6 -3 165.40 152.30 47.90 88 o
8 -2 -3 1323.90 965.80 54.70 88 o
12 -1 -3 262.81 364.00 38.60 88 o
-11 -6 -2 46.68 -49.30 38.60 88 <
-8 -5 -2 115.20 133.50 48.90 88 <
6 -1 -2 584.54 779.60 69.20 88 o
9 1 -1 327.56 329.80 52.50 88 o
-10 -3 0 145.86 168.40 45.80 88 o
-7 -2 0 2027.60 2309.70 70.50 88 o
8 2 0 1779.10 1578.60 63.70 88 o
12 3 0 265.13 157.30 39.40 88 o
-11 -2 1 336.76 273.60 44.70 88 o
-8 -1 1 684.07 708.90 64.50 88 o
-1 1 1 3739.80 3869.10 191.00 88 o
7 3 1 196.74 442.10 64.40 88 o
11 4 1 166.65 296.20 40.80 88 o
-12 -1 2 94.74 99.40 41.20 88 <
-2 2 2 11944.00 11524.20 123.60 88 o
10 5 2 88.93 155.00 40.90 88 o
-3 3 3 1636.00 1877.40 79.20 88 o
9 6 3 140.02 181.50 41.30 88 o
-10 2 4 320.31 175.10 41.80 88 o
-7 3 4 507.51 688.30 53.70 88 o
-4 4 4 1567.80 1290.00 66.60 88 o
8 7 4 144.06 200.60 41.00 88 o
-8 4 5 159.77 193.70 42.90 88 o
-1 6 5 854.69 556.50 57.20 88 o
3 7 5 94.45 68.50 48.30 88 <
7 8 5 86.42 206.00 39.30 88 o
-9 5 6 184.47 135.50 37.70 88 o
-5 6 6 354.84 270.20 43.20 88 o
-2 7 6 168.46 74.60 44.20 88 <
2 8 6 616.43 737.80 44.70 88 o
-6 7 7 284.28 244.50 38.50 88 o
1 9 7 145.76 94.10 39.20 88 <
3 -9 -7 66.39 115.90 38.80 89 <
-2 -9 -6 79.85 62.80 41.90 89 <
1 -8 -6 65.89 23.30 43.70 89 <
5 -7 -6 307.13 186.10 42.20 89 o
-7 -9 -5 19.16 24.40 38.60 89 <
-4 -8 -5 84.01 30.70 44.00 89 <
8 -5 -5 69.89 122.70 41.40 89 <
-5 -7 -4 50.64 104.50 48.20 89 <
-2 -6 -4 2354.80 2783.50 69.20 89 o
2 -5 -4 474.07 224.30 65.90 89 o
6 -4 -4 59.93 84.90 55.20 89 <
10 -3 -4 73.67 149.60 40.30 89 o
-10 -7 -3 70.21 141.50 39.20 89 o
-7 -6 -3 188.98 92.60 48.10 89 <
4 -3 -3 3912.40 3270.00 76.70 89 o
9 -2 -3 430.90 449.80 47.10 89 o
-11 -6 -2 187.92 155.60 38.30 89 o
-8 -5 -2 188.16 168.20 49.00 89 o
-1 -3 -2 14580.00 15242.90 123.60 89 o
7 -1 -2 983.16 1284.60 66.50 89 o
12 0 -2 161.12 115.30 38.40 89 o
-6 -3 -1 432.35 342.20 67.10 89 o
10 1 -1 498.59 234.50 45.70 89 o
-10 -3 0 229.79 141.90 45.90 89 o
-7 -2 0 1877.30 2037.00 69.80 89 o
4 1 0 2742.40 2425.50 105.80 89 o
8 2 0 1068.40 1201.30 62.90 89 o
-11 -2 1 89.07 237.40 44.40 89 o
-8 -1 1 471.61 532.30 63.50 89 o
7 3 1 331.50 470.50 64.70 89 o
12 4 1 142.91 114.70 38.00 89 o
-12 -1 2 192.35 103.90 41.50 89 <
-6 1 2 701.92 592.70 68.60 89 o
10 5 2 28.10 9.90 41.30 89 <
-10 1 3 482.48 417.30 45.30 89 o
-7 2 3 809.00 724.20 62.10 89 o
9 6 3 142.71 84.90 41.30 89 <
-11 2 4 180.07 242.30 40.60 89 o
-8 3 4 342.66 225.60 47.50 89 o
-1 5 4 3068.90 3050.30 72.40 89 o
3 6 4 58.20 71.70 61.00 89 <
8 7 4 113.14 193.40 40.50 89 o
-9 4 5 445.89 208.30 41.10 89 o
-2 6 5 304.79 270.60 55.10 89 o
2 7 5 448.89 428.40 51.00 89 o
7 8 5 145.97 182.20 39.70 89 o
-6 6 6 385.98 392.70 42.60 89 o
-3 7 6 161.53 218.70 43.80 89 o
1 8 6 138.15 129.60 43.50 89 <
5 9 6 295.97 347.60 39.80 89 o
-3 8 7 174.58 124.80 39.50 89 o
0 9 7 187.11 175.40 39.50 89 o
-1 -9 -6 172.59 182.30 42.60 90 o
2 -8 -6 487.44 577.50 45.40 90 o
6 -7 -6 132.70 307.20 40.60 90 o
-6 -9 -5 289.29 179.20 40.80 90 o
-3 -8 -5 54.50 104.20 45.90 90 <
4 -6 -5 340.98 340.80 50.90 90 o
9 -5 -5 36.01 -17.60 39.70 90 <
-8 -8 -4 141.34 125.40 40.40 90 o
-5 -7 -4 284.93 273.50 49.30 90 o
-1 -6 -4 195.23 276.00 65.70 90 o
7 -4 -4 316.82 196.30 49.50 90 o
11 -3 -4 180.16 51.00 38.60 90 <
-9 -7 -3 60.76 108.30 41.30 90 <
-6 -6 -3 229.74 105.70 53.30 90 <
-3 -5 -3 394.07 377.70 68.90 90 o
1 -4 -3 7121.00 6679.40 91.00 90 o
5 -3 -3 1053.90 1330.10 68.90 90 o
9 -2 -3 320.36 474.00 46.80 90 o
-11 -6 -2 36.91 -45.70 38.70 90 <
3 -2 -2 1653.90 1431.60 100.20 90 o
7 -1 -2 846.74 990.00 66.20 90 o
12 0 -2 132.50 130.10 38.30 90 o
10 1 -1 430.69 361.90 45.90 90 o
-10 -3 0 277.07 146.70 46.10 90 o
-7 -2 0 2101.10 2348.10 71.30 90 o
4 1 0 1932.40 2155.10 106.50 90 o
8 2 0 1221.40 1188.20 62.90 90 o
7 3 1 244.58 384.50 64.30 90 o
11 4 1 245.26 206.00 40.50 90 o
12 4 1 125.03 95.50 38.00 90 <
-6 1 2 311.87 341.60 69.20 90 o
1 3 2 13303.00 12767.60 124.10 90 o
5 4 2 581.48 654.00 68.70 90 o
10 5 2 47.46 72.70 41.00 90 <
-4 3 3 2518.80 2745.80 76.20 90 o
4 5 3 1288.90 1202.50 68.00 90 o
8 6 3 304.77 147.10 43.70 90 o
-5 4 4 1346.70 1184.10 63.70 90 o
7 7 4 79.48 63.70 42.20 90 <
-6 5 5 95.05 237.50 46.40 90 o
1 7 5 158.81 205.50 51.90 90 o
6 8 5 44.77 69.80 40.10 90 <
-7 6 6 233.02 247.80 40.50 90 o
0 8 6 393.99 337.50 43.90 90 o
4 9 6 18.02 -22.70 39.10 90 <
-5 8 7 349.25 283.30 38.10 90 o
-1 9 7 102.36 172.80 39.10 90 o
-4 -10 -6 71.93 32.80 39.00 91 <
4 -8 -6 32.18 104.30 41.80 91 <
-2 -8 -5 83.61 90.20 46.90 91 <
2 -7 -5 334.15 389.30 51.20 91 o
6 -6 -5 243.07 109.30 45.60 91 <
10 -5 -5 44.91 91.80 37.90 91 <
-7 -8 -4 93.21 -37.30 42.20 91 <
-4 -7 -4 237.49 89.50 51.70 91 <
8 -4 -4 83.76 65.60 44.80 91 <
-9 -7 -3 58.94 41.20 41.10 91 <
-6 -6 -3 128.21 183.90 53.30 91 o
-2 -5 -3 3474.80 3672.30 77.50 91 o
6 -3 -3 66.02 173.00 65.00 91 <
10 -2 -3 61.42 -9.20 42.60 91 <
-4 -4 -2 1727.80 1573.30 75.50 91 o
8 -1 -2 109.11 133.20 58.60 91 <
-2 -2 -1 487.00 528.40 130.10 91 o
6 0 -1 1832.70 1761.10 75.60 91 o
11 1 -1 76.25 127.40 41.90 91 o
-7 -2 0 1860.90 1856.60 71.20 91 o
4 1 0 1580.60 1468.80 106.40 91 o
9 2 0 266.94 273.00 52.90 91 o
-12 -2 1 16.71 6.80 41.70 91 <
7 3 1 292.10 448.10 64.90 91 o
11 4 1 208.24 282.50 40.70 91 o
12 4 1 87.94 101.70 37.80 91 <
-10 0 2 668.94 455.30 47.70 91 o
-3 2 2 1236.70 1448.20 101.60 91 o
5 4 2 679.39 464.90 68.90 91 o
10 5 2 53.87 53.50 40.70 91 <
-11 1 3 213.24 211.40 41.80 91 o
-8 2 3 852.62 557.10 54.80 91 o
-1 4 3 6247.10 5917.90 90.10 91 o
3 5 3 466.34 329.40 68.40 91 o
8 6 3 143.15 29.50 44.00 91 <
-9 3 4 98.79 117.80 44.30 91 <
-6 4 4 117.23 85.00 55.70 91 <
-2 5 4 544.92 236.20 65.90 91 o
2 6 4 1813.30 2044.50 67.90 91 o
6 7 4 267.25 198.00 45.10 91 o
-7 5 5 187.95 159.90 44.00 91 o
0 7 5 2177.00 2493.80 58.90 91 o
5 8 5 185.59 125.80 42.50 91 <
-8 6 6 161.07 105.10 38.50 91 <
-5 7 6 40.54 173.20 41.40 91 o
-1 8 6 118.03 52.00 43.60 91 <
3 9 6 219.15 65.50 40.60 91 <
-2 9 7 141.68 234.40 39.30 91 o
-3 -10 -6 60.23 151.30 39.50 92 o
1 -9 -6 109.20 183.80 42.30 92 o
5 -8 -6 62.07 98.60 40.50 92 <
-5 -9 -5 59.45 140.40 41.50 92 o
-1 -8 -5 198.56 96.10 48.00 92 <
3 -7 -5 129.74 -79.60 49.40 92 <
7 -6 -5 277.30 244.10 43.40 92 o
-7 -8 -4 256.87 84.40 42.00 92 <
0 -6 -4 258.82 343.40 66.00 92 o
5 -5 -4 2094.50 1957.60 62.40 92 o
9 -4 -4 482.73 266.40 42.90 92 o
10 -4 -4 55.46 -4.50 39.40 92 <
-9 -7 -3 36.26 102.10 41.30 92 <
-2 -5 -3 3902.50 3957.40 78.60 92 o
2 -4 -3 515.56 381.20 77.40 92 o
7 -3 -3 180.05 384.10 59.20 92 o
12 -2 -3 154.86 29.60 37.30 92 <
-11 -6 -2 30.78 44.00 38.70 92 <
-4 -4 -2 1249.70 1397.10 76.00 92 o
9 -1 -2 41.17 77.50 49.70 92 <
-6 -3 -1 546.04 428.40 69.40 92 o
-2 -2 -1 467.68 390.80 137.10 92 <
2 -1 -1 20536.00 19912.50 169.50 92 o
12 1 -1 88.44 -17.70 39.00 92 <
-11 -3 0 431.31 424.60 44.30 92 o
-4 -1 0 1455.20 1824.10 108.30 92 o
9 2 0 199.49 200.80 52.40 92 o
-9 -1 1 822.43 453.60 55.60 92 o
-2 1 1 22404.00 23682.00 176.10 92 o
12 4 1 106.05 137.80 38.00 92 o
5 4 2 516.27 483.40 69.80 92 o
10 5 2 83.35 10.20 41.40 92 <
-12 1 3 365.58 209.10 40.30 92 o
-9 2 3 525.19 431.90 48.80 92 o
3 5 3 771.79 701.40 70.50 92 o
8 6 3 171.95 275.80 44.70 92 o
-10 3 4 34.66 93.10 41.20 92 <
-7 4 4 404.38 237.40 50.50 92 o
-3 5 4 1928.10 2014.60 69.70 92 o
1 6 4 245.69 167.60 66.10 92 <
6 7 4 145.36 66.30 45.60 92 <
-8 5 5 179.13 210.60 42.60 92 o
4 8 5 122.15 189.30 44.30 92 o
-6 7 6 128.21 287.50 40.80 92 o
-2 8 6 540.49 540.00 44.80 92 o
2 9 6 55.86 28.50 41.20 92 <
-2 -10 -6 51.30 -38.10 40.30 93 <
2 -9 -6 70.35 124.80 41.70 93 <
6 -8 -6 390.66 375.10 40.20 93 o
-4 -9 -5 128.58 83.90 42.30 93 <
4 -7 -5 908.99 564.30 49.10 93 o
8 -6 -5 80.76 104.80 41.00 93 <
-6 -8 -4 237.95 178.30 44.50 93 o
-3 -7 -4 196.74 183.80 55.20 93 o
1 -6 -4 296.37 433.90 65.50 93 o
5 -5 -4 1801.70 1681.90 61.20 93 o
10 -4 -4 22.10 -42.70 39.90 93 <
-8 -7 -3 465.23 205.60 43.50 93 o
-5 -6 -3 134.99 167.80 59.10 93 <
3 -4 -3 2086.00 2088.60 76.00 93 o
7 -3 -3 315.75 403.80 57.90 93 o
12 -2 -3 61.95 24.80 37.40 93 <
-10 -6 -2 274.55 226.90 41.00 93 o
-7 -5 -2 430.20 326.60 56.20 93 o
9 -1 -2 35.94 62.50 49.20 93 <
12 1 -1 101.90 101.10 38.90 93 <
-11 -3 0 518.22 511.90 44.30 93 o
-4 -1 0 1866.20 1673.10 105.90 93 o
9 2 0 103.03 70.70 51.70 93 <
-12 -2 1 45.60 -16.50 42.10 93 <
-9 -1 1 410.38 268.60 55.40 93 o
-2 1 1 19234.00 21118.10 170.40 93 o
2 2 1 316.67 436.10 130.40 93 o
12 4 1 115.32 73.80 37.30 93 <
-4 2 2 625.25 674.70 85.00 93 o
9 5 2 100.12 144.30 43.80 93 o
-12 1 3 212.44 196.00 39.50 93 o
-9 2 3 331.47 460.50 48.00 93 o
-2 4 3 368.17 296.30 75.70 93 o
2 5 3 3965.00 3855.80 77.40 93 o
7 6 3 53.26 40.30 47.30 93 <
-11 3 4 80.14 147.40 38.60 93 o
-7 4 4 352.71 394.50 50.00 93 o
5 7 4 22.72 168.20 47.40 93 o
-9 5 5 59.45 -24.80 38.90 93 <
-5 6 5 255.17 304.20 46.80 93 o
3 8 5 77.02 58.70 44.40 93 <
7 9 5 34.98 78.80 37.10 93 <
-7 7 6 153.80 102.30 38.20 93 <
-3 8 6 49.47 72.60 41.80 93 <
1 9 6 150.25 213.10 41.00 93 o
-1 -10 -6 129.73 34.90 41.10 94 <
0 -10 -6 254.72 258.10 41.50 94 o
4 -9 -6 25.18 37.20 40.80 94 <
-3 -9 -5 119.84 188.00 43.40 94 o
1 -8 -5 206.57 225.00 47.80 94 o
5 -7 -5 44.30 -9.70 44.80 94 <
-6 -8 -4 463.12 258.30 44.50 94 o
-2 -7 -4 558.04 544.60 59.90 94 o
2 -6 -4 1878.40 2033.50 68.10 94 o
7 -5 -4 82.86 174.70 48.70 94 o
-8 -7 -3 258.17 237.00 44.00 94 o
8 -3 -3 124.63 162.20 49.90 94 o
9 -3 -3 15.56 65.30 45.00 94 <
-10 -6 -2 143.15 150.80 41.20 94 o
-7 -5 -2 354.82 419.80 56.00 94 o
-3 -4 -2 440.68 506.70 80.70 94 o
1 -3 -2 9957.20 10093.20 121.30 94 o
10 -1 -2 115.87 105.80 43.80 94 <
11 -1 -2 188.17 47.20 41.10 94 <
-11 -3 0 275.06 309.60 43.50 94 o
-8 -2 0 1089.60 933.20 64.20 94 o
-4 -1 0 1251.10 1154.50 106.20 94 o
10 2 0 51.63 183.40 45.10 94 o
-10 -1 1 312.66 223.70 49.70 94 o
-6 0 1 1525.70 1364.80 76.10 94 o
2 2 1 731.31 695.60 130.30 94 o
12 4 1 80.56 102.80 37.60 94 <
-12 0 2 142.16 133.80 41.50 94 o
-8 1 2 84.95 112.10 59.80 94 <
4 4 2 893.61 898.50 74.90 94 o
9 5 2 168.85 101.00 43.80 94 <
-10 2 3 93.22 96.20 42.90 94 <
6 6 3 289.44 336.40 53.20 94 o
7 6 3 137.80 16.90 47.60 94 <
-8 4 4 112.80 235.90 45.90 94 o
4 7 4 120.78 76.80 51.50 94 <
9 8 4 157.71 42.40 37.10 94 <
-10 5 5 58.72 -0.50 38.20 94 <
2 8 5 67.91 108.60 46.40 94 <
7 9 5 66.08 12.30 37.30 94 <
-4 8 6 34.38 84.00 40.90 94 <
4 10 6 69.74 106.30 38.10 94 <
1 -10 -6 78.87 79.00 40.20 95 <
5 -9 -6 244.33 183.20 40.10 95 o
-6 -10 -5 74.55 -27.40 38.60 95 <
-2 -9 -5 189.30 130.90 44.90 95 <
2 -8 -5 41.99 52.80 46.70 95 <
6 -7 -5 318.02 369.00 44.30 95 o
7 -7 -5 68.72 36.80 42.20 95 <
-8 -9 -4 77.39 -54.90 39.10 95 <
-5 -8 -4 56.74 161.70 46.30 95 o
-1 -7 -4 578.30 699.40 61.70 95 o
3 -6 -4 58.15 101.70 63.80 95 <
8 -5 -4 192.31 225.60 44.40 95 o
-8 -7 -3 485.00 307.50 43.80 95 o
-4 -6 -3 95.67 154.90 64.00 95 <
0 -5 -3 690.88 1006.70 76.50 95 o
4 -4 -3 194.03 322.10 69.10 95 o
9 -3 -3 17.12 116.00 44.70 95 <
10 -3 -3 93.08 56.40 42.30 95 <
-10 -6 -2 230.44 81.80 41.30 95 <
-3 -4 -2 395.72 349.30 81.80 95 o
6 -2 -2 832.83 772.40 69.30 95 o
11 -1 -2 149.20 215.00 41.30 95 o
12 -1 -2 90.21 7.30 38.40 95 <
8 0 -1 422.04 394.50 62.50 95 o
-11 -3 0 316.09 274.40 43.80 95 o
-8 -2 0 691.29 739.40 65.00 95 o
-4 -1 0 1502.90 1569.40 108.00 95 o
10 2 0 38.36 90.40 45.20 95 <
-10 -1 1 343.37 345.10 50.10 95 o
12 4 1 155.15 84.50 37.60 95 <
-12 0 2 113.89 72.70 41.20 95 <
-5 2 2 255.02 178.20 74.70 95 <
-1 3 2 8485.40 8009.00 119.10 95 o
9 5 2 76.76 83.20 44.10 95 <
-11 2 3 168.70 160.20 40.80 95 o
-7 3 3 444.40 602.90 60.10 95 o
-3 4 3 2026.60 2211.40 76.80 95 o
1 5 3 544.95 480.90 73.60 95 o
6 6 3 210.51 165.30 53.00 95 o
-9 4 4 285.94 399.30 43.40 95 o
-5 5 4 1031.80 1016.10 60.00 95 o
-1 6 4 158.93 235.60 64.40 95 o
3 7 4 290.21 351.60 55.60 95 o
8 8 4 85.25 40.90 38.90 95 <
9 8 4 116.64 153.90 37.60 95 o
-7 6 5 432.58 380.10 43.30 95 o
1 8 5 371.98 391.20 48.10 95 o
5 9 5 49.47 40.80 40.40 95 <
6 9 5 251.19 144.50 39.30 95 o
-6 8 6 362.91 225.80 39.20 95 o
-1 9 6 73.91 128.80 41.30 95 o
3 10 6 27.45 0.60 37.80 95 <
2 -10 -6 14.08 -113.40 41.00 96 <
3 -10 -6 76.35 201.10 39.90 96 o
-5 -10 -5 66.29 128.40 40.00 96 o
-1 -9 -5 192.04 174.20 45.20 96 o
3 -8 -5 27.99 1.60 45.80 96 <
8 -7 -5 227.82 242.70 40.90 96 o
-8 -9 -4 124.15 34.20 39.50 96 <
-4 -8 -4 121.09 225.80 48.20 96 o
4 -6 -4 429.72 279.10 59.00 96 o
9 -5 -4 191.05 168.50 42.40 96 o
10 -5 -4 50.13 28.40 39.90 96 <
-7 -7 -3 44.20 51.80 46.20 96 <
1 -5 -3 376.52 283.60 73.60 96 o
5 -4 -3 1439.90 1291.20 69.20 96 o
11 -3 -3 45.04 51.70 39.80 96 <
-10 -6 -2 124.22 149.80 41.30 96 o
-6 -5 -2 637.69 457.90 64.00 96 o
2 -3 -2 1181.60 1184.10 104.70 96 o
7 -2 -2 528.21 534.20 66.20 96 o
12 -1 -2 44.55 110.70 38.60 96 <
8 0 -1 267.16 353.80 62.90 96 o
-11 -3 0 262.77 187.20 43.60 96 o
-8 -2 0 1072.00 944.80 64.80 96 o
5 1 0 767.82 907.00 89.10 96 o
10 2 0 94.52 46.90 45.30 96 <
11 2 0 31.30 5.00 41.70 96 <
-10 -1 1 305.65 343.70 50.10 96 o
-3 1 1 1969.70 1768.00 123.60 96 o
12 4 1 106.53 67.20 38.00 96 <
-9 1 2 68.53 164.70 51.50 96 o
3 4 2 316.55 243.30 82.70 96 <
9 5 2 199.32 84.50 44.60 96 <
-8 3 3 85.57 62.30 52.20 96 <
-4 4 3 138.45 267.20 69.60 96 o
0 5 3 796.36 802.40 76.30 96 o
5 6 3 95.61 246.00 59.20 96 o
-10 4 4 12.79 2.70 40.50 96 <
-2 6 4 1635.80 1773.10 68.00 96 o
2 7 4 684.97 802.50 60.20 96 o
7 8 4 140.08 158.40 40.80 96 o
8 8 4 31.11 2.80 39.10 96 <
-9 6 5 43.30 29.10 39.20 96 <
-5 7 5 35.59 45.10 44.60 96 <
4 9 5 80.51 84.80 41.80 96 <
5 9 5 59.02 22.10 40.50 96 <
-3 9 6 82.03 171.40 40.50 96 o
2 10 6 21.58 6.00 39.30 96 <
4 -10 -6 204.65 177.60 38.70 97 o
-4 -10 -5 85.64 43.10 40.80 97 <
0 -9 -5 317.91 299.00 46.10 97 o
5 -8 -5 111.62 89.10 43.50 97 <
-7 -9 -4 221.59 101.20 40.80 97 <
-4 -8 -4 215.00 268.50 48.30 97 o
1 -7 -4 332.58 334.80 60.10 97 o
6 -6 -4 631.89 444.80 49.50 97 o
-7 -7 -3 126.13 40.90 45.90 97 <
-3 -6 -3 725.50 783.70 66.70 97 o
7 -4 -3 356.03 461.90 55.50 97 o
-10 -6 -2 125.67 151.20 41.00 97 o
-6 -5 -2 646.36 446.20 64.10 97 o
-2 -4 -2 3038.90 3112.10 94.30 97 o
8 -2 -2 328.31 447.90 58.80 97 o
-1 -2 -1 14757.00 14152.40 165.90 97 o
10 0 -1 108.62 65.60 46.50 97 <
-12 -3 0 188.79 31.90 40.80 97 <
-8 -2 0 461.13 495.20 63.70 97 o
5 1 0 1423.90 1163.60 88.30 97 o
11 2 0 62.11 87.40 41.60 97 <
12 2 0 14.14 60.80 38.80 97 <
-11 -1 1 64.69 105.10 45.70 97 <
-10 1 2 131.82 175.00 46.30 97 o
-6 2 2 619.01 623.00 68.90 97 o
-2 3 2 1174.10 1009.30 102.30 97 o
3 4 2 200.76 300.80 82.00 97 o
8 5 2 93.05 55.40 48.40 97 <
9 5 2 157.47 173.10 44.10 97 o
-12 2 3 47.81 98.10 38.30 97 <
-9 3 3 28.03 85.30 45.80 97 <
-5 4 3 648.56 1158.00 67.70 97 o
5 6 3 184.11 304.40 59.80 97 o
10 7 3 121.15 78.90 37.50 97 <
-11 4 4 118.51 105.10 38.60 97 <
-7 5 4 127.79 131.00 47.40 97 <
-3 6 4 71.15 82.80 60.80 97 <
1 7 4 330.23 501.20 59.80 97 o
7 8 4 109.19 188.10 41.20 97 o
-6 7 5 211.73 213.20 42.00 97 o
-2 8 5 82.78 -53.30 46.10 97 <
3 9 5 60.73 75.70 42.50 97 <
-4 9 6 27.24 -48.20 39.40 97 <
0 10 6 122.80 125.70 39.90 97 o
-3 -10 -5 150.11 203.00 42.50 98 o
-2 -10 -5 80.23 -4.30 42.70 98 <
2 -9 -5 84.35 141.20 44.50 98 o
7 -8 -5 162.77 88.70 40.60 98 <
-6 -9 -4 70.02 31.40 42.50 98 <
-2 -8 -4 317.12 352.50 52.90 98 o
2 -7 -4 670.85 482.50 60.00 98 o
7 -6 -4 38.62 96.80 45.20 98 <
8 -6 -4 97.61 118.60 43.10 98 <
-6 -7 -3 230.66 235.40 50.10 98 o
-2 -6 -3 161.19 221.70 68.60 98 o
8 -4 -3 190.94 224.10 49.20 98 o
-9 -6 -2 305.20 39.20 43.70 98 <
3 -3 -2 3422.90 3627.70 96.90 98 o
9 -2 -2 265.20 204.50 49.40 98 o
-5 -3 -1 359.18 527.10 76.60 98 o
4 -1 -1 5818.30 5517.70 110.60 98 o
10 0 -1 64.29 114.70 45.70 98 <
-12 -3 0 135.52 103.40 40.70 98 <
-8 -2 0 865.78 734.30 64.90 98 o
5 1 0 983.72 805.70 87.00 98 o
11 2 0 19.50 15.70 41.70 98 <
12 2 0 33.30 46.70 38.70 98 <
-11 -1 1 75.46 233.10 46.10 98 o
1 2 1 11579.00 12163.20 168.70 98 o
6 3 1 240.70 213.60 68.20 98 o
12 4 1 30.89 67.20 37.50 98 <
-10 1 2 241.21 155.00 46.50 98 o
-7 2 2 884.36 788.20 66.70 98 o
2 4 2 3278.00 3122.40 94.80 98 o
8 5 2 36.21 81.30 49.50 98 <
-6 4 3 137.10 139.90 62.70 98 <
-1 5 3 278.03 277.70 73.80 98 o
4 6 3 60.85 38.30 64.20 98 <
9 7 3 22.99 -75.50 39.20 98 <
10 7 3 28.63 157.30 37.30 98 o
-8 5 4 44.43 87.60 43.70 98 <
5 8 4 69.32 57.90 44.90 98 <
6 8 4 281.79 368.50 43.70 98 o
-7 7 5 61.63 -3.40 41.30 98 <
-3 8 5 63.08 153.70 45.60 98 o
2 9 5 170.01 238.10 44.00 98 o
-2 10 6 62.77 10.50 39.50 98 <
-1 10 6 32.28 44.00 39.50 98 <
-1 -10 -5 147.13 51.20 42.50 99 <
3 -9 -5 109.06 25.00 43.80 99 <
4 -9 -5 59.93 127.60 42.30 99 o
-6 -9 -4 43.07 141.50 41.50 99 o
-5 -9 -4 63.43 67.90 44.00 99 <
-1 -8 -4 173.39 111.00 53.40 99 <
3 -7 -4 91.19 151.30 55.30 99 <
4 -7 -4 20.30 -84.20 54.60 99 <
9 -6 -4 82.23 44.60 40.60 99 <
10 -6 -4 52.93 -16.40 38.90 99 <
-9 -8 -3 82.98 38.50 40.40 99 <
-5 -7 -3 146.33 111.40 54.20 99 <
-1 -6 -3 1046.20 1114.30 69.10 99 o
4 -5 -3 118.13 81.20 65.70 99 <
9 -4 -3 215.15 170.60 44.20 99 o
10 -4 -3 59.34 -36.00 41.40 99 <
-9 -6 -2 58.84 59.70 43.20 99 <
-5 -5 -2 1162.20 1261.60 68.10 99 o
-1 -4 -2 1682.80 1635.30 96.40 99 o
4 -3 -2 282.66 306.70 80.10 99 o
10 -2 -2 119.14 15.90 43.30 99 <
11 -2 -2 65.08 -36.00 40.60 99 <
-5 -3 -1 113.51 -54.40 76.50 99 <
12 0 -1 160.62 84.40 39.60 99 <
-12 -3 0 107.70 5.60 40.60 99 <
5 1 0 2067.40 1941.80 88.80 99 o
12 2 0 13.71 -14.80 38.80 99 <
-12 -1 1 64.41 75.00 43.00 99 <
-8 0 1 328.15 509.60 64.70 99 o
-4 1 1 3961.00 4231.90 108.10 99 o
6 3 1 430.74 573.30 68.60 99 o
-11 1 2 194.07 225.70 43.70 99 o
-3 3 2 4129.10 3502.10 96.90 99 o
7 5 2 470.94 459.30 56.80 99 o
8 5 2 102.50 -90.30 50.70 99 <
-11 3 3 31.87 10.60 40.60 99 <
-7 4 3 835.78 564.30 57.00 99 o
-2 5 3 1869.20 2224.90 75.40 99 o
3 6 3 547.97 746.80 66.60 99 o
9 7 3 14.16 64.00 39.90 99 <
10 7 3 90.92 -35.40 37.90 99 <
-10 5 4 43.95 -22.10 39.80 99 <
-6 6 4 455.18 430.00 49.20 99 o
-1 7 4 757.33 583.30 61.40 99 o
4 8 4 79.76 124.90 47.30 99 <
-9 7 5 138.32 137.40 37.10 99 o
-5 8 5 116.42 136.60 43.00 99 o
0 9 5 195.64 254.00 44.90 99 o
5 10 5 40.44 135.90 39.00 99 o
6 10 5 22.61 -13.00 37.10 99 <
-4 10 6 70.28 124.80 38.20 99 o
-3 10 6 28.04 65.30 38.10 99 <
-4 -11 -5 75.71 102.10 39.30 100 <
5 -9 -5 21.44 20.30 41.50 100 <
6 -9 -5 108.33 69.60 40.30 100 <
-5 -9 -4 151.09 8.90 43.70 100 <
0 -8 -4 646.85 651.60 55.90 100 o
5 -7 -4 103.67 21.60 48.90 100 <
-9 -8 -3 109.55 35.90 40.00 100 <
-5 -7 -3 82.78 62.70 54.10 100 <
5 -5 -3 265.39 306.40 63.90 100 o
11 -4 -3 29.81 84.60 38.70 100 <
-9 -6 -2 219.82 42.30 43.70 100 <
-5 -5 -2 1001.50 1058.70 68.60 100 o
5 -3 -2 808.31 664.80 73.10 100 o
11 -2 -2 81.67 51.90 40.90 100 <
12 -2 -2 25.73 143.80 38.00 100 o
-5 -3 -1 142.86 200.40 76.40 100 <
5 -1 -1 760.48 667.80 85.60 100 o
12 0 -1 147.41 17.50 39.30 100 <
-12 -3 0 92.14 154.10 41.00 100 o
-9 -2 0 78.58 -10.30 53.90 100 <
12 2 0 28.44 -36.20 38.70 100 <
-12 -1 1 117.05 106.80 43.10 100 <
-8 0 1 417.29 389.20 65.60 100 o
-4 1 1 6092.40 6064.70 112.70 100 o
6 3 1 120.70 128.90 68.80 100 <
-12 1 2 47.53 -35.00 40.60 100 <
-8 2 2 396.48 347.20 59.60 100 o
-4 3 2 203.52 116.90 81.60 100 <
1 4 2 1586.30 1281.60 99.30 100 o
7 5 2 235.69 237.80 56.90 100 o
-11 3 3 118.10 69.40 40.80 100 <
-7 4 3 598.72 707.00 57.70 100 o
-3 5 3 361.78 346.50 69.10 100 o
2 6 3 259.35 -10.40 67.70 100 <
8 7 3 191.94 291.00 42.90 100 o
9 7 3 38.77 -28.60 39.90 100 <
-7 6 4 70.75 7.60 44.60 100 <
-2 7 4 635.96 726.90 60.30 100 o
3 8 4 172.27 214.40 49.90 100 o
-6 8 5 140.81 137.50 41.30 100 o
-1 9 5 218.43 245.40 44.40 100 o
4 10 5 68.12 135.10 39.90 100 o
5 10 5 34.46 125.20 39.00 100 o
-3 -11 -5 48.85 70.30 39.70 101 <
2 -10 -5 65.57 37.20 41.60 101 <
-4 -9 -4 32.20 89.00 44.90 101 <
1 -8 -4 125.50 -13.60 54.60 101 <
7 -7 -4 76.83 74.60 43.40 101 <
8 -7 -4 71.80 124.60 42.20 101 <
-9 -8 -3 29.58 60.10 40.30 101 <
-8 -8 -3 11.15 8.30 41.90 101 <
-4 -7 -3 603.84 565.20 59.60 101 o
1 -6 -3 873.71 919.60 70.50 101 o
6 -5 -3 86.58 39.30 59.50 101 <
7 -5 -3 75.50 135.30 52.30 101 <
-9 -6 -2 77.83 42.90 43.60 101 <
-5 -5 -2 1067.70 1054.90 68.60 101 o
0 -4 -2 619.10 669.30 97.50 101 o
6 -3 -2 351.95 293.00 67.40 101 o
7 -3 -2 340.83 325.70 63.80 101 o
-5 -3 -1 129.76 25.70 78.30 101 <
6 -1 -1 2586.40 2612.20 78.70 101 o
-9 -2 0 62.28 108.40 54.20 101 <
-5 -1 0 385.02 297.00 88.50 101 o
6 1 0 182.94 187.00 74.50 101 <
-5 1 1 631.93 703.00 87.00 101 o
6 3 1 114.64 -63.20 68.90 101 <
-9 2 2 153.98 127.70 50.50 101 <
7 5 2 234.74 163.20 56.90 101 <
8 5 2 25.76 -13.80 49.50 101 <
-9 4 3 137.16 86.80 45.40 101 <
-4 5 3 105.48 165.10 66.20 101 <
1 6 3 886.07 844.30 70.00 101 o
8 7 3 140.75 153.00 43.00 101 o
9 7 3 20.96 -11.80 40.20 101 <
-8 6 4 103.05 59.50 42.40 101 <
-4 7 4 40.02 51.80 52.10 101 <
-3 7 4 227.24 218.90 55.60 101 o
2 8 4 456.96 398.10 53.20 101 o
-8 8 5 55.68 83.10 37.70 101 <
-7 8 5 119.13 146.50 39.40 101 o
-3 9 5 27.38 -1.50 42.80 101 <
3 10 5 179.98 193.90 40.90 101 o
4 10 5 35.97 62.80 40.00 101 <
-1 -11 -5 15.39 12.70 40.80 102 <
4 -10 -5 65.75 -34.20 41.30 102 <
5 -10 -5 19.17 105.80 40.40 102 <
-7 -10 -4 28.63 26.30 39.20 102 <
-2 -9 -4 71.99 -1.00 48.30 102 <
3 -8 -4 201.00 -4.20 52.00 102 <
4 -8 -4 108.00 76.80 48.50 102 <
-8 -8 -3 22.60 51.10 42.30 102 <
-3 -7 -3 121.80 145.20 63.20 102 <
2 -6 -3 283.36 115.90 68.70 102 <
8 -5 -3 169.58 152.20 46.30 102 o
9 -5 -3 43.35 64.10 43.50 102 <
10 -5 -3 76.87 -44.90 40.70 102 <
-9 -6 -2 44.25 -11.60 43.60 102 <
-8 -6 -2 178.59 118.40 47.50 102 <
-4 -5 -2 184.99 127.00 70.60 102 <
1 -4 -2 934.04 1023.00 98.50 102 o
8 -3 -2 124.02 195.40 58.30 102 o
-5 -3 -1 192.93 151.30 78.30 102 <
7 -1 -1 246.91 252.90 67.90 102 o
-10 -2 0 33.55 132.30 48.70 102 <
-9 -2 0 81.18 48.60 54.30 102 <
-5 -1 0 670.07 811.60 90.00 102 o
6 1 0 187.46 35.00 74.90 102 <
7 1 0 1036.30 939.60 70.30 102 o
-10 0 1 36.05 -36.50 49.70 102 <
6 3 1 362.19 230.90 70.20 102 o
-10 2 2 36.92 97.90 46.00 102 <
0 4 2 518.34 756.70 101.20 102 o
6 5 2 392.41 358.30 64.90 102 o
7 5 2 371.91 319.40 57.20 102 o
-10 4 3 44.26 15.10 42.60 102 <
-5 5 3 233.87 237.00 64.90 102 o
6 7 3 174.73 200.00 48.90 102 o
7 7 3 24.25 2.60 45.60 102 <
-10 6 4 72.37 -13.90 38.50 102 <
-5 7 4 100.38 -7.00 48.40 102 <
0 8 4 398.92 363.80 55.00 102 o
7 9 4 26.52 11.60 39.20 102 <
8 9 4 70.35 71.10 38.00 102 <
-5 9 5 15.49 32.10 40.20 102 <
1 10 5 122.77 85.00 41.70 102 <
1 -11 -5 16.48 54.80 40.10 103 <
-6 -10 -4 31.33 -43.50 39.80 103 <
-5 -10 -4 15.44 37.60 40.70 103 <
-1 -9 -4 270.78 220.50 48.40 103 o
5 -8 -4 19.11 48.20 45.40 103 <
6 -8 -4 232.78 107.50 43.60 103 <
-7 -8 -3 39.67 20.70 43.00 103 <
-2 -7 -3 359.34 295.00 63.40 103 o
3 -6 -3 598.76 350.50 66.30 103 o
4 -6 -3 91.88 54.50 63.80 103 <
10 -5 -3 98.31 100.50 40.60 103 <
11 -5 -3 63.69 55.70 38.50 103 <
-8 -6 -2 117.08 102.60 46.50 103 <
2 -4 -2 2090.90 1955.60 90.80 103 o
9 -3 -2 300.19 219.00 48.20 103 o
10 -3 -2 59.26 11.80 42.80 103 <
1 -2 -1 6731.30 8104.40 159.50 103 o
8 -1 -1 112.26 138.90 61.70 103 <
-10 -2 0 45.63 94.60 47.50 103 <
-5 -1 0 1049.80 517.00 88.60 103 o
7 1 0 1090.30 1028.30 69.10 103 o
-10 0 1 36.83 76.60 48.90 103 <
-6 1 1 2111.40 2024.20 78.00 103 o
6 3 1 254.68 -96.50 68.20 103 <
-11 2 2 36.65 -24.90 42.10 103 <
-10 2 2 51.77 13.80 45.50 103 <
-6 3 2 180.01 174.70 66.70 103 <
-1 4 2 949.49 1019.10 97.70 103 o
5 5 2 1403.30 1123.50 68.40 103 o
6 5 2 300.35 413.30 63.50 103 o
-11 4 3 29.97 25.50 39.60 103 <
-6 5 3 97.18 123.30 58.40 103 <
-1 6 3 764.08 754.20 69.50 103 o
5 7 3 98.25 97.80 54.00 103 <
6 7 3 285.13 150.60 49.00 103 o
-7 7 4 101.45 87.70 42.70 103 <
-6 7 4 43.43 24.60 45.00 103 <
-1 8 4 103.76 123.50 53.10 103 <
5 9 4 135.11 15.80 42.90 103 <
6 9 4 29.03 75.20 40.60 103 <
-7 9 5 51.34 4.30 37.20 103 <
-6 9 5 77.85 88.40 38.80 103 <
-1 10 5 112.78 127.80 41.20 103 o
loop_
_reflns_scale_group_code
_reflns_scale_meas_intensity
1 676.477
2 676.120
3 695.979
4 707.024
5 800.478
6 837.732
7 803.775
8 836.574
9 898.860
10 801.607
11 870.292
12 874.245
13 884.158
14 911.845
15 972.268
16 1002.747
17 1012.251
18 1026.732
19 1039.430
20 1019.579
21 1048.884
22 1048.574
23 1082.596
24 1122.545
25 1140.428
26 1171.355
27 1135.062
28 1133.887
29 1186.141
30 1147.884
31 1188.212
32 1218.609
33 1188.134
34 1217.789
35 1177.787
36 1254.634
37 1237.441
38 1244.834
39 1248.878
40 1222.661
41 1255.953
42 1202.951
43 1192.489
44 1277.284
45 1334.481
46 1263.662
47 1258.210
48 1286.307
49 1236.268
50 1280.454
51 1318.877
52 1246.378
53 1217.865
54 1219.487
55 1210.834
56 1299.478
57 1250.191
58 1189.762
59 1178.379
60 1158.405
61 1160.686
62 1197.067
63 1167.458
64 1181.919
65 1129.552
66 1104.214
67 1090.748
68 1063.490
69 1083.990
70 1045.705
71 1052.103
72 1001.439
73 936.258
74 980.062
75 933.359
76 973.549
77 914.153
78 880.449
79 877.044
80 863.015
81 894.407
82 814.012
83 799.641
84 754.110
85 722.063
86 705.299
87 743.967
88 642.735
89 652.306
90 617.609
91 577.069
92 609.956
93 576.860
94 560.862
95 522.643
96 485.988
97 459.534
98 442.581
99 409.216
100 417.707
101 363.453
102 363.868
103 352.782
