#------------------------------------------------------------------------------
#$Date: 2017-11-21 02:03:23 +0200 (Tue, 21 Nov 2017) $
#$Revision: 203354 $
#$URL: file:///home/coder/svn-repositories/cod/cif/4/12/67/4126741.cif $
#------------------------------------------------------------------------------
#
# This file is available in the Crystallography Open Database (COD),
# http://www.crystallography.net/
#
# All data on this site have been placed in the public domain by the
# contributors.
#
data_4126741
loop_
_publ_author_name
'Nicoud, Sarah'
'Huv\'e, Marielle'
'Hernandez, Olivier'
'Pautrat, Alain'
'Duttine, Mathieu'
'Wattiaux, Alain'
'Colin, Claire'
'Kabbour, Houria'
'Mentr\'e, Olivier'
_publ_section_title
;
 Comprehensive Study of Oxygen Storage in YbFe2O4+x (x &#x2264; 0.5):
 Unprecedented Coexistence of FeOn Polyhedra in One Single Phase.
;
_journal_name_full               'Journal of the American Chemical Society'
_journal_paper_doi               10.1021/jacs.7b06409
_journal_year                    2017
_chemical_formula_sum            'Fe2 O4.846 Yb'
_chemical_formula_weight         362.3
_chemical_name_systematic        ' ?'
_space_group_IT_number           2
_space_group_ssg_name            P-1(\a\b\g)0
_symmetry_cell_setting           triclinic
_symmetry_space_group_name_Hall  '-P 1'
_symmetry_space_group_name_H-M   'P -1'
_cell_angle_alpha                90
_cell_angle_beta                 90
_cell_angle_gamma                120
_cell_formula_units_Z            1
_cell_length_a                   3.4659
_cell_length_b                   3.4659
_cell_length_c                   8.3694
_cell_measurement_temperature    293
_cell_modulation_dimension       1
_cell_volume                     87.068
_diffrn_ambient_temperature      293
_diffrn_radiation_probe          neutron
_diffrn_radiation_wavelength     1.28
_exptl_absorpt_coefficient_mu    0.033
_exptl_crystal_density_diffrn    6.909
_exptl_crystal_F_000             161
_pd_instr_location               ' ?'
_pd_meas_2theta_range_inc        0.1
_pd_meas_2theta_range_max        128.670
_pd_meas_2theta_range_min        0.770
_pd_meas_number_of_points        1280
_pd_proc_2theta_range_inc        0.1
_pd_proc_2theta_range_max        125.07
_pd_proc_2theta_range_min        0.77
_pd_proc_ls_background_function  'Manual background'
_pd_proc_ls_pref_orient_corr     none
_pd_proc_ls_profile_function     Pseudo-Voigt
_pd_proc_ls_prof_R_factor        0.0349
_pd_proc_ls_prof_wR_expected     0.0045
_pd_proc_ls_prof_wR_factor       0.0468
_refine_diff_density_max         1.13
_refine_diff_density_min         -1.04
_refine_ls_goodness_of_fit_all   10.53
_refine_ls_number_constraints    3
_refine_ls_number_parameters     44
_refine_ls_number_restraints     0
_refine_ls_R_factor_all          0.0390
_refine_ls_R_factor_gt           0.0387
_refine_ls_shift/su_max          0.0187
_refine_ls_shift/su_mean         0.0060
_refine_ls_weighting_scheme      sigma
_refine_ls_wR_factor_all         0.0559
_refine_ls_wR_factor_gt          0.0558
_cod_data_source_file            ja7b06409_si_003.cif
_cod_data_source_block           I
_cod_original_cell_volume        87.06789
_cod_original_formula_sum        'Fe2 O4.846 Yb1'
_cod_database_code               4126741
loop_
_space_group_symop_id
_space_group_symop_operation_xyz
1 x,y,z
2 -x,-y,-z
loop_
_space_group_symop_ssg_id
_space_group_symop_ssg_operation_algebraic
1 x1,x2,x3,x4
2 -x1,-x2,-x3,-x4
loop_
_atom_site_label
_atom_site_type_symbol
_atom_site_fract_x
_atom_site_fract_y
_atom_site_fract_z
_atom_site_adp_type
_atom_site_U_iso_or_equiv
_atom_site_site_symmetry_multiplicity
_atom_site_occupancy
_atom_site_calc_flag
Yb1 Yb 0 0 0 Uani 0.048(3) 1 1 d
Fe1 Fe 0.666667 0.333334 0.3446(10) Uiso 0.0229(16) 2 1 d
Oap O 0.666667 0.333334 0.1202(12) Uiso 0.0017(6) 2 1 d
O2a O 0.333334 0.666667 0.4086(13) Uiso 0.0017(6) 2 0.706(19) d
Oint O 0 0 0.3395(17) Uiso 0.0017(6) 2 0.717(16) d
loop_
_atom_site_aniso_label
_atom_site_aniso_type_symbol
_atom_site_aniso_U_11
_atom_site_aniso_U_22
_atom_site_aniso_U_33
_atom_site_aniso_U_12
_atom_site_aniso_U_13
_atom_site_aniso_U_23
Yb1 Yb 0.0145(17) 0.0145(17) 0.114(7) 0.0073(9) 0 0
loop_
_atom_site_displace_Fourier_atom_site_label
_atom_site_displace_Fourier_axis
_atom_site_displace_Fourier_wave_vector_seq_id
_atom_site_displace_Fourier_param_cos
_atom_site_displace_Fourier_param_sin
Yb1 x 1 0 0.011(6)
Yb1 y 1 0 -0.004(5)
Yb1 z 1 0 0.015(3)
Fe1 x 1 -0.019(6) 0.005(5)
Fe1 y 1 -0.009(5) 0.037(4)
Fe1 z 1 0.0036(15) -0.0187(15)
Oap x 1 0.014(7) 0.035(7)
Oap y 1 -0.167(6) -0.070(8)
Oap z 1 -0.014(2) -0.034(2)
loop_
_atom_site_Fourier_wave_vector_seq_id
_jana_atom_site_fourier_wave_vector_q1_coeff
1 1
loop_
_atom_site_occ_special_func_atom_site_label
_atom_site_occ_special_func_crenel_c
_atom_site_occ_special_func_crenel_w
O2a 0.616(9) 0.706(19)
Oint 0.111(9) 0.717(16)
loop_
_atom_type_symbol
_atom_type_scat_length_neutron
_atom_type_scat_source
Yb 12.430 International_Tables_Vol_C
Fe 9.450 International_Tables_Vol_C
O 5.803 International_Tables_Vol_C
loop_
_cell_wave_vector_seq_id
_cell_wave_vector_x
_cell_wave_vector_y
_cell_wave_vector_z
1 0.278433 -0.020035 0.359794
loop_
_geom_bond_atom_site_label_1
_geom_bond_atom_site_label_2
_geom_bond_site_ssg_symmetry_2
_geom_bond_distance_av
_geom_bond_distance_min
_geom_bond_distance_max
Yb1 Oap 1_4455 2.32(2) 1.90(3) 2.66(3)
Yb1 Oap 1_4555 2.22(3) 1.59(4) 2.92(4)
Yb1 Oap . 2.30(2) 2.18(3) 2.40(3)
Yb1 Oap 2_5555 2.30(2) 2.18(3) 2.40(3)
Yb1 Oap 2_6555 2.22(3) 1.59(4) 2.92(4)
Yb1 Oap 2_6655 2.32(2) 1.90(3) 2.66(3)
Yb1 Oint . 2.80(3) 2.46(4) 3.33(4)
Yb1 Oint 2_5555 2.80(3) 2.46(4) 3.33(4)
Fe1 Oap . 1.97(3) 1.79(3) 2.15(3)
Fe1 O2a 1_5455 2.03(3) 1.70(3) 2.38(3)
Fe1 O2a . 2.11(4) 1.89(4) 2.24(4)
Fe1 O2a 1_6555 2.10(3) 1.77(3) 2.29(3)
Fe1 O2a 2_6665 2.16(3) 1.97(3) 2.25(3)
Fe1 Oint . 2.08(3) 1.61(3) 2.27(3)
Fe1 Oint 1_6555 2.05(4) 1.90(4) 2.27(4)
Fe1 Oint 1_6655 2.04(3) 1.65(3) 2.68(3)
loop_
_pd_proc_point_id
_pd_proc_2theta_corrected
_pd_proc_intensity_net
_pd_calc_intensity_net
_pd_proc_ls_weight
1 1.0300 12.00 -38.74 1.00
2 1.1300 9.00 11.52 1.00
3 1.2300 206.00 61.78 3.00
4 1.3300 189.00 112.04 3.16
5 1.4300 205.00 162.29 4.12
6 1.5300 213.00 212.55 2.00
7 1.6300 228.00 283.72 3.46
8 1.7300 314.00 354.89 3.46
9 1.8300 492.00 426.05 4.80
10 1.9300 741.00 649.26 6.16
11 2.0300 838.00 872.47 6.48
12 2.1300 942.00 920.99 6.56
13 2.2300 936.00 969.52 6.40
14 2.3300 995.00 1018.04 5.66
15 2.4300 1104.00 1066.56 7.35
16 2.5300 1115.00 1115.08 7.48
17 2.6300 1140.00 1134.49 8.00
18 2.7300 1160.00 1153.90 7.28
19 2.8300 1171.00 1173.31 6.86
20 2.9300 1234.00 1192.72 8.48
21 3.0300 1224.00 1212.13 6.48
22 3.1300 1313.00 1245.76 6.93
23 3.2300 1392.00 1293.60 8.12
24 3.3300 1439.00 1341.44 8.48
25 3.4300 1485.00 1389.28 8.06
26 3.5300 1503.00 1437.12 8.06
27 3.6300 1448.00 1484.96 8.31
28 3.7300 1537.00 1532.80 8.77
29 3.8300 1540.00 1574.02 7.87
30 3.9300 1607.00 1605.33 8.06
31 4.0300 1647.00 1636.63 8.72
32 4.1300 1739.00 1667.94 10.00
33 4.2300 1719.00 1699.24 9.95
34 4.3300 1677.00 1730.55 8.66
35 4.4300 1804.00 1759.47 9.22
36 4.5300 1731.00 1778.88 9.64
37 4.6300 1846.00 1798.29 9.00
38 4.7300 1738.00 1817.70 9.00
39 4.8300 1809.00 1837.29 8.60
40 4.9300 1893.00 1852.55 9.33
41 5.0300 1846.00 1851.15 9.85
42 5.1300 1851.00 1849.75 9.64
43 5.2300 1885.00 1848.36 9.43
44 5.3300 1898.00 1846.96 9.95
45 5.4300 1802.00 1845.58 9.27
46 5.5300 1840.00 1844.19 10.05
47 5.6300 1863.00 1842.81 9.54
48 5.7300 1831.00 1841.44 9.49
49 5.8300 1918.00 1840.08 9.90
50 5.9300 1855.00 1838.72 8.66
51 6.0300 1913.00 1837.39 9.59
52 6.1300 1742.00 1836.07 9.11
53 6.2300 1813.00 1835.00 9.69
54 6.3300 1771.00 1829.71 8.94
55 6.4300 1820.00 1820.03 9.49
56 6.5300 1769.00 1810.42 8.12
57 6.6300 1844.00 1800.92 9.43
58 6.7300 1739.00 1791.61 9.06
59 6.8300 1677.00 1782.62 9.80
60 6.9300 1762.00 1774.37 9.38
61 7.0300 1751.00 1768.29 8.89
62 7.1300 1754.00 1772.80 8.72
63 7.2300 1788.00 1790.79 9.59
64 7.3300 1736.00 1808.77 8.43
65 7.4300 1710.00 1811.50 8.31
66 7.5300 1748.00 1804.01 8.25
67 7.6300 1766.00 1797.02 8.60
68 7.7300 1777.00 1789.26 10.20
69 7.8300 1845.00 1776.39 9.33
70 7.9300 1766.00 1759.08 8.19
71 8.0300 1750.00 1745.15 9.69
72 8.1300 1702.00 1734.44 9.49
73 8.2300 1745.00 1725.97 9.54
74 8.3300 1705.00 1719.98 8.66
75 8.4300 1711.00 1719.64 8.31
76 8.5300 1726.00 1732.36 8.48
77 8.6300 1652.00 1762.84 8.54
78 8.7300 1706.00 1792.30 8.37
79 8.8300 1685.00 1799.87 9.69
80 8.9300 1648.00 1787.55 9.33
81 9.0300 1642.00 1764.36 8.19
82 9.1300 1721.00 1738.04 8.37
83 9.2300 1710.00 1713.34 8.89
84 9.3300 1728.00 1697.39 8.89
85 9.4300 1688.00 1689.92 9.38
86 9.5300 1736.00 1687.62 8.89
87 9.6300 1671.00 1687.58 9.06
88 9.7300 1724.00 1688.47 9.11
89 9.8300 1760.00 1689.79 9.16
90 9.9300 1736.00 1691.38 8.77
91 10.0300 1654.00 1693.13 8.19
92 10.1300 1713.00 1695.01 8.83
93 10.2300 1716.00 1696.96 9.22
94 10.3300 1722.00 1698.98 9.11
95 10.4300 1722.00 1700.91 9.00
96 10.5300 1702.00 1703.03 8.48
97 10.6300 1710.00 1705.20 9.38
98 10.7300 1673.00 1707.40 8.94
99 10.8300 1704.00 1709.93 10.25
100 10.9300 1707.00 1712.27 9.22
101 11.0300 1678.00 1714.69 7.94
102 11.1300 1707.00 1717.25 8.12
103 11.2300 1772.00 1720.21 9.54
104 11.3300 1727.00 1723.68 9.11
105 11.4300 1792.00 1729.15 8.83
106 11.5300 1627.00 1739.10 9.11
107 11.6300 1782.00 1752.65 8.94
108 11.7300 1763.00 1758.84 9.22
109 11.8300 1753.00 1757.12 8.12
110 11.9300 1772.00 1750.84 9.43
111 12.0300 1750.00 1745.96 8.54
112 12.1300 1814.00 1743.87 9.11
113 12.2300 1748.00 1744.36 9.95
114 12.3300 1733.00 1746.23 9.75
115 12.4300 1843.00 1748.83 10.44
116 12.5300 1858.00 1752.07 9.22
117 12.6300 1769.00 1756.29 9.27
118 12.7300 1793.00 1762.87 8.54
119 12.8300 1820.00 1776.55 9.49
120 12.9300 1792.00 1805.45 9.69
121 13.0300 1766.00 1841.96 8.48
122 13.1300 1807.00 1851.08 10.00
123 13.2300 1743.00 1839.88 9.80
124 13.3300 1760.00 1830.13 9.16
125 13.4300 1833.00 1831.68 9.33
126 13.5300 1836.00 1828.29 9.38
127 13.6300 1826.00 1819.69 9.00
128 13.7300 1820.00 1807.99 9.16
129 13.8300 1832.00 1797.46 9.43
130 13.9300 1806.00 1790.48 9.33
131 14.0300 1882.00 1787.24 9.85
132 14.1300 1724.00 1786.61 9.00
133 14.2300 1840.00 1787.38 9.22
134 14.3300 1757.00 1788.68 7.87
135 14.4300 1765.00 1790.37 9.49
136 14.5300 1795.00 1792.22 8.94
137 14.6300 1820.00 1788.76 9.95
138 14.7300 1803.00 1783.03 8.89
139 14.8300 1774.00 1777.35 8.48
140 14.9300 1819.00 1771.71 9.59
141 15.0300 1794.00 1766.12 9.16
142 15.1300 1729.00 1760.58 9.16
143 15.2300 1799.00 1755.11 8.89
144 15.3300 1721.00 1750.03 8.54
145 15.4300 1754.00 1744.79 9.33
146 15.5300 1731.00 1740.79 8.31
147 15.6300 1707.00 1736.22 9.27
148 15.7300 1820.00 1733.50 9.54
149 15.8300 1682.00 1734.26 8.31
150 15.9300 1744.00 1738.11 8.83
151 16.0300 1732.00 1740.76 7.81
152 16.1300 1702.00 1732.14 8.25
153 16.2300 1727.00 1717.11 8.77
154 16.3300 1761.00 1705.20 8.48
155 16.4300 1742.00 1695.97 8.83
156 16.5300 1777.00 1691.04 10.54
157 16.6300 1775.00 1687.50 10.39
158 16.7300 1728.00 1684.82 9.43
159 16.8300 1762.00 1683.37 9.00
160 16.9300 1717.00 1683.09 9.16
161 17.0300 1697.00 1685.09 9.33
162 17.1300 1730.00 1693.25 8.89
163 17.2300 1759.00 1718.50 8.66
164 17.3300 1719.00 1773.96 8.43
165 17.4300 1789.00 1831.91 9.06
166 17.5300 1891.00 1904.82 9.69
167 17.6300 2176.00 2005.53 10.58
168 17.7300 2063.00 1924.01 9.75
169 17.8300 1888.00 1805.55 8.72
170 17.9300 1796.00 1718.36 9.00
171 18.0300 1666.00 1671.77 9.38
172 18.1300 1734.00 1650.92 9.16
173 18.2300 1619.00 1639.87 9.38
174 18.3300 1661.00 1632.95 8.37
175 18.4300 1653.00 1628.73 9.22
176 18.5300 1669.00 1627.94 8.31
177 18.6300 1603.00 1635.51 8.89
178 18.7300 1658.00 1660.40 9.33
179 18.8300 1622.00 1713.06 8.54
180 18.9300 1646.00 1727.88 8.43
181 19.0300 1674.00 1690.94 8.60
182 19.1300 1584.00 1633.80 7.55
183 19.2300 1593.00 1593.28 8.06
184 19.3300 1632.00 1569.15 8.89
185 19.4300 1605.00 1555.10 8.43
186 19.5300 1601.00 1544.69 9.22
187 19.6300 1583.00 1536.91 9.22
188 19.7300 1687.00 1529.80 9.16
189 19.8300 1626.00 1541.20 8.54
190 19.9300 1539.00 1559.18 8.31
191 20.0300 1601.00 1594.45 8.77
192 20.1300 1657.00 1637.43 8.77
193 20.2300 1657.00 1633.92 8.43
194 20.3300 1597.00 1620.82 8.54
195 20.4300 1601.00 1622.63 8.54
196 20.5300 1731.00 1669.34 9.00
197 20.6300 1762.00 1727.55 9.59
198 20.7300 1717.00 1688.04 9.38
199 20.8300 1687.00 1632.08 8.25
200 20.9300 1690.00 1596.39 8.66
201 21.0300 1699.00 1583.79 8.66
202 21.1300 1692.00 1584.16 8.72
203 21.2300 1734.00 1598.51 8.83
204 21.3300 1748.00 1641.62 8.77
205 21.4300 1737.00 1719.71 8.66
206 21.5300 1651.00 1775.57 8.37
207 21.6300 1728.00 1851.03 8.83
208 21.7300 1801.00 1844.69 9.38
209 21.8300 1877.00 1839.22 9.49
210 21.9300 1843.00 1777.73 9.00
211 22.0300 1879.00 1685.25 8.94
212 22.1300 1761.00 1636.09 9.06
213 22.2300 1831.00 1651.13 8.43
214 22.3300 1698.00 1735.70 9.33
215 22.4300 1806.00 1783.37 9.49
216 22.5300 1707.00 1759.49 9.11
217 22.6300 1736.00 1828.62 9.49
218 22.7300 1654.00 1924.87 8.00
219 22.8300 1688.00 1818.58 7.94
220 22.9300 1691.00 1715.67 8.43
221 23.0300 1752.00 1723.19 9.16
222 23.1300 1739.00 1828.58 9.33
223 23.2300 1676.00 1837.67 9.27
224 23.3300 1741.00 1781.84 8.48
225 23.4300 1708.00 1752.41 9.22
226 23.5300 1701.00 1667.14 9.06
227 23.6300 1697.00 1595.45 9.06
228 23.7300 1667.00 1560.39 9.16
229 23.8300 1760.00 1551.82 8.72
230 23.9300 1733.00 1566.93 8.89
231 24.0300 1641.00 1621.31 9.33
232 24.1300 1663.00 1687.97 7.87
233 24.2300 1710.00 1704.48 8.60
234 24.3300 1681.00 1665.06 8.31
235 24.4300 1791.00 1670.88 10.05
236 24.5300 1899.00 1746.87 9.49
237 24.6300 2039.00 1947.62 10.15
238 24.7300 2209.00 2199.80 10.63
239 24.8300 2260.00 2324.20 9.90
240 24.9300 2344.00 2128.64 10.25
241 25.0300 2198.00 1932.91 9.49
242 25.1300 2275.00 1845.96 10.39
243 25.2300 2218.00 1846.16 10.15
244 25.3300 2282.00 1911.04 10.10
245 25.4300 2224.00 2068.28 10.00
246 25.5300 2274.00 2299.52 10.44
247 25.6300 2280.00 2397.06 10.95
248 25.7300 2436.00 2524.67 11.75
249 25.8300 2645.00 2889.36 10.86
250 25.9300 3253.00 3784.61 12.04
251 26.0300 6066.00 6295.63 16.55
252 26.1300 13775.00 12540.80 24.88
253 26.2300 18220.00 18117.30 29.38
254 26.3300 13292.00 13601.90 24.54
255 26.4300 8725.00 9229.80 21.09
256 26.5300 8749.00 8839.19 20.12
257 26.6300 7409.00 7339.73 17.80
258 26.7300 5121.00 4795.03 15.20
259 26.8300 3653.00 3247.55 13.56
260 26.9300 2948.00 2576.14 11.36
261 27.0300 2364.00 2266.23 10.54
262 27.1300 2132.00 2100.67 9.80
263 27.2300 2055.00 2009.02 10.15
264 27.3300 1997.00 1973.92 9.43
265 27.4300 2065.00 2004.50 9.59
266 27.5300 2143.00 2025.10 9.69
267 27.6300 1990.00 1944.39 9.80
268 27.7300 1952.00 1847.00 8.83
269 27.8300 1860.00 1784.97 10.05
270 27.9300 1793.00 1751.48 8.54
271 28.0300 1759.00 1732.86 8.19
272 28.1300 1634.00 1725.32 8.77
273 28.2300 1744.00 1737.91 9.54
274 28.3300 1748.00 1747.15 9.27
275 28.4300 1757.00 1873.61 9.11
276 28.5300 1771.00 1884.92 8.48
277 28.6300 1729.00 1800.20 8.19
278 28.7300 1715.00 1773.31 8.48
279 28.8300 1863.00 1846.83 9.69
280 28.9300 1793.00 1832.97 9.59
281 29.0300 1803.00 1755.20 9.54
282 29.1300 1714.00 1712.86 8.83
283 29.2300 1724.00 1682.84 8.54
284 29.3300 1773.00 1666.70 8.72
285 29.4300 1793.00 1668.33 9.59
286 29.5300 1760.00 1686.91 9.80
287 29.6300 1852.00 1700.19 9.75
288 29.7300 1781.00 1698.87 10.00
289 29.8300 1816.00 1709.04 9.06
290 29.9300 1798.00 1743.57 8.31
291 30.0300 1903.00 1811.76 9.85
292 30.1300 1971.00 1943.79 9.75
293 30.2300 2570.00 2255.98 10.86
294 30.3300 3437.00 3090.91 13.86
295 30.4300 4568.00 4366.33 14.46
296 30.5300 4053.00 4134.03 13.23
297 30.6300 2746.00 2982.53 11.23
298 30.7300 2191.00 2298.03 10.20
299 30.8300 2030.00 2043.86 9.43
300 30.9300 1864.00 1889.54 8.31
301 31.0300 1954.00 1797.00 9.90
302 31.1300 1934.00 1774.84 9.16
303 31.2300 2032.00 1824.76 10.05
304 31.3300 2031.00 1963.98 9.06
305 31.4300 2135.00 2110.38 9.95
306 31.5300 2103.00 2199.94 10.20
307 31.6300 2168.00 2207.15 9.59
308 31.7300 2203.00 2111.53 9.59
309 31.8300 2098.00 2072.74 9.69
310 31.9300 2317.00 2160.93 10.86
311 32.0300 2147.00 2254.57 10.44
312 32.1300 2156.00 2092.18 10.10
313 32.2300 2170.00 1984.68 9.33
314 32.3300 2265.00 2183.76 10.58
315 32.4300 2286.00 2678.00 11.05
316 32.5300 2325.00 2758.87 10.86
317 32.6300 2459.00 2358.18 9.69
318 32.7300 2395.00 2087.83 9.95
319 32.8300 2435.00 2064.75 10.77
320 32.9300 2401.00 2295.24 10.82
321 33.0300 2345.00 2678.91 10.54
322 33.1300 2304.00 2509.00 10.00
323 33.2300 2244.00 2073.23 10.39
324 33.3300 2143.00 1852.52 10.30
325 33.4300 2085.00 1822.40 10.20
326 33.5300 2068.00 1908.79 10.15
327 33.6300 2006.00 2003.61 9.85
328 33.7300 1900.00 2004.79 9.06
329 33.8300 1949.00 1882.13 9.80
330 33.9300 1888.00 1782.07 8.72
331 34.0300 1964.00 1751.70 10.25
332 34.1300 1938.00 1762.65 8.60
333 34.2300 1919.00 1771.96 9.85
334 34.3300 1862.00 1755.16 9.38
335 34.4300 1887.00 1753.20 9.75
336 34.5300 1891.00 1774.43 10.10
337 34.6300 1850.00 1817.81 9.33
338 34.7300 1863.00 1847.72 9.11
339 34.8300 1898.00 1877.13 9.54
340 34.9300 1944.00 1944.60 9.22
341 35.0300 2028.00 2007.55 9.27
342 35.1300 2066.00 2022.52 9.33
343 35.2300 1995.00 2066.68 10.25
344 35.3300 2036.00 2217.40 9.59
345 35.4300 2392.00 2475.45 10.68
346 35.5300 2981.00 3022.67 10.95
347 35.6300 3635.00 3740.77 13.45
348 35.7300 3508.00 3548.19 12.61
349 35.8300 2852.00 2880.38 11.87
350 35.9300 2551.00 2460.73 11.49
351 36.0300 2325.00 2216.16 10.39
352 36.1300 2370.00 2100.38 11.45
353 36.2300 2201.00 2140.95 10.54
354 36.3300 2495.00 2440.56 11.45
355 36.4300 3141.00 3135.97 12.21
356 36.5300 3546.00 3743.48 12.61
357 36.6300 3060.00 3260.93 12.25
358 36.7300 2496.00 2564.75 11.14
359 36.8300 2372.00 2301.89 10.39
360 36.9300 2161.00 2335.88 10.58
361 37.0300 2175.00 2315.42 9.64
362 37.1300 2056.00 2190.29 9.75
363 37.2300 2188.00 2048.84 10.25
364 37.3300 2160.00 1974.51 9.33
365 37.4300 2043.00 1965.38 9.75
366 37.5300 2189.00 1959.47 10.63
367 37.6300 2069.00 1943.41 10.20
368 37.7300 2077.00 1922.76 10.34
369 37.8300 2066.00 1911.73 8.89
370 37.9300 2170.00 1924.67 10.58
371 38.0300 2040.00 1979.33 10.05
372 38.1300 2068.00 2098.24 10.05
373 38.2300 2011.00 2129.95 10.25
374 38.3300 1973.00 2041.39 9.22
375 38.4300 2007.00 1958.46 10.00
376 38.5300 1857.00 1916.94 8.31
377 38.6300 1892.00 1928.76 10.15
378 38.7300 1964.00 1942.49 9.49
379 38.8300 1879.00 1942.65 9.59
380 38.9300 1936.00 1929.57 9.64
381 39.0300 1983.00 1944.73 9.49
382 39.1300 2139.00 2050.45 10.15
383 39.2300 2094.00 2156.79 9.95
384 39.3300 2093.00 2146.40 10.05
385 39.4300 2139.00 2171.19 10.00
386 39.5300 2220.00 2268.35 11.27
387 39.6300 2249.00 2235.59 10.86
388 39.7300 2081.00 2080.83 9.85
389 39.8300 2084.00 1964.65 9.54
390 39.9300 2025.00 1911.21 10.68
391 40.0300 1915.00 1895.46 9.54
392 40.1300 1934.00 1879.88 10.15
393 40.2300 1823.00 1847.86 8.89
394 40.3300 1834.00 1827.25 8.72
395 40.4300 1877.00 1825.36 9.38
396 40.5300 1802.00 1835.17 8.48
397 40.6300 1889.00 1880.46 9.33
398 40.7300 1914.00 1870.25 9.16
399 40.8300 1847.00 1861.44 9.59
400 40.9300 1821.00 1856.18 8.31
401 41.0300 1784.00 1862.39 9.75
402 41.1300 1916.00 1865.35 9.49
403 41.2300 1780.00 1887.75 8.94
404 41.3300 1821.00 1928.39 9.90
405 41.4300 1914.00 1987.60 9.59
406 41.5300 1908.00 2038.16 9.27
407 41.6300 1931.00 2023.21 9.80
408 41.7300 2132.00 1990.10 10.77
409 41.8300 2065.00 1977.32 9.64
410 41.9300 2130.00 1986.82 10.30
411 42.0300 2110.00 2008.87 9.90
412 42.1300 2331.00 2037.69 10.77
413 42.2300 2260.00 2066.70 9.69
414 42.3300 2277.00 2102.70 10.82
415 42.4300 2277.00 2154.40 9.95
416 42.5300 2303.00 2228.06 10.34
417 42.6300 2219.00 2332.76 10.15
418 42.7300 2342.00 2485.68 10.82
419 42.8300 2529.00 2725.00 11.00
420 42.9300 2635.00 3159.89 10.86
421 43.0300 3457.00 4142.28 12.04
422 43.1300 5684.00 6484.97 16.16
423 43.2300 11361.00 10960.90 22.74
424 43.3300 16790.00 15997.60 28.86
425 43.4300 16268.00 16010.80 27.68
426 43.5300 12058.00 11829.20 24.21
427 43.6300 9307.00 9190.65 20.40
428 43.7300 9666.00 9243.81 22.29
429 43.8300 9196.00 9252.42 20.00
430 43.9300 6981.00 7156.36 19.10
431 44.0300 4785.00 4891.80 14.39
432 44.1300 3636.00 3611.16 12.08
433 44.2300 3195.00 3141.74 12.61
434 44.3300 3169.00 3020.42 11.92
435 44.4300 2919.00 2897.89 11.14
436 44.5300 2754.00 2755.26 10.58
437 44.6300 2470.00 2639.38 10.34
438 44.7300 2493.00 2522.24 11.05
439 44.8300 2377.00 2405.95 10.49
440 44.9300 2361.00 2324.09 10.39
441 45.0300 2340.00 2270.00 10.72
442 45.1300 2296.00 2211.34 9.80
443 45.2300 2224.00 2153.03 9.64
444 45.3300 2250.00 2095.51 9.54
445 45.4300 2262.00 2060.73 10.10
446 45.5300 2152.00 2061.22 9.95
447 45.6300 2201.00 2080.60 10.00
448 45.7300 2120.00 2088.96 9.80
449 45.8300 2023.00 2100.46 10.39
450 45.9300 1960.00 2138.89 9.43
451 46.0300 2096.00 2185.59 10.39
452 46.1300 2030.00 2208.99 9.16
453 46.2300 2046.00 2163.23 9.00
454 46.3300 2082.00 2136.89 10.49
455 46.4300 2122.00 2099.09 8.77
456 46.5300 2203.00 2045.64 11.05
457 46.6300 2133.00 1997.42 10.05
458 46.7300 2072.00 1973.96 9.22
459 46.8300 2101.00 2010.80 9.80
460 46.9300 2123.00 2080.99 9.85
461 47.0300 2129.00 2163.29 10.20
462 47.1300 2322.00 2219.63 11.00
463 47.2300 2239.00 2195.33 9.49
464 47.3300 2136.00 2116.61 9.69
465 47.4300 2109.00 2041.14 9.75
466 47.5300 1967.00 1995.05 8.89
467 47.6300 1943.00 1997.01 10.20
468 47.7300 1971.00 2029.74 9.75
469 47.8300 1973.00 2039.29 9.64
470 47.9300 2032.00 1997.45 9.11
471 48.0300 1866.00 1951.16 8.12
472 48.1300 1914.00 1925.70 9.59
473 48.2300 1970.00 1943.03 9.38
474 48.3300 1947.00 1978.75 9.69
475 48.4300 1968.00 2033.54 10.20
476 48.5300 2069.00 2088.49 9.90
477 48.6300 2018.00 2098.65 10.34
478 48.7300 2011.00 2087.83 9.27
479 48.8300 1943.00 2087.84 9.49
480 48.9300 2055.00 2083.10 9.75
481 49.0300 1989.00 2064.70 9.69
482 49.1300 2107.00 2065.66 8.54
483 49.2300 2056.00 2100.59 9.54
484 49.3300 2081.00 2154.49 9.59
485 49.4300 2082.00 2188.04 10.15
486 49.5300 2088.00 2173.93 10.30
487 49.6300 2135.00 2143.65 10.10
488 49.7300 2178.00 2154.30 10.10
489 49.8300 2175.00 2218.12 11.00
490 49.9300 2258.00 2301.90 10.34
491 50.0300 2303.00 2378.55 10.72
492 50.1300 2330.00 2417.47 10.20
493 50.2300 2466.00 2418.10 9.95
494 50.3300 2504.00 2472.76 11.27
495 50.4300 2615.00 2597.08 11.05
496 50.5300 2622.00 2671.48 10.63
497 50.6300 2774.00 2604.28 12.29
498 50.7300 2736.00 2518.84 11.36
499 50.8300 2940.00 2543.01 12.00
500 50.9300 3107.00 2742.59 12.81
501 51.0300 3414.00 3193.87 12.21
502 51.1300 4150.00 4032.12 13.19
503 51.2300 5649.00 5452.24 16.52
504 51.3300 7438.00 7371.00 18.76
505 51.4300 8652.00 9128.34 20.42
506 51.5300 9363.00 9951.48 20.91
507 51.6300 8766.00 9172.36 18.95
508 51.7300 7672.00 7574.73 18.11
509 51.8300 6762.00 6437.07 17.78
510 51.9300 5632.00 5759.35 16.52
511 52.0300 4743.00 4892.22 15.10
512 52.1300 3862.00 3880.88 14.11
513 52.2300 3184.00 3097.76 12.33
514 52.3300 2781.00 2649.36 11.79
515 52.4300 2453.00 2454.07 11.09
516 52.5300 2346.00 2380.41 10.34
517 52.6300 2224.00 2318.31 9.49
518 52.7300 2187.00 2247.27 10.54
519 52.8300 2158.00 2209.68 9.54
520 52.9300 2154.00 2207.68 9.54
521 53.0300 2202.00 2193.88 10.10
522 53.1300 2122.00 2147.35 9.90
523 53.2300 2253.00 2104.98 10.72
524 53.3300 2226.00 2102.39 10.49
525 53.4300 2246.00 2154.09 10.58
526 53.5300 2420.00 2252.76 10.34
527 53.6300 2372.00 2413.43 11.45
528 53.7300 2736.00 2646.16 10.58
529 53.8300 2918.00 2880.95 11.83
530 53.9300 2901.00 2940.85 12.00
531 54.0300 2658.00 2755.81 11.49
532 54.1300 2555.00 2479.63 10.54
533 54.2300 2334.00 2268.96 10.25
534 54.3300 2266.00 2183.63 10.49
535 54.4300 2157.00 2212.03 10.10
536 54.5300 2321.00 2292.87 10.00
537 54.6300 2229.00 2334.19 10.44
538 54.7300 2210.00 2291.71 9.33
539 54.8300 2180.00 2224.57 10.58
540 54.9300 2129.00 2194.20 10.30
541 55.0300 2080.00 2174.19 10.30
542 55.1300 2185.00 2162.28 10.68
543 55.2300 2182.00 2140.13 9.69
544 55.3300 2134.00 2114.05 10.30
545 55.4300 2103.00 2086.06 9.80
546 55.5300 2188.00 2084.14 9.59
547 55.6300 2138.00 2089.04 10.25
548 55.7300 2033.00 2072.76 9.43
549 55.8300 1984.00 2043.96 9.64
550 55.9300 1992.00 2013.39 9.64
551 56.0300 1949.00 1975.83 9.11
552 56.1300 1917.00 1941.17 10.10
553 56.2300 1995.00 1924.80 9.33
554 56.3300 2003.00 1927.14 9.75
555 56.4300 1967.00 1940.93 9.11
556 56.5300 2037.00 1957.36 9.43
557 56.6300 2095.00 1962.50 10.54
558 56.7300 2059.00 1968.32 10.54
559 56.8300 2024.00 2000.41 9.90
560 56.9300 2038.00 2115.77 9.59
561 57.0300 2287.00 2358.43 11.23
562 57.1300 2509.00 2722.57 10.25
563 57.2300 2985.00 3107.13 11.79
564 57.3300 3170.00 3285.05 11.45
565 57.4300 3097.00 3103.69 11.53
566 57.5300 2912.00 2744.01 10.95
567 57.6300 2676.00 2458.53 11.27
568 57.7300 2599.00 2317.73 10.91
569 57.8300 2483.00 2315.82 11.49
570 57.9300 2524.00 2357.37 10.68
571 58.0300 2292.00 2345.74 10.86
572 58.1300 2210.00 2270.17 10.15
573 58.2300 2021.00 2172.13 9.54
574 58.3300 2025.00 2087.63 9.49
575 58.4300 1972.00 2031.82 8.83
576 58.5300 2000.00 2005.97 9.90
577 58.6300 1972.00 2001.58 9.16
578 58.7300 2025.00 2014.40 9.69
579 58.8300 1977.00 2039.64 9.38
580 58.9300 2210.00 2064.98 10.39
581 59.0300 2226.00 2096.31 10.54
582 59.1300 2299.00 2138.58 9.38
583 59.2300 2371.00 2189.09 9.90
584 59.3300 2447.00 2259.58 9.95
585 59.4300 2532.00 2351.22 10.82
586 59.5300 2603.00 2461.89 11.62
587 59.6300 2614.00 2582.81 11.70
588 59.7300 2564.00 2668.67 11.45
589 59.8300 2678.00 2671.34 11.66
590 59.9300 2500.00 2595.08 10.20
591 60.0300 2581.00 2467.56 11.58
592 60.1300 2399.00 2335.28 10.68
593 60.2300 2442.00 2245.77 11.18
594 60.3300 2286.00 2211.69 11.00
595 60.4300 2361.00 2221.68 10.34
596 60.5300 2295.00 2266.61 10.25
597 60.6300 2337.00 2329.93 10.25
598 60.7300 2444.00 2369.27 11.14
599 60.8300 2253.00 2341.27 9.54
600 60.9300 2322.00 2255.09 10.44
601 61.0300 2154.00 2162.30 10.15
602 61.1300 2278.00 2096.73 10.15
603 61.2300 2046.00 2060.61 9.49
604 61.3300 2096.00 2044.51 10.77
605 61.4300 1948.00 2048.17 8.54
606 61.5300 1915.00 2056.11 8.94
607 61.6300 1955.00 2049.30 8.60
608 61.7300 1974.00 2019.82 10.30
609 61.8300 1957.00 1980.73 9.00
610 61.9300 1943.00 1948.11 9.11
611 62.0300 1923.00 1928.34 8.94
612 62.1300 1902.00 1927.43 9.59
613 62.2300 2020.00 1945.42 10.82
614 62.3300 1924.00 1979.78 9.16
615 62.4300 1880.00 2024.81 9.64
616 62.5300 1964.00 2073.16 9.90
617 62.6300 1988.00 2120.92 9.80
618 62.7300 2076.00 2180.27 10.49
619 62.8300 2055.00 2281.34 9.85
620 62.9300 2262.00 2455.79 11.05
621 63.0300 2472.00 2720.17 10.58
622 63.1300 2959.00 3049.64 12.17
623 63.2300 3363.00 3344.94 12.12
624 63.3300 3454.00 3441.30 12.65
625 63.4300 3185.00 3257.59 12.37
626 63.5300 2776.00 2909.89 11.09
627 63.6300 2415.00 2557.83 10.54
628 63.7300 2218.00 2291.44 10.30
629 63.8300 2011.00 2135.94 10.00
630 63.9300 1957.00 2075.89 9.27
631 64.0300 2002.00 2079.03 9.54
632 64.1300 1935.00 2108.41 9.33
633 64.2300 1981.00 2132.05 10.39
634 64.3300 2016.00 2138.70 9.54
635 64.4300 1919.00 2131.29 9.38
636 64.5300 1934.00 2124.38 9.75
637 64.6300 1924.00 2118.34 9.69
638 64.7300 2002.00 2101.96 9.64
639 64.8300 1888.00 2070.71 9.80
640 64.9300 2003.00 2035.36 9.64
641 65.0300 2021.00 2001.73 9.85
642 65.1300 1942.00 1971.83 9.69
643 65.2300 1968.00 1950.59 9.22
644 65.3300 1930.00 1939.35 9.43
645 65.4300 1918.00 1936.59 8.48
646 65.5300 1949.00 1940.03 9.16
647 65.6300 1955.00 1948.88 9.85
648 65.7300 1977.00 1959.83 10.86
649 65.8300 1899.00 1964.38 9.27
650 65.9300 1925.00 1951.91 9.69
651 66.0300 1868.00 1921.95 10.00
652 66.1300 1850.00 1888.59 10.15
653 66.2300 1851.00 1866.16 10.10
654 66.3300 1834.00 1856.65 9.95
655 66.4300 1801.00 1858.12 10.15
656 66.5300 1812.00 1865.32 9.11
657 66.6300 1858.00 1873.17 9.43
658 66.7300 1833.00 1880.42 9.11
659 66.8300 1849.00 1888.35 9.69
660 66.9300 1794.00 1896.32 9.43
661 67.0300 1840.00 1907.70 9.90
662 67.1300 1874.00 1919.47 8.72
663 67.2300 1854.00 1931.69 8.60
664 67.3300 1917.00 1944.68 9.80
665 67.4300 1850.00 1959.87 9.95
666 67.5300 1871.00 1974.73 8.77
667 67.6300 1842.00 1983.42 9.27
668 67.7300 1884.00 1981.12 9.43
669 67.8300 1863.00 1967.16 8.60
670 67.9300 1856.00 1946.05 8.66
671 68.0300 1858.00 1932.44 10.15
672 68.1300 1827.00 1935.10 8.54
673 68.2300 1904.00 1959.17 9.85
674 68.3300 1916.00 2001.84 8.25
675 68.4300 1990.00 2053.63 9.95
676 68.5300 2045.00 2105.28 10.00
677 68.6300 2081.00 2156.17 10.05
678 68.7300 2105.00 2215.43 9.38
679 68.8300 2204.00 2307.43 10.25
680 68.9300 2399.00 2469.39 9.69
681 69.0300 2584.00 2732.73 11.36
682 69.1300 2948.00 3098.66 11.75
683 69.2300 3607.00 3518.71 14.04
684 69.3300 3900.00 3882.13 13.68
685 69.4300 3960.00 4047.82 13.30
686 69.5300 3935.00 3966.98 13.38
687 69.6300 3834.00 3740.32 14.00
688 69.7300 3547.00 3493.48 13.23
689 69.8300 3446.00 3278.89 12.61
690 69.9300 3123.00 3083.03 11.79
691 70.0300 2850.00 2890.48 11.18
692 70.1300 2593.00 2715.90 10.15
693 70.2300 2594.00 2571.28 10.68
694 70.3300 2322.00 2448.56 11.09
695 70.4300 2341.00 2332.42 10.44
696 70.5300 2130.00 2221.29 9.33
697 70.6300 2123.00 2127.75 9.38
698 70.7300 2185.00 2063.59 9.85
699 70.8300 2166.00 2036.99 9.16
700 70.9300 2164.00 2055.04 9.95
701 71.0300 2123.00 2126.11 10.44
702 71.1300 2314.00 2256.07 10.30
703 71.2300 2448.00 2439.46 11.05
704 71.3300 2661.00 2652.63 10.95
705 71.4300 2793.00 2848.50 11.96
706 71.5300 2945.00 2965.46 11.62
707 71.6300 2924.00 2966.73 12.29
708 71.7300 2864.00 2881.83 11.96
709 71.8300 2712.00 2772.95 11.49
710 71.9300 2727.00 2682.59 11.53
711 72.0300 2709.00 2618.87 10.72
712 72.1300 2695.00 2562.51 10.72
713 72.2300 2614.00 2487.08 10.34
714 72.3300 2451.00 2384.96 11.09
715 72.4300 2464.00 2270.06 10.68
716 72.5300 2237.00 2160.54 10.39
717 72.6300 2177.00 2068.01 10.54
718 72.7300 2125.00 1997.77 10.00
719 72.8300 2021.00 1950.58 9.38
720 72.9300 1922.00 1924.19 9.38
721 73.0300 1954.00 1913.54 9.69
722 73.1300 1867.00 1914.12 9.33
723 73.2300 1850.00 1924.44 9.54
724 73.3300 1860.00 1938.51 9.85
725 73.4300 1881.00 1952.29 9.06
726 73.5300 1888.00 1959.57 8.72
727 73.6300 1832.00 1955.59 9.33
728 73.7300 1916.00 1942.80 9.64
729 73.8300 1827.00 1924.97 8.89
730 73.9300 1889.00 1907.02 9.33
731 74.0300 1873.00 1893.47 9.27
732 74.1300 1994.00 1888.04 9.95
733 74.2300 1939.00 1893.14 9.33
734 74.3300 1912.00 1910.91 10.20
735 74.4300 2013.00 1941.25 9.27
736 74.5300 1975.00 1988.16 9.16
737 74.6300 2041.00 2052.01 10.00
738 74.7300 2200.00 2135.95 11.14
739 74.8300 2293.00 2226.02 10.05
740 74.9300 2253.00 2300.46 9.69
741 75.0300 2407.00 2332.83 10.63
742 75.1300 2229.00 2308.70 10.15
743 75.2300 2235.00 2243.41 11.70
744 75.3300 2246.00 2163.51 9.11
745 75.4300 2186.00 2092.92 9.16
746 75.5300 2047.00 2045.52 9.85
747 75.6300 2032.00 2025.07 10.15
748 75.7300 2037.00 2027.84 8.89
749 75.8300 1993.00 2047.73 10.05
750 75.9300 2067.00 2076.67 10.72
751 76.0300 1971.00 2102.51 9.80
752 76.1300 1982.00 2120.01 8.94
753 76.2300 2004.00 2129.41 9.00
754 76.3300 2005.00 2134.48 10.10
755 76.4300 1998.00 2139.15 9.80
756 76.5300 2102.00 2145.34 10.54
757 76.6300 2086.00 2153.04 9.95
758 76.7300 2122.00 2162.50 9.59
759 76.8300 2190.00 2175.74 10.05
760 76.9300 2196.00 2194.64 10.10
761 77.0300 2251.00 2221.65 10.54
762 77.1300 2311.00 2251.79 11.00
763 77.2300 2260.00 2281.38 10.25
764 77.3300 2380.00 2308.69 10.63
765 77.4300 2485.00 2331.73 10.49
766 77.5300 2454.00 2344.70 9.80
767 77.6300 2461.00 2342.88 10.77
768 77.7300 2361.00 2325.86 10.58
769 77.8300 2418.00 2298.86 10.25
770 77.9300 2520.00 2266.77 10.68
771 78.0300 2328.00 2236.45 10.72
772 78.1300 2363.00 2215.08 10.82
773 78.2300 2371.00 2207.11 10.49
774 78.3300 2430.00 2211.97 10.44
775 78.4300 2304.00 2216.98 11.00
776 78.5300 2316.00 2230.71 9.64
777 78.6300 2406.00 2250.87 10.68
778 78.7300 2283.00 2285.55 10.05
779 78.8300 2438.00 2326.90 10.91
780 78.9300 2491.00 2401.20 10.95
781 79.0300 2673.00 2546.34 11.83
782 79.1300 2823.00 2777.80 11.27
783 79.2300 3194.00 3070.14 12.49
784 79.3300 3587.00 3403.75 13.19
785 79.4300 3907.00 3737.53 13.49
786 79.5300 4320.00 4013.97 13.82
787 79.6300 4282.00 4182.79 15.13
788 79.7300 4392.00 4222.45 14.18
789 79.8300 4355.00 4132.37 14.83
790 79.9300 4066.00 3929.22 14.35
791 80.0300 3688.00 3658.29 13.27
792 80.1300 3433.00 3378.98 12.41
793 80.2300 3215.00 3137.91 12.45
794 80.3300 3116.00 2960.47 12.61
795 80.4300 3143.00 2852.13 11.75
796 80.5300 2928.00 2800.23 11.40
797 80.6300 2972.00 2778.02 11.75
798 80.7300 2855.00 2751.46 11.75
799 80.8300 2652.00 2692.34 11.23
800 80.9300 2556.00 2594.83 11.18
801 81.0300 2409.00 2470.79 10.30
802 81.1300 2284.00 2339.11 11.23
803 81.2300 2228.00 2216.91 10.34
804 81.3300 2098.00 2116.14 10.05
805 81.4300 2010.00 2042.44 9.49
806 81.5300 2041.00 1995.23 9.59
807 81.6300 1937.00 1969.74 10.00
808 81.7300 1926.00 1959.89 9.85
809 81.8300 1951.00 1959.32 9.59
810 81.9300 1970.00 1962.24 9.54
811 82.0300 1958.00 1964.93 9.69
812 82.1300 1828.00 1965.42 9.49
813 82.2300 1917.00 1962.92 9.59
814 82.3300 2004.00 1957.08 9.85
815 82.4300 1925.00 1949.13 9.22
816 82.5300 1968.00 1942.74 9.69
817 82.6300 2035.00 1940.48 9.85
818 82.7300 1867.00 1942.37 9.38
819 82.8300 1938.00 1947.89 9.49
820 82.9300 2007.00 1956.02 10.00
821 83.0300 1998.00 1966.86 9.80
822 83.1300 2060.00 1981.96 9.95
823 83.2300 1982.00 2002.63 9.00
824 83.3300 2035.00 2028.09 9.43
825 83.4300 2069.00 2054.05 9.43
826 83.5300 2016.00 2074.51 10.00
827 83.6300 2081.00 2084.19 9.69
828 83.7300 2001.00 2081.11 9.33
829 83.8300 1989.00 2066.48 10.10
830 83.9300 1962.00 2043.08 9.75
831 84.0300 1943.00 2015.07 10.10
832 84.1300 1968.00 1987.31 10.30
833 84.2300 1887.00 1962.97 10.00
834 84.3300 1945.00 1944.31 9.49
835 84.4300 1984.00 1933.55 9.59
836 84.5300 2024.00 1933.76 9.33
837 84.6300 1966.00 1947.10 10.68
838 84.7300 1915.00 1976.12 9.11
839 84.8300 2106.00 2024.81 9.95
840 84.9300 2133.00 2098.22 10.72
841 85.0300 2165.00 2201.70 10.34
842 85.1300 2293.00 2338.37 10.95
843 85.2300 2401.00 2506.96 10.10
844 85.3300 2581.00 2698.10 11.31
845 85.4300 2869.00 2891.91 11.70
846 85.5300 3012.00 3059.37 12.21
847 85.6300 3272.00 3169.36 12.21
848 85.7300 3164.00 3203.45 12.41
849 85.8300 3220.00 3163.54 12.33
850 85.9300 3086.00 3063.73 12.00
851 86.0300 3014.00 2927.43 11.31
852 86.1300 2798.00 2775.54 11.53
853 86.2300 2627.00 2625.62 11.45
854 86.3300 2532.00 2491.07 11.23
855 86.4300 2331.00 2374.01 10.10
856 86.5300 2274.00 2276.03 9.90
857 86.6300 2203.00 2192.93 9.33
858 86.7300 2191.00 2123.16 9.27
859 86.8300 2130.00 2067.18 10.49
860 86.9300 2112.00 2024.31 9.43
861 87.0300 2032.00 1994.13 9.80
862 87.1300 2053.00 1975.68 10.00
863 87.2300 2088.00 1967.98 10.63
864 87.3300 1977.00 1968.80 9.11
865 87.4300 2039.00 1977.71 10.10
866 87.5300 1931.00 1991.43 9.16
867 87.6300 1914.00 2006.71 9.54
868 87.7300 2017.00 2019.76 9.43
869 87.8300 1913.00 2027.21 8.72
870 87.9300 2021.00 2026.88 10.30
871 88.0300 1969.00 2020.50 9.00
872 88.1300 1956.00 2010.32 10.34
873 88.2300 1890.00 2000.00 9.49
874 88.3300 1930.00 1992.59 8.60
875 88.4300 1959.00 1989.53 9.64
876 88.5300 2017.00 1991.16 9.59
877 88.6300 1901.00 1996.91 9.90
878 88.7300 2077.00 2007.76 9.80
879 88.8300 2084.00 2021.57 10.39
880 88.9300 1936.00 2035.80 9.43
881 89.0300 2039.00 2049.70 9.85
882 89.1300 2082.00 2063.25 8.94
883 89.2300 2230.00 2076.49 10.34
884 89.3300 2223.00 2090.01 10.39
885 89.4300 2345.00 2104.88 10.34
886 89.5300 2337.00 2121.97 11.14
887 89.6300 2339.00 2141.41 11.09
888 89.7300 2379.00 2162.43 10.44
889 89.8300 2387.00 2183.51 10.15
890 89.9300 2409.00 2203.30 10.68
891 90.0300 2445.00 2217.04 10.63
892 90.1300 2413.00 2222.84 9.85
893 90.2300 2507.00 2227.45 10.10
894 90.3300 2381.00 2230.40 10.68
895 90.4300 2417.00 2231.18 10.49
896 90.5300 2336.00 2230.44 10.86
897 90.6300 2343.00 2228.36 9.85
898 90.7300 2308.00 2224.74 10.63
899 90.8300 2317.00 2218.66 10.10
900 90.9300 2242.00 2209.69 10.77
901 91.0300 2169.00 2198.12 9.95
902 91.1300 2206.00 2191.81 9.75
903 91.2300 2144.00 2186.79 10.30
904 91.3300 2177.00 2185.61 10.30
905 91.4300 2141.00 2190.46 9.90
906 91.5300 2163.00 2202.96 9.90
907 91.6300 2274.00 2222.53 10.39
908 91.7300 2247.00 2246.98 10.49
909 91.8300 2289.00 2274.05 10.05
910 91.9300 2427.00 2300.15 10.20
911 92.0300 2369.00 2321.35 10.77
912 92.1300 2441.00 2333.89 10.15
913 92.2300 2362.00 2335.37 11.36
914 92.3300 2364.00 2325.43 10.63
915 92.4300 2344.00 2303.98 10.86
916 92.5300 2285.00 2275.58 10.25
917 92.6300 2238.00 2248.05 10.95
918 92.7300 2219.00 2224.66 10.20
919 92.8300 2146.00 2205.92 10.15
920 92.9300 2185.00 2193.78 9.80
921 93.0300 2215.00 2185.70 10.72
922 93.1300 2190.00 2178.79 10.10
923 93.2300 2200.00 2170.34 9.49
924 93.3300 2211.00 2157.39 9.33
925 93.4300 2168.00 2138.83 9.69
926 93.5300 2100.00 2116.02 9.43
927 93.6300 2131.00 2091.75 9.95
928 93.7300 2014.00 2068.75 10.44
929 93.8300 2075.00 2052.77 9.49
930 93.9300 2068.00 2045.66 9.49
931 94.0300 2024.00 2046.53 10.05
932 94.1300 2029.00 2056.34 9.90
933 94.2300 2103.00 2075.78 9.95
934 94.3300 2051.00 2105.33 10.05
935 94.4300 2171.00 2145.54 11.09
936 94.5300 2267.00 2196.64 9.95
937 94.6300 2210.00 2258.10 10.30
938 94.7300 2277.00 2328.03 11.31
939 94.8300 2559.00 2403.04 11.58
940 94.9300 2570.00 2477.95 12.12
941 95.0300 2746.00 2546.01 11.31
942 95.1300 2682.00 2599.65 11.66
943 95.2300 2721.00 2632.50 9.80
944 95.3300 2805.00 2642.27 11.58
945 95.4300 2679.00 2631.91 11.23
946 95.5300 2683.00 2608.07 10.34
947 95.6300 2573.00 2578.01 11.66
948 95.7300 2601.00 2548.02 11.40
949 95.8300 2539.00 2522.50 11.49
950 95.9300 2467.00 2502.48 11.09
951 96.0300 2379.00 2485.42 10.63
952 96.1300 2505.00 2471.93 10.34
953 96.2300 2533.00 2457.91 9.80
954 96.3300 2475.00 2438.87 11.27
955 96.4300 2386.00 2411.06 10.15
956 96.5300 2333.00 2373.47 10.15
957 96.6300 2370.00 2327.89 10.95
958 96.7300 2373.00 2278.24 10.25
959 96.8300 2302.00 2228.94 11.14
960 96.9300 2249.00 2183.99 9.90
961 97.0300 2236.00 2145.83 9.80
962 97.1300 2255.00 2116.34 10.05
963 97.2300 2274.00 2095.85 9.90
964 97.3300 2140.00 2084.00 10.30
965 97.4300 2195.00 2079.74 9.69
966 97.5300 2182.00 2081.83 9.75
967 97.6300 2149.00 2088.32 9.38
968 97.7300 2074.00 2097.67 9.59
969 97.8300 2168.00 2108.77 10.10
970 97.9300 2052.00 2119.97 9.59
971 98.0300 2111.00 2130.07 10.58
972 98.1300 2087.00 2138.35 9.11
973 98.2300 2063.00 2144.48 9.27
974 98.3300 2076.00 2148.71 10.20
975 98.4300 2023.00 2150.75 9.49
976 98.5300 2063.00 2150.47 9.11
977 98.6300 2121.00 2147.78 9.69
978 98.7300 2111.00 2142.78 10.86
979 98.8300 2162.00 2135.73 9.11
980 98.9300 2015.00 2127.16 9.59
981 99.0300 2098.00 2117.45 10.77
982 99.1300 2141.00 2107.21 9.38
983 99.2300 2075.00 2097.52 9.80
984 99.3300 2088.00 2089.35 10.20
985 99.4300 2174.00 2083.10 10.10
986 99.5300 2070.00 2078.91 10.82
987 99.6300 2079.00 2076.70 10.39
988 99.7300 2094.00 2075.85 9.64
989 99.8300 2139.00 2076.70 10.05
990 99.9300 2048.00 2080.10 9.22
991 100.0300 2026.00 2087.92 9.90
992 100.1300 2149.00 2102.64 10.58
993 100.2300 2131.00 2126.85 10.30
994 100.3300 2177.00 2163.21 9.95
995 100.4300 2300.00 2213.42 10.25
996 100.5300 2273.00 2278.29 9.95
997 100.6300 2352.00 2356.80 10.95
998 100.7300 2465.00 2446.19 10.44
999 100.8300 2664.00 2541.93 10.77
1000 100.9300 2742.00 2638.25 10.77
1001 101.0300 2853.00 2723.88 11.49
1002 101.1300 2856.00 2789.22 11.70
1003 101.2300 2911.00 2826.43 10.91
1004 101.3300 2815.00 2831.46 11.75
1005 101.4300 2795.00 2805.64 11.14
1006 101.5300 2629.00 2755.04 11.09
1007 101.6300 2536.00 2688.07 11.05
1008 101.7300 2510.00 2614.01 11.09
1009 101.8300 2294.00 2540.16 10.63
1010 101.9300 2298.00 2471.97 10.34
1011 102.0300 2222.00 2412.82 10.34
1012 102.1300 2153.00 2364.55 8.89
1013 102.2300 2232.00 2328.08 9.95
1014 102.3300 2146.00 2303.76 10.15
1015 102.4300 2166.00 2291.22 9.95
1016 102.5300 2135.00 2288.50 10.34
1017 102.6300 2111.00 2294.95 9.75
1018 102.7300 2197.00 2308.17 8.89
1019 102.8300 2288.00 2325.41 10.10
1020 102.9300 2284.00 2343.66 10.49
1021 103.0300 2261.00 2359.79 9.90
1022 103.1300 2259.00 2370.63 11.14
1023 103.2300 2312.00 2373.39 9.11
1024 103.3300 2387.00 2366.42 10.00
1025 103.4300 2277.00 2349.34 10.25
1026 103.5300 2255.00 2323.26 9.54
1027 103.6300 2307.00 2289.99 10.30
1028 103.7300 2266.00 2251.67 10.39
1029 103.8300 2213.00 2210.50 9.69
1030 103.9300 2195.00 2168.31 10.91
1031 104.0300 2224.00 2127.98 10.91
1032 104.1300 2075.00 2091.00 9.90
1033 104.2300 2078.00 2058.55 9.27
1034 104.3300 2161.00 2031.86 9.59
1035 104.4300 1984.00 2011.08 9.49
1036 104.5300 2023.00 1995.99 10.25
1037 104.6300 1956.00 1985.49 10.05
1038 104.7300 1947.00 1978.61 9.64
1039 104.8300 2002.00 1974.12 8.89
1040 104.9300 2016.00 1970.71 9.69
1041 105.0300 1994.00 1967.18 9.85
1042 105.1300 1911.00 1962.86 9.22
1043 105.2300 1967.00 1957.29 10.05
1044 105.3300 1981.00 1950.91 9.49
1045 105.4300 1899.00 1944.78 9.11
1046 105.5300 1939.00 1939.61 10.44
1047 105.6300 1895.00 1936.21 8.60
1048 105.7300 1972.00 1935.19 10.54
1049 105.8300 1950.00 1936.77 8.54
1050 105.9300 1887.00 1941.04 10.15
1051 106.0300 2036.00 1947.60 9.95
1052 106.1300 1937.00 1955.84 8.94
1053 106.2300 2049.00 1964.99 9.69
1054 106.3300 1956.00 1974.91 9.54
1055 106.4300 2040.00 1983.60 9.85
1056 106.5300 1902.00 1990.26 10.25
1057 106.6300 2012.00 1994.42 10.00
1058 106.7300 1972.00 1995.95 8.83
1059 106.8300 1970.00 1995.10 9.59
1060 106.9300 1929.00 1992.43 9.80
1061 107.0300 1973.00 1988.62 9.69
1062 107.1300 2029.00 1984.44 9.54
1063 107.2300 1900.00 1980.50 9.64
1064 107.3300 2039.00 1977.42 9.43
1065 107.4300 1936.00 1975.46 9.38
1066 107.5300 1898.00 1974.63 9.06
1067 107.6300 1938.00 1974.76 9.69
1068 107.7300 1950.00 1975.43 9.22
1069 107.8300 1938.00 1975.99 10.05
1070 107.9300 1906.00 1975.62 9.95
1071 108.0300 1904.00 1973.56 8.77
1072 108.1300 1886.00 1969.24 9.16
1073 108.2300 1935.00 1962.46 9.95
1074 108.3300 1891.00 1953.52 10.30
1075 108.4300 1805.00 1942.95 8.60
1076 108.5300 1824.00 1931.67 8.25
1077 108.6300 1914.00 1920.45 9.16
1078 108.7300 1918.00 1909.90 9.33
1079 108.8300 1867.00 1900.52 9.80
1080 108.9300 1887.00 1892.56 8.12
1081 109.0300 1864.00 1886.08 8.94
1082 109.1300 1888.00 1880.95 8.83
1083 109.2300 1871.00 1877.14 8.54
1084 109.3300 1902.00 1874.41 9.43
1085 109.4300 1846.00 1872.64 9.75
1086 109.5300 1830.00 1871.86 8.89
1087 109.6300 1772.00 1872.21 8.54
1088 109.7300 1839.00 1874.00 9.64
1089 109.8300 1867.00 1877.39 9.22
1090 109.9300 1913.00 1882.46 9.59
1091 110.0300 1887.00 1889.45 8.83
1092 110.1300 1968.00 1898.44 10.00
1093 110.2300 1917.00 1909.67 10.00
1094 110.3300 1819.00 1923.00 8.89
1095 110.4300 1888.00 1938.39 8.60
1096 110.5300 1911.00 1955.61 9.16
1097 110.6300 1946.00 1974.33 9.54
1098 110.7300 1998.00 1994.23 8.89
1099 110.8300 2046.00 2015.05 9.11
1100 110.9300 1997.00 2036.17 9.43
1101 111.0300 2056.00 2058.13 10.25
1102 111.1300 2069.00 2079.99 10.00
1103 111.2300 2148.00 2102.45 9.38
1104 111.3300 2191.00 2124.79 9.64
1105 111.4300 2207.00 2146.70 9.54
1106 111.5300 2314.00 2167.82 10.15
1107 111.6300 2333.00 2186.81 9.90
1108 111.7300 2240.00 2203.76 9.06
1109 111.8300 2218.00 2219.37 10.30
1110 111.9300 2287.00 2233.67 9.85
1111 112.0300 2254.00 2246.72 10.63
1112 112.1300 2240.00 2258.79 10.77
1113 112.2300 2280.00 2269.26 9.69
1114 112.3300 2219.00 2277.35 10.72
1115 112.4300 2149.00 2282.00 9.11
1116 112.5300 2200.00 2282.22 10.25
1117 112.6300 2132.00 2277.22 9.54
1118 112.7300 2171.00 2266.63 9.90
1119 112.8300 2144.00 2250.52 10.00
1120 112.9300 2148.00 2229.55 9.33
1121 113.0300 2017.00 2206.14 9.69
1122 113.1300 2048.00 2179.63 8.72
1123 113.2300 2003.00 2150.96 9.69
1124 113.3300 2103.00 2121.16 10.58
1125 113.4300 2079.00 2090.94 9.54
1126 113.5300 2011.00 2061.74 9.85
1127 113.6300 1904.00 2034.08 9.38
1128 113.7300 1961.00 2008.52 9.00
1129 113.8300 1975.00 1985.62 9.54
1130 113.9300 1949.00 1965.51 9.06
1131 114.0300 1942.00 1948.29 10.39
1132 114.1300 1820.00 1933.81 9.38
1133 114.2300 1897.00 1922.10 8.83
1134 114.3300 1839.00 1912.90 9.54
1135 114.4300 1891.00 1905.95 10.00
1136 114.5300 1899.00 1901.01 9.38
1137 114.6300 1847.00 1896.52 8.89
1138 114.7300 1891.00 1891.55 9.11
1139 114.8300 1819.00 1887.68 8.77
1140 114.9300 1814.00 1884.67 9.06
1141 115.0300 1887.00 1882.27 8.77
1142 115.1300 1807.00 1880.31 9.49
1143 115.2300 1824.00 1878.70 8.72
1144 115.3300 1816.00 1877.34 9.16
1145 115.4300 1806.00 1876.18 8.54
1146 115.5300 1794.00 1875.32 9.16
1147 115.6300 1860.00 1874.59 8.89
1148 115.7300 1806.00 1874.19 8.37
1149 115.8300 1874.00 1874.20 9.22
1150 115.9300 1829.00 1874.71 9.85
1151 116.0300 1833.00 1875.87 9.16
1152 116.1300 1894.00 1877.74 9.64
1153 116.2300 1856.00 1881.02 8.94
1154 116.3300 1807.00 1889.89 10.05
1155 116.4300 1846.00 1900.01 9.69
1156 116.5300 1923.00 1911.61 10.34
1157 116.6300 1869.00 1925.02 8.37
1158 116.7300 1892.00 1940.18 8.83
1159 116.8300 1909.00 1957.28 9.75
1160 116.9300 1951.00 1976.27 8.94
1161 117.0300 2027.00 1997.08 9.11
1162 117.1300 2025.00 2019.32 9.64
1163 117.2300 1988.00 2042.57 9.69
1164 117.3300 2088.00 2066.08 10.20
1165 117.4300 2120.00 2089.18 10.63
1166 117.5300 2090.00 2111.05 9.38
1167 117.6300 2182.00 2133.93 10.25
1168 117.7300 2247.00 2150.29 10.77
1169 117.8300 2093.00 2162.78 10.05
1170 117.9300 2253.00 2170.93 10.25
1171 118.0300 2180.00 2174.49 9.85
1172 118.1300 2226.00 2173.56 9.38
1173 118.2300 2130.00 2167.35 9.64
1174 118.3300 2200.00 2155.85 10.30
1175 118.4300 2213.00 2141.29 10.68
1176 118.5300 2177.00 2124.53 10.10
1177 118.6300 2122.00 2106.51 8.89
1178 118.7300 2036.00 2088.25 9.38
1179 118.8300 2103.00 2070.62 8.66
1180 118.9300 1967.00 2054.36 8.89
1181 119.0300 1935.00 2040.04 9.22
1182 119.1300 1999.00 2027.99 10.30
1183 119.2300 1936.00 2018.40 10.00
1184 119.3300 2015.00 2011.22 9.80
1185 119.4300 2015.00 2006.49 9.54
1186 119.5300 1901.00 2003.84 9.54
1187 119.6300 1957.00 2002.85 10.00
1188 119.7300 2036.00 2003.13 8.60
1189 119.8300 2004.00 2004.11 9.64
1190 119.9300 2123.00 2005.22 10.91
1191 120.0300 2041.00 2005.93 9.06
1192 120.1300 2108.00 2005.79 9.90
1193 120.2300 2055.00 2004.51 10.10
1194 120.3300 2126.00 2001.89 10.20
1195 120.4300 1982.00 1997.93 9.75
1196 120.5300 2077.00 1992.66 9.38
1197 120.6300 2086.00 1986.23 9.75
1198 120.7300 2064.00 1978.77 9.85
1199 120.8300 2167.00 1970.46 10.58
1200 120.9300 2053.00 1961.59 10.39
1201 121.0300 2109.00 1952.38 11.00
1202 121.1300 2015.00 1943.15 8.94
1203 121.2300 2007.00 1934.17 9.43
1204 121.3300 1956.00 1927.09 10.25
1205 121.4300 1979.00 1920.89 9.75
1206 121.5300 2056.00 1915.59 10.44
1207 121.6300 2012.00 1911.31 9.64
1208 121.7300 1969.00 1908.18 9.38
1209 121.8300 1874.00 1906.21 9.00
1210 121.9300 1987.00 1905.40 10.30
1211 122.0300 1904.00 1905.71 9.27
1212 122.1300 1969.00 1907.06 8.89
1213 122.2300 1894.00 1909.39 8.72
1214 122.3300 2017.00 1912.59 8.48
1215 122.4300 1893.00 1914.62 9.54
1216 122.5300 1975.00 1915.42 8.77
1217 122.6300 1961.00 1916.84 9.85
1218 122.7300 1888.00 1918.82 9.69
1219 122.8300 2028.00 1921.25 9.80
1220 122.9300 1956.00 1924.00 9.49
1221 123.0300 1929.00 1926.99 9.69
1222 123.1300 2037.00 1930.09 9.22
1223 123.2300 1966.00 1933.22 9.16
1224 123.3300 1924.00 1936.28 9.22
1225 123.4300 1987.00 1939.23 9.27
1226 123.5300 1951.00 1942.02 8.83
1227 123.6300 1973.00 1944.58 8.60
1228 123.7300 1996.00 1946.72 10.10
1229 123.8300 1899.00 1948.75 8.60
1230 123.9300 1906.00 1950.48 9.38
1231 124.0300 1926.00 1951.88 8.89
1232 124.1300 1884.00 1952.14 9.49
1233 124.2300 1938.00 1951.59 10.05
1234 124.3300 1903.00 1950.86 9.90
1235 124.4300 1957.00 1950.09 9.64
1236 124.5300 1946.00 1949.34 9.22
1237 124.6300 1882.00 1948.82 9.49
1238 124.7300 1891.00 1948.57 8.66
1239 124.8300 1955.00 1948.61 8.66
1240 124.9300 1936.00 1948.80 9.69
1241 125.0300 1921.00 1949.53 9.33
1242 125.1300 1873.00 1950.49 9.06
1243 125.2300 1971.00 1951.54 9.49
1244 125.3300 1906.00 1956.40 9.85
loop_
_pd_proc_info_excluded_regions
'from 125.11 to 128.670'
loop_
_refln_index_h
_refln_index_k
_refln_index_l
_refln_index_m_1
_refln_F_squared_calc
_refln_F_squared_meas
_refln_observed_status
_refln_d_spacing
0 0 0 1 1.07 0.27 < 10.061369
0 0 1 -1 1.81 0.44 o 8.487518
0 0 1 0 1.72 0.42 o 8.369420
1 0 1 -2 1.14 1.31 o 6.316017
1 0 0 -2 3.96 1.69 o 5.648964
0 0 1 -2 2.19 1.29 o 5.484595
0 0 1 1 0.63 0.50 o 5.389494
0 0 0 2 0.00 0.00 < 5.030684
0 0 2 -1 0.48 0.31 < 4.640537
1 0 2 -2 1.47 0.96 < 4.595572
0 0 2 -2 6.89 7.93 o 4.243759
0 0 2 0 22.91 26.40 o 4.184710
1 0 0 -1 0.00 0.00 < 4.039350
1 0 1 -1 8.58 4.33 o 3.913560
-1 0 1 2 4.34 2.22 o 3.887807
0 0 1 2 6.85 7.34 o 3.667770
1 -1 1 -2 14.48 17.19 o 3.580982
1 -1 0 -2 11.34 8.90 o 3.445165
-1 0 1 1 22.08 18.80 o 3.413204
0 0 2 1 18.63 15.89 o 3.380066
1 -1 0 -1 0.61 0.58 o 3.375884
0 1 1 -2 0.53 0.34 o 3.309063
1 -1 1 -1 20.77 12.83 o 3.301414
0 1 0 -1 38.03 23.70 o 3.254431
0 1 0 -2 0.39 0.28 o 3.201008
1 0 2 -1 12.56 9.02 o 3.196883
1 0 3 -2 9.18 7.14 o 3.191376
0 1 1 -1 10.94 8.51 o 3.187558
1 -1 2 -2 18.13 13.53 o 3.158101
0 0 3 -2 19.25 20.45 o 3.066260
0 0 3 -1 0.14 0.16 o 3.049340
1 -1 0 0 12.39 13.66 o 3.001558
0 1 0 0 5.30 5.83 o 3.001558
1 0 0 0 1.02 1.12 o 3.001558
-1 1 1 1 73.14 81.86 o 2.984151
0 1 2 -2 8.50 9.85 o 2.966856
0 -1 1 1 24.46 22.56 o 2.899271
-1 1 1 2 15.30 12.93 o 2.897956
1 -1 2 -1 4.72 4.67 o 2.836334
-1 1 1 0 702.14 697.09 o 2.825356
-1 0 1 0 15.26 15.15 o 2.825356
1 -1 1 0 0.98 0.97 o 2.825356
0 1 1 0 0.30 0.29 o 2.825356
0 -1 1 0 697.59 692.56 o 2.825356
1 0 1 0 789.20 783.51 o 2.825356
0 0 3 0 738.54 735.34 o 2.789807
-1 0 2 2 7.94 7.88 o 2.778492
0 1 2 -1 7.15 7.38 o 2.763154
0 -1 1 2 0.38 0.41 o 2.748076
0 0 2 2 26.35 31.12 o 2.694747
-1 0 2 1 5.02 6.03 o 2.682804
0 1 0 1 41.12 28.84 o 2.605267
1 -1 3 -2 0.63 0.48 o 2.572579
0 -1 1 -1 35.02 27.01 o 2.570578
1 -1 0 1 6.43 6.62 o 2.548212
-1 1 1 -1 0.45 0.86 o 2.515724
1 0 3 -1 5.80 9.62 o 2.508210
0 1 3 -2 3.78 4.27 o 2.466002
-1 1 2 1 2.93 3.10 o 2.458884
0 -1 2 0 84.64 85.39 o 2.439023
1 0 2 0 115.83 116.86 o 2.439023
1 -1 2 0 54.34 54.82 o 2.439023
-1 0 2 0 58.95 59.48 o 2.439023
0 1 2 0 173.45 174.99 o 2.439023
-1 1 2 0 28.49 28.74 o 2.439023
0 0 3 1 33.41 33.64 o 2.431213
0 1 1 1 17.15 15.89 o 2.412052
0 -1 2 1 9.10 8.44 o 2.410744
1 0 4 -2 8.73 8.76 o 2.373085
1 -1 1 1 51.37 52.42 o 2.366561
1 0 0 1 62.36 64.36 o 2.354015
2 -1 1 -2 20.56 21.22 o 2.351790
-1 1 2 2 30.09 30.07 o 2.341157
0 -1 2 -1 16.12 16.94 o 2.331959
-1 0 1 -1 0.42 0.44 o 2.328332
1 -1 3 -1 102.98 111.84 o 2.322371
0 0 4 -2 2.75 2.99 o 2.320268
2 -1 0 -2 0.00 0.00 < 2.312044
-1 1 2 -1 243.07 213.94 o 2.290775
0 1 3 -1 28.53 24.86 o 2.281684
1 1 1 -2 24.11 20.48 o 2.269537
0 -1 2 2 2.15 2.03 o 2.259977
0 -1 1 -2 0.80 0.73 o 2.252148
0 0 4 -1 235.23 216.76 o 2.251863
1 1 0 -2 0.15 0.13 o 2.233755
2 -1 2 -2 5.49 6.28 o 2.219023
0 1 0 2 32.44 37.08 o 2.217170
1 0 1 1 56.48 58.72 o 2.208581
-1 1 1 -2 11.51 17.85 o 2.179601
1 1 2 -2 12.11 13.30 o 2.149533
1 -1 0 2 1.06 1.15 o 2.147849
-1 0 2 -1 4.30 4.67 o 2.146601
0 -1 2 -2 9.28 9.33 o 2.134742
-1 0 3 1 30.93 26.31 o 2.129146
-1 0 3 2 0.01 0.00 < 2.124970
-2 1 1 2 13.67 11.77 o 2.122891
0 1 2 1 54.41 51.29 o 2.108271
0 0 4 0 482.68 462.72 o 2.092355
0 0 3 2 34.42 33.49 o 2.086797
1 -1 4 -2 2.88 2.83 o 2.082944
1 -1 2 1 54.72 54.29 o 2.077691
-1 1 2 -2 4.21 4.31 o 2.072658
-1 -1 1 2 0.04 0.04 o 2.061806
0 1 1 2 2.58 2.42 o 2.048742
2 0 1 -2 0.07 0.07 o 2.046008
1 0 3 0 157.67 148.11 o 2.043454
1 -1 3 0 77.28 72.59 o 2.043454
-1 0 3 0 54.40 51.10 o 2.043454
-1 1 3 0 27.80 26.12 o 2.043454
0 1 3 0 22.94 21.55 o 2.043454
0 -1 3 0 206.51 193.98 o 2.043454
0 1 4 -2 7.69 6.81 o 2.025151
0 -1 3 -1 108.31 95.56 o 2.020315
2 0 0 -2 0.00 0.00 < 2.019675
-1 1 3 1 51.52 45.66 o 2.011909
1 0 4 -1 2.98 2.58 o 2.005567
2 -1 0 -1 10.26 9.60 o 1.999396
1 -1 1 2 5.73 6.29 o 1.993675
-1 1 3 -1 22.98 25.20 o 1.993357
0 -1 3 1 2.79 4.53 o 1.985282
2 -1 3 -2 8.02 12.46 o 1.984506
2 -1 1 -1 13.19 20.50 o 1.983587
1 1 0 -1 16.18 17.03 o 1.973256
1 0 2 1 0.15 0.15 o 1.968327
1 1 1 -1 95.99 85.63 o 1.958054
2 0 2 -2 0.10 0.08 o 1.956780
-1 0 1 -2 24.91 21.32 o 1.948420
1 1 3 -2 30.84 27.51 o 1.934334
1 0 0 2 26.98 25.22 o 1.925638
0 -1 3 -2 5.79 5.41 o 1.923535
-1 1 3 2 33.68 31.39 o 1.909099
-2 1 1 1 38.92 36.75 o 1.907966
1 -1 4 -1 43.87 42.05 o 1.906678
-1 0 3 -1 28.40 27.55 o 1.896177
0 0 4 1 134.12 128.82 o 1.891893
-2 0 1 2 1.07 1.05 o 1.889908
-1 -1 1 1 31.76 31.88 o 1.885211
0 1 4 -1 0.73 0.73 o 1.883968
-1 1 3 -2 17.50 17.95 o 1.877743
-2 1 2 2 0.14 0.15 o 1.872293
1 0 5 -2 0.66 0.75 o 1.871496
-1 0 2 -2 8.95 10.15 o 1.870895
2 -1 2 -1 21.61 24.51 o 1.867578
0 -1 3 2 0.00 0.00 < 1.864306
1 1 2 -1 1.96 1.58 o 1.846222
0 0 5 -2 1.27 1.03 o 1.845261
-1 -1 2 2 5.21 2.35 o 1.829985
0 1 2 2 0.39 0.18 o 1.820832
1 0 1 2 3.47 1.88 o 1.812191
0 1 3 1 47.09 30.87 o 1.805881
2 0 3 -2 0.93 0.96 o 1.790286
1 -1 3 1 0.84 1.14 o 1.786551
1 -1 2 2 0.00 0.00 < 1.781847
0 0 5 -1 6.53 9.27 o 1.780566
-2 1 2 1 9.38 9.04 o 1.746605
-1 0 4 1 0.75 0.74 o 1.738678
1 1 0 0 2169.17 2182.39 o 1.732950
2 -1 0 0 2309.16 2323.23 o 1.732950
1 -2 0 0 1549.53 1558.97 o 1.732950
2 -1 4 -2 3.74 3.76 o 1.732122
-1 -1 2 1 13.94 14.15 o 1.729098
0 -1 4 -1 95.80 97.26 o 1.728621
2 0 0 -1 5.07 5.15 o 1.728537
1 -2 0 -1 14.44 14.81 o 1.724665
-1 0 3 -2 3.16 3.24 o 1.723808
1 -1 5 -2 16.33 16.54 o 1.718971
2 0 1 -1 0.33 0.33 o 1.718292
-1 0 4 0 0.92 0.93 o 1.716468
-1 1 4 0 781.37 790.99 o 1.716468
1 0 4 0 1073.72 1086.94 o 1.716468
0 1 4 0 1.34 1.36 o 1.716468
0 -1 4 0 836.30 846.59 o 1.716468
1 -1 4 0 0.17 0.17 o 1.716468
1 0 3 1 3.52 3.57 o 1.715582
1 -2 1 -1 3.10 3.13 o 1.714488
-1 1 4 -1 2.01 2.03 o 1.711645
-1 0 4 2 1.76 1.78 o 1.710119
-2 0 2 2 0.34 0.35 o 1.706602
2 -2 1 -2 5.00 4.95 o 1.703223
1 1 4 -2 0.02 0.02 o 1.698460
2 -1 1 0 10.03 9.83 o 1.696955
-2 1 1 0 20.39 19.99 o 1.696955
1 -2 1 0 45.34 44.44 o 1.696955
1 1 1 0 3.77 3.70 o 1.696955
-1 2 1 0 46.01 45.10 o 1.696955
-1 -1 1 0 0.51 0.50 o 1.696955
2 -1 3 -1 69.43 68.66 o 1.695604
1 -2 0 1 15.58 15.62 o 1.691427
0 -1 4 -2 2.34 2.34 o 1.691134
0 0 4 2 4.82 4.84 o 1.690033
2 -2 0 -2 63.06 63.11 o 1.687942
0 1 5 -2 27.41 27.55 o 1.686055
1 -2 1 -2 39.54 39.64 o 1.683377
-1 2 1 -1 23.56 22.91 o 1.681824
1 1 3 -1 17.67 17.28 o 1.679573
0 0 5 0 4.07 3.93 o 1.673884
-1 1 4 1 56.09 54.15 o 1.673059
1 -2 0 -2 1.86 2.01 o 1.668619
-2 0 1 1 10.98 11.86 o 1.668432
-1 2 1 1 32.40 37.04 o 1.664948
-1 1 4 -2 0.83 1.05 o 1.659763
0 -1 4 1 0.01 0.00 < 1.657652
1 0 5 -1 28.58 26.98 o 1.651087
2 -2 2 -2 4.48 4.23 o 1.650707
-1 0 4 -1 4.64 4.18 o 1.648931
1 0 2 2 12.33 9.82 o 1.648726
2 0 2 -1 5.39 3.86 o 1.641224
0 2 1 -2 29.36 21.04 o 1.640893
1 -2 2 -1 11.75 8.50 o 1.637908
1 -2 1 1 77.13 54.98 o 1.634986
1 -2 2 -2 10.57 7.26 o 1.632621
-2 1 3 2 50.41 35.90 o 1.628237
0 2 0 -2 1.19 0.85 o 1.627216
-1 2 1 -2 51.18 40.48 o 1.623124
-2 2 1 2 6.89 8.08 o 1.609966
1 -2 0 2 11.92 13.96 o 1.609883
-1 2 2 -1 1.04 1.22 o 1.609357
2 -2 0 -1 34.01 38.65 o 1.606223
-2 1 2 0 15.62 17.36 o 1.601093
-1 2 2 0 27.23 30.28 o 1.601093
1 1 2 0 18.78 20.88 o 1.601093
-1 -1 2 0 24.62 27.37 o 1.601093
2 -1 2 0 19.67 21.87 o 1.601093
1 -2 2 0 18.90 21.02 o 1.601093
-1 -1 3 2 7.02 7.72 o 1.600181
2 0 4 -2 4.76 5.12 o 1.598442
2 -2 1 -1 16.60 17.86 o 1.597992
1 -1 5 -1 13.95 14.40 o 1.594584
0 1 3 2 1.02 1.04 o 1.594051
0 2 2 -2 10.61 10.81 o 1.593779
-1 2 1 2 12.48 12.33 o 1.593173
-1 1 4 2 1.80 1.78 o 1.591412
0 1 5 -1 43.91 35.44 o 1.581228
0 2 0 -1 53.08 43.83 o 1.579270
-1 2 2 -2 0.00 0.00 < 1.577482
0 2 1 -1 2.27 1.81 o 1.571445
1 -1 3 2 2.31 1.83 o 1.567697
0 -1 4 2 0.19 0.15 o 1.565186
-2 1 3 1 16.25 12.84 o 1.562777
-2 2 1 1 0.85 0.64 o 1.557653
-2 0 2 1 16.77 12.64 o 1.557300
0 -2 1 2 82.19 61.94 o 1.557018
-1 2 2 1 0.01 0.00 < 1.554466
-1 0 4 -2 6.20 4.83 o 1.550592
-1 -1 3 1 12.22 9.65 o 1.550199
0 1 4 1 6.90 5.45 o 1.548870
2 -2 3 -2 2.55 2.03 o 1.547036
0 0 5 1 67.58 53.79 o 1.546452
1 -2 1 2 2.82 2.19 o 1.541812
1 0 6 -2 16.23 12.65 o 1.539369
1 -1 4 1 0.95 0.76 o 1.536622
2 -2 2 -1 27.94 24.19 o 1.535443
0 -2 1 1 40.20 34.81 o 1.533035
1 -2 3 -2 4.04 3.50 o 1.532119
1 -2 2 1 97.40 85.38 o 1.529998
1 1 0 1 4.08 3.61 o 1.526924
0 0 6 -2 6.68 5.82 o 1.524670
2 0 3 -1 4.65 4.24 o 1.520825
-1 -1 1 -1 12.50 11.39 o 1.519848
1 -2 3 -1 81.96 77.53 o 1.518186
-2 0 3 2 2.58 2.48 o 1.515717
2 -1 0 1 2.30 2.23 o 1.515185
2 -1 4 -1 120.41 116.20 o 1.511898
0 2 2 -1 83.97 81.04 o 1.511848
-2 1 1 -1 0.09 0.09 o 1.508270
2 -1 5 -2 10.69 10.87 o 1.505429
2 -2 0 0 53.31 59.13 o 1.500779
2 0 0 0 0.17 0.19 o 1.500779
0 2 0 0 18.03 20.00 o 1.500779
1 1 4 -1 214.07 237.47 o 1.500500
0 2 3 -2 79.34 88.02 o 1.499881
-1 2 3 -1 0.89 0.99 o 1.495366
-2 2 2 2 8.85 9.63 o 1.492075
1 0 4 1 8.84 9.32 o 1.490763
-1 2 3 -2 66.48 67.07 o 1.486274
0 -1 5 -1 10.19 10.28 o 1.485982
1 1 1 1 21.34 20.97 o 1.485017
1 1 5 -2 72.62 71.23 o 1.483171
-1 2 2 2 1.17 1.14 o 1.478678
0 -1 5 -2 11.34 11.06 o 1.478286
-2 2 1 0 88.37 86.84 o 1.477217
-2 0 1 0 561.50 551.79 o 1.477217
2 0 1 0 10.47 10.29 o 1.477217
0 -2 1 0 18.74 18.42 o 1.477217
2 -2 1 0 402.95 395.99 o 1.477217
0 2 1 0 606.63 596.15 o 1.477217
-1 1 5 -1 19.04 18.67 o 1.475156
1 0 3 2 52.31 51.26 o 1.474734
2 -1 1 1 80.80 79.17 o 1.474212
1 -2 3 0 789.37 770.52 o 1.472066
1 1 3 0 482.49 470.96 o 1.472066
2 -1 3 0 556.94 543.64 o 1.472066
-1 2 3 0 768.33 749.98 o 1.472066
-1 -1 3 0 532.02 519.31 o 1.472066
-2 1 3 0 834.69 814.76 o 1.472066
0 0 6 -1 2.47 2.41 o 1.470938
-2 2 2 1 72.22 70.12 o 1.466070
-1 -1 2 -1 15.54 15.09 o 1.465734
-1 1 5 0 137.33 133.77 o 1.461923
0 -1 5 0 166.14 161.82 o 1.461923
0 1 5 0 362.73 353.31 o 1.461923
-1 0 5 0 408.50 397.89 o 1.461923
1 0 5 0 166.92 162.59 o 1.461923
1 -1 5 0 496.40 483.50 o 1.461923
-1 0 5 1 16.84 16.66 o 1.459341
-1 1 5 -2 11.47 11.58 o 1.457193
-2 1 2 -1 8.40 8.46 o 1.455342
1 -1 6 -2 28.87 28.13 o 1.451080
0 -2 2 2 1.37 1.34 o 1.449635
0 -2 2 1 167.77 166.46 o 1.445489
1 -2 2 2 0.15 0.14 o 1.437340
2 -2 3 -1 81.98 78.48 o 1.435516
-1 0 5 -1 77.84 74.68 o 1.434441
0 1 6 -2 20.24 20.51 o 1.431116
-1 0 5 2 6.92 7.27 o 1.427162
-2 0 3 1 73.82 77.31 o 1.422786
-1 2 3 1 25.84 26.40 o 1.420624
-1 1 5 1 11.50 11.75 o 1.419887
2 -2 4 -2 18.08 18.67 o 1.418167
-2 1 4 2 0.29 0.30 o 1.417517
0 2 3 -1 0.41 0.43 o 1.416179
0 0 5 2 33.04 34.06 o 1.415425
2 0 5 -2 24.89 25.66 o 1.415168
2 0 2 0 25.59 26.36 o 1.412678
0 2 2 0 0.61 0.62 o 1.412678
2 -2 2 0 7.31 7.53 o 1.412678
-2 2 2 0 318.96 328.53 o 1.412678
-2 0 2 0 92.67 95.45 o 1.412678
0 -2 2 0 165.29 170.25 o 1.412678
0 -1 5 1 153.48 156.30 o 1.410433
1 -2 4 -2 17.98 18.00 o 1.406649
3 -1 1 -2 12.01 12.02 o 1.406341
1 1 2 1 0.14 0.14 o 1.405028
0 2 0 1 0.15 0.15 o 1.404727
1 -2 3 1 0.66 0.64 o 1.401874
0 -2 1 -1 6.99 6.64 o 1.399211
-1 -1 4 2 4.87 4.63 o 1.398889
3 -1 0 -2 1.45 1.38 o 1.397702
2 -1 2 1 161.53 153.83 o 1.395866
1 0 6 -1 51.21 48.77 o 1.395377
0 0 6 0 105.41 98.06 o 1.394903
0 1 4 2 8.06 7.50 o 1.394788
2 1 1 -2 2.06 1.89 o 1.388145
-2 1 4 1 57.06 52.58 o 1.387204
2 -2 0 1 63.76 58.75 o 1.386592
2 0 4 -1 34.00 31.32 o 1.384071
1 -2 4 -1 60.83 58.17 o 1.382080
-1 0 5 -2 21.16 20.23 o 1.381639
0 2 4 -2 1.18 1.13 o 1.381577
-2 2 1 -1 0.00 0.00 < 1.381286
2 1 0 -2 12.16 11.87 o 1.379834
-1 -1 4 1 39.53 38.43 o 1.378384
-1 -1 3 -1 9.92 9.64 o 1.378065
1 -1 4 2 1.53 1.49 o 1.377030
3 -1 2 -2 0.63 0.62 o 1.376341
0 2 1 1 150.57 152.01 o 1.371891
-1 2 4 -2 3.92 3.94 o 1.370921
-2 1 3 -1 17.69 17.77 o 1.369418
-1 2 4 -1 113.67 115.57 o 1.364797
-1 -1 1 -2 0.30 0.31 o 1.362952
1 -1 6 -1 9.39 9.71 o 1.360768
-2 2 3 2 5.56 5.69 o 1.359438
2 1 2 -2 4.07 4.16 o 1.359270
0 -2 2 -1 40.53 43.33 o 1.356645
-1 1 5 2 8.48 9.42 o 1.355961
1 1 0 2 1.25 1.39 o 1.355084
2 -2 1 1 0.05 0.05 o 1.354983
-3 1 1 2 10.72 11.30 o 1.352457
0 1 6 -1 36.20 38.17 o 1.352440
-2 2 3 1 0.96 0.97 o 1.352206
-1 2 3 2 115.53 105.12 o 1.349283
-2 1 1 -2 3.16 2.87 o 1.346369
0 1 5 1 0.70 0.65 o 1.341589
2 -1 5 -1 0.86 0.82 o 1.341480
-2 0 4 2 13.31 12.63 o 1.341402
-2 2 2 -1 3.26 3.08 o 1.340288
0 -1 5 2 19.06 18.04 o 1.339628
2 -1 0 2 3.78 3.63 o 1.338782
3 -2 1 -2 2.73 2.61 o 1.338066
-2 -1 1 2 19.81 19.19 o 1.336249
0 -2 3 1 2.93 2.83 o 1.336007
-1 -1 2 -2 7.32 7.07 o 1.335590
1 1 4 0 131.26 127.83 o 1.334633
1 -2 4 0 237.35 231.16 o 1.334633
-1 -1 4 0 380.71 370.78 o 1.334633
-1 2 4 0 16.33 15.90 o 1.334633
2 -1 4 0 411.74 401.00 o 1.334633
-2 1 4 0 116.85 113.80 o 1.334633
1 -1 5 1 17.00 16.54 o 1.333606
1 1 5 -1 14.14 13.76 o 1.333499
3 -2 0 -2 0.36 0.35 o 1.330619
0 -2 3 2 0.63 0.64 o 1.327108
0 2 3 0 5.41 5.68 o 1.321674
-2 0 3 0 145.42 152.59 o 1.321674
2 -2 3 0 37.78 39.65 o 1.321674
0 -2 3 0 77.90 81.75 o 1.321674
2 0 3 0 4.06 4.26 o 1.321674
-2 2 3 0 71.32 74.84 o 1.321674
2 0 0 1 12.38 13.31 o 1.321022
-2 1 2 -2 10.17 10.91 o 1.319975
2 -2 4 -1 69.43 72.51 o 1.318841
1 -2 3 2 58.43 60.70 o 1.317654
-2 0 1 -1 0.50 0.50 o 1.316431
2 -1 6 -2 22.26 22.28 o 1.315634
3 -1 3 -2 10.33 9.87 o 1.314504
1 1 1 2 5.12 4.85 o 1.313733
1 0 4 2 13.62 12.39 o 1.312745
3 -2 2 -2 38.92 35.99 o 1.312148
0 -2 1 -2 27.40 24.33 o 1.309618
0 2 2 1 9.67 8.86 o 1.308082
1 2 1 -2 6.79 6.23 o 1.307202
0 0 6 1 6.62 6.07 o 1.306933
1 0 7 -2 0.93 0.90 o 1.305161
1 1 3 1 36.04 39.64 o 1.303866
0 2 4 -1 9.19 10.11 o 1.303799
1 0 5 1 8.95 9.85 o 1.303296
0 2 0 2 41.85 47.96 o 1.302633
1 1 6 -2 5.96 7.01 o 1.300700
1 2 0 -2 0.76 0.92 o 1.300256
2 1 3 -2 25.78 31.43 o 1.299608
2 -1 1 2 9.55 11.65 o 1.298863
0 -1 6 -2 13.06 15.44 o 1.297402
2 -1 3 1 35.05 42.01 o 1.296534
0 0 7 -2 37.77 41.85 o 1.296166
2 0 1 1 39.91 43.46 o 1.293603
2 -2 2 1 3.64 3.96 o 1.293401
-3 2 1 2 35.20 37.19 o 1.291404
0 -1 6 -1 126.97 134.16 o 1.291389
-2 0 4 1 63.90 67.67 o 1.286501
0 -2 3 -1 254.98 270.04 o 1.286242
2 -2 5 -2 0.24 0.26 o 1.285484
0 -2 2 -2 58.05 61.48 o 1.285289
-1 2 4 1 42.90 45.44 o 1.284902
-1 1 6 -1 120.70 126.97 o 1.284265
-1 1 6 -2 72.66 76.44 o 1.283073
1 2 2 -2 15.13 15.92 o 1.283005
-2 0 2 -1 278.53 291.78 o 1.280797
-2 2 1 -2 1.28 1.33 o 1.280640
-3 1 2 2 16.86 17.43 o 1.280286
-1 -1 3 -2 5.91 6.11 o 1.278865
1 -2 5 -2 0.04 0.04 o 1.276887
2 -2 0 2 10.38 10.70 o 1.274106
-1 -1 4 -1 117.05 120.61 o 1.273875
-2 2 3 -1 12.47 12.98 o 1.272276
1 -2 4 1 38.82 40.30 o 1.270979
-2 1 4 -1 172.47 184.89 o 1.267035
-2 -1 2 2 0.19 0.21 o 1.266511
0 2 1 2 52.30 56.06 o 1.265774
-2 1 3 -2 40.83 43.10 o 1.265136
-1 1 6 0 29.30 30.93 o 1.264977
1 -1 6 0 153.03 161.54 o 1.264977
0 1 6 0 11.81 12.46 o 1.264977
0 -1 6 0 5.23 5.52 o 1.264977
-1 0 6 0 49.03 51.76 o 1.264977
1 0 6 0 1.66 1.75 o 1.264977
-1 -2 1 2 6.90 7.10 o 1.263592
3 -2 3 -2 17.30 16.21 o 1.258240
0 2 5 -2 34.95 32.62 o 1.258045
-2 2 2 -2 34.32 32.03 o 1.257862
-1 0 6 -1 26.92 24.78 o 1.257129
3 -1 0 -1 10.26 9.11 o 1.255358
2 0 6 -2 3.26 2.91 o 1.254105
-1 0 6 1 18.56 16.77 o 1.253073
0 0 7 -1 4.43 4.02 o 1.252452
3 -1 1 -1 38.42 33.34 o 1.251417
1 -1 7 -2 15.87 13.50 o 1.250039
-1 2 5 -2 73.58 62.57 o 1.249983
2 0 5 -1 39.42 33.52 o 1.249778
2 1 0 -1 37.72 32.55 o 1.248810
1 -2 5 -1 1.14 0.93 o 1.248312
1 1 2 2 11.31 9.21 o 1.247290
2 1 1 -1 0.21 0.16 o 1.244930
-2 1 5 2 46.93 34.51 o 1.243505
2 0 2 1 2.43 1.84 o 1.239695
2 -2 1 2 14.96 11.36 o 1.239553
0 1 7 -2 23.94 17.10 o 1.237208
-1 2 5 -1 23.55 16.75 o 1.235533
2 -1 2 2 15.02 10.89 o 1.234543
0 -2 3 -2 4.32 3.14 o 1.234499
-2 2 4 1 0.13 0.10 o 1.233616
3 -1 4 -2 2.91 2.28 o 1.232674
1 2 3 -2 60.33 47.23 o 1.232475
-2 1 5 1 72.85 57.03 o 1.232393
-3 1 1 1 3.62 2.83 o 1.231757
-1 -1 5 2 0.00 0.00 < 1.230872
-1 0 6 -2 15.00 12.74 o 1.230593
3 -2 0 -1 1.00 0.85 o 1.229978
-2 2 4 2 16.81 14.90 o 1.229442
-3 2 2 2 42.07 37.23 o 1.228133
0 1 5 2 17.26 15.28 o 1.228076
-1 1 6 1 0.46 0.41 o 1.227829
3 -2 1 -1 17.79 15.98 o 1.226270
-1 -1 5 1 46.13 41.42 o 1.226196
-2 -1 1 1 31.54 28.27 o 1.225570
0 2 3 1 0.39 0.35 o 1.225284
-1 0 6 2 32.15 28.92 o 1.223017
-1 2 4 2 0.98 0.88 o 1.221914
0 -1 6 1 2.13 1.92 o 1.221700
0 -2 4 1 11.76 10.62 o 1.221279
-2 0 3 -1 87.21 78.76 o 1.221057
3 -1 2 -1 76.05 68.39 o 1.220686
2 1 4 -2 0.00 0.00 < 1.220366
2 0 4 0 28.43 25.64 o 1.219512
0 -2 4 0 0.07 0.07 o 1.219512
-2 2 4 0 3.57 3.22 o 1.219512
0 2 4 0 546.94 493.24 o 1.219512
2 -2 4 0 469.55 423.45 o 1.219512
-2 0 4 0 613.26 553.05 o 1.219512
1 2 0 -1 1.74 1.59 o 1.217749
3 0 1 -2 10.19 9.25 o 1.217441
1 -1 5 2 10.86 9.96 o 1.215903
0 0 6 2 26.40 24.00 o 1.215607
2 1 2 -1 13.45 12.23 o 1.214664
1 2 1 -1 20.15 18.68 o 1.214150
2 -2 3 1 5.16 4.75 o 1.213193
3 0 0 -2 3.59 3.28 o 1.211823
-2 2 3 -2 3.71 3.25 o 1.210137
-3 2 1 1 8.64 7.05 o 1.207755
0 2 2 2 67.74 50.63 o 1.206026
0 -2 4 2 1.23 0.85 o 1.205372
1 0 7 -1 3.35 2.31 o 1.204814
-1 -2 2 2 3.67 2.54 o 1.204139
-1 -1 5 0 1.05 0.67 o 1.203955
2 -1 5 0 0.07 0.04 o 1.203955
-1 2 5 0 124.01 79.28 o 1.203955
-2 1 5 0 56.18 35.92 o 1.203955
1 -2 5 0 15.40 9.85 o 1.203955
1 1 5 0 13.84 8.85 o 1.203955
-1 -1 4 -2 7.31 4.67 o 1.203142
2 -2 5 -1 14.46 8.96 o 1.201127
0 -2 4 -1 50.71 31.87 o 1.200296
1 -2 4 2 3.16 2.01 o 1.198276
3 0 2 -2 21.59 13.72 o 1.197821
3 -2 2 -1 0.86 0.55 o 1.197313
1 1 4 1 77.73 49.56 o 1.196581
-1 -2 1 1 143.27 91.35 o 1.196171
0 0 7 0 1.26 0.83 o 1.195631
-3 1 3 2 16.80 11.35 o 1.193520
2 -1 6 -1 4.24 2.87 o 1.193140
-2 1 4 -2 6.77 4.65 o 1.191689
-2 0 5 2 1.34 0.92 o 1.191165
2 -1 4 1 95.54 66.90 o 1.190907
0 2 5 -1 17.94 13.27 o 1.189730
-2 2 4 -1 0.18 0.15 o 1.188923
1 1 6 -1 11.22 8.87 o 1.187514
1 2 2 -1 25.36 21.54 o 1.186024
3 -2 4 -2 0.29 0.25 o 1.185920
-3 1 2 1 45.04 39.19 o 1.184948
2 -2 2 2 29.54 27.59 o 1.183281
-2 -1 3 2 0.01 0.01 o 1.182337
1 -1 7 -1 30.03 27.99 o 1.182324
-2 0 1 -2 0.01 0.01 o 1.182153
-3 0 1 2 1.08 1.01 o 1.181979
-2 -1 2 1 45.47 41.69 o 1.179437
-1 1 6 2 27.11 24.26 o 1.177313
2 0 0 2 29.08 26.02 o 1.177008
0 1 7 -1 119.07 106.53 o 1.176849
0 1 6 1 36.51 32.25 o 1.176138
1 0 5 2 0.61 0.51 o 1.170963
1 -1 6 1 0.14 0.11 o 1.170749
2 -3 1 -2 34.22 27.68 o 1.169919
3 -1 3 -1 6.12 4.80 o 1.168640
2 0 3 1 10.16 7.97 o 1.168542
-1 -1 5 -1 3.35 2.66 o 1.166863
1 1 3 2 53.44 42.40 o 1.166654
0 -1 6 2 2.66 2.08 o 1.166575
0 -2 4 -2 5.76 4.51 o 1.165979
2 -3 0 -2 25.69 19.87 o 1.164932
1 2 4 -2 1.34 1.06 o 1.164273
-2 0 2 -2 5.69 4.48 o 1.164166
-3 2 2 1 17.85 14.05 o 1.163534
2 1 3 -1 7.31 5.74 o 1.163352
-2 1 5 -1 30.42 23.18 o 1.161599
2 -2 6 -2 0.09 0.07 o 1.161185
2 -1 7 -2 4.22 3.14 o 1.160299
-2 0 5 1 73.49 54.75 o 1.160161
-1 2 5 1 1.10 0.80 o 1.158988
2 -3 0 -1 61.34 44.19 o 1.156979
3 0 3 -2 6.70 4.79 o 1.156392
2 -1 3 2 53.59 38.29 o 1.156203
1 -2 6 -2 6.53 4.61 o 1.154837
2 -3 1 -1 0.17 0.12 o 1.153891
-1 -2 2 1 10.63 7.48 o 1.153165
2 -3 2 -2 84.32 58.79 o 1.152477
-3 2 3 2 8.87 6.17 o 1.150932
1 0 6 1 25.77 18.15 o 1.150081
1 1 7 -2 56.23 39.61 o 1.150016
2 0 1 2 29.33 20.61 o 1.149606
1 -2 5 1 0.86 0.61 o 1.148739
3 -2 3 -1 77.03 53.99 o 1.148082
0 -1 7 -2 6.20 4.43 o 1.147734
-2 0 4 -1 51.45 36.76 o 1.146807
-2 2 4 -2 41.77 30.53 o 1.145388
3 -1 5 -2 1.21 0.91 o 1.142535
1 -3 0 1 11.08 8.57 o 1.141785
0 2 6 -2 9.93 7.68 o 1.140842
-1 3 1 -2 13.44 10.95 o 1.139130
-1 3 1 -1 0.23 0.19 o 1.138817
-2 3 1 1 38.52 31.97 o 1.138425
-2 3 1 2 40.52 33.63 o 1.138345
1 2 3 -1 75.54 62.69 o 1.138118
-1 1 7 -2 11.86 9.84 o 1.137779
0 -1 7 -1 19.65 17.73 o 1.135961
0 2 4 1 33.50 30.23 o 1.134983
-1 2 6 -2 2.52 2.28 o 1.134820
1 -3 0 2 22.56 21.04 o 1.134525
3 -1 0 0 10.31 9.61 o 1.134482
1 -3 0 0 38.07 35.51 o 1.134482
2 -3 0 0 49.95 46.58 o 1.134482
1 2 0 0 10.56 9.85 o 1.134482
2 1 0 0 0.61 0.56 o 1.134482
3 -2 0 0 61.07 56.95 o 1.134482
-3 0 2 2 0.16 0.15 o 1.132890
2 1 5 -2 12.73 12.02 o 1.132713
0 2 3 2 28.40 26.81 o 1.132678
1 0 8 -2 0.09 0.08 o 1.131812
0 0 7 1 20.53 19.57 o 1.131322
-1 -2 3 2 32.19 30.68 o 1.131114
-1 1 7 -1 10.37 9.88 o 1.131102
2 -3 2 -1 36.46 35.24 o 1.129668
2 0 6 -1 14.90 14.66 o 1.127236
1 -2 6 -1 54.90 54.20 o 1.126160
-2 0 3 -2 23.32 23.02 o 1.126023
0 0 8 -2 13.70 13.55 o 1.125931
2 -2 4 1 60.48 59.81 o 1.125353
-1 3 1 0 160.33 158.92 o 1.124201
1 -3 1 0 286.03 283.50 o 1.124201
3 -2 1 0 60.75 60.21 o 1.124201
3 -1 1 0 457.62 453.58 o 1.124201
-2 3 1 0 373.46 370.17 o 1.124201
2 -3 1 0 131.67 130.51 o 1.124201
-3 1 1 0 11.66 11.55 o 1.124201
-2 -1 1 0 22.08 21.89 o 1.124201
-3 2 1 0 332.83 329.89 o 1.124201
-1 -2 1 0 331.97 329.04 o 1.124201
2 1 1 0 657.72 651.92 o 1.124201
1 2 1 0 53.92 53.44 o 1.124201
1 -3 1 1 21.65 21.46 o 1.123942
-1 3 2 -2 9.90 9.79 o 1.123011
-3 1 3 1 37.06 36.64 o 1.122355
-2 2 5 1 17.46 17.33 o 1.120930
-1 -1 5 -2 37.91 37.69 o 1.118901
-2 -1 3 1 24.89 24.86 o 1.117668
2 0 7 -2 11.15 11.14 o 1.117433
0 2 5 0 66.56 66.48 o 1.117416
0 -2 5 0 191.41 191.17 o 1.117416
2 0 5 0 498.89 498.26 o 1.117416
2 -2 5 0 135.97 135.80 o 1.117416
-2 0 5 0 103.25 103.12 o 1.117416
-2 2 5 0 136.82 136.65 o 1.117416
-1 2 6 -1 0.10 0.10 o 1.116751
-1 3 2 -1 19.80 19.66 o 1.115512
2 -3 3 -2 28.48 28.27 o 1.115436
2 -2 3 2 1.30 1.30 o 1.113772
1 -3 0 -1 3.82 3.84 o 1.113426
-1 0 7 -1 84.21 84.98 o 1.112432
0 -2 5 1 75.95 76.31 o 1.111651
-1 0 7 0 12.18 12.23 o 1.110752
0 -1 7 0 5.91 5.94 o 1.110752
-1 1 7 0 265.49 266.67 o 1.110752
0 1 7 0 5.47 5.49 o 1.110752
1 0 7 0 58.01 58.27 o 1.110752
1 -1 7 0 9.55 9.60 o 1.110752
-2 2 5 2 37.27 37.44 o 1.110691
1 -3 1 -1 1.47 1.47 o 1.110674
1 -3 1 2 8.61 8.60 o 1.109923
-2 1 5 -2 3.55 3.56 o 1.109671
0 -2 5 -1 19.50 19.54 o 1.109527
-1 2 5 2 32.00 31.18 o 1.105131
3 -2 5 -2 6.38 6.21 o 1.105009
2 0 2 2 5.38 5.33 o 1.104290
-3 2 3 1 33.29 33.03 o 1.104107
3 -1 4 -1 8.44 8.34 o 1.103055
-3 1 4 2 4.87 4.79 o 1.102647
-2 1 6 2 2.02 2.01 o 1.101441
-2 3 2 1 6.43 6.40 o 1.101165
-1 0 7 -2 9.02 8.98 o 1.100704
-2 2 5 -1 1.62 1.61 o 1.100526
-2 1 6 1 0.64 0.63 o 1.100478
2 -3 0 1 11.72 11.59 o 1.099865
3 0 4 -2 3.47 3.44 o 1.099503
2 1 4 -1 13.37 13.38 o 1.098606
3 0 0 -1 0.49 0.50 o 1.097588
-2 3 1 -1 74.92 75.58 o 1.097211
-1 3 1 1 12.85 12.96 o 1.096861
-1 -1 6 1 62.50 63.37 o 1.096060
-1 0 7 1 24.39 24.73 o 1.095844
3 -3 1 -2 63.81 64.70 o 1.095379
1 -1 8 -2 18.14 18.32 o 1.095299
-1 -2 3 1 1.51 1.53 o 1.095236
-3 1 2 0 128.89 131.17 o 1.094958
-1 -2 2 0 59.07 60.11 o 1.094958
2 -3 2 0 172.59 175.65 o 1.094958
1 -3 2 0 0.41 0.42 o 1.094958
2 1 2 0 41.16 41.89 o 1.094958
-3 2 2 0 1.05 1.07 o 1.094958
3 -1 2 0 47.51 48.35 o 1.094958
3 -2 2 0 90.32 91.91 o 1.094958
-2 -1 2 0 67.63 68.83 o 1.094958
-1 3 2 0 404.61 411.77 o 1.094958
-2 3 2 0 0.04 0.04 o 1.094958
1 2 2 0 270.54 275.33 o 1.094958
3 0 1 -1 133.95 136.32 o 1.094951
-2 3 2 2 43.29 44.05 o 1.094299
-2 -1 4 2 12.64 12.83 o 1.093810
1 1 5 1 47.96 48.80 o 1.092928
0 -2 5 2 19.15 19.48 o 1.092848
-1 -1 6 2 14.86 15.12 o 1.092633
3 -3 0 -2 0.04 0.04 o 1.091282
2 -2 6 -1 1.49 1.52 o 1.091150
0 1 6 2 18.67 19.13 o 1.090675
0 0 8 -1 113.55 116.41 o 1.090204
2 0 4 1 1.13 1.16 o 1.089442
1 -3 2 -1 0.00 0.00 < 1.089021
0 -2 5 -2 0.47 0.49 o 1.088824
-1 3 3 -2 18.65 19.18 o 1.088656
2 -1 5 1 0.81 0.83 o 1.088599
1 -3 2 1 16.13 16.66 o 1.088041
2 -3 3 -1 172.63 178.37 o 1.088040
1 -2 5 2 0.85 0.88 o 1.087551
1 2 5 -2 21.35 22.06 o 1.087434
0 1 8 -2 0.02 0.02 o 1.086637
2 -1 6 0 46.48 48.58 o 1.086618
-2 1 6 0 131.63 137.57 o 1.086618
-1 -1 6 0 130.93 136.84 o 1.086618
1 1 6 0 75.06 78.45 o 1.086618
-1 2 6 0 79.31 82.89 o 1.086618
1 -2 6 0 111.43 116.47 o 1.086618
3 -2 4 -1 117.15 123.69 o 1.085718
1 -3 1 -2 3.32 3.50 o 1.084789
2 -3 1 1 81.44 87.50 o 1.083889
0 2 6 -1 6.37 6.94 o 1.082585
1 -1 6 2 11.37 12.39 o 1.082121
-3 0 1 1 10.50 11.73 o 1.081709
1 1 4 2 0.67 0.74 o 1.081357
3 -3 2 -2 6.73 7.52 o 1.081023
1 -3 0 -2 101.49 112.41 o 1.080809
-1 1 7 1 0.41 0.45 o 1.078839
1 2 4 -1 1.55 1.67 o 1.077279
-2 3 2 -1 63.33 64.89 o 1.076322
-1 3 3 -1 25.15 25.15 o 1.075375
0 -1 7 1 3.68 3.68 o 1.074675
3 0 2 -1 19.00 17.34 o 1.074188
-2 0 4 -2 6.34 5.79 o 1.073301
2 -1 4 2 0.03 0.03 o 1.073019
-2 2 5 -2 8.69 7.61 o 1.071999
-3 0 3 2 2.90 2.43 o 1.071446
1 -3 2 -2 39.74 33.31 o 1.070840
0 3 1 -2 117.38 96.10 o 1.069985
-3 3 1 2 11.20 9.34 o 1.069335
-1 0 7 2 15.59 12.99 o 1.069237
1 -3 2 2 11.31 9.13 o 1.068979
-3 2 4 2 13.74 11.10 o 1.068802
2 -1 7 -1 98.57 79.35 o 1.067357
-2 0 5 -1 0.39 0.32 o 1.066870
0 3 0 -2 0.70 0.57 o 1.066166
-1 -1 6 -1 42.27 35.12 o 1.065271
-2 0 6 2 2.36 2.00 o 1.064573
0 0 7 2 19.51 16.52 o 1.064274
2 -3 4 -2 3.88 3.32 o 1.064120
-1 3 2 1 23.16 20.59 o 1.063418
1 1 7 -1 1.15 1.02 o 1.063324
-2 1 6 -1 0.02 0.02 o 1.061261
-2 3 1 -2 38.84 37.46 o 1.060108
-1 3 1 2 0.59 0.59 o 1.059475
1 0 8 -1 107.09 105.99 o 1.058349
0 3 2 -2 6.39 6.44 o 1.056593
2 -3 0 2 1.80 1.82 o 1.056393
1 2 0 1 31.26 32.43 o 1.054474
0 2 4 2 3.19 3.32 o 1.054136
-1 -2 4 2 0.08 0.08 o 1.052874
3 -1 6 -2 1.12 1.16 o 1.052604
-1 -2 1 -1 39.42 40.75 o 1.052135
-3 1 4 1 0.65 0.67 o 1.051724
1 -3 3 -1 113.14 116.65 o 1.051583
2 -3 2 1 109.00 112.39 o 1.051584
-1 -2 3 0 67.84 69.93 o 1.050912
-2 3 3 0 25.21 25.98 o 1.050912
-3 2 3 0 2.85 2.93 o 1.050912
-1 3 3 0 9.61 9.91 o 1.050912
2 1 3 0 64.37 66.36 o 1.050912
2 -3 3 0 208.18 214.59 o 1.050912
3 -1 3 0 88.13 90.84 o 1.050912
-3 1 3 0 64.57 66.56 o 1.050912
3 -2 3 0 141.91 146.28 o 1.050912
-2 -1 3 0 8.18 8.43 o 1.050912
1 2 3 0 1.66 1.71 o 1.050912
1 -3 3 0 2.03 2.09 o 1.050912
-2 3 3 1 6.66 6.87 o 1.050392
3 -3 3 -2 0.03 0.03 o 1.050277
2 -2 7 -2 27.64 28.26 o 1.050197
1 0 6 2 3.23 3.30 o 1.050078
-3 0 2 1 35.09 35.88 o 1.049593
3 -3 0 -1 2.95 3.00 o 1.048599
-2 0 6 1 8.82 8.98 o 1.048131
-2 -1 4 1 9.88 9.83 o 1.047865
-1 2 6 1 3.56 3.54 o 1.047266
2 0 3 2 0.56 0.55 o 1.047156
-2 3 2 -2 10.76 10.71 o 1.047079
3 -2 0 1 0.17 0.17 o 1.046737
3 -3 1 -1 0.15 0.15 o 1.046299
0 0 8 0 18.05 17.50 o 1.046178
0 -3 1 2 0.66 0.64 o 1.045671
1 -2 7 -2 10.80 10.18 o 1.045493
0 2 5 1 0.04 0.04 o 1.045392
2 1 6 -2 1.06 1.00 o 1.044909
-3 2 1 -1 7.47 6.82 o 1.044449
0 1 7 1 8.85 7.92 o 1.043270
1 -1 8 -1 117.19 104.89 o 1.043007
1 -3 3 -2 7.49 6.51 o 1.040931
-1 3 4 -2 0.03 0.03 o 1.040794
1 2 1 1 0.22 0.19 o 1.040370
-2 3 3 -1 19.79 17.22 o 1.040135
1 -2 6 1 213.07 184.02 o 1.039686
1 -1 7 1 7.71 6.66 o 1.039502
0 1 8 -1 11.70 10.11 o 1.039243
1 -3 3 1 7.77 6.71 o 1.038983
2 -2 4 2 0.38 0.33 o 1.038846
-2 3 3 2 20.21 17.16 o 1.038625
-1 1 7 2 1.35 1.15 o 1.038292
3 0 3 -1 1.40 1.19 o 1.038209
2 -2 5 1 115.63 98.21 o 1.037853
0 3 0 -1 16.65 13.97 o 1.037248
-3 2 4 1 7.44 6.24 o 1.036665
2 -3 1 2 77.15 64.73 o 1.036447
2 1 0 1 0.01 0.00 < 1.035573
0 2 7 -2 2.50 2.14 o 1.035075
0 3 1 -1 46.85 40.10 o 1.035021
-3 3 1 1 0.00 0.00 < 1.034727
2 -3 4 -1 9.76 8.36 o 1.034521
3 0 5 -2 39.25 33.92 o 1.034102
-1 -1 6 -2 5.94 5.09 o 1.034036
-1 -2 2 -1 1.10 0.94 o 1.033673
2 -1 8 -2 1.07 0.91 o 1.033416
-2 -1 1 -1 0.55 0.47 o 1.033357
3 -2 1 1 105.46 92.33 o 1.032938
-3 3 2 2 7.31 6.41 o 1.032575
3 -1 0 1 170.76 154.02 o 1.031888
3 -1 5 -1 1.66 1.49 o 1.031374
0 -1 7 2 0.58 0.52 o 1.030904
-1 2 7 -2 55.98 51.60 o 1.030571
-3 1 1 -1 7.11 6.66 o 1.029696
-1 -2 4 1 4.07 3.97 o 1.029311
3 -3 2 -1 7.37 7.42 o 1.028138
0 3 3 -2 17.80 17.91 o 1.027830
2 1 5 -1 108.36 109.04 o 1.027734
-2 1 6 -2 4.92 5.12 o 1.026738
-3 2 2 -1 280.83 292.20 o 1.026383
1 1 8 -2 8.35 8.83 o 1.026131
1 0 7 1 1.62 1.77 o 1.024954
0 -1 8 -2 0.47 0.52 o 1.024509
0 -3 1 1 35.07 38.93 o 1.023816
-1 3 2 2 5.21 5.88 o 1.023690
-1 3 4 -1 34.61 39.06 o 1.023616
3 -2 6 -2 65.97 74.45 o 1.023042
2 1 1 1 127.34 147.01 o 1.022205
-2 2 6 0 60.77 70.84 o 1.021727
0 2 6 0 19.93 23.23 o 1.021727
-2 0 6 0 15.72 18.32 o 1.021727
2 -2 6 0 39.23 45.73 o 1.021727
2 0 6 0 41.58 48.46 o 1.021727
0 -2 6 0 129.96 151.49 o 1.021727
0 -2 6 -1 7.14 8.39 o 1.021111
2 0 7 -1 62.89 74.77 o 1.019396
-2 3 3 -2 66.13 79.23 o 1.019066
-2 2 6 1 3.08 3.70 o 1.018934
3 -1 1 1 28.13 33.88 o 1.018660
1 -2 7 -1 139.31 167.79 o 1.018600
-1 3 3 1 0.57 0.68 o 1.017478
0 3 2 -1 23.46 27.96 o 1.017432
-1 1 8 -2 7.40 8.82 o 1.017409
3 -2 5 -1 0.80 0.96 o 1.017160
1 -3 3 2 64.11 77.95 o 1.016902
-2 -1 2 -1 16.07 19.64 o 1.015851
-3 1 5 2 15.80 19.06 o 1.014555
-2 2 6 -1 42.08 50.41 o 1.014081
-3 1 2 -1 7.23 8.38 o 1.012372
-2 0 5 -2 0.00 0.00 < 1.012213
0 -2 6 1 68.04 77.76 o 1.011949
1 2 2 1 60.19 68.79 o 1.011702
-1 2 7 -1 11.28 12.89 o 1.011622
0 -3 2 2 1.19 1.36 o 1.011222
0 -1 8 -1 184.33 209.54 o 1.010762
1 2 5 -1 11.87 13.45 o 1.010211
0 -2 6 -2 28.81 32.66 o 1.010157
2 0 5 1 0.31 0.35 o 1.009483
1 2 6 -2 7.54 8.40 o 1.009048
-2 -1 5 2 0.10 0.11 o 1.007659
-1 1 8 -1 90.80 99.97 o 1.007335
3 -3 4 -2 10.97 12.08 o 1.007106
2 -3 3 1 22.95 25.27 o 1.007098
-3 3 2 1 15.37 16.80 o 1.006511
-2 2 6 2 16.01 17.47 o 1.005955
-3 0 3 1 21.58 23.54 o 1.005350
3 -2 2 1 109.42 119.12 o 1.004864
2 -3 5 -2 2.16 2.35 o 1.004502
-3 0 4 2 12.84 13.94 o 1.004247
1 -3 4 -1 56.24 60.62 o 1.003033
2 -3 2 2 1.35 1.45 o 1.002872
4 -2 1 -2 50.24 54.16 o 1.002845
2 0 8 -2 32.81 35.37 o 1.002783
-1 2 6 2 0.11 0.12 o 1.001819
-1 -2 3 -1 96.55 103.43 o 1.001495
0 3 0 0 375.68 403.40 o 1.000519
3 0 0 0 1412.08 1516.29 o 1.000519
3 -3 0 0 794.89 853.55 o 1.000519
4 -2 0 -2 0.65 0.70 o 0.999698
1 -3 4 -2 100.10 107.92 o 0.998857
1 0 9 -2 1.69 1.83 o 0.998609
1 1 5 2 40.77 43.97 o 0.997897
1 1 6 1 27.22 29.35 o 0.997765
-3 2 4 0 347.93 375.78 o 0.997317
-2 3 4 0 434.80 469.60 o 0.997317
1 -3 4 0 166.71 180.06 o 0.997317
-3 1 4 0 0.12 0.13 o 0.997317
2 1 4 0 623.67 673.60 o 0.997317
-1 3 4 0 1.75 1.89 o 0.997317
-2 -1 4 0 17.11 18.48 o 0.997317
2 -3 4 0 24.88 26.87 o 0.997317
1 2 4 0 7.97 8.61 o 0.997317
3 -2 4 0 4.75 5.13 o 0.997317
3 -1 4 0 689.41 744.60 o 0.997317
-1 -2 4 0 293.40 316.89 o 0.997317
0 0 8 1 22.04 23.80 o 0.997147
-2 2 6 -2 27.34 29.52 o 0.996679
0 -3 2 1 0.19 0.21 o 0.996459
3 -3 3 -1 20.18 21.80 o 0.996458
2 1 2 1 2.88 3.11 o 0.994974
-3 2 3 -1 100.83 108.66 o 0.994860
0 0 9 -2 4.45 4.79 o 0.994562
2 -1 6 1 86.09 92.51 o 0.994468
-1 0 8 -1 33.81 36.27 o 0.994080
3 0 1 0 53.69 57.40 o 0.993446
-3 3 1 0 71.39 76.33 o 0.993446
0 3 1 0 0.77 0.82 o 0.993446
3 -3 1 0 102.16 109.23 o 0.993446
0 -3 1 0 19.46 20.81 o 0.993446
-3 0 1 0 9.65 10.32 o 0.993446
-2 3 4 -1 0.05 0.05 o 0.993085
0 -2 6 2 3.09 3.30 o 0.992641
2 -2 7 -1 26.13 27.90 o 0.992475
-2 3 4 1 1.05 1.11 o 0.991822
4 -2 2 -2 2.59 2.74 o 0.991793
3 -1 2 1 1.64 1.73 o 0.991704
3 0 4 -1 109.45 115.78 o 0.991408
2 -1 5 2 16.51 17.46 o 0.991333
-1 0 8 -2 9.62 10.20 o 0.990641
2 2 1 -2 105.56 111.66 o 0.989653
-2 1 7 1 13.77 14.55 o 0.989377
1 -2 6 2 41.55 43.66 o 0.988667
-3 2 5 2 2.77 2.90 o 0.988005
1 -1 8 0 142.93 150.00 o 0.987891
0 -1 8 0 266.38 279.57 o 0.987891
-1 0 8 0 154.61 162.26 o 0.987891
0 1 8 0 253.04 265.57 o 0.987891
-1 1 8 0 80.97 84.98 o 0.987891
1 0 8 0 222.48 233.50 o 0.987891
-2 0 6 -1 314.44 330.01 o 0.987568
0 3 4 -2 4.15 4.35 o 0.987264
0 3 3 -1 0.85 0.90 o 0.986703
2 2 0 -2 0.24 0.26 o 0.986628
-1 -1 7 1 0.09 0.09 o 0.986162
0 2 7 -1 2.04 2.15 o 0.986016
-3 3 3 2 48.78 51.56 o 0.985413
-2 -1 3 -1 129.94 137.33 o 0.985260
-2 1 7 2 20.94 22.13 o 0.985128
-1 3 5 -2 8.21 8.69 o 0.984810
2 0 4 2 0.01 0.01 o 0.984164
-1 2 7 0 19.32 20.42 o 0.984128
-1 -1 7 0 1.62 1.71 o 0.984128
1 -2 7 0 2.71 2.87 o 0.984128
2 -1 7 0 9.19 9.71 o 0.984128
1 1 7 0 5.57 5.89 o 0.984128
-2 1 7 0 26.74 28.26 o 0.984128
-1 -2 1 -2 0.00 0.00 < 0.982844
-4 2 1 2 15.70 16.05 o 0.982744
1 -3 4 1 6.14 6.21 o 0.982201
-3 1 3 -1 4.74 4.79 o 0.982085
1 2 0 2 81.67 77.03 o 0.979881
-2 3 4 -2 6.87 6.48 o 0.979489
-3 1 5 1 1.06 1.00 o 0.979256
2 2 2 -2 8.62 8.12 o 0.979027
-1 -1 7 2 0.15 0.14 o 0.978811
-1 3 3 2 16.06 15.05 o 0.977681
0 1 7 2 31.92 30.18 o 0.977403
-2 3 4 2 3.62 3.43 o 0.977071
0 2 5 2 68.16 64.18 o 0.976385
-2 -1 5 1 112.40 105.85 o 0.976139
-1 -2 5 2 8.02 7.59 o 0.975383
4 -1 1 -2 0.00 0.00 < 0.974779
2 -3 5 -1 2.68 2.50 o 0.974700
1 -1 9 -2 49.88 47.46 o 0.973261
3 0 2 0 8.38 7.98 o 0.973093
-3 3 2 0 27.77 26.43 o 0.973093
-3 0 2 0 20.73 19.73 o 0.973093
0 3 2 0 12.89 12.27 o 0.973093
0 -3 2 0 39.18 37.29 o 0.973093
3 -3 2 0 13.89 13.22 o 0.973093
-1 -1 7 -1 8.38 8.01 o 0.972881
-1 0 8 1 2.06 2.00 o 0.972598
-1 -2 2 -2 52.25 50.68 o 0.972434
1 2 3 1 50.62 48.53 o 0.971904
4 -1 0 -2 4.90 4.69 o 0.971888
1 -1 7 2 1.88 1.80 o 0.971233
-3 2 1 -2 34.64 33.46 o 0.970416
-2 -2 1 2 4.28 4.13 o 0.970320
-2 1 7 -1 0.06 0.06 o 0.969824
3 1 1 -2 0.09 0.09 o 0.968658
4 -2 3 -2 9.31 8.98 o 0.967890
3 -1 7 -2 0.40 0.39 o 0.967827
3 -2 0 2 34.78 33.56 o 0.967564
-3 3 3 1 7.15 6.90 o 0.967298
0 1 9 -2 74.13 71.54 o 0.967168
-3 2 5 1 63.04 59.81 o 0.967065
0 -3 3 2 70.89 67.17 o 0.966802
3 0 6 -2 25.30 24.30 o 0.966003
3 -2 3 1 6.96 6.68 o 0.965836
3 1 0 -2 8.18 7.86 o 0.965821
-1 3 5 -1 16.32 15.68 o 0.965564
0 0 9 -1 7.97 7.59 o 0.965031
4 -1 2 -2 0.43 0.41 o 0.964621
2 -2 5 2 0.58 0.54 o 0.964197
-1 3 4 1 24.36 22.79 o 0.963973
1 2 1 2 1.21 1.13 o 0.963900
2 1 7 -2 1.12 1.03 o 0.961835
2 -1 8 -1 54.64 50.41 o 0.961522
0 2 6 1 24.95 22.82 o 0.961204
-1 -2 5 1 183.88 168.25 o 0.961087
-1 1 8 1 169.02 154.65 o 0.960651
-3 2 2 -2 2.35 2.16 o 0.960392
2 -3 3 2 9.74 9.17 o 0.959497
-1 -2 4 -1 109.18 102.68 o 0.959290
3 -1 6 -1 16.96 15.95 o 0.959213
1 -3 4 2 14.40 13.54 o 0.958921
3 1 2 -2 0.65 0.62 o 0.958688
0 3 0 1 2.05 1.94 o 0.958613
1 1 8 -1 38.43 36.29 o 0.958570
-2 0 7 2 1.50 1.42 o 0.958485
0 -3 3 1 28.96 27.12 o 0.958366
0 -1 8 1 144.70 134.41 o 0.957708
2 1 3 1 1.67 1.54 o 0.957044
0 -3 1 -1 1.30 1.22 o 0.956854
-4 1 1 2 32.48 30.03 o 0.956289
2 1 6 -1 14.85 13.73 o 0.956283
3 -3 5 -2 26.92 24.89 o 0.956127
2 2 3 -2 9.80 9.06 o 0.956013
2 -2 6 1 14.21 13.27 o 0.955333
2 -3 4 1 2.03 1.90 o 0.955132
3 -3 4 -1 48.88 45.63 o 0.954861
3 -1 3 1 17.04 15.83 o 0.954134
-4 2 2 2 7.74 7.19 o 0.953983
-3 0 4 1 20.69 19.08 o 0.953640
-3 2 4 -1 12.17 11.22 o 0.953455
2 -2 8 -2 5.44 5.01 o 0.953339
-1 -1 7 -2 0.23 0.21 o 0.953335
-2 -1 1 -2 22.76 20.76 o 0.952825
3 -2 1 2 3.94 3.58 o 0.952168
-2 0 7 1 21.68 20.10 o 0.950818
-3 -1 1 2 1.61 1.51 o 0.950507
-1 2 7 1 3.08 2.88 o 0.950171
2 1 0 2 47.71 44.64 o 0.950124
3 -3 0 1 0.09 0.09 o 0.949917
-1 -2 3 -2 14.88 13.98 o 0.949872
1 -2 8 -2 3.07 2.88 o 0.949816
-1 0 8 2 0.70 0.67 o 0.949426
1 -3 5 -2 0.21 0.21 o 0.949060
1 -3 5 -1 35.37 34.30 o 0.948230
-3 3 1 -1 0.13 0.13 o 0.948206
-2 0 6 -2 63.55 61.80 o 0.948089
0 3 1 1 22.33 21.71 o 0.947979
1 0 7 2 3.31 3.22 o 0.947865
3 -2 6 -1 0.03 0.03 o 0.947747
-2 1 7 -2 59.71 58.62 o 0.947606
-3 1 1 -2 14.98 14.71 o 0.947106
0 3 4 -1 7.73 7.64 o 0.946266
0 0 8 2 2.60 2.59 o 0.945946
-2 -1 4 -1 5.74 5.73 o 0.944994
3 -2 7 -2 0.49 0.49 o 0.944698
1 -2 7 1 0.83 0.83 o 0.944500
3 -1 0 2 5.45 5.43 o 0.944454
-2 -1 2 -2 4.73 4.72 o 0.943331
0 -3 2 -1 0.14 0.14 o 0.942905
1 0 9 -1 57.56 57.41 o 0.942727
-2 -2 2 2 5.22 5.21 o 0.942605
4 -1 3 -2 19.63 19.57 o 0.942586
-3 1 4 -1 19.69 19.59 o 0.942191
1 2 6 -1 1.90 1.89 o 0.942118
0 2 8 -2 7.44 7.40 o 0.941984
-3 3 3 0 486.24 483.83 o 0.941785
3 -3 3 0 714.52 710.98 o 0.941785
0 3 3 0 394.63 392.67 o 0.941785
3 0 3 0 144.65 143.93 o 0.941785
-3 0 3 0 338.74 337.06 o 0.941785
0 -3 3 0 421.68 419.58 o 0.941785
2 -3 6 -2 98.93 98.61 o 0.941743
-2 3 5 -1 11.32 11.28 o 0.939812
3 -3 1 1 9.44 9.41 o 0.939568
1 -3 5 0 45.46 45.32 o 0.939113
-2 -1 5 0 249.88 249.13 o 0.939113
-2 3 5 0 51.17 51.02 o 0.939113
-3 1 5 0 58.31 58.14 o 0.939113
2 -3 5 0 17.08 17.02 o 0.939113
2 1 5 0 64.74 64.54 o 0.939113
3 -1 5 0 120.14 119.78 o 0.939113
3 -2 5 0 112.71 112.37 o 0.939113
1 2 5 0 130.36 129.97 o 0.939113
-1 3 5 0 141.59 141.17 o 0.939113
-3 2 5 0 72.08 71.86 o 0.939113
-1 -2 5 0 24.90 24.82 o 0.939113
0 3 5 -2 100.45 100.14 o 0.939099
0 -2 7 -1 0.07 0.07 o 0.938897
-3 2 3 -2 15.90 15.89 o 0.938639
-1 2 8 -2 2.27 2.27 o 0.938586
3 0 5 -1 5.18 5.17 o 0.938390
-3 1 2 -2 15.13 15.18 o 0.937780
3 1 3 -2 28.29 28.60 o 0.937048
1 2 2 2 14.60 14.76 o 0.936717
-3 0 5 2 9.29 9.48 o 0.936343
2 1 1 2 8.52 8.70 o 0.935534
0 1 8 1 22.46 23.04 o 0.935280
-2 2 7 0 11.40 11.69 o 0.935147
0 2 7 0 337.35 345.93 o 0.935147
0 -2 7 0 20.40 20.92 o 0.935147
-2 0 7 0 83.39 85.51 o 0.935147
2 0 7 0 3.17 3.25 o 0.935147
2 -2 7 0 10.51 10.78 o 0.935147
-3 3 2 -1 11.81 12.11 o 0.934626
0 -2 7 -2 24.28 25.07 o 0.934525
4 -2 4 -2 6.14 6.35 o 0.933789
1 2 7 -2 112.75 115.97 o 0.933646
-2 2 7 -1 93.53 96.21 o 0.933424
2 0 6 1 16.26 16.67 o 0.933069
-3 1 6 2 19.60 20.11 o 0.932871
1 -1 8 1 1.53 1.58 o 0.932563
-2 3 5 -2 4.78 4.95 o 0.932400
-3 3 4 2 0.10 0.10 o 0.932381
1 -1 9 -1 67.38 69.29 o 0.931835
-2 3 5 1 23.28 23.72 o 0.930357
3 -1 1 2 23.16 23.32 o 0.930119
0 0 9 0 35.97 36.23 o 0.929936
4 -2 0 -1 0.39 0.40 o 0.929921
-4 1 2 2 0.79 0.80 o 0.929727
4 -3 1 -2 6.76 6.78 o 0.929180
0 1 9 -1 43.75 43.91 o 0.929148
2 -1 9 -2 0.35 0.35 o 0.929069
-2 2 7 1 5.43 5.42 o 0.928860
4 -2 1 -1 32.05 31.97 o 0.928316
-1 1 8 2 52.97 52.06 o 0.927562
-2 -1 6 2 1.27 1.25 o 0.927502
4 -3 0 -2 26.33 25.66 o 0.926675
0 3 2 1 7.89 7.62 o 0.926139
2 0 8 -1 14.88 14.37 o 0.926015
3 -2 2 2 6.10 5.89 o 0.925939
-1 3 4 2 1.28 1.23 o 0.925824
-1 3 6 -2 0.40 0.38 o 0.925459
1 -2 8 -1 51.91 49.73 o 0.925418
1 2 4 1 0.03 0.03 o 0.924951
2 2 0 -1 27.36 26.10 o 0.924602
-3 -1 2 2 4.45 4.24 o 0.924412
-2 2 7 -2 5.37 4.94 o 0.923822
1 1 9 -2 15.77 14.51 o 0.923764
0 -2 7 1 2.50 2.30 o 0.923559
2 2 4 -2 2.44 2.21 o 0.923111
2 2 1 -1 122.64 112.27 o 0.923024
-2 -1 3 -2 2.37 2.17 o 0.922692
0 -1 9 -2 54.79 50.15 o 0.922580
1 -3 5 1 91.15 81.67 o 0.922402
0 -1 8 2 31.90 28.58 o 0.922284
1 0 8 1 231.60 209.77 o 0.922016
-3 3 4 1 3.25 2.86 o 0.920979
4 -3 2 -2 0.49 0.43 o 0.920369
-4 2 1 1 15.75 13.72 o 0.920205
-1 2 8 -1 0.98 0.86 o 0.920175
2 0 5 2 0.81 0.70 o 0.920001
1 1 6 2 3.35 2.87 o 0.919873
3 -2 4 1 0.07 0.06 o 0.919717
3 -3 2 1 53.71 47.09 o 0.918291
0 -3 3 -1 41.24 36.15 o 0.918290
3 0 0 1 5.22 4.60 o 0.917625
-1 -2 4 -2 29.20 25.73 o 0.917578
-3 1 3 -2 1.76 1.55 o 0.917496
-1 1 9 -2 6.50 5.76 o 0.917386
0 -3 4 2 2.54 2.34 o 0.916570
-4 2 3 2 30.77 28.93 o 0.916419
0 -3 1 -2 14.24 13.39 o 0.916333
-3 0 1 -1 9.82 9.23 o 0.916082
4 -2 2 -1 20.21 19.32 o 0.915561
-2 -2 1 1 55.14 52.71 o 0.915050
-2 2 7 2 17.53 16.76 o 0.915035
2 -1 6 2 94.35 95.71 o 0.914723
-2 3 5 2 11.11 11.27 o 0.914199
0 3 0 2 20.45 21.31 o 0.913930
1 3 1 -2 6.35 6.61 o 0.913528
0 -3 4 1 0.77 0.83 o 0.913260
-4 3 1 2 6.87 7.45 o 0.913123
2 -3 6 -1 22.13 24.00 o 0.913118
1 1 7 1 8.25 8.95 o 0.912739
-2 0 7 -1 18.07 19.60 o 0.912623
2 1 4 1 67.66 76.25 o 0.912116
-3 2 6 2 26.78 30.18 o 0.912107
-1 2 7 2 49.21 55.46 o 0.911919
1 3 0 -2 0.28 0.34 o 0.911148
-1 -2 5 -1 88.84 105.86 o 0.911018
4 -1 4 -2 6.87 8.19 o 0.911005
-3 3 3 -1 37.40 46.97 o 0.910638
2 1 2 2 25.35 31.83 o 0.910620
2 2 2 -1 0.41 0.51 o 0.910484
2 -3 4 2 3.95 4.96 o 0.910339
2 -1 7 1 5.32 6.68 o 0.910213
3 -1 4 1 43.90 56.43 o 0.909595
-3 1 6 1 2.57 3.36 o 0.909044
0 -1 9 -1 4.17 5.44 o 0.908626
3 0 1 1 14.84 19.92 o 0.908285
0 -3 2 -2 56.59 75.98 o 0.907879
-3 2 4 -2 6.48 8.69 o 0.907441
-1 3 5 1 41.95 56.21 o 0.907255
3 -3 5 -1 1.90 2.55 o 0.907221
2 0 9 -2 86.64 115.49 o 0.906620
-2 -1 6 1 12.90 17.19 o 0.906548
-2 -2 3 2 26.87 35.82 o 0.906319
-1 1 9 -1 50.94 67.51 o 0.906134
-3 2 5 -1 5.38 7.12 o 0.906015
3 1 4 -2 23.65 31.35 o 0.906003
2 -2 8 -1 173.78 238.60 o 0.905695
3 -1 2 2 23.41 32.14 o 0.905624
-1 3 6 -1 6.24 8.57 o 0.905593
1 3 2 -2 11.45 15.47 o 0.905151
0 -2 7 2 6.22 8.54 o 0.904980
-3 0 2 -1 0.46 0.60 o 0.903819
0 2 6 2 4.89 6.28 o 0.902941
-3 3 4 0 4.78 6.12 o 0.902632
0 3 4 0 5.45 6.98 o 0.902632
3 -3 4 0 51.34 65.76 o 0.902632
3 0 4 0 195.41 250.32 o 0.902632
0 -3 4 0 15.73 20.15 o 0.902632
-3 0 4 0 133.21 170.64 o 0.902632
-1 -2 6 2 0.01 0.00 < 0.902148
1 -2 7 2 12.10 15.25 o 0.901966
3 -3 6 -2 20.72 25.32 o 0.901535
-3 3 1 -2 10.85 13.26 o 0.901311
4 -3 3 -2 5.55 6.78 o 0.901171
1 2 3 2 27.92 33.88 o 0.901081
0 3 1 2 10.56 12.81 o 0.900922
0 2 8 -1 32.04 38.14 o 0.900779
-4 2 2 1 4.17 4.93 o 0.900189
2 -3 5 1 25.24 29.75 o 0.899873
0 3 5 -1 5.46 6.44 o 0.899840
1 -3 5 2 0.25 0.29 o 0.899281
-3 2 6 1 24.62 28.47 o 0.899267
3 0 7 -2 8.37 9.68 o 0.899236
3 -3 0 2 15.50 17.93 o 0.899025
-2 -1 5 -1 116.05 134.19 o 0.898746
-3 0 5 1 111.52 127.61 o 0.898625
-1 -3 1 2 118.81 134.97 o 0.898256
4 -1 0 -1 50.81 57.56 o 0.897687
-1 0 9 -2 59.46 67.37 o 0.897617
-1 0 9 -1 86.22 96.45 o 0.896449
-3 1 5 -1 39.15 43.29 o 0.896334
4 -1 1 -1 13.43 14.94 o 0.896243
-2 1 8 1 0.04 0.05 o 0.895860
1 -2 8 0 21.61 24.05 o 0.895626
2 -1 8 0 72.34 80.49 o 0.895626
-1 2 8 0 13.29 14.79 o 0.895626
1 1 8 0 0.07 0.08 o 0.895626
-1 -1 8 0 31.38 34.92 o 0.895626
-2 1 8 0 8.30 9.23 o 0.895626
1 -3 6 -2 9.14 10.17 o 0.895603
-2 -2 2 1 3.12 3.41 o 0.895362
0 3 3 1 0.55 0.61 o 0.895317
3 1 0 -1 0.79 0.86 o 0.895284
-4 1 3 2 2.29 2.50 o 0.894854
-1 -2 6 1 6.27 6.80 o 0.894454
3 1 1 -1 4.90 5.26 o 0.893851
-1 -1 8 1 0.82 0.88 o 0.893471
2 -2 6 2 28.92 31.02 o 0.893275
-3 3 2 -2 0.30 0.32 o 0.893263
1 0 10 -2 18.78 19.97 o 0.893182
-2 -1 4 -2 0.78 0.83 o 0.893008
4 -2 3 -1 62.24 66.20 o 0.892976
4 -2 5 -2 56.48 60.07 o 0.892723
3 -2 3 2 1.35 1.40 o 0.891475
0 0 9 1 81.34 84.80 o 0.891332
1 -3 6 -1 65.60 68.39 o 0.891247
-1 -1 8 -1 132.84 136.23 o 0.890731
3 -1 8 -2 0.00 0.00 < 0.890452
0 0 10 -2 0.60 0.61 o 0.890283
-3 -1 3 2 0.05 0.05 o 0.890111
3 -1 7 -1 6.05 6.18 o 0.890106
-4 3 2 2 10.22 10.44 o 0.889914
0 -3 3 -2 28.50 29.16 o 0.889436
-2 1 8 2 1.84 1.89 o 0.889071
3 0 2 1 42.77 43.96 o 0.889021
-4 1 1 1 5.51 5.66 o 0.888938
-2 1 8 -1 36.09 37.09 o 0.888383
-3 1 4 -2 71.80 73.78 o 0.888294
0 1 9 0 121.49 124.85 o 0.888281
-1 0 9 0 82.43 84.70 o 0.888281
-1 1 9 0 16.27 16.72 o 0.888281
0 -1 9 0 69.83 71.76 o 0.888281
1 0 9 0 23.11 23.75 o 0.888281
1 -1 9 0 227.62 233.91 o 0.888281
2 2 3 -1 51.58 53.00 o 0.888263
3 -3 3 1 44.52 45.75 o 0.888220
2 1 7 -1 19.83 20.55 o 0.887763
0 3 6 -2 15.07 15.67 o 0.887218
1 3 3 -2 51.56 53.77 o 0.886871
3 -3 1 2 10.57 11.03 o 0.886634
-3 -1 1 1 121.85 127.24 o 0.886604
2 1 8 -2 12.23 12.83 o 0.885778
0 -3 4 -1 25.27 26.71 o 0.885428
4 -1 2 -1 5.29 5.58 o 0.884749
-2 0 7 -2 3.44 3.63 o 0.884731
0 2 7 1 50.04 52.86 o 0.884500
-1 -1 8 2 1.72 1.80 o 0.884419
-2 3 6 -1 0.59 0.62 o 0.884246
0 1 8 2 6.44 6.79 o 0.883380
2 2 5 -2 143.24 151.03 o 0.883379
3 0 6 -1 0.41 0.43 o 0.883061
3 1 2 -1 18.80 19.60 o 0.882448
-3 0 3 -1 34.20 35.55 o 0.882071
-2 3 6 -2 6.49 6.70 o 0.881562
3 -2 7 -1 9.71 9.88 o 0.880921
2 1 6 0 0.81 0.82 o 0.880141
-3 2 6 0 56.21 56.75 o 0.880141
-2 3 6 0 10.54 10.64 o 0.880141
-2 -1 6 0 110.86 111.93 o 0.880141
-3 1 6 0 0.10 0.10 o 0.880141
3 -1 6 0 7.88 7.95 o 0.880141
3 -2 6 0 78.71 79.47 o 0.880141
-1 3 6 0 86.45 87.28 o 0.880141
2 -3 6 0 60.90 61.48 o 0.880141
1 2 6 0 81.53 82.32 o 0.880141
1 -3 6 0 110.95 112.02 o 0.880141
-1 -2 6 0 3.97 4.01 o 0.880141
2 -2 7 1 8.38 8.46 o 0.879920
2 -3 7 -2 0.01 0.01 o 0.879568
4 -3 0 -1 8.44 8.50 o 0.879139
-1 -1 8 -2 4.88 4.91 o 0.879126
1 -1 8 2 15.62 15.63 o 0.878816
0 3 2 2 0.00 0.00 < 0.878609
-3 3 4 -1 23.97 24.22 o 0.878562
-1 -2 5 -2 6.67 6.74 o 0.878526
4 -3 1 -1 15.35 15.34 o 0.877782
2 1 3 2 36.02 36.02 o 0.877779
-3 3 5 2 9.88 9.81 o 0.877282
1 2 7 -1 18.43 18.69 o 0.876395
-1 -3 2 2 0.62 0.63 o 0.876135
-3 3 3 -2 38.07 39.44 o 0.875680
1 -1 10 -2 0.18 0.19 o 0.874906
-2 1 8 -2 15.77 16.80 o 0.874628
1 2 5 1 15.26 16.32 o 0.874500
-1 0 9 1 52.00 56.01 o 0.873668
4 -3 4 -2 21.85 23.53 o 0.873454
3 -1 3 2 41.73 44.95 o 0.873302
-4 2 4 2 3.35 3.61 o 0.873302
4 -1 5 -2 13.42 14.62 o 0.872752
1 3 0 -1 22.90 24.86 o 0.872418
2 -1 9 -1 32.74 35.49 o 0.872354
3 -2 8 -2 45.33 49.14 o 0.872340
-1 3 5 2 8.88 9.63 o 0.871814
-4 2 3 1 0.26 0.28 o 0.871809
-3 3 5 1 23.85 25.88 o 0.871140
1 3 1 -1 6.20 6.72 o 0.871092
-3 0 6 2 6.41 6.90 o 0.870991
-4 3 1 1 29.12 31.47 o 0.870916
-4 1 2 1 26.38 28.51 o 0.870854
0 1 10 -2 0.03 0.03 o 0.870472
1 1 9 -1 2.83 3.05 o 0.870148
3 -2 5 1 3.33 3.59 o 0.870072
-3 2 5 -2 4.91 5.29 o 0.869616
2 -2 9 -2 48.08 51.72 o 0.869587
-2 3 6 1 4.90 5.27 o 0.869524
-2 0 8 2 87.26 94.22 o 0.869339
-3 -1 2 1 3.22 3.45 o 0.868660
3 1 5 -2 27.17 29.11 o 0.868351
2 -4 0 -1 4.12 4.34 o 0.867604
-2 -2 3 1 97.82 103.18 o 0.867421
3 -4 1 -2 0.29 0.31 o 0.867002
4 -3 2 -1 24.81 26.21 o 0.866976
-2 0 8 1 192.92 204.41 o 0.866933
1 -2 9 -2 1.16 1.23 o 0.866911
4 -2 0 0 677.41 719.01 o 0.866475
2 -4 0 0 381.84 405.28 o 0.866475
2 2 0 0 493.52 523.82 o 0.866475
-1 2 8 1 2.59 2.74 o 0.866443
2 -4 1 -1 0.26 0.27 o 0.866300
4 0 1 -2 1.82 1.93 o 0.866300
-1 3 7 -2 27.66 29.35 o 0.866257
0 0 10 -1 0.00 0.00 < 0.865563
3 -3 2 2 1.03 1.09 o 0.865341
-1 1 9 1 8.76 9.28 o 0.864978
3 -4 0 -2 20.24 21.44 o 0.864966
0 -3 5 1 0.07 0.08 o 0.864599
-2 -2 4 2 2.68 2.83 o 0.864549
0 -2 8 -1 251.16 264.65 o 0.864429
-1 -3 1 1 24.59 25.91 o 0.864380
2 -4 1 -2 5.88 6.20 o 0.864350
4 -1 3 -1 0.45 0.48 o 0.864319
0 -2 8 -2 1.36 1.44 o 0.864311
4 0 0 -2 3.72 3.92 o 0.864269
0 -3 5 2 35.27 37.19 o 0.864074
2 1 5 1 8.38 8.82 o 0.863628
1 2 8 -2 9.72 10.23 o 0.863615
1 -3 6 1 1.50 1.59 o 0.863019
0 -1 9 1 43.66 46.35 o 0.862827
0 -3 4 -2 36.52 38.77 o 0.862757
4 -2 4 -1 44.23 46.95 o 0.862670
2 0 7 1 4.75 5.07 o 0.862430
2 -4 0 -2 0.04 0.04 o 0.862332
3 1 3 -1 76.78 82.01 o 0.862173
1 -2 8 1 0.12 0.13 o 0.862136
-2 4 1 0 0.70 0.75 o 0.861868
2 2 1 0 31.97 34.14 o 0.861868
4 -2 1 0 44.42 47.44 o 0.861868
2 -4 1 0 16.09 17.18 o 0.861868
-2 -2 1 0 1.97 2.11 o 0.861868
-4 2 1 0 41.19 44.00 o 0.861868
3 0 3 1 14.74 15.67 o 0.861652
3 -1 5 1 28.64 30.51 o 0.861488
1 0 8 2 15.92 16.96 o 0.861391
0 2 9 -2 46.79 49.73 o 0.860944
1 3 2 -1 1.26 1.35 o 0.860528
1 3 4 -2 6.40 6.83 o 0.860415
-2 2 8 -1 51.12 54.23 o 0.860152
-1 -2 6 -1 105.73 112.17 o 0.860137
1 2 4 2 8.27 8.77 o 0.859999
3 -4 2 -2 15.93 16.90 o 0.859831
-2 4 1 1 0.06 0.07 o 0.859697
-4 3 3 2 0.27 0.29 o 0.859188
4 0 2 -2 1.57 1.67 o 0.859146
2 -4 0 1 2.89 3.04 o 0.859019
-3 1 7 2 57.34 60.49 o 0.859000
2 -3 5 2 57.22 60.56 o 0.858847
-3 3 5 0 81.31 86.05 o 0.858800
-3 0 5 0 1.90 2.01 o 0.858800
3 0 5 0 27.08 28.66 o 0.858800
0 3 5 0 54.49 57.67 o 0.858800
0 -3 5 0 52.43 55.49 o 0.858800
3 -3 5 0 102.03 107.98 o 0.858800
2 2 4 -1 50.90 53.88 o 0.858419
-1 2 9 -2 19.39 20.53 o 0.858347
0 2 8 0 30.12 31.68 o 0.858234
0 -2 8 0 45.11 47.44 o 0.858234
2 0 8 0 108.76 114.39 o 0.858234
2 -2 8 0 196.47 206.64 o 0.858234
-2 2 8 0 228.05 239.87 o 0.858234
-2 0 8 0 132.16 139.01 o 0.858234
0 3 4 1 0.03 0.03 o 0.858212
2 0 6 2 3.49 3.67 o 0.857791
-2 4 1 -1 7.87 8.28 o 0.857753
2 -4 2 -2 17.20 18.13 o 0.857244
3 -3 6 -1 7.59 7.94 o 0.856940
-2 -1 5 -2 1.19 1.24 o 0.856889
-3 2 6 -1 37.17 39.17 o 0.855923
2 -4 2 -1 57.03 60.10 o 0.855907
-2 2 8 -2 1.57 1.66 o 0.855822
-2 -1 7 2 3.51 3.66 o 0.854802
-4 1 4 2 29.37 30.63 o 0.854580
-3 4 1 2 8.65 9.03 o 0.853914
-4 3 2 1 18.43 19.23 o 0.853890
-1 0 9 2 0.05 0.06 o 0.853544
-4 0 1 2 0.98 1.04 o 0.853243
-2 3 6 2 0.21 0.22 o 0.853083
2 -3 7 -1 1.86 1.94 o 0.852906
-3 0 4 -1 127.22 132.65 o 0.852826
-3 1 5 -2 3.79 3.96 o 0.852723
3 -3 4 1 64.37 65.15 o 0.851956
3 -2 4 2 13.10 13.08 o 0.851636
-2 4 1 2 5.76 5.72 o 0.851380
2 -4 1 1 0.00 0.00 < 0.851343
3 -4 0 -1 0.22 0.22 o 0.851289
0 0 9 2 46.84 46.39 o 0.851013
0 3 6 -1 23.18 23.03 o 0.850711
-1 3 6 1 0.36 0.36 o 0.850575
-3 -1 4 2 0.14 0.14 o 0.850447
-2 2 8 1 2.43 2.42 o 0.850192
-3 3 4 -2 5.67 5.66 o 0.850185
-1 4 1 -2 2.80 2.79 o 0.850117
3 -4 1 -1 26.43 26.35 o 0.850057
-2 -1 6 -1 0.06 0.06 o 0.849786
1 0 10 -1 30.05 29.91 o 0.849360
0 3 3 2 35.45 34.67 o 0.849001
1 1 7 2 55.35 53.42 o 0.848819
-2 4 2 0 33.55 32.36 o 0.848478
4 -2 2 0 11.78 11.36 o 0.848478
2 -4 2 0 27.31 26.34 o 0.848478
-2 -2 2 0 49.10 47.35 o 0.848478
-4 2 2 0 4.50 4.34 o 0.848478
2 2 2 0 3.44 3.32 o 0.848478
-3 0 1 -2 17.62 16.84 o 0.848274
1 -4 0 2 20.54 19.64 o 0.848197
4 -2 6 -2 0.82 0.79 o 0.847802
-3 1 6 -1 13.71 13.19 o 0.847746
-1 -3 2 1 142.26 136.86 o 0.847727
4 -3 3 -1 16.60 15.97 o 0.847726
-2 4 2 -1 47.56 45.75 o 0.847662
-2 4 1 -2 20.72 19.76 o 0.847616
0 -3 5 -1 2.69 2.56 o 0.847047
-1 -3 3 2 0.98 0.92 o 0.846769
-1 3 7 -1 9.72 9.17 o 0.846764
3 -3 7 -2 2.54 2.40 o 0.846543
3 0 0 2 1.10 1.04 o 0.846367
0 1 9 1 35.38 33.44 o 0.846318
0 -2 8 1 40.58 37.92 o 0.846122
2 -4 0 2 1.03 0.98 o 0.845713
2 0 9 -1 118.17 110.28 o 0.845578
1 -2 9 -1 3.93 3.67 o 0.845124
-4 1 3 1 79.37 74.18 o 0.845082
2 -1 7 2 24.02 22.39 o 0.844768
2 -3 6 1 45.32 42.24 o 0.844483
1 -1 9 1 78.14 72.13 o 0.844304
3 -4 3 -2 27.01 25.07 o 0.844115
-3 4 1 1 49.24 45.70 o 0.843816
-2 0 8 -1 85.78 79.60 o 0.843793
4 0 3 -2 0.51 0.48 o 0.843467
-3 0 6 1 0.46 0.43 o 0.843451
-3 1 7 1 23.43 21.74 o 0.843353
-1 4 2 -2 17.87 16.58 o 0.843353
-2 4 2 1 29.19 27.08 o 0.843308
1 -4 0 1 3.84 3.56 o 0.843175
-3 -1 3 1 30.46 28.26 o 0.843076
-3 2 7 2 0.37 0.34 o 0.842706
2 -1 10 -2 8.63 7.91 o 0.842384
-1 4 1 -1 85.00 77.90 o 0.841978
1 3 3 -1 1.67 1.53 o 0.841695
2 -4 3 -2 17.95 16.45 o 0.841667
1 -3 7 -2 34.50 31.62 o 0.841626
-3 0 2 -2 43.87 40.22 o 0.841554
1 -1 10 -1 165.99 152.15 o 0.841369
-2 -1 7 1 42.31 38.78 o 0.841359
-1 2 9 -1 4.56 4.22 o 0.841125
-3 3 5 -1 30.48 28.21 o 0.841030
1 -3 6 2 20.84 19.29 o 0.840922
-2 4 2 -2 39.17 36.24 o 0.840912
3 -4 2 -1 2.09 1.95 o 0.840231
2 2 6 -2 0.04 0.04 o 0.839786
2 1 4 2 11.96 11.32 o 0.839671
4 -3 5 -2 11.82 11.19 o 0.839569
0 1 10 -1 38.43 36.40 o 0.839389
1 1 10 -2 6.16 5.96 o 0.838424
1 1 8 1 21.04 20.80 o 0.837778
1 -4 1 2 74.66 73.81 o 0.837768
-1 1 9 2 13.07 12.92 o 0.837553
0 -1 10 -2 84.76 83.80 o 0.837539
-4 2 4 1 0.37 0.37 o 0.837441
2 -4 3 -1 0.95 0.96 o 0.837370
3 -3 3 2 78.47 79.74 o 0.837012
0 0 10 0 0.01 0.00 < 0.836942
4 -1 4 -1 190.53 195.87 o 0.836750
-2 2 8 2 2.19 2.26 o 0.836529
1 0 9 1 0.32 0.33 o 0.836453
3 0 8 -2 9.85 10.27 o 0.836165
3 0 1 2 4.83 5.05 o 0.836004
1 -4 1 1 56.05 58.59 o 0.835912
2 -1 8 1 28.57 29.86 o 0.835823
3 -1 4 2 35.22 36.82 o 0.835749
-1 -2 6 -2 3.81 3.99 o 0.835614
-3 2 7 1 7.44 7.79 o 0.835528
0 2 7 2 3.34 3.50 o 0.835461
2 -4 2 1 6.47 6.77 o 0.835418
2 -4 1 2 0.44 0.46 o 0.835375
1 -3 7 -1 80.32 84.36 o 0.835001
-3 4 2 2 0.14 0.14 o 0.834843
-1 -2 7 2 23.41 24.59 o 0.834833
3 1 4 -1 0.32 0.34 o 0.834803
0 3 7 -2 14.25 15.10 o 0.834656
-4 0 2 2 6.29 6.61 o 0.834216
-1 2 8 2 1.52 1.60 o 0.834146
0 -1 9 2 27.72 28.99 o 0.833660
-1 1 10 -2 54.13 56.62 o 0.833647
-2 -2 4 1 2.22 2.32 o 0.833550
4 -3 0 0 65.28 66.27 o 0.832482
3 -4 0 0 22.42 22.76 o 0.832482
1 -4 0 0 21.41 21.73 o 0.832482
3 1 0 0 0.10 0.10 o 0.832482
4 -1 0 0 13.00 13.20 o 0.832482
1 3 0 0 31.18 31.65 o 0.832482
-2 4 2 2 21.06 21.38 o 0.832474
-1 4 2 -1 0.27 0.28 o 0.832426
-1 -2 7 1 4.74 4.76 o 0.831664
4 -1 6 -2 3.48 3.40 o 0.830641
0 -3 5 -2 8.07 7.78 o 0.830056
2 -2 9 -1 2.35 2.27 o 0.830022
-2 3 7 -2 5.67 5.46 o 0.829942
-2 4 3 -1 18.00 17.08 o 0.829644
-4 3 3 1 45.74 43.41 o 0.829553
-2 3 7 -1 41.39 39.21 o 0.829235
0 -2 8 2 10.17 9.60 o 0.828826
-1 4 3 -2 28.53 26.77 o 0.828509
3 0 4 1 28.29 26.55 o 0.828427
-3 4 1 0 81.74 76.70 o 0.828394
-1 -3 1 0 28.09 26.36 o 0.828394
1 -4 1 0 62.27 58.43 o 0.828394
-4 1 1 0 188.10 176.50 o 0.828394
4 -1 1 0 9.98 9.37 o 0.828394
4 -3 1 0 122.70 115.13 o 0.828394
-4 3 1 0 123.77 116.13 o 0.828394
3 -4 1 0 149.22 140.02 o 0.828394
-1 4 1 0 292.13 274.12 o 0.828394
1 3 1 0 319.97 300.24 o 0.828394
-3 -1 1 0 197.84 185.64 o 0.828394
3 1 1 0 1.12 1.05 o 0.828394
-3 4 2 1 11.23 10.54 o 0.828302
3 0 7 -1 0.18 0.17 o 0.828258
1 3 5 -2 11.95 11.18 o 0.827970
-3 2 6 -2 70.00 65.47 o 0.827936
2 -2 7 2 16.59 15.52 o 0.827787
-4 2 5 2 24.11 22.55 o 0.827539
-2 4 3 0 187.24 175.11 o 0.827483
2 2 3 0 239.52 224.01 o 0.827483
-4 2 3 0 570.16 533.25 o 0.827483
2 -4 3 0 392.70 367.28 o 0.827483
-2 -2 3 0 177.81 166.30 o 0.827483
4 -2 3 0 377.08 352.67 o 0.827483
4 -2 5 -1 0.82 0.76 o 0.827058
3 1 6 -2 1.65 1.52 o 0.826844
-3 0 3 -2 0.03 0.03 o 0.826802
1 -2 8 2 8.89 8.18 o 0.826508
0 2 9 -1 3.70 3.39 o 0.826233
-2 4 3 -2 7.85 7.19 o 0.826193
3 -1 8 -1 102.07 93.44 o 0.825901
2 0 10 -2 0.51 0.46 o 0.825544
-2 0 8 -2 0.05 0.04 o 0.824465
0 -1 10 -1 21.09 19.14 o 0.824166
2 1 8 -1 25.33 22.98 o 0.824028
-1 -3 3 1 24.20 21.91 o 0.823898
1 2 6 1 9.25 8.34 o 0.823407
-4 3 4 2 0.34 0.31 o 0.823355
2 2 5 -1 4.08 3.68 o 0.823309
1 -3 7 0 29.34 26.22 o 0.822969
-3 2 7 0 246.87 220.62 o 0.822969
-2 3 7 0 198.99 177.84 o 0.822969
-3 1 7 0 14.23 12.71 o 0.822969
3 -1 7 0 3.08 2.75 o 0.822969
3 -2 7 0 27.52 24.59 o 0.822969
2 1 7 0 93.90 83.91 o 0.822969
-1 3 7 0 0.00 0.00 < 0.822969
-2 -1 7 0 0.11 0.10 o 0.822969
2 -3 7 0 114.32 102.16 o 0.822969
1 2 7 0 0.67 0.60 o 0.822969
-1 -2 7 0 5.68 5.08 o 0.822969
-3 3 6 2 5.61 5.03 o 0.822852
3 -4 3 -1 49.41 44.34 o 0.822673
-1 1 10 -1 3.99 3.54 o 0.822305
4 -3 4 -1 10.32 9.06 o 0.821668
3 -4 4 -2 56.87 49.35 o 0.821209
3 -1 9 -2 0.15 0.13 o 0.821071
1 -4 2 1 78.60 67.37 o 0.820822
4 0 4 -2 0.26 0.23 o 0.820612
-3 3 6 1 3.15 2.71 o 0.820601
2 -3 8 -2 4.95 4.26 o 0.820282
-2 -2 5 2 28.40 24.19 o 0.820080
-2 4 3 1 0.72 0.61 o 0.819840
1 -4 2 2 1.88 1.61 o 0.819736
3 -2 6 1 10.44 8.93 o 0.819708
1 -2 9 0 80.05 67.88 o 0.819410
-2 1 9 0 0.64 0.54 o 0.819410
2 -1 9 0 86.16 73.06 o 0.819410
-1 2 9 0 0.85 0.72 o 0.819410
1 1 9 0 6.74 5.71 o 0.819410
-1 -1 9 0 80.14 67.96 o 0.819410
2 -4 4 -2 3.83 3.23 o 0.818954
-3 3 5 -2 13.29 11.29 o 0.818841
-1 0 10 -2 1.66 1.41 o 0.818729
3 -2 8 -1 218.81 185.84 o 0.818548
-1 -1 9 -1 1.12 0.95 o 0.818459
-3 0 5 -1 18.42 15.68 o 0.818371
-1 3 6 2 0.58 0.49 o 0.818334
3 0 2 2 10.19 8.67 o 0.818083
2 -4 2 2 0.23 0.19 o 0.817493
0 3 5 1 6.54 5.57 o 0.817456
2 1 9 -2 63.16 53.79 o 0.817403
-2 -1 6 -2 0.68 0.59 o 0.816930
-2 1 9 1 31.78 27.55 o 0.816777
1 -4 0 -1 34.57 30.17 o 0.816751
-2 1 9 -1 3.83 3.35 o 0.816636
-1 -3 2 0 346.87 302.99 o 0.816483
1 -4 2 0 246.81 215.59 o 0.816483
4 -1 2 0 10.33 9.02 o 0.816483
4 -3 2 0 0.38 0.34 o 0.816483
3 -4 2 0 1.99 1.73 o 0.816483
3 1 2 0 15.67 13.69 o 0.816483
-4 3 2 0 125.12 109.29 o 0.816483
-1 4 2 0 1.15 1.00 o 0.816483
-4 1 2 0 15.81 13.81 o 0.816483
1 3 2 0 10.12 8.84 o 0.816483
-3 -1 2 0 195.67 170.92 o 0.816483
-3 4 2 0 128.30 112.07 o 0.816483
1 2 5 2 19.53 17.06 o 0.816193
1 3 4 -1 1.03 0.91 o 0.816172
0 2 8 1 68.93 60.93 o 0.815782
1 -4 1 -1 20.45 18.08 o 0.815662
-1 4 3 -1 1.88 1.70 o 0.815343
0 -3 6 1 77.76 69.99 o 0.815127
-1 0 10 -1 129.50 116.56 o 0.815047
-1 -1 9 1 202.10 182.44 o 0.814965
1 2 8 -1 3.63 3.28 o 0.814913
0 3 4 2 13.27 12.13 o 0.814376
2 1 6 1 44.17 40.37 o 0.814313
-4 1 4 1 48.01 44.31 o 0.813668
-3 1 6 -2 12.69 11.86 o 0.813317
-3 3 6 0 28.76 26.88 o 0.813008
0 3 6 0 80.88 75.59 o 0.813008
3 0 6 0 30.26 28.28 o 0.813008
3 -3 6 0 57.88 54.09 o 0.813008
-3 0 6 0 107.09 100.08 o 0.813008
0 -3 6 0 82.08 76.71 o 0.813008
2 2 0 1 0.19 0.18 o 0.812736
2 -4 3 1 0.09 0.09 o 0.812585
3 -1 6 1 67.76 64.27 o 0.812518
-1 -3 4 2 0.00 0.00 < 0.812406
2 -4 4 -1 52.15 49.51 o 0.812227
2 -2 8 1 18.50 17.57 o 0.812184
-1 -1 9 -2 2.11 2.03 o 0.812166
3 -3 5 1 1.34 1.29 o 0.812044
0 -3 6 2 3.62 3.48 o 0.811923
-3 -1 4 1 11.99 11.51 o 0.811877
-2 -2 1 -1 23.13 22.25 o 0.811663
-4 1 5 2 13.77 13.27 o 0.811556
-2 3 7 1 59.96 57.76 o 0.811511
-1 4 1 1 2.51 2.44 o 0.810144
-3 0 7 2 0.79 0.76 o 0.809960
3 -4 0 1 27.05 26.66 o 0.809576
-1 3 8 -2 29.70 29.27 o 0.809454
-3 4 3 2 0.80 0.80 o 0.809319
-1 -2 7 -1 26.75 26.62 o 0.809254
4 -2 0 1 0.04 0.04 o 0.809178
3 -2 5 2 32.01 31.89 o 0.809033
-2 1 9 2 38.26 38.12 o 0.808889
-4 0 3 2 15.41 15.30 o 0.808748
-2 1 9 -2 28.98 28.77 o 0.808616
-3 4 1 -1 32.21 31.85 o 0.808517
-4 2 1 -1 0.87 0.87 o 0.808119
-3 -1 5 2 0.78 0.78 o 0.808014
1 0 11 -2 21.77 21.88 o 0.807729
2 -3 6 2 2.43 2.48 o 0.807582
-2 4 3 2 3.82 3.89 o 0.807161
1 -4 2 -1 32.67 33.42 o 0.806970
-1 4 4 -2 21.50 21.99 o 0.806817
3 -2 9 -2 18.72 19.15 o 0.806806
3 -3 7 -1 143.83 147.11 o 0.806590
2 2 1 1 62.04 63.26 o 0.806225
1 -3 7 1 1.61 1.64 o 0.806215
0 1 10 0 80.19 81.76 o 0.806188
0 -1 10 0 9.73 9.92 o 0.806188
-1 0 10 0 11.19 11.41 o 0.806188
-1 1 10 0 1.69 1.72 o 0.806188
1 0 10 0 19.06 19.43 o 0.806188
1 -1 10 0 7.55 7.69 o 0.806188
-3 4 3 1 29.60 30.18 o 0.806033
0 0 10 1 4.04 4.14 o 0.805766
-3 2 7 -1 82.49 84.63 o 0.805742
0 -3 6 -1 65.68 67.38 o 0.805688
0 0 11 -2 31.40 32.21 o 0.805583
-1 -1 9 2 27.59 27.90 o 0.805381
-3 0 4 -2 2.97 3.00 o 0.805241
-2 4 4 -1 0.69 0.70 o 0.805171
4 -4 1 -2 33.51 33.61 o 0.804740
-2 4 4 -2 7.53 7.55 o 0.804679
0 1 9 2 7.22 7.24 o 0.804596
4 -1 5 -1 0.02 0.02 o 0.804134
4 0 0 -1 0.47 0.47 o 0.803876
3 -3 4 2 10.62 10.57 o 0.803777
3 -4 1 1 16.56 16.13 o 0.803141
4 -4 0 -2 26.53 25.84 o 0.803111
-2 -2 2 -1 24.24 23.60 o 0.803097
4 0 1 -1 11.63 11.33 o 0.802839
4 -2 1 1 64.82 63.07 o 0.802752
3 1 5 -1 35.34 34.48 o 0.802405
4 -3 6 -2 1.99 1.95 o 0.801881
4 -2 7 -2 0.83 0.81 o 0.801589
0 3 7 -1 3.47 3.36 o 0.801389
1 -1 9 2 1.23 1.20 o 0.801144
-2 -1 7 -1 3.66 3.57 o 0.800616
-2 4 4 0 2.11 2.05 o 0.800546
4 -2 4 0 49.16 47.75 o 0.800546
-4 2 4 0 1.26 1.23 o 0.800546
2 -4 4 0 6.30 6.12 o 0.800546
-2 -2 4 0 98.52 95.70 o 0.800546
2 2 4 0 0.06 0.06 o 0.800546
-3 3 6 -1 18.17 17.65 o 0.800505
0 -2 9 -2 0.64 0.62 o 0.800441
-3 4 2 -1 13.42 12.90 o 0.800048
1 2 9 -2 42.82 40.93 o 0.799889
-4 3 4 1 11.43 10.92 o 0.799780
-4 2 2 -1 4.45 4.24 o 0.799663
-4 2 5 1 6.79 6.45 o 0.799446
2 0 7 2 11.73 11.13 o 0.799312
1 -4 3 1 134.25 127.26 o 0.799135
4 -4 2 -2 19.86 18.83 o 0.798996
-3 1 7 -1 79.36 75.60 o 0.798910
3 -4 4 -1 7.44 7.09 o 0.798794
2 1 5 2 35.59 33.90 o 0.798755
1 -4 1 -2 34.31 32.60 o 0.798424
2 0 8 1 7.97 7.55 o 0.798370
0 -2 9 -1 75.07 70.69 o 0.797913
-1 -3 3 0 13.72 12.86 o 0.797724
1 -4 3 0 54.23 50.82 o 0.797724
-1 4 3 0 0.13 0.12 o 0.797724
-4 1 3 0 3.93 3.68 o 0.797724
4 -3 3 0 1.15 1.07 o 0.797724
3 1 3 0 2.27 2.12 o 0.797724
-4 3 3 0 68.00 63.72 o 0.797724
3 -4 3 0 0.39 0.37 o 0.797724
4 -1 3 0 9.59 8.98 o 0.797724
1 3 3 0 2.17 2.04 o 0.797724
-3 -1 3 0 117.93 110.51 o 0.797724
-3 4 3 0 8.41 7.88 o 0.797724
-4 0 1 1 31.52 29.30 o 0.797575
2 -2 10 -2 5.81 5.42 o 0.797292
1 -4 0 -2 21.82 20.17 o 0.796833
2 -1 10 -1 1.12 1.03 o 0.796811
-1 4 2 1 24.33 22.44 o 0.796385
-2 -2 5 1 1.73 1.59 o 0.796059
-1 3 7 1 25.22 23.23 o 0.796043
2 -3 8 -1 207.91 191.47 o 0.795926
1 -4 3 2 5.25 4.72 o 0.795533
-2 3 7 2 2.47 2.23 o 0.795499
3 -1 5 2 4.45 4.01 o 0.795377
1 -2 10 -2 10.95 9.80 o 0.795228
1 1 10 -1 0.82 0.72 o 0.795129
2 2 7 -2 28.59 25.24 o 0.794804
-1 -3 4 1 3.98 3.52 o 0.794709
-2 0 9 1 13.80 12.24 o 0.794675
4 0 2 -1 45.69 40.54 o 0.794546
-2 2 9 -1 5.74 5.09 o 0.794546
-1 2 9 1 23.50 20.85 o 0.794298
-4 4 1 2 0.10 0.09 o 0.794242
1 -1 11 -2 1.04 0.92 o 0.794137
3 0 3 2 9.18 8.10 o 0.794022
-2 0 9 2 0.03 0.03 o 0.793944
-2 2 9 -2 11.70 10.32 o 0.793685
0 -3 6 -2 103.10 90.72 o 0.793580
2 -4 3 2 25.16 22.13 o 0.793483
3 -3 8 -2 14.12 12.42 o 0.793299
-3 1 8 2 0.93 0.81 o 0.793072
3 -4 5 -2 0.06 0.06 o 0.792858
1 -4 2 -2 49.42 43.15 o 0.792813
2 2 2 1 3.80 3.32 o 0.792662
-1 0 10 1 9.14 7.98 o 0.792646
1 3 0 1 6.38 5.56 o 0.792608
4 0 5 -2 0.17 0.15 o 0.792321
-1 4 4 -1 0.09 0.08 o 0.792079
1 3 6 -2 0.07 0.06 o 0.791756
-1 -3 1 -1 1.11 0.97 o 0.791613
3 0 5 1 15.38 13.35 o 0.791593
1 -4 3 -1 46.04 40.20 o 0.791378
-1 -2 7 -2 14.57 12.72 o 0.791264
0 4 1 -2 0.39 0.34 o 0.791183
-2 4 4 1 0.04 0.04 o 0.791065
2 -3 7 1 23.18 20.18 o 0.791042
1 -2 9 1 64.27 55.95 o 0.790976
-1 3 8 -1 32.55 28.33 o 0.790928
2 -4 5 -2 2.54 2.21 o 0.790829
0 1 11 -2 49.44 43.03 o 0.790817
4 -3 5 -1 3.94 3.43 o 0.790720
0 2 10 -2 1.78 1.55 o 0.790614
0 2 9 0 3.84 3.33 o 0.790484
-2 2 9 0 87.77 76.13 o 0.790484
0 -2 9 0 24.54 21.28 o 0.790484
-2 0 9 0 43.31 37.57 o 0.790484
2 0 9 0 216.97 188.19 o 0.790484
2 -2 9 0 87.96 76.30 o 0.790484
-3 0 7 1 0.04 0.04 o 0.790194
-2 -1 8 2 9.17 7.83 o 0.789765
3 -4 2 1 7.54 6.44 o 0.789730
0 4 0 -2 0.77 0.65 o 0.789635
4 -2 2 1 137.47 117.68 o 0.789360
1 -3 8 -2 20.94 17.92 o 0.789249
-1 2 10 -2 0.18 0.15 o 0.788602
4 -2 6 -1 16.09 13.56 o 0.788429
-1 4 1 2 3.73 3.17 o 0.788167
1 0 9 2 6.14 5.24 o 0.787876
-2 -2 3 -1 27.47 23.52 o 0.787724
4 -3 0 1 21.59 18.48 o 0.787671
4 -1 7 -2 17.54 14.92 o 0.787037
-4 3 1 -1 49.91 42.61 o 0.786695
1 3 1 1 18.63 15.90 o 0.786565
4 -4 3 -2 5.97 5.06 o 0.786338
-1 1 10 1 1.57 1.34 o 0.786139
1 3 5 -1 5.37 4.54 o 0.785819
0 4 2 -2 1.48 1.25 o 0.785722
1 -3 7 2 83.54 70.60 o 0.785611
2 2 6 -1 0.06 0.05 o 0.785179
-3 4 1 -2 12.73 10.71 o 0.785178
1 1 8 2 3.92 3.30 o 0.785039
-3 4 3 -1 10.23 8.62 o 0.784846
-3 2 7 -2 29.69 25.03 o 0.784735
-4 3 5 2 14.34 12.09 o 0.784671
0 0 11 -1 80.05 67.46 o 0.784638
2 -4 4 1 10.42 8.78 o 0.784542
0 -1 10 1 40.35 34.01 o 0.784524
-4 2 3 -1 0.19 0.16 o 0.784483
-4 0 2 1 1.42 1.21 o 0.784436
3 1 7 -2 83.86 73.01 o 0.783805
-3 3 6 -2 25.76 22.42 o 0.783762
3 -4 0 2 22.85 19.90 o 0.783665
-1 -3 2 -1 19.34 16.84 o 0.783659
0 3 8 -2 0.25 0.22 o 0.783492
-3 1 8 1 0.42 0.37 o 0.783164
2 -4 5 -1 11.34 10.13 o 0.782296
2 -1 8 2 1.37 1.27 o 0.781831
4 -3 1 1 78.49 72.81 o 0.781740
-2 2 9 1 12.36 11.46 o 0.781722
-2 0 9 -1 16.01 15.08 o 0.781598
-2 -1 8 1 14.21 13.38 o 0.781567
-4 2 6 2 4.42 4.24 o 0.781389
1 -3 8 -1 67.11 64.32 o 0.781316
0 -4 1 2 0.45 0.44 o 0.781200
-3 0 6 -1 18.56 18.01 o 0.780892
1 -4 3 -2 9.26 9.15 o 0.780442
-3 2 8 2 26.75 26.92 o 0.780195
-1 4 5 -2 0.01 0.00 < 0.779884
-3 4 2 -2 0.92 0.94 o 0.779840
4 0 3 -1 0.08 0.08 o 0.779649
-2 3 8 -2 5.58 5.66 o 0.779589
-3 4 4 2 14.65 14.85 o 0.779160
-4 3 2 -1 0.08 0.08 o 0.778887
-4 4 2 2 2.57 2.63 o 0.778826
-4 1 5 1 46.94 47.97 o 0.778687
-4 0 4 2 0.60 0.61 o 0.778650
-3 4 4 1 30.52 31.19 o 0.778639
0 -2 9 1 80.08 81.84 o 0.778554
-3 0 5 -2 54.94 56.10 o 0.778460
5 -2 1 -2 37.01 37.69 o 0.777996
-2 4 5 -2 18.09 18.42 o 0.777952
3 0 9 -2 1.54 1.57 o 0.777931
4 -4 0 -1 128.14 130.49 o 0.777722
-2 4 4 2 0.62 0.63 o 0.777233
-3 -1 5 1 76.63 78.07 o 0.777117
0 3 5 2 11.70 11.83 o 0.776888
-3 2 8 1 21.70 21.95 o 0.776886
4 -4 1 -1 3.74 3.78 o 0.776783
3 1 0 1 31.12 30.87 o 0.776609
-2 3 8 -1 47.48 47.11 o 0.776587
-1 4 3 1 58.68 58.22 o 0.776532
5 -2 0 -2 16.19 16.07 o 0.776524
2 0 10 -1 51.11 50.72 o 0.776251
-2 4 5 -1 7.10 7.04 o 0.775985
1 -2 10 -1 39.32 38.94 o 0.775899
3 0 8 -1 26.65 26.40 o 0.775784
-3 -1 1 -1 5.04 4.91 o 0.775673
3 -4 1 2 2.59 2.52 o 0.775418
-2 -1 7 -2 43.08 41.99 o 0.775345
0 3 6 1 1.70 1.64 o 0.775266
-1 -3 5 2 37.65 36.40 o 0.775176
-1 0 10 2 11.37 10.99 o 0.775123
-2 -2 6 2 16.40 15.85 o 0.775100
4 -1 0 1 2.14 2.07 o 0.775052
0 2 8 2 5.46 5.23 o 0.774435
-4 1 1 -1 3.97 3.78 o 0.774121
1 3 2 1 7.38 6.91 o 0.773955
-1 -2 8 2 2.56 2.40 o 0.773935
-1 -2 8 1 18.14 16.95 o 0.773777
0 4 3 -2 10.14 9.48 o 0.773676
1 2 7 1 1.00 0.94 o 0.773641
-1 -3 4 0 0.02 0.02 o 0.773508
4 -3 4 0 136.45 126.24 o 0.773508
1 -4 4 0 5.34 4.94 o 0.773508
-4 1 4 0 186.93 172.96 o 0.773508
-4 3 4 0 0.01 0.00 < 0.773508
3 1 4 0 42.94 39.73 o 0.773508
-1 4 4 0 228.04 210.99 o 0.773508
-3 -1 4 0 234.48 216.94 o 0.773508
1 3 4 0 115.87 107.21 o 0.773508
4 -1 4 0 29.55 27.34 o 0.773508
3 -4 4 0 86.74 80.25 o 0.773508
-3 4 4 0 5.69 5.27 o 0.773508
0 0 10 2 3.25 3.01 o 0.773226
-1 4 2 2 5.53 5.11 o 0.773096
2 2 3 1 1.18 1.09 o 0.773079
5 -2 2 -2 0.20 0.18 o 0.772802
-1 2 10 -1 16.20 14.91 o 0.772802
1 0 11 -1 0.51 0.47 o 0.772508
1 -4 4 1 16.19 14.92 o 0.772416
-3 1 7 -2 0.56 0.51 o 0.772254
0 1 10 1 5.13 4.74 o 0.772052
1 1 9 1 1.89 1.75 o 0.772039
-4 4 1 1 0.34 0.31 o 0.772012
1 2 6 2 1.66 1.53 o 0.771816
3 2 1 -2 0.02 0.02 o 0.771788
0 4 0 -1 66.30 61.26 o 0.771521
-3 3 7 1 0.11 0.10 o 0.771312
3 1 1 1 0.80 0.73 o 0.770923
-3 3 7 2 0.19 0.17 o 0.770817
3 -3 6 1 156.24 143.06 o 0.770645
0 4 1 -1 9.21 8.43 o 0.770603
3 -2 7 1 80.75 73.94 o 0.770570
1 -1 10 1 25.18 23.06 o 0.770522
2 -1 9 1 13.75 12.59 o 0.770508
3 -4 3 1 0.99 0.90 o 0.770358
3 2 0 -2 0.09 0.08 o 0.770351
3 -4 5 -1 3.39 3.09 o 0.770272
1 -4 4 -1 0.17 0.16 o 0.770053
4 -2 3 1 41.28 37.73 o 0.770015
2 -1 11 -2 0.47 0.43 o 0.769578
-2 4 5 0 21.17 19.34 o 0.769492
4 -2 5 0 16.77 15.32 o 0.769492
2 2 5 0 13.17 12.03 o 0.769492
-4 2 5 0 53.72 49.09 o 0.769492
-2 -2 5 0 3.80 3.48 o 0.769492
2 -4 5 0 83.89 76.66 o 0.769492
4 -1 1 1 43.15 39.43 o 0.769399
-1 -3 3 -1 89.78 82.03 o 0.769356
4 -3 2 1 0.30 0.27 o 0.769357
4 -4 2 -1 8.60 7.86 o 0.769264
1 -3 8 0 64.67 58.74 o 0.769085
-3 2 8 0 34.95 31.75 o 0.769085
-2 3 8 0 43.32 39.35 o 0.769085
3 -1 8 0 250.17 227.24 o 0.769085
3 -2 8 0 96.74 87.88 o 0.769085
-3 1 8 0 79.77 72.46 o 0.769085
2 1 8 0 53.80 48.87 o 0.769085
-1 3 8 0 151.74 137.83 o 0.769085
-2 -1 8 0 12.46 11.31 o 0.769085
2 -3 8 0 88.41 80.31 o 0.769085
1 2 8 0 139.68 126.88 o 0.769085
-1 -2 8 0 136.49 123.98 o 0.769085
-2 2 9 2 3.17 2.88 o 0.768717
-5 2 1 2 9.99 9.03 o 0.768498
4 -1 6 -1 1.01 0.91 o 0.768495
-2 0 9 -2 6.13 5.54 o 0.768483
2 -2 8 2 1.81 1.64 o 0.768311
-3 -1 2 -1 50.80 45.53 o 0.768187
-3 4 3 -2 10.58 9.48 o 0.768058
-4 1 6 2 5.84 5.23 o 0.767892
4 -4 4 -2 5.45 4.85 o 0.767721
3 -3 5 2 1.03 0.92 o 0.767670
3 -1 9 -1 6.78 6.04 o 0.767314
-3 3 7 0 0.18 0.16 o 0.767306
0 3 7 0 30.46 27.15 o 0.767306
3 0 7 0 10.34 9.22 o 0.767306
0 -3 7 0 20.08 17.90 o 0.767306
3 -3 7 0 9.97 8.89 o 0.767306
-3 0 7 0 11.41 10.17 o 0.767306
-1 3 7 2 11.22 9.90 o 0.767099
3 1 6 -1 2.09 1.84 o 0.766985
-1 2 9 2 0.01 0.00 < 0.766867
1 -4 4 2 0.00 0.00 < 0.766836
0 -3 7 1 3.25 2.83 o 0.766760
3 2 2 -2 0.82 0.71 o 0.766717
-2 -2 4 -1 17.83 15.53 o 0.766685
-4 1 2 -1 368.40 320.95 o 0.766679
1 1 11 -2 60.76 52.94 o 0.766555
0 -4 2 2 8.99 7.84 o 0.766518
-4 3 5 1 32.24 28.12 o 0.766488
1 -1 11 -1 55.61 48.51 o 0.766480
2 1 7 1 14.84 12.80 o 0.766083
0 -4 1 1 15.07 13.00 o 0.765945
0 -1 11 -2 0.13 0.11 o 0.765878
5 -3 1 -2 0.02 0.02 o 0.765829
2 1 9 -1 37.66 32.28 o 0.765811
3 -2 6 2 0.09 0.08 o 0.765753
3 0 4 2 2.56 2.19 o 0.765482
-4 0 3 1 66.73 56.45 o 0.765442
2 -3 9 -2 0.40 0.34 o 0.765092
2 -4 4 2 0.18 0.16 o 0.764999
0 1 11 -1 63.40 53.31 o 0.764983
-3 -1 6 2 12.19 10.25 o 0.764889
-2 -2 1 -2 0.04 0.03 o 0.764861
-4 3 3 -1 0.25 0.21 o 0.764839
3 -1 7 1 29.38 24.66 o 0.764588
1 0 10 1 31.86 26.55 o 0.764541
5 -3 0 -2 1.19 0.99 o 0.764425
-1 4 5 -1 5.48 4.56 o 0.764246
2 -2 10 -1 9.42 7.84 o 0.764164
-3 4 4 -1 22.03 18.11 o 0.764032
-4 2 4 -1 35.93 29.51 o 0.763696
2 2 0 2 31.27 25.48 o 0.763462
0 -3 7 -1 72.02 58.69 o 0.763419
0 4 2 -1 28.31 23.07 o 0.763261
-1 1 10 2 1.02 0.83 o 0.763088
-1 1 11 -2 0.45 0.36 o 0.762899
0 -2 9 2 0.01 0.00 < 0.762727
-3 -2 1 2 51.22 41.63 o 0.762513
4 -3 7 -2 31.19 25.35 o 0.762443
1 -4 4 -2 1.63 1.33 o 0.762231
-1 -3 5 1 117.13 95.46 o 0.762020
0 -3 7 2 20.67 16.84 o 0.761811
3 -2 9 -1 3.51 2.86 o 0.761406
5 -2 3 -2 10.91 8.88 o 0.761332
0 2 10 -1 0.14 0.12 o 0.761204
3 -4 2 2 1.09 0.88 o 0.761053
1 -2 9 2 4.07 3.30 o 0.760920
3 -4 6 -2 4.28 3.47 o 0.760887
5 -3 2 -2 16.03 12.98 o 0.760873
0 0 11 0 5.25 4.25 o 0.760856
4 0 6 -2 5.61 4.65 o 0.760413
0 -1 10 2 12.97 10.78 o 0.760140
-1 -2 8 -1 71.45 59.41 o 0.760102
-4 4 2 1 0.22 0.18 o 0.760078
-2 -2 2 -2 25.94 21.80 o 0.759924
-4 2 6 1 16.05 13.49 o 0.759852
3 -1 10 -2 7.41 6.29 o 0.759401
4 0 4 -1 0.41 0.34 o 0.759235
2 -4 6 -2 124.93 105.09 o 0.759093
3 1 2 1 24.76 20.83 o 0.759039
-3 3 7 -1 28.34 23.84 o 0.759005
-4 2 1 -2 0.52 0.44 o 0.758959
-2 4 5 1 43.00 36.37 o 0.758807
1 2 9 -1 18.01 15.06 o 0.758478
2 -3 7 2 5.15 4.29 o 0.758221
-4 4 3 2 11.85 9.89 o 0.757981
3 -3 8 -1 15.24 12.89 o 0.757893
4 -2 0 2 12.63 10.69 o 0.757593
4 -1 2 1 66.14 55.99 o 0.757584
-2 3 8 1 7.89 6.67 o 0.757467
-3 2 8 -1 82.01 69.66 o 0.757189
2 1 6 2 0.44 0.37 o 0.757021
2 3 1 -2 0.22 0.19 o 0.756994
-2 -2 6 1 51.83 44.34 o 0.756942
-5 3 1 2 3.98 3.40 o 0.756764
4 -3 6 -1 3.91 3.35 o 0.756761
2 0 11 -2 28.29 24.21 o 0.756674
2 1 10 -2 0.30 0.26 o 0.756496
-1 3 9 -2 6.35 5.46 o 0.756283
4 -2 8 -2 3.68 3.15 o 0.755949
0 4 4 -2 27.72 23.77 o 0.755924
2 2 1 2 6.82 5.85 o 0.755830
4 -4 3 -1 48.26 42.26 o 0.755721
1 3 3 1 29.01 25.40 o 0.755695
2 3 0 -2 5.27 4.61 o 0.755638
3 2 3 -2 24.00 21.01 o 0.755511
0 -3 7 -2 49.08 43.37 o 0.755297
-1 -1 10 -1 22.05 19.48 o 0.755112
-1 -3 1 -2 5.22 4.62 o 0.755044
0 2 9 1 8.62 7.70 o 0.754723
-3 -1 3 -1 21.30 19.02 o 0.754700
-5 2 2 2 5.35 4.84 o 0.754508
0 -4 2 1 25.30 22.85 o 0.754286
3 -1 6 2 2.40 2.20 o 0.754143
-4 2 2 -2 59.35 54.38 o 0.754135
-3 0 8 2 3.48 3.18 o 0.753993
1 3 7 -2 0.00 0.00 < 0.753725
1 3 0 2 8.29 7.55 o 0.753698
-2 1 10 -1 10.85 9.89 o 0.753680
1 -2 10 0 3.00 2.73 o 0.753651
-2 1 10 0 5.58 5.09 o 0.753651
2 -1 10 0 13.26 12.09 o 0.753651
-1 2 10 0 12.27 11.19 o 0.753651
1 1 10 0 9.74 8.88 o 0.753651
-1 -1 10 0 0.31 0.28 o 0.753651
0 3 8 -1 17.82 16.29 o 0.753574
0 -1 11 -1 1.28 1.17 o 0.753407
-4 1 3 -1 89.86 83.23 o 0.753270
1 -3 8 1 1.99 1.84 o 0.753155
3 0 6 1 2.11 1.95 o 0.753099
2 -4 5 1 17.83 16.49 o 0.753043
-2 -1 8 -1 97.75 90.93 o 0.752931
-1 4 3 2 6.49 6.06 o 0.752695
1 3 6 -1 10.72 10.12 o 0.752461
-1 -1 10 -2 11.02 10.45 o 0.752339
2 3 2 -2 34.44 32.67 o 0.752207
-1 1 11 -1 25.86 24.50 o 0.751984
-1 4 4 1 1.40 1.32 o 0.751948
2 -2 9 1 90.35 85.50 o 0.751872
-3 1 8 -1 41.33 39.53 o 0.751511
-1 0 11 -2 16.72 15.99 o 0.751416
4 -3 3 1 2.40 2.30 o 0.751413
-3 4 4 -2 1.00 0.97 o 0.750682
0 4 0 0 31.78 31.08 o 0.750389
4 0 0 0 4.32 4.22 o 0.750389
4 -4 0 0 22.37 21.88 o 0.750389
-1 -3 2 -2 79.35 77.60 o 0.750293
2 2 8 -2 1.43 1.40 o 0.750250
4 -2 1 2 10.39 10.17 o 0.750134
0 4 3 -1 3.54 3.47 o 0.750027
5 -3 3 -2 26.49 25.92 o 0.749918
-1 -3 4 -1 44.02 43.46 o 0.749720
-2 1 10 -2 0.02 0.02 o 0.749515
-2 1 10 1 4.23 4.15 o 0.749429
-1 4 6 -2 2.42 2.37 o 0.749398
2 -4 6 -1 2.65 2.59 o 0.749366
-2 -2 3 -2 29.19 28.47 o 0.749009
-3 -2 2 2 1.34 1.31 o 0.748841
2 2 4 1 3.08 3.00 o 0.748812
4 -2 7 -1 171.96 167.52 o 0.748687
-2 -3 1 2 13.00 12.59 o 0.748236
-3 0 6 -2 44.44 43.14 o 0.748134
3 -2 10 -2 22.46 21.80 o 0.748073
-1 -1 10 1 19.78 19.20 o 0.748029
-3 4 5 1 40.42 39.28 o 0.747819
-2 4 6 -2 67.82 66.02 o 0.747683
4 -4 1 0 73.51 71.57 o 0.747391
0 4 1 0 68.09 66.30 o 0.747391
-4 4 1 0 176.30 171.66 o 0.747391
4 0 1 0 437.76 426.22 o 0.747391
0 -4 1 0 99.61 96.98 o 0.747391
-4 0 1 0 17.75 17.29 o 0.747391
-1 -2 8 -2 5.33 5.19 o 0.747270
-3 3 7 -2 5.36 5.19 o 0.746819
0 -4 3 2 30.44 29.39 o 0.746620
-4 3 1 -2 1.93 1.87 o 0.746574
-1 0 11 -1 103.18 100.03 o 0.746421
1 3 1 2 15.49 15.06 o 0.746352
3 -4 4 1 0.47 0.46 o 0.746339
-3 4 5 2 0.01 0.00 < 0.746137
4 -2 4 1 53.95 52.63 o 0.746026
2 2 7 -1 11.90 11.60 o 0.745903
-4 0 5 2 0.83 0.81 o 0.745690
-4 3 4 -1 7.79 7.63 o 0.745538
-1 -3 5 0 51.51 50.42 o 0.745387
-4 1 5 0 27.84 27.25 o 0.745387
1 -4 5 0 5.55 5.43 o 0.745387
-4 3 5 0 65.58 64.19 o 0.745387
4 -1 5 0 195.48 191.35 o 0.745387
4 -3 5 0 74.24 72.68 o 0.745387
3 1 5 0 218.75 214.13 o 0.745387
3 -4 5 0 51.24 50.16 o 0.745387
-1 4 5 0 7.56 7.40 o 0.745387
-3 -1 5 0 2.20 2.15 o 0.745387
1 3 5 0 1.77 1.74 o 0.745387
-3 4 5 0 197.34 193.17 o 0.745387
2 0 8 2 4.30 4.21 o 0.745381
4 -3 0 2 7.90 7.78 o 0.745272
-4 3 6 2 3.73 3.67 o 0.744998
-1 3 8 1 0.00 0.00 < 0.744841
-2 4 5 2 0.28 0.28 o 0.744445
4 -4 5 -2 15.70 15.67 o 0.744407
1 -4 5 -1 30.95 30.89 o 0.744404
5 -2 4 -2 8.25 8.24 o 0.744398
-2 4 6 -1 25.46 25.58 o 0.743814
4 -1 8 -2 84.68 84.82 o 0.743707
-4 2 3 -2 18.73 18.76 o 0.743465
-5 3 2 2 7.71 7.75 o 0.743394
2 -3 9 -1 12.14 12.21 o 0.743098
3 -3 9 -2 26.39 26.53 o 0.743057
0 -2 10 -2 0.84 0.85 o 0.742991
-4 4 3 1 2.10 2.13 o 0.742761
1 2 10 -2 1.44 1.47 o 0.742549
2 2 2 2 0.00 0.00 < 0.742508
1 -4 5 1 78.09 79.77 o 0.742301
-2 3 8 2 0.06 0.06 o 0.742286
-3 0 7 -1 9.29 9.49 o 0.742225
-4 3 2 -2 12.64 12.90 o 0.741980
-4 1 6 1 34.70 35.40 o 0.741960
-4 0 4 1 0.05 0.05 o 0.741866
3 1 3 1 50.17 51.33 o 0.741791
-3 2 8 -2 0.75 0.77 o 0.741764
2 3 3 -2 66.90 68.65 o 0.741617
3 -4 3 2 33.16 34.15 o 0.741567
-2 -2 5 -1 2.29 2.36 o 0.741361
-2 1 10 2 18.20 18.71 o 0.741221
5 -1 1 -2 25.78 26.58 o 0.741003
3 1 8 -2 17.33 17.77 o 0.740978
2 0 9 1 54.87 56.28 o 0.740872
2 -3 8 1 18.84 19.38 o 0.740740
-3 -1 6 1 1.36 1.42 o 0.740601
4 -1 3 1 9.79 10.16 o 0.740433
-3 0 8 1 2.33 2.41 o 0.740044
-1 -3 3 -2 7.07 7.33 o 0.739783
5 -1 0 -2 1.89 1.97 o 0.739731
1 -3 9 -2 53.76 55.94 o 0.739725
1 -4 5 -2 1.23 1.28 o 0.739399
-1 3 9 -1 2.94 3.09 o 0.739025
-3 4 5 -1 48.64 51.11 o 0.738961
3 2 4 -2 26.77 28.13 o 0.738954
0 -2 10 -1 94.85 99.66 o 0.738887
3 -4 6 -1 92.98 97.70 o 0.738778
-4 2 5 -1 61.82 64.63 o 0.738657
0 4 2 0 254.38 265.93 o 0.738608
-4 4 2 0 16.39 17.14 o 0.738608
4 0 2 0 43.64 45.62 o 0.738608
4 -4 2 0 23.26 24.32 o 0.738608
0 -4 2 0 6.66 6.97 o 0.738608
-4 0 2 0 68.28 71.38 o 0.738608
-1 -1 10 2 0.26 0.27 o 0.738519
0 3 6 2 0.01 0.01 o 0.738327
4 1 1 -2 29.64 31.07 o 0.738303
4 -3 1 2 12.26 12.80 o 0.738168
0 1 10 2 11.70 12.20 o 0.737914
-2 2 10 -2 0.65 0.68 o 0.737578
0 1 11 0 56.52 58.95 o 0.737530
0 -1 11 0 1.34 1.40 o 0.737530
-1 1 11 0 42.34 44.16 o 0.737530
-1 0 11 0 39.52 41.22 o 0.737530
1 0 11 0 0.81 0.85 o 0.737530
1 -1 11 0 10.04 10.48 o 0.737530
0 -4 3 1 1.84 1.92 o 0.737353
4 -2 2 2 1.89 1.99 o 0.737106
1 0 12 -2 0.06 0.06 o 0.737101
4 -4 4 -1 14.33 15.06 o 0.737085
4 1 0 -2 3.63 3.81 o 0.737045
-1 -3 6 2 20.27 21.42 o 0.736858
5 -1 2 -2 0.30 0.31 o 0.736511
-4 2 7 2 0.05 0.06 o 0.736419
-2 2 10 -1 19.03 20.39 o 0.736210
-3 -1 4 -1 69.22 74.36 o 0.736137
-2 4 6 0 21.07 22.63 o 0.736033
4 -2 6 0 14.71 15.81 o 0.736033
2 2 6 0 90.89 97.65 o 0.736033
-4 2 6 0 82.57 88.71 o 0.736033
-2 -2 6 0 47.33 50.85 o 0.736033
2 -4 6 0 67.68 72.71 o 0.736033
-5 2 3 2 20.98 23.19 o 0.735508
0 0 12 -2 22.90 25.18 o 0.735469
-2 -3 2 2 30.27 33.29 o 0.735306
1 -4 5 2 28.73 31.60 o 0.735293
1 -1 10 2 12.64 13.90 o 0.735248
0 0 11 1 4.41 4.92 o 0.735158
0 3 9 -2 3.27 3.67 o 0.734980
-4 1 4 -1 18.84 21.20 o 0.734810
2 -2 11 -2 3.02 3.40 o 0.734741
4 0 5 -1 62.25 70.02 o 0.734618
-3 1 9 2 1.25 1.41 o 0.734588
1 -3 8 2 3.59 4.04 o 0.734233
3 0 5 2 31.36 35.47 o 0.734100
4 1 2 -2 31.09 35.90 o 0.733860
-2 -1 8 -2 24.48 28.26 o 0.733818
5 -3 4 -2 1.04 1.21 o 0.733719
2 -4 5 2 9.56 11.15 o 0.733673
0 4 5 -2 10.52 12.27 o 0.733638
1 3 2 2 61.44 71.67 o 0.733517
-1 4 6 -1 7.47 8.71 o 0.733456
0 3 7 1 2.95 3.43 o 0.733304
1 -2 11 -2 19.80 23.02 o 0.733125
-4 4 4 2 5.15 5.98 o 0.733035
1 3 4 1 6.22 7.23 o 0.732981
-2 -2 4 -2 32.18 37.64 o 0.732867
-5 1 1 2 13.27 15.52 o 0.732782
2 -1 11 -1 16.74 19.36 o 0.732339
-2 0 10 1 6.03 6.97 o 0.732247
-2 -1 9 2 15.67 18.17 o 0.731957
-1 2 10 1 0.38 0.44 o 0.731951
-4 3 3 -2 10.67 12.32 o 0.731811
0 4 4 -1 28.75 33.22 o 0.731799
-2 3 9 -2 1.46 1.69 o 0.731755
4 -1 7 -1 8.80 10.03 o 0.731555
-4 3 6 1 1.15 1.32 o 0.731384
-3 1 8 -2 54.10 60.96 o 0.731196
1 -3 9 -1 57.54 64.84 o 0.731166
-2 -2 7 2 1.38 1.55 o 0.731147
1 1 11 -1 36.58 40.99 o 0.731032
0 2 10 0 2.40 2.67 o 0.730961
-2 2 10 0 76.94 85.50 o 0.730961
0 -2 10 0 29.37 32.64 o 0.730961
-2 0 10 0 2.10 2.33 o 0.730961
2 0 10 0 0.14 0.16 o 0.730961
2 -2 10 0 0.41 0.46 o 0.730961
5 -2 0 -1 11.44 12.62 o 0.730534
3 -3 6 2 27.21 30.02 o 0.730402
-3 -2 3 2 0.83 0.91 o 0.730256
3 1 7 -1 25.29 27.66 o 0.730253
-4 -1 1 2 0.00 0.00 < 0.730171
5 -2 1 -1 3.58 3.87 o 0.729755
-2 0 10 2 2.99 3.22 o 0.729670
0 2 11 -2 6.45 6.91 o 0.729505
3 -3 7 1 32.16 34.45 o 0.729390
1 -2 10 1 82.65 88.54 o 0.729349
4 -3 4 1 64.75 68.60 o 0.729072
-3 4 5 -2 0.18 0.19 o 0.728842
-3 1 9 1 8.76 9.15 o 0.728673
1 2 7 2 64.67 66.39 o 0.728389
-1 4 4 2 7.98 8.18 o 0.728252
1 1 9 2 5.41 5.53 o 0.728190
-3 -1 1 -2 0.99 1.01 o 0.728044
3 2 0 -1 46.61 47.49 o 0.727947
-1 2 11 -2 20.36 20.74 o 0.727923
-4 2 4 -2 11.81 11.94 o 0.727671
-1 -3 6 1 171.53 173.37 o 0.727500
-2 -1 9 1 88.21 89.02 o 0.727385
-2 3 9 -1 0.41 0.41 o 0.727286
3 2 1 -1 18.63 18.60 o 0.727176
0 4 0 1 7.09 7.06 o 0.727077
3 -4 7 -2 8.08 8.05 o 0.726949
3 1 0 2 19.48 19.42 o 0.726837
1 -1 12 -2 27.18 26.97 o 0.726728
3 0 9 -1 26.51 26.18 o 0.726626
5 -1 3 -2 7.78 7.68 o 0.726562
4 0 7 -2 12.73 12.57 o 0.726535
1 2 8 1 4.00 3.93 o 0.726394
0 -4 1 -1 15.53 15.26 o 0.726309
-1 -3 5 -1 22.39 21.93 o 0.725988
2 3 4 -2 12.80 12.53 o 0.725939
-2 0 10 -1 29.80 29.18 o 0.725875
-5 2 1 1 1.13 1.10 o 0.725795
4 -3 2 2 23.30 22.82 o 0.725744
2 -1 9 2 12.72 12.49 o 0.725628
-4 1 1 -2 21.23 20.83 o 0.725483
5 -3 0 -1 24.24 23.80 o 0.725430
2 -4 7 -2 36.41 35.74 o 0.725384
-5 3 3 2 0.53 0.52 o 0.725201
-1 0 11 1 7.00 6.84 o 0.725152
-4 1 7 2 0.00 0.00 < 0.725088
1 0 10 2 8.45 8.26 o 0.724952
3 0 10 -2 0.14 0.14 o 0.724883
-2 4 6 1 4.08 3.99 o 0.724702
5 -3 1 -1 0.86 0.84 o 0.724667
0 4 3 0 0.01 0.00 < 0.724634
-4 4 3 0 0.01 0.00 < 0.724634
4 0 3 0 164.56 160.17 o 0.724634
4 -4 3 0 216.01 210.25 o 0.724634
0 -4 3 0 0.20 0.20 o 0.724634
-4 0 3 0 0.34 0.33 o 0.724634
-3 3 8 1 0.00 0.00 < 0.724465
2 2 3 2 25.73 25.04 o 0.724379
-3 2 9 2 0.05 0.05 o 0.724320
4 -1 0 2 78.47 76.43 o 0.724289
-1 -3 4 -2 0.72 0.70 o 0.724218
0 1 12 -2 0.28 0.27 o 0.724181
-1 4 5 1 9.46 9.21 o 0.724080
4 1 3 -2 1.56 1.51 o 0.724016
3 -2 8 1 18.10 17.51 o 0.723850
-3 -1 2 -2 26.60 25.73 o 0.723783
-3 2 9 1 48.01 46.48 o 0.723608
5 -2 2 -1 93.20 90.24 o 0.723510
3 -2 7 2 3.43 3.32 o 0.723287
-3 -2 1 1 14.00 13.48 o 0.723257
5 -2 5 -2 21.13 20.35 o 0.723087
-3 3 8 0 0.00 0.00 < 0.723077
0 3 8 0 0.28 0.27 o 0.723077
3 0 8 0 64.76 62.37 o 0.723077
0 -3 8 0 0.10 0.09 o 0.723077
3 -3 8 0 6.09 5.86 o 0.723077
-3 0 8 0 0.25 0.24 o 0.723077
4 -3 8 -2 34.85 33.44 o 0.722852
0 -4 4 2 11.05 10.60 o 0.722745
-3 -1 7 2 0.89 0.85 o 0.722558
0 4 1 1 29.48 28.34 o 0.722405
-4 3 5 -1 57.56 54.96 o 0.722189
-3 3 8 2 1.22 1.16 o 0.722113
-2 2 10 1 12.85 12.27 o 0.722075
4 -4 0 1 0.00 0.00 < 0.722003
0 -3 8 -1 42.65 40.56 o 0.721744
2 3 0 -1 1.86 1.77 o 0.721640
4 -3 7 -1 3.98 3.78 o 0.721412
2 2 5 1 28.17 26.75 o 0.721278
-4 1 2 -2 3.86 3.66 o 0.721266
-4 4 1 -1 121.91 115.77 o 0.721250
-4 4 4 1 2.29 2.15 o 0.721161
-1 -2 9 1 47.91 45.07 o 0.721093
3 2 2 -1 2.10 1.98 o 0.720996
2 3 1 -1 0.18 0.17 o 0.720889
-5 3 1 1 22.44 20.99 o 0.720789
0 -3 8 1 8.00 7.49 o 0.720690
-5 1 2 2 18.67 17.47 o 0.720623
loop_
_jana_atom_site_displace_legendre_atom_site_label
_jana_atom_site_displace_legendre_axis
_jana_atom_site_displace_legendre_param_order
_jana_atom_site_displace_legendre_param_coeff
O2a x 1 -0.040(9)
O2a y 1 -0.010(9)
O2a z 1 0.020(3)
O2a x 2 0.074(8)
O2a y 2 0.096(7)
O2a z 2 0.008(3)
Oint x 1 -0.086(7)
Oint y 1 -0.072(9)
Oint z 1 0.001(4)
Oint x 2 -0.055(8)
Oint y 2 -0.114(7)
Oint z 2 -0.049(2)
