#------------------------------------------------------------------------------
#$Date: 2018-01-31 02:16:12 +0200 (Wed, 31 Jan 2018) $
#$Revision: 205917 $
#$URL: file:///home/coder/svn-repositories/cod/cif/4/12/71/4127115.cif $
#------------------------------------------------------------------------------
#
# This file is available in the Crystallography Open Database (COD),
# http://www.crystallography.net/
#
# All data on this site have been placed in the public domain by the
# contributors.
#
data_4127115
loop_
_publ_author_name
'Galley, Shane S.'
'Arico, Alexandra A.'
'Lee, Tsung-Han'
'Deng, Xiaoyu'
'Yao, Yong-Xin'
'Sperling, Joseph M.'
'Proust, Vanessa'
'Storbeck, Julia S.'
'Dobrosavljevic, Vladimir'
'Neu, Jennifer N.'
'Siegrist, Theo'
'Baumbach, Ryan E.'
'Albrecht-Schmitt, Thomas E'
'Kaltsoyannis, Nikolas'
'Lanat\`a, Nicola'
_publ_section_title
;
 Uncovering the Origin of Divergence in the CsM(CrO4)2 (M = La, Pr, Nd,
 Sm, Eu; Am) Family through Examination of the Chemical Bonding in a
 Molecular Cluster and by Band Structure Analysis.
;
_journal_name_full               'Journal of the American Chemical Society'
_journal_paper_doi               10.1021/jacs.7b09474
_journal_year                    2018
_chemical_formula_moiety         'Cr2 O8 Sm, Cs'
_chemical_formula_sum            'Cr2 Cs O8 Sm'
_chemical_formula_weight         515.26
_space_group_crystal_system      monoclinic
_space_group_IT_number           13
_space_group_name_Hall           '-P 2yc'
_space_group_name_H-M_alt        'P 1 2/c 1'
_symmetry_space_group_name_Hall  '-P 2yc'
_symmetry_space_group_name_H-M   'P 1 2/c 1'
_audit_creation_method           SHELXL-2017/1
_cell_angle_alpha                90
_cell_angle_beta                 98.818(3)
_cell_angle_gamma                90
_cell_formula_units_Z            2
_cell_length_a                   9.1977(12)
_cell_length_b                   5.5221(7)
_cell_length_c                   7.7074(10)
_cell_measurement_reflns_used    888
_cell_measurement_temperature    298(2)
_cell_measurement_theta_max      27.505
_cell_measurement_theta_min      3.690
_cell_volume                     386.84(9)
_computing_cell_refinement       'SAINT V8.37A (Bruker, 2016)'
_computing_data_collection       'Apex2 (Bruker, 2016)'
_computing_data_reduction        'SAINT V8.37A (Bruker, 2016)'
_computing_structure_refinement
;  
SHELXL-2016/6 (Sheldrick, 2015, 2016), 
SHELXLE Rev714 (H\"ubschle et al., 2011)
;
_computing_structure_solution    'SHELXS-97 (Sheldrick, 2008)'
_diffrn_ambient_temperature      298(2)
_diffrn_measured_fraction_theta_full 0.999
_diffrn_measured_fraction_theta_max 0.999
_diffrn_measurement_device_type  'Bruker ApexII CCD diffractometer'
_diffrn_measurement_method       '0.5 wide w/ exposures'
_diffrn_radiation_type           MoK\a
_diffrn_radiation_wavelength     0.71073
_diffrn_reflns_av_R_equivalents  0.0354
_diffrn_reflns_av_unetI/netI     0.0214
_diffrn_reflns_Laue_measured_fraction_full 0.999
_diffrn_reflns_Laue_measured_fraction_max 0.999
_diffrn_reflns_limit_h_max       11
_diffrn_reflns_limit_h_min       -11
_diffrn_reflns_limit_k_max       7
_diffrn_reflns_limit_k_min       -7
_diffrn_reflns_limit_l_max       10
_diffrn_reflns_limit_l_min       -10
_diffrn_reflns_number            5656
_diffrn_reflns_point_group_measured_fraction_full 0.999
_diffrn_reflns_point_group_measured_fraction_max 0.999
_diffrn_reflns_theta_full        25.242
_diffrn_reflns_theta_max         27.505
_diffrn_reflns_theta_min         3.690
_diffrn_source                   'I-mu-S microsource X-ray tube'
_exptl_absorpt_coefficient_mu    14.890
_exptl_absorpt_correction_T_max  0.7456
_exptl_absorpt_correction_T_min  0.4707
_exptl_absorpt_correction_type   multi-scan
_exptl_absorpt_process_details
;
 SADABS 2016/2: Krause, L., Herbst-Irmer, R., Sheldrick G.M. & Stalke D.,
 J. Appl. Cryst. 48 (2015) 3-10
;
_exptl_crystal_colour            orange
_exptl_crystal_density_diffrn    4.424
_exptl_crystal_description       prism
_exptl_crystal_F_000             458
_exptl_crystal_size_max          0.08
_exptl_crystal_size_mid          0.07
_exptl_crystal_size_min          0.06
_refine_diff_density_max         0.558
_refine_diff_density_min         -0.589
_refine_diff_density_rms         0.135
_refine_ls_extinction_coef       0.0037(3)
_refine_ls_extinction_expression Fc^*^=kFc[1+0.001xFc^2^\l^3^/sin(2\q)]^-1/4^
_refine_ls_extinction_method     'SHELXL-2017/1 (Sheldrick 2017)'
_refine_ls_goodness_of_fit_ref   1.084
_refine_ls_hydrogen_treatment    undef
_refine_ls_matrix_type           full
_refine_ls_number_parameters     57
_refine_ls_number_reflns         888
_refine_ls_number_restraints     0
_refine_ls_restrained_S_all      1.084
_refine_ls_R_factor_all          0.0163
_refine_ls_R_factor_gt           0.0139
_refine_ls_shift/su_max          0.000
_refine_ls_shift/su_mean         0.000
_refine_ls_structure_factor_coef Fsqd
_refine_ls_weighting_details
'w=1/[\s^2^(Fo^2^)+(0.0151P)^2^+0.3678P] where P=(Fo^2^+2Fc^2^)/3'
_refine_ls_weighting_scheme      calc
_refine_ls_wR_factor_gt          0.0342
_refine_ls_wR_factor_ref         0.0352
_reflns_Friedel_coverage         0.000
_reflns_number_gt                842
_reflns_number_total             888
_reflns_threshold_expression     'I > 2\s(I)'
_cod_data_source_file            ja7b09474_si_001.cif
_cod_data_source_block           b_a
_cod_database_code               4127115
_shelx_shelxl_version_number     2017/1
_shelx_space_group_comment
;
The symmetry employed for this shelxl refinement is uniquely defined
by the following loop, which should always be used as a source of
symmetry information in preference to the above space-group names.
They are only intended as comments.
;
_shelx_res_file
;
TITL b_a.res in P2/c
    b_a.res
    created by SHELXL-2017/1 at 00:02:07 on 31-Aug-2017

CELL  0.71073   9.1977   5.5221   7.7074   90.000   98.818   90.000
ZERR    2.000   0.0012   0.0007   0.0010    0.000    0.003    0.000
LATT  1
SYMM -X, Y, 1/2-Z
SFAC CR CS O SM
UNIT 4 2 16 2
ACTA
TEMP -273.150
L.S. 10
BOND $H
LIST 6
FMAP 2
PLAN 20
WGHT    0.015100    0.367800
EXTI    0.003659
FVAR       0.42717
SM1   4    0.500000    0.092990    0.750000    10.50000    0.01143    0.00854 =
         0.00974    0.00000    0.00163    0.00000
CR1   1    0.716162    0.667999    0.680645    11.00000    0.01055    0.00836 =
         0.01255    0.00115    0.00239    0.00047
O1    3    0.681259    0.385798    0.731393    11.00000    0.01524    0.01170 =
         0.02282    0.00292    0.00151   -0.00231
CS1   2    1.000000    0.176881    0.750000    10.50000    0.01646    0.01537 =
         0.03569    0.00000    0.00798    0.00000
O3    3    0.570761    0.792362    0.549909    11.00000    0.01631    0.01645 =
         0.01285    0.00141    0.00138    0.00458
O2    3    0.864778    0.678220    0.594568    11.00000    0.01710    0.01942 =
         0.02299    0.00118    0.00856   -0.00026
O4    3    0.732091    0.848153    0.851447    11.00000    0.01905    0.01775 =
         0.01468   -0.00333    0.00063    0.00020
HKLF 4




REM  b_a.res in P2/c
REM R1 =  0.0139 for     842 Fo > 4sig(Fo)  and  0.0163 for all     888 data
REM     57 parameters refined using      0 restraints

END

WGHT      0.0080      0.5763

REM Highest difference peak  0.558,  deepest hole -0.589,  1-sigma level  0.135
Q1    1   0.5373 -0.0469  0.8070  11.00000  0.05    0.56
Q2    1   0.5975  0.7608  0.4714  11.00000  0.05    0.53
Q3    1   0.5219  0.8601  0.5489  11.00000  0.05    0.45
Q4    1   0.5582  0.7011  0.5585  11.00000  0.05    0.45
Q5    1   0.8524  0.7439  0.6428  11.00000  0.05    0.38
Q6    1   0.6020  0.8406  0.5812  11.00000  0.05    0.37
Q7    1   0.4622  0.6114  0.4318  11.00000  0.05    0.36
Q8    1   0.8402  0.5691  0.5558  11.00000  0.05    0.35
Q9    1   0.7444  0.1972  0.7409  11.00000  0.05    0.35
Q10   1   0.6642  0.5309  0.7538  11.00000  0.05    0.34
Q11   1   0.6135  0.7038  0.9693  11.00000  0.05    0.34
Q12   1   0.4199  0.8838  0.5543  11.00000  0.05    0.34
Q13   1   0.5420  0.9035  0.4808  11.00000  0.05    0.33
Q14   1   0.7708  1.0822  0.8279  11.00000  0.05    0.33
Q15   1   0.6418  0.4680  0.6627  11.00000  0.05    0.33
Q16   1   0.7545  0.8591  0.7716  11.00000  0.05    0.33
Q17   1   1.1645  0.1165  0.8845  11.00000  0.05    0.32
Q18   1   0.5572  0.2084  0.8161  11.00000  0.05    0.32
Q19   1   0.7994  0.7198  0.5851  11.00000  0.05    0.31
Q20   1   1.0872  0.0199  0.9716  11.00000  0.05    0.31
;
_shelx_res_checksum              39850
_shelx_hkl_file
;
   0   0   1  -13.40    0.70
   0   0   1  -14.20    0.70
   0   0  -1  -13.70    0.80
   0   0  -1  -14.00    0.70
   0   0  -2 9546.75  349.37
   0   0  -2 9999.00  349.87
   0   0   2 9191.58  350.26
   0   0   2 9562.84  349.27
   0   0   2 9523.45  348.87
   0   0   3   -2.60    1.50
   0   0  -3   -0.90    1.40
   0   0  -3   -2.00    2.40
   0   0   4 3433.26  126.39
   0   0  -4 3351.46  127.49
   0   0  -4 3380.46  126.39
   0   0   5    2.30    2.90
   0   0  -5   -1.00    4.10
   0   0  -5    3.80    3.00
   0   0   6 1223.78   49.70
   0   0  -6 1222.28   49.80
   0   0  -6 1234.48   51.89
   0   0   7    2.00    5.00
   0   0  -7   -0.80    7.50
   0   0  -7    1.70    5.40
   0   0  -8  444.16   28.50
   0   0   8  466.65   24.60
   0   0  -8  449.95   25.00
   0   0  -9   -4.40    8.10
   0   0   9    5.90    8.30
   0   0  -9   -0.80   11.20
   0   1   0 1280.07   49.90
   0   1   0 1407.16   49.10
   0   1   0 1314.37   49.70
   0  -1   0 1304.37   50.09
   0  -1   0 1382.06   49.80
   0  -1   0 1230.28   49.90
   0  -1   0 1353.36   49.10
   0   1  -1  667.33   24.90
   0   1  -1  666.03   23.70
   0   1  -1  642.54   24.70
   0   1   1  618.04   25.10
   0   1  -1  634.24   25.30
   0   1   1  641.74   24.40
   0   1   1  626.44   24.90
   0   1   1  632.94   24.30
   0  -1   1  611.94   24.60
   0  -1   1  666.13   23.60
   0  -1   1  633.34   24.60
   0  -1  -1  640.64   24.90
   0  -1  -1  654.43   24.30
   0  -1  -1  645.14   24.40
   0  -1  -1  624.94   25.10
   0   1  -2 1380.76   50.09
   0   1   2 1237.48   49.99
   0   1  -2 1357.76   50.89
   0   1   2 1378.96   50.29
   0   1   2 1396.56   50.09
   0  -1  -2 1315.07   51.59
   0  -1   2 1352.06   50.99
   0  -1   2 1332.87   50.69
   0  -1   2 1357.06   49.80
   0  -1  -2 1291.77   50.69
   0   1   3 4666.63  161.68
   0   1  -3 4364.36  163.48
   0   1  -3 4314.77  163.28
   0   1   3 4487.85  163.18
   0   1  -3 4417.36  162.98
   0  -1  -3 4358.36  163.58
   0  -1   3 4510.65  163.28
   0  -1  -3 4506.75  161.68
   0  -1   3 4154.08  163.48
   0  -1  -3 4518.75  165.08
   0   1   4 1600.84   59.79
   0   1  -4 1545.25   60.29
   0   1  -4 1564.24   58.99
   0   1  -4 1563.54   60.29
   0  -1   4 1604.54   59.09
   0  -1   4 1505.85   60.09
   0  -1  -4 1514.15   60.19
   0  -1  -4 1566.44   62.09
   0   1  -5 2617.14   92.49
   0   1  -5 2390.46   94.39
   0   1   5 2487.35   93.69
   0  -1   5 2523.65   91.79
   0  -1  -5 2439.86   96.69
   0  -1  -5 2339.77   93.89
   0   1   6 1127.79   47.10
   0   1  -6 1139.79   48.40
   0   1  -6 1181.88   47.90
   0  -1  -6 1144.09   47.70
   0  -1  -6 1135.39   50.29
   0  -1   6 1149.48   47.80
   0  -1   6 1203.38   44.10
   0  -1   6 1179.28   43.70
   0   1  -7 1729.93   71.59
   0   1  -7 1783.02   70.59
   0   1   7 1749.82   69.79
   0  -1   7 1724.53   70.29
   0  -1  -7 1740.83   70.39
   0  -1  -7 1784.92   74.09
   0   1  -8  813.32   37.70
   0   1   8  847.22   37.10
   0   1  -8  772.52   39.10
   0  -1   8  780.72   37.20
   0  -1  -8  810.82   37.60
   0  -1  -8  786.52   41.90
   0   1   9  581.74   30.30
   0   1  -9  586.44   31.30
   0   1  -9  575.04   34.70
   0  -1   9  535.05   38.70
   0  -1  -9  586.04   31.40
   0  -1  -9  552.14   37.00
   0   2   0 1487.45   55.89
   0   2   0 1450.25   56.89
   0  -2   0 1511.15   56.09
   0  -2   0 1508.05   57.99
   0   2  -1 5518.65  203.08
   0   2  -1 5677.93  201.18
   0   2   1 5289.67  202.68
   0   2  -1 5540.95  203.08
   0  -2  -1 5503.75  203.18
   0  -2   1 5522.25  204.38
   0  -2  -1 5562.34  203.88
   0   2  -2   27.90    4.30
   0   2  -2   25.30    2.10
   0   2   2   24.20    3.10
   0   2  -2   29.10    2.30
   0   2   2   25.10    3.00
   0   2  -2   17.20    3.00
   0  -2   2   25.40    4.80
   0  -2  -2   35.20    4.70
   0  -2  -2   24.20    4.20
   0   2   3 3096.49  115.69
   0   2   3 3054.69  115.59
   0   2  -3 3136.79  116.59
   0   2  -3 3210.58  114.79
   0  -2   3 3214.78  117.79
   0  -2  -3 2972.30  117.89
   0  -2   3 3239.58  114.29
   0  -2  -3 3065.49  115.89
   0  -2   3 3023.70  116.69
   0   2   4   12.50    3.00
   0   2  -4   11.20    3.40
   0   2   4   15.20    4.60
   0   2   4    7.70    3.00
   0   2  -4   13.70    3.60
   0  -2   4   16.80    4.60
   0  -2  -4   17.40    5.30
   0  -2  -4   12.20    3.10
   0  -2   4   13.90    4.90
   0   2  -5 1101.59   45.60
   0   2  -5 1117.69   44.50
   0   2   5 1105.29   44.50
   0   2   5 1071.79   44.00
   0  -2  -5 1124.49   48.40
   0  -2   5 1099.79   45.80
   0  -2   5 1157.48   45.30
   0  -2  -5 1145.09   41.90
   0  -2  -5 1074.19   41.50
   0   2  -6   35.70    7.10
   0   2   6   38.90    5.80
   0   2   6   33.70    5.80
   0   2  -6   49.10    7.30
   0  -2  -6   37.30    8.70
   0  -2   6   28.00    5.80
   0  -2   6   42.20    6.90
   0   2  -7  528.95   26.60
   0   2   7  486.05   24.50
   0   2   7  477.15   23.30
   0   2  -7  487.65   25.80
   0  -2   7  494.65   26.30
   0  -2  -7  501.75   29.30
   0  -2   7  529.45   23.60
   0   2   8   94.49   11.10
   0   2   8  101.19   11.40
   0   2  -8   91.99   12.30
   0   2  -8   89.49   11.80
   0  -2  -8  101.89   16.20
   0  -2   8   98.89   12.50
   0   2   9  212.68   17.80
   0   2   9  188.88   17.60
   0   2  -9  214.58   19.10
   0  -2  -9  158.48   22.30
   0  -2   9  185.58   18.80
   0   3   0  160.78    9.90
   0   3   0  149.09    9.60
   0  -3   0  152.28    8.80
   0  -3   0  137.59   10.70
   0   3   1 1444.66   55.29
   0   3  -1 1366.86   54.89
   0   3   1 1496.85   55.59
   0   3  -1 1315.07   54.99
   0   3  -1 1502.15   52.59
   0  -3   1 1416.56   57.09
   0  -3  -1 1393.56   54.69
   0  -3   1 1307.17   52.59
   0  -3  -1 1393.06   56.59
   0   3   2  242.48   12.60
   0   3  -2  235.68   13.30
   0   3  -2  230.98   13.50
   0   3   2  245.78   12.30
   0  -3  -2  239.78   14.30
   0  -3   2  242.08   15.10
   0  -3  -2  240.08   13.90
   0   3  -3  745.33   36.00
   0   3   3  811.32   33.30
   0   3   3  823.62   33.20
   0   3  -3  819.22   35.00
   0  -3   3  807.82   36.20
   0  -3   3  858.01   35.10
   0  -3  -3  848.02   36.20
   0  -3  -3  811.62   34.70
   0   3  -4  828.82   31.30
   0   3  -4  820.32   35.10
   0   3   4  808.92   33.40
   0   3   4  769.02   33.60
   0  -3  -4  799.32   34.20
   0  -3  -4  833.82   37.30
   0  -3   4  818.22   30.60
   0  -3   4  802.32   35.40
   0  -3   4  840.82   36.80
   0   3  -5  898.21   39.30
   0   3   5  894.11   37.60
   0   3  -5  953.40   36.20
   0  -3   5  909.31   39.80
   0  -3   5  926.51   40.50
   0  -3  -5  881.71   41.70
   0  -3  -5  911.91   37.30
   0   3  -6  731.33   34.40
   0   3  -6  781.42   31.90
   0   3   6  718.13   32.40
   0   3   6  746.43   32.40
   0  -3   6  751.02   34.90
   0  -3  -6  738.33   37.50
   0   3  -7  401.66   23.40
   0   3   7  386.66   20.80
   0   3   7  384.06   21.30
   0  -3   7  452.05   24.10
   0  -3  -7  390.66   26.70
   0  -3   7  396.66   24.40
   0   3   8  492.55   25.60
   0   3  -8  484.85   29.20
   0   3   8  513.75   26.70
   0  -3   8  531.35   30.60
   0  -3  -8  489.35   36.40
   0   4   0 2104.99   79.89
   0   4   0 1860.01   81.99
   0  -4   0 2118.49   83.49
   0  -4   0 2179.58   78.79
   0   4  -1  357.16   17.70
   0   4   1  321.37   16.90
   0   4  -1  309.37   14.40
   0   4  -1  324.27   18.10
   0   4   1  317.77   17.30
   0  -4  -1  310.37   19.00
   0  -4   1  320.17   14.70
   0  -4   1  330.87   19.80
   0  -4  -1  323.77   16.90
   0   4   2 1582.74   61.69
   0   4  -2 1444.66   62.09
   0   4  -2 1507.45   61.99
   0   4   2 1571.04   61.89
   0  -4   2 1527.65   64.59
   0  -4  -2 1651.73   62.39
   0   4  -3   20.90    6.30
   0   4   3   25.00    5.10
   0   4  -3   28.50    6.30
   0   4   3   33.00    6.10
   0  -4  -3   23.10    7.50
   0  -4  -3   36.30    7.70
   0  -4   3   40.30    9.20
   0   4  -4  429.46   23.90
   0   4   4  448.96   22.10
   0   4   4  476.15   22.30
   0  -4  -4  492.15   24.40
   0  -4  -4  452.65   25.70
   0  -4   4  458.95   24.40
   0  -4   4  464.85   26.10
   0   4  -5  108.69   11.60
   0   4   5   93.89   10.00
   0   4   5   92.49   10.80
   0  -4  -5   76.29   12.00
   0  -4  -5   87.09   10.50
   0  -4   5   89.99   13.40
   0  -4   5   91.79   12.00
   0   4  -6  206.88   17.20
   0   4   6  195.98   14.30
   0   4   6  222.48   15.20
   0  -4   6  221.98   18.70
   0  -4   6  195.08   19.10
   0  -4  -6  191.58   20.60
   0   4  -7  177.38   18.10
   0   4   7  127.79   14.30
   0   4   7  130.29   12.80
   0  -4   7  106.89   15.60
   0  -4   7  105.59   14.00
   0  -4  -7  115.19   17.20
   0   4   8  170.68   18.10
   0   4  -8  165.48   19.00
   0   4   8  137.39   14.50
   0  -4   8  182.88   21.80
   0  -4  -8  155.48   19.60
   0   5   0  256.77   16.30
   0  -5   0  259.47   14.80
   0  -5   0  281.27   20.80
   0   5   1   59.89    8.20
   0   5  -1   40.10    7.80
   0   5   1   45.40    8.30
   0   5  -1   46.80    8.10
   0  -5  -1   54.79   11.30
   0  -5  -1   53.99    7.90
   0  -5   1   48.70    9.20
   0   5   2  221.18   15.40
   0   5  -2  233.38   17.20
   0   5  -2  234.58   16.70
   0   5   2  216.88   16.20
   0  -5  -2  239.08   15.90
   0  -5   2  242.48   19.00
   0  -5  -2  267.27   19.50
   0   5   3   45.30    9.90
   0   5  -3   45.00    9.30
   0   5   3   30.40    8.20
   0   5  -3   36.80    8.10
   0  -5  -3   67.79   11.60
   0  -5   3   29.20    9.50
   0  -5  -3   40.40    8.40
   0   5  -4   36.40    8.80
   0   5   4   35.40    7.70
   0   5   4   29.20    9.20
   0  -5  -4   19.20   10.30
   0  -5   4   37.80   12.00
   0  -5  -4   29.30    8.80
   0  -5   4   42.00    9.60
   0   5   5  231.68   17.70
   0   5  -5  191.28   18.90
   0   5   5  182.78   15.90
   0  -5  -5  224.68   18.80
   0  -5   5  163.08   19.20
   0  -5   5  199.38   19.40
   0  -5  -5  186.88   19.70
   0   5   6   24.60    9.80
   0   5   6   16.00    7.60
   0   5  -6   24.50   17.10
   0  -5  -6   38.10   13.10
   0  -5   6    4.80   12.50
   0  -5   6   14.50   11.40
   0   5   7  151.18   15.60
   0   5   7  158.48   18.80
   0   5  -7   99.79   17.10
   0  -5   7  129.79   17.30
   0  -5   7  106.29   19.70
   0  -5  -7  127.29   19.40
   0   6   0  129.19   14.20
   0   6   0  115.59   12.80
   0  -6   0  116.79   16.50
   0   6   1   -3.60    7.90
   0   6  -1    7.10    7.70
   0   6  -1   12.10    6.50
   0   6   1    6.20    7.30
   0  -6  -1   -3.30   11.00
   0  -6   1    1.80   10.40
   0   6   2    5.00    7.10
   0   6  -2    4.00    8.70
   0   6  -2    9.50    8.60
   0   6   2   -8.10    7.30
   0  -6  -2   -6.00    9.90
   0  -6  -2    9.30    7.70
   0  -6   2   -9.90   10.50
   0   6   3   -4.10    6.70
   0   6  -3  -20.40    8.60
   0   6  -3    8.80    8.70
   0   6   3   19.30    9.20
   0  -6  -3   15.20    9.10
   0  -6  -3  -12.90   10.90
   0  -6   3  -20.00   10.60
   0  -6   3   -2.60    9.20
   0   6  -4  153.38   25.40
   0   6   4  193.18   19.60
   0  -6  -4  160.88   19.20
   0  -6   4  163.28   18.80
   0  -6  -4  177.38   19.20
   0  -6   4  144.39   20.80
   0   6  -5    5.40   11.90
   0  -6  -5   21.80   13.10
   0  -6   5  -38.80   14.40
   0  -6   5   -1.80   11.70
   0  -6  -5    0.90   12.60
   0   7   0  225.28   21.10
   0  -7   0  244.58   28.20
   0   7   1  215.58   18.40
   0   7  -1  243.98   20.30
   0   7  -1  219.68   21.50
   0  -7   1  259.27   25.20
   0  -7  -1  238.38   25.20
   0   7  -2  144.79   17.50
   0   7   2  127.99   15.50
   0   7  -2  159.28   16.20
   0  -7   2  140.19   21.00
   0  -7  -2  103.69   19.40
  -1   0   9   -8.10    7.50
   1   0  -9   -5.90   10.10
   1   0  -9   -8.40    7.90
  -1   0   8   29.80    7.00
   1   0  -8   41.00    9.30
   1   0  -8   48.50    8.70
  -1   0   7   -1.30    4.90
   1   0  -7   -0.20    4.40
   1   0  -7   -2.20    7.70
   1   0  -6   61.09    7.20
   1   0  -6   61.59    9.00
  -1   0   6   49.80    6.70
   1   0  -5   14.20    4.60
   1   0  -5   -1.60    3.00
  -1   0   5   -0.50    2.70
   1   0  -4   -2.00    1.70
  -1   0   4    0.30    2.20
  -1   0   4   -1.70    1.00
   1   0  -4   -0.60    2.40
   1   0  -4   -2.50    3.20
  -1   0   3   -4.70    1.60
   1   0  -3   -2.60    1.30
   1   0  -3   -3.30    2.50
  -1   0   3   -2.40    1.00
   1   0  -3   -4.30    1.60
  -1   0   2  299.27   12.20
   1   0  -2  292.27   11.60
  -1   0   2  290.77   11.50
  -1   0   2  266.87   12.60
   1   0  -2  300.37   12.20
   1   0  -2  299.17   12.90
  -1   0   1   -2.00    0.70
   1   0  -1   -2.20    0.50
   1   0  -1   -2.30    0.80
   1   0  -1   -3.70    0.70
   1   0  -1   -2.50    0.70
  -1   0   1   -2.40    0.60
  -1   0   1   -1.70    0.50
  -1   0  -1   -3.20    1.20
  -1   0  -1   -4.40    0.80
   1   0   1   -2.90    0.70
  -1   0  -1   -4.30    0.80
   1   0   1   -2.30    1.00
  -1   0  -1   -3.40    0.80
   1   0   1    0.80    1.60
   1   0   1   -2.50    1.00
   1   0   2 1500.75   53.89
  -1   0  -2 1490.45   53.79
  -1   0  -2 1356.26   55.49
   1   0   2 1485.05   54.79
  -1   0  -2 1403.06   54.89
   1   0   2 1481.75   56.09
  -1   0  -3   -9.60    2.70
  -1   0  -3   -6.00    1.70
   1   0   3   -6.40    1.30
   1   0   3   -2.40    1.70
   1   0   3   -6.90    1.20
  -1   0  -4 1035.40   41.50
   1   0   4 1095.39   38.60
   1   0   4 1060.49   39.00
   1   0   4 1009.10   41.00
  -1   0  -4  988.90   42.60
   1   0   5   -0.90    3.00
  -1   0  -5   -2.00    4.50
  -1   0  -6  450.65   21.60
  -1   0  -6  426.06   23.90
   1   0   6  453.55   21.40
  -1   0  -7   -5.30    4.30
  -1   0  -7   -3.20    6.90
   1   0   7   -2.50    5.10
  -1   0  -8   56.69   12.10
   1   0   8   81.69   10.60
  -1   0  -8   59.09   10.30
  -1   0  -9   16.70   12.00
   1   0   9    2.50    8.10
  -1   0  -9   -0.90   14.20
   1   1  -9   15.60    8.90
   1   1  -9    7.70   11.10
  -1   1   9   23.70    7.80
   1  -1  -9    8.90    8.00
   1  -1  -9   33.20   13.70
  -1  -1   9   22.40    9.00
   1   1  -8  166.58   14.30
   1   1  -8  180.38   17.20
  -1   1   8  164.08   14.40
  -1  -1   8  157.38   13.90
   1  -1  -8  155.88   18.60
   1  -1  -8  149.79   13.40
  -1   1   7  149.49   12.10
   1   1  -7  189.18   14.90
   1   1  -7  173.48   13.20
  -1  -1   7  164.98   12.90
   1  -1  -7  155.88   12.80
   1  -1  -7  168.68   16.50
  -1   1   6  443.36   21.70
   1   1  -6  465.55   20.40
   1   1  -6  486.85   23.80
   1   1  -6  450.55   22.10
  -1  -1   6  468.95   18.90
   1  -1  -6  458.15   24.20
  -1  -1   6  441.96   22.20
   1  -1  -6  469.55   22.10
   1   1  -5   50.29    6.50
   1   1  -5   64.09    7.10
  -1   1   5   57.09    6.70
   1  -1  -5   60.89    8.20
   1  -1  -5   58.29    6.80
  -1  -1   5   51.09    5.40
  -1   1   4  955.70   39.00
   1   1  -4 1000.90   39.50
   1   1  -4  956.20   39.10
   1  -1  -4 1015.20   36.40
   1  -1  -4  978.10   36.70
  -1  -1   4  988.80   37.90
   1  -1  -4  971.90   38.90
   1  -1  -4  984.30   40.80
   1   1  -3   95.59    6.30
   1   1  -3   94.89    5.90
  -1   1   3  100.19    6.00
   1   1  -3  102.89    7.90
   1  -1  -3   94.99    6.20
   1  -1  -3   99.39    5.30
  -1  -1   3   88.99    5.90
   1  -1  -3   94.79    7.30
  -1  -1   3   90.89    6.10
   1  -1  -3   97.19    4.70
  -1   1   2 1174.68   44.30
   1   1  -2 1177.18   44.30
  -1   1   2 1153.48   44.60
  -1   1   2 1215.68   44.00
   1   1  -2 1133.39   44.50
   1   1  -2 1180.68   45.00
  -1  -1   2 1185.38   44.10
   1  -1  -2 1196.68   45.50
   1  -1  -2 1189.38   43.80
   1  -1  -2 1173.08   44.20
  -1  -1   2 1199.68   44.80
  -1  -1   2 1136.09   44.50
   1   1  -1   23.40    2.30
  -1   1   1   13.60    2.10
  -1   1   1   18.70    1.70
  -1   1   1   16.60    2.20
  -1   1   1   20.70    2.40
   1   1  -1   19.50    2.00
   1   1  -1   17.30    2.70
  -1  -1   1   16.40    2.20
  -1  -1   1   19.00    1.90
   1  -1  -1   22.60    2.60
   1  -1  -1   16.70    2.10
  -1  -1   1   21.20    2.20
  -1  -1   1   14.90    1.80
   1  -1  -1   18.80    1.70
   1  -1  -1   15.00    2.10
  -1  -1   1   23.60    2.80
   1   1   0  459.35   18.60
   1   1   0  490.55   18.60
  -1   1   0  455.95   17.80
   1   1   0  468.95   18.40
  -1   1   0  470.65   17.60
   1   1   0  478.45   17.30
  -1   1   0  442.06   18.40
  -1   1   0  454.55   19.60
  -1  -1   0  468.25   18.60
  -1  -1   0  482.45   17.50
   1  -1   0  449.56   18.50
  -1  -1   0  477.95   18.40
  -1  -1   0  451.75   18.50
   1  -1   0  463.85   17.90
   1  -1   0  447.36   17.50
   1  -1   0  431.76   19.30
  -1   1  -1  913.71   35.30
   1   1   1  940.21   34.00
  -1   1  -1  923.11   33.90
   1   1   1  845.32   34.70
   1   1   1  964.20   35.20
  -1   1  -1  928.71   34.80
  -1   1  -1  950.70   35.80
   1  -1   1  905.41   34.10
  -1  -1  -1  933.61   35.00
  -1  -1  -1  851.31   35.10
   1  -1   1 1017.60   36.60
  -1  -1  -1  928.91   34.00
   1  -1   1  909.41   35.30
   1  -1   1  878.61   34.70
   1   1   2   85.39    4.90
   1   1   2   82.39    4.50
  -1   1  -2   79.09    5.40
  -1   1  -2   87.59    5.40
  -1   1  -2   86.09    4.90
  -1   1  -2   82.49    5.30
  -1  -1  -2   87.29    6.50
   1  -1   2   77.39    5.40
  -1  -1  -2   90.19    4.90
  -1  -1  -2   83.59    4.60
   1  -1   2   86.29    4.90
   1   1   3  289.87   12.90
  -1   1  -3  294.57   13.60
  -1   1  -3  296.27   13.80
   1   1   3  289.37   12.30
  -1   1  -3  264.47   14.80
  -1  -1  -3  301.47   11.90
  -1  -1  -3  304.67   15.50
   1  -1   3  290.57   13.80
   1  -1   3  299.67   13.50
  -1   1  -4    1.90    2.70
   1   1   4    2.70    2.20
  -1   1  -4    0.30    3.30
   1   1   4    3.90    2.30
  -1  -1  -4    1.60    1.30
   1  -1   4    3.00    3.20
   1  -1   4    2.00    3.40
  -1  -1  -4    4.20    3.00
  -1  -1  -4    2.80    3.90
  -1   1  -5  129.09    9.40
   1   1   5  133.89    9.20
  -1   1  -5  140.29   10.70
   1  -1   5  134.89    9.20
  -1  -1  -5  126.09   10.20
   1  -1   5  138.39   10.00
  -1   1  -6  216.88   15.00
   1   1   6  176.98   12.10
   1  -1   6  191.28   12.70
  -1  -1  -6  187.08   13.40
   1  -1   6  209.68   10.80
  -1  -1  -6  193.88   15.70
  -1   1  -7   18.00    7.20
  -1   1  -7   10.80    5.80
   1   1   7   14.40    5.60
  -1  -1  -7   14.80    8.70
   1  -1   7   20.10    6.90
  -1  -1  -7   24.90    6.70
  -1   1  -8  263.77   18.30
   1   1   8  247.08   17.00
  -1   1  -8  246.88   20.50
  -1  -1  -8  235.08   23.20
  -1  -1  -8  227.88   18.20
   1  -1   8  248.48   18.20
  -1   1  -9  144.99   15.40
   1   1   9   98.69   12.90
  -1   1  -9  118.39   16.50
   1  -1   9  108.99   16.40
  -1  -1  -9  148.69   19.30
   1   2  -9  257.67   23.70
   1   2  -9  300.57   25.40
  -1   2   9  309.57   21.60
  -1   2   9  291.27   18.70
   1  -2  -9  324.17   26.50
  -1  -2   9  278.87   22.20
   1   2  -8  265.27   18.60
  -1   2   8  286.67   19.30
  -1   2   8  302.27   17.20
   1   2  -8  288.87   21.60
  -1  -2   8  283.77   19.30
   1  -2  -8  289.27   23.10
   1   2  -7  132.89   11.80
  -1   2   7  128.49   10.10
  -1   2   7  138.59   11.90
   1  -2  -7  108.89   14.00
  -1  -2   7  136.89   11.30
  -1  -2   7  123.79   12.80
  -1   2   6  861.31   35.30
   1   2  -6  847.02   37.10
   1   2  -6  850.71   36.80
  -1   2   6  830.02   36.20
  -1  -2   6  841.92   37.40
  -1  -2   6  889.21   35.70
   1  -2  -6  857.41   40.10
   1   2  -5    4.00    4.50
  -1   2   5    8.00    3.10
   1   2  -5    2.90    4.00
  -1  -2   5    1.50    4.20
   1  -2  -5   12.20    2.90
   1  -2  -5   14.70    3.60
   1  -2  -5    7.80    5.10
  -1  -2   5   10.00    4.40
  -1   2   4 1071.49   42.50
  -1   2   4 1081.49   41.70
   1   2  -4 1070.99   43.00
   1   2  -4 1051.19   41.90
   1  -2  -4 1092.89   41.90
   1  -2  -4 1068.39   44.60
  -1  -2   4 1046.90   42.90
  -1  -2   4 1055.19   43.10
  -1   2   3  112.09    7.40
  -1   2   3  105.59    6.50
   1   2  -3  123.09    7.80
   1   2  -3  118.39    6.80
  -1  -2   3  132.79    7.20
  -1  -2   3  119.19    8.40
   1  -2  -3  117.39    8.60
   1  -2  -3  107.69    7.90
  -1  -2   3  104.59    7.30
   1   2  -2 2660.43   98.99
  -1   2   2 2547.05  100.09
   1   2  -2 2861.11  100.99
   1   2  -2 2815.12   99.19
  -1   2   2 2556.04   99.49
   1  -2  -2 2687.13  101.09
  -1  -2   2 2686.33  101.69
  -1  -2   2 2667.03  100.19
   1  -2  -2 2714.83  100.99
   1   2  -1  154.88    6.70
   1   2  -1  118.99    6.70
  -1   2   1  127.39    7.80
   1   2  -1  115.59    7.50
   1   2  -1  121.99    6.60
  -1   2   1  131.09    7.20
  -1  -2   1  133.69    8.40
   1  -2  -1  118.49    8.10
   1  -2  -1  128.99    7.30
   1   2   0 1055.09   41.20
  -1   2   0 1048.60   39.10
   1   2   0 1051.39   41.30
   1   2   0 1015.00   39.40
  -1   2   0 1061.59   41.80
   1  -2   0 1041.50   41.40
  -1  -2   0 1008.80   40.30
  -1  -2   0 1022.60   41.30
   1  -2   0 1035.40   39.10
  -1  -2   0 1051.89   40.20
  -1   2  -1  570.94   25.00
  -1   2  -1  555.34   23.50
   1   2   1  582.14   22.80
   1   2   1  588.74   23.70
  -1  -2  -1  587.44   24.60
   1  -2   1  579.14   25.10
  -1  -2  -1  565.14   24.60
  -1  -2  -1  615.24   22.60
  -1   2  -2  619.04   25.90
  -1   2  -2  550.64   24.30
   1   2   2  600.64   24.30
   1   2   2  608.04   23.40
  -1  -2  -2  594.14   26.10
   1  -2   2  594.04   25.90
  -1  -2  -2  595.54   24.80
  -1  -2  -2  605.34   24.00
  -1   2  -3 1707.63   68.19
  -1   2  -3 1827.62   66.09
   1   2   3 1744.63   67.69
  -1   2  -3 1747.93   69.19
   1   2   3 1805.42   66.99
  -1  -2  -3 1795.72   70.59
   1  -2   3 1773.52   69.29
  -1  -2  -3 1811.22   67.49
   1  -2   3 1803.02   65.79
  -1   2  -4  371.66   16.70
  -1   2  -4  376.66   18.30
   1   2   4  389.66   17.40
   1   2   4  371.46   16.90
  -1  -2  -4  379.86   16.20
  -1  -2  -4  391.86   21.20
   1  -2   4  366.26   19.00
  -1   2  -5  208.58   13.20
   1   2   5  220.38   12.30
   1   2   5  210.68   11.20
  -1   2  -5  225.48   12.90
   1   2   5  207.28   12.10
   1  -2   5  191.18   13.60
  -1  -2  -5  207.98   15.60
  -1  -2  -5  236.88   10.10
   1  -2   5  221.78   14.10
   1   2   6  272.47   15.00
  -1   2  -6  274.27   16.30
   1   2   6  280.67   15.20
  -1   2  -6  263.57   16.60
   1  -2   6  257.47   16.30
   1  -2   6  264.87   16.80
  -1  -2  -6  281.67   20.40
   1   2   7   42.30    7.30
  -1   2  -7   24.40    7.70
   1   2   7   42.40    6.70
  -1   2  -7   39.60    8.90
   1  -2   7   55.89    8.60
   1  -2   7   37.90    7.70
  -1  -2  -7   22.50    9.60
   1   2   8  336.97   20.30
  -1   2  -8  327.97   21.20
  -1   2  -8  310.67   22.40
   1   2   8  309.17   19.10
   1  -2   8  315.57   22.30
  -1  -2  -8  334.87   26.60
  -1   2  -9   -0.40    9.10
   1   2   9   11.20    8.00
   1   2   9    5.10    8.40
   1  -2   9   15.50   10.00
  -1  -2  -9   14.00   12.50
  -1   3   9  324.97   35.20
   1   3  -9  366.56   26.80
  -1  -3   9  420.26   26.40
   1  -3  -9  348.17   30.40
   1   3  -8   66.39   12.00
  -1   3   8   52.79   10.00
  -1   3   8   61.39    8.90
   1  -3  -8   64.09   13.70
  -1  -3   8   55.59   10.30
  -1   3   7  488.55   23.90
   1   3  -7  523.25   27.40
  -1   3   7  529.15   25.80
   1   3  -7  472.65   27.20
   1  -3  -7  500.65   31.30
  -1  -3   7  493.65   27.50
  -1  -3   7  499.55   26.30
  -1   3   6   -4.40    4.50
   1   3  -6   -4.70    5.30
   1   3  -6   -8.60    5.70
  -1   3   6    3.40    4.00
   1  -3  -6   -2.80    5.10
   1  -3  -6   -2.30    6.90
  -1  -3   6    2.10    6.50
   1   3  -5 1139.49   46.50
   1   3  -5 1121.39   43.60
  -1   3   5 1092.09   44.10
  -1   3   5 1071.49   44.90
   1  -3  -5 1079.79   44.40
  -1  -3   5 1124.69   46.90
  -1  -3   5 1088.99   46.00
   1  -3  -5 1075.19   48.10
   1   3  -4   17.40    3.80
   1   3  -4   12.10    3.90
  -1   3   4   17.90    4.00
  -1   3   4   15.10    4.60
  -1  -3   4   23.50    6.30
   1  -3  -4   10.10    5.10
   1  -3  -4   28.00    6.30
   1   3  -3 1185.28   45.00
   1   3  -3 1217.88   44.90
  -1   3   3 1180.08   47.20
   1   3  -3 1098.69   50.19
  -1   3   3 1167.18   46.50
  -1  -3   3 1210.68   47.70
  -1  -3   3 1190.88   49.60
   1  -3  -3 1212.48   48.60
   1  -3  -3 1207.58   48.80
  -1   3   2    4.50    3.10
   1   3  -2    9.70    2.50
   1   3  -2    7.70    3.70
   1   3  -2    8.10    3.00
  -1   3   2   16.70    4.30
   1   3  -2    5.60    3.30
   1  -3  -2    3.50    3.70
   1  -3  -2   14.70    5.00
  -1  -3   2   17.90    5.90
   1   3  -1 1534.45   61.69
  -1   3   1 1641.24   62.19
  -1   3   1 1620.14   60.99
   1   3  -1 1585.54   60.19
   1  -3  -1 1590.24   60.39
  -1  -3   1 1484.55   59.59
   1  -3  -1 1523.15   62.39
  -1  -3   1 1568.44   62.79
   1   3   0  433.56   19.90
   1   3   0  420.36   18.10
  -1   3   0  422.26   20.10
  -1   3   0  395.66   17.30
  -1   3   0  399.36   18.90
   1  -3   0  428.36   17.50
  -1  -3   0  412.56   18.70
   1  -3   0  423.76   21.20
  -1  -3   0  384.46   20.60
  -1   3  -1 2417.36   91.29
   1   3   1 2379.36   90.49
  -1   3  -1 2352.06   89.99
   1   3   1 2390.36   89.19
  -1  -3  -1 2211.78   91.19
   1  -3   1 2414.76   92.29
  -1  -3  -1 2425.96   90.49
   1   3   2 3081.49  113.39
  -1   3  -2 3001.00  115.09
   1   3   2 2827.12  111.89
  -1   3  -2 3166.48  113.99
   1  -3   2 3083.59  115.99
  -1  -3  -2 2984.70  114.79
  -1  -3  -2 2968.40  114.49
   1   3   3 1455.25   60.39
  -1   3  -3 1504.95   61.69
   1   3   3 1576.64   58.59
  -1  -3  -3 1534.95   62.39
   1  -3   3 1581.94   62.69
  -1  -3  -3 1536.65   60.39
  -1   3  -4 1432.36   58.09
   1   3   4 1463.05   57.09
   1   3   4 1460.85   56.09
  -1  -3  -4 1431.56   60.39
  -1  -3  -4 1404.76   56.79
   1  -3   4 1487.05   59.59
   1  -3   4 1457.55   59.59
   1   3   5 1186.88   50.39
  -1   3  -5 1267.27   52.49
   1   3   5 1292.57   49.99
  -1   3  -5 1301.47   48.00
  -1  -3  -5 1269.17   49.60
  -1  -3  -5 1205.98   55.29
   1  -3   5 1291.57   53.79
  -1   3  -6   86.79   10.30
   1   3   6   98.59   10.20
   1   3   6  120.59   10.20
   1  -3   6  115.59   12.50
   1  -3   6  107.29   11.90
  -1  -3  -6   95.49   12.70
  -1   3  -7  570.24   30.60
   1   3   7  592.74   27.90
   1   3   7  581.84   28.10
  -1  -3  -7  601.34   34.00
   1  -3   7  571.34   30.30
   1  -3   7  633.44   31.50
   1   3   8   -2.00    7.20
   1   3   8    3.70    7.20
  -1   3  -8   -1.30    9.50
  -1  -3  -8   -0.40   14.60
   1  -3   8   13.30   10.50
  -1   4   8   82.89   12.90
   1   4  -8   71.89   12.60
  -1   4   8   89.79   11.00
  -1  -4   8   71.59   14.70
   1  -4  -8   75.29   15.90
  -1   4   7  751.22   34.20
   1   4  -7  768.72   38.20
  -1   4   7  743.13   35.20
   1  -4  -7  735.63   40.70
  -1  -4   7  771.72   38.40
  -1  -4   7  760.72   37.90
   1   4  -6   33.40    8.40
  -1   4   6   21.70    7.50
  -1   4   6   45.30    7.00
  -1  -4   6   49.99   11.40
  -1  -4   6   49.10    9.20
   1  -4  -6   41.80   10.40
  -1   4   5 2148.39   82.49
  -1   4   5 2100.29   83.09
   1   4  -5 2172.38   85.49
   1  -4  -5 2068.29   86.59
  -1  -4   5 2061.09   86.09
  -1  -4   5 2084.29   84.49
   1  -4  -5 2189.18   83.89
   1   4  -4   58.09    8.10
  -1   4   4   41.20    6.10
  -1   4   4   38.40    6.90
   1  -4  -4   39.40    8.80
  -1  -4   4   38.80    7.70
  -1  -4   4   42.40    9.30
   1  -4  -4   43.90    8.60
   1   4  -3 2805.22  112.49
  -1   4   3 2884.91  110.79
   1   4  -3 2963.50  107.09
  -1   4   3 2903.41  111.19
  -1  -4   3 2939.01  114.39
   1  -4  -3 2961.70  112.59
   1   4  -2  218.48   14.60
   1   4  -2  229.98   12.10
   1   4  -2  204.58   10.70
  -1   4   2  239.98   15.10
   1   4  -2  199.18   13.20
   1  -4  -2  209.78   13.80
  -1  -4   2  204.68   16.90
   1   4  -1 2958.90  115.39
  -1   4   1 3106.19  114.49
  -1   4   1 3036.60  115.29
   1   4  -1 2959.30  113.59
   1  -4  -1 3067.49  117.29
  -1  -4   1 3058.79  117.89
  -1  -4   1 2882.71  112.69
   1  -4  -1 3059.09  113.69
   1   4   0  289.47   16.00
  -1   4   0  309.07   16.90
   1   4   0  282.17   14.90
  -1   4   0  273.17   15.70
   1  -4   0  267.07   18.40
   1  -4   0  290.77   13.80
  -1  -4   0  295.57   15.30
  -1  -4   0  256.97   18.20
  -1   4  -1 1189.98   44.00
  -1   4  -1 1069.29   47.90
   1   4   1 1186.68   49.10
  -1   4  -1 1287.27   49.70
   1   4   1 1212.98   46.70
   1  -4   1 1159.18   50.99
  -1  -4  -1 1173.98   48.10
  -1  -4  -1 1168.98   50.59
  -1   4  -2  575.24   28.00
   1   4   2  580.94   27.00
   1   4   2  573.64   26.00
  -1  -4  -2  550.24   28.50
  -1  -4  -2  625.54   28.00
   1  -4   2  591.14   30.00
   1   4   3  238.48   14.30
  -1   4  -3  213.68   14.70
   1   4   3  244.18   13.70
  -1   4  -3  206.38   15.10
   1  -4   3  203.88   17.20
  -1  -4  -3  246.28   16.70
   1   4   4  477.15   21.40
  -1   4  -4  449.06   24.80
  -1   4  -4  463.65   23.50
   1   4   4  457.05   22.20
  -1  -4  -4  483.45   24.00
  -1  -4  -4  462.75   25.80
   1  -4   4  402.46   24.90
   1  -4   4  406.16   26.00
   1   4   5  748.63   33.20
  -1   4  -5  779.62   35.40
   1  -4   5  718.23   36.50
  -1  -4  -5  787.62   38.30
  -1  -4  -5  718.23   34.00
   1  -4   5  722.43   37.30
  -1   4  -6  232.48   18.30
   1   4   6  280.07   16.80
   1   4   6  279.07   16.30
   1  -4   6  250.77   21.80
   1  -4   6  211.88   20.70
  -1  -4  -6  242.98   22.10
  -1   4  -7  575.14   38.20
   1   4   7  671.03   31.70
   1   4   7  677.53   31.20
   1  -4   7  626.64   36.00
  -1  -4  -7  649.24   40.20
   1  -4   7  670.53   36.00
   1   4   8  109.89   13.00
   1   4   8  174.28   17.20
  -1   4  -8  141.99   17.40
  -1  -4  -8  120.59   18.90
   1  -4   8  121.49   18.30
  -1   5   7   53.79   11.90
  -1   5   7   20.50    9.10
   1   5  -7   31.20   13.20
  -1  -5   7   36.90   13.60
  -1  -5   7   14.50   15.90
   1  -5  -7   47.90   15.70
  -1   5   6  545.35   29.60
  -1   5   6  615.84   31.50
  -1  -5   6  593.14   32.30
   1  -5  -6  593.94   34.10
  -1  -5   6  584.04   35.30
   1   5  -5   17.80    9.80
  -1   5   5   21.00    9.10
  -1   5   5   29.80    7.80
  -1  -5   5   34.70   12.80
  -1  -5   5   11.40    9.10
   1  -5  -5   26.20    9.50
   1  -5  -5   25.70   10.80
  -1   5   4  706.43   33.70
   1   5  -4  668.73   35.70
  -1   5   4  751.82   35.20
   1  -5  -4  723.63   36.00
   1  -5  -4  728.13   36.30
  -1  -5   4  728.13   39.00
  -1  -5   4  729.93   34.80
  -1   5   3   87.49   11.20
   1   5  -3   75.69   10.80
  -1   5   3  124.89   12.40
  -1  -5   3   74.29    9.60
  -1  -5   3   77.29   12.70
   1  -5  -3  100.09   13.20
   1  -5  -3   91.59   11.40
   1   5  -2 1276.57   52.79
   1   5  -2 1224.08   50.39
  -1   5   2 1155.28   51.29
  -1   5   2 1179.68   50.39
   1  -5  -2 1214.68   54.39
  -1  -5   2 1247.88   55.29
  -1   5   1  230.58   16.20
   1   5  -1  237.58   15.20
   1   5  -1  260.07   16.70
  -1   5   1  270.37   16.50
   1  -5  -1  254.17   20.40
   1  -5  -1  257.67   15.40
  -1  -5   1  255.77   14.80
  -1  -5   1  246.38   19.20
  -1   5   0 1353.96   56.89
   1   5   0 1358.16   55.19
  -1   5   0 1334.27   56.59
   1   5   0 1422.96   57.89
  -1  -5   0 1463.15   55.59
   1  -5   0 1398.26   53.99
   1  -5   0 1352.96   60.39
  -1  -5   0 1409.76   60.79
  -1   5  -1  605.14   29.30
   1   5   1  594.04   29.00
   1   5   1  638.44   27.40
  -1   5  -1  587.54   28.90
   1  -5   1  592.74   32.50
  -1  -5  -1  657.53   28.90
  -1  -5  -1  604.04   32.60
  -1   5  -2 2203.88   90.19
  -1   5  -2 2304.97   90.69
   1   5   2 2283.87   87.39
   1   5   2 2242.38   90.49
   1  -5   2 2415.86   94.49
  -1  -5  -2 2253.37   92.29
  -1  -5  -2 2271.57   89.59
  -1   5  -3  722.93   35.60
  -1   5  -3  760.92   36.40
   1   5   3  738.83   33.70
   1   5   3  786.72   35.30
   1  -5   3  748.93   39.20
  -1  -5  -3  721.33   36.20
  -1  -5  -3  726.13   35.70
   1   5   4 1489.65   62.09
  -1   5  -4 1524.05   63.99
   1   5   4 1554.64   62.79
  -1  -5  -4 1497.15   63.69
   1  -5   4 1549.05   66.99
  -1  -5  -4 1492.55   64.69
   1  -5   4 1420.26   64.19
   1   5   5  289.47   20.10
  -1   5  -5  301.57   22.90
   1   5   5  292.97   19.70
  -1  -5  -5  296.47   22.20
  -1  -5  -5  272.77   23.70
   1  -5   5  297.37   23.30
   1  -5   5  333.87   25.70
   1   5   6  646.54   31.80
  -1   5  -6  643.24   35.60
   1  -5   6  582.54   37.30
   1  -5   6  555.84   35.80
  -1  -5  -6  626.14   37.70
  -1   6   5  140.59   15.90
  -1   6   5  170.98   20.10
   1   6  -5  147.29   17.40
   1  -6  -5  177.98   19.70
  -1  -6   5  183.48   21.90
   1  -6  -5  158.78   18.70
  -1  -6   5  174.78   19.60
  -1   6   4 1583.24   68.39
   1   6  -4 1468.65   74.29
  -1   6   4 1658.13   70.09
  -1  -6   4 1614.54   68.59
   1  -6  -4 1703.83   71.79
  -1  -6   4 1687.43   73.49
   1  -6  -4 1684.03   70.19
   1   6  -3  107.99   13.80
  -1   6   3   99.89   12.40
  -1   6   3  113.09   13.50
  -1  -6   3   98.69   17.00
   1  -6  -3  138.59   18.10
  -1  -6   3  142.19   15.60
   1  -6  -3   96.29   12.70
  -1   6   2 1708.73   71.69
   1   6  -2 1848.22   74.79
   1   6  -2 1750.82   71.39
  -1   6   2 1740.03   72.09
   1  -6  -2 1737.53   71.19
  -1  -6   2 1797.32   77.59
   1  -6  -2 1802.72   76.49
   1   6  -1  190.98   14.80
  -1   6   1  164.88   15.80
   1   6  -1  165.78   15.60
  -1   6   1  160.98   15.10
   1  -6  -1  194.08   21.60
  -1  -6   1  158.48   20.00
  -1   6   0 1199.08   51.69
   1   6   0 1263.77   52.69
  -1   6   0 1179.58   51.59
   1   6   0 1197.48   49.70
  -1  -6   0 1168.58   56.89
   1  -6   0 1220.98   56.59
   1   6   1  189.88   15.30
   1   6   1  188.18   17.40
  -1   6  -1  207.58   17.30
  -1   6  -1  208.48   17.90
  -1  -6  -1  192.88   21.30
   1  -6   1  226.48   21.20
  -1  -6  -1  202.18   16.20
  -1   6  -2  524.55   29.50
   1   6   2  503.65   27.60
  -1   6  -2  516.85   28.60
  -1  -6  -2  543.35   28.30
   1  -6   2  580.44   33.30
  -1  -6  -2  542.55   32.50
  -1   6  -3   65.49   12.80
   1   6   3   67.09   12.30
  -1   6  -3   93.69   13.50
  -1  -6  -3   96.49   15.10
   1  -6   3   96.99   16.50
  -1  -6  -3   89.39   13.10
   1   6   4  441.96   26.40
  -1  -6  -4  431.46   27.80
   1  -6   4  392.06   34.60
  -1  -6  -4  416.66   30.10
   1  -6   4  394.56   27.50
   1   6   5   95.89   15.20
  -1   6  -5   73.59   13.90
   1  -6   5   99.59   19.60
   1  -6   5  113.59   16.20
  -1  -6  -5   99.79   17.20
   1   7  -2   52.09   12.50
  -1   7   2   31.00   10.90
  -1   7   2   23.20   15.40
  -1  -7   2   55.39   17.30
   1  -7  -2   21.30   15.80
  -1   7   1  643.74   33.50
   1   7  -1  668.83   34.00
  -1   7   1  519.05   35.60
  -1  -7   1  672.93   39.40
   1  -7  -1  645.74   40.20
  -1   7   0  227.48   20.80
   1   7   0  211.58   20.90
  -1   7   0  260.37   19.90
  -1  -7   0  221.98   23.80
   1  -7   0  244.78   24.60
   1   7   1 1271.67   57.09
  -1   7  -1 1394.16   58.09
  -1   7  -1 1276.97   56.09
   1  -7   1 1240.08   62.59
  -1  -7  -1 1220.68   60.59
   2   0 -10  908.31   43.40
  -2   0  10  846.32   43.10
  -2   0   9  -11.40    6.20
   2   0  -9  -16.70    8.20
   2   0  -9   -5.80   10.70
   2   0  -8 2029.70   84.99
   2   0  -8 2065.29   81.59
  -2   0   8 2055.69   82.09
   2   0  -7    2.50    5.20
   2   0  -7   -1.30    7.70
  -2   0   7   -6.80    4.10
  -2   0   6 2873.81  109.19
   2   0  -6 2843.02  110.79
  -2   0   5    0.40    1.90
   2   0  -5   -3.40    2.80
   2   0  -5    4.30    4.10
  -2   0   5    4.70    3.30
   2   0  -5    0.50    2.90
   2   0  -4 3750.52  140.09
   2   0  -4 3827.22  137.39
   2   0  -4 3775.72  138.49
  -2   0   4 3842.42  136.99
  -2   0   4 3482.55  138.89
  -2   0   3    0.60    2.00
   2   0  -3    1.00    1.90
   2   0  -3   -2.50    1.50
  -2   0   3   -2.50    1.30
   2   0  -3   -0.90    2.00
   2   0  -2 1913.61   72.09
   2   0  -2 1913.81   71.29
  -2   0   2 1901.61   70.79
  -2   0   2 1935.51   71.69
  -2   0   2 1874.41   71.09
   2   0  -2 1933.51   70.89
   2   0  -1   -9.80    1.20
  -2   0   1  -12.10    0.60
   2   0  -1  -11.90    0.50
   2   0  -1  -12.50    1.10
  -2   0   1  -11.00    1.20
  -2   0   1  -12.40    0.90
   2   0  -1  -10.00    1.40
  -2   0   1  -12.90    0.90
   2   0   0 1749.82   67.89
   2   0   0 1973.00   67.39
  -2   0   0 1801.82   68.59
   2   0   0 1840.82   67.09
   2   0   0 1865.31   67.99
   2   0   0 1799.42   67.99
  -2   0   0 1726.63   67.89
   2   0   1   -9.70    2.10
  -2   0  -1   -7.80    1.20
  -2   0  -1   -6.70    1.60
   2   0   1   -7.00    1.60
   2   0   1   -5.70    1.90
  -2   0  -1   -6.70    1.30
   2   0   1   -5.10    1.30
  -2   0  -1   -7.80    1.10
   2   0   2 2392.56   91.39
   2   0   2 2482.95   90.89
  -2   0  -2 2360.76   92.29
  -2   0  -2 2397.96   91.39
  -2   0  -2 2567.04   91.79
  -2   0  -2 2571.24   90.89
  -2   0  -3    0.90    1.90
   2   0   3    1.40    2.10
   2   0   3    0.30    2.00
  -2   0  -3   -0.30    2.90
  -2   0  -3    0.90    1.50
   2   0   4 5676.43  203.58
  -2   0  -4 5515.55  205.88
  -2   0  -4 5544.95  207.28
   2   0   4 5671.93  203.48
   2   0   4 5406.06  205.28
  -2   0  -5    4.80    5.40
   2   0   5   -2.30    2.70
   2   0   5   -1.00    3.60
   2   0   5    0.80    2.70
  -2   0  -5   -2.40    3.30
  -2   0  -6 4382.36  168.88
   2   0   6 4521.25  166.38
  -2   0  -6 4394.66  167.08
  -2   0  -7   -1.60    5.40
  -2   0  -7    2.90    7.80
   2   0   7   -0.20    5.30
  -2   0  -8 1270.57   57.39
   2   0   8 1241.48   53.09
  -2   0  -8 1231.98   54.29
  -2   0  -9   -2.40    8.70
   2   0   9  -16.50    8.50
  -2   0  -9    2.00   12.90
  -2   1   9   47.40   10.00
   2   1  -9   51.89   10.30
   2   1  -9   43.60   13.00
  -2  -1   9   43.10   10.30
   2  -1  -9   49.30   13.70
   2  -1  -9   39.00   10.50
  -2   1   8  294.07   18.20
   2   1  -8  338.47   19.20
   2   1  -8  253.87   20.90
   2  -1  -8  307.57   21.90
   2  -1  -8  282.07   18.90
  -2  -1   8  290.17   19.20
   2   1  -7  239.18   17.80
   2   1  -7  273.07   16.10
  -2   1   7  251.37   15.80
   2  -1  -7  229.98   19.40
  -2  -1   7  236.78   15.90
  -2  -1   7  267.87   12.00
   2  -1  -7  247.08   15.60
   2   1  -6  973.20   40.50
   2   1  -6  986.40   46.70
  -2   1   6  926.01   40.40
  -2  -1   6  910.61   40.50
  -2  -1   6 1002.20   37.70
   2  -1  -6 1032.50   43.60
   2   1  -5  824.32   35.80
   2   1  -5  831.22   34.90
   2  -1  -5  854.81   32.00
   2  -1  -5  832.92   34.60
   2  -1  -5  868.41   32.30
  -2  -1   5  858.81   33.40
   2   1  -4 3285.97  122.79
  -2   1   4 3248.88  122.39
   2   1  -4 3300.37  122.09
   2  -1  -4 3284.57  120.29
  -2  -1   4 3319.67  121.29
   2  -1  -4 3296.37  121.69
   2  -1  -4 3289.17  120.39
   2  -1  -4 3153.08  123.59
  -2  -1   4 3267.97  122.39
   2   1  -3 2981.10  111.29
   2   1  -3 3051.79  111.79
  -2   1   3 2793.62  111.59
  -2  -1   3 3082.79  111.39
  -2  -1   3 2981.90  111.49
   2  -1  -3 3108.29  110.89
   2  -1  -3 2957.80  112.59
   2  -1  -3 3073.59  110.59
   2  -1  -3 2952.00  110.29
  -2   1   2 4006.90  149.49
  -2   1   2 3814.02  150.78
   2   1  -2 4132.49  150.88
  -2   1   2 4158.18  149.69
   2   1  -2 4024.20  150.48
  -2   1   2 4115.69  150.08
  -2  -1   2 4151.58  150.48
   2  -1  -2 4230.38  150.88
  -2  -1   2 4257.87  151.08
   2  -1  -2 4049.09  151.38
   2   1  -1 6239.08  243.48
   2   1  -1 7284.17  242.28
  -2   1   1 7619.94  244.18
   2   1  -1 5660.73  243.08
   2   1  -1 6118.39  243.08
  -2   1   1 5974.40  243.28
  -2   1   1 7389.26  243.08
  -2  -1   1 7144.08  243.68
   2  -1  -1 6544.04  245.08
   2  -1  -1 6910.11  243.18
  -2  -1   1 5658.63  243.18
   2  -1  -1 6738.03  242.68
  -2  -1   1 7144.08  243.28
   2   1   0 5007.00  179.88
  -2   1   0 5020.00  179.38
   2   1   0 4214.28  182.98
  -2   1   0 5181.88  179.38
  -2   1   0 4326.07  181.38
  -2  -1   0 4619.94  179.58
  -2  -1   0 4822.42  180.48
  -2  -1   0 5027.70  180.18
   2  -1   0 5118.89  180.08
   2  -1   0 5018.70  179.28
  -2  -1   0 5328.37  178.58
   2  -1   0 5134.29  178.88
  -2   1  -1 5970.80  208.68
  -2   1  -1 5477.55  208.28
   2   1   1 5739.73  208.78
   2   1   1 5438.26  211.88
   2   1   1 6067.09  208.38
   2   1   1 6063.39  207.78
   2  -1   1 5031.20  208.68
  -2  -1  -1 6044.60  209.28
  -2  -1  -1 5468.15  210.18
   2  -1   1 5703.83  208.58
   2  -1   1 6002.30  209.38
   2  -1   1 5467.95  208.08
   2   1   2 3309.27  117.59
   2   1   2 3339.07  118.19
   2   1   2 3246.78  117.39
  -2   1  -2 3137.19  117.89
  -2   1  -2 3228.08  118.39
  -2   1  -2 3111.79  119.19
  -2  -1  -2 3305.87  117.99
  -2  -1  -2 2914.51  119.79
   2  -1   2 3116.59  118.29
   2  -1   2 3240.38  118.49
  -2   1  -3 2377.56   88.99
   2   1   3 2316.37   88.09
  -2   1  -3 2415.86   89.49
   2   1   3 2449.16   88.29
  -2   1  -3 2429.56   89.99
   2   1   3 2394.36   88.79
  -2  -1  -3 2455.15   87.89
  -2  -1  -3 2160.88   90.89
   2  -1   3 2340.07   88.79
   2   1   4 1114.89   43.40
  -2   1  -4 1105.89   44.60
  -2   1  -4 1108.69   44.60
   2   1   4 1109.09   42.30
   2  -1   4 1109.49   44.70
   2  -1   4 1113.89   43.50
  -2  -1  -4 1093.79   46.90
  -2  -1  -4 1132.29   41.90
   2   1   5   87.79    7.80
  -2   1  -5   84.09    8.40
  -2   1  -5   83.09    9.70
   2   1   5   87.59    6.30
  -2  -1  -5   87.49   10.30
  -2  -1  -5   90.19    4.80
   2  -1   5   95.69    8.30
   2  -1   5   78.79    8.60
  -2  -1  -5   69.99    8.10
   2   1   6  575.64   25.70
  -2   1  -6  601.84   27.60
   2  -1   6  512.05   25.80
  -2  -1  -6  550.24   27.10
  -2  -1  -6  557.04   29.90
   2  -1   6  571.64   25.10
   2   1   7  177.98   13.30
  -2   1  -7  186.38   16.20
  -2   1  -7  166.38   13.40
   2  -1   7  206.88   14.60
  -2  -1  -7  151.68   16.50
  -2   1  -8  289.57   22.50
  -2   1  -8  296.17   20.20
   2   1   8  305.67   18.70
  -2  -1  -8  278.47   23.20
  -2  -1  -8  282.37   20.50
   2  -1   8  273.17   19.90
   2   1   9  306.07   21.20
  -2   1  -9  273.67   22.60
   2   1   9  279.87   19.60
  -2   1  -9  235.98   25.40
  -2  -1  -9  348.77   35.90
  -2  -1  -9  270.57   21.10
   2  -1   9  290.17   21.50
   2   2  -9 1350.56   59.49
  -2   2   9 1301.97   54.79
  -2   2   9 1338.47   61.19
   2   2  -9 1293.67   58.39
  -2  -2   9 1302.27   58.19
   2  -2  -9 1375.16   63.79
  -2   2   8   27.90    7.80
   2   2  -8   32.10    8.30
  -2   2   8   22.50    5.90
   2   2  -8   29.70    9.80
  -2  -2   8   21.00    8.20
   2  -2  -8   25.50   11.90
   2   2  -7 2429.36   95.29
   2   2  -7 2368.86   95.29
  -2   2   7 2473.25   95.09
  -2   2   7 2338.07   92.49
  -2  -2   7 2409.66   95.39
   2  -2  -7 2492.95   98.59
  -2  -2   7 2479.55   92.19
  -2   2   6    6.70    3.70
   2   2  -6    9.70    4.70
  -2   2   6   12.80    5.10
   2   2  -6   11.90    6.00
   2  -2  -6    6.10    6.10
   2  -2  -6    2.20    4.00
  -2  -2   6    9.70    5.40
  -2  -2   6    9.00    4.20
  -2   2   5 1881.01   70.69
  -2   2   5 1803.62   72.19
   2   2  -5 1803.52   72.29
   2   2  -5 1868.01   72.29
   2  -2  -5 1913.91   74.79
  -2  -2   5 1807.82   72.49
  -2  -2   5 1911.41   71.99
   2  -2  -5 1884.81   70.69
  -2   2   4   16.30    3.80
   2   2  -4   16.90    4.10
  -2   2   4   15.50    2.90
   2   2  -4   19.00    4.00
   2  -2  -4   18.50    4.30
  -2  -2   4   18.90    4.10
  -2  -2   4   23.10    5.20
   2  -2  -4   13.30    4.50
  -2   2   3 2250.87   84.49
   2   2  -3 2301.87   86.19
  -2   2   3 2169.48   85.89
   2   2  -3 2380.06   85.59
  -2  -2   3 2246.88   85.49
   2  -2  -3 2357.46   85.89
   2  -2  -3 2170.48   86.79
  -2  -2   3 2299.37   86.69
   2   2  -2  103.49    6.50
   2   2  -2  103.49    7.20
  -2   2   2  100.69    7.20
  -2   2   2  102.19    5.70
   2  -2  -2   94.29    7.20
   2  -2  -2   96.89    7.10
  -2  -2   2   90.69    7.60
  -2  -2   2  101.69    6.20
  -2   2   1 3397.46  128.19
  -2   2   1 3341.47  126.39
   2   2  -1 3154.78  127.79
   2   2  -1 3393.46  126.79
   2  -2  -1 3542.75  126.79
  -2  -2   1 3528.45  128.19
  -2  -2   1 3362.86  125.69
  -2  -2   1 3589.54  125.79
   2  -2  -1 3491.45  127.69
  -2   2   0   49.90    3.90
  -2   2   0   49.30    4.00
   2   2   0   43.20    5.10
  -2   2   0   51.99    6.70
   2  -2   0   49.99    5.10
  -2  -2   0   46.70    5.40
  -2  -2   0   47.80    5.80
  -2  -2   0   54.79    4.10
   2  -2   0   48.30    3.60
  -2   2  -1 2390.86   87.49
   2   2   1 2227.88   85.89
   2   2   1 2316.37   87.79
  -2   2  -1 2021.10   89.29
   2  -2   1 2409.16   88.89
  -2  -2  -1 2518.25   85.59
  -2  -2  -1 2457.15   88.69
   2  -2   1 2266.87   86.19
  -2  -2  -1 2372.16   89.29
   2  -2   1 2425.36   85.79
   2   2   2   28.80    3.00
  -2   2  -2   34.70    5.70
  -2   2  -2   33.30    4.00
   2   2   2   24.60    3.50
  -2  -2  -2   24.60    5.20
   2  -2   2   32.10    4.80
   2  -2   2   30.30    2.20
   2  -2   2   29.80    3.10
  -2  -2  -2   23.40    4.00
  -2  -2  -2   28.80    2.90
   2   2   3 3510.45  134.99
  -2   2  -3 3604.64  137.09
  -2   2  -3 3584.44  135.49
  -2   2  -3 3633.94  133.29
   2   2   3 3721.23  133.69
   2  -2   3 3713.93  133.39
  -2  -2  -3 3487.35  137.79
  -2  -2  -3 3806.82  134.79
   2  -2   3 3589.34  136.19
   2   2   4   65.99    6.60
  -2   2  -4   59.09    6.20
   2   2   4   81.09    6.20
  -2  -2  -4   69.09    6.20
   2  -2   4   81.29    8.50
  -2  -2  -4   76.69   10.20
   2  -2   4   71.89    9.00
   2   2   5 2731.23  105.69
   2   2   5 2815.92  104.99
  -2   2  -5 2694.63  106.79
  -2   2  -5 2901.31  105.19
  -2  -2  -5 2728.63  109.89
  -2  -2  -5 2875.61  103.29
   2  -2   5 2778.72  107.79
   2  -2   5 2758.22  106.69
   2   2   6  131.09   10.60
  -2   2  -6  149.49   12.80
   2   2   6  119.39   10.30
  -2   2  -6  131.39   11.60
   2  -2   6  148.49   13.60
  -2  -2  -6  135.59   15.00
   2  -2   6  132.79   13.30
  -2   2  -7 1567.74   63.79
  -2   2  -7 1483.45   63.59
   2   2   7 1515.15   61.29
   2   2   7 1542.55   61.79
  -2  -2  -7 1517.05   67.69
   2  -2   7 1535.15   62.99
   2  -2   7 1498.45   63.79
  -2   2  -8    7.70    7.70
   2   2   8    8.80    7.40
   2   2   8   -3.90    5.50
  -2   2  -8    5.50   13.80
   2  -2   8    5.30    8.30
  -2  -2  -8    6.40   11.70
   2   2   9  700.03   34.20
   2   2   9  682.73   34.60
  -2   2  -9  665.63   35.80
   2  -2   9  654.03   37.10
  -2  -2  -9  698.73   42.40
  -2   3   9  326.87   19.50
  -2   3   9  289.57   22.50
   2   3  -9  346.87   24.40
  -2  -3   9  241.68   24.00
   2  -3  -9  275.87   29.70
  -2   3   8   -1.30    7.60
  -2   3   8    4.70    6.10
   2   3  -8   -6.10    7.20
  -2  -3   8    9.90    8.30
   2  -3  -8    6.60   11.20
  -2   3   7  256.17   15.60
   2   3  -7  260.97   18.50
   2   3  -7  288.57   19.50
  -2   3   7  258.57   17.50
   2  -3  -7  254.77   20.10
  -2  -3   7  270.07   18.30
  -2  -3   7  275.97   18.80
  -2   3   6  213.08   14.30
   2   3  -6  228.58   15.60
   2   3  -6  211.38   14.20
  -2   3   6  205.38   12.60
  -2  -3   6  179.78   15.00
   2  -3  -6  183.58   14.10
   2  -3  -6  198.88   17.60
  -2  -3   6  211.38   15.90
  -2   3   5  404.76   20.50
   2   3  -5  420.36   21.20
   2   3  -5  409.26   19.90
  -2  -3   5  391.36   20.70
   2  -3  -5  444.16   21.40
   2  -3  -5  421.56   23.10
   2   3  -4 1957.90   74.69
  -2   3   4 1692.53   74.99
   2   3  -4 1915.61   72.29
  -2   3   4 1885.61   72.19
  -2  -3   4 1894.01   75.29
   2  -3  -4 1952.20   74.39
  -2  -3   4 1965.00   73.69
   2  -3  -4 1890.11   75.49
   2   3  -3  538.55   21.60
  -2   3   3  450.15   22.20
  -2   3   3  504.25   21.50
   2  -3  -3  499.75   23.70
  -2  -3   3  489.35   22.00
  -2  -3   3  509.55   24.50
   2  -3  -3  483.85   23.40
   2   3  -2 2002.20   82.99
   2   3  -2 2153.28   80.99
  -2   3   2 2068.79   82.69
  -2   3   2 2146.69   81.69
   2  -3  -2 2184.38   82.39
  -2  -3   2 2205.68   81.19
   2  -3  -2 2237.18   83.59
  -2  -3   2 2194.98   84.29
  -2   3   1  631.84   28.10
   2   3  -1  622.64   27.20
  -2   3   1  595.44   25.40
  -2  -3   1  598.34   27.60
   2  -3  -1  596.04   25.10
   2  -3  -1  577.14   27.10
  -2  -3   1  610.54   24.30
  -2  -3   1  586.24   25.60
  -2   3   0 3248.58  120.89
  -2   3   0 3146.99  122.29
  -2   3   0 3457.35  125.19
   2   3   0 3239.98  120.79
   2   3   0 3344.17  124.29
   2  -3   0 3226.48  124.59
  -2  -3   0 3128.59  123.29
   2  -3   0 3358.66  121.09
  -2  -3   0 3232.18  124.49
  -2  -3   0 3399.86  121.39
   2   3   1  931.11   35.00
  -2   3  -1  890.11   39.20
  -2   3  -1  915.11   36.90
   2   3   1  921.41   37.50
   2  -3   1  893.51   39.00
  -2  -3  -1  886.71   38.40
  -2  -3  -1  896.21   38.20
  -2  -3  -1  944.21   34.70
  -2   3  -2 1496.45   64.69
   2   3   2 1584.94   62.39
  -2   3  -2 1689.23   62.69
   2   3   2 1566.74   60.39
  -2  -3  -2 1639.84   64.49
  -2  -3  -2 1620.14   63.49
   2  -3   2 1619.14   64.49
  -2  -3  -2 1636.04   60.09
   2   3   3  466.35   18.90
  -2   3  -3  476.15   23.90
   2   3   3  418.46   20.30
  -2  -3  -3  445.96   23.80
  -2  -3  -3  456.15   21.50
   2  -3   3  432.76   22.60
   2   3   4  179.78   10.10
  -2   3  -4  163.98   14.60
   2   3   4  166.18   11.00
  -2   3  -4  161.88   12.30
  -2  -3  -4  183.38   15.30
  -2  -3  -4  171.28   11.50
  -2   3  -5  584.54   28.10
  -2   3  -5  602.84   23.40
   2   3   5  585.74   25.40
   2   3   5  567.64   26.30
  -2  -3  -5  572.94   31.10
   2  -3   5  565.24   29.30
  -2  -3  -5  596.94   25.60
   2  -3   5  572.54   29.40
   2   3   6   54.19    7.60
  -2   3  -6   26.40    7.70
   2   3   6   49.40    6.80
  -2  -3  -6   59.79   11.10
   2  -3   6   60.09   10.10
   2  -3   6   38.00    8.60
   2   3   7  336.87   19.70
  -2   3  -7  341.97   21.40
   2   3   7  352.76   20.40
   2  -3   7  380.96   24.10
   2  -3   7  352.86   24.30
  -2  -3  -7  385.26   28.20
  -2   3  -8   17.30    9.60
   2   3   8    5.10    7.70
   2   3   8    7.20    8.10
  -2  -3  -8   17.80   15.00
   2  -3   8   21.20   11.00
  -2   4   8  338.67   20.50
  -2   4   8  355.36   23.30
   2   4  -8  341.57   26.90
   2  -4  -8  339.77   27.80
  -2  -4   8  326.07   25.50
  -2   4   7   46.50    9.70
  -2   4   7   50.29    8.00
   2   4  -7   32.60   11.80
  -2  -4   7   69.59   12.90
  -2  -4   7   58.59   12.20
   2  -4  -7   60.99   14.80
  -2   4   6  511.65   24.60
  -2   4   6  484.65   26.10
   2   4  -6  526.25   28.90
  -2  -4   6  526.85   27.60
   2  -4  -6  503.25   26.70
   2  -4  -6  490.85   28.70
  -2  -4   6  493.35   28.90
  -2   4   5   55.09    8.70
  -2   4   5   41.70    6.30
   2   4  -5   36.30    7.70
   2  -4  -5   52.49   10.30
  -2  -4   5   39.90   10.60
   2  -4  -5   67.69   11.70
  -2  -4   5   31.80    7.50
  -2   4   4  354.56   19.30
   2   4  -4  358.36   21.20
  -2   4   4  344.57   17.80
   2   4  -4  350.16   16.50
  -2  -4   4  344.97   21.40
  -2  -4   4  359.26   19.10
   2  -4  -4  300.87   23.40
   2  -4  -4  346.27   20.30
  -2   4   3  106.49   13.00
   2   4  -3  111.09   11.30
  -2   4   3  104.49   11.10
   2   4  -3  118.29    8.70
  -2  -4   3  119.29   12.40
  -2  -4   3  137.39   10.90
   2  -4  -3  120.19   11.30
   2  -4  -3  111.49   13.00
   2   4  -2  294.87   15.50
   2   4  -2  300.37   18.60
  -2   4   2  327.87   16.50
  -2  -4   2  306.57   15.90
  -2  -4   2  304.97   19.00
   2  -4  -2  301.77   18.50
   2  -4  -2  326.37   16.90
   2   4  -1  105.39    8.50
  -2   4   1  108.49    9.10
   2   4  -1  107.39   10.10
   2  -4  -1  104.09    9.30
  -2  -4   1   97.29    9.90
  -2  -4   1  109.19   12.20
   2  -4  -1  102.79   11.20
   2   4   0  125.09   11.20
  -2   4   0  115.39    9.70
   2   4   0  120.09    8.60
   2  -4   0  129.49    8.20
   2  -4   0  127.79   12.10
  -2  -4   0  139.39   10.70
  -2  -4   0  112.89   11.40
  -2   4  -1  246.68   16.50
   2   4   1  264.67   16.40
   2   4   1  258.17   12.70
  -2  -4  -1  273.27   16.30
  -2  -4  -1  251.07   16.60
  -2   4  -2  405.96   19.90
   2   4   2  376.86   17.30
  -2   4  -2  367.66   21.50
   2   4   2  372.26   19.50
  -2  -4  -2  358.66   20.60
   2  -4   2  368.96   22.00
  -2  -4  -2  395.96   20.90
  -2   4  -3   19.00    5.00
   2   4   3   11.00    4.70
  -2   4  -3   12.90    6.70
   2   4   3   10.90    5.20
  -2  -4  -3   11.10    7.00
   2  -4   3   22.00    9.10
  -2  -4  -3   12.50    7.10
   2   4   4  836.02   33.20
  -2   4  -4  851.71   36.70
  -2   4  -4  783.92   38.90
   2   4   4  806.82   35.10
  -2  -4  -4  646.14   37.90
  -2  -4  -4  830.82   38.60
   2  -4   4  824.52   38.90
   2   4   5   31.60    6.50
   2   4   5   52.19    7.10
  -2   4  -5   37.50    9.30
  -2  -4  -5   42.70    9.90
   2  -4   5   35.00   10.50
   2  -4   5   33.20    9.60
  -2  -4  -5   54.19    9.30
  -2   4  -6  621.64   32.50
   2   4   6  613.34   29.40
   2   4   6  659.13   28.30
   2  -4   6  556.24   33.70
   2  -4   6  580.04   34.30
  -2  -4  -6  615.84   36.30
  -2   4  -7    0.70   10.50
   2   4   7   20.90   12.70
   2  -4   7   12.90   13.40
   2  -4   7   -7.10   12.00
  -2  -4  -7   -5.50   11.60
  -2   5   7   42.60   10.20
   2   5  -7   51.69   14.90
  -2   5   7   48.10   12.50
  -2  -5   7   18.20   16.60
  -2  -5   7   60.19   17.40
   2  -5  -7   45.00   15.50
  -2   5   6  306.67   21.70
  -2   5   6  285.47   18.90
  -2  -5   6  266.97   20.80
  -2  -5   6  271.67   26.20
   2  -5  -6  234.48   23.80
  -2   5   5   12.40    9.00
  -2   5   5    1.60    7.20
   2   5  -5    1.90    8.40
  -2  -5   5    2.00   10.90
  -2  -5   5    7.90    8.20
   2  -5  -5   37.10   11.20
   2  -5  -5   10.00   10.00
  -2   5   4   57.19   11.10
  -2   5   4   59.09    9.10
   2   5  -4   47.80   11.20
  -2  -5   4   58.69    9.00
   2  -5  -4   50.19   10.90
  -2  -5   4   60.79   12.30
   2  -5  -4   32.20   11.00
   2   5  -3  127.79   13.80
  -2   5   3  114.49   13.50
  -2   5   3  120.39   11.90
  -2  -5   3  122.69   12.90
   2  -5  -3   99.89   11.80
   2  -5  -3  123.59   14.60
  -2  -5   3  105.89   13.70
  -2   5   2   84.99   11.70
   2   5  -2  122.69   10.30
  -2   5   2  115.29   11.30
   2   5  -2  108.79   12.80
   2  -5  -2   87.39   12.10
   2  -5  -2  112.19   12.20
  -2  -5   2   94.19   10.70
  -2  -5   2   78.69   12.20
  -2   5   1  406.66   23.10
  -2   5   1  432.56   21.60
   2   5  -1  412.36   20.60
   2   5  -1  436.56   23.50
   2   5  -1  454.45   20.60
   2  -5  -1  406.56   20.60
   2  -5  -1  375.96   24.90
  -2  -5   1  430.26   25.00
  -2   5   0    5.50    6.70
   2   5   0    9.70    6.50
  -2   5   0   10.10    5.50
   2   5   0    2.00    4.90
  -2  -5   0    6.10    7.80
   2  -5   0    4.70    4.70
  -2  -5   0    5.70    6.10
   2  -5   0   -2.40    7.40
   2   5   1  411.26   19.40
   2   5   1  420.06   22.60
  -2   5  -1  428.46   22.40
  -2   5  -1  405.06   23.40
  -2  -5  -1  428.96   22.30
   2  -5   1  397.86   25.90
  -2  -5  -1  405.06   25.50
  -2   5  -2   51.79   10.00
  -2   5  -2   43.50    8.10
   2   5   2   42.00    8.40
   2   5   2   61.99    6.90
  -2  -5  -2   65.59    9.60
   2  -5   2   51.69   11.00
  -2  -5  -2   52.69   11.40
   2   5   3    6.20    6.80
  -2   5  -3    5.10    8.60
  -2   5  -3    2.40    7.10
   2   5   3   -4.80    6.90
   2  -5   3   -6.00    9.70
  -2  -5  -3    4.80    8.00
  -2  -5  -3   -4.40    8.40
   2   5   4  361.86   21.40
  -2   5  -4  331.67   20.80
  -2   5  -4  318.17   24.60
   2  -5   4  349.57   26.10
  -2  -5  -4  332.97   22.90
  -2  -5  -4  322.27   23.60
   2   5   5   51.69    9.60
  -2   5  -5   69.99   12.40
  -2  -5  -5   66.99   13.70
   2  -5   5   56.49   11.50
  -2  -5  -5   72.49   12.90
   2  -5   5   74.29   14.60
   2   5   6  259.97   18.60
  -2   5  -6  219.98   20.90
  -2  -5  -6  261.57   24.30
   2  -5   6  305.07   26.00
   2  -5   6  229.08   25.50
   2   6  -5   10.40   12.20
  -2   6   5   31.90   15.50
  -2   6   5   40.00   11.40
  -2  -6   5   40.10   11.40
   2  -6  -5    9.70   14.60
  -2  -6   5   11.10   14.00
   2  -6  -5   42.40   13.20
  -2   6   4   68.09   14.30
   2   6  -4   60.49   12.40
  -2   6   4   79.59   11.90
  -2  -6   4   45.20   16.80
   2  -6  -4   92.39   15.40
  -2  -6   4   84.29   11.80
   2  -6  -4   77.99   12.30
   2   6  -3   44.40   11.40
  -2   6   3   13.70    8.40
  -2   6   3   26.00   11.20
   2  -6  -3   -0.40   12.30
  -2  -6   3   36.90   12.00
   2  -6  -3    8.40    9.10
  -2  -6   3    9.40    8.40
  -2   6   2  204.88   20.10
   2   6  -2  248.78   20.20
  -2   6   2  251.37   17.30
  -2  -6   2  252.87   25.00
   2  -6  -2  217.58   23.50
  -2  -6   2  257.97   17.70
   2  -6  -2  240.58   17.90
   2   6  -1    6.40    7.80
  -2   6   1   15.90    8.70
  -2   6   1   13.30    7.60
  -2  -6   1   21.40   12.70
   2  -6  -1   25.20   12.80
   2   6   0  400.16   24.30
  -2   6   0  400.26   24.50
  -2   6   0  385.86   22.50
  -2  -6   0  394.26   28.20
  -2  -6   0  427.16   22.20
   2  -6   0  391.36   29.30
  -2   6  -1   82.89   10.80
   2   6   1   72.89   11.20
  -2   6  -1   42.30   11.20
   2  -6   1   66.49   14.80
  -2  -6  -1   65.99    9.70
  -2  -6  -1   80.29   14.50
  -2   6  -2  131.59   16.00
  -2   6  -2  109.49   13.70
   2   6   2  145.59   15.00
  -2  -6  -2  159.28   16.30
  -2  -6  -2  142.79   18.80
   2  -6   2  110.49   17.40
  -2   6  -3    7.10   10.20
  -2   6  -3    2.30   11.00
   2   6   3    2.10    9.30
  -2  -6  -3    7.60    9.70
  -2  -6  -3   -7.00   12.30
   2  -6   3    0.40   11.70
  -2   6  -4   -6.60   13.30
   2   6   4    7.80   10.50
  -2   6  -4   -2.40   11.90
   2  -6   4   -8.70   14.70
  -2  -6  -4    1.80   11.70
  -2  -6  -4   10.50   14.10
   2   7  -1   63.79   13.60
  -2   7   1   73.89   13.60
  -2   7   1   78.59   13.50
  -2  -7   1   38.60   17.20
   2  -7  -1  120.39   18.20
   2   7   0   46.40   11.40
  -2   7   0   51.89   12.20
   2  -7   0   48.30   18.10
  -2  -7   0   62.09   18.00
  -2   7  -1   45.50   11.80
   2   7   1   49.20   12.70
  -2   7  -1   38.90   13.20
   2  -7   1   53.29   17.30
  -2  -7  -1   35.90   14.50
   3   0  -9  -11.70   10.50
  -3   0   9    1.00    7.90
   3   0  -9  -11.20    7.90
   3   0  -8  260.37   16.40
   3   0  -8  232.78   20.50
  -3   0   8  221.18   16.70
   3   0  -7    5.00    5.10
   3   0  -7    0.80    7.20
  -3   0   7   -4.40    4.70
   3   0  -6  829.22   34.30
  -3   0   6  771.62   35.20
   3   0  -6  823.42   37.30
  -3   0   6  839.32   31.60
   3   0  -5   -0.60    2.90
   3   0  -5   -1.70    3.70
  -3   0   5    1.40    2.50
   3   0  -4  877.41   35.70
   3   0  -4  858.61   33.50
  -3   0   4  808.42   34.50
  -3   0   4  848.82   33.00
   3   0  -3   -2.40    1.70
  -3   0   3   -1.60    2.30
   3   0  -3    1.50    2.40
  -3   0   3   -3.50    1.90
   3   0  -2  393.46   15.50
  -3   0   2  380.86   16.60
  -3   0   2  404.66   15.50
  -3   0   2  405.56   16.90
   3   0  -1   -2.10    0.90
  -3   0   1   -1.00    0.70
   3   0  -1   -1.80    1.50
  -3   0   1   -2.70    1.30
  -3   0   1   -3.20    1.40
   3   0  -1   -0.10    2.30
   3   0   0  256.47   10.40
  -3   0   0  237.48   11.10
  -3   0   0  231.38   12.20
   3   0   0  256.07   11.20
   3   0   0  242.68    9.90
   3   0   0  246.78   11.20
  -3   0  -1   -6.70    1.60
  -3   0  -1   -5.80    2.10
  -3   0  -1    1.40    2.50
  -3   0  -1   -7.10    1.40
  -3   0  -2  290.37   14.20
  -3   0  -2  261.27   12.80
  -3   0  -2  278.57   12.50
  -3   0  -2  286.87   13.20
  -3   0  -3   -6.40    3.50
   3   0   3   -0.90    2.30
  -3   0  -3   -3.90    2.80
  -3   0  -3   -3.70    2.20
   3   0   4  262.77   13.20
  -3   0  -4  253.67   15.20
  -3   0  -4  251.27   11.60
  -3   0  -4  252.47   13.90
  -3   0  -5   -2.40    3.80
   3   0   5    0.90    3.30
  -3   0  -6  180.98   16.00
   3   0   6  195.98   12.80
   3   0   6  197.18   10.90
  -3   0  -6  184.08   13.30
   3   0   7  -10.10    5.60
  -3   0  -7    2.90    6.70
  -3   0  -7    2.20    8.50
  -3   0  -8  268.27   20.30
  -3   0  -8  252.57   22.80
   3   0   8  271.27   18.70
  -3   0  -9    6.90   13.50
  -3   0  -9  -14.60    9.70
   3   0   9  -16.40   10.00
   3   1  -9   -5.90    7.90
   3   1  -9   11.60   10.70
  -3   1   9   26.60    9.60
   3  -1  -9   13.00    8.60
  -3  -1   9   -2.30   13.20
   3  -1  -9   35.80   12.50
   3   1  -8  187.08   15.20
   3   1  -8  190.78   19.20
  -3   1   8  207.48   15.30
   3  -1  -8  216.48   15.80
   3  -1  -8  216.08   20.00
  -3  -1   8  215.18   16.90
   3   1  -7   99.19   10.40
  -3   1   7  120.29   10.60
   3   1  -7  111.79   12.60
   3  -1  -7   90.89   10.40
   3  -1  -7   79.69   11.70
  -3  -1   7  111.79   10.60
  -3  -1   7  115.19    8.60
   3   1  -6   56.19    8.40
   3   1  -6   54.39    6.50
  -3   1   6   80.89    9.00
   3  -1  -6   66.59    6.20
  -3  -1   6   61.39    7.40
   3  -1  -6   62.49    9.70
  -3  -1   6   66.39    6.90
   3  -1  -6   73.99    8.50
   3   1  -5  828.82   35.40
  -3   1   5  790.82   34.30
   3   1  -5  848.02   33.90
   3  -1  -5  816.12   33.20
   3  -1  -5  799.42   36.10
  -3  -1   5  807.92   32.70
   3  -1  -5  817.62   31.90
  -3   1   4  136.39    9.00
   3   1  -4  139.59    9.30
   3   1  -4  118.19    8.00
  -3   1   4  137.79    7.30
  -3  -1   4  132.59    8.50
   3  -1  -4  135.89    7.80
  -3  -1   4  131.09    8.20
   3  -1  -4  124.29   10.00
  -3   1   3  262.77   12.90
   3   1  -3  261.07   12.00
  -3   1   3  264.27   11.80
  -3   1   3  270.17   11.40
   3  -1  -3  274.77   13.70
  -3  -1   3  253.77   12.50
  -3  -1   3  259.27   12.40
  -3   1   2  324.37   14.10
   3   1  -2  334.47   14.90
  -3   1   2  334.37   12.70
   3   1  -2  339.67   14.10
  -3   1   2  330.37   12.50
  -3   1   2  310.07   14.70
  -3  -1   2  333.17   14.00
   3  -1  -2  318.87   14.90
  -3  -1   2  314.67   14.70
  -3   1   1   31.70    3.20
   3   1  -1   28.30    2.60
   3   1  -1   21.20    3.30
  -3   1   1   28.00    3.90
   3   1  -1   24.50    3.40
  -3   1   1   25.60    1.40
   3  -1  -1   28.30    3.40
  -3  -1   1   26.90    3.60
  -3  -1   1   23.70    2.50
  -3   1   0  919.61   37.40
   3   1   0  961.10   37.10
   3   1   0  990.20   35.80
  -3   1   0  990.00   36.20
   3  -1   0  949.90   37.10
  -3  -1   0  979.70   38.00
   3  -1   0  981.60   36.10
  -3  -1   0 1056.09   38.80
  -3  -1   0  890.71   36.60
  -3   1  -1  104.59    8.10
  -3   1  -1  108.99    5.90
  -3   1  -1  110.29    6.50
   3   1   1  106.99    6.10
   3   1   1   96.29    5.60
  -3  -1  -1  101.19    6.50
   3  -1   1  103.89    5.60
  -3  -1  -1  121.29    8.30
  -3   1  -2 1705.33   65.69
  -3   1  -2 1684.03   67.29
   3   1   2 1791.42   64.79
   3   1   2 1712.83   65.09
  -3   1  -2 1801.02   65.99
   3   1   2 1734.53   65.69
  -3   1  -2 1713.13   65.69
  -3  -1  -2 1735.63   68.09
  -3  -1  -2 1819.02   65.89
   3  -1   2 1726.83   66.19
  -3   1  -3  207.08   12.10
  -3   1  -3  215.28   11.30
   3   1   3  190.48   10.20
   3   1   3  208.28    9.90
  -3   1  -3  199.58   10.90
   3  -1   3  208.78   10.90
  -3  -1  -3  218.68   13.60
  -3  -1  -3  200.18   10.10
  -3   1  -4  970.60   39.50
   3   1   4  972.60   38.20
  -3   1  -4  943.81   39.40
  -3  -1  -4  978.10   37.30
  -3  -1  -4  947.41   42.20
   3  -1   4  963.30   38.60
   3  -1   4  960.10   39.70
  -3   1  -5   -0.60    4.90
   3   1   5    5.60    3.50
  -3   1  -5    6.90    4.20
   3  -1   5   -0.60    4.30
  -3  -1  -5    4.90    4.10
   3  -1   5   -2.40    4.00
  -3  -1  -5    3.50    3.00
  -3  -1  -5    6.20    6.50
  -3   1  -6  224.48   16.50
  -3   1  -6  241.08   15.20
   3   1   6  240.08   11.20
   3   1   6  237.98   14.30
  -3  -1  -6  231.18   18.40
   3  -1   6  258.57   15.90
   3  -1   6  258.57   15.00
  -3  -1  -6  229.88   15.80
  -3   1  -7   45.40    8.30
  -3   1  -7   45.40    9.70
   3   1   7   40.30    7.50
  -3  -1  -7   20.00    7.50
   3  -1   7   43.30    8.00
  -3  -1  -7   44.80   12.20
  -3   1  -8   42.80   11.40
  -3   1  -8   51.19   10.60
   3   1   8   41.00    8.50
   3   1   8   45.90    9.40
   3  -1   8   49.10   11.20
  -3  -1  -8   16.30   12.90
  -3  -1  -8   48.00   10.60
  -3   1  -9   17.00   12.60
  -3   1  -9   12.70   10.60
   3   1   9    4.60    9.10
   3   1   9   -2.20    8.20
  -3  -1  -9   17.10   14.20
   3  -1   9   10.10   10.20
   3   2  -9   48.90   10.80
   3   2  -9   62.69   14.00
  -3   2   9   49.70   10.20
  -3   2   9   49.90    8.10
  -3  -2   9   51.79   10.40
   3  -2  -9   45.80   13.20
  -3   2   8  158.38   14.00
  -3   2   8  140.69   12.10
   3   2  -8  147.59   13.60
   3   2  -8  147.49   15.70
   3  -2  -8  177.98   18.00
  -3  -2   8  156.38   15.30
   3   2  -7  397.36   23.00
   3   2  -7  411.06   21.80
  -3   2   7  388.06   18.50
  -3   2   7  391.46   21.60
  -3  -2   7  337.77   20.50
   3  -2  -7  370.56   23.60
  -3  -2   7  393.56   19.60
  -3   2   6  153.48   11.30
   3   2  -6  126.69   11.40
  -3   2   6  140.89    9.20
   3  -2  -6  131.19   13.50
   3  -2  -6  142.99   10.40
  -3  -2   6  156.28   11.50
  -3  -2   6  131.79   11.80
  -3   2   5  854.71   37.40
  -3   2   5  905.41   35.20
   3   2  -5  865.51   37.10
   3   2  -5  909.41   37.80
  -3  -2   5  911.41   37.20
  -3  -2   5  874.41   37.40
   3  -2  -5  866.41   39.20
   3  -2  -5  937.01   36.10
   3   2  -4  183.78   11.40
  -3   2   4  176.58    8.90
   3   2  -4  172.58   10.40
  -3   2   4  177.88   11.20
  -3  -2   4  201.28   10.90
   3  -2  -4  168.48   12.70
  -3  -2   4  191.78   11.70
   3  -2  -4  179.68   10.60
   3   2  -3  742.63   30.10
   3   2  -3  728.03   30.00
  -3   2   3  725.23   27.90
  -3   2   3  724.53   30.20
  -3  -2   3  703.83   30.40
   3  -2  -3  689.23   30.50
  -3  -2   3  703.03   29.10
   3  -2  -3  719.63   29.70
   3   2  -2 1618.44   61.59
   3   2  -2 1674.73   62.19
  -3   2   2 1568.04   59.99
   3  -2  -2 1571.04   61.59
  -3  -2   2 1570.84   62.29
   3  -2  -2 1550.54   59.39
  -3  -2   2 1618.04   60.19
   3  -2  -2 1626.64   61.89
  -3   2   1  484.85   22.70
   3   2  -1  535.15   21.70
  -3   2   1  502.25   19.60
   3   2  -1  489.45   21.90
   3  -2  -1  452.65   20.00
   3  -2  -1  488.15   21.60
  -3  -2   1  508.75   19.40
  -3  -2   1  481.45   22.00
   3  -2  -1  486.65   20.70
  -3  -2   1  504.85   19.20
  -3   2   0 1384.66   53.19
   3   2   0 1485.25   55.39
  -3   2   0 1414.96   57.69
   3  -2   0 1345.67   55.19
  -3  -2   0 1391.86   55.29
  -3  -2   0 1433.96   55.89
   3  -2   0 1451.95   53.49
  -3   2  -1    6.30    4.20
  -3   2  -1    7.00    2.20
   3   2   1   11.80    2.70
  -3  -2  -1    7.60    4.40
   3  -2   1    6.40    1.90
   3  -2   1    6.90    3.40
   3  -2   1    7.20    3.10
  -3  -2  -1    7.90    3.10
  -3   2  -2 1455.95   55.09
   3   2   2 1390.76   54.99
  -3   2  -2 1338.47   57.49
   3   2   2 1503.25   52.79
   3   2   2 1454.95   53.09
   3  -2   2 1465.55   53.29
   3  -2   2 1387.46   56.19
   3  -2   2 1436.26   54.39
  -3  -2  -2 1372.96   57.59
  -3  -2  -2 1445.26   55.59
  -3   2  -3   51.39    7.60
   3   2   3   49.50    5.70
  -3   2  -3   54.79    5.00
   3   2   3   58.79    4.60
  -3   2  -3   59.29    6.30
  -3  -2  -3   53.49    6.00
  -3  -2  -3   35.10    6.90
   3  -2   3   44.40    5.90
  -3   2  -4 1206.08   51.19
  -3   2  -4 1337.27   53.59
   3   2   4 1313.77   49.30
   3   2   4 1275.67   50.79
  -3   2  -4 1306.07   49.50
   3  -2   4 1260.77   51.59
  -3  -2  -4 1322.97   49.80
  -3  -2  -4 1202.68   54.09
  -3   2  -5   61.29    7.60
   3   2   5   61.29    7.10
  -3   2  -5   72.19    7.40
   3   2   5   61.79    7.00
   3  -2   5   57.09    8.00
   3  -2   5   54.79    8.50
  -3  -2  -5   61.29   10.70
  -3  -2  -5   60.89    6.10
  -3   2  -6  182.88   14.60
  -3   2  -6  223.58   14.40
   3   2   6  212.98   13.50
   3   2   6  178.08   12.40
   3  -2   6  192.58   15.90
  -3  -2  -6  178.98   17.70
   3  -2   6  193.28   15.60
  -3   2  -7  516.65   27.30
   3   2   7  501.95   25.40
   3   2   7  486.75   24.50
  -3   2  -7  472.75   26.00
   3  -2   7  543.15   27.80
  -3  -2  -7  492.55   31.50
  -3   2  -8   81.99   14.20
   3   2   8   75.09   12.50
   3   2   8   83.19   10.60
   3  -2   8   88.99   20.80
  -3  -2  -8   80.39   17.50
  -3   3   9  362.36   26.30
  -3   3   9  416.26   22.90
   3   3  -9  364.36   27.00
  -3  -3   9  402.46   27.50
   3  -3  -9  405.86   32.10
   3   3  -8   25.90   10.20
  -3   3   8   29.00    9.00
  -3   3   8   47.40    7.60
   3  -3  -8   40.40   12.80
  -3  -3   8   51.29   10.20
  -3   3   7  497.95   22.80
   3   3  -7  498.25   26.40
   3   3  -7  469.05   26.50
  -3   3   7  465.25   25.90
  -3  -3   7  463.05   26.10
   3  -3  -7  505.95   29.30
  -3  -3   7  505.65   26.30
  -3   3   6  685.03   32.10
   3   3  -6  701.53   32.00
   3   3  -6  682.13   32.10
  -3   3   6  700.23   29.40
  -3  -3   6  681.93   32.10
   3  -3  -6  724.43   31.40
   3  -3  -6  637.34   33.80
  -3  -3   6  689.93   32.50
  -3   3   5  872.91   35.40
   3   3  -5  846.72   37.00
   3   3  -5  894.91   38.20
  -3   3   5  870.71   37.70
  -3  -3   5  890.31   37.60
   3  -3  -5  863.41   39.70
  -3  -3   5  862.51   38.40
   3  -3  -5  882.61   37.40
   3   3  -4  831.92   33.90
   3   3  -4  797.72   34.80
  -3   3   4  800.02   32.20
  -3   3   4  731.43   34.10
  -3  -3   4  815.72   33.80
   3  -3  -4  794.32   35.70
  -3  -3   4  791.62   35.40
   3  -3  -4  802.32   34.80
  -3   3   3 1163.48   44.50
   3   3  -3 1028.80   48.90
   3   3  -3 1179.78   45.50
   3  -3  -3 1136.19   46.60
  -3  -3   3 1127.19   44.70
   3  -3  -3 1141.69   46.60
  -3   3   2  695.93   28.20
  -3   3   2  709.43   31.00
   3   3  -2  681.13   29.50
   3   3  -2  623.44   30.10
   3  -3  -2  702.13   30.60
  -3  -3   2  715.03   27.70
  -3  -3   2  706.33   31.20
   3  -3  -2  662.53   29.20
   3   3  -1  949.71   40.10
  -3   3   1  937.31   38.60
   3   3  -1 1026.10   41.60
   3  -3  -1  995.80   41.30
  -3  -3   1  974.70   41.80
  -3  -3   1  986.50   40.90
  -3  -3   1 1021.20   37.60
   3  -3  -1 1001.90   39.20
  -3   3   0  110.29   11.00
   3   3   0  103.79    9.10
  -3   3   0   99.59    7.00
  -3  -3   0   97.59    9.80
  -3  -3   0   82.39    8.80
   3  -3   0   85.59    9.30
   3  -3   0   91.69    6.40
  -3  -3   0   92.39    4.60
  -3  -3   0  103.99    5.50
  -3   3  -1 1408.86   53.49
   3   3   1 1331.47   54.49
  -3   3  -1 1465.35   57.59
  -3  -3  -1 1363.46   55.49
  -3  -3  -1 1392.26   55.99
   3  -3   1 1361.86   55.79
   3  -3   1 1261.47   51.69
   3  -3   1 1421.56   51.29
  -3   3  -2  104.89    7.90
  -3   3  -2   78.09   10.00
  -3  -3  -2   92.79    9.50
  -3  -3  -2   99.79    5.30
  -3  -3  -2  105.39   12.60
  -3   3  -3  597.54   30.40
   3   3   3  625.84   27.30
  -3   3  -3  614.74   27.50
   3   3   3  671.63   24.60
  -3  -3  -3  602.34   29.80
   3  -3   3  584.94   29.00
  -3  -3  -3  615.84   27.80
   3   3   4   23.30    4.10
   3   3   4   24.70    5.60
  -3   3  -4   19.70    6.90
  -3   3  -4   26.20    6.00
  -3  -3  -4   25.20    6.00
   3  -3   4   24.40    7.40
  -3  -3  -4   25.50    8.70
  -3   3  -5  597.24   29.20
   3   3   5  635.14   28.50
   3   3   5  645.84   26.50
   3  -3   5  587.74   30.50
  -3  -3  -5  629.04   27.10
  -3  -3  -5  611.24   33.10
  -3   3  -6   79.79    9.60
   3   3   6   63.49    8.70
   3   3   6   76.39    7.90
   3  -3   6   65.49   11.50
  -3  -3  -6   80.59   14.00
   3  -3   6   64.69   12.70
   3   3   7  488.25   24.50
   3   3   7  494.05   25.50
  -3   3  -7  479.65   28.40
   3  -3   7  538.65   30.40
   3  -3   7  505.05   30.80
  -3  -3  -7  504.45   33.90
   3   3   8  241.08   19.60
   3   3   8  264.57   19.60
  -3   3  -8  250.97   22.40
   3  -3   8  286.27   23.40
  -3  -3  -8  252.87   28.90
  -3   4   8  132.39   13.90
  -3   4   8  107.89   16.70
   3   4  -8  186.68   21.70
  -3  -4   8  129.39   16.60
   3  -4  -8  119.89   18.00
   3   4  -7  324.87   23.80
  -3   4   7  308.37   21.70
  -3   4   7  310.47   18.20
  -3  -4   7  271.37   21.40
   3  -4  -7  316.17   23.60
  -3  -4   7  312.07   23.50
   3   4  -6  391.46   23.40
  -3   4   6  386.66   23.30
  -3   4   6  378.46   19.70
  -3  -4   6  345.07   22.50
   3  -4  -6  369.06   25.00
  -3  -4   6  418.96   25.60
  -3   4   5  410.76   22.60
   3   4  -5  399.86   23.40
   3   4  -5  403.86   20.40
  -3   4   5  428.46   20.20
  -3  -4   5  371.66   21.90
   3  -4  -5  395.76   24.10
  -3  -4   5  396.86   25.10
   3  -4  -5  387.46   23.30
   3   4  -4  220.48   14.60
  -3   4   4  254.57   16.80
   3   4  -4  236.38   17.90
  -3  -4   4  248.88   15.10
   3  -4  -4  245.78   16.60
  -3  -4   4  223.48   17.40
   3  -4  -4  256.47   17.80
   3   4  -3 1083.09   45.20
  -3   4   3 1132.09   45.40
  -3   4   3 1113.89   47.90
   3   4  -3 1086.39   48.40
  -3  -4   3 1107.89   49.20
   3  -4  -3 1119.49   46.60
   3  -4  -3 1133.19   48.20
  -3  -4   3 1111.89   44.80
  -3   4   2   91.69   11.50
  -3   4   2  107.09    9.40
   3   4  -2   87.59   10.50
   3   4  -2  108.69   10.30
  -3  -4   2  108.19   11.60
   3  -4  -2   92.09   11.00
   3  -4  -2  120.59   10.50
  -3  -4   2  108.39    8.30
   3   4  -1 1662.93   69.39
  -3   4   1 1767.22   72.79
  -3   4   1 1769.62   68.99
   3   4  -1 1933.21   72.39
  -3  -4   1 1764.52   72.69
   3  -4  -1 1804.02   68.79
   3  -4  -1 1700.13   71.99
  -3  -4   1 1910.51   67.49
  -3  -4   1 1725.03   70.29
  -3   4   0   12.40    6.70
  -3   4   0   18.90    5.00
   3   4   0   17.10    5.70
  -3  -4   0   13.80    7.10
  -3  -4   0   21.10    6.50
   3  -4   0    7.20    3.90
  -3  -4   0   17.80    4.40
   3  -4   0   28.20    8.20
  -3  -4   0   17.80    3.20
   3   4   1 3261.77  129.09
   3   4   1 3357.96  123.69
  -3   4  -1 3580.44  131.19
  -3  -4  -1 3328.47  130.09
   3  -4   1 3297.27  130.69
  -3  -4  -1 3429.26  123.69
   3   4   2   19.40    3.20
  -3   4  -2   21.80    8.10
  -3   4  -2   10.80    4.40
   3   4   2   17.40    5.70
  -3  -4  -2   17.70    7.10
   3  -4   2   24.70    7.70
  -3  -4  -2   21.70    6.80
   3   4   3 2706.03  105.69
   3   4   3 2712.03  102.19
  -3   4  -3 2543.15  108.69
  -3   4  -3 2776.22  105.99
  -3  -4  -3 2767.12  108.39
   3  -4   3 2873.91  109.09
  -3  -4  -3 2821.52  106.89
  -3   4  -4   56.59    8.30
   3   4   4   59.59    6.40
   3   4   4   46.00    7.10
  -3   4  -4   63.19   11.80
  -3  -4  -4   52.69    9.40
  -3  -4  -4   63.49   10.90
   3  -4   4   69.19   11.70
   3   4   5 1324.17   53.59
  -3   4  -5 1277.87   54.49
  -3  -4  -5 1299.47   57.89
   3  -4   5 1203.38   57.19
   3  -4   5 1220.08   56.29
  -3  -4  -5 1288.37   52.79
   3   4   6   92.19   11.10
  -3   4  -6   70.59   11.80
   3  -4   6   67.29   14.70
  -3  -4  -6  103.79   15.50
   3  -4   6   85.59   15.60
  -3   4  -7  239.38   22.10
   3   4   7  238.38   18.10
   3  -4   7  229.08   22.40
   3  -4   7  218.48   25.80
  -3  -4  -7  320.77   29.20
   3   5  -7  372.96   30.40
  -3   5   7  363.86   23.30
  -3  -5   7  335.87   30.30
  -3  -5   7  340.07   29.20
   3  -5  -7  329.17   30.40
   3   5  -6 1344.17   70.59
  -3   5   6 1495.05   60.09
  -3   5   6 1458.15   62.49
   3  -5  -6 1433.86   64.59
  -3  -5   6 1411.26   61.99
  -3  -5   6 1443.06   65.59
  -3   5   5  712.73   37.40
  -3   5   5  713.83   33.80
   3   5  -5  710.23   38.50
  -3  -5   5  725.23   39.10
   3  -5  -5  733.23   36.80
   3  -5  -5  713.43   37.00
  -3  -5   5  679.43   34.20
   3   5  -4 1320.47   63.39
  -3   5   4 1476.45   59.69
  -3   5   4 1469.75   63.09
   3  -5  -4 1492.45   62.29
  -3  -5   4 1472.25   64.39
   3  -5  -4 1496.45   63.39
  -3  -5   4 1460.45   59.69
  -3   5   3  462.55   27.80
   3   5  -3  554.84   26.90
   3   5  -3  448.86   27.70
  -3   5   3  470.25   23.10
   3  -5  -3  465.65   25.50
  -3  -5   3  434.06   27.80
   3  -5  -3  433.76   28.10
  -3   5   2 1862.81   70.99
   3   5  -2 1947.71   74.89
   3   5  -2 1868.91   70.69
  -3   5   2 1716.13   74.29
  -3  -5   2 1761.52   75.89
  -3  -5   2 1832.82   69.59
   3  -5  -2 1779.32   75.59
   3  -5  -2 1545.55   73.69
  -3   5   1  227.78   14.70
   3   5  -1  246.48   15.10
  -3   5   1  221.08   17.30
   3   5  -1  258.47   16.90
   3  -5  -1  194.08   19.60
   3  -5  -1  219.18   14.90
  -3  -5   1  212.58   18.20
  -3  -5   1  229.58   13.30
  -3   5   0 1365.86   57.39
  -3   5   0 1427.76   59.89
   3   5   0 1378.26   58.89
  -3  -5   0 1432.56   61.99
   3  -5   0 1413.26   54.79
  -3  -5   0 1474.65   58.39
   3  -5   0 1386.36   61.89
  -3   5  -1   77.59    9.80
   3   5   1   68.29   10.10
  -3   5  -1   86.19   11.50
  -3  -5  -1   75.19   12.20
   3  -5   1   83.89   13.00
  -3  -5  -1  116.29   13.30
   3   5   2  923.21   41.60
  -3   5  -2  935.61   43.20
  -3   5  -2  866.01   39.80
  -3  -5  -2  849.22   42.90
   3  -5   2  910.11   44.90
  -3  -5  -2  955.10   42.20
  -3   5  -3   80.69   12.90
  -3   5  -3   51.49    9.30
   3   5   3   59.29    9.60
  -3  -5  -3   56.39   11.10
   3  -5   3   53.09   10.90
  -3  -5  -3   70.99   12.30
  -3   5  -4  837.82   43.50
  -3   5  -4  863.41   39.90
   3   5   4  844.02   39.10
   3  -5   4  809.82   43.50
  -3  -5  -4  811.02   42.50
  -3  -5  -4  822.02   40.00
  -3   5  -5   78.49   12.10
   3   5   5   91.69   13.20
   3  -5   5   85.89   16.30
  -3  -5  -5   93.19   13.70
   3  -5   5   67.59   14.30
  -3  -5  -5  113.39   16.40
   3   5   6  699.13   34.60
  -3   5  -6  658.93   37.40
  -3  -5  -6  721.53   39.90
   3  -5   6  592.44   39.40
   3  -5   6  591.44   37.70
   3   6  -5  122.59   17.40
  -3   6   5  129.79   19.30
  -3   6   5  140.29   14.70
   3  -6  -5  101.19   16.10
   3  -6  -5  121.49   18.60
  -3  -6   5  122.99   15.10
  -3  -6   5  139.39   21.10
   3   6  -4  384.36   27.80
  -3   6   4  399.26   29.80
  -3   6   4  359.56   22.80
  -3  -6   4  365.56   29.50
   3  -6  -4  335.57   25.90
  -3  -6   4  379.56   29.40
   3  -6  -4  295.27   28.10
  -3   6   3  294.87   19.20
  -3   6   3  275.77   24.50
   3   6  -3  299.77   26.50
   3  -6  -3  260.37   24.70
  -3  -6   3  259.17   27.60
   3  -6  -3  309.07   21.50
  -3   6   2 1030.80   49.60
   3   6  -2 1173.68   50.29
  -3   6   2 1033.40   45.90
   3  -6  -2 1023.20   52.19
  -3  -6   2 1116.89   52.89
   3   6  -1  198.68   17.20
  -3   6   1  203.78   19.50
  -3   6   1  216.08   16.30
  -3  -6   1  243.38   23.90
   3  -6  -1  228.88   23.70
  -3   6   0 1677.83   70.59
  -3   6   0 1667.33   68.69
   3   6   0 1665.33   70.39
   3  -6   0 1683.03   74.59
  -3  -6   0 1698.33   68.29
  -3  -6   0 1679.43   73.99
  -3   6  -1  320.77   22.00
   3   6   1  275.57   19.60
  -3   6  -1  260.17   19.50
   3  -6   1  311.17   26.80
  -3  -6  -1  234.88   23.10
  -3  -6  -1  288.07   20.10
  -3   6  -2 1796.42   74.09
   3   6   2 1758.02   72.59
  -3   6  -2 1646.94   71.29
  -3  -6  -2 1726.63   75.69
  -3  -6  -2 1715.33   71.99
   3  -6   2 1691.13   76.09
   3   6   3  151.28   17.50
  -3   6  -3  160.98   18.30
  -3   6  -3  157.58   19.10
  -3  -6  -3  194.98   22.20
  -3  -6  -3  158.38   17.10
   3  -6   3  120.49   22.40
  -3   6  -4 1266.67   59.69
   3   6   4 1321.87   57.49
  -3   6  -4 1177.78   56.39
   3  -6   4 1243.68   61.69
  -3  -6  -4 1193.08   58.19
  -3  -6  -4 1223.38   58.09
   4   0  -9   -8.60    7.90
   4   0  -9   12.20   11.10
   4   0  -8  741.03   38.70
  -4   0   8  752.72   35.10
   4   0  -8  737.73   33.70
   4   0  -7    9.40    8.60
  -4   0   7   -1.30    5.40
  -4   0   7   -5.00    4.00
   4   0  -7    3.60    5.00
   4   0  -6 1339.27   53.69
  -4   0   6 1420.06   52.39
  -4   0   6 1321.27   55.19
   4   0  -6 1358.46   57.19
   4   0  -5   -2.50    4.80
  -4   0   5    4.80    3.30
  -4   0   5    3.00    3.70
   4   0  -5   -3.40    3.00
  -4   0   4 6304.97  234.78
  -4   0   4 6356.16  235.98
   4   0  -4 6596.44  234.28
   4   0  -4 6297.57  236.98
  -4   0   3   -2.10    2.20
  -4   0   3   -1.80    1.90
   4   0  -3   -0.20    3.20
  -4   0   3   -2.00    2.40
   4   0  -3   -1.60    1.60
  -4   0   2 8470.55  299.47
  -4   0   2 8525.45  299.47
   4   0  -2 8264.87  300.07
   4   0  -2 8578.64  297.67
  -4   0   2 7008.00  297.47
   4   0  -1   -3.90    1.80
  -4   0   1    5.30    2.70
  -4   0   1   -4.80    1.90
   4   0  -1   -3.40    2.00
  -4   0   0 7048.09  269.17
   4   0   0 7342.87  268.07
   4   0   0 7569.84  267.87
   4   0   0 7390.06  269.37
   4   0   1   -0.20    1.40
  -4   0  -1   -0.80    2.90
  -4   0  -1    2.80    2.90
  -4   0  -1    0.50    2.10
  -4   0  -2 4802.42  194.98
  -4   0  -2 5508.95  194.08
  -4   0  -2 5273.57  194.08
  -4   0  -2 5461.15  194.28
  -4   0  -3    5.40    2.80
  -4   0  -3    1.50    4.30
   4   0   3   -1.10    2.70
  -4   0  -3    1.60    3.20
  -4   0  -3    4.10    3.00
   4   0   4  698.73   30.10
  -4   0  -4  717.03   31.10
  -4   0  -4  699.23   32.00
  -4   0  -4  745.73   29.10
   4   0   5    4.20    4.50
  -4   0  -5   -6.10    5.80
  -4   0  -5    4.90    4.30
   4   0   5   10.50    4.20
  -4   0  -6  379.46   21.50
   4   0   6  387.46   18.40
   4   0   6  359.86   20.00
  -4   0  -6  419.26   23.50
   4   0   7  -14.70    6.20
  -4   0  -7    6.40    9.40
  -4   0  -7  -11.90    6.70
  -4   0  -8  367.56   38.30
   4   0   8  428.26   25.50
  -4   0  -8  502.85   30.10
  -4   1   9  599.84   31.90
   4   1  -9  589.54   36.00
   4   1  -9  612.84   31.00
   4  -1  -9  607.34   30.30
  -4  -1   9  586.24   32.40
   4   1  -8  870.51   42.50
   4   1  -8  879.91   39.00
  -4   1   8  863.61   40.20
  -4  -1   8  863.81   40.20
   4  -1  -8  849.52   38.20
   4  -1  -8  893.91   44.00
  -4   1   7 1507.85   61.49
   4   1  -7 1465.15   62.79
   4   1  -7 1485.55   59.89
   4  -1  -7 1471.95   59.29
  -4  -1   7 1536.25   57.69
  -4  -1   7 1448.06   60.99
   4  -1  -7 1489.55   63.39
   4   1  -6  947.61   41.80
  -4   1   6  913.81   40.20
   4   1  -6  910.21   39.10
  -4  -1   6  995.10   38.40
   4  -1  -6  970.90   38.60
   4  -1  -6  959.10   42.70
  -4  -1   6  892.21   40.10
   4  -1  -6  958.30   37.40
   4   1  -5 1350.26   53.29
  -4   1   5 1407.96   52.29
  -4   1   5 1310.07   54.49
  -4  -1   5 1376.76   53.29
   4  -1  -5 1423.66   52.69
   4  -1  -5 1310.07   55.89
  -4  -1   5 1347.27   54.39
   4   1  -4  762.22   32.10
  -4   1   4  706.53   31.20
   4   1  -4  730.53   29.80
  -4   1   4  757.02   29.70
  -4  -1   4  727.53   30.90
   4  -1  -4  716.33   32.10
   4  -1  -4  752.12   29.00
  -4  -1   4  748.93   30.60
   4   1  -3  419.76   18.10
  -4   1   3  425.36   19.60
  -4   1   3  449.36   16.60
  -4   1   3  445.26   16.80
  -4   1   3  433.66   18.70
   4  -1  -3  417.86   19.80
  -4  -1   3  433.76   19.50
  -4  -1   3  429.56   18.90
   4   1  -2  989.10   36.80
  -4   1   2  934.81   38.00
  -4   1   2  950.80   37.20
   4   1  -2  976.60   38.30
  -4  -1   2  940.41   36.60
  -4  -1   2  931.81   37.80
   4  -1  -2  873.41   37.70
   4   1  -1 1680.83   61.89
   4   1  -1 1465.95   61.09
  -4   1   1 1624.64   61.19
   4   1  -1 1546.95   59.49
  -4   1   1 1661.83   62.49
  -4  -1   1 1608.34   61.59
  -4  -1   1 1627.04   59.89
   4  -1  -1 1584.74   60.99
  -4   1   0 2190.68   77.99
  -4   1   0 1989.80   82.59
   4   1   0 2206.58   79.09
  -4   1   0 2180.38   79.89
   4   1   0 2188.68   77.89
   4  -1   0 2167.38   77.79
  -4  -1   0 1782.42   78.89
   4  -1   0 2146.29   79.29
  -4  -1   0 2158.98   80.19
   4   1   1  942.61   35.30
  -4   1  -1  757.22   37.70
  -4   1  -1  923.01   35.10
   4   1   1  953.60   34.80
   4  -1   1  889.91   35.40
  -4  -1  -1  912.41   36.30
  -4  -1  -1  942.41   37.90
  -4  -1  -1  919.41   34.40
   4   1   2 2438.26   87.29
   4   1   2 2334.87   86.19
  -4   1  -2 2349.26   87.59
  -4   1  -2 2399.06   87.69
  -4   1  -2 2243.68   87.29
  -4   1  -2 2167.18   89.09
  -4  -1  -2 2306.57   87.69
  -4  -1  -2 2363.06   89.99
   4   1   3 1998.30   78.99
  -4   1  -3 2108.19   79.59
  -4   1  -3 2201.48   81.09
  -4   1  -3 2035.10   79.49
   4   1   3 2091.49   78.09
  -4  -1  -3 2077.79   78.79
  -4  -1  -3 2053.09   82.09
   4  -1   3 2108.49   79.59
   4   1   4 1714.63   64.89
  -4   1  -4 1600.24   65.29
   4   1   4 1680.43   63.99
  -4   1  -4 1686.43   65.49
  -4  -1  -4 1598.24   67.99
  -4  -1  -4 1725.03   63.89
   4  -1   4 1649.83   64.79
   4  -1   4 1709.73   66.29
   4   1   5 2333.47   88.39
  -4   1  -5 2365.26   89.49
  -4   1  -5 2246.98   89.39
   4   1   5 2373.46   87.79
  -4  -1  -5 2423.16   86.59
   4  -1   5 2196.38   89.39
   4  -1   5 2276.37   87.89
  -4  -1  -5 2168.88   91.69
   4   1   6 1251.67   48.30
  -4   1  -6 1102.19   49.10
  -4   1  -6 1234.98   50.19
   4   1   6 1198.38   48.50
   4  -1   6 1104.99   49.20
  -4  -1  -6 1136.39   52.09
   4  -1   6 1175.28   47.60
  -4   1  -7  839.62   39.40
   4   1   7  826.62   36.70
  -4   1  -7  805.72   38.40
   4   1   7  816.22   36.40
   4  -1   7  831.12   38.20
  -4  -1  -7  819.82   42.30
  -4   1  -8  465.15   29.40
   4   1   8  509.65   26.00
   4   1   8  496.05   26.90
  -4   1  -8  505.35   30.30
   4  -1   8  497.15   28.50
  -4  -1  -8  521.95   33.00
   4   2  -9  112.69   16.80
  -4   2   9  129.09   15.00
   4   2  -9  131.89   14.80
  -4   2   9  165.08   13.90
   4  -2  -9  129.19   17.80
  -4  -2   9  126.09   15.90
   4   2  -8   20.60    8.30
   4   2  -8   41.90   10.80
  -4   2   8   15.10    8.20
  -4   2   8   23.80    5.90
  -4  -2   8   34.50    9.30
   4  -2  -8   27.70   11.10
   4   2  -7  442.36   24.10
  -4   2   7  468.75   24.90
  -4   2   7  465.55   21.10
   4   2  -7  459.45   27.00
  -4  -2   7  475.35   22.80
   4  -2  -7  463.15   27.70
  -4  -2   7  488.45   24.90
  -4   2   6   35.60    7.30
   4   2  -6   45.10    7.60
  -4   2   6   39.90    4.70
   4   2  -6   42.70    7.80
   4  -2  -6   42.80    6.30
  -4  -2   6   31.20    6.90
  -4  -2   6   21.90    5.70
   4  -2  -6   42.90    8.70
  -4   2   5 2251.57   90.09
   4   2  -5 2239.68   88.99
  -4   2   5 2378.66   86.89
   4   2  -5 2326.37   90.89
  -4  -2   5 2387.96   89.49
   4  -2  -5 2304.77   91.79
   4  -2  -5 2451.85   88.79
  -4  -2   5 2250.97   89.29
  -4   2   4  181.78   11.80
   4   2  -4  191.38   12.70
   4   2  -4  186.68   11.20
  -4   2   4  199.98    9.00
  -4  -2   4  176.28   12.10
   4  -2  -4  169.38   12.70
  -4  -2   4  184.48   10.90
   4  -2  -4  168.98   10.90
  -4   2   3 4843.22  190.18
  -4   2   3 5118.19  190.18
   4   2  -3 5183.28  193.48
  -4   2   3 5001.80  193.38
   4   2  -3 5070.19  192.68
   4  -2  -3 5378.26  193.78
   4  -2  -3 5445.36  192.98
  -4  -2   3 5423.76  193.78
  -4  -2   3 5344.17  191.78
  -4   2   2  188.88    8.50
  -4   2   2  189.58   11.90
   4   2  -2  204.38   11.60
   4   2  -2  201.78   11.60
   4  -2  -2  184.28   10.90
   4  -2  -2  190.88   11.20
  -4  -2   2  180.48   12.00
  -4  -2   2  198.78    9.50
  -4   2   1 5235.18  196.88
  -4   2   1 5341.07  191.88
   4   2  -1 4897.31  194.98
   4   2  -1 5418.96  195.28
   4   2  -1 5384.86  191.78
  -4  -2   1 5388.66  191.88
   4  -2  -1 5178.18  193.68
  -4  -2   1 5274.97  195.28
   4  -2  -1 5138.59  194.78
   4   2   0   97.09    7.60
  -4   2   0   88.29    5.50
  -4   2   0   94.69   11.30
  -4  -2   0   96.69    9.10
   4  -2   0   95.19    7.40
   4  -2   0   86.49    6.30
  -4  -2   0  106.79    8.10
   4   2   1 2668.13   99.79
  -4   2  -1 2365.06  103.09
  -4   2  -1 2645.84   98.89
  -4  -2  -1 2769.72  100.99
  -4  -2  -1 2682.93  102.49
   4  -2   1 2749.02  101.29
   4  -2   1 2695.73   98.59
  -4   2  -2   69.19    6.50
  -4   2  -2   57.39    8.40
   4   2   2   61.49    5.00
   4   2   2   68.09    6.30
  -4  -2  -2   69.89    7.40
   4  -2   2   75.19    7.60
  -4  -2  -2   47.90    7.60
   4  -2   2   70.09    5.30
  -4   2  -3 1844.02   73.89
   4   2   3 1802.32   67.99
  -4   2  -3 1898.51   69.19
  -4   2  -3 1834.52   70.69
   4   2   3 1913.41   70.69
   4  -2   3 1764.72   71.49
  -4  -2  -3 1854.61   70.49
  -4  -2  -3 1693.03   73.39
  -4   2  -4   84.79    8.30
  -4   2  -4  111.39   11.60
  -4   2  -4  107.09    8.50
   4   2   4   92.79    8.70
   4   2   4  111.59    7.00
  -4  -2  -4   92.29    8.60
   4  -2   4  100.09    9.70
  -4  -2  -4   79.99   11.10
  -4   2  -5  723.63   33.20
   4   2   5  734.63   30.40
   4   2   5  737.13   32.10
  -4   2  -5  781.42   31.70
  -4  -2  -5  755.22   30.60
  -4  -2  -5  719.23   36.70
   4  -2   5  632.34   34.70
   4  -2   5  782.72   35.10
   4   2   6   62.79    7.30
  -4   2  -6   61.69    8.70
  -4   2  -6   53.59    8.20
   4   2   6   61.99    8.10
  -4  -2  -6   67.39   12.70
   4  -2   6   52.19    9.60
  -4   2  -7  443.56   25.00
   4   2   7  455.15   23.40
   4   2   7  429.16   22.60
  -4   2  -7  477.65   29.10
  -4  -2  -7  409.56   30.40
   4  -2   7  444.66   26.90
   4   2   8   15.90    8.90
  -4   2  -8   22.90    9.40
   4   2   8   20.40    8.10
  -4  -2  -8   25.10   15.60
   4  -2   8   32.40   11.50
  -4   3   8  684.03   33.80
   4   3  -8  651.63   34.80
   4   3  -8  643.54   34.30
  -4   3   8  680.13   29.90
   4  -3  -8  677.13   37.50
  -4  -3   8  614.64   33.70
  -4   3   7  386.46   22.40
   4   3  -7  337.47   22.80
  -4   3   7  379.56   18.40
   4   3  -7  350.86   22.10
  -4  -3   7  311.17   21.00
   4  -3  -7  325.07   24.40
  -4  -3   7  358.06   21.60
   4   3  -6  389.66   22.60
  -4   3   6  409.46   22.40
  -4   3   6  401.46   19.10
   4   3  -6  416.16   22.50
  -4  -3   6  404.56   22.00
  -4  -3   6  399.96   22.30
   4  -3  -6  387.96   24.40
   4  -3  -6  393.86   21.60
  -4   3   5  523.85   27.20
  -4   3   5  600.04   24.40
   4   3  -5  592.74   27.70
   4   3  -5  581.94   27.70
  -4  -3   5  567.04   26.50
   4  -3  -5  566.84   28.60
   4  -3  -5  603.54   27.60
  -4  -3   5  519.65   27.50
  -4   3   4   86.39    7.10
   4   3  -4   75.79    8.80
  -4   3   4   90.89   10.00
   4   3  -4   91.29    9.90
   4  -3  -4   63.49    8.30
  -4  -3   4   84.09    8.60
   4  -3  -4   77.29    9.10
  -4  -3   4   68.19    8.90
  -4   3   3  926.11   35.80
   4   3  -3  911.01   38.20
   4   3  -3  860.61   38.40
  -4   3   3  867.31   38.50
  -4  -3   3  907.41   39.10
  -4  -3   3  939.21   36.20
   4  -3  -3  819.62   40.20
   4  -3  -3  919.31   38.40
   4   3  -2   49.80    7.10
  -4   3   2   39.10    6.80
  -4   3   2   40.80    4.60
  -4  -3   2   51.39    5.30
  -4  -3   2   39.50    6.80
   4  -3  -2   36.80    7.30
   4  -3  -2   47.30    6.50
   4   3  -1  488.75   22.90
   4   3  -1  475.15   23.50
  -4   3   1  498.05   20.30
  -4   3   1  471.25   26.10
  -4  -3   1  477.05   19.30
   4  -3  -1  464.85   21.20
  -4  -3   1  490.05   18.90
  -4  -3   1  463.35   23.60
  -4   3   0  641.74   26.30
  -4   3   0  673.23   31.70
   4  -3   0  599.84   29.00
  -4  -3   0  630.64   29.70
   4  -3   0  658.23   26.20
   4   3   1  708.93   30.80
  -4   3  -1  715.53   34.30
  -4   3  -1  711.43   29.20
   4  -3   1  710.43   27.80
   4  -3   1  683.63   31.60
  -4   3  -2 1033.90   49.70
   4   3   2 1077.29   45.80
  -4   3  -2 1200.28   45.80
  -4  -3  -2 1112.49   48.70
  -4  -3  -2 1112.59   48.70
   4  -3   2 1107.09   47.70
   4  -3   2 1240.18   43.10
   4  -3   2 1168.38   44.00
  -4   3  -3  424.16   25.70
   4   3   3  476.15   18.30
  -4   3  -3  463.95   22.10
   4   3   3  479.75   22.20
  -4  -3  -3  430.66   24.80
   4  -3   3  486.85   18.60
   4  -3   3  421.26   23.70
  -4  -3  -3  484.65   22.60
   4   3   4  948.91   40.80
   4   3   4 1018.60   37.80
  -4   3  -4  936.01   45.40
  -4   3  -4  971.40   41.60
   4  -3   4  935.71   42.90
  -4  -3  -4  924.11   44.70
  -4  -3  -4 1001.70   40.80
   4  -3   4 1004.10   37.20
   4   3   5  351.06   19.60
   4   3   5  386.46   17.40
  -4   3  -5  314.67   19.50
  -4   3  -5  318.17   24.20
   4  -3   5  384.66   22.70
   4  -3   5  366.56   24.60
  -4  -3  -5  367.96   19.00
  -4  -3  -5  384.16   24.20
  -4   3  -6  837.52   39.00
   4   3   6  715.43   37.20
   4   3   6  880.71   38.00
   4  -3   6  933.11   43.20
   4  -3   6  833.02   40.40
  -4  -3  -6  893.51   44.70
  -4   3  -7  278.97   22.00
   4   3   7  296.57   20.20
   4  -3   7  311.07   33.50
  -4  -3  -7  299.27   25.50
   4  -3   7  280.77   33.00
   4   4  -8  158.38   18.80
  -4   4   8  136.39   17.00
   4  -4  -8  127.49   19.50
  -4  -4   8  142.79   17.00
   4   4  -7  108.19   13.80
  -4   4   7  117.99   14.50
  -4   4   7  130.39   12.80
  -4  -4   7  118.79   13.40
   4  -4  -7  108.89   15.40
  -4  -4   7  113.39   15.10
   4   4  -6  348.37   23.80
   4   4  -6  307.77   21.10
  -4   4   6  333.07   18.40
  -4   4   6  331.87   22.00
   4  -4  -6  371.56   23.10
   4  -4  -6  320.07   24.00
  -4  -4   6  344.17   23.90
  -4  -4   6  345.77   21.50
  -4   4   5    9.20    7.80
   4   4  -5   18.00    7.80
   4   4  -5   12.90    7.80
  -4  -4   5   19.20    6.80
   4  -4  -5   14.60    8.10
   4  -4  -5   33.10    9.10
  -4  -4   5   21.50   10.50
   4   4  -4  603.74   30.00
   4   4  -4  595.94   28.10
  -4   4   4  591.64   26.50
  -4   4   4  585.84   29.60
   4  -4  -4  598.24   29.10
  -4  -4   4  593.84   30.40
  -4  -4   4  494.55   27.90
   4  -4  -4  572.04   29.60
  -4   4   3  238.78   13.70
   4   4  -3  227.18   16.40
  -4   4   3  259.97   17.50
   4   4  -3  238.48   16.00
   4  -4  -3  237.78   16.00
   4  -4  -3  249.18   17.70
  -4  -4   3  239.68   13.50
  -4  -4   3  241.38   18.60
  -4   4   2 1150.38   50.69
   4   4  -2 1127.89   48.90
  -4   4   2 1098.19   45.00
   4  -4  -2 1178.78   46.90
  -4  -4   2 1134.59   50.19
  -4  -4   2 1164.58   44.50
   4  -4  -2 1122.09   49.40
  -4   4   1  211.78   17.50
   4   4  -1  217.08   14.40
   4   4  -1  244.78   15.80
  -4   4   1  227.08   12.80
  -4  -4   1  222.98   10.50
  -4  -4   1  237.38   16.60
   4  -4  -1  203.98   15.80
   4  -4  -1  234.18   13.40
   4   4   0 1071.29   45.20
  -4   4   0 1049.30   42.30
  -4   4   0 1061.29   46.70
   4  -4   0 1068.19   41.00
  -4  -4   0 1052.19   46.20
   4  -4   0  986.50   46.00
  -4  -4   0  975.50   44.60
  -4   4  -1   -5.30    6.40
   4   4   1    6.90    5.00
  -4  -4  -1   -3.30    5.40
   4  -4   1   14.30    7.70
   4  -4   1    1.80    3.10
  -4  -4  -1   10.60    6.60
  -4   4  -2  498.55   27.60
  -4   4  -2  464.55   22.80
   4   4   2  446.36   23.10
   4  -4   2  470.45   26.00
  -4  -4  -2  461.45   25.60
  -4  -4  -2  463.15   25.10
  -4   4  -3   29.40   10.00
  -4   4  -3   23.40    7.00
   4   4   3   28.70    7.00
   4  -4   3   44.00   10.10
  -4  -4  -3   30.50    8.40
  -4  -4  -3   39.90   10.00
   4   4   4  171.28   14.10
  -4   4  -4  143.29   17.70
  -4   4  -4  190.38   15.00
  -4  -4  -4  208.18   19.30
  -4  -4  -4  163.18   15.20
   4  -4   4  199.08   18.40
  -4   4  -5  188.78   16.80
  -4   4  -5  163.88   19.30
   4   4   5  219.98   16.10
  -4  -4  -5  173.98   19.60
   4  -4   5  178.68   20.90
  -4  -4  -5  180.18   16.00
   4   4   6   34.20   10.20
  -4   4  -6   47.60   10.60
   4  -4   6   55.09   13.90
  -4  -4  -6   55.19   18.00
   4  -4   6   30.20   15.00
   4   4   7  219.38   19.20
   4  -4   7  147.09   19.10
  -4   5   6   87.69   14.30
   4   5  -6   78.99   15.10
   4  -5  -6   77.99   22.00
   4  -5  -6   76.79   14.10
  -4  -5   6   98.19   17.90
  -4  -5   6   85.19   12.10
   4   5  -5   34.60   11.90
  -4   5   5    9.80    8.40
  -4   5   5   19.60   11.40
  -4  -5   5   15.60    8.60
   4  -5  -5   14.20    9.60
   4  -5  -5   15.10   11.10
  -4  -5   5   14.80   11.50
  -4   5   4  194.78   14.20
  -4   5   4  156.38   18.00
   4   5  -4  159.08   18.20
   4  -5  -4  192.28   20.40
   4  -5  -4  183.18   18.00
  -4  -5   4  202.08   21.80
  -4  -5   4  206.78   15.80
   4   5  -3   10.10    9.90
  -4   5   3   12.30    6.20
   4   5  -3   21.90    8.10
  -4   5   3   27.00   10.60
   4  -5  -3    7.10    9.70
  -4  -5   3   12.20    6.70
  -4  -5   3   18.00   10.60
   4  -5  -3   16.50    7.80
  -4   5   2  369.06   19.40
  -4   5   2  374.16   25.70
   4   5  -2  389.46   22.90
   4  -5  -2  379.86   23.90
  -4  -5   2  349.57   24.50
   4  -5  -2  355.56   22.40
   4   5  -1   37.40    7.20
  -4   5   1   29.10    9.60
  -4   5   1   35.90    7.10
   4   5  -1   22.10    7.50
   4  -5  -1   31.90    7.10
  -4  -5   1   34.00   12.10
   4  -5  -1   30.80    9.10
  -4   5   0  191.88   14.10
  -4   5   0  213.98   18.60
   4   5   0  203.18   15.60
   4  -5   0  230.28   18.30
  -4  -5   0  215.08   20.00
  -4  -5   0  194.78   16.80
   4   5   1   -0.10    7.10
  -4   5  -1    3.80    6.10
  -4   5  -1   -7.90    8.40
   4  -5   1    1.80   10.00
  -4  -5  -1    7.00    9.60
  -4  -5  -1    3.10    7.80
  -4   5  -2   62.79   12.40
   4   5   2   77.09   11.30
  -4   5  -2   83.49   10.10
  -4  -5  -2   80.79   11.80
  -4  -5  -2   94.09   14.30
   4  -5   2   80.89   13.10
  -4   5  -3   94.19   15.80
  -4   5  -3   73.89   10.80
   4   5   3   72.49   11.50
  -4  -5  -3   92.79   13.80
   4  -5   3   80.39   13.90
  -4  -5  -3   71.29   12.20
  -4   5  -4   77.59   12.50
  -4   5  -4  100.29   17.30
   4   5   4   84.99   11.80
  -4  -5  -4  111.69   15.70
   4  -5   4  111.89   18.80
  -4  -5  -4   78.49   13.50
  -4   5  -5  192.38   20.90
   4   5   5  175.88   16.70
  -4   5  -5  193.58   23.60
  -4  -5  -5  167.78   19.90
  -4  -5  -5  220.38   24.00
   4  -5   5  196.88   21.80
   4   6  -4    0.90   12.70
  -4   6   4   21.60   15.30
   4  -6  -4   14.80   11.90
  -4  -6   4   15.50   14.80
   4  -6  -4  -14.10   14.10
   4   6  -3   -4.90   11.30
  -4   6   3   11.50   13.10
  -4   6   3   11.20    7.80
  -4  -6   3   16.30   14.60
   4  -6  -3   10.70   13.60
   4  -6  -3   -0.20   10.00
   4   6  -2   42.80   11.50
  -4   6   2   49.99   13.10
  -4   6   2   52.59    9.20
   4  -6  -2   40.40   15.30
  -4  -6   2   50.79   16.00
  -4   6   1    6.00    7.70
   4   6  -1   11.50    8.10
  -4   6   1   -1.70    9.90
   4   6  -1    7.00    9.30
   4  -6  -1    3.40   13.10
  -4  -6   1   -2.40   13.60
   4   6   0   34.00    9.60
  -4   6   0   -8.50    7.70
  -4   6   0    2.60    9.30
  -4  -6   0   24.90    9.50
  -4  -6   0   18.10   11.80
   4  -6   0  -14.70   10.10
  -4   6  -1   19.10   11.10
   4   6   1   17.70   12.80
  -4   6  -1    9.50    8.30
  -4  -6  -1   45.20   13.90
  -4  -6  -1    4.40    9.60
   4  -6   1    4.80   14.00
  -4   6  -2   26.90   12.30
   4   6   2   36.50   11.60
  -4   6  -2   27.80   10.30
   4  -6   2   37.20   14.30
  -4  -6  -2   36.90   11.00
  -4  -6  -2   33.20   13.80
   4   6   3   -5.20   11.60
  -4   6  -3   -1.40    9.20
  -4   6  -3   22.50   12.60
  -4  -6  -3   25.40   13.60
   4  -6   3   15.40   15.70
  -4  -6  -3    5.90   11.20
   5   0  -9   -0.20    8.80
   5   0  -9    1.60   12.70
  -5   0   9    4.10    8.40
   5   0  -8   37.40   11.20
  -5   0   8   46.60    9.50
   5   0  -8   44.60    8.00
   5   0  -7    8.40    5.40
  -5   0   7   -4.10    4.90
   5   0  -7    6.50    8.80
  -5   0   7    5.30    5.30
   5   0  -6  108.49   12.00
   5   0  -6  131.59   10.10
  -5   0   6  139.79    9.70
  -5   0   6  121.89   11.50
   5   0  -5   -0.60    5.20
   5   0  -5   -1.10    3.30
  -5   0   5   -0.80    4.30
  -5   0   5    0.10    3.80
  -5   0   4   11.40    3.80
   5   0  -4    7.90    2.70
   5   0  -4   10.30    4.60
  -5   0   4    7.00    3.40
   5   0  -3   -2.90    3.00
   5   0  -3   -1.00    1.80
  -5   0   3    1.60    2.70
  -5   0   3   -4.60    2.40
  -5   0   3    3.90    3.10
  -5   0   2  803.32   29.40
   5   0  -2  761.02   32.60
   5   0  -2  797.82   29.50
  -5   0   2  776.82   32.20
   5   0  -1    1.80    2.50
   5   0  -1    0.20    1.90
   5   0  -1   -2.60    2.40
  -5   0   1   -5.00    2.40
  -5   0   1   -0.50    3.40
  -5   0   0 1301.17   49.00
   5   0   0 1341.77   46.80
   5   0   0 1257.97   49.00
  -5   0   0 1052.29   50.29
   5   0   1   -2.50    1.70
  -5   0  -1    4.90    4.30
  -5   0  -1   -4.10    3.30
  -5   0  -1   -4.40    3.10
  -5   0  -2  842.72   36.10
  -5   0  -2  839.42   34.90
   5   0   2  867.21   33.90
  -5   0  -2  898.71   35.30
  -5   0  -2  842.52   34.80
  -5   0  -3    4.00    3.80
  -5   0  -3    1.40    4.00
  -5   0  -3    0.70    4.60
  -5   0  -3    2.60    3.60
  -5   0  -4   98.79   11.10
  -5   0  -4  125.19    8.60
  -5   0  -4  107.69   10.30
   5   0   4   98.79    9.20
  -5   0  -5    2.30    6.60
  -5   0  -5    2.10    5.70
  -5   0  -5   -2.80    4.10
   5   0   5   -3.10    4.80
   5   0   6   64.69    8.50
  -5   0  -6   72.69   11.10
  -5   0  -6   54.19    9.10
   5   0   6   63.59    8.10
  -5   0  -7    0.70    7.00
   5   0   7    7.80    7.40
  -5   0  -7    0.80    9.40
  -5   0  -8    3.40    9.00
   5   0   8   -0.10    9.20
  -5   0  -8    3.70   12.40
   5   1  -9   18.00   13.60
   5   1  -9   10.20    9.40
  -5   1   9   24.80    9.80
   5  -1  -9   17.10   14.70
   5  -1  -9   14.60    8.90
  -5  -1   9   13.50    9.50
  -5   1   8  177.58   15.50
   5   1  -8  191.38   20.80
   5   1  -8  192.08   16.00
  -5  -1   8  206.18   16.80
   5  -1  -8  193.48   20.70
   5  -1  -8  202.18   15.00
   5   1  -7  138.69   16.20
  -5   1   7  152.68   14.20
   5   1  -7  162.38   12.50
   5  -1  -7  119.79   14.70
   5  -1  -7  131.99   14.30
   5  -1  -7  189.38   12.80
  -5  -1   7  183.68   13.90
  -5  -1   7  166.08   11.90
  -5   1   6  290.37   17.60
  -5   1   6  279.57   14.80
   5   1  -6  279.97   19.00
   5  -1  -6  288.97   19.50
   5  -1  -6  311.97   15.40
  -5  -1   6  298.57   15.80
  -5  -1   6  293.27   17.10
  -5   1   5  447.86   22.20
   5   1  -5  437.46   23.10
  -5   1   5  461.25   20.60
   5   1  -5  476.15   20.70
  -5  -1   5  461.85   21.60
  -5  -1   5  438.86   21.80
   5  -1  -5  483.65   19.80
  -5   1   4  431.26   21.00
  -5   1   4  426.66   17.50
  -5   1   4  454.35   19.80
   5   1  -4  438.06   18.90
  -5   1   4  440.66   17.10
   5  -1  -4  421.06   21.50
  -5  -1   4  441.16   20.30
  -5  -1   4  446.16   20.60
  -5   1   3   15.10    4.10
   5   1  -3   24.00    3.30
   5   1  -3   15.10    4.60
  -5   1   3   15.60    4.40
   5  -1  -3   28.50    5.00
  -5  -1   3   19.30    4.30
  -5  -1   3   20.30    3.90
   5   1  -2  139.79    7.80
   5   1  -2  144.09    9.80
  -5   1   2  125.29    9.30
  -5   1   2  136.49    8.80
  -5  -1   2  128.69    8.00
   5  -1  -2  124.99    8.90
  -5  -1   2  128.39    8.90
  -5   1   1  450.65   21.40
   5   1  -1  440.86   19.80
  -5   1   1  413.46   19.00
   5   1  -1  404.16   19.10
   5  -1  -1  396.46   18.70
  -5  -1   1  421.36   18.20
  -5  -1   1  399.86   19.10
  -5   1   0    4.90    2.70
  -5   1   0    5.40    2.00
   5   1   0    5.80    2.50
   5   1   0    4.10    2.30
  -5   1   0    7.90    6.20
   5   1   0    1.50    2.90
   5  -1   0    5.30    2.60
  -5  -1   0    3.00    3.50
  -5  -1   0    7.00    3.30
   5  -1   0    5.80    1.80
  -5   1  -1  504.45   26.40
  -5   1  -1  562.64   22.50
   5   1   1  541.15   22.60
  -5   1  -1  548.35   23.90
  -5  -1  -1  555.74   22.10
   5  -1   1  522.85   23.10
  -5  -1  -1  581.94   25.70
  -5  -1  -1  573.64   24.20
  -5   1  -2   21.50    3.90
  -5   1  -2   22.50    5.70
  -5   1  -2   24.60    4.60
  -5   1  -2   28.30    4.70
   5   1   2   20.70    3.40
  -5  -1  -2   20.30    4.30
  -5  -1  -2   23.30    5.80
  -5   1  -3   46.30    6.00
  -5   1  -3   59.69    6.90
  -5   1  -3   59.19    8.00
  -5   1  -3   49.10    6.20
   5   1   3   63.39    5.90
  -5  -1  -3   55.19    6.30
  -5  -1  -3   52.99    8.40
  -5   1  -4   56.19    7.50
   5   1   4   62.29    6.60
  -5   1  -4   52.19    7.80
  -5   1  -4   43.80    5.90
   5   1   4   52.89    5.70
  -5  -1  -4   55.19    6.70
   5  -1   4   52.59    7.10
  -5  -1  -4   54.39    9.00
  -5   1  -5   16.30    6.40
  -5   1  -5   16.40    5.70
   5   1   5    2.70    5.50
   5   1   5    6.60    4.30
  -5  -1  -5    4.60    7.00
   5  -1   5   20.50    5.90
  -5  -1  -5    8.40    5.10
   5  -1   5   19.90    5.70
  -5   1  -6  227.68   17.50
   5   1   6  263.57   15.60
  -5   1  -6  261.37   18.50
   5   1   6  261.37   15.90
  -5  -1  -6  306.27   22.40
   5  -1   6  240.58   17.50
   5  -1   6  255.37   16.70
  -5   1  -7   56.69   11.10
  -5   1  -7   50.29   11.30
   5   1   7   56.39    9.20
   5   1   7   66.99    9.60
   5  -1   7   59.99   10.20
  -5  -1  -7  112.89   16.10
   5   1   8  333.57   20.90
  -5   1  -8  348.17   24.90
  -5   1  -8  375.66   26.60
   5   1   8  328.47   22.80
  -5  -1  -8  271.77   29.60
   5  -1   8  362.56   34.30
  -5   2   9   21.30   10.80
   5   2  -9   32.60   10.20
   5   2  -9   53.89   15.20
   5  -2  -9   42.70   13.90
  -5  -2   9   33.20   11.60
   5   2  -8  267.37   18.50
  -5   2   8  262.67   20.80
  -5   2   8  256.07   19.70
   5   2  -8  285.47   22.90
   5  -2  -8  241.68   22.30
  -5  -2   8  259.37   19.80
  -5   2   7   -2.00    4.10
   5   2  -7   11.70    8.50
  -5   2   7    0.20    7.10
   5   2  -7   -6.40    6.50
   5  -2  -7   -1.40    8.10
  -5  -2   7   -4.60    6.70
  -5  -2   7   -4.10    6.10
   5   2  -6  959.00   41.50
   5   2  -6  989.20   44.40
  -5   2   6 1029.50   38.70
  -5   2   6  992.80   43.10
   5  -2  -6  976.80   45.10
  -5  -2   6  969.60   41.70
   5  -2  -6  998.70   41.10
  -5  -2   6  948.11   42.10
  -5   2   5   52.59    5.10
  -5   2   5   37.00    7.30
   5   2  -5   33.60    5.70
   5   2  -5   46.80    7.60
  -5  -2   5   33.40    6.40
   5  -2  -5   47.00    7.10
   5  -2  -5   36.40    7.50
  -5  -2   5   39.90    7.00
  -5   2   4 1049.79   38.80
   5   2  -4 1071.59   41.50
  -5   2   4 1047.50   38.40
  -5   2   4  993.50   42.50
   5   2  -4  862.21   45.50
   5  -2  -4  974.40   43.00
  -5  -2   4 1054.59   41.30
  -5  -2   4 1012.90   42.50
   5  -2  -4 1017.60   41.70
  -5   2   3   35.30    3.00
  -5   2   3   46.40    6.50
   5   2  -3   44.20    7.00
   5   2  -3   36.50    5.70
  -5   2   3   38.10    3.30
  -5  -2   3   43.10    5.00
   5  -2  -3   35.20    5.90
   5   2  -2  519.85   24.40
  -5   2   2  537.45   23.60
   5   2  -2  568.64   25.20
   5  -2  -2  539.25   24.10
   5  -2  -2  530.15   24.30
  -5  -2   2  556.74   22.20
  -5  -2   2  512.65   25.10
   5   2  -1  295.27   12.80
  -5   2   1  308.17   15.40
  -5   2   1  301.37   18.70
   5   2  -1  301.17   16.30
  -5   2   1  311.17   12.50
   5   2  -1  342.77   17.10
   5  -2  -1  301.97   15.90
   5  -2  -1  307.57   13.10
  -5  -2   1  328.17   13.60
   5  -2  -1  315.47   15.40
  -5   2   0  419.46   17.20
   5   2   0  409.86   19.50
  -5   2   0  449.56   23.80
  -5  -2   0  416.66   20.20
   5  -2   0  389.26   18.40
  -5  -2   0  427.16   21.90
  -5   2  -1  378.46   25.80
  -5   2  -1  431.46   18.30
   5   2   1  399.76   18.80
  -5  -2  -1  440.66   20.60
   5  -2   1  434.76   18.50
  -5   2  -2  283.57   13.90
   5   2   2  266.17   11.10
   5  -2   2  254.17   15.50
   5  -2   2  271.47   13.00
  -5  -2  -2  273.77   14.70
  -5  -2  -2  255.97   17.30
   5   2   3  417.56   17.40
   5   2   3  417.66   19.90
  -5   2  -3  434.66   24.40
  -5   2  -3  416.66   20.40
  -5  -2  -3  461.15   20.80
   5  -2   3  429.46   18.70
   5  -2   3  415.16   21.40
  -5  -2  -3  407.26   23.80
  -5   2  -4  465.85   22.70
  -5   2  -4  537.55   27.10
   5   2   4  461.45   22.10
  -5   2  -4  494.65   21.80
   5   2   4  452.15   19.90
  -5  -2  -4  435.56   25.90
  -5  -2  -4  472.35   22.30
   5  -2   4  462.55   24.00
  -5   2  -5  182.88   13.10
   5   2   5  153.88   12.50
   5   2   5  163.88   10.40
  -5   2  -5  140.09   12.00
  -5  -2  -5  152.78   11.60
   5  -2   5  149.39   13.60
  -5  -2  -5  165.88   16.00
   5  -2   5  126.49   15.30
  -5   2  -6  261.57   17.60
   5   2   6  260.37   17.10
  -5   2  -6  278.17   17.30
   5   2   6  236.78   14.70
  -5  -2  -6  265.07   21.60
   5  -2   6  253.77   20.90
   5  -2   6  215.48   18.10
  -5   2  -7   -2.50    7.20
   5   2   7    6.30    7.00
  -5  -2  -7   -2.20   10.20
   5  -2   7   13.00   10.70
   5   3  -8   13.80   11.80
  -5   3   8    8.80    8.80
   5   3  -8  -24.10    8.40
   5  -3  -8    9.70   10.40
  -5  -3   8  -12.30    8.70
   5   3  -7  629.24   33.40
   5   3  -7  597.84   32.10
  -5   3   7  637.64   32.50
   5  -3  -7  620.34   34.40
  -5  -3   7  643.54   31.60
  -5  -3   7  631.44   31.60
  -5   3   6    2.30    6.70
  -5   3   6   10.20    4.70
   5   3  -6   10.50    6.70
   5   3  -6   -1.60    8.00
  -5  -3   6    6.30    8.10
   5  -3  -6    5.40    7.40
  -5  -3   6   10.70    5.90
   5  -3  -6    6.50    8.50
  -5   3   5  841.52   32.70
  -5   3   5  748.73   36.70
   5   3  -5  858.01   36.40
   5   3  -5  844.02   37.60
   5  -3  -5  803.82   38.10
   5  -3  -5  787.52   35.90
  -5  -3   5  780.52   35.00
  -5  -3   5  782.22   36.70
   5   3  -4   -2.90    6.60
  -5   3   4   -2.90    3.80
  -5   3   4    1.10    5.70
   5   3  -4    0.90    5.50
  -5  -3   4   -3.70    6.50
   5  -3  -4    6.10    5.30
   5  -3  -4    4.30    6.10
  -5  -3   4   -3.90    4.40
   5   3  -3 1265.97   55.09
  -5   3   3 1356.16   50.79
  -5   3   3 1328.07   55.89
   5  -3  -3 1339.17   54.69
  -5  -3   3 1394.16   52.19
   5  -3  -3 1361.96   55.09
  -5  -3   3 1312.17   55.49
  -5   3   2  499.75   19.80
   5   3  -2  496.95   24.60
   5   3  -2  429.96   27.70
  -5   3   2  494.95   26.20
   5  -3  -2  509.05   22.80
  -5  -3   2  493.55   20.20
   5  -3  -2  447.66   23.80
  -5  -3   2  488.35   24.80
  -5   3   1 1199.08   44.90
  -5   3   1 1229.88   52.59
   5   3  -1 1210.78   49.00
  -5  -3   1 1135.39   44.00
   5  -3  -1 1179.78   46.90
   5  -3  -1 1144.09   49.00
  -5  -3   1 1130.19   49.20
  -5   3   0 1565.34   63.09
  -5   3   0 1495.15   56.39
   5   3   0 1491.95   59.89
   5  -3   0 1438.66   60.39
  -5  -3   0 1402.76   59.79
  -5  -3   0 1441.66   60.89
   5  -3   0 1493.15   56.99
   5   3   1 1343.77   55.49
  -5   3  -1 1446.96   59.89
  -5   3  -1 1425.16   53.69
   5  -3   1 1455.25   53.19
  -5  -3  -1 1329.17   56.39
   5  -3   1 1412.26   57.29
  -5  -3  -1 1233.18   57.09
  -5   3  -2  795.32   41.00
   5   3   2  816.52   36.20
  -5   3  -2  901.41   36.10
   5  -3   2  883.91   38.70
  -5  -3  -2  861.21   37.50
   5  -3   2  908.01   33.90
  -5  -3  -2  819.22   39.60
   5   3   3 1016.40   41.40
  -5   3  -3  970.30   41.00
  -5   3  -3  833.92   45.70
   5  -3   3 1014.90   43.60
   5  -3   3 1022.70   38.00
  -5  -3  -3  997.10   41.80
  -5  -3  -3  960.20   45.20
   5   3   4  484.15   24.10
  -5   3  -4  479.25   24.30
  -5   3  -4  485.05   30.20
  -5  -3  -4  456.55   23.40
  -5  -3  -4  515.85   29.40
   5  -3   4  476.25   26.30
   5  -3   4  507.35   20.70
  -5   3  -5  684.53   37.30
   5   3   5  651.33   30.80
  -5   3  -5  646.44   31.80
  -5  -3  -5  633.34   35.30
  -5  -3  -5  646.94   29.90
   5  -3   5  661.53   33.20
   5   3   6   -1.30    6.00
  -5   3  -6   12.40    8.20
   5  -3   6   15.70   10.90
  -5  -3  -6   10.20   12.20
   5  -3   6   -9.40   10.40
   5   3   7  452.15   26.30
  -5   3  -7  466.35   28.50
   5  -3   7  470.05   32.30
  -5  -3  -7  464.65   32.70
   5   4  -7  988.80   44.80
  -5   4   7  839.02   46.70
  -5  -4   7  899.91   44.50
   5  -4  -7  798.62   48.80
  -5  -4   7  910.41   42.40
   5   4  -6   46.50   10.60
  -5   4   6   65.09   11.80
   5   4  -6   57.69   11.30
  -5  -4   6   27.80    8.60
   5  -4  -6   48.70   12.10
  -5  -4   6   40.90   11.50
   5  -4  -6   83.09   12.50
  -5   4   5 1620.74   69.19
   5   4  -5 1682.63   69.89
   5   4  -5 1637.74   68.29
  -5  -4   5 1657.33   66.39
  -5  -4   5 1665.83   70.19
   5  -4  -5 1660.83   69.79
   5  -4  -5 1660.43   68.69
   5   4  -4   73.49   11.00
  -5   4   4   75.49    7.50
  -5   4   4   82.59   11.20
   5   4  -4   73.19   10.50
   5  -4  -4   86.69   12.80
  -5  -4   4   72.49   12.70
   5  -4  -4   80.09   10.60
   5   4  -3 1580.84   71.59
   5   4  -3 1560.24   70.69
  -5   4   3 1771.52   73.39
  -5   4   3 1760.02   66.79
  -5  -4   3 1757.92   72.79
  -5  -4   3 1875.31   67.29
   5  -4  -3 1867.81   72.39
   5  -4  -3 1803.62   70.49
   5   4  -2  398.96   22.80
  -5   4   2  411.46   18.50
   5   4  -2  322.37   22.30
  -5   4   2  424.46   25.90
  -5  -4   2  436.36   17.70
  -5  -4   2  389.56   23.70
   5  -4  -2  407.26   23.40
   5   4  -1  575.24   29.80
   5   4  -1  662.23   31.20
  -5   4   1  625.34   33.70
  -5   4   1  633.74   26.80
   5  -4  -1  625.84   31.10
  -5  -4   1  627.94   31.90
   5  -4  -1  658.23   28.20
   5   4   0  636.94   30.90
  -5   4   0  616.24   32.20
  -5   4   0  620.34   27.10
   5  -4   0  634.94   26.80
  -5  -4   0  622.54   31.00
  -5  -4   0  618.04   31.90
   5  -4   0  649.54   31.90
  -5   4  -1  580.44   28.80
  -5   4  -1  650.63   34.10
   5   4   1  630.24   30.30
   5  -4   1  607.44   31.50
   5  -4   1  632.64   25.60
  -5  -4  -1  607.14   30.70
  -5  -4  -1  638.54   31.50
  -5   4  -2  313.17   17.90
   5   4   2  331.07   19.20
  -5   4  -2  326.07   24.20
   5  -4   2  309.57   22.10
  -5  -4  -2  316.87   22.00
  -5  -4  -2  306.77   20.70
   5   4   3  502.95   26.00
  -5   4  -3  530.45   26.00
  -5   4  -3  521.25   31.30
   5  -4   3  505.45   29.20
  -5  -4  -3  476.65   29.10
  -5  -4  -3  499.15   26.70
   5   4   4  202.68   15.00
  -5   4  -4  179.28   20.80
  -5   4  -4  215.78   16.30
  -5  -4  -4  207.88   19.60
  -5  -4  -4  206.88   16.30
   5  -4   4  197.18   20.50
  -5   4  -5  501.95   28.30
  -5   4  -5  450.15   35.40
   5   4   5  551.64   28.00
   5  -4   5  558.94   32.30
  -5  -4  -5  526.25   33.80
  -5  -4  -5  502.75   27.30
   5   4   6   57.49   10.10
   5  -4   6   65.79   15.90
   5  -4   6   53.09   14.80
  -5  -4  -6   56.49   16.60
  -5   5   6  481.25   30.80
   5   5  -6  416.86   32.30
  -5  -5   6  462.35   26.80
   5  -5  -6  440.36   31.40
  -5  -5   6  422.46   32.80
   5  -5  -6  417.96   37.90
   5   5  -5    2.90   12.60
  -5   5   5  -10.00   10.80
   5  -5  -5   15.10    9.40
  -5  -5   5    7.40   13.80
  -5  -5   5   -0.50    8.40
   5  -5  -5   -7.30   12.00
   5   5  -4  496.45   28.90
   5   5  -4  496.55   31.20
  -5   5   4  533.85   31.80
  -5  -5   4  470.25   31.90
   5  -5  -4  487.05   28.50
   5  -5  -4  505.45   30.10
   5   5  -3  149.59   16.50
  -5   5   3  152.08   18.80
   5   5  -3  168.38   15.90
  -5   5   3  117.39   12.60
   5  -5  -3  137.19   16.70
  -5  -5   3  139.99   17.50
   5  -5  -3  126.19   15.20
   5   5  -2 1223.18   54.39
  -5   5   2 1025.20   49.99
   5   5  -2 1328.17   54.19
  -5   5   2 1166.78   54.79
  -5  -5   2 1218.98   55.79
   5  -5  -2 1213.78   54.79
   5  -5  -2 1212.38   50.09
  -5   5   1  698.93   37.40
   5   5  -1  774.92   35.80
   5   5  -1  732.03   34.40
  -5   5   1  669.53   31.70
   5  -5  -1  740.13   32.10
  -5  -5   1  714.03   38.30
   5  -5  -1  720.83   38.10
  -5   5   0 1751.82   73.39
   5   5   0 1757.92   71.29
  -5   5   0 1646.64   67.79
  -5  -5   0 1807.92   71.49
   5  -5   0 1706.33   74.09
  -5  -5   0 1633.24   72.79
  -5   5  -1  597.14   29.20
  -5   5  -1  634.24   34.50
   5   5   1  625.14   32.70
  -5  -5  -1  593.94   34.20
   5  -5   1  637.44   35.80
  -5  -5  -1  619.44   32.10
  -5   5  -2 1065.99   48.00
   5   5   2 1104.49   50.29
  -5   5  -2 1216.28   53.89
  -5  -5  -2 1116.79   51.59
  -5  -5  -2 1136.59   51.59
   5  -5   2 1063.19   53.19
  -5   5  -3  325.27   25.60
  -5   5  -3  298.97   21.00
   5   5   3  300.37   22.00
  -5  -5  -3  310.67   23.40
  -5  -5  -3  300.27   24.60
   5  -5   3  325.47   26.70
   5   5   4 1026.50   47.20
  -5   5  -4 1009.90   46.60
  -5   5  -4  987.40   52.49
  -5  -5  -4  962.80   46.90
   5  -5   4  991.40   51.29
  -5  -5  -4 1055.09   54.39
  -5   5  -5   67.09   23.30
  -5   5  -5   92.79   17.70
   5   5   5   46.90   10.70
   5  -5   5   71.19   20.20
  -5  -5  -5   85.39   17.90
  -5   6   4 1397.16   66.39
   5   6  -4 1464.55   66.29
  -5  -6   4 1379.56   66.99
   5  -6  -4 1363.06   77.99
   5  -6  -4 1320.17   61.29
  -5   6   3  161.78   31.50
   5   6  -3  109.49   16.10
  -5  -6   3  113.79   19.10
   5  -6  -3  113.89   26.20
  -5   6   2  695.73   40.10
   5   6  -2  757.42   39.10
  -5  -6   2  717.73   41.30
  -5   6   1   35.30   12.60
  -5   6   1   42.70    9.10
   5   6  -1   41.20   10.40
   5   6  -1   44.50    9.90
   5  -6  -1   51.09   17.60
  -5  -6   1   29.50   13.50
  -5   6   0  389.86   22.90
   5   6   0  409.16   25.30
   5   6   0  376.86   23.50
  -5   6   0  393.86   28.30
  -5  -6   0  360.86   28.20
   5  -6   0  355.56   31.10
   5   6   1  115.99   14.30
  -5   6  -1  107.79   12.90
  -5   6  -1  122.59   17.50
   5  -6   1  146.49   20.20
  -5  -6  -1  125.09   29.50
  -5  -6  -1  112.19   14.40
   5   6   2  448.76   29.90
  -5   6  -2  479.15   31.70
  -5   6  -2  456.25   27.00
   5  -6   2  432.56   33.50
  -5  -6  -2  469.95   29.10
  -6   0   9  -17.20    7.90
   6   0  -9    5.50   12.90
  -6   0   8 1419.06   61.49
   6   0  -8 1539.15   64.79
   6   0  -8 1372.76   58.09
  -6   0   7   -2.80    6.00
   6   0  -7   -3.00    8.00
  -6   0   7   10.90    6.10
  -6   0   6 1596.94   63.29
   6   0  -6 1638.84   61.89
   6   0  -6 1604.34   67.09
  -6   0   6 1558.84   64.79
   6   0  -5   12.60    5.90
  -6   0   5   -1.80    4.70
   6   0  -5   -2.30    3.20
  -6   0   5   -1.10    4.50
  -6   0   4 1899.21   74.09
  -6   0   4 1889.81   73.39
   6   0  -4 1957.90   70.79
   6   0  -4 1838.02   75.29
  -6   0   3    0.40    1.90
   6   0  -3    0.50    3.40
   6   0  -3    1.10    1.80
  -6   0   3   -4.60    3.20
  -6   0   3    5.20    4.40
   6   0  -2 1717.23   60.49
  -6   0   2 1702.73   64.29
  -6   0   2 1683.13   63.99
   6   0  -2 1440.86   65.99
   6   0  -1    5.50    3.00
  -6   0   1   -2.60    4.20
  -6   0   1    1.30    3.00
   6   0  -1    2.40    3.00
   6   0  -1   -2.00    2.30
   6   0   0 2584.04   88.49
  -6   0   0 2018.50   91.99
   6   0   0 2418.56   91.09
  -6   0   0 2483.05   90.99
   6   0   1   -2.60    3.10
   6   0   1    4.00    2.10
  -6   0  -1    3.50    3.40
  -6   0  -1    0.80    4.70
   6   0   2 5260.47  188.58
  -6   0  -2 5226.88  190.18
  -6   0  -2 4842.42  191.28
  -6   0  -3    0.30    4.30
  -6   0  -3   -5.40    5.00
   6   0   3    5.60    3.70
  -6   0  -4 3293.57  120.29
  -6   0  -4 3204.58  121.39
   6   0   4 3286.57  119.09
  -6   0  -4 2765.42  121.19
  -6   0  -5   -3.10    7.20
  -6   0  -5   -1.40    5.00
   6   0   5   -8.80    4.90
  -6   0  -5    5.20    5.10
   6   0   6 2140.89   82.79
  -6   0  -6 2101.89   85.89
   6   0   6 2057.49   81.49
  -6   0  -6 2092.19   84.69
  -6   0  -7   -5.50    7.60
  -6   0  -7   -5.20   10.80
   6   0   7   12.80    8.00
  -6   1   9  166.28   18.00
   6   1  -9  130.79   14.40
   6   1  -9   89.79   25.90
   6  -1  -9  149.99   19.60
  -6  -1   9  153.58   18.30
   6   1  -8  319.27   26.20
  -6   1   8  340.97   22.80
   6   1  -8  325.97   20.10
  -6  -1   8  319.17   21.10
   6  -1  -8  356.06   26.90
   6   1  -7  535.65   30.30
   6   1  -7  534.25   25.40
  -6   1   7  543.25   24.40
  -6   1   7  534.75   28.10
  -6  -1   7  535.35   27.60
   6  -1  -7  549.85   24.80
   6  -1  -7  512.65   29.70
  -6  -1   7  529.85   25.30
  -6   1   6  758.82   30.40
  -6   1   6  804.52   33.10
  -6   1   6  752.02   35.10
   6   1  -6  796.42   33.00
   6   1  -6  797.02   37.30
   6  -1  -6  752.32   36.70
  -6  -1   6  767.42   34.80
  -6  -1   6  757.72   33.40
   6   1  -5 1613.84   62.19
  -6   1   5 1567.24   64.89
  -6   1   5 1609.14   63.69
   6   1  -5 1651.63   66.69
  -6   1   5 1656.43   60.09
  -6  -1   5 1626.64   63.99
  -6  -1   5 1618.04   64.39
   6  -1  -5 1577.84   66.19
   6   1  -4 1795.12   69.89
  -6   1   4 1708.93   68.19
  -6   1   4 1584.64   68.79
   6   1  -4 1745.43   65.39
  -6  -1   4 1683.83   67.59
  -6  -1   4 1786.12   67.59
   6  -1  -4 1750.52   69.29
  -6   1   3 2799.02  104.69
   6   1  -3 2779.52  105.19
  -6   1   3 2511.55  105.19
   6   1  -3 2844.02  101.59
  -6  -1   3 2526.95  105.69
  -6  -1   3 2853.81  103.19
   6  -1  -3 2754.82  104.79
  -6   1   2 2384.56   89.49
   6   1  -2 2462.25   86.79
  -6   1   2 2060.99   89.69
   6   1  -2 2100.09   91.39
   6  -1  -2 2265.57   88.79
  -6  -1   2 2522.15   87.59
  -6   1   1 4252.27  151.28
   6   1  -1 3594.94  147.19
   6  -1  -1 4015.80  147.79
  -6  -1   1 3944.91  147.39
  -6   1   0 1073.09   48.10
   6   1   0 1154.58   43.30
   6  -1   0 1089.19   41.60
   6  -1   0 1086.09   41.20
  -6  -1   0 1145.29   44.10
   6  -1   0 1050.09   43.80
   6   1   1 1460.45   55.49
  -6   1  -1 1337.47   59.69
  -6   1  -1 1384.06   57.39
  -6   1  -1 1473.35   55.39
  -6  -1  -1 1507.35   59.09
  -6  -1  -1 1508.05   55.19
   6  -1   1 1431.16   56.59
   6   1   2  561.34   23.80
  -6   1  -2  541.05   24.90
  -6   1  -2  535.65   24.20
  -6   1  -2  575.94   27.80
  -6  -1  -2  589.94   27.60
  -6  -1  -2  552.74   23.20
   6  -1   2  549.54   24.30
  -6   1  -3  469.65   22.80
   6   1   3  511.65   21.50
  -6   1  -3  523.85   25.10
  -6   1  -3  471.55   23.20
   6   1   3  468.45   22.00
  -6  -1  -3  495.45   25.90
   6   1   4  364.96   17.70
  -6   1  -4  357.46   19.30
  -6   1  -4  394.06   20.30
  -6   1  -4  374.96   21.20
   6   1   4  384.06   18.30
  -6  -1  -4  369.66   22.50
  -6  -1  -4  283.27   21.00
   6  -1   4  378.36   19.50
   6   1   5  314.87   17.00
   6   1   5  304.57   16.50
  -6   1  -5  292.87   18.70
  -6   1  -5  313.27   18.90
   6  -1   5  302.67   18.20
   6  -1   5  317.67   19.40
  -6  -1  -5  310.07   22.40
   6   1   6  333.27   19.30
   6   1   6  297.57   18.70
  -6   1  -6  302.77   19.50
  -6   1  -6  343.67   21.50
   6  -1   6  278.17   20.40
   6  -1   6  294.47   19.50
  -6  -1  -6  348.57   24.90
   6   1   7  129.19   15.20
  -6   1  -7  108.69   15.60
  -6   1  -7  119.09   15.10
   6   1   7  148.29   15.30
  -6  -1  -7  148.19   18.90
   6  -1   7  156.28   17.10
   6   2  -8   -0.80    8.00
   6   2  -8   -5.40   12.60
  -6   2   8    7.50    8.60
  -6  -2   8    9.80    8.50
   6  -2  -8   -7.00   11.20
   6   2  -7 1027.70   48.70
   6   2  -7 1001.60   43.80
  -6   2   7 1028.70   46.20
   6  -2  -7 1030.40   48.80
  -6  -2   7 1014.50   43.80
  -6  -2   7  989.80   44.80
   6   2  -6    8.10    5.20
   6   2  -6   22.80    7.80
  -6   2   6    9.40    5.80
   6  -2  -6   12.10    7.10
   6  -2  -6    4.30    8.50
  -6  -2   6    0.90    5.50
  -6  -2   6   -2.10    6.30
   6   2  -5  957.40   42.30
  -6   2   5  890.11   40.40
   6   2  -5  929.71   38.10
   6  -2  -5  904.21   38.90
  -6  -2   5  923.51   38.90
  -6  -2   5  883.21   39.50
   6  -2  -5  905.91   41.40
   6   2  -4   16.40    6.50
   6   2  -4   13.10    4.90
  -6   2   4   22.20    6.80
  -6   2   4   17.60    5.20
   6  -2  -4   11.40    4.90
   6  -2  -4   18.10    5.50
  -6  -2   4   17.50    5.30
  -6  -2   4   14.60    5.80
  -6   2   3  316.17   17.00
   6   2  -3  399.86   18.30
  -6   2   3  328.17   18.90
   6   2  -3  371.46   19.90
  -6  -2   3  351.76   16.70
  -6  -2   3  345.97   18.40
   6  -2  -3  338.17   18.50
  -6   2   2   67.19    7.30
  -6   2   2   51.79    8.40
   6   2  -2   46.50    7.30
   6   2  -2   50.39    7.10
  -6  -2   2   45.60    6.50
  -6  -2   2   53.59    6.10
   6   2  -1 1130.99   42.60
  -6   2   1 1142.19   50.09
   6   2  -1 1152.38   47.50
   6   2  -1 1133.79   46.40
  -6   2   1 1064.79   45.20
  -6  -2   1 1156.58   43.60
  -6  -2   1 1075.09   46.50
   6  -2  -1 1102.19   45.30
   6   2   0   21.40    2.10
   6   2   0   19.90    4.70
   6   2   0   16.20    5.20
  -6   2   0   14.60    7.60
  -6   2   0   14.10    3.10
  -6   2   0   18.30    4.50
   6  -2   0   18.00    4.00
  -6  -2   0   18.10    5.60
  -6   2  -1 2613.44   92.89
  -6   2  -1 2146.69   98.29
   6  -2   1 2478.35   95.99
  -6  -2  -1 2430.16   95.59
   6  -2   1 2626.14   93.89
  -6  -2  -1 2525.05   97.79
   6   2   2  100.59    5.70
  -6   2  -2   86.89   12.60
  -6   2  -2   96.89    8.50
   6   2   2  100.79    5.20
   6   2   2  109.69    8.50
   6  -2   2  102.19    9.80
  -6  -2  -2   93.59    9.70
   6  -2   2   98.29    8.30
  -6  -2  -2   91.69   10.90
   6   2   3 2146.69   84.29
  -6   2  -3 2120.39   88.99
  -6   2  -3 2173.78   84.39
   6   2   3 2206.28   81.19
  -6  -2  -3 2102.39   88.29
  -6  -2  -3 2191.98   85.09
   6  -2   3 2226.38   86.49
   6  -2   3 2324.47   83.59
   6   2   4   15.60    4.90
  -6   2  -4   17.40    5.90
  -6   2  -4   11.10    7.60
   6   2   4   21.30    4.30
   6  -2   4   16.70    4.90
   6  -2   4   21.80    7.70
  -6  -2  -4   12.60    6.50
  -6  -2  -4   29.80   10.10
   6   2   5 1392.06   56.69
  -6   2  -5 1429.06   55.49
   6   2   5 1387.46   53.69
  -6   2  -5 1384.36   60.09
  -6   2  -5 1328.67   56.99
   6  -2   5 1344.17   57.39
  -6  -2  -5 1348.17   55.29
  -6  -2  -5 1353.26   61.59
   6  -2   5 1384.56   59.99
   6   2   6   20.50    7.70
  -6   2  -6   14.00    8.40
  -6  -2  -6   27.50   11.30
   6  -2   6   25.20   10.40
   6  -2   6   -0.70    9.20
   6   2   7  549.74   28.90
  -6   2  -7  571.04   31.10
   6  -2   7  527.05   32.30
  -6  -2  -7  528.35   37.30
  -6   3   8   51.29   13.40
   6   3  -8   55.69   14.90
   6   3  -8   50.39   11.50
  -6  -3   8   51.59   12.30
   6  -3  -8   53.19   15.80
  -6  -3   8   56.49   12.60
   6   3  -7  325.77   25.40
   6   3  -7  345.07   22.30
  -6   3   7  346.77   23.80
  -6  -3   7  361.96   22.00
  -6  -3   7  312.47   22.20
   6  -3  -7  325.37   26.40
   6   3  -6  323.77   20.20
  -6   3   6  332.07   22.80
   6   3  -6  297.87   22.70
   6  -3  -6  334.07   22.60
   6  -3  -6  353.86   20.90
  -6  -3   6  303.37   21.10
  -6  -3   6  343.37   19.70
   6   3  -5  347.37   23.30
  -6   3   5  356.06   21.10
   6   3  -5  378.66   20.50
   6  -3  -5  343.97   21.40
  -6  -3   5  343.17   19.30
  -6  -3   5  368.76   22.10
   6  -3  -5  355.56   21.00
  -6   3   4 1327.37   59.39
   6   3  -4 1421.46   60.59
   6   3  -4 1466.25   59.29
   6  -3  -4 1456.85   59.79
  -6  -3   4 1458.05   56.69
   6  -3  -4 1429.66   58.99
  -6  -3   4 1445.46   59.79
  -6   3   3  545.95   30.00
   6   3  -3  578.04   29.40
   6   3  -3  566.14   28.50
  -6  -3   3  617.04   25.50
   6  -3  -3  611.34   28.20
   6  -3  -3  576.54   28.60
  -6  -3   3  614.04   29.50
  -6   3   2 2308.87   80.39
  -6   3   2 2163.98   88.89
   6   3  -2 1943.31   85.69
   6   3  -2 2100.89   86.79
  -6  -3   2 2291.17   81.59
   6  -3  -2 2196.18   84.69
   6  -3  -2 2239.28   86.59
  -6  -3   2 2152.88   86.59
   6   3  -1  525.85   26.60
  -6   3   1  537.65   21.20
   6   3  -1  519.35   26.10
  -6   3   1  534.65   29.60
  -6  -3   1  506.75   26.10
   6  -3  -1  515.85   26.40
   6  -3  -1  513.55   23.90
  -6   3   0  563.34   23.00
  -6   3   0  593.04   31.00
   6   3   0  522.95   26.50
  -6  -3   0  515.15   26.60
   6  -3   0  548.35   24.20
  -6  -3   0  543.55   28.50
   6  -3   0  523.35   27.00
  -6   3  -1  775.02   31.40
   6   3   1  711.63   33.20
  -6   3  -1  774.72   38.40
   6  -3   1  768.82   35.30
   6  -3   1  779.72   31.40
  -6  -3  -1  751.12   34.80
  -6  -3  -1  715.33   35.50
   6   3   2   93.19    9.80
  -6   3  -2   73.39   13.40
  -6   3  -2   99.09    9.60
   6  -3   2   92.99    8.30
  -6  -3  -2  118.59   11.80
  -6  -3  -2   80.79   11.10
   6  -3   2  101.09   11.80
   6   3   3  588.14   27.20
  -6   3  -3  471.25   32.30
  -6   3  -3  570.84   26.80
   6  -3   3  593.14   29.70
  -6  -3  -3  558.44   30.70
  -6  -3  -3  588.34   28.00
   6  -3   3  589.84   24.40
  -6   3  -4   10.40    9.80
   6   3   4   17.70    6.40
  -6   3  -4   30.70    7.70
   6  -3   4   19.70    9.20
  -6  -3  -4   10.30    8.40
  -6  -3  -4   28.00    7.70
   6   3   5  351.06   20.40
  -6   3  -5  357.66   21.00
  -6   3  -5  325.27   28.00
  -6  -3  -5  354.66   20.60
  -6  -3  -5  351.06   27.60
   6  -3   5  294.67   23.60
   6   3   6   25.40    8.10
  -6   3  -6   15.10    9.30
  -6  -3  -6   46.40   15.90
   6  -3   6   25.70   12.80
   6  -3   6   52.69   12.90
   6   4  -7    8.60   11.70
  -6   4   7    4.60   11.20
   6  -4  -7   -6.10   12.40
  -6  -4   7  -11.80   11.90
  -6  -4   7   -5.30   10.30
   6   4  -6  323.57   24.90
  -6   4   6  312.17   24.00
   6   4  -6  309.97   24.20
   6  -4  -6  298.27   24.40
  -6  -4   6  318.27   21.50
  -6  -4   6  365.36   24.30
   6  -4  -6  331.47   25.50
   6   4  -5   16.80   10.00
  -6   4   5   29.70   10.60
   6   4  -5   18.70   10.10
  -6  -4   5   13.20   10.90
  -6  -4   5   10.20    7.40
   6  -4  -5   32.30   10.30
   6  -4  -5   20.80   10.10
   6   4  -4  268.07   20.50
   6   4  -4  270.57   20.20
  -6   4   4  288.87   22.60
  -6  -4   4  321.37   17.50
   6  -4  -4  281.37   20.30
   6  -4  -4  299.77   20.00
  -6  -4   4  275.07   20.50
   6   4  -3  266.77   20.90
   6   4  -3  272.97   21.10
  -6   4   3  297.27   22.00
  -6  -4   3  299.67   20.70
   6  -4  -3  294.97   20.10
   6  -4  -3  318.97   19.10
   6   4  -2  230.98   19.60
  -6   4   2  269.27   21.40
   6   4  -2  288.37   20.00
  -6  -4   2  280.07   19.70
   6  -4  -2  266.77   18.40
   6  -4  -2  285.37   17.40
  -6   4   1   56.39    6.10
   6   4  -1   53.99    9.40
   6   4  -1   53.49    9.50
  -6   4   1   54.09   10.40
   6  -4  -1   54.89    7.90
   6  -4  -1   42.80   10.00
  -6  -4   1   47.90    9.80
  -6   4   0  506.45   29.50
   6   4   0  489.95   26.60
  -6   4   0  480.95   22.20
  -6  -4   0  434.76   25.90
   6  -4   0  497.35   27.80
  -6  -4   0  520.95   27.80
   6  -4   0  484.85   22.70
   6   4   1   46.90    7.70
  -6   4  -1   48.50    7.60
  -6   4  -1   35.10   11.10
   6  -4   1   33.40    5.80
  -6  -4  -1   43.90   10.10
  -6  -4  -1   25.10    9.30
   6  -4   1   43.60    9.70
  -6   4  -2  572.34   33.10
  -6   4  -2  556.14   27.20
   6   4   2  535.15   28.60
  -6  -4  -2  616.34   30.30
  -6  -4  -2  605.64   32.20
   6  -4   2  553.24   30.90
   6   4   3   51.09    9.30
  -6   4  -3   56.29   13.80
  -6   4  -3   51.29    8.80
  -6  -4  -3   52.99   12.30
  -6  -4  -3   49.10    9.50
   6  -4   3   57.39   11.90
  -6   4  -4  604.54   40.60
   6   4   4  727.13   33.80
  -6   4  -4  688.73   33.30
  -6  -4  -4  712.23   39.10
  -6  -4  -4  693.63   34.00
   6  -4   4  684.03   37.50
   6   4   5   22.90    8.50
  -6   4  -5   18.20   15.90
  -6   4  -5    9.30    9.50
  -6  -4  -5   12.10   10.40
  -6  -4  -5   33.70   14.30
   6  -4   5   44.70   13.90
   6   5  -5   49.70   23.50
  -6   5   5   51.99   15.20
   6  -5  -5   53.29   14.80
   6  -5  -5   52.99   12.00
  -6  -5   5   59.79   21.70
  -6   5   4   12.90   13.10
   6   5  -4    6.00   11.60
   6   5  -4    6.50   11.20
   6  -5  -4   18.10   11.70
   6  -5  -4   -0.90    9.20
  -6  -5   4   -2.50   11.00
  -6   5   3  301.67   26.70
   6   5  -3  290.37   23.50
   6   5  -3  233.88   21.50
   6  -5  -3  303.47   23.40
  -6  -5   3  229.68   21.80
   6  -5  -3  223.68   19.10
   6   5  -2   13.30    9.20
   6   5  -2   10.50    9.70
  -6   5   2   -1.90   10.20
  -6  -5   2   16.60   11.00
   6  -5  -2   -5.90    8.00
   6  -5  -2   20.70   11.50
   6   5  -1  232.38   19.60
   6   5  -1  236.98   19.40
  -6   5   1  242.98   22.80
  -6  -5   1  236.98   20.80
   6  -5  -1  261.07   22.60
  -6   5   0   65.19   13.30
   6   5   0   66.89   10.90
  -6   5   0   70.39    8.60
   6   5   0   60.99   10.60
  -6  -5   0   56.59   13.60
   6  -5   0   71.19   13.00
   6   5   1   54.39   11.20
  -6   5  -1   31.10    8.30
  -6   5  -1   23.90   11.70
   6  -5   1   52.19   13.90
  -6  -5  -1   47.70   12.90
  -6  -5  -1   24.40    9.90
   6   5   2  118.69   14.80
  -6   5  -2  104.99   16.60
  -6   5  -2   98.29   11.40
  -6  -5  -2  100.79   14.20
  -6  -5  -2   69.19   13.30
   6  -5   2   76.29   15.50
  -6   5  -3    4.80   12.50
   6   5   3    7.80    9.50
  -6   5  -3   -9.80    9.90
  -6  -5  -3   19.80   11.10
  -6  -5  -3   25.80   12.10
   6   5   4  199.98   18.90
  -6   5  -4  176.28   17.90
  -6   5  -4  182.58   23.90
  -6  -5  -4  201.88   22.40
  -6  -5  -4  184.38   19.10
   6  -5   4  246.88   24.50
  -6   6   2  265.87   26.70
   6   6  -2  313.67   25.10
   6  -6  -2  275.47   26.50
  -6  -6   2  248.88   27.30
   6   6  -1   12.20   10.20
   6   6  -1  -12.90    9.80
  -6   6   1  -21.50   12.30
  -6  -6   1   13.30   15.20
   6  -6  -1    2.70   12.50
   6   6   0  147.09   17.30
  -6   6   0   78.69   16.40
   6   6   0  106.99   15.60
  -6  -6   0  112.19   18.60
   6  -6   0  104.59   18.10
  -6   6  -1  -22.10   13.20
   6   6   1    4.60   10.20
   6  -6   1    2.30   15.10
  -6  -6  -1   -7.70   14.80
  -6  -6  -1   22.20   11.80
   7   0  -8  411.36   31.60
  -7   0   8  416.66   25.20
  -7   0   7  -10.90    6.60
  -7   0   7   -3.30    6.70
   7   0  -7   -2.00    9.10
   7   0  -6  297.67   14.90
   7   0  -6  287.17   20.00
  -7   0   6  310.47   19.00
  -7   0   6  293.87   17.00
  -7   0   5    2.40    5.60
   7   0  -5   -0.50    6.10
  -7   0   5    4.70    5.90
   7   0  -5    0.80    3.40
   7   0  -4   98.09   11.50
  -7   0   4  105.09   10.10
   7   0  -4  103.39    6.20
  -7   0   4   89.19    9.70
  -7   0   3    6.30    7.60
  -7   0   3    0.80    1.50
   7   0  -3   -0.50    4.30
  -7   0   3   -1.10    4.40
   7   0  -2   18.20    2.20
  -7   0   2   34.90    6.50
   7   0  -2   22.90    5.40
  -7   0   2   22.40    5.60
   7   0  -2   21.00    2.70
   7   0  -1    4.50    3.60
   7   0  -1   -5.90    3.70
   7   0  -1   -4.50    5.20
  -7   0   1    2.80    3.80
  -7   0   1    6.50    7.30
   7   0   0  703.13   27.10
   7   0   0  693.13   30.20
  -7   0   0  663.73   29.90
  -7   0   0  635.04   31.70
   7   0   1    5.00    3.60
   7   0   1    2.00    2.40
  -7   0  -1   -4.40    3.80
  -7   0  -1    1.90    5.70
  -7   0  -2    6.20    5.80
   7   0   2   -6.80    4.30
  -7   0  -2    2.30    4.70
   7   0   2   -3.80    2.80
  -7   0  -2    0.90    5.20
  -7   0  -3   -0.40    5.50
  -7   0  -3   -0.40    5.90
   7   0   3    3.80    3.90
  -7   0  -4  214.98   14.60
  -7   0  -4  211.18   17.30
   7   0   4  236.08   13.70
   7   0   4  229.48   14.40
   7   0   5    2.80    5.80
  -7   0  -5    8.80    8.60
  -7   0  -5   -1.70    7.60
   7   0   5   -9.10    6.30
   7   0   6  300.67   20.20
   7   0   6  340.27   19.90
  -7   0  -6  364.26   24.60
   7   0   6  361.56   21.40
   7   0   7   -1.00    8.90
   7   0   7   -5.80    7.60
  -7   0  -7    1.50   11.70
  -7   1   8   61.39   12.70
   7   1  -8   67.59   15.20
  -7  -1   8   62.59   11.90
   7  -1  -8   78.29   15.40
   7   1  -7  183.78   14.00
  -7   1   7  221.48   15.50
  -7   1   7  214.68   17.60
   7   1  -7  220.78   21.30
  -7  -1   7  184.78   14.70
   7  -1  -7  213.78   20.80
  -7  -1   7  176.38   16.30
   7   1  -6  128.29   10.60
   7   1  -6  129.89   14.90
  -7   1   6  103.39   11.50
  -7   1   6   90.19    9.50
   7  -1  -6   95.99   11.80
  -7  -1   6  105.99   11.60
  -7  -1   6   91.99   11.00
   7   1  -5  104.39   12.40
  -7   1   5   93.89   11.30
   7   1  -5  100.69    8.80
  -7   1   5  113.09   10.40
  -7  -1   5  108.49   11.00
   7  -1  -5   99.09   12.60
  -7  -1   5   89.99   10.30
   7   1  -4  129.69   13.20
  -7   1   4  137.19   11.50
   7   1  -4  138.29    8.60
  -7   1   4  144.39   12.90
   7  -1  -4  142.29   11.80
  -7  -1   4  130.29   11.30
  -7  -1   4  140.59   11.70
  -7   1   3   68.49    7.90
   7   1  -3   70.89    6.50
  -7   1   3   70.79    9.00
   7   1  -3   70.39    8.80
  -7  -1   3   70.99    7.90
  -7  -1   3   77.39    8.80
   7  -1  -3   56.89    7.40
   7   1  -2  326.17   18.40
  -7   1   2  325.47   17.40
  -7   1   2  309.87   19.30
   7   1  -2  345.27   15.40
   7  -1  -2  282.47   16.60
  -7  -1   2  299.77   16.60
  -7  -1   2  314.07   17.50
   7   1  -1  224.88   14.10
   7   1  -1  200.08   13.40
  -7   1   1  178.08   20.80
  -7   1   1  220.18   13.80
   7  -1  -1  184.78   12.10
  -7  -1   1  220.38   13.70
  -7  -1   1  209.68   14.90
   7   1   0  515.35   24.80
   7   1   0  530.45   22.50
  -7   1   0  488.35   23.60
  -7  -1   0  487.75   24.10
   7  -1   0  490.15   23.10
   7  -1   0  497.15   20.00
  -7  -1   0  533.05   23.50
  -7   1  -1  227.18   18.10
   7   1   1  219.28   14.30
   7   1   1  221.38   12.00
  -7   1  -1  215.38   14.00
  -7  -1  -1  238.48   12.30
  -7  -1  -1  226.48   13.70
   7  -1   1  215.98   13.10
   7  -1   1  222.78   10.70
   7   1   2  424.46   19.40
  -7   1  -2  422.66   20.10
  -7   1  -2  418.26   21.40
  -7   1  -2  442.66   23.90
   7  -1   2  413.36   20.50
  -7  -1  -2  439.16   19.40
  -7  -1  -2  424.26   23.20
  -7  -1  -2  427.06   21.60
  -7   1  -3   24.70    5.70
   7   1   3   10.10    4.80
   7   1   3   13.80    4.80
  -7   1  -3   22.30    7.40
  -7   1  -3    8.80    5.70
  -7  -1  -3    0.60    6.60
  -7  -1  -3    5.90    5.90
   7  -1   3   18.00    4.90
   7   1   4  143.59   11.60
  -7   1  -4  153.68   13.70
  -7   1  -4  147.49   14.80
  -7   1  -4  142.99   12.40
  -7   1  -4  130.89   13.20
   7   1   4  143.59   11.30
   7  -1   4  124.49   12.60
  -7  -1  -4  151.68   15.90
  -7  -1  -4  153.08   12.90
   7   1   5    9.20    5.70
  -7   1  -5    9.70    7.20
  -7   1  -5    9.40    7.80
   7   1   5   11.50    6.60
  -7  -1  -5    9.60    7.80
   7  -1   5   13.40    7.90
   7  -1   5   -2.20    7.50
  -7  -1  -5    9.30    9.30
  -7   1  -6   48.70   10.70
   7   1   6   23.90    8.60
  -7   1  -6   40.70   10.20
   7   1   6   47.70    8.10
   7  -1   6   40.00   10.80
   7  -1   6   42.80   10.50
  -7  -1  -6   56.19   14.20
   7   1   7   27.70    9.20
   7  -1   7   21.40   13.60
   7   2  -8   36.30    9.20
   7   2  -8   45.00   13.80
  -7   2   8   37.00   10.30
  -7  -2   8   33.20   11.20
   7  -2  -8   42.50   13.10
   7   2  -7  259.97   18.70
  -7   2   7  270.97   19.90
   7   2  -7  339.17   25.70
  -7  -2   7  279.97   19.80
  -7  -2   7  286.47   20.30
   7  -2  -7  319.77   22.60
   7  -2  -7  313.07   20.20
  -7   2   6  150.08   16.00
   7   2  -6  184.28   18.90
   7   2  -6  142.89   12.70
   7  -2  -6  159.38   17.50
  -7  -2   6  150.38   14.60
   7  -2  -6  168.88   15.10
  -7  -2   6  157.08   14.30
   7   2  -5  276.17   20.30
  -7   2   5  267.67   19.20
   7   2  -5  257.47   15.60
  -7  -2   5  272.17   16.60
   7  -2  -5  276.37   17.50
  -7  -2   5  295.17   18.50
   7  -2  -5  287.77   19.30
   7   2  -4  377.06   22.70
  -7   2   4  353.76   18.90
  -7   2   4  347.37   21.10
   7   2  -4  374.86   18.20
  -7  -2   4  329.97   19.50
   7  -2  -4  345.77   20.90
  -7   2   3  111.29   13.20
  -7   2   3   94.79    9.80
   7   2  -3   88.09    9.50
   7   2  -3   88.09   10.80
  -7  -2   3   82.19   10.00
  -7  -2   3   82.79    8.70
   7  -2  -3   62.99    8.20
  -7   2   2  673.43   33.50
  -7   2   2  638.64   29.70
   7   2  -2  628.64   29.90
   7   2  -2  697.63   32.00
   7  -2  -2  661.93   30.00
  -7  -2   2  683.73   31.10
  -7  -2   2  650.23   28.10
   7   2  -1    4.00    5.60
  -7   2   1   28.80   10.30
  -7   2   1   12.40    5.40
   7   2  -1    7.60    6.10
  -7  -2   1   -1.90    5.00
   7  -2  -1    8.30    4.30
  -7  -2   1    9.00    5.70
  -7   2   0 1544.25   57.29
   7   2   0 1590.04   62.89
  -7   2   0 1462.85   60.79
  -7   2   0 1534.15   65.79
   7   2   0 1472.75   62.79
  -7  -2   0 1574.54   56.79
  -7  -2   0 1466.55   61.69
   7   2   1   32.40    5.60
  -7   2  -1   28.70    6.30
  -7   2  -1   50.29    5.60
  -7   2  -1   35.90    9.10
   7  -2   1   35.20    7.50
  -7  -2  -1   32.50    7.70
  -7  -2  -1   47.90    8.80
  -7   2  -2  494.65   30.70
  -7   2  -2  562.44   25.00
   7   2   2  550.24   25.20
   7  -2   2  563.34   28.00
  -7  -2  -2  575.44   27.20
  -7  -2  -2  592.04   29.80
  -7   2  -3   11.30   10.50
   7   2   3    3.60    5.10
  -7   2  -3    1.20    5.20
  -7  -2  -3    8.10    6.80
   7  -2   3    1.60    6.10
   7  -2   3    3.90    4.90
  -7  -2  -3   10.30    6.30
  -7   2  -4  243.38   16.70
   7   2   4  253.27   15.60
  -7   2  -4  285.47   22.00
   7  -2   4  235.18   14.80
  -7  -2  -4  218.58   19.50
  -7  -2  -4  218.88   15.80
   7  -2   4  244.58   18.80
  -7   2  -5  183.08   20.60
  -7   2  -5  162.08   16.10
   7   2   5  209.98   14.90
   7  -2   5  216.58   14.40
  -7  -2  -5  195.28   16.10
   7  -2   5  220.48   20.60
   7  -2   5  206.28   18.00
  -7  -2  -5  179.78   21.30
   7   2   6   93.39   11.70
  -7   2  -6   81.79   12.50
   7  -2   6  104.09   15.10
  -7  -2  -6   81.49   16.50
   7  -2   6   67.19   13.10
   7   3  -7  389.76   29.40
  -7   3   7  403.66   28.00
   7   3  -7  384.26   24.40
  -7  -3   7  360.06   24.60
  -7  -3   7  397.16   24.80
   7  -3  -7  420.46   27.60
   7   3  -6  259.67   22.40
   7   3  -6  272.37   19.30
  -7   3   6  280.77   21.30
   7  -3  -6  264.87   21.00
  -7  -3   6  256.17   17.80
  -7  -3   6  263.57   20.10
   7  -3  -6  252.67   20.50
   7   3  -5  466.75   24.60
   7   3  -5  445.96   28.30
  -7   3   5  423.06   25.30
  -7  -3   5  435.26   25.60
   7  -3  -5  456.05   26.80
  -7  -3   5  455.55   23.30
   7  -3  -5  446.56   25.20
  -7   3   4  302.87   21.30
   7   3  -4  310.37   19.40
   7   3  -4  283.07   21.40
   7  -3  -4  282.77   18.90
  -7  -3   4  247.18   18.70
   7  -3  -4  259.07   17.70
  -7  -3   4  293.87   16.60
   7   3  -3  780.92   38.10
   7   3  -3  823.82   40.00
  -7   3   3  852.51   40.90
  -7  -3   3  864.71   34.40
   7  -3  -3  842.02   38.20
  -7  -3   3  813.92   38.60
   7  -3  -3  832.32   37.50
  -7   3   2   33.00   10.20
   7   3  -2   49.80    9.10
   7   3  -2   51.09    9.40
   7  -3  -2   65.59    9.90
   7  -3  -2   63.09    8.30
  -7  -3   2   50.49    9.80
  -7   3   1  765.32   39.70
   7   3  -1  802.22   35.10
   7   3  -1  754.22   36.30
   7  -3  -1  735.33   35.20
  -7  -3   1  709.03   35.10
   7  -3  -1  723.63   32.50
   7   3   0    2.60    6.60
  -7   3   0   -1.00    3.80
  -7   3   0   -7.50    8.60
   7   3   0    4.50    6.40
  -7  -3   0   -4.80    6.70
   7  -3   0   -3.30    6.20
   7  -3   0   -3.90    6.00
  -7   3  -1  752.12   38.50
   7   3   1  717.23   32.40
  -7   3  -1  710.13   29.80
  -7  -3  -1  701.33   36.00
   7  -3   1  704.83   30.70
  -7  -3  -1  664.33   33.50
   7  -3   1  704.93   34.80
  -7   3  -2   -2.20    9.60
   7   3   2    2.60    5.20
  -7  -3  -2  -11.70    6.70
   7  -3   2   13.50    7.50
  -7  -3  -2    7.10    8.20
   7  -3   2   -2.60    4.60
  -7   3  -3  646.24   30.70
   7   3   3  665.13   30.90
  -7  -3  -3  677.63   36.50
   7  -3   3  676.53   28.90
  -7  -3  -3  652.43   32.10
   7  -3   3  681.83   34.60
   7   3   4   86.19   10.20
  -7   3  -4   95.19   11.30
  -7   3  -4  103.39   17.00
  -7  -3  -4   90.89   11.80
   7  -3   4  121.09   14.70
  -7  -3  -4  112.89   16.00
  -7   3  -5  413.66   24.30
  -7   3  -5  417.36   33.50
   7   3   5  398.06   25.10
  -7  -3  -5  383.16   23.60
   7  -3   5  350.26   25.80
  -7  -3  -5  375.36   28.20
   7   4  -6  216.48   21.70
  -7   4   6  217.98   22.50
   7   4  -6  229.28   24.70
  -7  -4   6  204.08   20.30
   7  -4  -6  215.08   30.60
  -7  -4   6  215.08   22.60
   7  -4  -6  220.48   23.10
  -7   4   5  428.96   28.50
   7   4  -5  466.85   29.00
   7   4  -5  416.76   30.20
   7  -4  -5  450.25   27.80
   7  -4  -5  452.55   27.50
  -7  -4   5  439.36   29.00
   7   4  -4  122.89   14.50
   7   4  -4   94.59   14.30
  -7   4   4  108.59   14.90
   7  -4  -4  126.69   15.10
  -7  -4   4  155.68   16.70
   7  -4  -4  126.19   14.80
   7   4  -3  941.91   46.50
   7   4  -3  831.72   46.10
  -7   4   3 1062.39   50.39
   7  -4  -3 1076.59   46.80
   7  -4  -3 1047.50   44.60
  -7  -4   3 1020.10   46.70
   7   4  -2   10.90    9.40
  -7   4   2   21.70   10.30
   7   4  -2   31.00    9.00
  -7  -4   2   17.60    8.90
   7  -4  -2    6.80    7.10
   7  -4  -2    7.20    7.60
   7   4  -1 1822.22   73.69
  -7   4   1 1803.62   76.99
   7   4  -1 1612.74   73.89
   7  -4  -1 1829.72   70.69
   7  -4  -1 1791.12   74.59
  -7  -4   1 1826.12   75.09
   7   4   0    5.30    7.40
   7   4   0   10.90    6.70
  -7   4   0   14.90   11.70
   7  -4   0   17.90    6.20
   7  -4   0   10.50    8.00
  -7  -4   0   11.70    9.50
   7   4   1 1793.32   76.19
  -7   4  -1 1966.40   80.99
  -7   4  -1 1945.91   74.49
  -7  -4  -1 1781.32   76.79
  -7  -4  -1 1799.52   78.39
   7  -4   1 1888.11   78.59
   7   4   2   46.40    9.30
  -7   4  -2   60.79   15.00
  -7   4  -2   37.90    7.50
   7  -4   2   49.50   11.20
  -7  -4  -2   44.30    9.80
  -7  -4  -2   40.50   12.20
  -7   4  -3 1003.60   43.90
   7   4   3  956.30   44.70
  -7   4  -3  974.50   52.39
  -7  -4  -3  987.10   45.70
   7  -4   3 1044.80   48.70
  -7  -4  -3 1035.50   49.99
  -7   4  -4  176.38   23.60
   7   4   4  201.28   16.60
  -7   4  -4  212.98   18.10
  -7  -4  -4  198.88   24.00
   7  -4   4  241.28   24.70
  -7  -4  -4  176.38   20.10
  -7  -5   5  354.36   29.90
   7   5  -4 1005.00   48.20
  -7   5   4  944.81   51.99
   7   5  -4  955.00   49.20
   7  -5  -4  975.70   46.10
  -7  -5   4  967.30   49.80
   7  -5  -4  999.20   48.90
  -7   5   3  141.69   19.20
   7   5  -3  147.29   17.50
   7   5  -3  181.68   20.60
   7  -5  -3  146.59   18.80
   7  -5  -3  180.68   18.20
  -7  -5   3  146.39   20.20
   7   5  -2  681.93   36.70
  -7   5   2  690.43   42.90
   7   5  -2  746.73   37.10
   7  -5  -2  677.43   33.70
   7  -5  -2  708.43   39.70
   7   5  -1    3.80   10.10
   7   5  -1   22.80    9.40
  -7   5   1    2.20   12.60
   7  -5  -1   21.10   12.20
  -7  -5   1    6.20   11.70
   7   5   0  595.04   32.10
   7   5   0  609.84   32.90
  -7   5   0  609.64   47.20
   7  -5   0  609.94   48.90
  -7  -5   0  624.14   35.70
  -7   5  -1    7.30   10.50
   7   5   1   10.90   10.80
  -7  -5  -1   13.90   11.70
  -7  -5  -1   20.90   11.80
   7  -5   1    6.00   13.50
   7   5   2  448.36   29.30
  -7   5  -2  531.95   32.50
  -7  -5  -2  421.16   28.90
   7  -5   2  473.45   32.30
  -7   5  -3  119.09   20.50
   7   5   3   87.99   16.00
  -7   5  -3  105.79   13.00
  -7  -5  -3   82.39   15.20
  -7  -5  -3   95.39   15.60
   7  -5   3  110.49   20.70
  -8   0   8  843.42   42.50
   8   0  -8  905.01   47.40
  -8   0   7   -6.50    8.50
  -8   0   7  -13.40    8.30
   8   0  -7  -13.60   10.00
  -8   0   6 2008.70   78.39
  -8   0   6 1955.90   80.09
   8   0  -6 1975.60   82.69
  -8   0   5   -3.00    6.40
   8   0  -5    5.70    7.50
  -8   0   5    9.50    6.30
   8   0  -4 2331.97   93.59
  -8   0   4 2360.66   91.99
  -8   0   4 2327.57   91.39
   8   0  -3   -1.70    5.40
  -8   0   3   10.10    6.30
  -8   0   3    5.20    6.30
   8   0  -2 3273.57  125.19
  -8   0   2 3220.68  125.69
  -8   0   2 3271.57  124.69
   8   0  -1   -0.40    4.10
  -8   0   1   -1.20    4.70
  -8   0   1    9.10    8.60
   8   0  -1    9.30    4.60
   8   0   0 1907.21   69.99
  -8   0   0 1769.62   74.69
  -8   0   0 1841.22   73.49
   8   0   0 1862.41   73.49
  -8   0  -1    5.20    6.60
   8   0   1    2.00    3.30
  -8   0  -1    2.80    5.50
   8   0   1   -6.40    4.60
   8   0   2  708.93   32.00
  -8   0  -2  756.82   33.70
   8   0   2  758.02   33.70
   8   0   3   -4.80    4.20
  -8   0  -3    7.20    6.80
  -8   0  -3    2.10    6.40
   8   0   3   -4.40    5.30
  -8   0  -3    8.00    6.10
   8   0   4  383.66   20.30
  -8   0  -4  386.96   21.40
  -8   0  -4  409.56   24.30
   8   0   4  388.76   21.30
  -8   0  -5    3.60    8.80
  -8   0  -5    5.70    7.30
   8   0   5   -3.40    7.60
   8   0   5    1.60    6.50
   8   0   6  398.56   24.40
   8   0   6  399.56   30.40
  -8   0  -6  397.66   28.60
  -8   1   8  545.05   31.50
   8   1  -8  523.75   33.80
  -8  -1   8  493.15   29.90
   8  -1  -8  491.15   35.00
  -8   1   7  171.18   15.40
   8   1  -7  198.68   22.90
  -8   1   7  163.48   17.40
  -8  -1   7  146.69   15.90
  -8  -1   7  204.88   17.20
   8  -1  -7  181.68   20.90
   8   1  -6  464.15   28.80
  -8   1   6  459.15   23.60
  -8   1   6  451.35   25.70
  -8  -1   6  436.86   24.10
  -8  -1   6  458.15   25.90
   8  -1  -6  444.06   27.10
   8   1  -5  372.16   24.30
  -8   1   5  386.26   22.80
   8   1  -5  360.46   17.60
  -8   1   5  363.76   20.40
  -8  -1   5  372.36   21.10
  -8  -1   5  383.76   21.40
   8  -1  -5  376.26   22.20
   8   1  -4  479.45   20.60
  -8   1   4  500.55   25.40
  -8   1   4  497.95   24.40
   8   1  -4  484.35   26.70
   8  -1  -4  464.95   25.30
  -8  -1   4  507.55   24.20
  -8  -1   4  452.25   24.30
  -8   1   3  395.56   22.70
   8   1  -3  410.46   17.30
   8   1  -3  374.66   22.60
  -8   1   3  372.56   20.30
  -8  -1   3  392.16   21.60
   8  -1  -3  365.06   21.30
   8   1  -2  796.92   31.00
  -8   1   2  724.43   33.40
  -8   1   2  716.33   36.40
   8   1  -2  778.92   35.00
  -8  -1   2  732.43   33.70
  -8  -1   2  780.52   34.10
   8  -1  -2  691.43   33.20
   8   1  -1  534.95   27.20
  -8   1   1  537.95   31.00
   8   1  -1  552.74   25.50
  -8   1   1  553.24   26.30
   8  -1  -1  517.55   25.80
  -8  -1   1  541.05   26.50
  -8  -1   1  577.44   28.60
  -8   1   0  969.10   49.80
  -8   1   0 1085.89   46.80
   8   1   0 1149.58   45.40
   8   1   0 1152.78   48.30
  -8  -1   0 1225.08   46.20
   8  -1   0 1077.99   46.50
   8  -1   0 1147.99   42.60
  -8   1  -1 1238.98   54.49
  -8   1  -1 1287.27   51.69
   8   1   1 1277.87   52.59
   8   1   1 1086.89   50.19
  -8  -1  -1 1276.47   51.89
   8  -1   1 1189.68   50.49
  -8  -1  -1 1304.97   49.10
   8  -1   1 1248.98   47.50
  -8   1  -2 1443.76   60.59
   8   1   2 1463.25   61.79
   8   1   2 1461.15   58.69
  -8   1  -2 1593.04   63.49
  -8  -1  -2 1540.85   63.79
  -8  -1  -2 1502.15   58.29
   8  -1   2 1550.44   57.89
  -8  -1  -2 1478.35   61.19
   8  -1   2 1461.35   60.39
  -8   1  -3 1207.28   51.59
   8   1   3 1225.18   50.09
  -8   1  -3 1307.07   54.29
   8   1   3 1260.07   49.30
  -8  -1  -3 1205.98   51.99
   8  -1   3 1230.28   49.30
  -8  -1  -3 1270.37   55.09
   8  -1   3 1211.98   51.19
   8   1   4  939.71   40.10
  -8   1  -4  926.71   41.10
  -8   1  -4  910.21   40.70
  -8   1  -4  984.40   43.20
  -8  -1  -4  920.21   40.40
   8  -1   4  938.91   40.40
  -8  -1  -4  911.01   43.80
   8  -1   4  885.01   41.90
   8   1   5  879.51   38.60
  -8   1  -5  823.42   39.60
  -8   1  -5  876.31   40.00
   8  -1   5  860.21   40.20
  -8  -1  -5  856.91   43.50
  -8  -1  -5  853.81   38.40
   8  -1   5  812.22   39.50
  -8   1  -6  357.96   24.30
   8   1   6  373.96   22.60
  -8   1  -6  349.47   24.90
   8  -1   6  364.36   25.10
   8  -1   6  326.47   24.70
  -8  -1  -6  349.27   27.60
   8   2  -7  947.91   48.70
  -8   2   7  831.22   43.80
  -8  -2   7  889.21   41.60
   8  -2  -7  886.31   46.20
  -8  -2   7  876.31   41.70
   8  -2  -7  932.81   41.50
   8   2  -6   17.00    7.60
   8   2  -6   32.50   11.60
  -8   2   6   31.60   10.40
  -8  -2   6   29.40    9.50
   8  -2  -6   29.20    9.70
  -8  -2   6   28.80    8.70
   8  -2  -6   31.10    8.70
  -8   2   5 2024.30   86.69
   8   2  -5 2264.87   90.09
   8   2  -5 2128.89   82.69
  -8   2   5 2148.69   84.49
   8  -2  -5 2157.48   87.69
  -8  -2   5 2157.38   86.09
  -8  -2   5 2159.48   84.59
   8   2  -4   31.30    7.40
  -8   2   4   26.10    6.80
   8   2  -4   23.20    8.00
  -8   2   4   17.80    8.80
   8  -2  -4   31.70    8.10
  -8  -2   4   26.30    8.60
  -8  -2   4   31.00    7.00
  -8   2   3 2593.24  103.89
  -8   2   3 2709.03  107.59
   8   2  -3 2881.51  103.19
   8   2  -3 2664.93  106.99
  -8  -2   3 2710.33  105.79
  -8  -2   3 2721.53  102.89
   8  -2  -3 2560.84  104.79
  -8   2   2  109.29   10.20
   8   2  -2  122.69   12.40
  -8   2   2   98.59   13.80
   8   2  -2  115.09   12.70
  -8  -2   2   94.59   11.90
  -8  -2   2   99.59   10.00
   8  -2  -2   86.49   10.60
  -8   2   1 2373.56   94.69
  -8   2   1 2203.68   88.39
   8   2  -1 2281.77   90.99
  -8  -2   1 2344.77   86.29
  -8  -2   1 2250.47   89.89
   8  -2  -1 2115.39   87.79
   8   2   0   -2.00    5.50
  -8   2   0   16.20    6.50
  -8   2   0   12.00    9.50
   8   2   0    0.30    5.60
   8  -2   0    4.90    4.90
  -8  -2   0    2.40    5.40
   8   2   1  893.61   40.70
  -8   2  -1  929.41   36.40
   8   2   1  911.21   38.40
  -8   2  -1  916.21   39.70
  -8   2  -1  825.72   43.90
  -8  -2  -1  890.51   40.20
   8  -2   1  901.01   38.20
   8   2   2    6.70    5.00
  -8   2  -2   18.00   11.30
  -8   2  -2   17.70    6.40
  -8  -2  -2   26.80    9.40
   8  -2   2   11.90    5.70
  -8  -2  -2   17.20    6.90
   8  -2   2   16.80    7.30
  -8   2  -3  315.77   25.60
   8   2   3  335.77   18.30
  -8   2  -3  330.27   19.10
  -8  -2  -3  332.27   20.20
   8  -2   3  308.27   20.30
   8  -2   3  311.87   18.50
  -8  -2  -3  323.57   22.20
   8   2   4   45.50    8.50
  -8   2  -4   37.30    9.00
  -8   2  -4   45.80   12.90
  -8  -2  -4   35.50   10.20
  -8  -2  -4   53.89   13.10
   8  -2   4   50.49   10.90
   8  -2   4   43.50    8.20
  -8   2  -5  522.15   29.10
  -8   2  -5  526.35   32.30
   8   2   5  483.05   25.90
  -8  -2  -5  507.65   27.30
   8  -2   5  459.55   29.40
   8  -2   5  540.85   26.40
   8  -2   5  534.35   31.90
  -8  -2  -5  465.25   32.50
  -8   3   7  298.57   24.80
   8   3  -7  196.78   20.10
   8   3  -7  293.97   29.10
  -8  -3   7  219.98   20.80
   8  -3  -7  268.97   26.80
  -8  -3   7  255.47   21.00
  -8   3   6   66.29   13.40
   8   3  -6   92.39   11.80
   8   3  -6   44.80   16.10
   8  -3  -6   69.29   17.00
  -8  -3   6   68.39   11.50
  -8  -3   6   59.99   12.20
   8  -3  -6   93.59   13.30
  -8   3   5  176.78   19.90
   8   3  -5  215.88   17.00
   8   3  -5  234.98   22.00
  -8  -3   5  201.78   19.00
  -8  -3   5  200.68   16.20
   8  -3  -5  204.68   19.60
   8  -3  -5  198.28   18.20
   8   3  -4   49.20    9.40
  -8   3   4   41.80   12.50
   8   3  -4   42.00   12.00
   8  -3  -4   44.80    9.70
   8  -3  -4   63.69   10.80
  -8  -3   4   47.20   10.20
  -8   3   3  268.77   23.30
   8   3  -3  343.67   21.70
   8   3  -3  370.06   24.20
   8  -3  -3  320.37   20.80
   8  -3  -3  300.47   20.10
  -8  -3   3  323.77   22.10
   8   3  -2  203.48   17.50
   8   3  -2  196.58   17.70
  -8   3   2  162.18   19.00
   8  -3  -2  207.48   14.90
  -8  -3   2  164.68   15.50
   8  -3  -2  158.98   14.60
   8   3  -1  342.17   20.40
  -8   3   1  324.47   25.20
   8   3  -1  304.57   22.40
  -8  -3   1  337.87   21.50
   8  -3  -1  318.97   21.30
   8  -3  -1  297.37   18.20
   8   3   0  536.45   27.60
  -8   3   0  538.05   31.90
   8   3   0  469.85   27.80
  -8  -3   0  484.55   26.80
   8  -3   0  489.95   24.50
   8  -3   0  498.35   27.80
   8   3   1  193.68   17.80
   8   3   1  245.48   16.70
  -8   3  -1  198.58   21.10
   8  -3   1  229.28   14.90
  -8  -3  -1  232.68   18.30
   8  -3   1  224.48   17.80
  -8  -3  -1  230.28   19.50
  -8   3  -2 1214.48   49.20
  -8   3  -2 1078.09   57.19
   8   3   2 1189.38   51.19
  -8  -3  -2 1243.08   55.99
  -8  -3  -2 1203.08   52.59
   8  -3   2 1304.77   55.59
   8  -3   2 1224.88   49.30
   8   3   3  288.97   18.10
  -8   3  -3  187.98   23.20
  -8   3  -3  308.97   17.90
  -8  -3  -3  235.08   19.10
  -8  -3  -3  247.58   22.00
   8  -3   3  250.37   22.70
   8   3   4  714.13   34.40
  -8   3  -4  649.14   41.70
  -8   3  -4  700.13   34.00
  -8  -3  -4  728.83   40.30
   8  -3   4  720.43   38.00
  -8  -3  -4  702.93   34.80
  -8   3  -5  183.48   19.10
   8   3   5  168.98   17.40
  -8   3  -5  156.18   22.50
  -8  -3  -5  201.68   22.20
  -8  -3  -5  164.48   21.00
   8  -3   5  166.98   19.70
   8   4  -5   93.29   17.00
   8   4  -5   77.29   14.30
  -8   4   5   87.89   16.00
  -8  -4   5   79.69   20.40
   8  -4  -5   76.89   14.10
   8  -4  -5   67.49   15.00
   8   4  -4  375.06   26.20
   8   4  -4  269.47   26.00
   8  -4  -4  340.67   24.40
   8  -4  -4  344.57   23.90
  -8  -4   4  356.76   25.40
  -8   4   3   87.99   16.90
   8   4  -3   44.10   13.00
   8   4  -3   44.40   11.80
   8  -4  -3   79.89   13.30
   8  -4  -3   72.89   11.50
  -8  -4   3   51.29   11.00
  -8   4   2  364.56   29.50
   8   4  -2  349.57   24.50
   8   4  -2  281.57   23.30
   8  -4  -2  350.36   23.30
   8  -4  -2  334.57   21.20
  -8  -4   2  334.77   24.80
  -8   4   1   34.20   12.70
   8   4  -1   27.90   10.70
   8   4  -1   12.60   10.30
  -8  -4   1    7.60    9.20
   8  -4  -1   32.70   10.20
   8  -4  -1   29.20    7.90
  -8   4   0  300.77   27.10
   8   4   0  277.17   22.60
   8   4   0  306.17   22.10
   8  -4   0  331.47   19.00
  -8  -4   0  302.57   21.80
   8  -4   0  323.37   24.40
   8   4   1   26.30   10.20
   8   4   1   36.50    9.70
  -8   4  -1   43.50   12.10
  -8  -4  -1   60.89   13.80
   8  -4   1   42.10   11.60
  -8  -4  -1   34.80   11.50
   8   4   2  102.29   13.70
  -8  -4  -2  113.99   17.90
  -8  -4  -2  110.19   14.70
   8  -4   2  107.39   15.80
   8   4   3  227.98   23.00
  -8   4  -3  259.17   27.50
   8  -4   3  264.27   25.60
  -8  -4  -3  204.38   21.70
  -8  -4  -3  276.97   25.60
  -8   5   3  -12.20   14.80
   8   5  -3   15.90   13.20
   8  -5  -3   11.80   14.40
   8  -5  -3    3.70   11.10
  -8  -5   3   -0.10   13.30
   8   5  -2  177.48   20.10
  -8   5   2  150.88   19.50
   8   5  -2  149.59   18.10
   8  -5  -2  178.88   20.60
  -8  -5   2  138.69   20.10
   8   5  -1    9.60   10.80
   8   5  -1   15.40   15.20
  -8   5   1    7.60   12.70
   8  -5  -1    5.70   13.70
  -8  -5   1   -7.40   11.70
   8   5   0  135.79   22.20
  -8   5   0  156.28   20.20
   8   5   0  161.58   19.20
  -8  -5   0  136.69   19.10
   8  -5   0  170.48   21.00
   8   5   1   33.00   11.50
  -8   5  -1   46.90   15.80
   8   5   1   23.10   11.40
  -8  -5  -1   35.50   14.50
   8  -5   1   56.39   16.70
  -9   0   7    2.30    9.40
   9   0  -7    9.50   12.30
  -9   0   7    4.00   10.30
   9   0  -6   17.70    9.20
  -9   0   6    9.90    8.60
  -9   0   6    3.80    8.70
  -9   0   5    5.30    8.20
   9   0  -5   -3.80    7.80
  -9   0   5    6.30    8.20
  -9   0   4   40.10    9.10
   9   0  -4   31.60    8.20
  -9   0   4   27.20    8.70
   9   0  -3    7.10    6.60
  -9   0   3    4.40    6.50
  -9   0   3    2.40    7.70
  -9   0   2  318.97   24.30
  -9   0   2  318.57   20.00
   9   0  -2  349.17   20.40
   9   0  -1   -2.70    5.50
  -9   0   1    0.80    9.80
  -9   0   1   -6.60    5.50
  -9   0   0  310.07   21.30
   9   0   0  270.67   18.10
   9   0   0  320.57   15.90
  -9   0   0  305.77   18.10
   9   0   1   -0.40    4.00
   9   0   1    7.30    6.30
  -9   0  -1   -1.70    7.40
  -9   0  -1   -8.20    5.50
   9   0   2  124.49   10.00
  -9   0  -2  113.59   12.50
   9   0   2  138.19   13.40
  -9   0  -2  129.39   14.40
   9   0   3    0.90    6.80
  -9   0  -3   10.70    6.80
  -9   0  -3    0.00    7.90
   9   0   3   -1.30    5.20
  -9   0  -4   15.00    8.40
   9   0   4    0.80    6.30
   9   0   4   -2.90    7.50
   9   0   4   21.60    8.10
   9   0   5    2.70    9.30
  -9   0  -5   -4.90   10.10
  -9   0  -5    2.70    9.50
   9   0   5   -6.40    7.10
  -9   1   7   94.29   12.40
  -9   1   7   86.69   13.50
   9   1  -7   65.29   17.20
   9  -1  -7   86.69   13.70
  -9  -1   7   70.09   13.10
  -9  -1   7   86.79   13.20
   9   1  -6  209.98   21.50
  -9   1   6  173.28   19.60
  -9   1   6  169.78   15.90
  -9  -1   6  185.38   17.20
  -9  -1   6  201.78   18.70
   9  -1  -6  183.08   20.10
  -9   1   5    1.60    7.80
   9   1  -5    0.20    9.40
  -9   1   5   24.00    9.10
   9  -1  -5   -2.90    7.80
  -9  -1   5   10.50    8.30
  -9  -1   5    3.80    8.00
  -9   1   4   56.59   11.40
   9   1  -4   72.39   12.10
  -9   1   4   70.79    9.00
  -9  -1   4   72.69   10.30
  -9  -1   4   64.19    9.60
   9  -1  -4   47.50   10.40
  -9   1   3  150.38   13.80
  -9   1   3  132.89   15.50
   9   1  -3  124.69   14.00
   9  -1  -3  126.89   12.80
  -9  -1   3  140.79   15.10
  -9  -1   3  141.19   13.00
  -9   1   2   93.59   10.80
   9   1  -2   90.89   11.10
   9   1  -2   95.69    9.30
  -9   1   2   67.09   12.80
   9  -1  -2   72.69    9.30
  -9  -1   2   78.49   10.30
  -9  -1   2   89.79   13.70
   9   1  -1  347.17   20.70
  -9   1   1  381.86   20.50
  -9   1   1  325.87   26.10
   9   1  -1  319.87   19.00
   9  -1  -1  334.57   19.80
  -9  -1   1  338.47   20.20
  -9  -1   1  380.36   22.50
   9   1   0   53.59    7.60
  -9   1   0   38.30   11.80
  -9   1   0   58.29    9.50
   9   1   0   64.49    9.90
  -9  -1   0   63.99   10.30
  -9  -1   0   75.49    9.10
   9  -1   0   50.29    8.30
   9   1   1  149.99   13.70
  -9   1  -1  145.49   16.00
   9   1   1  164.48   11.50
  -9   1  -1  147.99   13.60
  -9  -1  -1  169.68   13.10
   9  -1   1  151.78   12.60
   9  -1   1  164.08    9.80
  -9  -1  -1  139.49   14.60
   9   1   2   92.09    9.90
  -9   1  -2   87.79   13.20
  -9   1  -2   85.69   11.70
   9   1   2   71.49    9.60
   9  -1   2   74.59    8.50
  -9  -1  -2   87.89   11.50
   9  -1   2   89.79   10.30
  -9   1  -3    6.80    7.40
   9   1   3   15.40    6.00
   9   1   3    8.90    8.20
  -9   1  -3   17.60   10.30
  -9  -1  -3   22.80   10.00
   9  -1   3   12.50    5.70
  -9  -1  -3    6.20    8.20
   9  -1   3   -8.60    7.30
   9   1   4  235.88   16.00
  -9   1  -4  224.18   21.60
  -9   1  -4  240.68   18.10
   9  -1   4  191.58   14.80
  -9  -1  -4  240.68   21.50
   9  -1   4  238.28   18.20
  -9  -1  -4  220.68   18.10
   9  -1   4  201.28   19.20
   9   1   5  114.19   12.20
  -9  -1  -5  121.99   17.00
   9  -1   5  157.88   17.40
   9  -1   5  133.89   14.10
   9  -1   5  125.89   14.80
  -9  -1  -5  134.09   14.40
   9  -1   5  115.19   14.90
   9   2  -7   11.10   13.90
  -9   2   7   16.30   11.60
  -9  -2   7   -1.80   10.80
  -9  -2   7   13.00   11.40
   9  -2  -7   -6.10   11.10
   9  -2  -7    1.20   12.80
  -9   2   6  313.57   25.40
   9   2  -6  325.47   26.70
  -9  -2   6  346.97   22.80
  -9  -2   6  328.97   22.60
   9  -2  -6  283.87   22.90
   9  -2  -6  328.97   22.00
  -9   2   5   55.79    9.90
   9   2  -5   73.39   15.70
  -9   2   5   61.09   13.00
   9  -2  -5   63.59   12.30
  -9  -2   5   69.09   10.50
  -9  -2   5   60.99    9.90
  -9   2   4  295.67   19.50
   9   2  -4  307.47   22.60
  -9   2   4  267.57   23.40
   9  -2  -4  314.07   20.90
  -9  -2   4  286.67   20.90
  -9  -2   4  284.17   19.60
  -9   2   3  175.68   14.90
   9   2  -3  195.98   18.90
  -9   2   3  205.78   20.40
   9  -2  -3  145.09   15.10
  -9  -2   3  177.68   15.60
  -9  -2   3  173.28   16.90
   9   2  -2  178.88   17.00
  -9   2   2  125.19   12.60
  -9   2   2  190.68   22.40
   9  -2  -2  130.69   13.80
  -9  -2   2  125.39   13.60
  -9   2   1  223.38   15.80
   9   2  -1  250.57   18.30
  -9   2   1  235.38   23.20
   9   2  -1  247.88   17.50
   9  -2  -1  202.78   15.70
  -9  -2   1  216.88   17.20
   9   2   0  178.88   17.10
  -9   2   0  148.29   17.90
  -9   2   0  177.98   14.90
   9   2   0  198.98   15.70
   9  -2   0  158.78   14.00
  -9  -2   0  164.58   14.90
  -9   2  -1  321.67   26.80
   9   2   1  363.96   19.70
  -9   2  -1  344.27   21.00
   9   2   1  333.27   22.70
  -9  -2  -1  328.47   20.60
   9  -2   1  317.87   19.00
  -9   2  -2  133.39   17.00
   9   2   2  136.09   14.90
   9   2   2  156.08   12.90
  -9  -2  -2  151.88   15.70
   9  -2   2  145.59   14.60
   9  -2   2  179.08   17.20
  -9   2  -3  106.59   16.70
   9   2   3  109.19   12.10
  -9   2  -3  107.69   10.90
   9  -2   3  102.19   13.40
   9  -2   3   99.39   12.00
  -9  -2  -3  107.49   13.20
  -9  -2  -3  110.09   15.60
   9   2   4  256.67   18.70
  -9   2  -4  218.68   20.20
  -9   2  -4  325.27   28.00
  -9  -2  -4  259.77   21.70
   9  -2   4  263.77   19.20
  -9  -2  -4  247.78   24.20
   9  -2   4  306.17   23.20
  -9   3   6    4.80   12.50
   9   3  -6    0.00   17.30
   9  -3  -6    3.10   12.50
  -9  -3   6   -4.70   12.50
   9  -3  -6   -6.20   12.30
   9   3  -5  376.16   32.10
   9   3  -5  434.06   24.60
  -9   3   5  415.26   30.70
   9  -3  -5  424.26   26.60
  -9  -3   5  368.66   25.30
   9  -3  -5  425.66   27.30
   9   3  -4  292.47   21.20
   9   3  -4  241.48   25.00
  -9   3   4  307.27   26.10
   9  -3  -4  298.97   21.50
   9  -3  -4  258.47   21.20
  -9  -3   4  245.08   21.60
   9   3  -3  464.45   30.40
   9   3  -3  535.75   28.40
  -9   3   3  498.95   34.30
   9  -3  -3  479.05   27.40
  -9  -3   3  531.15   29.60
   9  -3  -3  468.75   27.50
   9   3  -2  289.87   21.60
  -9   3   2  291.27   27.70
   9   3  -2  297.07   22.30
   9  -3  -2  278.67   21.70
  -9  -3   2  303.97   20.90
   9  -3  -2  291.17   19.50
   9   3  -1  517.05   30.40
   9   3  -1  526.75   28.00
  -9   3   1  494.85   32.50
   9  -3  -1  475.55   27.60
  -9  -3   1  445.16   27.20
   9  -3  -1  486.85   26.00
  -9   3   0  486.65   32.10
   9   3   0  444.36   27.20
   9   3   0  474.65   26.60
   9  -3   0  443.46   26.60
  -9  -3   0  444.26   26.50
   9  -3   0  419.76   24.00
   9   3   1  401.46   26.10
  -9   3  -1  432.96   31.30
   9   3   1  359.86   24.10
  -9  -3  -1  384.96   25.20
   9  -3   1  385.76   22.00
   9  -3   1  429.06   26.00
   9   3   2  213.68   17.30
  -9   3  -2  235.28   25.30
   9  -3   2  208.58   22.10
  -9  -3  -2  180.38   19.50
   9  -3   2  213.98   16.50
  -9   3  -3  300.37   39.10
   9   3   3  411.56   24.70
  -9  -3  -3  468.45   27.00
  -9  -3  -3  477.65   31.30
   9   4  -4  104.19   17.00
   9   4  -4   84.39   18.10
  -9   4   4   78.89   17.90
   9  -4  -4  138.59   18.20
  -9  -4   4   96.69   16.00
   9  -4  -4  112.29   15.80
  -9   4   3  480.15   33.00
   9   4  -3  434.56   30.00
   9   4  -3  400.56   30.50
   9  -4  -3  408.36   28.50
  -9  -4   3  452.95   30.20
   9  -4  -3  480.25   27.40
   9   4  -2  157.18   17.30
   9   4  -2  145.09   18.20
  -9   4   2  154.88   19.60
   9  -4  -2  184.98   19.40
   9  -4  -2  190.68   17.90
  -9  -4   2  146.89   17.00
   9   4  -1  420.06   30.00
   9   4  -1  428.96   28.90
  -9   4   1  431.76   31.40
  -9  -4   1  462.55   29.30
   9  -4  -1  437.36   25.50
   9  -4  -1  471.35   30.70
   9   4   0  232.68   20.80
  -9   4   0  250.47   27.30
   9   4   0  142.99   27.10
   9  -4   0  210.58   21.60
  -9  -4   0  217.68   21.70
  -9   4  -1  295.87   28.50
   9   4   1  253.47   23.00
   9   4   1  274.17   23.00
   9  -4   1  310.97   26.20
  -9  -4  -1  266.07   23.70
   9   4   2   41.40   12.10
  -9   4  -2   95.59   18.10
   9   4   2   55.59   12.70
  -9  -4  -2   87.19   15.30
   9  -4   2   83.39   17.10
  -9  -4  -2  100.59   17.90
 -10   0   6  410.86   26.90
  10   0  -6  466.15   29.80
 -10   0   6  459.05   30.20
 -10   0   5    9.40   10.70
 -10   0   5   -0.50    8.80
 -10   0   4  573.04   30.30
  10   0  -4  591.14   32.80
 -10   0   4  583.94   31.80
  10   0  -3    4.80    7.00
 -10   0   3    6.70   10.90
 -10   0   3    0.50    6.90
 -10   0   2 1643.14   67.19
  10   0  -2 1581.64   67.89
 -10   0   2 1621.74   70.99
  10   0  -1   16.80    7.00
 -10   0   1    1.50    6.30
 -10   0   1    0.80   10.60
 -10   0   0 1745.73   70.29
 -10   0   0 1640.24   68.89
  10   0   0 1640.84   69.29
 -10   0  -1   -3.00    8.70
 -10   0  -1    4.90    8.80
  10   0   1    0.70    7.50
  10   0   2 1691.03   71.79
 -10   0  -2 1792.82   72.29
 -10   0  -2 1800.82   70.59
  10   0   2 1618.44   66.99
  10   0   3   12.60    6.90
  10   0   3   -5.90    8.20
 -10   0  -3    5.90    8.80
  10   0   4 1296.77   59.59
  10   0   4 1399.96   56.39
 -10   0  -4 1376.96   58.79
 -10   1   6  626.64   35.30
 -10   1   6  631.84   32.20
  10   1  -6  656.53   37.90
 -10  -1   6  597.34   34.70
 -10  -1   6  622.94   33.80
  10  -1  -6  589.44   36.00
  10   1  -5 1138.19   67.49
 -10   1   5 1304.17   54.69
 -10   1   5 1289.07   57.29
 -10  -1   5 1297.17   55.29
  10  -1  -5 1188.48   60.29
 -10  -1   5 1246.28   55.19
 -10   1   4  805.22   37.40
  10   1  -4  804.72   40.10
 -10   1   4  801.32   40.70
  10  -1  -4  691.53   38.60
 -10  -1   4  775.82   37.90
 -10  -1   4  769.12   37.90
 -10   1   3  959.60   43.30
  10   1  -3 1039.40   46.20
 -10   1   3  939.51   48.80
 -10  -1   3  960.20   44.30
 -10  -1   3  970.00   45.50
  10  -1  -3  928.31   44.60
 -10   1   2  635.24   31.80
 -10   1   2  648.64   38.80
  10   1  -2  643.04   33.70
  10  -1  -2  598.54   32.10
 -10  -1   2  669.93   32.70
 -10  -1   2  697.23   35.70
 -10   1   1  493.15   26.50
 -10   1   1  465.45   30.90
  10   1  -1  557.54   28.60
  10  -1  -1  426.56   25.60
 -10  -1   1  458.15   26.10
 -10   1   0  385.76   22.40
  10   1   0  376.26   23.70
 -10   1   0  389.26   28.00
  10  -1   0  387.06   22.40
 -10  -1   0  405.86   23.30
 -10   1  -1  482.55   30.20
  10   1   1  450.95   26.60
 -10   1  -1  442.86   25.60
  10   1   1  427.36   22.80
 -10  -1  -1  445.16   25.70
  10  -1   1  464.35   25.10
  10   1   2  205.88   15.30
  10   1   2  212.98   17.40
 -10   1  -2  203.08   17.60
 -10   1  -2  221.38   22.10
 -10  -1  -2  211.08   18.50
  10  -1   2  198.18   16.50
  10   1   3  111.49   13.20
  10   1   3   95.49   14.20
 -10   1  -3  109.29   13.90
 -10   1  -3  103.59   14.80
  10  -1   3  117.79   13.70
 -10  -1  -3  120.39   14.40
 -10   2   5  227.28   23.30
 -10   2   5  165.08   17.80
  10   2  -5  217.08   25.50
  10  -2  -5  173.88   18.50
 -10  -2   5  114.39   24.20
 -10   2   4   48.40   10.10
 -10   2   4   38.20   13.50
  10   2  -4   43.20   15.20
 -10  -2   4   50.19   12.40
  10  -2  -4   42.90   11.20
 -10   2   3  427.56   32.60
  10   2  -3  482.15   29.90
 -10   2   3  441.96   25.30
  10  -2  -3  387.26   25.90
 -10  -2   3  454.95   26.30
  10   2  -2   12.80   10.60
 -10   2   2    7.80    7.30
 -10   2   2   14.90   13.80
  10  -2  -2   11.50    8.20
 -10  -2   2   17.40    9.70
 -10   2   1  863.41   45.60
  10   2  -1  887.81   42.80
 -10   2   1  885.41   40.20
  10   2  -1  859.61   39.90
 -10  -2   1  870.11   41.70
  10  -2  -1  826.92   39.70
 -10   2   0    2.60   13.50
  10   2   0   12.70    9.60
 -10   2   0   30.20    9.10
  10   2   0   21.20    9.70
 -10  -2   0   18.60    9.40
  10  -2   0   15.50    7.80
  10   2   1 1390.26   62.39
 -10   2  -1 1407.76   60.19
  10   2   1 1399.26   58.19
 -10   2  -1 1255.77   63.99
 -10  -2  -1 1437.96   60.79
  10  -2   1 1523.75   63.09
  10  -2   1 1401.06   58.69
 -10   2  -2    4.70   13.60
  10   2   2   14.30    8.10
  10   2   2   20.50   11.10
 -10  -2  -2    7.60    9.60
  10  -2   2   18.80    8.90
  10   2   3 1148.49   51.19
 -10   2  -3 1279.57   58.99
  10  -2   3 1180.98   55.69
  10  -2   3 1203.48   51.99
 -10  -2  -3 1184.78   54.39
 -10   3   4  630.94   42.00
  10   3  -4  676.23   39.20
 -10  -3   4  642.84   35.60
  10  -3  -4  617.74   34.60
  10   3  -3  213.48   23.40
 -10   3   3  236.68   28.10
  10  -3  -3  211.18   21.60
  10  -3  -3  263.17   20.70
 -10  -3   3  255.77   20.60
 -10   3   2  456.25   43.20
  10   3  -2  385.96   25.30
 -10  -3   2  376.66   26.40
  10  -3  -2  405.66   24.20
  10  -3  -2  363.76   26.60
  10   3  -1  302.27   23.80
 -10   3   1  333.17   29.80
  10   3  -1  278.47   27.00
 -10  -3   1  290.27   23.70
  10  -3  -1  286.37   23.60
  10  -3  -1  298.17   20.90
  10   3   0   82.39   14.20
 -10   3   0  120.59   19.90
  10   3   0   93.59   13.50
  10  -3   0   98.29   12.40
  10  -3   0   95.69   14.80
 -10  -3   0  101.49   15.10
  10   3   1  214.08   21.50
  10   3   1  206.78   19.60
 -10   3  -1  167.78   27.80
  10  -3   1  219.18   19.00
  10  -3   1  208.68   22.20
 -10  -3  -1  213.98   19.60
 -10   3  -2  -16.00   14.30
  10   3   2    6.50    8.90
  10   3   2    5.00   11.10
  10  -3   2  -14.40   11.80
 -10  -3  -2   -7.50   11.00
 -11   0   5  -14.10   11.00
  11   0  -5   -9.30   12.10
 -11   0   5    8.20   12.40
  11   0  -4    4.70    9.80
 -11   0   4  -17.60    8.70
 -11   0   4    3.20   13.70
  11   0  -3    5.40   10.40
 -11   0   3   -5.50   13.90
 -11   0   3   -7.90    9.90
 -11   0   2   48.30   15.60
  11   0  -2   21.20   12.00
  11   0  -1  -13.90    8.10
 -11   0   1   -4.90   11.20
 -11   0   0    1.70   11.00
 -11   0   0    5.50    8.60
  11   0   0    0.50    9.20
 -11   0  -1  -11.90   10.20
 -11   0  -2   57.89   12.00
  11   0   2   49.80   12.40
 -11   1   5   10.90   10.50
  11   1  -5  -17.70   10.60
  11  -1  -5    0.60   10.40
 -11  -1   5  -21.00   11.30
 -11   1   4  120.09   18.30
  11   1  -4  127.09   16.80
 -11   1   4  137.49   15.70
  11  -1  -4  112.69   15.70
 -11  -1   4   83.39   17.50
 -11  -1   4  128.39   15.90
  11   1  -3  108.79   15.50
 -11   1   3   99.39   13.30
 -11   1   3  120.29   19.20
 -11  -1   3  118.29   15.80
  11  -1  -3   92.09   16.30
 -11   1   2  209.08   23.50
  11   1  -2  159.48   18.90
 -11   1   2  182.58   18.10
  11  -1  -2  164.48   16.30
 -11  -1   2  168.88   17.70
 -11   1   1   41.50   11.10
 -11   1   1   46.20   14.90
  11   1  -1   50.89   11.90
  11  -1  -1   45.50   11.10
 -11  -1   1   37.90   11.60
 -11   1   0  114.09   17.40
 -11   1   0   97.99   13.00
  11   1   0  106.19   13.50
 -11  -1   0   70.39   13.30
  11  -1   0   91.69   12.30
 -11   1  -1    9.20   10.80
 -11   1  -1    8.10   13.60
  11   1   1   32.90   11.80
  11  -1   1   13.90   10.10
 -11  -1  -1   24.40   11.00
 -11   1  -2   80.49   13.00
  11   1   2   51.09   12.30
 -11   1  -2   67.29   15.80
  11  -1   2   71.09   13.00
 -11  -1  -2   54.69   12.20
 -11   2   4  448.46   25.20
  11   2  -4  421.76   32.30
 -11   2   4  351.26   34.40
  11  -2  -4  367.56   27.20
 -11  -2   4  413.06   28.40
  11   2  -3   33.70   13.60
 -11   2   3   30.50   10.90
  11  -2  -3   18.30   10.00
 -11  -2   3   24.80   10.40
 -11   2   2  467.15   35.70
  11   2  -2  497.35   31.80
 -11   2   2  466.75   27.30
 -11  -2   2  461.05   29.20
  11  -2  -2  427.16   27.30
 -11   2   1   28.10    8.90
  11   2  -1   15.70   12.00
 -11   2   1   10.20   15.30
 -11  -2   1   24.00   11.60
  11  -2  -1   15.40    9.90
 -11   2   0  293.27   29.10
  11   2   0  296.77   25.40
 -11   2   0  319.27   23.10
  11  -2   0  304.87   22.10
 -11  -2   0  340.27   25.10
 -11   2  -1   29.00   16.10
 -11   2  -1   16.50   10.00
  11   2   1   15.00   10.70
  11  -2   1    2.00    8.60
  11  -2   1   -5.80   11.10
 -11  -2  -1    6.80   10.80
   0   0   0    0.00    0.00

_computing_structure_solution     'SHELXT 2014/5 (Sheldrick, 2014)'
;
_shelx_hkl_checksum              51316
loop_
_space_group_symop_operation_xyz
'x, y, z'
'-x, y, -z+1/2'
'-x, -y, -z'
'x, -y, z-1/2'
loop_
_atom_site_label
_atom_site_type_symbol
_atom_site_fract_x
_atom_site_fract_y
_atom_site_fract_z
_atom_site_U_iso_or_equiv
_atom_site_adp_type
_atom_site_occupancy
_atom_site_site_symmetry_order
_atom_site_calc_flag
_atom_site_refinement_flags_posn
_atom_site_refinement_flags_adp
_atom_site_refinement_flags_occupancy
Sm1 Sm 0.500000 0.09299(4) 0.750000 0.00990(9) Uani 1 2 d S T P
Cr1 Cr 0.71616(5) 0.66800(9) 0.68064(6) 0.01042(12) Uani 1 1 d . . .
O1 O 0.6813(3) 0.3858(4) 0.7314(3) 0.0167(5) Uani 1 1 d . . .
Cs1 Cs 1.000000 0.17688(5) 0.750000 0.02209(10) Uani 1 2 d S T P
O3 O 0.5708(2) 0.7924(4) 0.5499(3) 0.0153(5) Uani 1 1 d . . .
O2 O 0.8648(3) 0.6782(4) 0.5946(3) 0.0193(5) Uani 1 1 d . . .
O4 O 0.7321(3) 0.8482(4) 0.8514(3) 0.0174(5) Uani 1 1 d . . .
loop_
_atom_site_aniso_label
_atom_site_aniso_U_11
_atom_site_aniso_U_22
_atom_site_aniso_U_33
_atom_site_aniso_U_23
_atom_site_aniso_U_13
_atom_site_aniso_U_12
Sm1 0.01143(12) 0.00854(13) 0.00974(12) 0.000 0.00163(8) 0.000
Cr1 0.0105(2) 0.0084(2) 0.0126(2) 0.00115(17) 0.00239(18) 0.00047(18)
O1 0.0152(11) 0.0117(11) 0.0228(12) 0.0029(9) 0.0015(9) -0.0023(9)
Cs1 0.01646(16) 0.01537(17) 0.03569(19) 0.000 0.00798(12) 0.000
O3 0.0163(11) 0.0165(12) 0.0129(10) 0.0014(9) 0.0014(8) 0.0046(9)
O2 0.0171(12) 0.0194(12) 0.0230(12) 0.0012(9) 0.0086(9) -0.0003(9)
O4 0.0191(12) 0.0177(12) 0.0147(11) -0.0033(9) 0.0006(9) 0.0002(9)
loop_
_atom_type_symbol
_atom_type_description
_atom_type_scat_dispersion_real
_atom_type_scat_dispersion_imag
_atom_type_scat_source
Cr Cr 0.3209 0.6236 'International Tables Vol C Tables 4.2.6.8 and 6.1.1.4'
Cs Cs -0.3680 2.1192 'International Tables Vol C Tables 4.2.6.8 and 6.1.1.4'
O O 0.0106 0.0060 'International Tables Vol C Tables 4.2.6.8 and 6.1.1.4'
Sm Sm -0.1638 3.4418 'International Tables Vol C Tables 4.2.6.8 and 6.1.1.4'
loop_
_geom_angle_atom_site_label_1
_geom_angle_atom_site_label_2
_geom_angle_atom_site_label_3
_geom_angle
_geom_angle_site_symmetry_1
_geom_angle_site_symmetry_3
O1 Sm1 O1 92.70(11) . 2_656
O1 Sm1 O3 77.61(8) . 4_566
O1 Sm1 O3 81.30(8) 2_656 4_566
O1 Sm1 O3 81.30(8) . 3_666
O1 Sm1 O3 77.61(8) 2_656 3_666
O3 Sm1 O3 149.26(11) 4_566 3_666
O1 Sm1 O3 99.84(8) . 1_545
O1 Sm1 O3 140.84(7) 2_656 1_545
O3 Sm1 O3 137.55(8) 4_566 1_545
O3 Sm1 O3 68.00(9) 3_666 1_545
O1 Sm1 O3 140.84(7) . 2_646
O1 Sm1 O3 99.84(8) 2_656 2_646
O3 Sm1 O3 68.00(9) 4_566 2_646
O3 Sm1 O3 137.55(8) 3_666 2_646
O3 Sm1 O3 93.46(11) 1_545 2_646
O1 Sm1 O4 156.73(8) . 2_646
O1 Sm1 O4 79.30(8) 2_656 2_646
O3 Sm1 O4 121.94(7) 4_566 2_646
O3 Sm1 O4 75.66(7) 3_666 2_646
O3 Sm1 O4 74.63(8) 1_545 2_646
O3 Sm1 O4 62.43(7) 2_646 2_646
O1 Sm1 O4 79.30(8) . 1_545
O1 Sm1 O4 156.73(8) 2_656 1_545
O3 Sm1 O4 75.66(7) 4_566 1_545
O3 Sm1 O4 121.94(7) 3_666 1_545
O3 Sm1 O4 62.43(7) 1_545 1_545
O3 Sm1 O4 74.63(8) 2_646 1_545
O4 Sm1 O4 115.86(10) 2_646 1_545
O1 Sm1 Cr1 172.23(6) . 2_646
O1 Sm1 Cr1 91.72(6) 2_656 2_646
O3 Sm1 Cr1 96.76(5) 4_566 2_646
O3 Sm1 Cr1 105.91(6) 3_666 2_646
O3 Sm1 Cr1 80.61(5) 1_545 2_646
O3 Sm1 Cr1 31.73(5) 2_646 2_646
O4 Sm1 Cr1 30.88(5) 2_646 2_646
O4 Sm1 Cr1 94.19(5) 1_545 2_646
O1 Sm1 Cr1 91.72(6) . 1_545
O1 Sm1 Cr1 172.23(6) 2_656 1_545
O3 Sm1 Cr1 105.91(6) 4_566 1_545
O3 Sm1 Cr1 96.76(5) 3_666 1_545
O3 Sm1 Cr1 31.73(5) 1_545 1_545
O3 Sm1 Cr1 80.61(5) 2_646 1_545
O4 Sm1 Cr1 94.19(5) 2_646 1_545
O4 Sm1 Cr1 30.88(5) 1_545 1_545
Cr1 Sm1 Cr1 84.63(2) 2_646 1_545
O1 Sm1 Sm1 90.75(6) . 3_656
O1 Sm1 Sm1 110.02(6) 2_656 3_656
O3 Sm1 Sm1 164.35(5) 4_566 3_656
O3 Sm1 Sm1 34.27(5) 3_666 3_656
O3 Sm1 Sm1 33.74(5) 1_545 3_656
O3 Sm1 Sm1 118.59(5) 2_646 3_656
O4 Sm1 Sm1 71.99(5) 2_646 3_656
O4 Sm1 Sm1 92.05(5) 1_545 3_656
Cr1 Sm1 Sm1 93.734(11) 2_646 3_656
Cr1 Sm1 Sm1 63.514(10) 1_545 3_656
O1 Sm1 Sm1 110.02(6) . 3_657
O1 Sm1 Sm1 90.76(6) 2_656 3_657
O3 Sm1 Sm1 34.27(5) 4_566 3_657
O3 Sm1 Sm1 164.35(5) 3_666 3_657
O3 Sm1 Sm1 118.59(5) 1_545 3_657
O3 Sm1 Sm1 33.74(5) 2_646 3_657
O4 Sm1 Sm1 92.05(5) 2_646 3_657
O4 Sm1 Sm1 71.99(5) 1_545 3_657
Cr1 Sm1 Sm1 63.514(10) 2_646 3_657
Cr1 Sm1 Sm1 93.734(11) 1_545 3_657
Sm1 Sm1 Sm1 150.155(13) 3_656 3_657
O2 Cr1 O4 109.45(12) . .
O2 Cr1 O1 109.83(12) . .
O4 Cr1 O1 112.31(12) . .
O2 Cr1 O3 112.59(12) . .
O4 Cr1 O3 101.37(11) . .
O1 Cr1 O3 111.09(12) . .
O2 Cr1 Sm1 129.58(9) . 1_565
O4 Cr1 Sm1 52.91(8) . 1_565
O1 Cr1 Sm1 120.58(8) . 1_565
O3 Cr1 Sm1 48.83(7) . 1_565
O2 Cr1 Cs1 57.77(8) . .
O4 Cr1 Cs1 110.51(8) . .
O1 Cr1 Cs1 55.88(8) . .
O3 Cr1 Cs1 148.10(8) . .
Sm1 Cr1 Cs1 162.241(16) 1_565 .
O2 Cr1 Cs1 54.97(9) . 1_565
O4 Cr1 Cs1 57.69(8) . 1_565
O1 Cr1 Cs1 144.66(8) . 1_565
O3 Cr1 Cs1 104.23(8) . 1_565
Sm1 Cr1 Cs1 82.224(15) 1_565 1_565
Cs1 Cr1 Cs1 93.800(15) . 1_565
Cr1 O1 Sm1 146.35(13) . .
Cr1 O1 Cs1 98.27(10) . .
Sm1 O1 Cs1 114.38(8) . .
O1 Cs1 O1 136.79(8) 2_756 .
O1 Cs1 O2 130.20(6) 2_756 1_545
O1 Cs1 O2 89.57(6) . 1_545
O1 Cs1 O2 89.57(6) 2_756 2_746
O1 Cs1 O2 130.20(6) . 2_746
O2 Cs1 O2 59.98(9) 1_545 2_746
O1 Cs1 O2 90.33(6) 2_756 .
O1 Cs1 O2 49.87(6) . .
O2 Cs1 O2 120.16(8) 1_545 .
O2 Cs1 O2 179.87(4) 2_746 .
O1 Cs1 O2 49.87(6) 2_756 2_756
O1 Cs1 O2 90.34(6) . 2_756
O2 Cs1 O2 179.87(4) 1_545 2_756
O2 Cs1 O2 120.15(8) 2_746 2_756
O2 Cs1 O2 59.71(9) . 2_756
O1 Cs1 O2 110.47(6) 2_756 4_566
O1 Cs1 O2 57.74(6) . 4_566
O2 Cs1 O2 110.47(6) 1_545 4_566
O2 Cs1 O2 94.77(6) 2_746 4_566
O2 Cs1 O2 85.18(5) . 4_566
O2 Cs1 O2 69.55(7) 2_756 4_566
O1 Cs1 O2 57.74(6) 2_756 3_766
O1 Cs1 O2 110.47(6) . 3_766
O2 Cs1 O2 94.77(6) 1_545 3_766
O2 Cs1 O2 110.47(6) 2_746 3_766
O2 Cs1 O2 69.55(7) . 3_766
O2 Cs1 O2 85.18(5) 2_756 3_766
O2 Cs1 O2 151.06(9) 4_566 3_766
O1 Cs1 O4 158.90(6) 2_756 1_545
O1 Cs1 O4 58.55(6) . 1_545
O2 Cs1 O4 48.69(6) 1_545 1_545
O2 Cs1 O4 72.12(6) 2_746 1_545
O2 Cs1 O4 107.97(6) . 1_545
O2 Cs1 O4 131.31(6) 2_756 1_545
O2 Cs1 O4 62.29(6) 4_566 1_545
O2 Cs1 O4 138.08(6) 3_766 1_545
O1 Cs1 O4 58.55(6) 2_756 2_746
O1 Cs1 O4 158.90(6) . 2_746
O2 Cs1 O4 72.12(6) 1_545 2_746
O2 Cs1 O4 48.69(6) 2_746 2_746
O2 Cs1 O4 131.31(6) . 2_746
O2 Cs1 O4 107.96(6) 2_756 2_746
O2 Cs1 O4 138.08(6) 4_566 2_746
O2 Cs1 O4 62.29(6) 3_766 2_746
O4 Cs1 O4 112.11(8) 1_545 2_746
O1 Cs1 O4 124.13(6) 2_756 4_565
O1 Cs1 O4 57.78(6) . 4_565
O2 Cs1 O4 58.21(6) 1_545 4_565
O2 Cs1 O4 117.45(6) 2_746 4_565
O2 Cs1 O4 62.68(6) . 4_565
O2 Cs1 O4 121.66(6) 2_756 4_565
O2 Cs1 O4 114.29(6) 4_566 4_565
O2 Cs1 O4 66.90(6) 3_766 4_565
O4 Cs1 O4 75.01(5) 1_545 4_565
O4 Cs1 O4 102.49(5) 2_746 4_565
O1 Cs1 O4 57.78(6) 2_756 3_767
O1 Cs1 O4 124.13(6) . 3_767
O2 Cs1 O4 117.45(6) 1_545 3_767
O2 Cs1 O4 58.21(6) 2_746 3_767
O2 Cs1 O4 121.66(6) . 3_767
O2 Cs1 O4 62.68(6) 2_756 3_767
O2 Cs1 O4 66.90(6) 4_566 3_767
O2 Cs1 O4 114.29(6) 3_766 3_767
O4 Cs1 O4 102.49(5) 1_545 3_767
O4 Cs1 O4 75.01(5) 2_746 3_767
O4 Cs1 O4 175.64(7) 4_565 3_767
Cr1 O3 Sm1 139.21(12) . 3_666
Cr1 O3 Sm1 99.44(10) . 1_565
Sm1 O3 Sm1 112.00(9) 3_666 1_565
Cr1 O2 Cs1 100.54(10) . 1_565
Cr1 O2 Cs1 96.98(10) . .
Cs1 O2 Cs1 120.16(8) 1_565 .
Cr1 O2 Cs1 144.40(12) . 3_766
Cs1 O2 Cs1 85.23(6) 1_565 3_766
Cs1 O2 Cs1 110.45(7) . 3_766
Cr1 O4 Sm1 96.21(10) . 1_565
Cr1 O4 Cs1 97.09(10) . 1_565
Sm1 O4 Cs1 105.09(8) 1_565 1_565
Cr1 O4 Cs1 128.43(11) . 3_767
Sm1 O4 Cs1 135.04(8) 1_565 3_767
Cs1 O4 Cs1 77.51(5) 1_565 3_767
loop_
_geom_bond_atom_site_label_1
_geom_bond_atom_site_label_2
_geom_bond_distance
_geom_bond_site_symmetry_2
Sm1 O1 2.343(2) .
Sm1 O1 2.343(2) 2_656
Sm1 O3 2.389(2) 4_566
Sm1 O3 2.389(2) 3_666
Sm1 O3 2.422(2) 1_545
Sm1 O3 2.422(2) 2_646
Sm1 O4 2.546(2) 2_646
Sm1 O4 2.546(2) 1_545
Sm1 Cr1 3.1737(6) 2_646
Sm1 Cr1 3.1737(6) 1_545
Sm1 Sm1 3.9882(5) 3_656
Sm1 Sm1 3.9882(5) 3_657
Cr1 O2 1.609(2) .
Cr1 O4 1.639(2) .
Cr1 O1 1.650(2) .
Cr1 O3 1.692(2) .
Cr1 Cs1 3.7454(6) .
Cr1 Cs1 3.8171(6) 1_565
O1 Cs1 3.133(2) .
Cs1 O2 3.179(2) 1_545
Cs1 O2 3.179(2) 2_746
Cs1 O2 3.192(2) .
Cs1 O2 3.192(2) 2_756
Cs1 O2 3.202(2) 4_566
Cs1 O2 3.202(2) 3_766
Cs1 O4 3.251(2) 1_545
Cs1 O4 3.251(2) 2_746
Cs1 O4 3.634(2) 4_565
Cs1 O4 3.634(2) 3_767
