#------------------------------------------------------------------------------
#$Date: 2018-01-31 02:16:12 +0200 (Wed, 31 Jan 2018) $
#$Revision: 205917 $
#$URL: file:///home/coder/svn-repositories/cod/cif/4/12/71/4127113.cif $
#------------------------------------------------------------------------------
#
# This file is available in the Crystallography Open Database (COD),
# http://www.crystallography.net/
#
# All data on this site have been placed in the public domain by the
# contributors.
#
data_4127113
loop_
_publ_author_name
'Galley, Shane S.'
'Arico, Alexandra A.'
'Lee, Tsung-Han'
'Deng, Xiaoyu'
'Yao, Yong-Xin'
'Sperling, Joseph M.'
'Proust, Vanessa'
'Storbeck, Julia S.'
'Dobrosavljevic, Vladimir'
'Neu, Jennifer N.'
'Siegrist, Theo'
'Baumbach, Ryan E.'
'Albrecht-Schmitt, Thomas E'
'Kaltsoyannis, Nikolas'
'Lanat\`a, Nicola'
_publ_section_title
;
 Uncovering the Origin of Divergence in the CsM(CrO4)2 (M = La, Pr, Nd,
 Sm, Eu; Am) Family through Examination of the Chemical Bonding in a
 Molecular Cluster and by Band Structure Analysis.
;
_journal_name_full               'Journal of the American Chemical Society'
_journal_paper_doi               10.1021/jacs.7b09474
_journal_year                    2018
_chemical_formula_moiety         'Cr4 O16 Pr2, 2(Cs)'
_chemical_formula_sum            'Cr4 Cs2 O16 Pr2'
_chemical_formula_weight         1011.64
_space_group_crystal_system      monoclinic
_space_group_IT_number           14
_space_group_name_Hall           '-P 2ybc'
_space_group_name_H-M_alt        'P 1 21/c 1'
_symmetry_space_group_name_Hall  '-P 2ybc'
_symmetry_space_group_name_H-M   'P 1 21/c 1'
_audit_creation_method           SHELXL-2017/1
_cell_angle_alpha                90
_cell_angle_beta                 91.235(9)
_cell_angle_gamma                90
_cell_formula_units_Z            2
_cell_length_a                   9.324(4)
_cell_length_b                   7.500(3)
_cell_length_c                   11.134(5)
_cell_measurement_reflns_used    1792
_cell_measurement_temperature    298(2)
_cell_measurement_theta_max      27.579
_cell_measurement_theta_min      3.275
_cell_volume                     778.4(6)
_computing_cell_refinement       'SAINT V8.37A (Bruker, 2016)'
_computing_data_collection       'Apex2 (Bruker, 2016)'
_computing_data_reduction        'SAINT V8.37A (Bruker, 2016)'
_computing_structure_refinement
;  
SHELXL-2016/6 (Sheldrick, 2015, 2016), 
SHELXLE Rev714 (H\"ubschle et al., 2011)
;
_computing_structure_solution    'SHELXS-97 (Sheldrick, 2008)'
_diffrn_ambient_temperature      298(2)
_diffrn_measured_fraction_theta_full 0.999
_diffrn_measured_fraction_theta_max 0.992
_diffrn_measurement_device_type  'Bruker ApexII CCD diffractometer'
_diffrn_measurement_method       '0.5 wide w/ exposures'
_diffrn_radiation_type           MoK\a
_diffrn_radiation_wavelength     0.71073
_diffrn_reflns_av_R_equivalents  0.0555
_diffrn_reflns_av_unetI/netI     0.0290
_diffrn_reflns_Laue_measured_fraction_full 0.999
_diffrn_reflns_Laue_measured_fraction_max 0.992
_diffrn_reflns_limit_h_max       12
_diffrn_reflns_limit_h_min       -12
_diffrn_reflns_limit_k_max       9
_diffrn_reflns_limit_k_min       -9
_diffrn_reflns_limit_l_max       14
_diffrn_reflns_limit_l_min       -14
_diffrn_reflns_number            11431
_diffrn_reflns_point_group_measured_fraction_full 0.999
_diffrn_reflns_point_group_measured_fraction_max 0.992
_diffrn_reflns_theta_full        25.242
_diffrn_reflns_theta_max         27.579
_diffrn_reflns_theta_min         3.275
_diffrn_source                   'I-mu-S microsource X-ray tube'
_exptl_absorpt_coefficient_mu    13.514
_exptl_absorpt_correction_T_max  0.7456
_exptl_absorpt_correction_T_min  0.3650
_exptl_absorpt_correction_type   multi-scan
_exptl_absorpt_process_details
;
 SADABS 2016/2: Krause, L., Herbst-Irmer, R., Sheldrick G.M. & Stalke D.,
 J. Appl. Cryst. 48 (2015) 3-10
;
_exptl_crystal_colour            orange
_exptl_crystal_density_diffrn    4.316
_exptl_crystal_description       prism
_exptl_crystal_F_000             904
_exptl_crystal_size_max          0.08
_exptl_crystal_size_mid          0.06
_exptl_crystal_size_min          0.04
_refine_diff_density_max         1.753
_refine_diff_density_min         -1.717
_refine_diff_density_rms         0.335
_refine_ls_extinction_coef       0.0069(3)
_refine_ls_extinction_expression Fc^*^=kFc[1+0.001xFc^2^\l^3^/sin(2\q)]^-1/4^
_refine_ls_extinction_method     'SHELXL-2017/1 (Sheldrick 2017)'
_refine_ls_goodness_of_fit_ref   1.054
_refine_ls_hydrogen_treatment    undef
_refine_ls_matrix_type           full
_refine_ls_number_parameters     110
_refine_ls_number_reflns         1792
_refine_ls_number_restraints     0
_refine_ls_restrained_S_all      1.054
_refine_ls_R_factor_all          0.0284
_refine_ls_R_factor_gt           0.0261
_refine_ls_shift/su_max          0.001
_refine_ls_shift/su_mean         0.000
_refine_ls_structure_factor_coef Fsqd
_refine_ls_weighting_details
'w=1/[\s^2^(Fo^2^)+(0.0431P)^2^+1.4907P] where P=(Fo^2^+2Fc^2^)/3'
_refine_ls_weighting_scheme      calc
_refine_ls_wR_factor_gt          0.0682
_refine_ls_wR_factor_ref         0.0708
_reflns_Friedel_coverage         0.000
_reflns_number_gt                1666
_reflns_number_total             1792
_reflns_threshold_expression     'I > 2\s(I)'
_cod_data_source_file            ja7b09474_si_001.cif
_cod_data_source_block           b_a
_cod_original_cell_volume        778.5(6)
_cod_database_code               4127113
_shelx_shelxl_version_number     2017/1
_shelx_space_group_comment
;
The symmetry employed for this shelxl refinement is uniquely defined
by the following loop, which should always be used as a source of
symmetry information in preference to the above space-group names.
They are only intended as comments.
;
_shelx_res_file
;
TITL b_a.res in P2(1)/c
    b_a.res
    created by SHELXL-2017/1 at 23:41:54 on 30-Aug-2017
CELL  0.71073   9.3239   7.5002  11.1344   90.000   91.235   90.000
ZERR    2.000   0.0039   0.0031   0.0047    0.000    0.009    0.000
LATT  1
SYMM -X, 1/2+Y, 1/2-Z
SFAC CR CS O PR
UNIT 8 4 32 4
ACTA
TEMP -273.150
L.S. 10
BOND $H
LIST 6
FMAP 2
PLAN 20
WGHT    0.043100    1.490700
EXTI    0.006869
FVAR       0.25961
PR1   4    0.448783    0.164152    0.654720    11.00000    0.00996    0.00979 =
         0.00980    0.00070   -0.00030    0.00086
CS1   2   -0.069714    0.345705    0.657476    11.00000    0.01714    0.02263 =
         0.01900    0.00255   -0.00062   -0.00319
CR1   1    0.238409    0.329544    0.917120    11.00000    0.01102    0.01182 =
         0.00966   -0.00022   -0.00041   -0.00102
O1    3    0.098367    0.444856    0.885739    11.00000    0.02572    0.03112 =
         0.02774   -0.00158   -0.00888    0.01127
CR2   1    0.672679    0.338492    0.388886    11.00000    0.00958    0.00918 =
         0.00855   -0.00034   -0.00069   -0.00102
O2    3    0.223457    0.227306    1.047274    11.00000    0.02076    0.02575 =
         0.01382    0.00626   -0.00042   -0.00297
O3    3    0.383979    0.455620    0.945368    11.00000    0.02222    0.02228 =
         0.01869   -0.00293    0.00178   -0.01080
O4    3    0.268292    0.185078    0.807346    11.00000    0.02444    0.01829 =
         0.01842   -0.00561    0.00603   -0.00474
O6    3    0.843841    0.360651    0.387459    11.00000    0.01198    0.02089 =
         0.01919   -0.00281   -0.00121    0.00027
O5    3    0.618695    0.324448    0.527186    11.00000    0.02212    0.01980 =
         0.01278   -0.00125    0.00439   -0.00583
O7    3    0.587633    0.503599    0.314063    11.00000    0.01791    0.01073 =
         0.01561    0.00024   -0.00534    0.00153
O8    3    0.626617    0.158184    0.308920    11.00000    0.02219    0.01226 =
         0.01542   -0.00290    0.00034   -0.00351
HKLF 4




REM  b_a.res in P2(1)/c
REM R1 =  0.0261 for    1666 Fo > 4sig(Fo)  and  0.0284 for all    1792 data
REM    110 parameters refined using      0 restraints

END

WGHT      0.0318      1.5273

REM Highest difference peak  1.753,  deepest hole -1.717,  1-sigma level  0.335
Q1    1   0.4940  0.2407  0.6186  11.00000  0.05    1.75
Q2    1   0.4971  0.0908  0.6189  11.00000  0.05    1.71
Q3    1  -0.0175  0.2748  0.6280  11.00000  0.05    1.64
Q4    1   0.4029  0.2399  0.6897  11.00000  0.05    1.58
Q5    1  -0.1193  0.2751  0.6863  11.00000  0.05    1.50
Q6    1   0.4056  0.0924  0.6899  11.00000  0.05    1.50
Q7    1  -0.0165  0.4070  0.6204  11.00000  0.05    1.42
Q8    1  -0.1215  0.4136  0.6952  11.00000  0.05    1.11
Q9    1   0.5634  0.3090  0.5829  11.00000  0.05    0.96
Q10   1   0.2930  0.2529  0.8512  11.00000  0.05    0.94
Q11   1   0.3585  0.1694  0.8532  11.00000  0.05    0.87
Q12   1   0.6315  0.3323  0.5557  11.00000  0.05    0.83
Q13   1   0.7376  0.2507  0.3427  11.00000  0.05    0.80
Q14   1   0.7584  0.2823  0.3581  11.00000  0.05    0.80
Q15   1   0.5963  0.2240  0.5622  11.00000  0.05    0.77
Q16   1   0.4445  0.5209  0.9114  11.00000  0.05    0.75
Q17   1   0.1418  0.3292  1.0857  11.00000  0.05    0.71
Q18   1   0.7585  0.3915  0.3620  11.00000  0.05    0.69
Q19   1   0.0588  0.1796  0.6187  11.00000  0.05    0.67
Q20   1   0.7328  0.4101  0.3471  11.00000  0.05    0.67
;
_shelx_res_checksum              49570
_shelx_hkl_file
;
  -2   0   0  852.81   53.09
  -2   0   0  938.81   53.09
   2   0   0 1010.20   53.09
   2   0   0  975.90   53.09
  -3   0   0    7.90    2.90
  -3   0   0    6.20    1.20
   3   0   0    4.90    1.30
   3   0   0    8.00    1.40
   3   0   0    6.20    2.50
  -4   0   0    8.90    1.50
  -4   0   0    7.70    1.60
   4   0   0    3.10    3.10
   4   0   0    5.70    1.50
  -5   0   0  170.78    9.90
  -5   0   0  159.08   10.10
   5   0   0  168.28   10.40
   5   0   0  141.69   12.30
  -6   0   0 2184.18  122.19
  -6   0   0 2198.48  121.99
   6   0   0 2206.58  122.59
   6   0   0 2096.19  124.99
  -7   0   0  309.27   18.20
  -7   0   0  318.77   18.00
   7   0   0  278.97   21.60
  -8   0   0 1616.84   92.19
  -8   0   0 1652.23   92.49
   8   0   0 1689.23   93.29
   8   0   0 1581.04   96.09
  -9   0   0  449.86   25.70
  -9   0   0  435.46   25.40
   9   0   0  447.46   26.90
   9   0   0  402.06   30.00
 -10   0   0 1348.67   77.39
 -10   0   0 1365.46   77.59
  10   0   0 1400.86   79.09
  10   0   0 1352.16   81.89
 -11   0   0  147.59    9.90
  11   0   0  143.39   13.10
  11   0   0  122.69   16.50
 -12   0   0    3.80    2.70
  12   0   0   -2.10    8.50
  12   0   0   12.60    9.20
  12  -1   0  383.76   33.80
  12  -1   0  375.16   32.60
 -12   1   0  446.06   24.90
  11  -1   0   33.40    6.30
  11  -1   0   25.70    9.70
 -11   1   0   28.30    3.80
 -11   1   0   36.70    4.80
  10  -1   0  265.27   23.20
  10  -1   0  271.57   18.70
 -10   1   0  284.07   16.90
 -10   1   0  271.97   16.80
   9  -1   0  654.33   39.40
  -9   1   0  668.93   38.20
  -9   1   0  661.13   38.20
   8  -1   0   70.39   10.80
   8  -1   0   74.39    7.10
  -8   1   0   81.99    5.90
  -8   1   0   83.49    5.90
   7  -1   0    0.10    5.10
   7  -1   0    1.80    2.00
  -7   1   0    2.60    1.40
  -7   1   0    0.90    1.50
   6  -1   0 1545.55   86.09
   6  -1   0 1475.95   88.59
  -6   1   0 1563.64   85.59
  -6   1   0 1474.35   85.49
   5  -1   0 2108.19  119.39
   5  -1   0 2065.29  117.09
  -5   1   0 2036.90  116.69
  -5   1   0 2094.69  116.79
   4  -1   0 5967.30  300.07
  -4   1   0 4864.61  299.67
  -4   1   0 5247.58  299.87
   3  -1   0 1138.59   56.89
   3  -1   0  930.21   55.39
  -3   1   0  948.01   55.09
  -3   1   0  910.01   55.29
   2  -1   0 1087.89   61.69
   2  -1   0 1098.59   61.79
   2  -1   0 1218.68   62.49
  -2   1   0 1070.29   61.69
  -2   1   0 1004.20   61.39
   1  -1   0   11.30    1.10
   1  -1   0   11.30    0.80
   1  -1   0   14.40    1.30
   1  -1   0   12.10    0.90
  -1   1   0   12.30    1.20
  -1   1   0   10.40    1.10
  -1   1   0   11.20    0.80
  -1   1   0   11.90    0.90
   0  -1   0   -4.80    0.10
   0  -1   0   -4.70    0.30
   0  -1   0   -4.20    0.30
   0   1   0   -4.50    0.20
   0   1   0   -4.40    0.40
  -1  -1   0   12.30    1.20
  -1  -1   0    9.30    1.10
  -1  -1   0    8.10    0.90
   1   1   0   10.50    1.00
   1   1   0   12.20    0.90
   1   1   0    9.80    1.10
  -2  -1   0 1155.98   60.79
  -2  -1   0 1068.29   60.39
  -2  -1   0 1100.59   61.39
   2   1   0  993.50   60.39
   2   1   0 1015.40   60.89
   2   1   0 1081.89   61.39
   2   1   0 1149.78   60.89
  -3  -1   0  978.80   53.89
   3   1   0  957.10   55.39
   3   1   0  900.61   53.99
   3   1   0 1012.60   54.39
  -4  -1   0 5064.69  322.67
   4   1   0 6383.66  322.97
   4   1   0 5719.63  324.37
   4   1   0 5924.11  323.07
  -5  -1   0 1916.11  105.79
  -5  -1   0 1796.32  106.29
   5   1   0 1964.90  106.59
   5   1   0 1873.51  108.29
  -6  -1   0 1405.76   79.49
  -6  -1   0 1416.36   78.99
   6   1   0 1441.66   79.89
   6   1   0 1355.56   81.89
  -7  -1   0    3.10    1.50
  -7  -1   0    1.60    1.10
   7   1   0    3.40    4.20
  -8  -1   0   77.69    5.70
  -8  -1   0   76.99    5.30
   8   1   0   81.29    7.20
   8   1   0   76.79   10.10
  -9  -1   0  650.13   37.10
  -9  -1   0  640.24   36.40
   9   1   0  639.64   38.10
   9   1   0  621.14   40.90
 -10  -1   0  279.17   16.50
  10   1   0  255.07   20.80
  10   1   0  259.57   18.10
 -11  -1   0   26.60    3.70
  11   1   0   28.80    6.50
  11   1   0   41.80    9.10
 -12  -1   0  427.66   25.70
  12   1   0  404.06   29.50
  12   1   0  444.86   31.60
  11  -2   0   26.40    5.70
  11  -2   0   33.40   10.60
 -11   2   0   29.60    4.10
 -11   2   0   24.80    3.40
  10  -2   0  400.36   31.60
  10  -2   0  419.16   26.90
 -10   2   0  432.16   25.40
 -10   2   0  441.46   25.20
   9  -2   0  168.38   12.70
   9  -2   0  137.79   17.60
  -9   2   0  172.78   10.70
  -9   2   0  164.98   11.00
   8  -2   0  273.27   22.60
   8  -2   0  293.17   18.60
  -8   2   0  295.57   17.40
  -8   2   0  294.27   17.70
   7  -2   0   47.80    8.60
   7  -2   0   46.40    5.50
  -7   2   0   42.10    5.00
   6  -2   0  174.08   11.70
   6  -2   0  170.18   15.10
  -6   2   0  187.18   11.20
  -6   2   0  169.98   10.80
   5  -2   0   43.90    6.40
   5  -2   0   44.00    4.60
  -5   2   0   49.50    3.80
  -5   2   0   51.29    4.00
   4  -2   0  407.96   24.20
   4  -2   0  432.46   25.80
  -4   2   0  395.26   24.00
  -4   2   0  411.26   23.60
   3  -2   0   14.80    1.90
   3  -2   0    9.20    1.80
   3  -2   0   10.70    2.70
  -3   2   0   10.40    1.30
  -3   2   0    8.40    1.50
   2  -2   0    5.50    0.80
   2  -2   0    2.80    1.10
  -2   2   0    3.60    0.60
  -2   2   0    3.30    1.00
  -2   2   0    1.60    0.60
   1  -2   0   79.29    5.30
   1  -2   0   73.19    4.70
  -1   2   0   79.39    4.60
  -1   2   0   85.89    4.90
  -1   2   0   78.89    5.20
   0  -2   0 3074.99  184.08
   0  -2   0 3338.27  183.98
   0  -2   0 3472.45  184.38
   0   2   0 3249.77  184.08
   0   2   0 3285.47  184.38
  -1  -2   0   65.49    4.60
   1   2   0   81.89    4.80
   1   2   0   80.69    4.90
  -2  -2   0    2.80    1.00
  -2  -2   0    3.70    0.90
  -2  -2   0    1.10    0.70
   2   2   0    3.00    1.00
   2   2   0    1.40    0.90
  -3  -2   0    8.50    1.50
   3   2   0   12.30    2.00
   3   2   0    8.80    2.00
   3   2   0   10.50    0.90
   3   2   0   11.40    1.30
  -4  -2   0  323.47   22.00
   4   2   0  421.06   22.50
   4   2   0  398.66   23.40
  -5  -2   0   37.00    3.70
   5   2   0   53.09    3.20
   5   2   0   47.10    4.50
   5   2   0   43.50    5.40
  -6  -2   0  157.38   10.90
   6   2   0  153.38   12.80
   6   2   0  200.38   10.40
   6   2   0  173.78   11.40
  -7  -2   0   40.30    2.90
  -7  -2   0   39.80    3.80
   7   2   0   44.20    6.60
   7   2   0   47.40    4.60
  -8  -2   0  267.17   15.40
  -8  -2   0  294.07   16.60
   8   2   0  260.37   17.50
   8   2   0  249.97   19.70
  -9  -2   0  167.48   10.80
   9   2   0  152.18   14.90
   9   2   0  167.68   12.50
 -10  -2   0  436.86   24.90
  10   2   0  406.46   28.70
  10   2   0  395.76   26.40
 -11  -2   0   27.30    3.70
  11   2   0   27.20    8.00
  11   2   0   24.90    6.60
  11  -3   0   17.90    7.40
 -11   3   0   41.60    4.60
 -11   3   0   26.60    4.40
  10  -3   0   -0.30    4.90
  10  -3   0   15.00   10.60
 -10   3   0    6.30    2.40
 -10   3   0    5.70    2.70
   9  -3   0    9.30    4.30
   9  -3   0   -4.30    8.40
  -9   3   0    2.80    2.50
  -9   3   0    8.30    2.30
   8  -3   0    7.80    7.50
   8  -3   0   12.90    3.50
  -8   3   0    5.90    2.50
  -8   3   0   10.80    2.20
   7  -3   0    5.40    3.00
   7  -3   0   -5.50    5.60
  -7   3   0    1.80    1.70
  -7   3   0    3.70    2.10
   6  -3   0   16.80    6.30
   6  -3   0   21.80    3.70
  -6   3   0   17.90    2.40
  -6   3   0   19.60    2.80
   5  -3   0   24.60    5.70
   5  -3   0   27.30    3.80
  -5   3   0   35.20    2.90
  -5   3   0   34.80    3.50
   4  -3   0   58.09    4.70
   4  -3   0   65.29    7.00
  -4   3   0   37.10    4.10
  -4   3   0   43.90    3.40
   3  -3   0   33.10    3.60
   3  -3   0   41.90    5.10
  -3   3   0   33.10    3.50
  -3   3   0   36.80    2.60
  -3   3   0   37.80    2.90
   2  -3   0  121.69    8.20
   2  -3   0  131.99    7.20
  -2   3   0  115.39    8.00
  -2   3   0  117.99    7.20
  -2   3   0  133.09    7.60
   1  -3   0   96.19    6.60
   1  -3   0   98.19    5.60
  -1   3   0   97.19    6.00
  -1   3   0   91.59    5.60
   0  -3   0   -7.70    1.10
   0   3   0   -6.60    0.70
  -1  -3   0   89.59    5.70
  -1  -3   0  103.19    6.30
   1   3   0   92.79    6.10
   1   3   0   94.09    6.20
  -2  -3   0  121.19    7.20
  -2  -3   0  103.29    6.80
   2   3   0  114.59    7.40
   2   3   0  107.39    6.90
  -3  -3   0   36.40    3.10
  -3  -3   0   31.10    2.90
   3   3   0   36.00    3.70
   3   3   0   33.00    2.30
   3   3   0   30.30    2.60
  -4  -3   0   34.80    3.50
   4   3   0   40.50    4.80
   4   3   0   48.30    2.80
   4   3   0   41.00    2.90
  -5  -3   0   27.20    3.20
   5   3   0   27.70    3.60
   5   3   0   29.30    4.50
  -6  -3   0   11.80    2.10
   6   3   0   14.60    3.50
   6   3   0   15.70    3.80
  -7  -3   0    1.70    1.80
   7   3   0    4.90    3.20
   7   3   0    5.70    3.60
  -8  -3   0   21.30    3.10
   8   3   0    9.40    3.70
   8   3   0   11.00    4.70
  -9  -3   0    4.60    2.30
   9   3   0    9.60    5.10
   9   3   0    6.70    4.60
 -10  -3   0    5.60    2.50
  10   3   0    5.90    4.50
  10   3   0    5.30    6.60
 -11  -3   0   26.50    4.10
  11   3   0   33.00    7.40
  11   3   0   28.00    9.50
  11  -4   0   69.59    9.40
 -11   4   0   86.49    6.60
 -11   4   0   69.09    7.50
  10  -4   0  422.36   29.00
 -10   4   0  469.75   26.50
 -10   4   0  445.16   27.20
   9  -4   0   40.40   12.50
   9  -4   0   64.89    8.10
  -9   4   0   75.39    5.60
  -9   4   0   68.59    6.70
   8  -4   0  736.63   47.70
   8  -4   0  667.23   43.00
  -8   4   0  768.42   41.50
  -8   4   0  717.23   42.30
   7  -4   0   84.79    8.00
   7  -4   0   91.39   13.80
  -7   4   0   87.39    7.10
  -7   4   0   95.59    6.50
   6  -4   0  212.28   18.80
   6  -4   0  232.28   15.80
  -6   4   0  272.97   15.50
  -6   4   0  237.88   14.40
   5  -4   0  270.97   19.90
   5  -4   0  264.97   17.50
  -5   4   0  265.57   17.10
  -5   4   0  296.07   16.20
   4  -4   0    7.20    4.00
  -4   4   0   -0.90    1.00
   3  -4   0   -0.50    1.70
   3  -4   0    0.50    0.60
  -3   4   0    0.40    1.10
  -3   4   0    0.10    1.40
   2  -4   0  531.05   28.70
   2  -4   0  507.15   30.00
  -2   4   0  467.75   29.70
  -2   4   0  529.15   29.20
   1  -4   0    1.70    0.50
   1  -4   0   -1.30    1.50
  -1   4   0    1.40    0.90
  -1   4   0    2.60    1.60
   0  -4   0 3459.15  189.88
   0  -4   0 3528.75  188.88
   0   4   0 3143.39  189.68
   0   4   0 3383.56  189.38
  -1  -4   0    0.70    1.20
  -1  -4   0    1.10    0.70
   1   4   0    1.60    1.40
   1   4   0    2.20    1.00
  -2  -4   0  467.15   26.20
  -2  -4   0  479.75   26.70
   2   4   0  483.05   26.90
   2   4   0  402.26   26.40
  -3  -4   0    2.00    1.20
  -3  -4   0    0.80    1.30
   3   4   0   -1.30    1.20
   3   4   0    0.60    1.30
  -4  -4   0    2.80    1.70
  -4  -4   0   -0.10    1.20
   4   4   0    2.10    1.20
   4   4   0    3.90    1.00
  -5  -4   0  262.57   15.80
   5   4   0  258.17   17.20
  -6  -4   0  211.68   13.00
   6   4   0  195.68   14.70
   6   4   0  208.48   14.20
  -7  -4   0   75.19    6.20
   7   4   0   87.89    8.70
   7   4   0   82.19    8.20
  -8  -4   0  675.43   38.70
   8   4   0  642.44   39.90
   8   4   0  670.83   41.60
  -9  -4   0   73.59    6.40
   9   4   0   59.49    8.10
   9   4   0   58.49    9.20
  10   4   0  433.66   28.70
  10   4   0  352.36   25.80
 -11  -4   0   77.89    7.40
  11   4   0   78.59   12.10
  11   4   0   72.79   10.20
  10  -5   0  229.48   17.40
 -10   5   0  185.88   14.80
   9  -5   0  443.56   30.70
  -9   5   0  481.15   29.70
  -9   5   0  533.55   28.60
   8  -5   0    9.40   10.50
   8  -5   0    9.60    4.80
  -8   5   0   18.20    2.70
  -8   5   0   13.10    3.30
   7  -5   0   40.30    9.70
   7  -5   0   57.49    7.30
  -7   5   0   57.69    6.20
  -7   5   0   69.59    5.30
   6  -5   0 1158.28   73.49
   6  -5   0 1173.88   70.79
  -6   5   0 1214.08   70.39
  -6   5   0 1336.37   69.19
   5  -5   0  907.81   52.99
   5  -5   0  878.91   50.79
  -5   5   0  802.32   50.19
  -5   5   0  877.91   49.00
   4  -5   0 3992.90  224.38
   4  -5   0 4389.76  225.98
  -4   5   0 4179.08  223.18
  -4   5   0 3565.54  223.78
  -4   5   0 3783.22  222.58
   3  -5   0  296.37   17.00
   3  -5   0  294.27   18.80
  -3   5   0  317.37   17.80
  -3   5   0  284.87   18.40
   2  -5   0  820.12   45.70
   2  -5   0  814.92   47.30
  -2   5   0  802.62   46.30
   1  -5   0  177.38   10.00
  -1   5   0  166.58   11.30
  -1   5   0  173.18   10.60
   0  -5   0    4.70    2.40
   0   5   0    9.20    1.70
   0   5   0    7.40    2.20
  -1  -5   0  174.58   10.20
  -1  -5   0  181.58   11.30
   1   5   0  182.88   11.10
   1   5   0  152.18   11.10
  -2  -5   0  679.03   40.30
  -2  -5   0  746.83   39.20
   2   5   0  642.54   39.80
  -3  -5   0  251.37   17.00
  -3  -5   0  288.17   16.20
   3   5   0  268.07   16.50
   3   5   0  284.77   17.30
  -4  -5   0 3224.58  195.88
   4   5   0 3622.04  195.48
   4   5   0 3612.24  196.88
  -5  -5   0  718.63   47.00
  -5  -5   0  850.01   46.90
   5   5   0  753.52   48.20
   5   5   0  935.31   46.30
  -6  -5   0 1079.99   65.09
  -6  -5   0 1221.88   65.09
   6   5   0 1109.59   66.79
  -7  -5   0   53.79    5.30
  -7  -5   0   52.09    5.30
   7   5   0   53.49    7.50
  -8  -5   0    7.40    3.00
  -8  -5   0   17.30    3.30
   8   5   0   11.60    5.50
  -9  -5   0  387.86   26.80
  -9  -5   0  482.25   26.80
   9   5   0  460.95   30.70
 -10  -5   0  150.58   12.80
 -10  -5   0  196.88   12.60
  10   5   0  187.88   17.90
   9  -6   0  346.67   23.50
  -9   6   0  329.97   21.80
   8  -6   0  930.61   55.19
  -8   6   0  915.61   54.19
   7  -6   0   19.60    5.20
  -7   6   0   15.80    3.90
   6  -6   0  567.44   40.50
   6  -6   0  593.24   37.40
  -6   6   0  662.33   35.50
  -6   6   0  612.84   36.70
   5  -6   0  100.99   12.50
   5  -6   0   64.09    8.90
  -5   6   0   92.49    5.90
  -5   6   0   82.89    7.80
   4  -6   0   35.90    5.60
  -4   6   0   39.40    3.30
  -4   6   0   36.50    4.90
  -4   6   0   47.90    4.30
   3  -6   0    2.50    0.90
   3  -6   0   -5.90    3.00
  -3   6   0    3.40    2.40
  -3   6   0    1.90    1.70
   2  -6   0  543.95   31.40
   2  -6   0  506.85   29.20
  -2   6   0  525.45   30.00
  -2   6   0  493.65   31.00
   1  -6   0  410.16   22.30
   1  -6   0  402.96   24.30
  -1   6   0  396.86   24.10
  -1   6   0  360.76   23.80
   0  -6   0 5528.05  326.77
   0  -6   0 5901.21  325.27
   0   6   0 6030.00  326.17
  -1  -6   0  413.46   24.20
  -1  -6   0  419.66   22.70
   1   6   0  356.56   23.90
   1   6   0  391.96   23.60
  -2  -6   0  489.75   29.00
  -2  -6   0  483.95   27.80
   2   6   0  498.35   28.90
   2   6   0  467.55   28.80
  -3  -6   0    0.00    1.40
  -3  -6   0    2.00    2.00
   3   6   0   -3.40    1.80
   3   6   0    3.20    2.60
  -4  -6   0   52.89    4.50
   4   6   0   61.29    6.10
   4   6   0   45.60    5.30
  -5  -6   0   76.49    6.60
  -5  -6   0   80.59    6.30
   5   6   0   76.69    7.90
  -6  -6   0  557.44   30.10
  -6  -6   0  471.65   30.30
   6   6   0  494.55   31.90
  -7  -6   0   19.40    3.50
  -7  -6   0   12.40    3.70
   7   6   0   14.60    5.10
  -8  -6   0  841.22   46.30
  -8  -6   0  749.23   46.50
   8   6   0  786.42   49.10
  -9  -6   0  306.87   18.60
  -9  -6   0  256.07   18.70
   9   6   0  311.17   22.90
   8  -7   0   58.69    8.80
  -8   7   0   55.79    8.00
  -7   7   0    1.10    4.30
   6  -7   0  439.96   37.30
   6  -7   0  514.95   32.00
  -6   7   0  511.25   30.70
   5  -7   0  697.33   41.90
   5  -7   0  655.13   44.20
  -5   7   0  699.73   41.10
   4  -7   0 1449.55   80.49
  -4   7   0 1358.26   79.79
  -4   7   0 1341.77   78.49
   3  -7   0   -7.70    3.30
  -3   7   0    1.80    2.00
  -3   7   0    0.10    2.90
   2  -7   0  157.38   11.70
   2  -7   0  139.49    8.50
  -2   7   0  143.49    9.60
  -2   7   0  141.89   10.80
   1  -7   0   40.80    3.00
   1  -7   0   36.40    5.50
  -1   7   0   39.00    4.10
  -1   7   0   44.50    6.30
   0  -7   0    5.60    3.40
   0  -7   0    1.20    1.20
   0   7   0   13.10    2.50
   0   7   0    0.80    3.30
  -1  -7   0   42.60    3.40
  -1  -7   0   42.90    5.90
   1   7   0   32.40    5.10
   1   7   0   43.40    4.30
  -2  -7   0  136.69   10.70
  -2  -7   0  140.49    8.70
   2   7   0  131.89    9.70
  -3  -7   0    2.00    1.60
  -3  -7   0    3.60    2.80
   3   7   0    1.80    2.40
  -4  -7   0 1262.47   72.89
  -4  -7   0 1224.68   74.09
   4   7   0 1361.56   74.49
   4   7   0 1301.27   74.69
  -5  -7   0  650.83   36.80
  -5  -7   0  611.54   37.60
   5   7   0  637.04   38.80
  -6  -7   0  423.26   27.20
  -6  -7   0  461.85   26.40
   6   7   0  440.36   28.60
  -7  -7   0    2.30    3.80
  -7  -7   0    2.50    2.90
   7   7   0   -9.00    5.70
  -8  -7   0   37.30    5.90
   8   7   0   47.80    8.20
   6  -8   0   25.30    6.90
  -6   8   0   12.60    4.50
  -5   8   0    0.30    6.10
   4  -8   0   55.59    7.80
  -4   8   0   73.09    8.00
  -4   8   0   61.19    6.10
   3  -8   0   -1.90    4.20
  -3   8   0    0.80    2.40
  -3   8   0    8.60    4.30
   2  -8   0    0.00    4.60
  -2   8   0    4.40    4.50
  -2   8   0    1.90    2.20
   1  -8   0  115.39   11.60
  -1   8   0  130.99    9.20
  -1   8   0  133.59   11.00
   0  -8   0  276.17   19.10
   0   8   0  272.67   17.30
   0   8   0  274.77   18.80
  -1  -8   0  132.19   11.30
  -1  -8   0  134.69    8.60
   1   8   0  142.79   10.10
   1   8   0  133.29   11.40
  -2  -8   0    3.50    4.20
  -2  -8   0   -4.20    1.70
   2   8   0    9.50    4.30
   2   8   0    1.70    2.50
  -3  -8   0   -0.10    2.00
  -3  -8   0    4.10    3.90
   3   8   0    6.20    4.50
   3   8   0    0.70    3.10
  -4  -8   0   72.59    5.90
  -4  -8   0   74.29    8.60
   4   8   0   66.59    7.40
  -5  -8   0    4.80    2.60
  -5  -8   0   11.40    4.80
   5   8   0    4.80    4.50
  -6  -8   0   14.60    3.60
  -6  -8   0   26.90    5.70
   6   8   0   17.00    6.10
   4  -9   0  154.38   15.00
  -4   9   0  208.08   15.90
   3  -9   0   14.60    6.10
  -3   9   0   10.40    7.00
  -3   9   0    8.60    3.30
   2  -9   0   75.79    9.80
  -2   9   0   84.59    7.80
  -2   9   0   83.39   10.70
  -1   9   0   74.29    9.70
  -1   9   0   51.89    6.50
   0   9   0   -1.80    2.90
   0   9   0    5.00    5.10
  -1  -9   0   46.90    9.90
   1   9   0   44.40    6.30
   1   9   0   56.09    7.80
   2   9   0   76.59   10.50
   2   9   0   72.89    7.90
  -3  -9   0   10.50    6.40
   3   9   0   12.40    5.20
  -4  -9   0  170.88   14.80
   4   9   0  177.68   14.10
   4   9  -1    3.70    4.40
  -4  -9   1    8.30    3.00
  -4  -9   1   -2.80    5.30
   3   9  -1  114.29   11.40
   2   9  -1    1.20    5.60
   2   9  -1    5.70    3.90
  -2  -9   1   -1.90    4.40
   1   9  -1   96.79    8.70
   1   9  -1  109.29   11.30
  -1  -9   1   92.19   10.10
   0   9  -1   87.19    7.80
   0   9  -1   84.09   10.40
   0  -9   1   71.59    9.50
  -1   9  -1  337.57   23.20
  -1   9  -1  330.57   21.10
  -2   9  -1   60.29    8.50
  -2   9  -1   63.39    6.60
   2  -9   1   33.50    8.00
  -3   9  -1 1996.40  108.59
  -3   9  -1 1771.42  106.09
   3  -9   1 1846.72  108.39
  -4   9  -1  612.74   37.40
   4  -9   1  576.04   38.10
   6   8  -1  252.77   19.30
  -6  -8   1  264.97   18.00
  -6  -8   1  247.38   16.10
   5   8  -1  205.98   15.90
  -5  -8   1  216.48   15.70
  -5  -8   1  216.78   13.70
   4   8  -1   36.20    5.90
  -4  -8   1   38.90    4.50
  -4  -8   1   33.60    6.00
   3   8  -1  544.35   34.60
   3   8  -1  599.14   35.00
  -3  -8   1  573.04   35.10
  -3  -8   1  567.74   33.00
   2   8  -1   97.99    8.20
   2   8  -1  103.39    9.80
  -2  -8   1  102.29    9.60
  -2  -8   1   92.39    6.70
   1   8  -1 2378.56  145.19
   1   8  -1 2657.23  144.59
  -1  -8   1 2571.44  145.39
  -1  -8   1 2600.44  143.29
   0   8  -1   44.10    6.10
   0   8  -1   30.50    4.40
   0  -8   1   33.30    6.30
   0  -8   1   30.90    3.40
  -1   8  -1  124.19    8.90
  -1   8  -1  114.69   10.90
   1  -8   1  120.59   11.30
  -2   8  -1    0.60    2.20
  -2   8  -1    4.60    4.10
   2  -8   1   -4.60    4.80
  -3   8  -1   22.00    4.90
   3  -8   1   22.50    5.70
  -4   8  -1   21.90    5.10
  -4   8  -1   19.40    3.40
   4  -8   1   17.40    5.70
  -6   8  -1   52.99    7.50
   6  -8   1   47.50    8.80
   8   7  -1   12.80    6.30
  -8  -7   1   23.40    4.20
  -8  -7   1   17.10    4.90
   7   7  -1  238.28   19.00
  -7  -7   1  234.38   16.60
  -7  -7   1  255.57   15.80
   6   7  -1   24.90    5.80
  -6  -7   1   33.50    4.10
   5   7  -1 1043.50   61.69
  -5  -7   1 1044.30   59.59
  -5  -7   1 1043.90   60.59
   4   7  -1  132.59   10.30
   4   7  -1  126.29   10.50
  -4  -7   1  132.89   10.30
  -4  -7   1  130.19    8.70
   3   7  -1  227.28   15.30
   3   7  -1  224.68   15.30
  -3  -7   1  218.68   13.70
  -3  -7   1  231.58   15.40
   2   7  -1   28.10    4.90
   2   7  -1   34.60    4.20
  -2  -7   1   34.10    4.60
  -2  -7   1   35.60    3.50
   1   7  -1   88.09    8.90
   1   7  -1  116.79    8.00
  -1  -7   1  106.29    9.50
  -1  -7   1  107.89    6.90
   0   7  -1   18.00    4.20
   0   7  -1   18.90    3.00
   0  -7   1   18.90    4.70
   0  -7   1   19.50    2.30
  -1   7  -1  423.36   24.50
  -1   7  -1  422.56   25.90
   1  -7   1  423.56   26.10
   1  -7   1  388.76   23.60
  -2   7  -1   49.20    6.10
  -2   7  -1   46.00    4.50
   2  -7   1   42.80    3.40
   2  -7   1   42.80    6.10
  -3   7  -1 1533.65   87.39
  -3   7  -1 1539.35   85.99
   3  -7   1 1570.64   87.89
   3  -7   1 1433.76   85.19
  -4   7  -1  131.99   10.40
   4  -7   1  111.89    7.60
   4  -7   1  137.59   11.00
  -5   7  -1  195.58   14.40
   5  -7   1  214.48   15.50
   5  -7   1  200.68   18.40
  -6   7  -1    7.60    3.80
   6  -7   1    3.50    4.80
  -7   7  -1   25.90    5.00
   7  -7   1   14.00    6.20
  -8   7  -1  183.08   14.50
   8  -7   1  192.38   16.90
   9   6  -1  109.69   12.40
  -9  -6   1   73.19    8.90
  -9  -6   1   97.09    8.30
   8   6  -1   34.20    7.20
  -8  -6   1   37.20    4.80
  -8  -6   1   24.40    4.70
   7   6  -1   16.50    4.80
  -7  -6   1   10.40    3.70
  -7  -6   1    9.00    2.90
   6   6  -1   56.59    7.90
  -6  -6   1   62.79    5.70
  -6  -6   1   50.09    5.90
   5   6  -1    2.00    3.00
   5   6  -1    3.80    3.40
  -5  -6   1    3.50    2.70
  -5  -6   1    2.00    1.90
   4   6  -1    9.10    3.10
   4   6  -1    6.30    3.10
  -4  -6   1    8.50    2.70
  -4  -6   1    7.50    2.00
   3   6  -1   46.00    5.40
   3   6  -1   49.00    5.60
  -3  -6   1   54.09    4.20
  -3  -6   1   52.49    5.10
   2   6  -1   86.29    6.90
   2   6  -1   86.09    7.60
  -2  -6   1   95.79    6.10
  -2  -6   1   88.99    7.50
   1   6  -1  183.18   11.50
   1   6  -1  167.18   12.10
  -1  -6   1  185.08   10.70
  -1  -6   1  170.08   12.40
   0   6  -1    3.70    2.70
   0  -6   1    9.10    1.30
   0  -6   1   11.00    3.60
  -1   6  -1   37.90    3.50
  -1   6  -1   43.40    5.30
   1  -6   1   37.50    2.90
   1  -6   1   31.40    4.80
  -2   6  -1    2.50    1.50
  -2   6  -1    0.40    2.40
   2  -6   1    2.30    0.90
   2  -6   1    1.70    3.30
  -3   6  -1    3.40    2.70
  -3   6  -1    1.80    1.50
   3  -6   1    6.30    1.20
   3  -6   1    1.40    3.00
  -4   6  -1   12.30    3.20
  -4   6  -1   12.00    2.20
   4  -6   1   12.00    1.70
   4  -6   1    9.90    4.10
  -5   6  -1  126.09    7.70
  -5   6  -1  111.99    9.50
   5  -6   1  112.29   10.20
   5  -6   1  118.59   13.30
  -6   6  -1   32.90    3.80
  -6   6  -1   27.20    4.40
   6  -6   1   38.90    5.60
   6  -6   1   26.40    9.00
  -7   6  -1  168.28   10.60
  -7   6  -1  160.08   12.00
   7  -6   1  164.68   14.00
  -8   6  -1    1.00    3.30
   8  -6   1    7.90    6.10
   9  -6   1   20.60    7.20
  10   5  -1  155.28   16.90
 -10  -5   1  129.89   11.30
 -10  -5   1  167.88   11.40
   9   5  -1   81.69   11.10
  -9  -5   1   76.39    7.60
  -9  -5   1   77.99    7.40
   8   5  -1   -2.60    5.40
  -8  -5   1    3.30    2.90
  -8  -5   1   -2.80    2.80
   7   5  -1  192.48   15.00
  -7  -5   1  177.38   12.40
  -7  -5   1  187.18   12.30
   6   5  -1  197.98   14.90
  -6  -5   1  204.98   12.90
  -6  -5   1  198.28   13.10
   5   5  -1  205.88   14.90
   5   5  -1  208.28   13.10
  -5  -5   1  231.18   13.30
  -5  -5   1  205.18   13.50
   4   5  -1    3.20    2.30
   4   5  -1    2.50    2.20
  -4  -5   1    3.10    1.50
  -4  -5   1    2.20    2.00
   3   5  -1    3.60    2.10
   3   5  -1    5.10    2.00
  -3  -5   1    3.20    1.30
  -3  -5   1    3.90    2.10
   2   5  -1    0.90    2.10
   2   5  -1   -0.70    1.40
  -2  -5   1   -0.10    1.00
  -2  -5   1   -0.60    1.60
   1   5  -1   30.20    4.10
  -1  -5   1   33.60    4.10
  -1  -5   1   32.90    2.70
   0   5  -1   19.20    3.20
   0   5  -1   19.20    2.50
   0  -5   1   17.20    3.20
   0  -5   1   20.70    1.90
  -1   5  -1   48.30    4.70
  -1   5  -1   49.70    3.80
   1  -5   1   47.00    3.30
   1  -5   1   69.49    5.90
  -2   5  -1   17.00    2.10
  -2   5  -1   13.20    3.30
   2  -5   1   15.40    1.70
   2  -5   1   11.30    3.00
  -3   5  -1  649.43   36.00
  -3   5  -1  587.94   36.90
   3  -5   1  635.64   37.30
   3  -5   1  640.84   35.60
  -4   5  -1  263.57   14.80
  -4   5  -1  236.78   15.60
   4  -5   1  234.18   14.20
   4  -5   1  286.87   17.90
   4  -5   1  213.38   15.90
  -5   5  -1   92.19    7.60
  -5   5  -1   96.09    6.30
   5  -5   1   95.29   10.80
   5  -5   1   94.49    8.40
  -6   5  -1   21.00    2.50
  -6   5  -1   14.90    3.30
   6  -5   1   16.70    7.10
   6  -5   1   17.40    4.50
  -7   5  -1   17.70    3.60
  -7   5  -1   17.10    2.80
   7  -5   1   17.00    8.90
   7  -5   1   22.40    5.40
  -8   5  -1   10.90    3.20
  -8   5  -1   12.20    2.70
   8  -5   1   11.40    4.70
  -9   5  -1   17.20    3.90
   9  -5   1   12.60    6.00
 -10   5  -1   -6.40    4.00
 -10   5  -1    2.10    2.80
  10  -5   1    4.80    6.70
  11   4  -1  804.62   51.99
 -11  -4   1  804.62   47.00
  10   4  -1  167.78   15.80
  10   4  -1  124.99   13.40
   9   4  -1  517.35   33.60
   9   4  -1  451.95   30.60
  -9  -4   1  507.15   29.40
   8   4  -1   14.70    5.90
   8   4  -1   14.10    4.50
  -8  -4   1   14.10    2.90
   7   4  -1  207.68   15.90
   7   4  -1  198.38   14.40
  -7  -4   1  215.88   13.30
   6   4  -1  352.16   23.50
  -6  -4   1  352.76   21.10
   5   4  -1  638.84   35.70
   5   4  -1  601.84   36.10
  -5  -4   1  644.24   36.60
  -5  -4   1  640.74   36.50
   4   4  -1   29.10    3.60
   4   4  -1   23.70    4.80
  -4  -4   1   30.10    3.30
  -4  -4   1   28.10    3.10
   3   4  -1  742.03   43.30
   3   4  -1  751.72   44.00
  -3  -4   1  764.02   43.20
  -3  -4   1  759.82   43.00
   2   4  -1  335.37   19.60
   2   4  -1  328.17   19.40
  -2  -4   1  322.67   19.20
  -2  -4   1  311.67   18.70
   1   4  -1 4313.97  233.88
   1   4  -1 4414.16  233.68
  -1  -4   1 4064.39  233.08
  -1  -4   1 3877.51  233.68
   0   4  -1  200.58   12.70
   0   4  -1  205.88   12.20
   0  -4   1  208.88   11.70
   0  -4   1  190.28   12.60
  -1   4  -1  334.37   20.00
  -1   4  -1  332.47   19.30
   1  -4   1  339.27   20.10
   1  -4   1  327.67   18.90
  -2   4  -1    2.00    1.50
  -2   4  -1    1.00    0.90
   2  -4   1    1.40    0.70
   2  -4   1    1.30    1.90
  -3   4  -1    3.00    1.70
   3  -4   1    3.50    0.80
   3  -4   1    2.50    2.00
  -4   4  -1    1.40    2.10
  -4   4  -1    9.00    1.40
   4  -4   1    8.40    4.00
   4  -4   1    8.80    1.10
   4  -4   1    4.80    2.20
  -5   4  -1  601.14   36.10
  -5   4  -1  623.54   35.30
   5  -4   1  617.24   36.70
   5  -4   1  633.94   38.10
  -6   4  -1   26.70    3.70
  -6   4  -1   22.40    3.00
   6  -4   1   27.40    6.70
   6  -4   1   27.30    4.50
  -7   4  -1 1639.54   95.09
  -7   4  -1 1690.03   95.99
   7  -4   1 1742.03   98.79
   7  -4   1 1675.33   96.59
  -8   4  -1  658.13   38.90
  -8   4  -1  712.33   38.30
   8  -4   1  625.34   42.50
   8  -4   1  641.44   39.70
  -9   4  -1  740.83   44.20
  -9   4  -1  753.82   43.50
   9  -4   1  773.42   45.70
 -10   4  -1   47.20    5.10
 -10   4  -1   44.30    6.00
  10  -4   1   49.90    7.50
  11  -4   1    6.60    6.20
  11   3  -1   18.40    6.50
  10   3  -1  992.30   64.89
  10   3  -1 1151.38   68.49
 -10  -3   1 1196.48   63.99
   9   3  -1  174.98   13.60
   9   3  -1  172.28   15.80
  -9  -3   1  183.58   11.80
   8   3  -1   15.40    3.90
  -8  -3   1   16.10    2.80
   7   3  -1 1177.38   67.79
  -7  -3   1 1179.58   67.09
   6   3  -1  620.04   34.10
   6   3  -1  586.64   36.70
   6   3  -1  602.34   34.70
  -6  -3   1  546.85   34.10
   5   3  -1 4483.05  243.28
   5   3  -1 4490.15  242.58
   5   3  -1 4258.07  243.68
  -5  -3   1 4127.99  243.28
   4   3  -1  364.76   22.30
   4   3  -1  384.46   21.50
   4   3  -1  369.56   22.10
   4   3  -1  377.26   23.50
  -4  -3   1  382.76   22.00
  -4  -3   1  377.96   22.00
   3   3  -1 1428.36   79.19
   3   3  -1 1480.45   79.89
  -3  -3   1 1438.16   79.59
  -3  -3   1 1295.17   79.49
   2   3  -1   -0.50    1.50
   2   3  -1    1.60    1.30
  -2  -3   1   -0.20    0.90
  -2  -3   1    1.30    1.10
  -2  -3   1   -0.40    2.70
   1   3  -1  383.16   22.10
   1   3  -1  409.76   22.30
  -1  -3   1  363.16   22.00
  -1  -3   1  342.97   21.60
   0   3  -1   79.99    5.60
   0   3  -1   73.79    5.00
   0  -3   1   76.39    4.70
   0  -3   1   78.89    5.40
  -1   3  -1 2759.02  158.28
  -1   3  -1 2882.51  158.88
   1  -3   1 2694.13  158.78
   1  -3   1 2971.60  158.18
  -2   3  -1   58.79    3.80
  -2   3  -1   53.79    4.40
   2  -3   1   57.79    3.60
   2  -3   1   56.59    3.90
   2  -3   1   47.70    4.60
  -3   3  -1 8586.54  510.65
  -3   3  -1 9273.67  511.15
   3  -3   1 8589.44  510.85
   3  -3   1 9083.69  510.85
   3  -3   1 9240.58  511.25
   3  -3   1 9999.00  510.65
  -4   3  -1 1525.25   88.29
  -4   3  -1 1539.65   87.69
   4  -3   1 1573.34   88.59
   4  -3   1 1604.94   89.49
  -5   3  -1 1137.69   65.69
  -5   3  -1 1149.98   66.29
   5  -3   1 1208.88   68.09
  -6   3  -1    5.00    2.00
  -6   3  -1    4.90    1.50
   6  -3   1    7.00    5.20
   6  -3   1    5.20    2.40
  -7   3  -1   90.79    6.40
  -7   3  -1   88.29    6.90
   7  -3   1   92.49   11.90
   7  -3   1   80.99    7.50
  -8   3  -1  315.17   18.00
  -8   3  -1  287.87   18.30
   8  -3   1  302.17   19.70
   8  -3   1  281.07   22.60
  -9   3  -1  884.91   49.90
  -9   3  -1  903.01   49.50
   9  -3   1  787.12   53.39
   9  -3   1  857.91   50.99
 -10   3  -1   52.89    4.90
 -10   3  -1   45.80    5.50
  10  -3   1   37.70    6.80
 -11   3  -1  511.85   29.20
 -11   3  -1  502.05   29.60
  11  -3   1  450.85   32.10
  11   2  -1  950.40   57.69
  11   2  -1  883.81   53.49
 -11  -2   1  872.11   51.99
  10   2  -1  160.08   13.30
  10   2  -1  170.18   16.30
 -10  -2   1  166.88   11.00
   9   2  -1  979.10   60.49
   9   2  -1 1009.40   63.79
  -9  -2   1 1133.99   59.79
   8   2  -1   79.99   10.30
   8   2  -1   67.39    7.20
  -8  -2   1   84.19    6.00
  -8  -2   1   73.99    5.10
   7   2  -1  771.92   48.30
   7   2  -1  783.72   45.60
  -7  -2   1  797.42   45.10
  -7  -2   1  783.32   44.30
   6   2  -1  946.41   52.59
  -6  -2   1  948.31   51.49
  -6  -2   1  847.32   52.09
   5   2  -1  591.04   34.30
   5   2  -1  683.03   33.70
   5   2  -1  592.64   36.40
  -5  -2   1  512.85   33.90
  -5  -2   1  570.04   33.40
   4   2  -1   65.79    4.20
   4   2  -1   66.99    5.00
   4   2  -1   60.19    6.40
  -4  -2   1   57.79    4.60
  -4  -2   1   67.19    4.10
   3   2  -1 2833.82  151.88
   3   2  -1 2619.14  150.68
   3   2  -1 2748.63  150.58
   3   2  -1 2737.33  150.08
  -3  -2   1 2473.95  150.28
   2   2  -1   44.90    3.00
   2   2  -1   48.40    3.80
  -2  -2   1   49.10    3.20
  -2  -2   1   37.10    3.10
   1   2  -1 7618.84  402.06
   1   2  -1 7943.61  401.06
   1   2  -1 6676.33  399.86
  -1  -2   1 6392.06  400.66
   0   2  -1    2.30    0.60
   0   2  -1    3.40    0.60
   0   2  -1    4.10    1.00
   0   2  -1    2.50    0.90
   0  -2   1    4.20    1.30
   0  -2   1    3.10    0.50
  -1   2  -1  348.97   19.10
  -1   2  -1  318.27   18.50
  -1   2  -1  324.77   18.50
   1  -2   1  328.77   18.50
   1  -2   1  315.37   18.50
   1  -2   1  320.57   19.00
  -2   2  -1    7.80    1.50
  -2   2  -1    8.30    1.00
  -2   2  -1    9.90    1.30
   2  -2   1    7.30    1.00
   2  -2   1    9.60    1.10
   2  -2   1    9.70    1.70
  -3   2  -1  208.88   13.10
   3  -2   1  227.68   13.90
   3  -2   1  222.08   12.60
   3  -2   1  200.08   13.20
   3  -2   1  225.58   12.60
  -4   2  -1  211.38   12.90
  -4   2  -1  207.08   12.60
   4  -2   1  209.28   12.50
   4  -2   1  214.78   13.20
   4  -2   1  229.28   14.40
  -5   2  -1 1356.36   75.09
  -5   2  -1 1316.77   74.79
   5  -2   1 1313.97   76.79
   5  -2   1 1315.97   75.49
  -6   2  -1  355.96   21.20
  -6   2  -1  377.26   21.00
   6  -2   1  331.67   23.50
  -7   2  -1 2771.32  148.69
  -7   2  -1 2633.94  148.99
   7  -2   1 2385.36  151.08
   7  -2   1 2777.72  149.59
  -8   2  -1  842.22   46.90
  -8   2  -1  868.31   47.10
   8  -2   1  724.33   49.80
   8  -2   1  815.92   47.80
  -9   2  -1  935.41   51.79
  -9   2  -1  988.90   52.09
   9  -2   1  808.22   54.79
   9  -2   1  865.01   52.99
 -10   2  -1  191.18   12.00
 -10   2  -1  201.18   12.20
  10  -2   1  146.89   17.00
  10  -2   1  174.58   13.80
 -11   2  -1   60.69    6.00
 -11   2  -1   60.19    6.20
  11  -2   1   57.69    8.40
  12   1  -1   23.60    6.90
  12   1  -1   41.00   11.20
 -12  -1   1   32.80    4.40
  11   1  -1    3.20    8.60
  11   1  -1    4.70    4.90
 -11  -1   1    5.50    2.70
  10   1  -1  346.37   26.70
  10   1  -1  349.96   23.10
 -10  -1   1  377.36   21.70
   9   1  -1   74.09    7.60
   9   1  -1   72.59   11.70
  -9  -1   1   74.29    5.40
  -9  -1   1   75.59    5.80
   8   1  -1    0.30    5.20
   8   1  -1    3.10    2.80
  -8  -1   1    2.10    1.50
  -8  -1   1    1.40    1.50
   7   1  -1  438.06   30.80
   7   1  -1  455.45   27.60
  -7  -1   1  483.75   27.20
  -7  -1   1  478.95   26.80
   6   1  -1  180.78   11.70
   6   1  -1  181.98   14.70
  -6  -1   1  178.08   11.30
  -6  -1   1  187.98   10.90
   5   1  -1 1683.43   93.89
   5   1  -1 1652.33   90.99
  -5  -1   1 1668.23   90.49
  -5  -1   1 1445.36   90.69
   4   1  -1  131.99   10.90
   4   1  -1  163.28    8.70
   4   1  -1  139.69    8.80
  -4  -1   1  141.19    8.30
  -4  -1   1  122.59    8.60
   3   1  -1  233.28   12.90
   3   1  -1  225.98   13.20
   3   1  -1  225.58   15.00
  -3  -1   1  202.78   13.10
  -3  -1   1  229.48   12.90
   2   1  -1   84.89    4.80
   2   1  -1   74.19    4.60
   2   1  -1   71.19    6.20
  -2  -1   1   72.89    4.70
  -2  -1   1   80.59    4.80
   1   1  -1  484.15   29.70
   1   1  -1  522.05   30.50
  -1  -1   1  449.06   29.70
  -1  -1   1  594.54   30.80
  -1  -1   1  559.54   29.80
  -1  -1   1  553.94   29.70
   0   1  -1    4.40    0.50
   0   1  -1    3.50    0.90
   0   1  -1    6.10    0.80
   0   1  -1    5.80    0.70
   0  -1   1    5.50    0.90
   0  -1   1    4.20    0.70
   0  -1   1    4.40    1.00
  -1   1  -1  623.74   37.20
  -1   1  -1  683.73   36.90
  -1   1  -1  678.53   37.40
  -1   1  -1  677.63   37.00
   1  -1   1  620.24   37.20
   1  -1   1  715.33   37.50
   1  -1   1  575.44   36.90
   1  -1   1  702.73   37.00
  -2   1  -1   13.40    1.70
  -2   1  -1   10.80    1.10
   2  -1   1   11.30    1.80
   2  -1   1   13.60    2.00
   2  -1   1   12.50    1.10
   2  -1   1    9.80    1.50
  -3   1  -1 2239.58  124.29
   3  -1   1 2236.68  125.29
   3  -1   1 2177.08  124.59
  -4   1  -1  103.19    6.60
  -4   1  -1  128.29    8.60
  -4   1  -1  101.79    6.50
   4  -1   1   98.69    8.20
   4  -1   1   95.79    6.90
  -5   1  -1  476.25   26.30
  -5   1  -1  455.05   26.30
   5  -1   1  476.25   26.80
   5  -1   1  406.66   27.90
  -6   1  -1    4.50    1.40
  -6   1  -1    2.70    1.40
   6  -1   1    2.50    1.90
   6  -1   1    2.90    3.90
  -7   1  -1    5.00    1.80
  -7   1  -1    7.60    1.80
   7  -1   1   10.50    2.60
   7  -1   1    0.50    4.10
  -8   1  -1  269.37   16.40
  -8   1  -1  295.47   16.40
   8  -1   1  270.37   17.50
   8  -1   1  227.78   19.10
  -9   1  -1  224.98   13.50
   9  -1   1  225.98   15.00
   9  -1   1  180.78   17.10
 -10   1  -1   58.39    5.20
 -10   1  -1   58.79    5.50
  10  -1   1   55.49    7.20
  10  -1   1   51.29    9.10
 -11   1  -1  254.87   15.20
  11  -1   1  204.98   19.30
  11  -1   1  245.38   17.30
 -12   1  -1  131.29   10.00
  12  -1   1  159.68   14.60
  12   0  -1    1.20    5.90
  12   0  -1  -11.80    8.80
 -12   0   1    2.50    2.80
  11   0  -1   -3.10    9.20
  11   0  -1    1.60    4.80
 -11   0   1   -1.90    1.90
  10   0  -1   -1.50    8.40
  10   0  -1    2.10    3.90
 -10   0   1    1.20    2.20
   9   0  -1    2.10    3.30
   9   0  -1    3.70    6.40
  -9   0   1   -0.30    1.70
  -9   0   1   11.60    2.20
   8   0  -1   -0.50    2.40
   8   0  -1    6.10    5.40
  -8   0   1   -3.10    1.60
  -8   0   1    0.20    1.60
   7   0  -1    2.80    4.70
   7   0  -1    1.20    2.20
  -7   0   1    5.20    1.60
  -7   0   1    1.10    1.40
   6   0  -1    2.40    4.30
   6   0  -1   -2.20    1.70
  -6   0   1   -1.70    1.30
  -6   0   1   -0.50    1.20
   5   0  -1   -1.30    1.30
   5   0  -1   -0.10    3.70
  -5   0   1   -2.10    0.90
  -5   0   1   -0.50    1.00
   4   0  -1    2.80    2.90
   4   0  -1    0.80    1.10
  -4   0   1    1.00    0.80
  -4   0   1    0.90    0.90
   3   0  -1    0.20    1.10
   3   0  -1   -3.10    2.10
   3   0  -1   -1.00    0.70
  -3   0   1    2.20    0.90
  -3   0   1   -1.40    0.90
  -3   0   1   -0.60    0.70
   2   0  -1   -4.50    0.50
   2   0  -1   -0.10    0.80
   2   0  -1   -2.50    1.70
   2   0  -1   -4.50    0.60
  -2   0   1   -3.10    0.50
  -2   0   1    4.60    2.50
  -1   0   1    4.80    0.80
  -1   0  -1   -2.50    0.20
  -1   0  -1   -1.80    0.40
  -1   0  -1   -2.30    0.20
  -1   0  -1   -2.00    0.50
   1   0   1   -1.70    0.70
   1   0   1   -2.10    0.20
   1   0   1   -1.60    0.20
  -2   0  -1   -6.50    0.90
  -2   0  -1   -6.50    0.40
  -2   0  -1   -5.50    0.90
   2   0   1   -5.70    0.70
   2   0   1   -6.00    0.60
   2   0   1   -6.50    0.70
   2   0   1   -4.00    0.70
  -3   0  -1   -1.90    1.80
  -3   0  -1   -5.80    0.50
  -3   0  -1   -5.30    0.70
   3   0   1   -4.70    0.80
   3   0   1   -5.70    1.10
   3   0   1   -5.50    1.20
  -4   0  -1    6.10    1.30
  -4   0  -1   -1.00    0.70
   4   0   1   -1.80    1.50
   4   0   1    0.60    1.20
   4   0   1    1.40    1.70
  -5   0  -1    0.40    1.10
   5   0   1   -1.60    1.20
   5   0   1   -2.00    2.30
  -6   0  -1    0.10    1.40
  -6   0  -1    0.80    1.10
   6   0   1    0.30    3.10
   6   0   1    0.60    1.90
  -7   0  -1    0.90    1.20
  -7   0  -1    5.10    1.60
   7   0   1    2.60    2.20
   7   0   1    2.40    3.30
  -8   0  -1    0.00    1.40
  -8   0  -1   -0.90    1.60
   8   0   1   -2.10    2.90
   8   0   1   -0.80    4.00
  -9   0  -1   -0.50    1.70
  -9   0  -1    0.10    1.80
   9   0   1    3.50    3.60
   9   0   1   -0.80    4.30
 -10   0  -1    1.20    1.80
 -10   0  -1    1.40    2.50
  10   0   1    3.00    4.40
  10   0   1    6.20    5.40
 -11   0  -1    4.00    2.60
  11   0   1   -1.20    6.60
  11   0   1   -2.00    5.20
  12   0   1    5.00    6.30
  12   0   1   10.70    8.80
  12  -1  -1   44.20    7.70
  12  -1  -1   10.80   12.10
 -12   1   1   35.10    4.10
  11  -1  -1    3.10    5.00
  11  -1  -1    9.90    9.90
 -11   1   1    3.50    2.70
 -11   1   1    4.90    2.40
  10  -1  -1  395.16   24.00
  10  -1  -1  362.76   28.80
 -10   1   1  370.56   22.20
 -10   1   1  362.26   22.30
   9  -1  -1   83.59    7.60
   9  -1  -1   64.39   11.70
  -9   1   1   76.39    5.80
  -9   1   1   82.99    6.20
   8  -1  -1    0.20    2.60
   8  -1  -1   -3.90    6.70
  -8   1   1    3.20    1.70
  -8   1   1    1.20    1.70
   7  -1  -1  510.35   29.90
   7  -1  -1  460.95   33.60
  -7   1   1  528.25   29.30
   6  -1  -1  187.38   12.30
   6  -1  -1  181.68   16.00
  -6   1   1  202.08   11.90
  -6   1   1  203.98   12.10
   5  -1  -1 1753.12   98.39
   5  -1  -1 1861.51  101.49
  -5   1   1 1671.63   98.09
  -5   1   1 1699.23   98.29
   4  -1  -1  136.59    8.60
   4  -1  -1  153.48   11.30
  -4   1   1  137.39    8.60
  -4   1   1  128.59    8.30
   3  -1  -1  232.98   13.20
   3  -1  -1  256.97   15.30
  -3   1   1  223.08   13.30
  -3   1   1  193.98   13.00
   2  -1  -1   71.89    4.80
   2  -1  -1   84.09    6.20
   2  -1  -1   88.29    4.90
   2  -1  -1   82.69    5.60
  -2   1   1   77.09    4.90
  -2   1   1   62.59    4.90
  -2   1   1   80.39    6.00
   1  -1  -1  529.65   30.50
   1  -1  -1  543.95   30.30
   1  -1  -1  556.24   30.50
   1  -1  -1  498.75   30.70
  -1   1   1  550.44   30.50
  -1   1   1  547.75   30.60
   0  -1  -1    5.50    0.70
   0  -1  -1    4.60    0.60
   0  -1  -1    4.90    0.70
   0   1   1    5.30    0.60
   0   1   1    5.80    0.70
   0   1   1    4.10    0.80
  -1  -1  -1  527.25   33.20
  -1  -1  -1  604.54   33.30
  -1  -1  -1  570.04   33.10
   1   1   1  589.04   33.10
   1   1   1  661.43   33.50
   1   1   1  590.84   33.30
  -2  -1  -1   11.00    1.40
  -2  -1  -1   12.00    1.60
   2   1   1   11.00    1.30
   2   1   1   12.20    1.50
   2   1   1   10.80    1.50
  -3  -1  -1 1951.50  125.49
  -3  -1  -1 2060.79  124.99
   3   1   1 2235.78  125.19
   3   1   1 2419.06  125.79
   3   1   1 2523.65  126.09
  -4  -1  -1  100.79    6.20
  -4  -1  -1  101.39    6.90
   4   1   1  118.99    6.70
   4   1   1  103.19    7.60
   4   1   1  103.99    7.10
  -5  -1  -1  456.95   25.70
  -5  -1  -1  434.76   26.30
   5   1   1  435.76   27.40
   5   1   1  430.66   26.50
   5   1   1  504.15   26.30
  -6  -1  -1    2.80    1.40
  -6  -1  -1    1.30    0.90
   6   1   1    5.40    2.70
   6   1   1    2.10    2.70
   6   1   1    0.40    1.80
  -7  -1  -1    3.90    1.80
   7   1   1    2.20    2.20
   7   1   1    3.60    3.70
  -8  -1  -1  278.47   16.30
  -8  -1  -1  272.67   15.50
   8   1   1  236.28   18.40
   8   1   1  268.47   17.30
  -9  -1  -1  225.58   13.30
  -9  -1  -1  231.48   13.80
   9   1   1  187.58   16.50
   9   1   1  220.88   15.20
 -10  -1  -1   61.59    5.50
  10   1   1   54.69    8.50
  10   1   1   60.89    7.50
 -11  -1  -1  239.88   15.00
  11   1   1  190.58   16.70
  11   1   1  223.48   18.60
 -12  -1  -1  125.99    9.40
  12   1   1  119.29   12.50
  11  -2  -1  899.71   54.59
  11  -2  -1  931.11   60.39
 -11   2   1  904.91   53.09
 -11   2   1  944.31   52.69
  10  -2  -1  187.58   21.40
  10  -2  -1  166.48   13.50
 -10   2   1  174.88   11.60
 -10   2   1  173.68   11.20
   9  -2  -1 1053.19   69.19
   9  -2  -1 1101.79   64.59
  -9   2   1 1149.89   63.19
  -9   2   1 1131.69   63.59
   8  -2  -1   77.89    7.40
   8  -2  -1   68.79   12.40
  -8   2   1   85.59    5.90
  -8   2   1   83.79    6.30
   7  -2  -1  813.92   52.39
   7  -2  -1  792.32   48.50
  -7   2   1  899.41   47.80
   6  -2  -1  938.51   55.29
   6  -2  -1  944.91   58.59
  -6   2   1  952.80   55.09
  -6   2   1 1016.70   54.69
   5  -2  -1  549.45   35.50
   5  -2  -1  572.64   32.90
  -5   2   1  566.44   32.80
  -5   2   1  570.84   32.30
   4  -2  -1   63.69    4.80
   4  -2  -1   74.39    7.60
  -4   2   1   64.39    4.90
  -4   2   1   65.59    4.40
   3  -2  -1 2849.81  149.29
   3  -2  -1 2852.81  150.98
  -3   2   1 2472.45  148.59
  -3   2   1 2518.75  149.29
  -3   2   1 2605.34  148.79
   2  -2  -1   46.40    3.60
  -2   2   1   51.09    3.30
  -2   2   1   40.00    3.60
  -2   2   1   44.50    3.00
  -2   2   1   47.50    2.80
   1  -2  -1 6757.12  408.86
  -1   2   1 7856.31  409.46
   0  -2  -1    3.00    0.90
   0  -2  -1    3.90    0.90
   0  -2  -1    4.10    0.50
   0   2   1    3.10    0.70
   0   2   1    3.10    0.60
   0   2   1    5.20    1.00
  -1  -2  -1  278.87   17.60
  -1  -2  -1  330.57   17.90
   1   2   1  303.67   17.90
   1   2   1  326.07   17.80
  -2  -2  -1    6.70    1.30
  -2  -2  -1   10.10    1.00
   2   2   1    7.00    1.00
   2   2   1    7.90    1.40
   3   2   1  201.18   13.20
   3   2   1  233.08   13.40
   4   2   1  213.48   13.90
   4   2   1  224.38   13.60
  -5  -2  -1 1122.19   71.29
   5   2   1 1290.27   72.59
   5   2   1 1373.36   71.99
  -6  -2  -1  350.96   20.50
   6   2   1  329.67   21.90
   6   2   1  353.86   21.10
  -7  -2  -1 2557.64  138.89
   7   2   1 2509.15  139.59
   7   2   1 2325.37  140.59
  -8  -2  -1  841.72   44.30
   8   2   1  742.33   45.10
   8   2   1  713.63   46.40
  -9  -2  -1  927.61   50.29
   9   2   1  861.71   51.39
   9   2   1  823.32   52.79
 -10  -2  -1  191.58   12.20
  10   2   1  156.88   16.00
  10   2   1  191.08   14.50
 -11  -2  -1   58.39    5.80
  11   2   1   39.90    7.50
  11   2   1   51.39    9.80
  11  -3  -1   18.10    5.90
 -11   3   1   19.90    3.80
 -11   3   1   20.00    3.10
  10  -3  -1 1147.79   75.19
  10  -3  -1 1191.78   69.39
 -10   3   1 1221.08   67.49
 -10   3   1 1180.18   68.09
   9  -3  -1  178.48   13.60
   9  -3  -1  156.58   19.80
  -9   3   1  196.28   11.50
  -9   3   1  182.58   12.20
   8  -3  -1    6.00    8.30
   8  -3  -1   20.20    4.30
  -8   3   1   18.70    3.40
  -8   3   1   18.70    2.50
   7  -3  -1 1358.26   81.39
   7  -3  -1 1319.87   77.49
  -7   3   1 1414.06   76.39
  -7   3   1 1318.97   76.99
   6  -3  -1  621.74   36.40
   6  -3  -1  580.64   39.50
  -6   3   1  662.23   35.40
  -6   3   1  604.34   36.10
   5  -3  -1 4633.84  257.17
   5  -3  -1 4672.63  254.57
  -5   3   1 4531.75  253.67
  -5   3   1 4303.67  254.37
   4  -3  -1  396.86   23.20
   4  -3  -1  392.26   25.30
  -4   3   1  415.86   22.30
  -4   3   1  352.96   23.00
   3  -3  -1 1733.73   91.49
   3  -3  -1 1545.15   89.69
  -3   3   1 1627.04   89.19
  -3   3   1 1527.85   88.69
  -3   3   1 1492.65   88.59
   2  -3  -1    1.10    1.30
  -2   3   1    1.80    1.00
  -2   3   1    2.10    1.20
  -2   3   1    3.30    0.60
   1  -3  -1  406.56   23.00
   1  -3  -1  412.96   22.00
  -1   3   1  394.46   22.60
  -1   3   1  339.97   22.10
   0  -3  -1   77.89    4.90
   0  -3  -1   68.19    4.00
   0   3   1   73.59    4.60
   0   3   1   53.39    4.60
   0   3   1   65.09    4.10
  -1  -3  -1 2827.32  146.69
  -1  -3  -1 2322.07  146.09
   1   3   1 2593.54  146.29
   1   3   1 2707.73  146.59
  -2  -3  -1   57.39    3.90
  -2  -3  -1   45.80    3.50
   2   3   1   55.89    4.10
   2   3   1   41.40    3.60
  -3  -3  -1 6247.78  401.16
   3   3   1 6882.71  400.96
   3   3   1 8018.70  401.96
   3   3   1 7556.54  401.86
  -4  -3  -1 1284.37   83.39
   4   3   1 1514.35   84.39
   4   3   1 1646.04   84.29
   5   3   1 1139.09   66.29
   5   3   1 1158.18   65.79
   6   3   1    9.60    2.90
   6   3   1    9.00    2.90
  -7  -3  -1   78.99    6.10
   7   3   1   82.29    8.40
   7   3   1   79.89    7.80
  -8  -3  -1  307.67   17.20
   8   3   1  275.07   18.50
   8   3   1  245.78   19.40
  -9  -3  -1  873.11   45.50
   9   3   1  749.62   48.10
   9   3   1  720.63   46.50
 -10  -3  -1   42.60    4.80
  10   3   1   45.90    8.30
  10   3   1   45.50    7.20
 -11  -3  -1  479.05   27.90
  11   3   1  450.05   31.70
  11   3   1  459.35   30.30
  11  -4  -1  780.22   49.00
 -11   4   1  827.02   46.30
  10  -4  -1  188.78   14.70
 -10   4   1  170.88   11.00
 -10   4   1  158.98   11.90
   9  -4  -1  473.85   38.60
   9  -4  -1  485.45   31.60
  -9   4   1  511.75   30.60
  -9   4   1  550.54   29.70
   8  -4  -1   14.80    4.10
   8  -4  -1   20.20   10.40
  -8   4   1   13.20    3.10
  -8   4   1   16.00    2.40
   7  -4  -1  220.58   15.50
   7  -4  -1  197.98   19.60
  -7   4   1  250.67   13.80
  -7   4   1  223.28   14.60
   6  -4  -1  344.27   22.80
   6  -4  -1  359.16   26.40
  -6   4   1  409.06   21.60
  -6   4   1  362.26   22.50
   5  -4  -1  643.54   38.50
   5  -4  -1  637.24   41.10
  -5   4   1  613.34   38.10
  -5   4   1  718.23   37.20
   4  -4  -1   39.20    6.30
  -4   4   1   27.40    4.10
  -4   4   1   32.40    2.60
   3  -4  -1  848.42   46.30
  -3   4   1  841.92   45.50
  -3   4   1  708.73   45.90
  -3   4   1  820.72   44.80
  -3   4   1  770.92   44.80
   2  -4  -1  369.76   20.50
   2  -4  -1  319.77   18.90
  -2   4   1  367.16   19.70
  -2   4   1  290.67   20.00
  -2   4   1  335.17   18.90
   1  -4  -1 4569.64  227.88
   1  -4  -1 4301.27  228.88
  -1   4   1 3576.74  227.68
  -1   4   1 3530.55  228.58
  -1   4   1 4405.76  228.38
   0  -4  -1  207.78   11.50
   0  -4  -1  209.78   12.50
   0   4   1  190.68   11.60
   0   4   1  196.98   12.10
  -1  -4  -1  313.47   18.50
  -1  -4  -1  327.67   19.20
   1   4   1  331.17   19.10
  -2  -4  -1    2.50    1.50
  -2  -4  -1    4.80    1.20
   2   4   1    1.50    1.20
   2   4   1    2.30    1.40
  -3  -4  -1    5.90    1.40
  -3  -4  -1    7.40    1.90
  -3  -4  -1    2.60    1.50
   3   4   1    2.80    1.40
   3   4   1    2.20    1.50
  -4  -4  -1    1.70    1.60
  -4  -4  -1    6.10    2.00
   4   4   1    5.10    2.30
   4   4   1    4.60    0.80
   4   4   1    3.00    0.90
  -5  -4  -1  555.34   32.60
  -5  -4  -1  550.14   32.80
   5   4   1  584.54   33.40
   5   4   1  560.74   33.70
  -6  -4  -1   26.80    3.30
   6   4   1   20.40    4.60
   6   4   1   28.80    4.60
  -7  -4  -1 1540.25   88.89
   7   4   1 1572.64   89.99
   7   4   1 1589.54   90.99
  -8  -4  -1  655.23   34.90
   8   4   1  584.84   36.10
   8   4   1  536.55   36.90
  -9  -4  -1  748.93   40.30
   9   4   1  673.53   43.20
   9   4   1  636.24   41.70
  10   4   1   38.10    6.80
  10   4   1   38.20    8.80
  11   4   1   12.80    8.10
  11   4   1   18.30    8.20
  10  -5  -1  186.98   15.50
 -10   5   1  173.78   12.80
   9  -5  -1  101.79    9.90
  -9   5   1   83.69    8.10
   8  -5  -1    4.80    4.10
   8  -5  -1   -6.40    9.80
  -8   5   1    2.50    2.90
   7  -5  -1  179.28   20.80
   7  -5  -1  202.78   14.90
  -7   5   1  232.68   12.70
  -7   5   1  192.78   13.90
   6  -5  -1  231.58   15.80
   6  -5  -1  211.78   20.20
  -6   5   1  246.58   13.60
  -6   5   1  212.08   14.90
   5  -5  -1  226.28   15.70
   5  -5  -1  241.78   18.90
  -5   5   1  217.48   15.20
  -5   5   1  260.27   14.00
   4  -5  -1    2.30    2.50
   4  -5  -1    2.00    4.40
  -4   5   1    3.10    2.30
  -4   5   1    5.20    1.70
  -4   5   1    2.20    1.10
   3  -5  -1    3.00    2.40
  -3   5   1    3.30    0.90
  -3   5   1    5.00    2.00
  -3   5   1    4.50    1.50
   2  -5  -1   -2.00    2.20
   2  -5  -1    2.30    0.60
  -2   5   1    1.60    0.90
  -2   5   1   -0.10    1.00
   1  -5  -1   33.70    2.10
  -1   5   1   29.60    3.60
  -1   5   1   33.40    2.60
  -1   5   1   30.70    2.90
   0  -5  -1   19.70    1.60
   0   5   1   15.30    2.80
   0   5   1   17.60    2.30
  -1  -5  -1   52.99    3.40
   1   5   1   47.90    4.10
   1   5   1   43.40    4.60
  -2  -5  -1   13.10    2.70
  -2  -5  -1   13.20    1.70
   2   5   1   14.60    2.60
   2   5   1   14.10    2.30
  -3  -5  -1  574.14   32.40
  -3  -5  -1  583.14   33.20
   3   5   1  547.55   33.30
   3   5   1  558.44   32.70
  -4  -5  -1  230.38   14.20
  -4  -5  -1  236.18   14.60
  -4  -5  -1  211.08   14.50
   4   5   1  250.37   13.90
   4   5   1  236.38   15.20
  -5  -5  -1   85.09    7.10
  -5  -5  -1   96.39    6.60
   5   5   1   88.99    7.80
  -6  -5  -1   15.20    2.80
  -6  -5  -1   18.00    3.40
   6   5   1   14.90    4.00
  -7  -5  -1   20.10    3.10
  -7  -5  -1   13.80    3.40
   7   5   1   21.00    5.20
  -8  -5  -1    8.80    3.40
  -8  -5  -1   10.40    3.00
   8   5   1   15.10    4.90
  -9  -5  -1   13.00    3.40
  -9  -5  -1    7.60    3.50
   9   5   1   19.50    6.20
   9   5   1   14.30    5.10
 -10  -5  -1   -0.60    3.20
 -10  -5  -1    4.70    4.10
  10   5   1    6.40    5.90
  10   5   1    1.60    6.90
   9  -6  -1  112.19   11.70
  -9   6   1   96.29    9.20
   8  -6  -1   34.90    7.00
  -8   6   1   42.50    5.70
   7  -6  -1   -2.80    9.90
   7  -6  -1   15.40    5.10
  -7   6   1   14.10    3.50
   6  -6  -1   57.19   11.10
   6  -6  -1   68.49    8.10
  -6   6   1   63.99    6.50
   5  -6  -1    1.30    3.70
   5  -6  -1   -8.30    6.90
  -5   6   1    4.70    2.70
   4  -6  -1   12.50    3.30
  -4   6   1   13.90    2.20
  -4   6   1   10.70    3.10
  -4   6   1    9.10    2.20
   3  -6  -1   54.29    6.80
  -3   6   1   59.29    5.90
  -3   6   1   55.19    4.90
  -3   6   1   64.29    3.90
   2  -6  -1   94.29    5.60
   2  -6  -1   92.99    8.00
  -2   6   1   97.59    6.70
  -2   6   1   92.89    7.60
   1  -6  -1  190.48   10.90
   1  -6  -1  179.38   13.20
  -1   6   1  213.88   12.10
  -1   6   1  172.48   12.70
   0  -6  -1    7.90    2.90
   0  -6  -1    9.10    1.10
   0   6   1    6.50    1.80
  -1  -6  -1   41.60    5.00
  -1  -6  -1   32.60    2.80
   1   6   1   40.70    3.80
   1   6   1   31.80    4.30
  -2  -6  -1    2.30    1.30
  -2  -6  -1    5.20    2.50
   2   6   1   -2.50    2.30
   2   6   1    2.50    1.60
  -3  -6  -1   -0.40    1.40
  -3  -6  -1    1.70    2.20
   3   6   1    2.00    2.00
   3   6   1    0.60    2.40
  -4  -6  -1   11.40    2.90
  -4  -6  -1   10.60    2.20
   4   6   1   20.80    2.90
   4   6   1   11.10    2.90
  -5  -6  -1   98.89    7.00
  -5  -6  -1   83.09    7.90
   5   6   1  103.29    8.50
  -6  -6  -1   31.70    3.90
  -6  -6  -1   25.40    4.30
   6   6   1   25.50    4.80
  -7  -6  -1  158.68   10.50
  -7  -6  -1  138.79   11.10
   7   6   1  146.19   13.10
  -8  -6  -1   -3.20    3.60
  -8  -6  -1    3.00    2.90
   8   6   1    4.00    4.80
  -9  -6  -1    5.50    4.10
  -9  -6  -1    4.00    3.10
   9   6   1   -0.60    6.20
   8  -7  -1   27.00    7.40
  -8   7   1   16.90    4.20
   7  -7  -1  257.77   19.20
  -7   7   1  227.98   17.80
   6  -7  -1   12.10   10.70
   6  -7  -1   34.30    5.80
  -6   7   1   26.50    4.80
   5  -7  -1 1178.98   69.19
   5  -7  -1 1216.58   80.29
  -5   7   1 1157.78   68.59
   4  -7  -1  159.98   12.10
  -4   7   1  131.39    9.50
  -4   7   1  139.99   11.20
   3  -7  -1  227.88   15.70
  -3   7   1  223.98   14.20
  -3   7   1  227.18   15.60
   2  -7  -1   34.10    5.20
  -2   7   1   31.40    4.70
  -2   7   1   35.70    4.00
   1  -7  -1  112.39    6.50
   1  -7  -1  107.69    9.00
  -1   7   1  106.39    8.80
  -1   7   1   95.49    7.60
   0  -7  -1   18.70    2.00
   0  -7  -1   26.00    4.40
   0   7   1   15.60    2.70
   0   7   1   24.80    4.30
  -1  -7  -1  435.36   25.90
  -1  -7  -1  418.26   23.90
   1   7   1  418.66   25.20
   1   7   1  398.26   25.60
  -2  -7  -1   46.80    6.10
  -2  -7  -1   47.10    3.70
   2   7   1   40.50    4.70
   2   7   1   43.00    6.00
  -3  -7  -1 1398.06   83.79
   3   7   1 1572.34   83.49
   3   7   1 1414.86   83.89
  -4  -7  -1  111.39    9.00
  -4  -7  -1  115.59    7.80
   4   7   1  110.39    9.20
  -5  -7  -1  187.38   13.40
  -5  -7  -1  202.18   12.30
   5   7   1  184.88   14.00
  -6  -7  -1   -1.20    2.60
  -6  -7  -1    3.70    3.20
   6   7   1    5.90    4.10
  -7  -7  -1   17.20    4.60
  -7  -7  -1   20.70    3.60
   7   7   1   16.90    6.30
  -8  -7  -1  129.39   13.10
  -8  -7  -1  178.98   12.40
   8   7   1  174.08   14.80
   6  -8  -1  291.97   20.90
  -6   8   1  273.97   19.30
   5  -8  -1  294.57   25.90
   4  -8  -1   35.30    6.80
  -4   8   1   37.50    4.80
  -4   8   1   37.00    5.80
   3  -8  -1  584.14   36.10
  -3   8   1  609.84   36.00
  -3   8   1  565.64   34.50
   2  -8  -1  101.09   10.40
  -2   8   1  100.09    7.80
  -2   8   1  100.59   10.00
   1  -8  -1 2622.94  150.78
  -1   8   1 2689.63  149.49
  -1   8   1 2624.34  150.58
   0  -8  -1   34.80    5.80
   0   8   1   27.30    5.30
   0   8   1   32.70    4.20
  -1  -8  -1  102.59    9.90
   1   8   1  103.49    8.60
   1   8   1  122.29   10.00
  -2  -8  -1    5.40    3.90
  -2  -8  -1    0.40    1.80
   2   8   1    0.30    2.90
   2   8   1    0.70    3.90
  -3  -8  -1   25.10    3.00
  -3  -8  -1   28.20    5.30
   3   8   1   21.80    4.10
  -4  -8  -1   25.40    5.50
  -4  -8  -1   24.30    3.20
   4   8   1   17.80    4.40
  -5  -8  -1  389.66   23.80
  -5  -8  -1  414.66   25.50
  -6  -8  -1   51.99    5.80
   6   8   1   51.79    7.80
   4  -9  -1    9.20    5.60
  -4   9   1   10.40    3.70
  -4   9   1   -1.50    5.00
   3  -9  -1   84.19   12.10
  -3   9   1  131.89   13.90
  -3   9   1  121.39    9.70
   2  -9  -1    1.70    4.80
  -2   9   1   10.30    5.70
  -2   9   1    0.20    3.00
   1  -9  -1   90.29   10.30
  -1   9   1   97.19    8.40
  -1   9   1  111.99   11.00
   0   9   1   85.59   10.00
   0   9   1   74.99    7.50
   1   9   1  324.47   21.80
   1   9   1  365.46   23.30
  -2  -9  -1   41.60    8.10
   2   9   1   51.09    6.20
  -3  -9  -1 1699.33   98.39
   3   9   1 1701.73   97.99
  -4  -9  -1  511.15   32.50
   4   9   1  513.75   32.30
   4   9  -2   11.30    4.40
  -4  -9   2    4.20    3.10
   3   9  -2   25.20    5.30
  -3  -9   2   20.30    3.50
  -3  -9   2   24.40    6.40
   2   9  -2   24.30    5.00
   2   9  -2   26.30    7.10
  -2  -9   2   14.40    6.40
  -2  -9   2   23.10    3.80
   1   9  -2   13.00    4.00
   1   9  -2   20.80    6.80
  -1  -9   2   14.50    5.70
   0   9  -2   83.99    7.80
   0   9  -2   84.89   11.00
   0  -9   2   85.19   10.30
  -1   9  -2   55.69    8.00
  -1   9  -2   65.79    6.70
  -2   9  -2   85.49    8.00
  -2   9  -2   98.59   11.40
   2  -9   2   91.89   11.10
  -3   9  -2    1.00    5.60
   3  -9   2   10.20    5.70
  -4   9  -2   69.79    9.00
   4  -9   2   45.30    8.90
   6   8  -2  128.69   12.70
  -6  -8   2  135.49   10.10
  -6  -8   2  153.68   12.60
   5   8  -2   26.30    5.90
  -5  -8   2   31.80    4.10
  -5  -8   2   31.70    6.00
   4   8  -2   26.70    5.30
  -4  -8   2   25.80    3.60
  -4  -8   2   25.60    5.80
   3   8  -2  176.38   14.10
   3   8  -2  167.78   13.00
  -3  -8   2  178.08   11.20
  -3  -8   2  165.18   13.80
   2   8  -2   80.19    9.40
   2   8  -2   73.39    7.00
  -2  -8   2   76.29    5.90
  -2  -8   2   88.09    9.20
   1   8  -2    2.00    4.70
   1   8  -2    1.40    2.50
  -1  -8   2   -1.70    3.80
  -1  -8   2    1.00    1.60
   0   8  -2    2.80    4.60
   0   8  -2    5.10    2.60
   0  -8   2    4.80    4.80
   0  -8   2    1.50    1.80
  -1   8  -2   22.20    5.10
  -1   8  -2   23.80    3.50
   1  -8   2   19.10    5.20
  -2   8  -2   10.40    4.70
  -2   8  -2   11.40    2.90
   2  -8   2   15.00    3.10
   2  -8   2    7.00    5.10
  -3   8  -2   49.70    5.50
  -3   8  -2   61.99    7.60
   3  -8   2   57.89    8.30
  -4   8  -2    4.00    4.40
   4  -8   2   -0.80    4.90
  -5   8  -2    5.20    4.20
   5  -8   2   12.20    6.20
  -6   8  -2   45.20    7.20
   6  -8   2   44.30    8.30
   8   7  -2  500.65   33.70
  -8  -7   2  533.85   30.30
  -8  -7   2  463.85   30.60
   7   7  -2  251.77   19.60
  -7  -7   2  261.87   16.70
  -7  -7   2  262.57   17.70
   6   7  -2  414.56   27.80
  -6  -7   2  428.56   25.30
  -6  -7   2  419.06   26.20
   5   7  -2    2.40    3.70
  -5  -7   2    6.20    3.70
  -5  -7   2    0.60    2.20
   4   7  -2   55.79    7.30
   4   7  -2   55.09    7.40
  -4  -7   2   67.89    7.30
  -4  -7   2   62.29    5.20
   3   7  -2   94.99    7.90
   3   7  -2   79.29    8.50
  -3  -7   2   80.29    6.20
  -3  -7   2   84.59    8.20
   2   7  -2  665.73   37.50
   2   7  -2  547.15   37.50
  -2  -7   2  689.13   37.90
  -2  -7   2  620.04   36.10
   1   7  -2   82.09    8.30
   1   7  -2   77.09    6.50
  -1  -7   2   81.49    5.80
  -1  -7   2   97.79    8.40
   0   7  -2  152.88   10.10
   0   7  -2  137.59   11.50
   0  -7   2  158.18    9.30
   0  -7   2  140.99   11.30
  -1   7  -2   68.89    7.10
  -1   7  -2   64.79    5.40
   1  -7   2   67.69    4.70
   1  -7   2   73.99    7.50
  -2   7  -2 1867.11  106.39
   2  -7   2 1809.22  104.19
   2  -7   2 1898.11  106.59
  -3   7  -2  395.16   25.20
  -3   7  -2  417.66   23.50
   3  -7   2  402.66   25.80
   3  -7   2  376.16   22.80
  -4   7  -2   99.59    8.60
  -4   7  -2   98.89    7.10
   4  -7   2   91.09    9.60
   4  -7   2   93.39    6.30
  -5   7  -2    7.60    3.10
  -5   7  -2   11.80    3.60
   5  -7   2    9.40    5.40
  -6   7  -2    3.30    4.20
   6  -7   2   11.00    5.50
  -7   7  -2   -0.40    3.90
   7  -7   2    3.00    6.50
  -8   7  -2  390.76   25.30
   8  -7   2  386.76   26.90
   9   6  -2   23.90    7.90
  -9  -6   2   24.00    4.30
  -9  -6   2   19.10    4.80
   8   6  -2   37.60    9.50
  -8  -6   2   52.29    6.00
  -8  -6   2   34.60    5.30
   7   6  -2  668.03   43.40
  -7  -6   2  666.83   40.60
  -7  -6   2  739.03   40.60
   6   6  -2  642.74   41.70
  -6  -6   2  705.63   39.30
  -6  -6   2  669.93   39.60
   5   6  -2    1.30    3.10
   5   6  -2    1.30    3.10
  -5  -6   2    2.20    2.70
  -5  -6   2    0.80    1.90
   4   6  -2  963.00   56.39
   4   6  -2  877.21   55.29
  -4  -6   2 1005.70   55.39
  -4  -6   2  986.70   54.69
   3   6  -2  460.55   27.40
  -3  -6   2  445.86   26.90
  -3  -6   2  435.16   26.00
   2   6  -2 3550.04  186.48
   2   6  -2 2934.21  186.38
  -2  -6   2 3431.36  186.38
   1   6  -2   38.10    4.00
  -1  -6   2   33.20    3.20
  -1  -6   2   39.80    5.00
   0   6  -2  294.57   17.00
   0   6  -2  278.77   18.00
   0  -6   2  243.98   17.80
   0  -6   2  288.17   16.30
  -1   6  -2    3.40    1.50
  -1   6  -2    2.20    2.90
   1  -6   2    4.90    1.20
   1  -6   2    2.80    2.70
  -2   6  -2  563.74   31.40
  -2   6  -2  528.25   32.60
   2  -6   2  549.74   33.10
   2  -6   2  532.45   30.90
  -3   6  -2  161.28    9.70
  -3   6  -2  152.78   11.30
   3  -6   2  151.48   11.60
   3  -6   2  144.39    9.20
  -4   6  -2 1301.17   69.19
  -4   6  -2 1174.78   70.49
   4  -6   2 1198.28   68.79
   4  -6   2 1210.38   71.09
  -5   6  -2   54.19    5.80
  -5   6  -2   48.60    4.40
   5  -6   2   57.29    8.50
   5  -6   2   48.60    6.80
  -6   6  -2 1897.11  108.59
  -6   6  -2 1903.11  110.09
   6  -6   2 1987.90  111.09
  -7   6  -2  959.80   54.89
  -7   6  -2  966.90   56.39
   7  -6   2  961.80   57.59
  -8   6  -2  501.45   31.10
  -8   6  -2  508.95   29.70
  -9   6  -2   31.10    5.70
   9  -6   2   26.50    7.40
  10   5  -2  102.19   15.10
 -10  -5   2   87.99    8.50
 -10  -5   2   92.19    8.40
   9   5  -2   17.90    7.90
  -9  -5   2   13.60    3.50
  -9  -5   2   10.70    3.80
   8   5  -2 1045.70   61.39
  -8  -5   2  914.51   57.19
  -8  -5   2 1029.30   57.49
   7   5  -2   75.89   10.30
  -7  -5   2   90.69    7.00
  -7  -5   2   71.69    6.70
   6   5  -2 1957.00  108.29
   6   5  -2 1865.61  110.79
  -6  -5   2 1798.72  108.29
  -6  -5   2 2035.40  108.49
   5   5  -2  136.59   10.10
   5   5  -2  133.59   11.10
  -5  -5   2  147.39    9.30
  -5  -5   2  130.99    9.40
   4   5  -2  348.97   22.80
   4   5  -2  394.46   23.70
  -4  -5   2  372.66   22.70
  -4  -5   2  374.86   21.90
   3   5  -2  197.78   13.50
   3   5  -2  204.18   13.60
  -3  -5   2  207.68   12.80
  -3  -5   2  194.68   12.20
   2   5  -2 1452.35   85.29
   2   5  -2 1507.65   85.19
  -2  -5   2 1527.85   84.19
  -2  -5   2 1490.25   84.89
   1   5  -2    3.90    1.80
   1   5  -2   -1.40    2.10
  -1  -5   2    3.30    2.40
  -1  -5   2    1.60    1.00
   0   5  -2 1118.89   64.69
   0   5  -2 1157.98   63.89
   0  -5   2 1124.99   63.39
   0  -5   2 1099.09   64.59
  -1   5  -2    0.90    1.10
  -1   5  -2    3.20    2.30
   1  -5   2    2.90    2.40
   1  -5   2    1.60    0.90
  -2   5  -2 5493.45  298.27
  -2   5  -2 5270.47  299.37
   2  -5   2 5333.87  299.57
   2  -5   2 5227.28  297.97
  -3   5  -2  440.86   23.70
  -3   5  -2  401.66   24.80
   3  -5   2  380.36   25.00
   3  -5   2  407.76   23.40
  -4   5  -2  276.67   18.00
   4  -5   2  308.37   19.20
   4  -5   2  281.27   16.70
   4  -5   2  283.47   18.80
  -5   5  -2   61.29    5.80
  -5   5  -2   59.39    4.60
   5  -5   2   58.29    8.20
   5  -5   2   67.99    7.10
  -6   5  -2  321.37   20.30
   6  -5   2  339.07   22.90
   6  -5   2  316.07   21.10
  -7   5  -2   87.19    7.80
  -7   5  -2   85.79    6.40
   7  -5   2   79.39    9.40
  -8   5  -2  986.60   55.29
  -8   5  -2  968.70   56.29
   8  -5   2  938.21   57.19
  -9   5  -2   16.50    3.80
  -9   5  -2    8.00    3.10
   9  -5   2   14.10    6.40
 -10   5  -2  392.36   23.10
 -10   5  -2  360.46   24.00
  10  -5   2  384.66   26.10
  10   4  -2  246.78   20.10
  10   4  -2  291.07   29.10
 -10  -4   2  288.87   17.80
   9   4  -2   98.59   10.60
   9   4  -2  114.09   14.10
  -9  -4   2  109.09    8.30
   8   4  -2   39.50    7.70
   8   4  -2   34.70    5.80
  -8  -4   2   32.60    4.50
  -8  -4   2   46.30    5.10
   7   4  -2  592.54   38.40
  -7  -4   2  574.74   35.00
  -7  -4   2  638.44   35.30
   6   4  -2  358.86   21.90
   6   4  -2  353.76   24.00
  -6  -4   2  344.47   21.30
  -6  -4   2  366.96   21.40
   5   4  -2   49.30    6.50
   5   4  -2   62.59    7.00
  -5  -4   2   60.59    4.70
  -5  -4   2   63.09    5.00
   4   4  -2  705.43   41.80
   4   4  -2  742.33   42.90
  -4  -4   2  699.63   41.30
  -4  -4   2  716.63   41.10
   3   4  -2    9.00    2.60
   3   4  -2   10.80    2.90
  -3  -4   2    8.40    1.60
  -3  -4   2   12.00    2.00
   2   4  -2 1986.00  112.49
   2   4  -2 2043.60  112.49
  -2  -4   2 1940.51  111.89
  -2  -4   2 1972.00  111.49
   1   4  -2    2.70    1.20
   1   4  -2    4.30    2.00
  -1  -4   2    3.40    0.90
  -1  -4   2    6.70    2.00
   0   4  -2  239.48   14.30
   0   4  -2  252.37   15.20
   0  -4   2  240.48   13.90
   0  -4   2  224.78   14.70
  -1   4  -2   18.10    3.00
  -1   4  -2   19.70    2.00
   1  -4   2   20.60    3.10
   1  -4   2   20.60    1.80
  -2   4  -2  490.15   27.80
  -2   4  -2  493.85   28.90
   2  -4   2  479.15   28.90
   2  -4   2  484.85   27.70
  -3   4  -2    2.10    1.00
  -3   4  -2    0.70    1.70
   3  -4   2    5.50    1.00
   3  -4   2    0.70    2.20
  -4   4  -2  795.92   47.00
   4  -4   2  814.22   47.60
   4  -4   2  789.12   47.40
   4  -4   2  853.21   46.10
  -5   4  -2  271.37   16.50
  -5   4  -2  275.27   17.50
   5  -4   2  306.87   19.10
   5  -4   2  274.07   17.90
  -6   4  -2 1095.09   63.09
  -6   4  -2 1053.19   62.59
   6  -4   2 1145.69   63.89
   6  -4   2 1107.19   64.49
  -7   4  -2  238.18   14.50
  -7   4  -2  222.18   13.60
   7  -4   2  220.48   15.30
   7  -4   2  198.98   16.90
  -8   4  -2  146.59   10.80
  -8   4  -2  152.28   10.00
   8  -4   2  152.58   12.00
  -9   4  -2  125.19    9.40
  -9   4  -2  142.39   10.20
   9  -4   2  130.79   11.70
 -10   4  -2   57.39    6.50
 -10   4  -2   41.10    5.40
  11   3  -2   -6.80    8.70
  11   3  -2    4.00    6.20
 -11  -3   2    8.10    3.00
  10   3  -2    0.40    4.90
  10   3  -2    7.60    7.00
 -10  -3   2    6.50    2.90
   9   3  -2    0.10    6.90
   9   3  -2   -1.40    4.20
  -9  -3   2    2.00    2.30
   8   3  -2   32.70    5.10
   8   3  -2   32.30    7.50
  -8  -3   2   34.10    4.00
   7   3  -2    2.30    5.00
   7   3  -2   -0.90    4.70
   7   3  -2    1.50    3.10
  -7  -3   2    1.30    1.70
   6   3  -2   70.89    8.70
   6   3  -2   82.69    8.60
   6   3  -2   84.79    6.80
  -6  -3   2   68.79    5.70
   5   3  -2   12.00    3.70
   5   3  -2    8.50    2.40
   5   3  -2    9.20    3.80
   4   3  -2    0.30    2.60
   4   3  -2    0.00    2.90
  -4  -3   2    0.50    1.20
  -4  -3   2   -1.80    1.20
   3   3  -2   47.30    5.30
   3   3  -2   37.70    5.00
  -3  -3   2   39.70    3.30
  -3  -3   2   37.20    3.20
   2   3  -2   57.79    5.60
   2   3  -2   77.19    5.70
  -2  -3   2   64.79    4.50
  -2  -3   2   66.39    4.70
   1   3  -2    6.70    2.10
   1   3  -2    4.30    1.40
  -1  -3   2    2.70    1.30
  -1  -3   2    5.00    0.90
   0   3  -2    3.70    1.20
   0   3  -2    1.20    1.60
   0  -3   2    0.50    1.40
   0  -3   2    0.60    0.80
  -1   3  -2   15.90    2.60
  -1   3  -2   16.30    1.60
   1  -3   2   18.00    2.30
   1  -3   2   17.00    2.50
   1  -3   2   14.90    1.50
  -2   3  -2   25.50    3.40
  -2   3  -2   27.80    2.30
   2  -3   2   27.70    3.60
   2  -3   2   33.50    2.60
   2  -3   2   37.60    2.50
  -3   3  -2   91.69    6.90
   3  -3   2   97.99    7.10
   3  -3   2  100.29    5.90
   3  -3   2   94.79    7.10
   3  -3   2  104.69    6.10
   4  -3   2  130.49    9.30
   4  -3   2  123.69    7.60
   4  -3   2  123.79    7.40
   4  -3   2  112.59    8.50
  -5   3  -2   18.30    2.10
  -5   3  -2   22.90    3.20
   5  -3   2   22.00    4.00
   5  -3   2   15.80    3.20
   5  -3   2   18.20    2.20
  -6   3  -2   38.40    3.60
  -6   3  -2   37.80    4.00
   6  -3   2   32.90    5.70
   6  -3   2   27.10    4.10
  -7   3  -2   15.80    2.90
  -7   3  -2   12.40    2.50
   7  -3   2   16.50    3.70
   7  -3   2   12.40    5.00
  -8   3  -2   16.40    2.70
  -8   3  -2   16.20    3.00
   8  -3   2   11.30    5.50
   8  -3   2   21.40    4.40
  -9   3  -2   11.90    2.80
  -9   3  -2   12.30    3.30
   9  -3   2   11.20    4.10
 -10   3  -2   38.90    5.50
 -10   3  -2   38.60    4.90
  10  -3   2   36.90    6.50
 -11   3  -2    2.40    3.30
 -11   3  -2    5.20    2.80
  11  -3   2    5.70    6.10
  11   2  -2   11.30    6.10
  11   2  -2    8.90    8.40
 -11  -2   2   17.70    3.30
  10   2  -2  107.79   10.60
  10   2  -2  118.69   16.00
 -10  -2   2  130.19    8.80
   9   2  -2   27.50    5.10
   9   2  -2   24.60    7.60
  -9  -2   2   33.50    3.90
   8   2  -2    1.30    5.90
   8   2  -2    1.00    3.20
  -8  -2   2    1.00    2.10
  -8  -2   2    3.70    1.60
   7   2  -2  239.68   19.20
   7   2  -2  246.48   15.50
  -7  -2   2  239.48   14.30
  -7  -2   2  245.68   14.90
   6   2  -2  378.86   25.80
   6   2  -2  373.36   22.30
  -6  -2   2  368.86   22.00
  -6  -2   2  369.26   21.40
   5   2  -2    0.40    3.50
   5   2  -2    2.90    1.80
  -5  -2   2    1.80    1.20
   4   2  -2  290.57   19.20
   4   2  -2  283.47   16.50
  -4  -2   2  294.47   16.10
  -4  -2   2  243.48   16.30
   3   2  -2  119.59    9.60
   3   2  -2  147.59   10.50
   2   2  -2 1596.34   88.09
   2   2  -2 1371.96   87.49
  -2  -2   2 1721.63   86.59
  -2  -2   2 1596.34   86.49
  -2  -2   2 1412.96   86.49
   1   2  -2   24.20    2.00
   1   2  -2   21.30    3.20
   1   2  -2   27.10    2.90
  -1  -2   2   22.10    1.80
  -1  -2   2   25.60    2.10
   0   2  -2   25.30    2.30
   0   2  -2   23.40    2.90
   0  -2   2   20.60    2.30
   0  -2   2   27.70    3.10
   0  -2   2   21.50    1.80
  -1   2  -2    6.50    1.70
   1  -2   2    7.60    1.30
   1  -2   2    5.80    1.20
   1  -2   2    6.60    0.90
  -2   2  -2   66.29    4.10
  -2   2  -2   84.29    5.30
   2  -2   2   68.39    4.20
   2  -2   2   70.69    4.40
   2  -2   2   63.29    4.90
  -3   2  -2  187.08   11.60
   3  -2   2  187.88   10.60
   3  -2   2  188.28   11.40
   3  -2   2  201.88   11.00
   3  -2   2  166.28   11.50
  -4   2  -2  515.95   30.30
  -4   2  -2  574.74   30.80
   4  -2   2  485.95   30.90
   4  -2   2  523.65   31.00
   4  -2   2  551.44   30.00
  -5   2  -2  192.88   11.80
  -5   2  -2  224.98   12.90
  -5   2  -2  188.48   11.50
   5  -2   2  151.78   12.40
   5  -2   2  185.18   12.10
  -6   2  -2  573.94   32.40
  -6   2  -2  558.24   32.20
   6  -2   2  541.15   33.00
  -7   2  -2  380.76   21.90
   7  -2   2  338.77   23.30
   7  -2   2  383.96   22.80
  -8   2  -2  260.87   16.60
  -8   2  -2  296.57   16.80
   8  -2   2  267.87   17.60
   8  -2   2  246.98   18.50
  -9   2  -2    5.40    2.70
  -9   2  -2    2.30    2.30
   9  -2   2    1.10    3.50
   9  -2   2    7.60    5.30
 -10   2  -2    3.00    2.80
 -10   2  -2    6.60    2.50
  10  -2   2   15.30    5.10
 -11   2  -2  131.59    9.40
 -11   2  -2  123.69    9.60
  11   1  -2  787.32   48.70
  11   1  -2  849.41   54.39
 -11  -1   2  823.52   47.30
  10   1  -2  247.58   21.30
 -10  -1   2  217.28   14.30
   9   1  -2   32.30    5.00
   9   1  -2   33.40    8.80
  -9  -1   2   27.80    3.70
  -9  -1   2   41.00    4.10
   8   1  -2 1212.88   77.89
  -8  -1   2 1341.17   72.89
  -8  -1   2 1286.97   72.59
   7   1  -2  153.58   14.50
   7   1  -2  148.19   10.30
  -7  -1   2  159.78    9.50
  -7  -1   2  147.09    9.70
   6   1  -2 2631.84  151.78
   6   1  -2 2803.62  155.98
  -6  -1   2 2724.93  151.38
  -6  -1   2 2644.74  151.68
   5   1  -2  144.39   12.60
   5   1  -2  137.99    8.90
  -5  -1   2  141.99    8.50
  -5  -1   2  136.09    8.80
   4   1  -2  244.38   13.40
   4   1  -2  222.28   16.40
  -4  -1   2  204.58   13.30
  -4  -1   2  226.28   13.20
   3   1  -2  351.46   22.90
   3   1  -2  369.46   20.30
  -3  -1   2  332.67   20.20
  -3  -1   2  357.46   20.10
   2   1  -2 2072.09  123.69
   2   1  -2 2320.67  125.89
  -2  -1   2 2250.67  123.79
  -2  -1   2 2403.96  123.59
  -2  -1   2 2008.60  123.79
   1   1  -2   92.69    5.90
   1   1  -2  100.19    7.30
   1   1  -2  105.29    5.70
  -1  -1   2  115.49    7.80
  -1  -1   2   89.09    5.80
  -1  -1   2  104.09    6.00
  -1  -1   2   94.19    5.80
   0   1  -2 1041.00   62.59
   0   1  -2 1126.59   60.79
   0   1  -2 1140.49   60.69
   0   1  -2  994.30   61.59
   0  -1   2 1143.49   60.69
   0  -1   2 1039.50   61.59
  -1   1  -2   56.59    3.50
  -1   1  -2   58.09    3.50
  -1   1  -2   53.89    4.30
   1  -1   2   56.29    3.80
   1  -1   2   58.79    3.50
   1  -1   2   57.99    4.60
   1  -1   2   51.49    3.50
  -2   1  -2 9977.10  523.05
   2  -1   2 8777.02  522.15
   2  -1   2 9211.48  521.55
  -3   1  -2 1134.99   66.89
  -3   1  -2 1359.46   67.19
   3  -1   2 1185.78   66.59
   3  -1   2 1084.19   66.99
   3  -1   2 1160.08   66.59
  -4   1  -2  481.15   29.90
  -4   1  -2  611.14   31.20
  -4   1  -2  525.05   30.10
   4  -1   2  497.85   30.40
   4  -1   2  513.85   30.30
  -5   1  -2    6.50    1.40
  -5   1  -2    9.20    1.70
   5  -1   2    9.20    2.50
   5  -1   2    9.10    2.20
  -6   1  -2  134.59    8.40
  -6   1  -2  135.49    8.50
   6  -1   2  119.69    9.60
  -7   1  -2  165.78   11.30
  -7   1  -2  195.48   11.30
   7  -1   2  186.78   12.30
   7  -1   2  170.48   12.80
  -8   1  -2 1833.12   94.69
  -8   1  -2 1663.83   94.89
   8  -1   2 1495.15   95.99
   8  -1   2 1700.43   95.69
  -9   1  -2    6.50    2.60
   9  -1   2    4.90    4.40
   9  -1   2   10.80    4.10
 -10   1  -2  436.76   26.00
 -10   1  -2  448.96   25.80
  10  -1   2  434.26   27.80
  10  -1   2  416.96   28.10
 -11   1  -2  452.25   26.80
  11  -1   2  439.06   28.90
  12   0  -2  753.02   50.99
  12   0  -2  738.93   44.50
 -12   0   2  703.43   42.20
  11   0  -2   61.39    8.00
  11   0  -2   76.99   13.70
 -11   0   2   57.49    5.90
  10   0  -2 1057.69   67.89
  10   0  -2 1080.89   62.29
 -10   0   2 1102.29   61.09
 -10   0   2 1038.70   60.99
   9   0  -2  163.08   19.10
   9   0  -2  187.78   12.70
  -9   0   2  190.38   11.50
  -9   0   2  168.48   11.60
   8   0  -2  243.68   22.10
  -8   0   2  264.07   16.00
  -8   0   2  276.57   16.00
   7   0  -2 1681.43   91.59
   7   0  -2 1544.65   95.89
  -7   0   2 1617.54   91.09
  -7   0   2 1608.84   91.19
   6   0  -2 1388.76   81.19
   6   0  -2 1400.36   76.99
  -6   0   2 1354.46   76.79
  -6   0   2 1293.37   76.69
   5   0  -2    6.70    4.30
  -5   0   2    6.80    1.50
  -5   0   2    7.50    1.50
   4   0  -2 3757.22  194.18
   4   0  -2 3957.60  197.78
  -4   0   2 3096.89  194.08
  -4   0   2 3072.79  194.18
   3   0  -2  250.77   16.00
   3   0  -2  220.48   13.30
  -3   0   2  249.58   13.40
  -3   0   2  194.78   13.30
  -3   0   2  232.28   13.50
   2   0  -2 5129.89  267.77
   2   0  -2 4517.55  267.97
  -2   0   2 4651.43  267.77
  -2   0   2 4854.71  268.47
   1   0  -2    2.10    0.70
   1   0  -2    1.30    0.40
   1   0  -2    0.00    1.20
  -1   0   2    0.70    0.50
  -1   0   2    1.30    1.60
  -1   0   2    0.60    0.40
  -1   0   2    0.90    0.30
   0   0  -2  441.56   26.30
   0   0  -2  444.06   26.20
   0   0  -2  485.75   27.00
   0   0  -2  449.36   26.10
   0   0   2  485.05   26.10
   0   0   2  437.16   26.30
   0   0   2  439.56   26.10
  -1   0  -2   -1.30    1.70
  -1   0  -2   -0.10    0.80
  -1   0  -2   -2.40    1.00
  -1   0  -2   -0.80    1.10
   1   0   2    0.60    0.90
   1   0   2    0.10    0.80
  -2   0  -2 1900.41   95.39
  -2   0  -2 1770.52   94.99
   2   0   2 1574.74   95.59
   2   0   2 1650.13   94.99
   2   0   2 1629.14   95.19
   2   0   2 1613.34   94.89
  -3   0  -2   46.50    3.70
  -3   0  -2   38.10    2.90
  -3   0  -2   42.00    3.00
   3   0   2   42.50    4.20
   3   0   2   39.40    2.90
   3   0   2   40.10    3.20
  -4   0  -2 5020.20  253.07
  -4   0  -2 4251.07  252.87
   4   0   2 4310.97  253.27
   4   0   2 4488.55  253.17
  -5   0  -2  921.21   48.30
  -5   0  -2  782.82   48.50
   5   0   2  826.72   48.90
   5   0   2  868.81   49.10
  -6   0  -2 4208.38  219.28
  -6   0  -2 3550.74  219.58
   6   0   2 3829.42  220.38
   6   0   2 4069.99  220.18
  -7   0  -2 2443.36  140.69
  -7   0  -2 2754.82  140.29
   7   0   2 2481.75  141.29
   7   0   2 2302.47  141.59
  -8   0  -2  838.82   49.70
  -8   0  -2  968.50   49.30
   8   0   2  801.42   50.99
   8   0   2  842.92   50.49
  -9   0  -2  124.19    7.90
  -9   0  -2  109.99    8.20
   9   0   2  117.79    9.70
   9   0   2  115.29   10.60
 -10   0  -2  223.98   14.30
  10   0   2  234.18   16.50
  10   0   2  206.68   16.50
 -11   0  -2  304.47   18.90
  11   0   2  286.97   21.60
  11   0   2  307.47   21.40
  12  -1  -2   41.00    7.90
  11  -1  -2  826.92   47.60
  11  -1  -2  793.92   54.09
 -11   1   2  744.13   45.90
 -11   1   2  815.12   45.70
  10  -1  -2  193.98   22.20
  10  -1  -2  205.08   14.80
 -10   1   2  213.08   13.00
 -10   1   2  202.68   13.30
   9  -1  -2   25.70   10.40
   9  -1  -2   33.90    4.80
  -9   1   2   27.50    3.20
  -9   1   2   36.10    4.30
   8  -1  -2 1224.78   77.39
   8  -1  -2 1301.87   72.49
  -8   1   2 1343.57   71.69
  -8   1   2 1185.38   72.39
   7  -1  -2  165.38   11.00
  -7   1   2  163.88   10.60
   6  -1  -2 2877.11  155.78
   6  -1  -2 2909.81  159.98
  -6   1   2 2647.24  155.28
  -6   1   2 2654.73  155.58
   5  -1  -2  140.59   12.20
  -5   1   2  139.79    8.90
  -5   1   2  133.59    8.40
   4  -1  -2  232.98   16.30
   4  -1  -2  245.78   13.50
  -4   1   2  207.08   13.50
  -4   1   2  216.28   13.10
   3  -1  -2  321.77   18.60
   3  -1  -2  379.86   21.40
  -3   1   2  292.67   18.80
  -3   1   2  307.47   18.30
   2  -1  -2 2396.16  130.69
   2  -1  -2 2427.56  128.89
   2  -1  -2 2265.97  128.69
  -2   1   2 2429.06  128.89
  -2   1   2 1984.40  128.99
   1  -1  -2   97.79    6.00
   1  -1  -2   91.39    6.10
   1  -1  -2   92.59    5.60
   1  -1  -2  103.09    5.90
  -1   1   2  101.99    5.90
  -1   1   2   97.99    6.10
  -1   1   2  100.09    6.00
  -1   1   2   96.19    5.60
   0  -1  -2 1244.78   68.39
   0  -1  -2 1320.27   68.49
   0  -1  -2 1096.19   68.49
   0  -1  -2 1050.99   68.39
   0  -1  -2 1322.37   68.19
   0   1   2 1099.99   68.39
   0   1   2 1308.67   68.49
   0   1   2 1298.57   68.19
  -1  -1  -2   54.99    3.50
  -1  -1  -2   52.59    3.40
  -1  -1  -2   55.49    3.80
  -1  -1  -2   47.80    3.30
  -1  -1  -2   55.09    3.30
   1   1   2   59.29    3.70
   1   1   2   49.90    3.30
   1   1   2   53.59    3.40
  -2  -1  -2 7542.55  463.85
  -2  -1  -2 7868.31  463.35
  -2  -1  -2 8563.44  464.85
   2   1   2 9314.67  464.85
   2   1   2 8161.78  464.55
  -3  -1  -2 1219.08   61.99
  -3  -1  -2 1071.39   61.79
  -3  -1  -2 1065.19   62.19
   3   1   2 1089.79   62.29
   3   1   2 1067.49   62.49
  -4  -1  -2  428.46   26.50
   4   1   2  475.75   26.80
   4   1   2  443.06   26.70
   4   1   2  491.75   26.90
  -5  -1  -2    9.10    1.40
  -5  -1  -2    9.00    1.80
   5   1   2    9.00    2.30
   5   1   2    5.60    2.00
   5   1   2   10.00    3.00
  -6  -1  -2  145.69    7.90
   6   1   2  121.69   10.20
   6   1   2  106.69    9.30
   6   1   2  132.29    9.50
  -7  -1  -2  176.68   11.40
  -7  -1  -2  190.58   10.50
   7   1   2  167.78   12.00
   7   1   2  168.58   12.60
  -8  -1  -2 1672.53   90.99
  -8  -1  -2 1676.93   90.09
   8   1   2 1645.14   91.79
   8   1   2 1414.66   92.19
  -9  -1  -2    7.10    2.60
   9   1   2    7.30    4.20
   9   1   2    7.30    4.30
 -10  -1  -2  433.66   25.50
  10   1   2  450.65   27.10
  10   1   2  389.76   27.80
 -11  -1  -2  422.46   25.30
  11   1   2  419.86   28.00
  11   1   2  374.26   26.90
  11  -2  -2   40.10   14.30
  11  -2  -2   33.20    6.00
 -11   2   2   14.80    3.70
 -11   2   2   16.10    2.90
  10  -2  -2  122.19   17.20
  10  -2  -2  114.29   10.90
 -10   2   2  126.69    9.30
 -10   2   2  136.89    8.70
   9  -2  -2   25.50    4.90
   9  -2  -2   27.80   10.90
  -9   2   2   35.50    3.60
  -9   2   2   29.20    4.10
   8  -2  -2    2.30    2.90
   8  -2  -2   11.80    8.10
  -8   2   2    3.10    2.00
   7  -2  -2  211.38   24.10
  -7   2   2  259.37   16.00
  -7   2   2  277.77   15.50
   6  -2  -2  394.56   23.60
   6  -2  -2  369.66   27.10
  -6   2   2  395.86   22.80
  -6   2   2  410.36   23.40
   5  -2  -2    0.80    4.40
   5  -2  -2    0.50    1.70
  -5   2   2    2.80    1.40
  -5   2   2    3.80    1.10
   4  -2  -2  295.07   20.30
   4  -2  -2  300.97   17.40
  -4   2   2  290.17   17.40
  -4   2   2  274.27   16.70
   3  -2  -2  138.99    8.60
   3  -2  -2  141.49   11.00
  -3   2   2  125.59    8.60
  -3   2   2  136.69    7.90
   2  -2  -2 1572.44   83.79
   2  -2  -2 1650.13   83.19
  -2   2   2 1654.53   83.69
  -2   2   2 1276.57   83.09
  -2   2   2 1272.67   83.79
   1  -2  -2   24.90    2.10
  -1   2   2   18.70    2.30
  -1   2   2   24.60    2.00
   0  -2  -2   22.90    1.60
   0  -2  -2   23.00    1.80
   0  -2  -2   24.00    2.10
   0   2   2   21.40    2.00
   0   2   2   21.20    2.30
  -1  -2  -2    7.20    1.30
  -1  -2  -2    6.60    1.10
  -1  -2  -2    6.80    1.20
   1   2   2    7.20    1.10
   1   2   2    8.10    1.10
   1   2   2    6.50    1.10
  -2  -2  -2   67.89    4.20
  -2  -2  -2   59.19    4.50
   2   2   2   67.79    4.50
   2   2   2   69.59    4.90
  -3  -2  -2  149.79   10.40
  -3  -2  -2  192.68    9.80
  -3  -2  -2  171.88   10.00
   3   2   2  181.58   10.90
   3   2   2  161.88   10.60
  -4  -2  -2  465.95   29.40
   4   2   2  512.35   29.80
   4   2   2  552.14   29.90
  -5  -2  -2  170.38   11.30
   5   2   2  187.88   12.00
   5   2   2  186.98   12.00
  -6  -2  -2  503.85   29.00
   6   2   2  445.26   29.80
   6   2   2  537.25   30.10
  -7  -2  -2  384.96   22.00
   7   2   2  361.16   23.30
   7   2   2  357.46   22.70
  -8  -2  -2  270.37   15.90
   8   2   2  250.77   16.80
   8   2   2  243.48   17.60
  -9  -2  -2    7.50    2.30
   9   2   2    1.90    3.50
   9   2   2    0.50    4.20
 -10  -2  -2    9.80    2.90
  10   2   2    1.90    5.30
  10   2   2    8.60    4.20
 -11  -2  -2  111.39    8.80
  11   2   2  112.79   12.40
  11   2   2  104.79   12.70
  11  -3  -2  -14.10   13.30
  11  -3  -2    6.40    5.40
 -11   3   2   12.00    2.90
 -11   3   2    7.50    3.50
  10  -3  -2    7.60    4.90
  10  -3  -2   -8.50   12.00
 -10   3   2    4.10    2.20
 -10   3   2    7.60    2.90
   9  -3  -2   -2.60    3.70
   9  -3  -2    0.00   10.60
  -9   3   2    1.40    2.30
  -9   3   2    1.90    1.80
   8  -3  -2   32.80   10.20
   8  -3  -2   43.80    5.20
  -8   3   2   38.20    3.70
  -8   3   2   33.90    4.30
   7  -3  -2   -0.90    9.10
   7  -3  -2    1.80    2.90
  -7   3   2    1.20    1.80
  -7   3   2    2.40    1.50
   6  -3  -2   76.49   11.40
  -6   3   2   79.69    6.20
  -6   3   2   79.49    5.30
   5  -3  -2   11.90    2.70
   5  -3  -2   15.50    5.90
  -5   3   2   11.50    1.50
   4  -3  -2    7.60    4.40
   4  -3  -2    1.10    1.60
  -4   3   2   -2.20    1.30
  -4   3   2    1.60    0.90
   3  -3  -2   50.89    6.70
   3  -3  -2   40.00    3.80
  -3   3   2   39.60    2.70
  -3   3   2   43.10    3.40
  -3   3   2   40.00    3.80
  -3   3   2   42.30    2.70
   2  -3  -2   68.39    5.10
  -2   3   2   54.49    4.90
  -2   3   2   73.89    4.80
   1  -3  -2    6.30    1.50
  -1   3   2    4.90    1.30
  -1   3   2    4.90    1.10
   0  -3  -2    1.80    0.60
   0  -3  -2    0.20    1.20
   0   3   2    2.00    0.70
   0   3   2   -0.70    1.20
   0   3   2    2.00    1.10
  -1  -3  -2   15.70    2.10
  -1  -3  -2   16.70    1.70
   1   3   2   14.80    1.90
   1   3   2   15.20    2.10
   1   3   2   17.00    1.90
  -2  -3  -2   32.00    2.70
  -2  -3  -2   25.40    2.80
  -2  -3  -2   28.20    2.60
   2   3   2   29.20    2.60
   2   3   2   25.60    2.80
  -3  -3  -2   79.19    5.70
   3   3   2   86.69    6.10
   3   3   2   93.39    6.60
   3   3   2   89.09    5.60
  -4  -3  -2   98.89    7.20
   4   3   2  122.09    8.10
   4   3   2  109.09    7.70
  -5  -3  -2   13.40    2.30
   5   3   2   17.80    3.10
  -6  -3  -2   35.80    3.50
   6   3   2   35.00    4.70
   6   3   2   37.00    4.90
  -7  -3  -2   15.40    2.40
   7   3   2   15.10    3.60
   7   3   2   13.90    3.60
  -8  -3  -2   23.50    3.20
   8   3   2   19.20    4.40
   8   3   2   22.80    4.70
  -9  -3  -2    7.00    2.50
   9   3   2    7.50    4.20
   9   3   2    9.60    5.10
 -10  -3  -2   37.20    4.60
  10   3   2   34.00    7.10
  10   3   2   46.40    7.70
 -11  -3  -2    8.40    2.90
  11   3   2   13.70    6.70
  10  -4  -2  277.17   31.20
  10  -4  -2  293.57   21.00
 -10   4   2  323.97   18.10
 -10   4   2  285.77   19.00
   9  -4  -2   99.79   10.20
   9  -4  -2  105.69   17.40
  -9   4   2  118.39    9.00
  -9   4   2  129.39    8.00
   8  -4  -2   64.79    7.60
   8  -4  -2   44.90   13.00
  -8   4   2   48.80    5.40
   7  -4  -2  552.44   42.60
   7  -4  -2  605.64   38.20
  -7   4   2  733.83   36.90
  -7   4   2  657.93   37.90
   6  -4  -2  342.47   27.50
   6  -4  -2  362.06   22.80
  -6   4   2  358.46   22.30
  -6   4   2  395.26   21.20
   5  -4  -2   53.29    5.90
   5  -4  -2   52.99    8.60
  -5   4   2   56.69    5.20
  -5   4   2   59.59    3.90
   4  -4  -2  809.62   45.40
   4  -4  -2  679.73   42.90
  -4   4   2  724.33   40.90
  -4   4   2  707.13   42.20
  -4   4   2  728.43   40.90
   3  -4  -2    6.20    2.10
  -3   4   2    9.80    1.90
  -3   4   2    9.60    2.20
   2  -4  -2 2251.57  124.49
  -2   4   2 2157.98  123.99
   1  -4  -2    5.30    2.00
  -1   4   2    4.00    1.10
   0  -4  -2  218.88   13.40
   0  -4  -2  225.78   12.30
   0   4   2  188.38   13.30
   0   4   2  233.18   13.20
  -1  -4  -2   20.60    1.90
  -1  -4  -2   22.60    2.90
   1   4   2   23.20    2.50
   1   4   2   20.20    2.70
  -2  -4  -2  484.95   26.20
  -2  -4  -2  424.46   25.50
   2   4   2  432.36   25.80
   2   4   2  444.86   26.10
  -3  -4  -2    0.80    1.40
  -3  -4  -2    4.70    1.40
  -3  -4  -2    1.80    1.50
   3   4   2    1.00    1.40
   3   4   2    5.10    1.40
  -4  -4  -2  861.61   44.50
  -4  -4  -2  741.13   45.00
   4   4   2  761.32   45.80
  -5  -4  -2  238.68   15.80
   5   4   2  277.57   17.20
   5   4   2  275.67   16.90
  -6  -4  -2  964.10   59.19
   6   4   2 1091.99   60.59
   6   4   2 1067.59   60.79
  -7  -4  -2  217.58   13.70
   7   4   2  209.38   15.10
   7   4   2  222.58   15.40
  -8  -4  -2  149.59    9.90
   8   4   2  133.29   12.20
   8   4   2  141.29   12.10
  -9  -4  -2  116.19    8.70
   9   4   2  106.89   11.20
   9   4   2  116.19   11.60
 -10  -4  -2   54.19    5.70
  10   4   2   45.10    8.70
  10   4   2   33.70    7.00
 -10   5   2   95.79    8.50
   9  -5  -2   11.90   13.50
   9  -5  -2   20.70    5.90
  -9   5   2   12.90    3.40
   8  -5  -2  956.80   64.69
   8  -5  -2 1036.30   58.89
  -8   5   2  998.30   57.89
   7  -5  -2   73.09   13.40
   7  -5  -2   77.49    7.80
  -7   5   2   88.09    5.80
  -7   5   2   72.79    6.80
   6  -5  -2 1889.61  120.99
   6  -5  -2 2089.59  117.59
  -6   5   2 1997.90  116.99
  -6   5   2 2250.47  115.59
   5  -5  -2  149.29   10.70
   5  -5  -2  118.49   16.90
  -5   5   2  125.29    9.80
  -5   5   2  153.38    8.40
   4  -5  -2  445.56   26.30
   4  -5  -2  503.85   29.90
  -4   5   2  409.66   24.20
  -4   5   2  423.06   25.40
  -4   5   2  397.46   25.90
   3  -5  -2  214.38   13.70
  -3   5   2  218.18   12.90
  -3   5   2  187.38   13.30
   2  -5  -2 1632.44   92.29
  -2   5   2 1610.94   91.69
   1  -5  -2    1.30    2.40
  -1   5   2    0.50    1.20
  -1   5   2    3.00    2.10
   0  -5  -2 1114.89   58.49
   0   5   2 1089.19   59.39
   0   5   2  920.31   59.59
  -1  -5  -2    0.10    1.80
  -1  -5  -2    2.90    0.90
   1   5   2    4.90    1.90
  -2  -5  -2 4594.14  266.07
  -2  -5  -2 4860.61  266.97
   2   5   2 4739.23  266.67
   2   5   2 4838.92  266.97
  -3  -5  -2  394.46   23.60
  -3  -5  -2  389.66   22.80
   3   5   2  395.56   23.70
   3   5   2  393.86   23.00
  -4  -5  -2  274.47   17.60
  -4  -5  -2  269.87   16.80
  -4  -5  -2  311.87   17.00
   4   5   2  259.67   17.70
   4   5   2  291.87   16.40
  -5  -5  -2   53.49    4.70
  -5  -5  -2   50.59    5.40
   5   5   2   53.29    5.50
  -6  -5  -2  286.07   17.80
  -6  -5  -2  290.77   18.30
   6   5   2  299.27   19.30
  -7  -5  -2   69.29    5.70
  -7  -5  -2   62.49    6.70
   7   5   2   75.59    8.20
  -8  -5  -2  919.11   50.19
   8   5   2  841.12   52.29
   8   5   2  835.92   51.59
  -9  -5  -2   10.90    3.70
  -9  -5  -2   10.50    3.00
   9   5   2    4.00    5.60
   9   5   2    9.50    5.50
 -10  -5  -2  375.16   20.80
  10   5   2  308.27   23.80
  10   5   2  287.37   22.70
   9  -6  -2   23.10    6.90
  -9   6   2   19.40    4.40
   8  -6  -2   49.40    7.60
   8  -6  -2   35.30   15.10
  -8   6   2   47.60    5.70
   7  -6  -2  762.42   43.90
   7  -6  -2  676.23   49.10
  -7   6   2  736.33   43.20
   6  -6  -2  686.43   47.10
   6  -6  -2  728.93   42.90
  -6   6   2  721.53   42.30
   5  -6  -2   -3.30    6.80
   5  -6  -2    2.10    3.10
  -5   6   2   -1.50    2.30
   4  -6  -2 1140.49   62.19
  -4   6   2 1055.59   60.89
  -4   6   2 1005.90   61.59
   3  -6  -2  487.15   28.20
  -3   6   2  437.96   27.70
  -3   6   2  454.65   27.10
   2  -6  -2 3772.82  198.48
  -2   6   2 3186.18  197.98
  -2   6   2 3583.54  197.38
   1  -6  -2   39.00    5.00
  -1   6   2   30.30    3.50
  -1   6   2   44.30    4.90
   0  -6  -2  281.27   17.50
   0  -6  -2  275.07   15.60
   0   6   2  267.07   16.70
  -1  -6  -2    4.90    1.10
  -1  -6  -2   12.90    3.00
   1   6   2    5.40    2.50
   1   6   2    4.90    1.90
  -2  -6  -2  521.55   31.80
  -2  -6  -2  548.25   30.60
   2   6   2  560.44   31.60
   2   6   2  514.65   31.60
  -3  -6  -2  138.39   10.10
  -3  -6  -2  138.69    9.00
   3   6   2  155.98    9.70
   3   6   2  138.29   10.00
  -4  -6  -2 1112.09   66.09
  -4  -6  -2 1138.39   65.19
   4   6   2 1186.58   65.09
   4   6   2 1158.98   66.49
  -5  -6  -2   54.59    4.70
  -5  -6  -2   51.79    5.80
   5   6   2   40.00    6.00
  -6  -6  -2 1618.74   99.39
  -6  -6  -2 1761.92   98.79
   6   6   2 1855.41  100.89
  -7  -6  -2  877.51   49.40
  -7  -6  -2  778.22   49.90
   7   6   2  910.51   51.89
  -8  -6  -2  394.56   26.10
  -8  -6  -2  428.76   25.30
   8   6   2  432.06   28.00
  -9  -6  -2   19.50    4.40
  -9  -6  -2   31.00    4.30
   9   6   2   28.00    7.20
   8  -7  -2  529.05   34.20
  -8   7   2  537.35   32.60
   7  -7  -2  246.38   19.60
   7  -7  -2  263.57   27.90
  -7   7   2  268.97   17.60
   6  -7  -2  409.06   33.90
   6  -7  -2  480.25   29.50
  -6   7   2  470.85   28.50
   5  -7  -2   -1.00    8.90
   5  -7  -2   -0.80    3.90
  -5   7   2   -5.20    2.60
   4  -7  -2   45.50    6.60
  -4   7   2   66.19    5.60
  -4   7   2   58.29    6.50
   3  -7  -2   79.59    7.90
  -3   7   2   80.19    6.60
  -3   7   2   88.49    7.80
   2  -7  -2  649.34   38.50
  -2   7   2  638.84   38.20
  -2   7   2  631.84   37.30
   1  -7  -2   83.89    8.30
  -1   7   2   78.59    7.90
  -1   7   2   87.29    6.70
   0  -7  -2  138.79   11.20
   0   7   2  156.38   11.10
   0   7   2  148.99   10.10
  -1  -7  -2   66.29    4.50
  -1  -7  -2   70.89    6.80
   1   7   2   65.39    6.80
   1   7   2   64.39    5.70
  -2  -7  -2 1773.42  102.49
  -2  -7  -2 1782.12  104.19
   2   7   2 1780.52  103.89
   2   7   2 1969.90  103.89
  -3  -7  -2  387.96   22.90
  -3  -7  -2  367.96   24.40
   3   7   2  439.26   24.00
   3   7   2  380.36   24.30
  -4  -7  -2   88.59    6.60
  -4  -7  -2   94.99    8.20
   4   7   2   89.99    8.00
  -5  -7  -2   11.30    2.60
  -5  -7  -2    8.40    3.40
   5   7   2    7.70    3.70
  -6  -7  -2   -0.20    2.50
  -6  -7  -2    1.70    3.80
   6   7   2   -3.10    3.60
  -7  -7  -2    1.60    2.70
  -7  -7  -2   -0.30    4.00
   7   7   2   -0.80    4.10
  -8  -7  -2  347.37   21.30
  -8  -7  -2  302.77   22.00
   8   7   2  371.76   24.40
   6  -8  -2  140.19   13.40
   6  -8  -2  141.99   21.00
  -6   8   2  163.98   12.70
   5  -8  -2   46.60   12.10
   4  -8  -2   22.90    6.30
  -4   8   2   31.90    4.70
  -4   8   2   27.60    5.30
   3  -8  -2  161.78   13.50
  -3   8   2  189.08   13.80
  -3   8   2  179.68   12.10
   2  -8  -2   70.99    8.90
  -2   8   2   70.99    8.40
  -2   8   2   70.19    6.40
   1  -8  -2   -0.20    4.00
  -1   8   2   -3.10    3.70
  -1   8   2   -1.40    2.30
   0  -8  -2    5.10    4.10
   0   8   2    1.50    2.30
   0   8   2    9.10    4.10
  -1  -8  -2   24.20    5.50
   1   8   2   23.90    4.90
   1   8   2   28.10    4.20
  -2  -8  -2    6.50    4.40
   2   8   2    8.30    4.10
   2   8   2    6.20    3.00
  -3  -8  -2   69.09    8.30
   3   8   2   66.79    7.30
  -4  -8  -2   -1.70    2.10
  -4  -8  -2   11.30    4.30
   4   8   2    3.80    3.80
  -5  -8  -2    2.40    4.00
  -5  -8  -2    3.40    2.70
   5   8   2    2.80    4.50
  -6  -8  -2   50.89    6.10
  -6  -8  -2   44.20    6.80
   6   8   2   67.99    9.30
   4  -9  -2    6.70    5.30
  -4   9   2    4.40    5.00
  -4   9   2    6.20    3.70
   3  -9  -2   32.70    6.80
  -3   9   2   27.10    6.50
  -3   9   2   16.80    4.20
   2  -9  -2   28.90    6.10
  -2   9   2   23.40    4.40
  -2   9   2   24.60    6.00
   1  -9  -2    4.40    5.20
  -1   9   2   15.20    3.90
  -1   9   2   17.80    5.20
   0  -9  -2   85.79    9.60
   0   9   2   86.59    9.80
   0   9   2   79.29    7.80
  -1  -9  -2   49.70    7.90
   1   9   2   60.49    7.50
   1   9   2   50.19    6.20
  -2  -9  -2   80.09   10.80
   2   9   2   78.99    9.50
  -3  -9  -2    2.50    5.20
   3   9   2    4.30    3.70
  -4  -9  -2   64.79    8.70
   4   9   2   54.19    7.60
   3   9  -3  702.33   44.10
  -3  -9   3  698.83   42.00
  -3  -9   3  787.72   44.80
   2   9  -3  117.99   10.30
   2   9  -3  114.89   12.50
  -2  -9   3  100.59    8.20
  -2  -9   3  114.79   12.30
   1   9  -3  365.86   22.70
   1   9  -3  346.17   24.70
  -1  -9   3  386.66   24.10
  -1  -9   3  330.17   21.20
   0   9  -3   83.59    8.10
   0   9  -3   85.09   11.50
   0  -9   3  101.99   10.30
  -1   9  -3 1493.45   88.09
  -1   9  -3 1516.15   85.99
  -2   9  -3  299.27   21.40
   2  -9   3  291.57   21.80
  -3   9  -3   48.30    7.70
   3  -9   3   46.80    8.00
   6   8  -3   14.30    5.80
  -6  -8   3   16.50    3.70
  -6  -8   3   17.30    5.80
   5   8  -3  617.24   40.10
  -5  -8   3  662.23   38.90
  -5  -8   3  622.04   37.00
   4   8  -3   33.30    6.30
  -4  -8   3   44.00    6.90
  -4  -8   3   44.80    5.00
   3   8  -3 1102.09   65.59
   3   8  -3 1124.49   65.89
  -3  -8   3 1174.48   65.69
  -3  -8   3 1087.49   63.79
   2   8  -3    4.70    3.60
   2   8  -3    7.30    5.20
  -2  -8   3    6.60    2.40
  -2  -8   3    3.70    4.70
   1   8  -3   30.60    6.00
   1   8  -3   21.40    3.90
  -1  -8   3   20.00    5.90
  -1  -8   3   18.60    2.90
   0   8  -3   14.60    5.40
   0   8  -3   18.60    3.40
   0  -8   3   19.60    5.20
   0  -8   3   17.70    2.60
  -1   8  -3  603.44   37.20
  -1   8  -3  624.24   35.40
   1  -8   3  583.44   34.50
   1  -8   3  599.84   37.10
  -2   8  -3   13.60    3.10
  -2   8  -3   17.00    5.10
   2  -8   3   12.50    5.70
   2  -8   3   16.10    2.40
  -3   8  -3  768.92   44.90
   3  -8   3  748.23   45.30
   3  -8   3  709.23   42.10
  -4   8  -3   13.70    4.60
   4  -8   3   35.40    6.80
  -5   8  -3 1100.49   65.19
   5  -8   3 1108.99   65.99
  -6   8  -3  664.73   40.90
   6  -8   3  661.13   42.20
   8   7  -3    4.90    6.40
  -8  -7   3   12.50    5.10
  -8  -7   3    2.50    3.30
   7   7  -3  488.55   34.10
  -7  -7   3  529.75   31.50
  -7  -7   3  518.15   30.70
   6   7  -3   53.69    8.30
  -6  -7   3   68.49    8.20
  -6  -7   3   55.09    5.90
   5   7  -3    7.50    4.40
  -5  -7   3    3.70    4.00
  -5  -7   3   10.80    2.70
   4   7  -3  156.78   13.00
   4   7  -3  158.58   12.70
  -4  -7   3  164.88   10.70
  -4  -7   3  172.48   12.40
   3   7  -3  448.46   28.70
   3   7  -3  415.36   29.10
  -3  -7   3  527.95   29.10
  -3  -7   3  479.55   27.40
   2   7  -3    4.60    4.40
   2   7  -3    0.00    2.20
  -2  -7   3    1.60    3.20
  -2  -7   3   -2.60    1.50
   1   7  -3  563.04   36.20
   1   7  -3  618.64   35.30
  -1  -7   3  595.74   34.20
  -1  -7   3  602.04   36.00
   0   7  -3   43.60    4.50
   0   7  -3   44.40    6.30
   0  -7   3   41.80    3.80
   0  -7   3   45.00    6.20
  -1   7  -3 1117.89   66.09
  -1   7  -3 1175.58   64.59
   1  -7   3 1109.69   65.99
   1  -7   3 1124.29   63.99
  -2   7  -3   41.90    4.20
  -2   7  -3   45.40    6.20
   2  -7   3   40.00    3.60
   2  -7   3   42.00    6.50
  -3   7  -3   23.10    3.40
  -3   7  -3   14.80    4.40
   3  -7   3   23.10    4.90
   3  -7   3   19.20    2.50
  -4   7  -3   13.20    4.20
   4  -7   3   11.80    2.00
   4  -7   3   17.20    5.10
  -5   7  -3  399.46   25.10
   5  -7   3  419.66   26.40
   5  -7   3  373.66   22.90
  -6   7  -3   19.00    4.50
  -6   7  -3   19.50    3.10
   6  -7   3   13.80    6.50
  -7   7  -3  344.57   22.60
   7  -7   3  345.47   24.70
   9   6  -3   21.20    8.70
  -9  -6   3    9.10    3.80
  -9  -6   3   10.70    4.70
   8   6  -3    9.40    6.20
  -8  -6   3    5.60    3.00
  -8  -6   3    8.40    4.00
   7   6  -3   28.00    6.80
  -7  -6   3   33.70    4.40
   6   6  -3    0.00    4.20
  -6  -6   3    4.70    3.10
  -6  -6   3   -1.10    2.30
   5   6  -3   77.89    9.00
   5   6  -3   87.89    9.40
  -5  -6   3   84.09    6.70
  -5  -6   3   91.99    7.90
   4   6  -3   28.50    5.20
   4   6  -3   24.10    4.80
  -4  -6   3   33.60    3.40
  -4  -6   3   35.00    4.50
   3   6  -3  154.18   11.10
   3   6  -3  139.69   11.90
  -3  -6   3  155.18   10.80
  -3  -6   3  146.79    9.60
   2   6  -3    1.80    2.30
  -2  -6   3   -0.20    1.50
  -2  -6   3    1.00    3.10
   1   6  -3   26.90    5.00
   1   6  -3   32.70    3.80
  -1  -6   3   32.60    4.50
   0   6  -3   96.89    8.50
   0   6  -3   98.69    7.00
   0  -6   3   91.99    8.10
   0  -6   3   98.19    6.40
  -1   6  -3  107.79    9.00
  -1   6  -3  108.59    7.20
   1  -6   3  106.59    6.70
   1  -6   3   89.19    8.80
  -2   6  -3   68.19    6.90
  -2   6  -3   66.59    4.80
   2  -6   3   56.29    6.60
   2  -6   3   65.79    4.60
  -3   6  -3  146.59   11.10
  -3   6  -3  159.78    9.40
   3  -6   3  141.29   11.60
   3  -6   3  141.09    9.10
  -4   6  -3   70.39    7.20
  -4   6  -3   77.99    5.50
   4  -6   3   69.49    8.80
  -5   6  -3   38.80    5.40
   5  -6   3   38.50    3.60
   5  -6   3   47.40    6.80
  -6   6  -3   -0.90    3.10
  -6   6  -3    2.80    2.10
   6  -6   3    9.10    4.70
  -7   6  -3    6.00    3.70
  -7   6  -3    0.80    2.50
   7  -6   3    3.70    5.00
  -8   6  -3   20.30    5.10
  -8   6  -3   23.90    3.70
   8  -6   3   30.80    6.90
  -9   6  -3   44.20    6.20
  -9   6  -3   48.10    5.50
   9  -6   3   41.10    8.50
  10   5  -3    7.00    8.70
 -10  -5   3    0.70    3.70
   9   5  -3  173.78   19.70
  -9  -5   3  162.18   12.00
   8   5  -3   74.19   10.20
  -8  -5   3   48.30    6.30
  -8  -5   3   67.79    6.60
   7   5  -3    9.20    6.00
  -7  -5   3    6.70    2.90
  -7  -5   3   13.70    2.90
   6   5  -3   10.80    4.80
   6   5  -3    3.50    4.20
  -6  -5   3    7.10    2.50
  -6  -5   3    7.60    2.90
   5   5  -3   19.90    4.80
   5   5  -3   20.40    4.70
  -5  -5   3   19.40    2.90
   4   5  -3   44.20    5.90
   4   5  -3   41.50    6.20
  -4  -5   3   44.50    4.00
  -4  -5   3   38.10    4.70
   3   5  -3  646.64   39.90
   3   5  -3  673.83   39.90
  -3  -5   3  671.23   38.40
  -3  -5   3  684.53   38.90
   2   5  -3   77.69    7.60
   2   5  -3   86.39    6.60
  -2  -5   3   79.19    5.60
  -2  -5   3   82.19    6.70
   1   5  -3   25.90    3.20
   1   5  -3   30.10    4.50
  -1  -5   3   23.50    2.60
  -1  -5   3   27.40    3.80
   0   5  -3   56.19    4.40
   0   5  -3   55.99    6.20
   0  -5   3   51.79    5.60
   0  -5   3   55.49    4.00
  -1   5  -3  622.14   36.80
  -1   5  -3  666.53   35.50
   1  -5   3  550.14   36.80
   1  -5   3  627.34   35.20
  -2   5  -3  117.59    7.10
  -2   5  -3  111.39    8.60
   2  -5   3  110.29    7.00
   2  -5   3  106.19    8.70
  -3   5  -3    4.50    2.40
  -3   5  -3    4.80    1.40
   3  -5   3    7.90    1.40
   3  -5   3    1.80    2.80
  -4   5  -3    3.40    2.50
   4  -5   3    3.20    1.20
   4  -5   3    3.10    3.20
   4  -5   3    3.50    3.90
  -5   5  -3    3.20    2.40
   5  -5   3    6.70    4.70
   5  -5   3    4.10    1.70
   5  -5   3    4.90    3.30
  -6   5  -3   23.20    2.80
  -6   5  -3   16.50    3.40
   6  -5   3   18.10    4.70
  -7   5  -3  153.68   10.40
  -7   5  -3  131.29    9.30
   7  -5   3  126.89   11.70
  -8   5  -3    3.40    2.90
  -8   5  -3    2.20    2.50
   8  -5   3   -1.00    4.30
  -9   5  -3   45.90    6.60
   9  -5   3   43.80    8.30
 -10   5  -3  148.79   11.30
 -10   5  -3  162.18   12.50
  10  -5   3  165.28   15.80
  10   4  -3    3.80    7.20
 -10  -4   3   -1.80    3.40
 -10  -4   3    4.50    3.40
   9   4  -3   13.50    7.30
  -9  -4   3   -1.60    3.10
  -9  -4   3    6.20    3.00
   8   4  -3  859.81   53.29
  -8  -4   3  895.31   49.10
  -8  -4   3  785.42   48.70
   7   4  -3 1127.99   65.89
   7   4  -3 1101.29   68.39
  -7  -4   3 1154.58   64.69
   6   4  -3   -2.70    4.80
   6   4  -3    2.90    4.00
  -6  -4   3    3.10    1.90
  -6  -4   3    0.50    2.10
   5   4  -3  951.30   54.59
  -5  -4   3  904.51   52.89
  -5  -4   3  930.01   53.09
   4   4  -3  548.15   33.60
   4   4  -3  542.85   34.00
  -4  -4   3  570.34   32.00
  -4  -4   3  547.75   31.90
   3   4  -3 2155.58  118.89
   3   4  -3 1928.71  118.49
  -3  -4   3 2111.79  117.29
  -3  -4   3 2134.59  117.19
   2   4  -3   89.59    7.20
   2   4  -3   84.09    7.70
  -2  -4   3   94.59    6.00
  -2  -4   3   89.89    6.50
   1   4  -3   15.30    2.60
   1   4  -3   16.00    3.40
  -1  -4   3   14.20    1.90
  -1  -4   3   14.80    2.60
   0   4  -3   12.20    1.80
   0   4  -3    8.40    2.60
   0  -4   3   10.60    1.40
   0  -4   3    8.30    2.20
  -1   4  -3 1104.39   62.29
  -1   4  -3 1132.39   63.69
   1  -4   3 1084.69   62.19
   1  -4   3 1101.39   63.19
  -2   4  -3  291.47   16.70
  -2   4  -3  286.77   18.10
   2  -4   3  296.67   17.90
   2  -4   3  286.97   16.80
  -3   4  -3 1337.97   75.19
   3  -4   3 1275.17   75.29
   3  -4   3 1284.77   76.59
   3  -4   3 1455.35   75.59
  -4   4  -3  110.19    8.40
   4  -4   3  131.69    7.30
   4  -4   3  114.59    8.80
   4  -4   3  111.79    8.80
   4  -4   3  113.79    7.40
  -5   4  -3 2038.10  120.29
   5  -4   3 2245.78  118.89
   5  -4   3 2021.80  120.59
   5  -4   3 2182.58  119.39
  -6   4  -3 1031.60   58.99
  -6   4  -3 1011.90   58.09
   6  -4   3 1024.60   59.59
  -7   4  -3  339.47   20.80
  -7   4  -3  349.27   20.20
   7  -4   3  318.27   21.60
  -8   4  -3   32.50    4.70
  -8   4  -3   39.00    4.50
   8  -4   3   33.00    5.70
  -9   4  -3  112.19    8.80
  -9   4  -3  129.59    9.70
   9  -4   3  115.69   11.40
 -10   4  -3   27.90    4.80
 -10   4  -3   23.00    4.00
  10  -4   3   20.90    6.50
  11   3  -3  206.28   21.90
 -11  -3   3  195.38   13.40
  10   3  -3    2.70    5.20
  10   3  -3   -4.80    8.40
 -10  -3   3    0.90    2.50
   9   3  -3 1393.86   79.99
   9   3  -3 1151.28   74.89
  -9  -3   3 1375.16   74.59
   8   3  -3    4.20    6.00
   8   3  -3    0.50    6.90
  -8  -3   3    1.80    2.20
   7   3  -3 1082.69   63.39
   7   3  -3 1033.90   64.89
   7   3  -3 1145.29   67.49
  -7  -3   3 1156.28   63.19
   6   3  -3   78.79    9.70
   6   3  -3   67.99    6.30
   6   3  -3   69.09    9.10
  -6  -3   3   73.29    5.80
   5   3  -3  511.85   33.40
   5   3  -3  494.35   32.00
  -5  -3   3  522.45   30.10
  -5  -3   3  534.75   29.80
   4   3  -3  274.77   18.60
   4   3  -3  257.27   17.90
  -4  -3   3  261.97   15.60
   3   3  -3 3373.66  199.58
   3   3  -3 3703.23  200.28
  -3  -3   3 3430.46  197.98
  -3  -3   3 3631.54  197.98
   2   3  -3  227.98   14.00
   2   3  -3  206.78   14.20
  -2  -3   3  205.28   12.50
  -2  -3   3  196.38   12.30
   1   3  -3 2491.65  144.09
   1   3  -3 2699.73  143.59
  -1  -3   3 2700.43  142.69
  -1  -3   3 2271.77  142.79
   0   3  -3   41.10    3.40
   0   3  -3   39.40    4.40
   0  -3   3   38.40    2.90
   0  -3   3   39.20    3.60
  -1   3  -3 8755.92  477.85
  -1   3  -3 8168.38  477.15
   1  -3   3 8969.80  477.45
   1  -3   3 9246.47  477.85
   1  -3   3 7521.75  477.05
  -2   3  -3  686.63   40.20
  -2   3  -3  695.13   38.70
   2  -3   3  675.33   39.80
   2  -3   3  674.23   39.00
   2  -3   3  713.63   39.40
  -3   3  -3    4.20    1.80
   3  -3   3    2.30    1.00
   3  -3   3    0.80    1.80
  -4   3  -3    2.10    1.80
   4  -3   3    4.00    2.20
   4  -3   3    5.80    1.40
  -5   3  -3 1485.25   87.49
   5  -3   3 1601.04   87.39
   5  -3   3 1610.94   86.79
   5  -3   3 1504.15   88.39
  -6   3  -3    6.70    2.20
  -6   3  -3    6.20    1.60
   6  -3   3   10.10    2.10
   6  -3   3    6.90    1.30
  -7   3  -3 1853.01  106.89
  -7   3  -3 1819.22  106.49
   7  -3   3 2041.60  106.49
   7  -3   3 1829.92  107.69
  -8   3  -3   35.20    4.60
  -8   3  -3   29.80    3.80
   8  -3   3   31.20    5.20
  -9   3  -3  676.73   39.00
  -9   3  -3  675.93   39.30
   9  -3   3  650.33   40.50
 -10   3  -3  824.42   48.10
 -10   3  -3  850.31   47.90
  10  -3   3  793.42   49.70
 -11   3  -3  624.24   36.90
  11  -3   3  611.54   39.00
  11   2  -3  450.15   42.80
  11   2  -3  480.95   30.90
 -11  -2   3  516.45   29.30
  10   2  -3   98.59   14.80
  10   2  -3   90.19    9.50
 -10  -2   3  106.59    8.00
   9   2  -3    7.10    4.40
   9   2  -3   11.00    7.30
  -9  -2   3    4.40    2.00
  -9  -2   3    9.50    2.70
   8   2  -3 1467.25   89.39
   8   2  -3 1415.76   84.39
  -8  -2   3 1616.54   84.29
  -8  -2   3 1425.96   83.49
   7   2  -3 1695.43   99.99
   7   2  -3 1760.02  104.69
  -7  -2   3 1751.72   99.39
  -7  -2   3 1857.91   99.99
   6   2  -3   20.80    6.20
   6   2  -3   24.60    3.50
  -6  -2   3   23.30    2.70
  -6  -2   3   28.70    3.20
   5   2  -3 1776.92  104.19
   5   2  -3 1931.51  108.29
  -5  -2   3 1771.32  104.19
  -5  -2   3 1925.11  103.99
   4   2  -3  118.99   10.80
   4   2  -3  118.29    7.70
  -4  -2   3  111.39    7.70
  -4  -2   3  131.59    7.60
   3   2  -3 3363.66  195.98
  -3  -2   3 3271.67  193.08
  -3  -2   3 3516.85  193.38
  -3  -2   3 3652.83  193.08
   2   2  -3  471.35   29.70
   2   2  -3  523.45   30.30
  -2  -2   3  501.35   27.80
  -2  -2   3  467.15   28.00
   1   2  -3  102.09    5.80
   1   2  -3   77.59    7.40
   1   2  -3   91.39    7.40
  -1  -2   3   91.39    5.90
  -1  -2   3   90.79    5.80
   0   2  -3    4.00    1.90
   0   2  -3    4.10    1.60
   0  -2   3    9.00    2.80
   0  -2   3    5.90    1.20
   0  -2   3    3.40    0.80
  -1   2  -3 2308.37  140.09
  -1   2  -3 2465.95  141.19
   1  -2   3 2776.62  140.89
   1  -2   3 2557.64  140.39
   1  -2   3 2397.96  139.99
  -2   2  -3   19.30    2.90
   2  -2   3   20.60    2.50
   2  -2   3   21.90    1.90
  -3   2  -3 3236.08  180.38
   3  -2   3 3104.69  180.18
   3  -2   3 3282.17  179.68
  -4   2  -3  300.17   18.20
   4  -2   3  324.07   17.70
   4  -2   3  279.87   18.30
  -5   2  -3 3351.46  188.38
  -5   2  -3 3230.88  188.68
   5  -2   3 3269.27  189.18
   5  -2   3 3365.76  187.78
   5  -2   3 3579.74  188.08
  -6   2  -3 2148.09  115.19
  -6   2  -3 2030.70  114.99
   6  -2   3 1860.61  115.69
   6  -2   3 2117.49  114.79
  -7   2  -3  327.57   20.90
  -7   2  -3  327.37   20.30
   7  -2   3  359.56   20.50
   7  -2   3  346.97   21.40
  -8   2  -3  113.29    8.20
  -8   2  -3  116.39    8.20
   8  -2   3  115.89    8.90
   8  -2   3  106.19    9.30
  -9   2  -3  389.66   23.00
  -9   2  -3  360.76   23.00
   9  -2   3  388.06   24.70
 -10   2  -3   30.30    4.10
 -10   2  -3   27.90    4.20
  10  -2   3   42.50    6.60
 -11   2  -3  809.62   45.00
  11  -2   3  725.73   46.80
  11   1  -3  116.69   17.30
  11   1  -3  105.69   11.20
 -11  -1   3  114.69    8.50
  10   1  -3    5.90    4.00
  10   1  -3   17.80    9.10
 -10  -1   3    4.90    4.10
 -10  -1   3   10.90    2.80
   9   1  -3  471.75   31.90
   9   1  -3  538.55   38.50
  -9  -1   3  579.14   31.40
  -9  -1   3  546.65   31.00
   8   1  -3    2.70    2.80
   8   1  -3   -3.20    7.00
  -8  -1   3    1.30    1.70
  -8  -1   3    4.20    1.90
   7   1  -3  240.68   21.80
   7   1  -3  264.17   16.40
  -7  -1   3  270.47   16.10
  -7  -1   3  273.17   15.90
   6   1  -3   91.59   12.80
   6   1  -3  105.49    7.40
  -6  -1   3  112.19    7.10
   5   1  -3    7.00    5.40
   5   1  -3    3.90    1.50
  -5  -1   3    4.50    1.60
  -5  -1   3    9.70    1.50
   4   1  -3  290.87   16.20
   4   1  -3  283.27   20.00
  -4  -1   3  286.77   16.10
  -4  -1   3  283.27   16.30
  -4  -1   3  247.08   16.30
   3   1  -3 1134.19   63.89
   3   1  -3 1065.29   60.49
  -3  -1   3 1160.28   60.39
  -3  -1   3  962.00   60.69
  -3  -1   3 1066.59   60.79
   2   1  -3   36.10    5.00
  -2  -1   3   33.40    2.10
  -2  -1   3   35.00    2.10
  -2  -1   3   29.10    2.40
  -2  -1   3   33.80    2.60
   1   1  -3  270.97   17.20
   1   1  -3  271.87   15.10
  -1  -1   3  247.38   15.50
  -1  -1   3  247.78   15.30
  -1  -1   3  282.77   19.40
  -1  -1   3  278.57   15.10
   0   1  -3  112.79    7.70
   0   1  -3   88.09    7.80
   0   1  -3  102.19    6.30
   0  -1   3  119.19    7.80
   0  -1   3  105.09    6.30
  -1   1  -3 3246.18  199.18
  -1   1  -3 3477.15  200.18
  -1   1  -3 3720.23  199.18
   1  -1   3 3785.22  199.18
   1  -1   3 3569.54  199.18
  -2   1  -3   78.59    4.70
  -2   1  -3   90.49    5.10
   2  -1   3   77.59    5.50
   2  -1   3   82.99    5.10
  -3   1  -3  104.69    6.50
  -3   1  -3  102.49    7.00
   3  -1   3  106.09    6.40
   3  -1   3   94.59    6.80
   3  -1   3   99.99    5.90
  -4   1  -3    8.60    1.70
  -4   1  -3   10.70    1.60
  -4   1  -3   15.80    2.80
   4  -1   3   10.20    1.30
   4  -1   3   11.40    2.30
  -5   1  -3  453.15   25.30
  -5   1  -3  409.16   25.20
  -5   1  -3  493.85   26.70
   5  -1   3  404.66   25.80
   5  -1   3  414.66   24.90
  -6   1  -3    9.50    1.70
  -6   1  -3    7.10    1.60
   6  -1   3    4.50    2.40
   6  -1   3    9.10    2.10
  -7   1  -3  656.23   40.90
  -7   1  -3  788.62   40.90
   7  -1   3  695.43   41.80
   7  -1   3  697.23   41.20
  -8   1  -3   47.00    4.90
  -8   1  -3   59.69    4.90
   8  -1   3   48.10    6.30
   8  -1   3   44.60    5.90
  -9   1  -3  274.27   17.20
  -9   1  -3  278.47   17.20
   9  -1   3  264.97   18.40
   9  -1   3  279.77   18.20
 -10   1  -3  189.98   13.20
 -10   1  -3  210.38   13.00
  10  -1   3  191.68   15.40
  11   0  -3   17.50   12.20
  11   0  -3   -0.70    4.90
 -11   0   3    1.70    2.30
  10   0  -3   -1.70    4.00
  10   0  -3   -4.20    9.00
 -10   0   3   -1.10    2.20
 -10   0   3   -0.60    2.40
   9   0  -3   16.80    8.90
   9   0  -3    5.40    3.30
  -9   0   3    0.50    2.00
  -9   0   3    2.30    2.30
   8   0  -3    0.20    7.80
   8   0  -3    1.50    2.40
  -8   0   3    1.50    1.80
  -8   0   3   -1.60    1.50
   7   0  -3    3.00    2.20
   7   0  -3   -1.40    5.60
  -7   0   3   -1.20    1.40
  -7   0   3    0.10    1.60
   6   0  -3   -2.50    5.10
   6   0  -3    0.10    1.50
  -6   0   3   -0.30    1.30
  -6   0   3    1.30    1.20
   5   0  -3    1.70    4.40
   5   0  -3    3.10    1.40
  -5   0   3   -0.50    1.10
  -5   0   3    0.10    1.30
   4   0  -3    5.70    4.40
   4   0  -3   -0.90    0.90
  -4   0   3    0.10    1.20
  -4   0   3   -1.10    1.30
  -4   0   3   -2.30    0.90
   3   0  -3    0.20    0.60
   3   0  -3    1.10    2.80
  -3   0   3    1.80    0.80
  -3   0   3    3.00    0.90
  -3   0   3    0.10    0.80
   2   0  -3    1.40    2.20
   2   0  -3    0.50    0.40
  -2   0   3    0.10    0.40
  -2   0   3    0.50    0.70
  -2   0   3    0.40    0.60
   1   0  -3   -9.70    0.50
   1   0  -3   -8.00    1.80
  -1   0   3   -7.90    0.80
  -1   0   3   -9.40    2.50
   0   0  -3   -3.30    0.50
   0   0  -3   -3.20    0.60
   0   0  -3   -4.20    1.40
   0   0  -3   -3.80    0.40
   0   0   3   -4.20    0.40
   0   0   3   -3.70    0.50
   0   0   3   -3.90    0.50
  -1   0  -3   -1.30    0.80
  -1   0  -3   -0.70    0.50
  -1   0  -3   -1.80    0.70
   1   0   3   -0.60    0.50
   1   0   3    0.30    0.70
   1   0   3   -0.80    0.50
   1   0   3   -2.80    0.60
  -2   0  -3    0.50    1.40
  -2   0  -3    0.70    0.60
   2   0   3   -1.30    0.60
   2   0   3   -0.30    0.90
   2   0   3    0.80    0.50
  -3   0  -3    6.70    1.70
  -3   0  -3    4.50    1.30
   3   0   3    6.30    1.30
  -4   0  -3   -3.50    1.00
  -4   0  -3   -2.30    1.00
   4   0   3   -2.20    0.80
   4   0   3   -2.20    1.50
  -5   0  -3    2.00    1.30
  -5   0  -3    2.30    1.20
   5   0   3    1.30    1.30
   5   0   3    0.80    1.80
  -6   0  -3   -2.60    1.40
  -6   0  -3    1.40    1.20
   6   0   3   -0.20    2.00
   6   0   3    1.10    1.70
  -7   0  -3    1.60    1.70
  -7   0  -3   -0.90    1.40
   7   0   3    3.20    2.30
   7   0   3    1.40    2.60
  -8   0  -3    0.00    1.80
  -8   0  -3   -1.30    1.70
   8   0   3   -1.80    2.60
   8   0   3    1.10    3.00
  -9   0  -3   -2.30    1.90
  -9   0  -3    3.60    2.00
   9   0   3    5.60    3.60
   9   0   3    4.20    5.50
 -10   0  -3   -0.10    2.70
  10   0   3   -0.60    4.60
  10   0   3   -5.00    4.30
 -11   0  -3   -2.70    2.60
  11  -1  -3   96.39   17.90
  11  -1  -3  106.59   11.00
 -11   1   3  107.79    8.10
 -11   1   3  118.49    8.90
  10  -1  -3    1.10   11.10
  10  -1  -3    5.40    4.30
 -10   1   3    6.40    2.30
 -10   1   3    4.10    2.70
   9  -1  -3  615.14   35.30
   9  -1  -3  572.44   42.10
  -9   1   3  580.84   34.70
  -9   1   3  597.94   34.30
   8  -1  -3   -1.50    7.20
  -8   1   3    1.90    2.00
  -8   1   3    2.30    1.70
   7  -1  -3  273.77   16.20
   7  -1  -3  252.07   21.50
  -7   1   3  250.37   16.70
   6  -1  -3  106.39    7.60
   6  -1  -3  102.59   11.80
  -6   1   3  117.59    7.80
  -6   1   3  112.99    7.20
   5  -1  -3    6.30    4.30
   5  -1  -3    4.30    1.60
  -5   1   3    6.70    1.40
  -5   1   3    3.00    1.60
   4  -1  -3  283.57   19.80
   4  -1  -3  294.07   16.10
  -4   1   3  281.17   16.50
  -4   1   3  244.58   15.90
   3  -1  -3 1149.39   64.09
   3  -1  -3 1127.39   60.99
  -3   1   3  955.30   60.79
  -3   1   3 1109.49   61.19
  -3   1   3 1078.59   61.39
   2  -1  -3   29.50    2.20
   2  -1  -3   32.30    2.40
   2  -1  -3   29.80    4.40
  -2   1   3   34.40    2.80
  -2   1   3   32.50    2.50
  -2   1   3   29.90    2.10
   1  -1  -3  273.77   15.20
   1  -1  -3  269.27   17.20
  -1   1   3  244.48   15.00
  -1   1   3  282.97   15.20
  -1   1   3  253.77   15.40
  -1   1   3  251.87   15.50
   0  -1  -3   98.89    6.60
   0  -1  -3  110.59    6.40
   0  -1  -3  110.19    6.20
   0   1   3   98.59    6.50
   0   1   3  108.59    6.60
   0   1   3  112.19    6.30
   0   1   3  105.59    6.60
  -1  -1  -3 3309.47  201.28
  -1  -1  -3 3446.76  201.18
   1   1   3 3625.04  201.38
   1   1   3 3621.44  201.18
   1   1   3 3648.03  201.58
   1   1   3 3946.01  201.58
  -2  -1  -3   76.89    4.70
  -2  -1  -3   74.89    4.70
   2   1   3   72.19    4.70
   2   1   3   66.69    4.60
   2   1   3   85.89    5.20
  -3  -1  -3   90.99    5.90
  -3  -1  -3   92.09    5.60
  -3  -1  -3   93.29    6.30
   3   1   3   88.19    5.80
   3   1   3   93.59    6.30
  -4  -1  -3    9.20    1.70
  -4  -1  -3   10.60    1.60
  -4  -1  -3   12.70    1.70
   4   1   3    9.40    1.50
   4   1   3   10.80    2.20
  -5  -1  -3  343.87   22.40
  -5  -1  -3  441.26   22.50
  -5  -1  -3  402.56   23.10
   5   1   3  395.56   23.50
   5   1   3  385.46   23.20
  -6  -1  -3    9.50    1.40
  -6  -1  -3    8.80    2.00
   6   1   3    9.90    2.60
   6   1   3    7.90    2.30
  -7  -1  -3  798.02   40.20
  -7  -1  -3  685.13   40.90
   7   1   3  694.93   41.60
   7   1   3  643.14   41.30
  -8  -1  -3   49.00    3.70
  -8  -1  -3   36.70    4.40
   8   1   3   37.50    5.70
   8   1   3   54.79    6.60
  -9  -1  -3  272.57   16.20
   9   1   3  265.27   17.60
   9   1   3  232.08   17.30
 -10  -1  -3  199.98   13.00
  10   1   3  186.68   14.80
  10   1   3  202.48   15.00
 -11  -1  -3  162.68   11.80
  11   1   3  174.98   14.40
  11  -2  -3  478.45   41.10
  11  -2  -3  540.55   32.20
 -11   2   3  516.95   30.00
 -11   2   3  499.95   30.70
  10  -2  -3  102.59   16.80
  10  -2  -3   94.99    9.80
 -10   2   3  102.09    7.30
 -10   2   3  102.39    8.20
   9  -2  -3    1.30    3.40
   9  -2  -3    4.20    8.60
  -9   2   3   12.90    2.40
  -9   2   3    9.10    2.70
   8  -2  -3 1432.16   92.49
   8  -2  -3 1532.75   87.19
  -8   2   3 1554.44   86.19
  -8   2   3 1577.04   86.99
   7  -2  -3 1685.63  104.09
   7  -2  -3 1712.63   99.29
  -7   2   3 1763.62   98.59
  -7   2   3 1834.02   99.29
   6  -2  -3   24.80    3.40
   6  -2  -3   32.80    7.20
  -6   2   3   26.20    2.80
   5  -2  -3 1780.32  109.49
   5  -2  -3 1935.71  105.89
  -5   2   3 1937.61  105.29
  -5   2   3 1841.12  105.99
   4  -2  -3  125.49   11.90
   4  -2  -3  129.09    8.10
  -4   2   3  118.49    8.30
  -4   2   3  123.59    7.40
   3  -2  -3 3339.27  176.68
  -3   2   3 2905.31  173.88
  -3   2   3 3053.19  173.08
   2  -2  -3  540.55   28.50
   2  -2  -3  511.35   29.10
  -2   2   3  465.35   29.30
   1  -2  -3   98.89    6.20
   1  -2  -3   89.09    5.60
  -1   2   3  103.39    5.70
  -1   2   3  101.19    6.40
  -1   2   3   88.79    6.50
   0  -2  -3    3.30    1.00
   0  -2  -3    5.20    0.70
   0   2   3    2.80    0.90
   0   2   3    2.50    1.00
  -1  -2  -3 2462.85  128.69
  -1  -2  -3 2047.40  128.39
   1   2   3 2170.08  128.79
   1   2   3 2379.36  128.89
   1   2   3 2428.56  129.09
  -2  -2  -3   19.90    1.90
  -2  -2  -3   22.40    2.10
   2   2   3   19.40    2.00
   2   2   3   21.80    2.80
   2   2   3   20.40    1.80
  -3  -2  -3 2742.73  164.38
  -3  -2  -3 2677.83  163.88
   3   2   3 3263.37  164.98
   3   2   3 2863.81  164.48
   3   2   3 3108.19  163.88
  -4  -2  -3  256.57   17.20
  -4  -2  -3  325.47   16.60
  -4  -2  -3  277.87   16.40
   4   2   3  279.67   17.30
   4   2   3  305.57   17.80
  -5  -2  -3 2924.41  178.58
   5   2   3 3215.88  178.88
   5   2   3 3400.96  179.28
  -6  -2  -3 1771.52  105.39
   6   2   3 1915.51  106.09
   6   2   3 1910.81  105.99
  -7  -2  -3  319.07   19.00
   7   2   3  287.97   19.70
   7   2   3  328.57   19.90
  -8  -2  -3  103.09    7.70
   8   2   3  109.59    9.10
   8   2   3   97.29    8.80
  -9  -2  -3  362.76   21.20
   9   2   3  323.17   22.60
   9   2   3  353.86   22.70
 -10  -2  -3   43.80    5.30
  10   2   3   37.90    6.30
  10   2   3   37.80    6.50
 -11  -2  -3  738.93   42.20
  11   2   3  750.42   44.70
  11   2   3  664.63   45.30
  11  -3  -3  170.78   15.30
  11  -3  -3  182.08   25.20
 -11   3   3  171.28   12.50
 -11   3   3  180.98   11.60
  10  -3  -3   -7.20   13.10
  10  -3  -3    9.30    5.10
 -10   3   3    2.30    2.80
 -10   3   3    2.80    2.30
   9  -3  -3 1296.57   86.59
   9  -3  -3 1355.16   80.29
  -9   3   3 1469.15   79.09
  -9   3   3 1431.96   79.69
   8  -3  -3   -1.20    9.20
   8  -3  -3    2.30    3.10
  -8   3   3    2.20    1.80
  -8   3   3    5.20    2.50
   7  -3  -3 1162.88   66.89
   7  -3  -3 1059.19   71.59
  -7   3   3 1199.48   65.69
  -7   3   3 1211.88   66.69
   6  -3  -3   62.89   12.60
  -6   3   3   82.99    6.30
  -6   3   3   76.69    5.20
   5  -3  -3  483.65   34.30
   5  -3  -3  508.95   30.70
  -5   3   3  564.74   29.70
  -5   3   3  519.25   30.70
   4  -3  -3  302.37   16.10
   4  -3  -3  280.17   17.00
   4  -3  -3  269.07   20.00
  -4   3   3  268.27   15.90
  -4   3   3  263.37   16.90
   3  -3  -3 3861.31  193.28
  -3   3   3 3019.80  193.08
   2  -3  -3  228.08   13.30
  -2   3   3  229.48   13.20
  -2   3   3  190.38   13.30
   1  -3  -3 2753.82  146.59
  -1   3   3 2281.57  146.59
  -1   3   3 2777.52  146.59
   0  -3  -3   41.00    3.40
   0  -3  -3   39.80    2.50
   0  -3  -3   41.60    3.00
   0   3   3   42.40    3.30
   0   3   3   33.70    3.40
  -1  -3  -3 6011.40  394.16
  -1  -3  -3 7238.78  394.66
  -1  -3  -3 7838.52  394.86
   1   3   3 6451.55  394.56
   1   3   3 7751.92  395.96
  -2  -3  -3  690.63   37.10
  -2  -3  -3  603.54   36.60
   2   3   3  660.13   36.60
   2   3   3  620.74   36.90
  -3  -3  -3    9.60    1.50
   3   3   3   10.80    1.50
   3   3   3   10.50    2.50
  -4  -3  -3    2.00    1.70
   4   3   3    7.90    2.30
   4   3   3    8.10    2.00
  -5  -3  -3 1169.88   66.49
   5   3   3 1146.79   68.79
  -6  -3  -3    5.20    1.90
   6   3   3    8.40    3.00
   6   3   3    9.30    2.80
  -7  -3  -3 1714.13   96.59
   7   3   3 1712.23   97.69
   7   3   3 1685.53   97.49
  -8  -3  -3   33.50    4.00
   8   3   3   36.70    5.90
   8   3   3   28.20    4.90
  -9  -3  -3  643.24   35.10
   9   3   3  593.54   36.70
   9   3   3  547.85   36.70
 -10  -3  -3  767.92   42.00
  10   3   3  703.63   43.70
  10   3   3  677.53   44.10
 -11  -3  -3  583.24   34.50
  11   3   3  580.54   37.40
  11   3   3  578.34   37.10
  10  -4  -3    1.70    5.50
  10  -4  -3   15.20   14.80
 -10   4   3    0.20    2.70
   9  -4  -3    2.20   12.50
   9  -4  -3   -3.00    4.30
  -9   4   3    1.30    2.70
  -9   4   3    4.00    2.10
   8  -4  -3  769.52   58.49
   8  -4  -3  890.41   53.09
  -8   4   3  930.71   52.49
  -8   4   3  987.90   51.39
   7  -4  -3  978.80   70.69
   7  -4  -3 1176.68   66.39
  -7   4   3 1184.48   66.09
  -7   4   3 1227.88   64.89
   6  -4  -3   11.80    7.70
   6  -4  -3   -2.30    2.70
  -6   4   3   -1.90    1.70
  -6   4   3    2.70    1.30
   5  -4  -3  967.30   55.19
  -5   4   3  891.91   54.99
  -5   4   3 1007.10   53.79
   4  -4  -3  547.05   34.10
   4  -4  -3  660.83   37.70
  -4   4   3  546.15   33.40
  -4   4   3  521.85   32.20
  -4   4   3  589.94   31.90
   3  -4  -3 2290.17  128.89
  -3   4   3 2275.77  128.59
   2  -4  -3   93.69    6.80
  -2   4   3  103.79    6.60
  -2   4   3   84.09    6.80
   1  -4  -3   14.50    2.40
  -1   4   3   14.90    2.10
  -1   4   3   19.40    2.80
   0  -4  -3   11.80    2.10
   0  -4  -3   11.10    1.00
   0  -4  -3    9.60    1.10
   0   4   3    9.10    1.70
   0   4   3   10.60    2.20
  -1  -4  -3 1070.79   58.99
  -1  -4  -3 1095.59   59.79
   1   4   3  970.30   59.59
   1   4   3 1058.99   59.59
  -2  -4  -3  308.37   17.20
  -2  -4  -3  280.67   16.40
   2   4   3  260.27   16.80
   2   4   3  275.97   16.60
  -3  -4  -3 1034.00   62.59
   3   4   3 1177.38   62.39
  -4  -4  -3   88.09    6.40
   4   4   3   99.59    7.20
  -5  -4  -3 1648.44  105.79
   5   4   3 1936.11  106.89
   5   4   3 2055.19  107.19
  -6  -4  -3  912.91   55.49
   6   4   3 1038.70   56.99
   6   4   3  967.30   56.59
  -7  -4  -3  316.47   19.70
   7   4   3  331.47   21.40
   7   4   3  327.37   21.10
  -8  -4  -3   37.70    4.30
   8   4   3   27.90    5.80
   8   4   3   31.30    5.20
  -9  -4  -3  113.29    8.60
   9   4   3  104.29   10.90
   9   4   3  106.69   11.00
 -10  -4  -3   26.10    4.10
  10   4   3   20.80    6.80
  10  -5  -3   -3.70   15.10
 -10   5   3    8.90    3.20
   9  -5  -3  191.18   15.30
   9  -5  -3  160.38   23.30
  -9   5   3  200.48   13.20
   8  -5  -3   70.79    8.10
   8  -5  -3   61.89   14.90
  -8   5   3   58.59    6.50
   7  -5  -3   11.10   10.10
   7  -5  -3    8.50    3.50
  -7   5   3    3.70    2.60
   6  -5  -3    0.90    8.20
   6  -5  -3   13.10    3.70
  -6   5   3    5.10    2.80
   5  -5  -3   18.60    3.50
   5  -5  -3   17.10    7.70
  -5   5   3   21.80    3.50
   4  -5  -3   36.60    5.10
   4  -5  -3   47.30    8.60
  -4   5   3   46.80    5.10
   3  -5  -3  706.63   40.30
  -3   5   3  624.24   40.00
  -3   5   3  729.93   39.80
   2  -5  -3   77.49    6.60
  -2   5   3   72.09    6.10
  -2   5   3   78.29    5.80
   1  -5  -3   24.50    3.50
  -1   5   3   25.60    3.70
  -1   5   3   23.40    3.00
   0  -5  -3   54.79    3.20
   0  -5  -3   60.49    5.00
   0  -5  -3   48.40    3.20
   0   5   3   54.79    5.00
   0   5   3   53.69    4.30
  -1  -5  -3  615.44   35.80
  -1  -5  -3  598.24   34.60
   1   5   3  626.04   35.70
   1   5   3  615.14   35.60
  -2  -5  -3  114.79    7.90
  -2  -5  -3  109.59    6.80
   2   5   3  103.29    7.40
   2   5   3  101.39    7.50
  -3  -5  -3    3.60    2.10
  -3  -5  -3    4.90    1.60
   3   5   3    2.90    1.90
   3   5   3    5.20    1.90
  -4  -5  -3    2.90    2.20
  -4  -5  -3    2.40    1.70
   4   5   3    1.80    1.30
   4   5   3    1.20    1.60
  -5  -5  -3    8.00    2.90
  -5  -5  -3    2.50    1.90
  -6  -5  -3   19.80    2.90
  -6  -5  -3   14.00    3.60
   6   5   3   18.30    3.90
  -7  -5  -3   85.49    8.60
  -7  -5  -3  115.99    7.90
   7   5   3  110.09    9.90
   7   5   3  104.79    9.50
  -8  -5  -3   -0.70    2.60
  -8  -5  -3   -1.30    3.20
   8   5   3    2.90    4.80
   8   5   3    3.20    3.90
  -9  -5  -3   48.80    5.30
   9   5   3   35.00    7.20
   9   5   3   43.90    7.80
 -10  -5  -3  148.19   10.20
  10   5   3  126.19   14.50
  10   5   3  113.19   13.90
   9  -6  -3  -20.00   15.80
   9  -6  -3   13.10    6.30
  -9   6   3   11.30    3.50
   8  -6  -3    1.20   14.10
   8  -6  -3    2.00    4.60
   7  -6  -3   10.50   12.10
   7  -6  -3    3.10    3.80
  -7   6   3    2.60    3.00
   6  -6  -3   -6.40    3.80
   6  -6  -3    1.00    9.40
  -6   6   3    3.80    3.10
   5  -6  -3   83.29   12.90
   5  -6  -3   92.09    8.60
  -5   6   3   80.49    7.60
   4  -6  -3   33.10    5.30
  -4   6   3   32.50    4.00
  -4   6   3   29.80    4.60
  -3   6   3  163.08   10.40
  -3   6   3  144.19   11.00
   2  -6  -3    4.00    2.60
  -2   6   3   -0.20    2.60
  -2   6   3   -0.70    1.80
   1  -6  -3   31.10    4.50
  -1   6   3   27.00    3.30
  -1   6   3   28.60    4.30
   0  -6  -3   98.69    5.60
   0  -6  -3   91.29    7.60
   0   6   3   99.29    6.90
   0   6   3   84.19    7.60
  -1  -6  -3  105.19    7.90
  -1  -6  -3   96.59    6.00
   1   6   3   93.19    7.10
   1   6   3  103.39    7.70
  -2  -6  -3   68.19    4.70
  -2  -6  -3   57.99    5.70
   2   6   3   60.59    5.40
   2   6   3   76.49    6.00
  -3  -6  -3  150.48   10.20
  -3  -6  -3  143.79    9.00
   3   6   3  136.19    9.90
   3   6   3  137.89    9.60
  -4  -6  -3   70.99    6.80
  -4  -6  -3   63.59    5.20
   4   6   3   66.99    6.20
   4   6   3   73.29    6.30
  -5  -6  -3   42.80    5.70
  -5  -6  -3   33.60    4.10
   5   6   3   41.10    5.60
  -6  -6  -3    3.50    2.30
  -6  -6  -3    1.60    3.20
   6   6   3    0.80    3.20
  -7  -6  -3    0.70    2.50
  -7  -6  -3    4.90    3.70
   7   6   3    3.40    3.90
  -8  -6  -3   19.30    4.30
  -8  -6  -3   21.00    3.80
   8   6   3   17.60    7.60
  -9  -6  -3   35.70    4.70
  -9  -6  -3   30.40    5.50
   9   6   3   39.90    7.60
   8  -7  -3   26.80   15.40
   8  -7  -3    5.90    6.10
  -8   7   3    7.50    4.00
   7  -7  -3  505.55   39.30
   7  -7  -3  472.65   32.60
  -7   7   3  508.55   30.50
   6  -7  -3   61.19   13.10
   6  -7  -3   51.29    7.70
  -6   7   3   58.99    7.00
   5  -7  -3    4.10    8.70
   5  -7  -3    4.40    4.50
  -5   7   3    3.20    2.90
   4  -7  -3  159.88   12.80
  -4   7   3  156.58   11.00
  -4   7   3  174.58   12.40
   3  -7  -3  498.75   30.00
  -3   7   3  495.75   29.80
  -3   7   3  466.15   28.90
   2  -7  -3   -0.30    3.30
  -2   7   3   -0.50    2.10
  -2   7   3    0.50    3.10
   1  -7  -3  598.54   37.10
  -1   7   3  642.04   37.00
  -1   7   3  614.94   36.30
   0  -7  -3   44.50    5.90
   0   7   3   45.50    5.70
   0   7   3   37.20    4.30
  -1  -7  -3 1095.79   66.39
   1   7   3 1112.49   65.89
   1   7   3 1232.98   66.19
  -2  -7  -3   35.70    3.30
  -2  -7  -3   44.40    5.50
   2   7   3   37.00    4.50
   2   7   3   41.80    6.00
  -3  -7  -3   17.00    2.40
  -3  -7  -3   12.70    3.70
   3   7   3   18.00    3.80
   3   7   3   14.20    3.20
  -4  -7  -3   15.60    2.50
  -4  -7  -3   15.10    4.30
   4   7   3    9.90    3.80
  -5  -7  -3  380.86   24.40
  -5  -7  -3  386.06   23.20
   5   7   3  404.96   25.10
  -6  -7  -3   17.30    3.30
  -6  -7  -3   15.00    4.30
   6   7   3   15.60    5.00
  -7  -7  -3  289.07   19.90
  -7  -7  -3  303.07   19.10
   7   7   3  330.77   21.90
   6  -8  -3    5.40   13.50
   6  -8  -3    4.10    5.40
  -6   8   3   21.60    5.00
   5  -8  -3  580.04   44.10
   5  -8  -3  581.94   39.80
  -5   8   3  716.83   38.80
   4  -8  -3   31.50    6.80
  -4   8   3   52.49    7.30
  -4   8   3   42.90    5.50
   3  -8  -3 1161.58   68.19
  -3   8   3 1076.99   66.89
  -3   8   3 1260.47   68.09
   2  -8  -3    2.00    4.80
  -2   8   3    5.90    3.80
  -2   8   3    3.90    2.90
   1  -8  -3   30.90    5.60
  -1   8   3   17.90    3.70
  -1   8   3   15.60    4.40
   0  -8  -3   12.60    4.90
   0   8   3   14.90    3.30
   0   8   3   24.90    4.60
  -1  -8  -3  658.23   39.70
   1   8   3  596.34   38.50
   1   8   3  706.43   39.10
  -2  -8  -3   19.30    4.60
   2   8   3   17.20    4.60
   2   8   3   19.20    4.00
  -3  -8  -3  729.13   43.90
   3   8   3  737.83   43.80
  -4  -8  -3   13.30    4.30
   4   8   3   15.80    3.90
  -5  -8  -3  959.30   57.89
  -5  -8  -3  957.10   56.19
   5   8   3 1038.40   58.69
  -6  -8  -3  580.54   34.90
  -6  -8  -3  562.74   36.30
   6   8   3  650.03   37.90
   3  -9  -3  687.03   44.10
  -3   9   3  672.63   42.50
  -3   9   3  808.02   44.00
   2  -9  -3  108.99   11.70
  -2   9   3   98.89    8.60
  -2   9   3  123.49   11.10
   1  -9  -3  335.67   24.50
  -1   9   3  351.26   22.80
  -1   9   3  404.16   24.20
   0  -9  -3   95.39   11.20
   0   9   3  105.19   10.00
   0   9   3   90.19    8.50
  -1  -9  -3 1436.26   78.19
   1   9   3 1230.68   77.79
  -2  -9  -3  307.17   20.70
   2   9   3  284.17   19.50
  -3  -9  -3   47.50    7.20
   3   9   3   38.30    5.90
   3   9  -4   26.30    6.10
   3   9  -4   30.60   10.20
  -3  -9   4    6.60    6.60
  -3  -9   4   28.30    4.20
   2   9  -4  100.09   13.30
   2   9  -4   95.49    9.40
  -2  -9   4   82.59    7.70
  -2  -9   4  125.59   11.90
   1   9  -4   63.69    7.70
   1   9  -4   60.39    9.40
  -1  -9   4   76.99    9.10
  -1  -9   4   63.19    6.10
   0   9  -4   91.59    8.20
   0   9  -4   95.39   12.10
   0  -9   4   81.19    7.00
   0  -9   4  125.19   11.90
  -2   9  -4   -0.40    6.40
   2  -9   4    1.70    6.40
   3  -9   4    8.10    7.40
   6   8  -4   21.40    6.50
  -6  -8   4   10.00    7.00
  -6  -8   4   15.00    3.70
  -5  -8   4   58.09    6.40
  -5  -8   4   86.09   10.20
   4   8  -4   -1.20    6.20
   4   8  -4    2.90    4.50
  -4  -8   4    3.90    5.10
  -4  -8   4    0.50    2.70
   3   8  -4   -2.20    5.70
   3   8  -4   -4.00    3.50
  -3  -8   4   -4.80    5.10
  -3  -8   4    0.60    2.50
   2   8  -4    6.00    3.50
   2   8  -4    2.30    5.30
  -2  -8   4    5.50    2.50
  -2  -8   4    2.80    4.60
   1   8  -4    4.00    5.10
   1   8  -4   -0.20    3.00
  -1  -8   4    0.10    2.10
  -1  -8   4   -3.80    4.70
   0   8  -4   77.09    6.90
   0  -8   4   72.09    8.70
   0  -8   4   79.49    5.90
  -1   8  -4  163.28   10.60
  -1   8  -4  152.28   13.30
   1  -8   4  143.29    9.70
   1  -8   4  149.79   12.60
  -2   8  -4   13.90    5.30
   2  -8   4   -0.20    4.70
   2  -8   4   12.60    2.20
  -3   8  -4   37.10    6.90
   3  -8   4   35.50    3.80
   3  -8   4   36.50    7.30
  -4   8  -4  119.39   11.30
   4  -8   4  112.09    7.70
   4  -8   4  110.79   13.60
  -5   8  -4  117.99   10.80
   5  -8   4  102.89   12.10
   7   7  -4   -2.90    6.50
  -7  -7   4    2.80    4.90
  -7  -7   4    2.40    3.90
   6   7  -4    4.40    5.40
  -6  -7   4    1.50    2.90
  -6  -7   4    6.90    4.80
   5   7  -4  256.17   18.70
   5   7  -4  226.98   23.20
  -5  -7   4  258.07   17.30
  -5  -7   4  247.28   15.70
   4   7  -4 1183.18   69.69
   4   7  -4 1062.79   69.29
  -4  -7   4 1281.17   68.89
  -4  -7   4 1217.38   67.69
   3   7  -4  130.99   10.70
   3   7  -4  133.19   12.20
  -3  -7   4  158.18   11.40
  -3  -7   4  133.49    9.30
   2   7  -4  272.57   19.50
   2   7  -4  293.77   18.40
  -2  -7   4  276.87   17.00
  -2  -7   4  280.47   18.90
   1   7  -4  101.19   10.30
   1   7  -4  103.09    8.10
  -1  -7   4  113.39    9.50
  -1  -7   4   97.19    7.10
   0   7  -4  753.12   48.60
   0   7  -4  870.51   47.30
   0  -7   4  810.12   48.30
   0  -7   4  823.72   46.50
  -1   7  -4   30.20    5.20
   1  -7   4   30.50    3.20
   1  -7   4   30.40    5.30
  -2   7  -4   -0.60    1.70
  -2   7  -4    2.30    3.80
   2  -7   4    0.80    1.50
   2  -7   4    0.90    3.90
  -3   7  -4    2.80    4.10
   3  -7   4    8.30    1.80
   3  -7   4    5.60    4.60
  -4   7  -4  303.47   19.90
   4  -7   4  301.67   20.60
   4  -7   4  290.37   17.60
  -5   7  -4  218.08   15.30
   5  -7   4  210.78   16.20
   5  -7   4  199.88   12.80
  -6   7  -4  533.15   30.30
   6  -7   4  481.55   37.90
  -7   7  -4   -1.80    3.30
  -7   7  -4    9.00    4.60
   7  -7   4    0.50    6.80
   9   6  -4  973.90   61.79
   8   6  -4 1018.20   64.09
  -8  -6   4 1044.20   59.99
   7   6  -4   -0.30    5.90
  -7  -6   4    3.50    3.80
  -7  -6   4   -0.30    2.70
   6   6  -4  601.94   39.10
  -6  -6   4  618.44   36.40
  -6  -6   4  619.14   36.00
   5   6  -4   20.30    5.40
   5   6  -4   31.80    6.60
  -5  -6   4   31.90    4.60
  -5  -6   4   34.10    4.00
   4   6  -4 1055.09   63.39
  -4  -6   4 1071.09   61.29
  -4  -6   4 1096.59   61.99
   3   6  -4    6.20    3.50
   3   6  -4   13.70    4.60
  -3  -6   4   10.20    2.20
  -3  -6   4   14.20    3.60
   2   6  -4   65.59    8.00
   2   6  -4   71.29    6.20
  -2  -6   4   68.49    7.00
  -2  -6   4   67.69    5.30
   1   6  -4    6.10    2.30
   1   6  -4    5.20    4.10
  -1  -6   4    7.00    1.80
  -1  -6   4   10.10    3.40
   0   6  -4 2436.56  124.49
   0   6  -4 2160.88  125.89
   0  -6   4 1875.81  124.89
   0  -6   4 2332.87  123.89
  -1   6  -4  348.57   23.20
  -1   6  -4  380.06   21.40
   1  -6   4  365.16   21.00
   1  -6   4  348.47   22.70
  -2   6  -4 1532.95   81.39
  -2   6  -4 1437.56   83.29
   2  -6   4 1374.76   82.99
   2  -6   4 1420.26   81.29
  -3   6  -4    4.50    1.60
  -3   6  -4    5.00    3.30
   3  -6   4    3.80    3.50
   3  -6   4    4.10    1.40
  -4   6  -4 1906.41  107.99
   4  -6   4 1866.91  106.09
   4  -6   4 1889.81  108.19
  -5   6  -4  635.54   37.50
   5  -6   4  635.04   38.30
   5  -6   4  604.54   35.70
  -6   6  -4   14.80    2.90
  -6   6  -4   16.10    4.30
   6  -6   4   20.90    5.70
  -7   6  -4    5.40    4.00
  -7   6  -4   12.40    2.90
   7  -6   4    5.60    6.20
  -8   6  -4  317.07   19.80
  -8   6  -4  330.07   21.10
   8  -6   4  312.27   22.60
   9   5  -4   15.60    7.30
  -9  -5   4    0.50    3.10
   8   5  -4  532.85   36.10
  -8  -5   4  535.25   31.30
  -8  -5   4  504.75   31.00
   7   5  -4   57.49    9.70
  -7  -5   4   70.59    6.10
  -7  -5   4   70.69    6.60
   6   5  -4   12.00    5.60
   6   5  -4    5.50    6.10
  -6  -5   4   14.30    2.90
   5   5  -4  749.73   48.10
   5   5  -4  802.92   49.10
  -5  -5   4  841.12   46.40
  -5  -5   4  811.72   46.20
   4   5  -4 2910.61  177.58
   4   5  -4 3222.18  178.28
  -4  -5   4 3254.17  176.18
  -4  -5   4 3132.39  175.88
   3   5  -4   42.90    6.40
  -3  -5   4   43.90    4.80
  -3  -5   4   43.50    3.70
   2   5  -4 1494.45   83.29
   2   5  -4 1394.46   83.39
  -2  -5   4 1435.36   81.19
  -2  -5   4 1422.86   81.69
   1   5  -4   76.89    5.70
  -1  -5   4   53.29    5.90
   0   5  -4 2100.89  114.79
   0   5  -4 1941.21  116.19
   0  -5   4 1912.11  115.29
   0  -5   4 2183.08  114.49
  -1   5  -4   20.00    2.40
  -1   5  -4   22.70    4.10
   1  -5   4   18.90    2.30
  -2   5  -4   47.70    5.80
  -2   5  -4   43.70    3.30
   2  -5   4   37.50    5.00
   2  -5   4   40.60    3.40
  -3   5  -4  173.78   12.70
  -3   5  -4  194.68   10.90
   3  -5   4  178.88   13.00
  -4   5  -4 1020.20   60.29
   4  -5   4 1070.29   60.59
   4  -5   4 1030.90   58.79
  -5   5  -4   69.79    6.50
   5  -5   4   80.49    8.20
   5  -5   4   66.19    5.10
  -6   5  -4 1322.97   77.99
  -6   5  -4 1403.76   79.19
   6  -5   4 1404.56   79.89
  -7   5  -4   26.80    4.60
  -7   5  -4   22.60    3.40
   7  -5   4   26.30    6.10
  -8   5  -4  639.04   38.10
  -8   5  -4  634.24   37.10
   8  -5   4  635.14   39.50
  -9   5  -4  825.42   48.70
  -9   5  -4  853.81   49.50
   9  -5   4  836.42   51.09
  10   4  -4   19.70   10.20
 -10  -4   4   25.10    4.30
   9   4  -4  411.36   31.60
  -9  -4   4  406.06   26.10
  -9  -4   4  463.85   26.30
   8   4  -4  556.84   38.60
  -8  -4   4  563.94   33.70
  -8  -4   4  602.44   34.10
   7   4  -4   -0.30    7.20
   7   4  -4    0.50    4.90
  -7  -4   4    6.20    2.50
  -7  -4   4    9.60    2.70
   6   4  -4  417.16   28.20
   6   4  -4  425.76   29.00
  -6  -4   4  423.16   25.30
  -6  -4   4  438.06   25.10
   5   4  -4   16.30    5.80
   5   4  -4    8.60    4.00
  -5  -4   4    6.40    2.00
  -5  -4   4   10.80    2.40
   4   4  -4  797.22   47.60
   4   4  -4  789.22   47.40
  -4  -4   4  770.92   44.90
  -4  -4   4  782.72   44.90
   3   4  -4  190.08   14.00
   3   4  -4  207.68   13.60
  -3  -4   4  160.58   11.60
  -3  -4   4  179.18   11.40
   2   4  -4   22.10    3.80
   2   4  -4   21.90    4.70
  -2  -4   4   17.90    2.80
  -2  -4   4   25.50    2.50
   1   4  -4    4.80    3.10
  -1  -4   4    3.10    1.20
  -1  -4   4    3.50    2.00
   0   4  -4 1894.71  104.79
   0   4  -4 1744.03  105.99
   0  -4   4 1988.60  104.39
   0  -4   4 1797.92  104.99
  -1   4  -4    6.00    1.30
  -1   4  -4    7.70    2.70
   1  -4   4    6.50    2.30
   1  -4   4    4.00    1.10
  -2   4  -4  845.82   47.60
   2  -4   4  835.12   48.90
   2  -4   4  837.42   47.80
   2  -4   4  863.11   49.10
  -3   4  -4  135.39    7.60
  -3   4  -4  122.29    9.40
   3  -4   4  127.79    8.00
   3  -4   4  128.89    8.90
  -4   4  -4  834.22   49.10
   4  -4   4  890.61   49.30
   4  -4   4  808.92   48.30
  -5   4  -4  233.28   15.60
   5  -4   4  250.07   16.30
   5  -4   4  242.78   14.50
  -6   4  -4   16.40    3.00
  -6   4  -4    7.60    2.10
   6  -4   4    9.30    3.70
  -7   4  -4   64.29    5.30
  -7   4  -4   52.39    6.00
   7  -4   4   64.79    7.30
  -8   4  -4  242.38   15.10
  -8   4  -4  242.18   15.70
   8  -4   4  227.68   17.00
  -9   4  -4   24.20    4.50
  -9   4  -4   18.50    3.70
   9  -4   4   36.00    7.20
 -10   4  -4  507.45   30.30
 -10   4  -4  508.35   30.80
  10  -4   4  492.45   32.50
  11   3  -4  -12.90    9.20
 -11  -3   4    3.20    3.30
  10   3  -4    5.70    7.80
 -10  -3   4   12.30    4.30
   9   3  -4    1.50    6.90
   9   3  -4    9.40    5.00
  -9  -3   4    6.90    2.80
   8   3  -4    5.50    8.20
   8   3  -4    6.50    3.90
   8   3  -4    1.10    6.30
  -8  -3   4    7.40    2.90
  -8  -3   4   12.20    2.40
   7   3  -4    8.90    6.30
   7   3  -4   10.00    7.00
  -7  -3   4   13.80    2.40
  -7  -3   4   12.20    2.60
   6   3  -4   14.90    6.40
   6   3  -4   15.40    5.80
  -6  -3   4   12.60    2.40
  -6  -3   4   13.70    2.20
   5   3  -4    5.10    4.80
   5   3  -4    2.30    5.30
  -5  -3   4    5.20    1.60
  -5  -3   4    5.40    1.80
   4   3  -4    9.10    4.50
   4   3  -4    5.80    4.30
   3   3  -4   11.80    3.60
   3   3  -4   10.90    4.60
  -3  -3   4   11.30    1.80
  -3  -3   4   11.00    1.70
   2   3  -4   10.10    4.10
   2   3  -4    6.40    3.00
  -2  -3   4    3.80    1.70
  -2  -3   4    9.00    1.60
   1   3  -4   38.80    4.50
   1   3  -4   30.20    4.90
  -1  -3   4   35.00    2.90
  -1  -3   4   33.40    3.20
   0   3  -4  302.07   17.50
   0   3  -4  252.17   18.40
   0  -3   4  299.57   16.80
   0  -3   4  294.17   17.10
  -1   3  -4    1.90    0.80
  -1   3  -4   -1.20    1.90
   1  -3   4    2.80    3.50
   1  -3   4    1.10    0.70
   1  -3   4   -1.30    1.50
  -2   3  -4   -0.50    0.50
  -2   3  -4   -0.30    2.00
   2  -3   4    5.00    2.20
   2  -3   4   -0.70    0.80
   2  -3   4    0.90    2.30
  -3   3  -4    2.00    1.90
   3  -3   4    1.70    1.00
   3  -3   4    1.90    2.10
  -4   3  -4   45.10    5.30
   4  -3   4   53.29    3.90
  -5   3  -4    1.90    1.70
   5  -3   4    2.70    1.30
   5  -3   4   -0.90    2.20
  -6   3  -4   79.69    6.00
  -6   3  -4   77.29    6.60
   6  -3   4   87.69    7.40
  -7   3  -4   39.50    4.20
  -7   3  -4   33.50    4.60
   7  -3   4   39.00    5.50
  -8   3  -4   16.20    2.80
  -8   3  -4   13.60    3.20
   8  -3   4   12.30    4.10
  -9   3  -4    1.70    2.80
  -9   3  -4   -2.70    2.60
   9  -3   4    0.80    4.40
 -10   3  -4   10.90    3.80
 -10   3  -4   -1.70    3.40
  10  -3   4    3.80    5.50
  11   2  -4    6.00   10.10
 -11  -2   4    6.70    3.00
  10   2  -4   71.79    9.70
  10   2  -4   71.69   13.50
 -10  -2   4   66.29    6.10
   9   2  -4  340.67   27.20
  -9  -2   4  310.47   19.60
  -9  -2   4  345.97   20.20
   8   2  -4  420.86   31.30
   8   2  -4  402.56   25.60
  -8  -2   4  423.06   24.80
  -8  -2   4  446.36   25.30
   7   2  -4   16.90    3.20
   7   2  -4   15.10    7.10
  -7  -2   4   16.60    2.50
  -7  -2   4   16.80    2.50
   6   2  -4  258.67   22.00
   6   2  -4  269.47   17.50
  -6  -2   4  298.77   17.60
  -6  -2   4  324.37   17.40
   5   2  -4    3.00    1.90
   5   2  -4    8.10    5.40
  -5  -2   4    5.00    1.50
   4   2  -4  203.48   16.50
  -4  -2   4  227.28   12.20
  -4  -2   4  215.18   12.70
  -4  -2   4  186.18   12.50
  -4  -2   4  207.88   12.20
   3   2  -4   13.50    4.30
  -3  -2   4   11.50    1.70
  -3  -2   4   17.80    2.10
  -3  -2   4   18.20    2.20
  -3  -2   4   18.50    1.80
   2   2  -4    4.40    3.80
   2   2  -4    3.40    3.40
  -2  -2   4   -1.20    0.80
  -2  -2   4    2.10    0.90
  -2  -2   4    0.20    0.90
   1   2  -4  232.88   16.30
   1   2  -4  253.37   14.10
   1   2  -4  226.58   16.60
  -1  -2   4  249.38   14.30
  -1  -2   4  246.28   14.20
   0   2  -4  960.70   52.89
   0   2  -4  818.82   53.29
   0  -2   4  929.61   51.59
   0  -2   4  937.01   51.49
  -1   2  -4   19.50    2.70
  -1   2  -4   16.90    3.30
   1  -2   4   23.70    3.40
   1  -2   4   21.40    1.80
   1  -2   4   18.60    2.30
   2  -2   4  460.95   26.70
   2  -2   4  473.95   27.30
  -3   2  -4   17.50    3.00
   3  -2   4   16.40    1.80
   3  -2   4   16.20    2.50
  -4   2  -4  703.03   41.40
   4  -2   4  692.33   41.40
   4  -2   4  745.33   40.70
  -5   2  -4  189.38   11.50
   5  -2   4  168.48   11.90
   5  -2   4  165.88   11.20
  -6   2  -4   47.60    4.10
  -6   2  -4   52.89    4.70
   6  -2   4   47.30    5.70
   6  -2   4   48.10    3.20
  -7   2  -4   28.40    3.50
  -7   2  -4   24.10    3.60
   7  -2   4   28.10    4.60
   7  -2   4   28.00    2.90
  -8   2  -4   89.59    7.00
  -8   2  -4   84.79    6.90
   8  -2   4   85.89    8.30
  -9   2  -4    5.20    2.80
  -9   2  -4    5.80    2.90
   9  -2   4    8.40    4.30
 -10   2  -4  300.07   18.30
 -10   2  -4  275.97   18.30
  10  -2   4  293.97   20.90
 -11   2  -4    2.20    3.50
  11  -2   4   11.20    6.80
  11   1  -4   -2.30   11.90
  10   1  -4  742.23   42.90
  10   1  -4  714.83   49.50
 -10  -1   4  768.62   42.00
 -10  -1   4  665.33   41.60
   9   1  -4    7.40    9.10
  -9  -1   4   10.80    2.50
  -9  -1   4   13.60    2.70
   8   1  -4  513.65   30.20
   8   1  -4  487.95   36.30
  -8  -1   4  513.05   29.80
  -8  -1   4  523.25   30.00
   7   1  -4   26.20    8.20
   7   1  -4   33.10    4.30
  -7  -1   4   28.30    3.30
  -7  -1   4   27.60    3.50
   6   1  -4    2.10    1.80
   6   1  -4    5.90    5.70
  -6  -1   4    0.60    1.50
  -6  -1   4    6.10    1.70
   5   1  -4 1094.09   66.89
   5   1  -4 1099.79   62.09
  -5  -1   4 1104.09   62.39
  -5  -1   4 1101.19   62.39
   4   1  -4 3275.77  179.98
   4   1  -4 2951.70  175.38
  -4  -1   4 3492.05  175.28
  -4  -1   4 2933.31  175.78
  -4  -1   4 3027.60  175.68
   3   1  -4  163.78   13.50
  -3  -1   4  156.68   10.20
  -3  -1   4  164.48    9.50
  -3  -1   4  181.88    9.60
   2   1  -4 2970.00  164.78
  -2  -1   4 2865.81  162.18
  -2  -1   4 2837.82  161.98
   1   1  -4   83.89    5.20
   1   1  -4  104.99    8.20
  -1  -1   4   89.99    5.20
  -1  -1   4   85.79    5.70
  -1  -1   4   86.89    5.50
   0   1  -4 3298.97  169.78
   0   1  -4 2758.72  167.98
   0   1  -4 2708.43  169.98
   0  -1   4 2879.81  168.08
   0  -1   4 3384.56  169.68
   0  -1   4 3001.60  168.08
  -1   1  -4   54.69    5.70
  -1   1  -4   57.89    3.70
  -1   1  -4   70.39    5.20
   1  -1   4   55.89    4.00
   1  -1   4   54.69    3.80
  -2   1  -4    3.60    2.00
  -2   1  -4    4.70    0.80
  -2   1  -4    6.40    1.60
   2  -1   4    4.60    1.30
   2  -1   4    4.00    0.90
  -3   1  -4   98.39    5.80
  -3   1  -4   86.49    7.00
   3  -1   4   91.39    6.60
   3  -1   4  101.09    6.10
   3  -1   4   92.69    5.60
  -4   1  -4 2290.17  119.99
  -4   1  -4 2110.89  120.29
   4  -1   4 2234.98  119.79
   4  -1   4 2003.30  119.19
   4  -1   4 2020.20  120.29
  -5   1  -4  120.49    7.50
  -5   1  -4  117.69    8.60
  -5   1  -4   96.49    7.00
   5  -1   4   98.29    6.40
   5  -1   4  102.99    7.70
  -6   1  -4 2262.97  122.89
  -6   1  -4 2089.69  122.89
   6  -1   4 2190.48  122.39
   6  -1   4 2176.48  123.59
  -7   1  -4   42.40    4.40
  -7   1  -4   46.50    4.30
   7  -1   4   44.50    4.20
   7  -1   4   46.00    5.90
  -8   1  -4  969.20   51.29
  -8   1  -4  850.61   51.49
   8  -1   4  890.21   52.59
   8  -1   4  864.91   51.19
  -9   1  -4  941.41   51.79
  -9   1  -4  867.01   52.19
   9  -1   4  892.41   53.39
 -10   1  -4  282.97   17.70
 -10   1  -4  273.77   18.20
  10  -1   4  297.97   20.40
 -11   1  -4  172.98   12.30
  11  -1   4  170.88   14.70
  11   0  -4  194.38   14.50
  11   0  -4  222.78   25.60
 -11   0   4  188.38   12.20
 -11   0   4  165.98   12.40
  10   0  -4  194.98   21.20
  10   0  -4  180.38   13.10
 -10   0   4  171.18   11.50
 -10   0   4  169.98   11.80
   9   0  -4 1537.15   98.59
   9   0  -4 1686.33   91.69
  -9   0   4 1651.43   91.19
  -9   0   4 1549.94   91.29
   8   0  -4 1609.14  102.19
   8   0  -4 1709.13   95.89
  -8   0   4 1671.93   95.89
  -8   0   4 1766.52   95.69
   7   0  -4   29.80    9.20
   7   0  -4   46.20    4.50
  -7   0   4   41.30    3.90
  -7   0   4   46.70    4.20
   6   0  -4 1386.46   84.49
   6   0  -4 1427.06   79.19
  -6   0   4 1381.26   79.49
  -6   0   4 1411.76   79.19
   5   0  -4  115.39    7.30
   5   0  -4  108.79   12.40
  -5   0   4  109.19    7.40
  -5   0   4  121.19    7.80
   4   0  -4 3093.49  171.68
   4   0  -4 2941.41  167.28
  -4   0   4 2832.02  167.78
  -4   0   4 3407.96  167.28
  -4   0   4 2672.13  167.38
   3   0  -4   16.50    4.70
   3   0  -4    5.70    0.80
  -3   0   4    1.70    0.90
  -3   0   4    4.90    0.90
  -3   0   4    2.80    1.30
   2   0  -4  686.93   40.00
   2   0  -4  614.44   36.60
   2   0  -4  642.64   36.60
  -2   0   4  641.34   37.00
  -2   0   4  661.63   37.40
   1   0  -4   59.09    3.30
   1   0  -4   53.69    5.60
   1   0  -4   52.69    3.40
  -1   0   4   48.10    3.50
  -1   0   4   50.49    3.80
   0   0  -4 6422.76  380.46
   0   0   4 6446.85  379.56
   0   0   4 7216.48  379.56
   0   0   4 7047.89  380.16
  -1   0  -4  163.78    9.20
   1   0   4  143.09    9.10
   1   0   4  155.98    9.30
   1   0   4  142.59    9.30
   1   0   4  155.48    9.10
  -2   0  -4 6427.76  369.26
  -2   0  -4 6216.48  370.16
   2   0   4 6530.35  369.66
   2   0   4 6787.62  369.86
   2   0   4 7023.00  369.56
  -3   0  -4  180.98   11.80
  -3   0  -4  169.08   10.70
   3   0   4  175.98   10.60
   3   0   4  171.58   11.20
   3   0   4  193.38   10.90
  -4   0  -4 4139.89  234.78
  -4   0  -4 4631.94  235.18
   4   0   4 4006.00  235.18
   4   0   4 3991.70  234.48
  -5   0  -4 1462.05   82.99
  -5   0  -4 1608.34   83.09
   5   0   4 1393.96   83.49
   5   0   4 1408.16   82.69
  -6   0  -4    4.50    1.60
  -6   0  -4    4.60    1.60
   6   0   4    5.40    1.60
   6   0   4    5.90    2.60
  -7   0  -4   13.50    2.90
  -7   0  -4   20.90    2.80
   7   0   4   24.40    3.90
   7   0   4   18.70    2.80
  -8   0  -4 1030.60   60.59
  -8   0  -4 1168.48   59.99
   8   0   4  977.60   60.39
   8   0   4 1035.70   61.39
  -9   0  -4    4.20    2.80
  -9   0  -4    0.50    2.20
   9   0   4    9.00    4.70
   9   0   4    2.60    3.10
 -10   0  -4 1511.55   88.49
  10   0   4 1589.94   89.99
 -11   0  -4    7.80    3.00
  11   0   4   11.00    5.30
  11  -1  -4    3.50   11.80
  11  -1  -4    3.70    5.40
 -11   1   4    0.70    3.40
 -11   1   4   -0.40    2.40
  10  -1  -4  751.82   53.29
  10  -1  -4  774.82   44.80
 -10   1   4  774.92   43.70
 -10   1   4  727.03   44.10
   9  -1  -4   18.10   11.70
   9  -1  -4   19.60    4.10
  -9   1   4   15.40    2.60
  -9   1   4   12.00    3.00
   8  -1  -4  498.65   37.80
   8  -1  -4  546.15   30.90
  -8   1   4  527.15   30.20
  -8   1   4  502.75   30.70
   7  -1  -4   23.80    8.50
   7  -1  -4   26.90    3.50
  -7   1   4   26.60    3.60
  -7   1   4   23.30    3.10
   6  -1  -4    4.90    6.30
  -6   1   4    7.50    1.70
  -6   1   4   14.50    2.70
   5  -1  -4 1095.99   67.59
   5  -1  -4 1157.28   63.09
  -5   1   4 1058.19   62.79
  -5   1   4 1141.09   63.59
   4  -1  -4 3352.66  178.98
   4  -1  -4 3299.37  183.18
  -4   1   4 2967.40  178.78
  -4   1   4 3165.48  179.58
   3  -1  -4  163.18   13.40
   3  -1  -4  160.48    9.40
  -3   1   4  172.48   10.20
  -3   1   4  140.99    9.30
  -3   1   4  157.28    9.50
   2  -1  -4 2945.21  166.68
  -2   1   4 2909.91  166.58
  -2   1   4 2908.31  167.28
  -2   1   4 3146.79  166.68
   1  -1  -4   89.19    5.20
   1  -1  -4   88.49    5.20
   1  -1  -4   79.79    7.60
  -1   1   4   80.29    5.10
  -1   1   4   88.09    5.70
   0   1   4 2909.91  171.68
   0   1   4 3099.09  171.28
   0   1   4 3185.88  171.68
   0   1   4 3060.29  171.58
   1   1   4   64.29    3.90
   1   1   4   55.09    4.10
   1   1   4   59.89    4.10
   1   1   4   60.29    4.30
   2   1   4    1.60    0.80
   2   1   4    2.30    1.20
   2   1   4    2.10    0.80
   2   1   4    1.80    0.80
  -3  -1  -4   91.19    5.80
  -3  -1  -4   87.09    6.80
   3   1   4   86.99    5.70
  -4  -1  -4 2234.58  113.39
  -4  -1  -4 1934.61  113.09
   4   1   4 1847.82  112.99
   4   1   4 2027.50  113.59
  -5  -1  -4  106.19    6.30
   5   1   4   84.99    7.50
   5   1   4   90.09    6.50
  -6  -1  -4 2071.09  115.69
   6   1   4 2097.99  115.69
   6   1   4 1973.70  116.19
  -7  -1  -4   51.69    3.80
  -7  -1  -4   44.70    4.50
   7   1   4   43.60    4.90
   7   1   4   49.10    5.60
  -8  -1  -4  825.52   51.99
  -8  -1  -4  996.00   51.09
   8   1   4  874.71   52.99
  -9  -1  -4  864.41   49.30
   9   1   4  783.72   49.60
   9   1   4  898.61   50.59
 -10  -1  -4  266.37   16.50
  10   1   4  247.38   18.80
  10   1   4  245.88   17.70
 -11  -1  -4  166.88   12.00
  11   1   4  181.68   14.90
  11  -2  -4    9.20    5.80
  11  -2  -4   20.00   14.60
 -11   2   4    9.90    3.90
 -11   2   4    3.70    2.50
  10  -2  -4   65.89   16.40
  10  -2  -4   67.69    8.10
 -10   2   4   65.59    5.70
 -10   2   4   74.49    6.70
   9  -2  -4  338.87   21.70
   9  -2  -4  315.17   30.00
  -9   2   4  350.06   21.20
  -9   2   4  346.87   20.30
   8  -2  -4  396.66   33.50
   8  -2  -4  455.85   26.80
  -8   2   4  457.95   26.60
  -8   2   4  440.86   25.70
   7  -2  -4   15.20    8.10
   7  -2  -4   16.90    3.10
  -7   2   4   18.10    3.30
  -7   2   4   18.70    2.40
   6  -2  -4  315.87   19.10
   6  -2  -4  283.47   23.70
  -6   2   4  338.67   18.40
  -6   2   4  305.37   19.20
   5  -2  -4    5.90    2.00
   5  -2  -4    6.90    5.80
  -5   2   4    3.10    1.10
  -5   2   4    1.00    1.70
   4  -2  -4  219.18   16.80
   4  -2  -4  208.98   12.50
  -4   2   4  201.08   13.00
  -4   2   4  195.18   11.90
   3  -2  -4   21.50    2.50
   3  -2  -4   17.30    4.90
  -3   2   4   18.20    2.70
  -3   2   4   16.80    1.60
   2  -2  -4   -1.70    0.70
   2  -2  -4    1.00    1.20
   2  -2  -4   11.90    4.40
  -2   2   4   -1.30    1.20
  -2   2   4    0.70    0.60
   1  -2  -4  224.78   13.30
   1  -2  -4  234.98   13.80
  -1   2   4  235.98   14.00
  -1   2   4  242.58   13.30
  -1   2   4  229.28   14.20
   0  -2  -4  936.61   53.09
   0  -2  -4  951.70   52.59
   0   2   4  960.80   53.19
   0   2   4  882.91   53.29
   0   2   4  958.90   52.69
   1   2   4   16.00    1.80
   1   2   4   17.60    2.30
   1   2   4   18.40    2.00
  -2  -2  -4  444.56   25.50
   2   2   4  450.25   25.50
   2   2   4  456.85   26.00
   2   2   4  424.16   25.60
  -3  -2  -4   13.40    2.00
  -3  -2  -4   17.30    2.40
   3   2   4   14.20    1.90
   3   2   4   14.30    1.70
   3   2   4   17.70    2.70
  -4  -2  -4  622.74   39.10
  -4  -2  -4  667.43   39.80
  -4  -2  -4  796.62   39.90
   4   2   4  724.43   40.40
   4   2   4  665.93   39.80
  -5  -2  -4  209.18   10.70
  -5  -2  -4  161.78   10.50
   5   2   4  173.18   12.20
   5   2   4  173.58   11.40
  -6  -2  -4   62.79    3.50
  -6  -2  -4   46.20    3.50
  -6  -2  -4   40.40    4.80
   6   2   4   50.39    5.40
   6   2   4   57.79    5.10
  -7  -2  -4   30.30    3.70
   7   2   4   20.40    3.50
   7   2   4   15.70    3.90
  -8  -2  -4   79.49    6.40
   8   2   4   78.09    7.30
   8   2   4   74.29    8.10
  -9  -2  -4    4.00    2.40
   9   2   4    6.90    4.20
   9   2   4    4.50    3.60
 -10  -2  -4  279.67   17.50
  10   2   4  267.47   19.20
  10   2   4  278.47   19.60
 -11  -2  -4   10.80    3.40
  11   2   4    7.30    6.10
  11   2   4    4.90    5.70
  11  -3  -4    6.00   15.60
  11  -3  -4    2.00    5.80
 -11   3   4    2.10    3.50
 -11   3   4    1.70    2.90
  10  -3  -4    4.70    5.00
  10  -3  -4  -11.80   13.80
 -10   3   4   12.90    3.20
 -10   3   4    7.50    2.60
   9  -3  -4    5.10    4.20
   9  -3  -4   -3.80   11.80
  -9   3   4   10.00    3.10
  -9   3   4    5.90    2.10
   8  -3  -4    8.70    3.80
   8  -3  -4    2.10   10.40
  -8   3   4    5.30    2.70
  -8   3   4    9.30    2.50
   7  -3  -4   16.00    3.70
   7  -3  -4   16.10    8.40
  -7   3   4   14.00    3.00
  -7   3   4   13.40    2.10
   6  -3  -4   10.40    7.90
   6  -3  -4   15.20    3.20
  -6   3   4   11.00    2.60
  -6   3   4   13.70    1.90
   5  -3  -4    6.80    2.30
   5  -3  -4    2.40    6.40
  -5   3   4    4.30    2.20
  -5   3   4    6.40    1.20
   4  -3  -4   10.50    5.00
   4  -3  -4    5.10    2.00
   4  -3  -4   10.60    2.00
  -4   3   4    6.20    1.00
   3  -3  -4   14.80    2.40
   3  -3  -4   18.40    1.90
   3  -3  -4    6.50    5.30
  -3   3   4   11.60    2.40
  -3   3   4   11.90    1.20
   2  -3  -4    7.10    2.00
  -2   3   4    4.50    1.70
  -2   3   4    5.40    2.20
  -2   3   4    4.30    0.70
   1  -3  -4   38.90    2.30
   1  -3  -4   31.10    2.10
   1  -3  -4   35.30    3.10
  -1   3   4   36.90    3.20
  -1   3   4   29.00    3.60
   0  -3  -4  313.37   17.30
   0  -3  -4  338.67   17.50
   0  -3  -4  295.47   18.00
   0   3   4  282.77   18.20
   0   3   4  295.57   18.10
  -1  -3  -4    3.10    1.10
  -1  -3  -4    1.00    1.30
   1   3   4    1.10    1.30
   1   3   4    1.00    1.10
  -2  -3  -4   -1.00    1.10
  -2  -3  -4   -1.10    1.30
   2   3   4    0.10    1.10
   2   3   4   -1.50    1.00
  -3  -3  -4    4.40    1.60
   3   3   4    3.60    1.20
   3   3   4    2.70    2.20
   3   3   4    3.50    1.50
  -4  -3  -4   49.99    4.90
  -4  -3  -4   53.89    4.70
  -4  -3  -4   65.09    4.00
   4   3   4   48.90    4.40
   4   3   4   51.89    5.60
  -5  -3  -4    1.60    1.70
   5   3   4    1.40    2.40
   5   3   4    0.80    1.70
  -6  -3  -4   77.29    6.20
   6   3   4   75.99    7.10
   6   3   4   80.29    6.60
  -7  -3  -4   34.80    4.20
   7   3   4   31.50    4.90
   7   3   4   33.60    4.90
  -8  -3  -4   15.00    3.20
   8   3   4   10.90    3.50
  -9  -3  -4    2.90    2.80
   9   3   4   -2.00    3.70
   9   3   4    8.20    5.10
 -10  -3  -4   16.30    3.90
  10   3   4    4.50    8.20
  10   3   4    4.30    4.80
  10  -4  -4   33.90   17.10
  10  -4  -4   28.20    7.00
 -10   4   4   22.50    4.40
   9  -4  -4  390.06   35.90
   9  -4  -4  422.96   26.80
  -9   4   4  437.46   25.90
   8  -4  -4  579.94   35.70
   8  -4  -4  547.25   42.90
  -8   4   4  624.64   33.90
  -8   4   4  592.24   35.20
   7  -4  -4    3.00    3.20
   7  -4  -4    4.70   10.00
  -7   4   4    3.70    2.40
  -7   4   4    2.00    1.60
   6  -4  -4  468.75   27.70
   6  -4  -4  427.36   33.40
  -6   4   4  458.05   26.10
  -6   4   4  463.25   27.50
   5  -4  -4    4.60    6.60
   5  -4  -4    8.10    2.70
  -5   4   4    9.90    2.70
  -5   4   4   11.30    1.30
   4  -4  -4  750.02   46.30
   4  -4  -4  845.82   50.29
  -4   4   4  780.52   45.80
   3  -4  -4  204.68   12.70
  -3   4   4  187.28   12.70
   2  -4  -4   19.50    3.10
  -2   4   4   23.50    2.80
  -2   4   4   20.50    3.10
   1  -4  -4    2.30    1.70
  -1   4   4    2.80    1.40
  -1   4   4    2.60    1.70
   0  -4  -4 1887.71  101.79
   0  -4  -4 1855.81  101.69
   0  -4  -4 1802.42  102.69
   0   4   4 1626.74  102.79
   0   4   4 1920.31  102.79
  -1  -4  -4    6.10    1.70
  -1  -4  -4    4.80    1.20
   1   4   4    8.50    1.60
   1   4   4    3.60    1.80
  -2  -4  -4  774.62   45.00
   2   4   4  809.62   45.20
  -3  -4  -4  137.89    9.20
  -3  -4  -4  120.69    8.50
   3   4   4  129.59    9.00
   3   4   4  145.69    8.40
  -4  -4  -4  817.22   50.79
   4   4   4  873.01   50.09
   4   4   4  832.12   51.19
   4   4   4 1052.89   52.09
  -5  -4  -4  224.28   14.30
   5   4   4  226.28   14.80
   5   4   4  243.68   15.60
  -6  -4  -4    5.30    2.40
   6   4   4   15.90    3.30
   6   4   4    5.70    3.60
  -7  -4  -4   63.79    5.60
   7   4   4   57.49    6.30
   7   4   4   56.69    7.20
  -8  -4  -4  225.38   14.40
   8   4   4  211.98   16.00
   8   4   4  241.88   16.90
  -9  -4  -4   24.50    3.90
   9   4   4   23.90    6.60
   9   4   4   18.30    5.80
 -10  -4  -4  467.75   27.40
  10   4   4  452.65   29.80
  10   4   4  427.16   29.80
   9  -5  -4    7.90    5.50
   9  -5  -4    0.30   14.20
   8  -5  -4  538.65   32.80
   8  -5  -4  482.15   40.40
  -8   5   4  548.75   32.10
   7  -5  -4   60.59    7.30
   7  -5  -4   55.69   12.60
  -7   5   4   58.89    6.00
   6  -5  -4    8.70    9.40
   6  -5  -4    5.70    3.70
  -6   5   4    7.00    3.00
   5  -5  -4  876.51   49.40
   5  -5  -4  836.22   54.39
  -5   5   4  818.42   49.10
   4  -5  -4 3411.26  185.98
   4  -5  -4 3463.95  190.48
  -4   5   4 3028.70  185.78
   3  -5  -4   41.20    5.20
  -3   5   4   42.60    4.80
  -3   5   4   49.30    4.20
   2  -5  -4 1611.04   90.59
  -2   5   4 1548.25   90.59
  -2   5   4 1614.14   90.29
   1  -5  -4   73.79    6.30
  -1   5   4   74.79    5.60
   0  -5  -4 1866.01  111.29
   0  -5  -4 2037.10  109.89
   0   5   4 1995.00  111.19
   0   5   4 1965.30  111.39
  -1  -5  -4   19.50    2.00
  -1  -5  -4   19.80    3.00
   1   5   4   17.80    2.60
   1   5   4   18.60    3.10
  -2  -5  -4   41.80    4.60
  -2  -5  -4   50.49    3.60
   2   5   4   40.70    4.00
   2   5   4   42.30    4.30
  -3  -5  -4  170.18   11.70
  -3  -5  -4  173.88   10.80
   3   5   4  180.28   11.00
   3   5   4  169.88   11.40
  -4  -5  -4  967.90   57.79
  -4  -5  -4 1028.80   58.69
   4   5   4  989.40   58.69
   4   5   4 1078.09   57.39
  -5  -5  -4   51.29    5.00
  -5  -5  -4   57.79    6.20
   5   5   4   69.39    6.00
  -6  -5  -4 1197.18   69.99
  -6  -5  -4 1210.78   70.79
   6   5   4 1281.07   71.39
  -7  -5  -4   21.30    3.50
  -7  -5  -4   18.40    3.80
   7   5   4   33.80    6.40
   7   5   4   22.30    4.40
  -8  -5  -4  607.44   34.70
   8   5   4  557.24   36.50
   8   5   4  595.24   36.70
  -9  -5  -4  783.22   43.70
   9   5   4  722.83   45.30
   9   5   4  694.53   45.30
   9  -6  -4  911.51   64.39
   8  -6  -4  971.50   68.89
   8  -6  -4 1059.59   60.99
  -8   6   4 1056.29   60.39
   7  -6  -4   -2.60    4.60
   7  -6  -4   15.60   12.00
  -7   6   4   -3.70    2.60
   6  -6  -4  598.44   44.20
   6  -6  -4  642.64   38.30
  -6   6   4  652.83   38.00
   5  -6  -4   19.80    8.40
   5  -6  -4   22.40    4.40
  -5   6   4   33.60    4.70
   4  -6  -4 1073.49   63.29
  -4   6   4 1088.19   63.19
  -4   6   4 1114.29   62.79
   3  -6  -4    9.00    3.20
  -3   6   4   10.80    2.80
  -3   6   4    8.30    2.30
   2  -6  -4   80.79    6.90
  -2   6   4   67.19    5.70
  -2   6   4   74.29    6.80
   1  -6  -4    4.60    3.00
  -1   6   4    5.70    2.40
  -1   6   4    8.10    2.10
   0  -6  -4 2265.07  132.09
   0   6   4 2324.87  131.79
   0   6   4 2408.26  132.09
  -1  -6  -4  360.56   22.50
  -1  -6  -4  368.36   20.80
   1   6   4  349.37   22.00
   1   6   4  383.86   22.40
  -2  -6  -4 1457.55   79.99
  -2  -6  -4 1401.56   78.49
   2   6   4 1415.76   79.69
   2   6   4 1307.47   79.29
  -3  -6  -4    5.60    1.70
  -3  -6  -4    1.90    2.40
   3   6   4    1.50    2.40
   3   6   4    2.20    2.10
  -4  -6  -4 1833.72  102.39
  -4  -6  -4 1781.32  103.49
   4   6   4 1833.42  103.69
  -5  -6  -4  589.84   35.40
  -5  -6  -4  577.64   34.20
   5   6   4  607.34   35.80
  -6  -6  -4    9.90    3.40
  -6  -6  -4   12.90    2.80
   6   6   4   11.20    3.80
  -7  -6  -4    6.30    4.00
  -7  -6  -4   10.30    2.90
   7   6   4    6.20    4.00
  -8  -6  -4  290.67   17.90
  -8  -6  -4  271.47   19.10
   8   6   4  287.67   21.10
   7  -7  -4   14.60   13.90
  -7   7   4    1.60    3.80
   6  -7  -4    4.20    4.30
   6  -7  -4   -0.50   11.10
  -6   7   4   13.00    4.20
   5  -7  -4  272.37   25.90
   5  -7  -4  298.37   19.40
  -5   7   4  274.97   18.50
   4  -7  -4 1228.08   71.99
  -4   7   4 1191.08   70.99
  -4   7   4 1299.77   71.79
   3  -7  -4  142.99   11.10
  -3   7   4  136.39    9.90
  -3   7   4  141.39   10.80
   2  -7  -4  306.37   19.90
  -2   7   4  280.97   18.60
  -2   7   4  318.27   19.60
   1  -7  -4  106.89   10.00
  -1   7   4  110.99    8.40
  -1   7   4  114.59    9.20
   0  -7  -4  819.42   50.89
   0   7   4  956.70   50.99
   0   7   4  832.62   50.39
  -1  -7  -4   33.20    5.20
   1   7   4   37.70    4.70
   1   7   4   36.80    5.00
  -2  -7  -4    2.60    3.00
   2   7   4    2.80    2.60
  -3  -7  -4    6.30    2.10
  -3  -7  -4    3.40    3.60
   3   7   4    5.30    2.80
   3   7   4   -0.90    3.20
  -4  -7  -4  305.27   19.70
  -4  -7  -4  293.57   18.10
   4   7   4  311.77   19.80
  -5  -7  -4  216.08   13.40
  -5  -7  -4  226.78   15.20
   5   7   4  193.38   14.80
  -6  -7  -4  529.05   31.10
   6   7   4  531.45   36.10
  -7  -7  -4   -2.30    2.80
  -7  -7  -4    1.00    3.80
   7   7   4   11.90    4.80
   6  -8  -4   15.80   14.20
   6  -8  -4   28.40    6.60
  -6   8   4   21.30    4.70
   5  -8  -4   40.50   13.80
   5  -8  -4   67.29    8.30
  -5   8   4   58.19    8.20
   4  -8  -4    2.40    5.20
  -4   8   4    3.50    3.00
  -4   8   4    0.60    4.00
   3  -8  -4   10.40    5.00
  -3   8   4    0.40    3.40
  -3   8   4    4.40    3.10
   2  -8  -4    2.20    4.80
  -2   8   4    5.20    3.80
  -2   8   4    4.30    2.60
   1  -8  -4    3.60    3.80
  -1   8   4   -1.50    2.30
  -1   8   4   -1.10    3.50
   0  -8  -4   68.29    8.70
   0   8   4   72.39    7.20
   0   8   4   91.39    8.30
  -1  -8  -4  151.68   13.00
   1   8   4  157.28   11.80
   1   8   4  178.88   12.80
  -2  -8  -4    7.30    4.20
   2   8   4    7.00    4.20
   2   8   4    4.60    3.00
  -3  -8  -4   35.90    5.60
   3   8   4   27.00    4.70
  -4  -8  -4  113.59   12.30
   4   8   4  149.99   11.10
  -5  -8  -4   93.99   10.20
   5   8   4   98.99   10.00
   3  -9  -4   20.60    6.60
  -3   9   4   20.60    4.50
  -3   9   4   21.70    5.80
   2  -9  -4   84.09   10.60
  -2   9   4   79.09    9.70
  -2   9   4  117.69   10.50
   1  -9  -4   58.39    8.70
  -1   9   4   76.09    9.20
  -1   9   4   55.79    6.30
   0  -9  -4   97.29   11.70
   0   9   4  120.89   11.10
   0   9   4   92.59    8.90
  -1  -9  -4   -4.80    5.60
   1   9   4   -2.70    4.80
   1   9   4    0.30    3.10
  -2  -9  -4    2.10    5.60
   2   9   4    5.40    4.20
  -3  -9  -4    0.90    5.80
   3   9   4    6.10    3.90
   2   9  -5   58.59    8.40
   1   9  -5  412.46   26.50
   1   9  -5  427.56   28.80
  -1  -9   5  378.36   24.90
  -1  -9   5  477.75   28.20
   0   9  -5    1.80   12.40
   0  -9   5    3.90    6.70
   0  -9   5    6.70    2.80
  -1   9  -5   10.50    6.30
   1  -9   5    7.00    7.70
   1  -9   5    3.70    2.90
   5   8  -5  277.67   21.00
  -5  -8   5  295.57   20.50
   4   8  -5   24.80    7.40
   4   8  -5   14.00    5.80
  -4  -8   5   15.40    3.40
  -4  -8   5   -1.50    5.60
   3   8  -5    7.10    4.70
   3   8  -5   22.30    6.90
  -3  -8   5   16.40    6.00
  -3  -8   5   14.60    3.10
   2   8  -5   95.39    9.20
   2   8  -5  105.19   12.20
  -2  -8   5   97.49   11.10
  -2  -8   5  102.49    7.70
   1   8  -5 2064.49  111.29
   1   8  -5 1847.62  112.79
  -1  -8   5 1938.51  110.19
  -1  -8   5 1948.41  111.99
   0   8  -5  160.28   10.80
   0   8  -5  134.59   12.90
   0  -8   5  148.09   12.70
   0  -8   5  135.69    9.70
  -1   8  -5  565.44   36.30
   1  -8   5  558.44   35.70
   1  -8   5  589.24   33.10
  -2   8  -5    5.60    5.10
   2  -8   5   -1.00    5.00
   2  -8   5    5.20    2.30
   3  -8   5  418.36   24.20
   3  -8   5  404.76   27.60
  -4   8  -5  141.69   12.80
   4  -8   5  125.69    8.80
  -5   8  -5    6.50    5.00
   5  -8   5    5.20    6.80
   5  -8   5   -1.50    2.50
   7   7  -5   27.70    7.80
  -7  -7   5   23.10    4.40
   6   7  -5  242.98   19.90
  -6  -7   5  278.07   16.90
   5   7  -5  814.12   51.39
   5   7  -5  801.82   50.99
  -5  -7   5  854.91   48.80
  -5  -7   5  888.01   49.70
   4   7  -5   20.40    7.00
   4   7  -5   18.10    5.20
  -4  -7   5   16.30    3.00
  -4  -7   5   15.30    4.50
   3   7  -5  505.15   29.90
   3   7  -5  453.85   31.00
  -3  -7   5  474.15   29.40
  -3  -7   5  465.95   28.00
   2   7  -5   56.19    6.60
   2   7  -5   56.19    8.30
  -2  -7   5   59.39    7.30
  -2  -7   5   55.79    5.20
   1   7  -5  263.57   15.80
   1   7  -5  232.08   17.80
  -1  -7   5  232.08   14.60
  -1  -7   5  215.68   16.30
   0   7  -5   14.90    4.60
   0   7  -5   12.20    2.90
   0  -7   5    8.10    2.10
   0  -7   5   10.30    4.10
  -1   7  -5   10.50    4.70
  -1   7  -5    9.90    2.60
   1  -7   5   12.40    4.70
   1  -7   5    8.90    2.00
  -2   7  -5    8.60    4.20
   2  -7   5    2.30    1.80
   2  -7   5    4.60    4.80
  -3   7  -5  782.32   46.40
   3  -7   5  740.13   43.80
   3  -7   5  784.72   46.50
  -4   7  -5   12.50    4.30
   4  -7   5   25.40    6.10
   4  -7   5   12.40    2.40
  -5   7  -5  513.65   31.60
   5  -7   5  514.85   32.80
   5  -7   5  492.65   29.30
  -6   7  -5   21.30    5.60
   6  -7   5   17.10    5.90
   6  -7   5   16.20    3.00
  -7   7  -5   99.99   11.20
  -7   7  -5  115.79    8.90
   7  -7   5  126.49   13.20
   8   6  -5    2.70    5.90
  -8  -6   5    1.10    3.50
   7   6  -5   41.80    8.50
  -7  -6   5   39.70    4.80
   6   6  -5   72.29    9.60
   6   6  -5   55.29    9.50
  -6  -6   5   71.69    6.20
  -6  -6   5   83.69    7.80
   5   6  -5   91.99   10.60
   5   6  -5   90.69   10.60
  -5  -6   5   88.59    7.10
  -5  -6   5   89.19    8.60
   4   6  -5   19.70    5.40
   4   6  -5   20.00    6.10
  -4  -6   5   19.80    3.10
  -4  -6   5   23.90    4.30
   3   6  -5    5.40    5.40
   3   6  -5   11.00    3.60
  -3  -6   5    1.60    3.30
  -3  -6   5    6.80    2.20
   2   6  -5    6.70    2.80
   2   6  -5    9.50    4.90
  -2  -6   5    3.10    1.70
  -2  -6   5    5.60    3.20
   1   6  -5   60.59    8.00
   1   6  -5   62.09    5.90
  -1  -6   5   57.19    4.80
  -1  -6   5   49.70    6.40
   0   6  -5   87.09    9.20
   0   6  -5   91.29    6.70
   0  -6   5   76.09    7.70
   0  -6   5   80.99    6.00
  -1   6  -5  104.69    6.90
  -1   6  -5   89.09    9.70
   1  -6   5   99.99    6.60
   1  -6   5   93.79    8.60
  -2   6  -5   31.80    5.70
  -2   6  -5   37.00    3.30
   2  -6   5   29.30    3.20
   2  -6   5   35.40    5.50
  -3   6  -5   42.90    5.80
   3  -6   5   26.40    3.10
   3  -6   5   21.00    4.40
  -4   6  -5    1.90    3.70
   4  -6   5    0.10    3.80
   4  -6   5    0.00    1.50
  -5   6  -5   20.40    4.30
   5  -6   5   23.10    5.40
   5  -6   5   19.40    2.70
  -6   6  -5   52.69    6.70
   6  -6   5   45.60    4.60
   6  -6   5   54.39    7.80
  -7   6  -5  208.78   15.20
  -7   6  -5  204.68   13.40
   7  -6   5  209.88   18.10
  -8   6  -5    9.70    3.70
  -8   6  -5    2.60    4.20
   8  -6   5   13.90    6.90
   9   5  -5   10.80    8.60
  -9  -5   5    3.10    3.10
   8   5  -5    1.90    7.40
  -8  -5   5    3.30    3.20
   7   5  -5   30.80    8.30
  -7  -5   5   48.70    5.10
   6   5  -5  194.18   20.80
   6   5  -5  227.98   18.40
  -6  -5   5  252.57   14.90
  -6  -5   5  232.48   14.80
   5   5  -5  561.64   37.40
  -5  -5   5  587.44   34.30
  -5  -5   5  607.84   34.30
   4   5  -5   28.20    5.80
  -4  -5   5   26.70    3.90
  -4  -5   5   25.50    3.30
   3   5  -5   33.40    6.10
   3   5  -5   22.40    4.60
  -3  -5   5   26.00    3.40
  -3  -5   5   22.90    3.70
   2   5  -5   66.89    7.90
   2   5  -5   63.39    6.70
  -2  -5   5   64.89    5.00
  -2  -5   5   60.89    6.00
   1   5  -5  119.09   10.90
   1   5  -5  111.29    8.60
  -1  -5   5  118.79    8.60
  -1  -5   5  122.19    7.80
   0   5  -5   28.10    3.60
   0   5  -5   24.10    4.90
   0  -5   5   29.90    2.90
   0  -5   5   34.50    4.50
  -1   5  -5   49.20    6.60
  -1   5  -5   50.19    3.90
   1  -5   5   43.60    3.70
  -2   5  -5   27.20    2.50
  -2   5  -5   23.30    4.20
   2  -5   5   28.20    2.70
   2  -5   5   23.80    4.00
  -3   5  -5  122.39    6.70
  -3   5  -5  105.99    9.10
   3  -5   5  106.29    8.80
   3  -5   5  103.59    7.10
  -4   5  -5  230.18   15.80
   4  -5   5  240.08   16.10
   4  -5   5  228.98   13.90
  -5   5  -5  183.48   13.00
   5  -5   5  178.38   11.20
   5  -5   5  178.38   13.60
  -6   5  -5    1.40    2.80
   6  -5   5    9.70    4.00
   6  -5   5    1.80    1.90
  -7   5  -5   44.50    5.00
  -7   5  -5   49.30    6.50
   7  -5   5   52.79    7.20
  -8   5  -5  191.78   13.20
  -8   5  -5  194.98   14.20
   8  -5   5  203.08   17.60
  -9   5  -5   49.40    6.30
  -9   5  -5   61.79   10.20
  10   4  -5  642.74   44.60
 -10  -4   5  649.43   38.30
   9   4  -5  623.04   46.80
  -9  -4   5  656.33   38.50
   8   4  -5    8.60    7.10
  -8  -4   5    3.80    2.50
   7   4  -5  598.04   40.90
   7   4  -5  622.34   41.80
  -7  -4   5  647.94   36.60
  -7  -4   5  649.83   37.10
   6   4  -5   -4.10    4.80
   6   4  -5    5.70    7.00
  -6  -4   5    2.10    1.90
  -6  -4   5    2.90    2.20
   5   4  -5  153.58   14.30
   5   4  -5  184.48   15.90
  -5  -4   5  150.18   10.20
  -5  -4   5  152.28   10.00
   4   4  -5  104.79   11.30
   4   4  -5   92.29    9.70
  -4  -4   5   86.59    6.50
  -4  -4   5   82.49    6.20
   3   4  -5    9.60    4.90
   3   4  -5    3.80    3.50
  -3  -4   5    4.60    1.60
  -3  -4   5    3.10    1.90
   2   4  -5   95.09    9.10
   2   4  -5   94.89    7.90
  -2  -4   5   80.49    5.90
  -2  -4   5   78.89    6.30
   1   4  -5 3621.34  192.28
   1   4  -5 3355.46  193.38
  -1  -4   5 3243.88  191.18
   0   4  -5  507.65   29.40
   0  -4   5  495.35   29.40
   0  -4   5  500.35   28.80
  -1   4  -5  739.33   40.80
  -1   4  -5  666.43   42.70
   1  -4   5  741.63   41.60
   1  -4   5  713.73   40.80
  -2   4  -5   51.39    3.30
  -2   4  -5   47.10    6.00
   2  -4   5   43.60    4.00
   2  -4   5   49.60    5.20
   2  -4   5   50.09    7.40
   3  -4   5 1745.83   99.99
   3  -4   5 1768.22   98.89
  -4   4  -5  402.26   25.60
   4  -4   5  427.26   25.60
   4  -4   5  420.16   24.20
  -5   4  -5   16.30    3.50
   5  -4   5   16.50    4.00
   5  -4   5   26.60    2.90
  -6   4  -5   18.50    3.80
   6  -4   5   23.00    5.00
   6  -4   5   22.80    3.00
  -7   4  -5  481.35   28.70
  -7   4  -5  465.25   27.80
   7  -4   5  467.85   29.60
  -8   4  -5   53.39    5.70
  -8   4  -5   46.10    6.30
   8  -4   5   51.19    7.40
  -9   4  -5 1252.47   72.19
  -9   4  -5 1269.27   72.69
 -10   4  -5   42.80    6.30
 -10   4  -5   44.30    6.10
  10  -4   5   37.70    8.10
  10   3  -5  133.79   17.70
 -10  -3   5  144.49   10.30
   9   3  -5  159.58   18.70
  -9  -3   5  180.68   12.10
   8   3  -5  111.49   14.50
  -8  -3   5  102.49    8.10
  -8  -3   5  103.39    7.90
  -8  -3   5  101.99    7.50
   7   3  -5   49.30   10.00
  -7  -3   5   46.20    4.80
  -7  -3   5   41.90    4.50
  -7  -3   5   47.20    4.60
   6   3  -5 1196.98   77.09
   6   3  -5 1151.68   75.59
  -6  -3   5 1310.67   72.29
  -6  -3   5 1390.76   71.69
   5   3  -5 3425.16  216.78
   5   3  -5 3671.43  218.18
  -5  -3   5 4222.48  213.48
  -5  -3   5 3904.21  213.98
   4   3  -5   47.50    8.00
   4   3  -5   51.99    8.00
  -4  -3   5   56.09    4.20
  -4  -3   5   52.69    4.00
   3   3  -5 1574.14   89.49
   3   3  -5 1556.94   89.29
  -3  -3   5 1448.56   85.59
   2   3  -5   -1.60    2.80
   2   3  -5    3.00    3.60
  -2  -3   5    2.30    1.30
  -2  -3   5    1.20    1.10
   1   3  -5 2284.97  125.69
   1   3  -5 2099.29  126.29
  -1  -3   5 2301.27  123.79
  -1  -3   5 2121.79  123.69
   0   3  -5   35.80    5.90
   0   3  -5   38.40    4.50
   0  -3   5   37.80    3.70
   0  -3   5   34.90    3.00
  -1   3  -5   79.59    5.40
  -1   3  -5   63.49    7.10
   1  -3   5   71.89    5.70
   1  -3   5   64.39    4.90
   1  -3   5  101.69   12.10
  -2   3  -5  261.87   17.80
   2  -3   5  294.97   16.40
   2  -3   5  260.77   15.90
   2  -3   5  262.27   16.60
   3  -3   5 3237.68  181.28
   3  -3   5 3200.18  180.38
  -4   3  -5  975.10   57.19
   4  -3   5  969.90   56.89
   4  -3   5 1015.50   55.99
  -5   3  -5 3576.44  208.08
   5  -3   5 3786.72  207.08
   5  -3   5 3717.03  208.28
  -6   3  -5   33.80    4.10
  -6   3  -5   41.90    4.60
   6  -3   5   40.70    5.40
  -7   3  -5  649.74   37.90
  -7   3  -5  630.34   37.50
   7  -3   5  654.43   39.00
  -8   3  -5 1096.29   61.69
  -8   3  -5 1085.19   61.89
   8  -3   5 1034.90   62.99
  -9   3  -5   28.90    4.50
  -9   3  -5   36.90    5.30
   9  -3   5   32.80    6.40
 -10   3  -5   75.39    8.10
 -10   3  -5   71.19    7.60
  10  -3   5   68.49    8.90
  11   2  -5  174.18   24.30
 -11  -2   5  196.88   13.20
  10   2  -5  827.62   56.09
 -10  -2   5  841.42   48.50
   9   2  -5  837.52   55.49
  -9  -2   5  867.81   47.80
  -9  -2   5  774.02   47.20
   8   2  -5   22.30    9.50
   8   2  -5   12.70    3.80
  -8  -2   5   19.30    3.10
  -8  -2   5   23.20    3.30
   7   2  -5 1175.68   76.99
   7   2  -5 1142.49   70.89
  -7  -2   5 1285.67   70.99
  -7  -2   5 1384.06   71.29
   6   2  -5   57.39   10.50
  -6  -2   5   69.39    5.60
  -6  -2   5   71.49    5.50
  -6  -2   5   77.29    5.10
   5   2  -5  731.43   51.79
  -5  -2   5  778.32   47.40
  -5  -2   5  869.11   47.50
  -5  -2   5  870.21   46.80
  -5  -2   5  878.01   46.80
   4   2  -5  109.39   11.50
  -4  -2   5   93.19    6.80
  -4  -2   5   98.59    6.20
  -4  -2   5  112.19    6.20
  -4  -2   5  102.79    7.00
   3   2  -5    7.80    4.70
  -3  -2   5    4.20    0.90
  -3  -2   5    6.50    0.80
  -3  -2   5    3.30    1.40
  -3  -2   5    2.30    1.30
   2   2  -5   32.00    5.90
   2   2  -5   39.50    2.60
  -2  -2   5   32.90    3.10
  -2  -2   5   46.80    3.50
   1   2  -5 6065.49  356.86
   1   2  -5 6474.65  360.16
   1   2  -5 5969.40  359.36
  -1  -2   5 6650.93  357.06
  -1  -2   5 6778.42  357.26
   0   2  -5  508.75   29.70
   0   2  -5  424.36   30.10
   0  -2   5  481.65   27.70
   0  -2   5  516.55   27.90
  -1   2  -5 1533.35  102.69
  -1   2  -5 1821.82  101.79
   1  -2   5 1774.92  101.09
   1  -2   5 2033.80  101.99
   1  -2   5 1798.92  100.79
  -2   2  -5  161.48    9.50
  -2   2  -5  142.39   11.40
  -2   2  -5  164.68    8.90
   2  -2   5  151.18   10.00
   2  -2   5  145.79    9.30
  -3   2  -5 2096.09  118.19
   3  -2   5 2020.00  117.39
   3  -2   5 2121.39  116.79
  -4   2  -5  488.25   30.60
   4  -2   5  544.95   29.70
   4  -2   5  507.45   30.40
  -5   2  -5   65.39    5.90
   5  -2   5   65.99    4.90
   5  -2   5   56.49    5.90
  -6   2  -5  129.79    9.00
  -6   2  -5  121.69    8.50
   6  -2   5  121.89    9.60
  -7   2  -5 1017.10   59.99
  -7   2  -5 1060.69   60.09
   7  -2   5 1065.19   61.19
  -8   2  -5   11.70    2.90
  -8   2  -5   12.30    2.90
   8  -2   5    7.70    4.00
  -9   2  -5 1775.92   99.39
  -9   2  -5 1691.33   99.59
   9  -2   5 1784.62  101.09
 -10   2  -5   44.80    5.70
 -10   2  -5   49.50    6.30
 -11   2  -5   74.89    7.60
  11  -2   5   47.90    8.90
  11   1  -5  174.58   23.50
 -11  -1   5  147.59   10.80
  10   1  -5   53.29   13.20
 -10  -1   5   52.49    5.10
 -10  -1   5   41.10    5.20
   9   1  -5   48.50   13.20
   9   1  -5   50.59    5.90
  -9  -1   5   40.30    4.90
  -9  -1   5   32.80    4.70
   8   1  -5   44.30    5.00
   8   1  -5   43.70   11.10
  -8  -1   5   32.10    4.20
  -8  -1   5   45.50    4.30
   7   1  -5   13.30    3.00
   7   1  -5   12.40    7.70
  -7  -1   5   11.30    2.20
   6   1  -5  474.15   27.70
   6   1  -5  436.86   33.20
  -6  -1   5  489.25   28.00
  -6  -1   5  505.55   28.20
   5   1  -5 1288.87   78.49
   5   1  -5 1250.37   72.99
  -5  -1   5 1343.67   73.69
  -5  -1   5 1311.07   73.59
   4   1  -5    2.80    4.60
  -4  -1   5    3.50    1.50
  -4  -1   5    4.00    1.30
   3   1  -5  701.93   41.40
  -3  -1   5  582.94   37.10
  -3  -1   5  684.33   37.50
   2   1  -5    4.40    4.00
  -2  -1   5    8.70    1.60
  -2  -1   5    6.60    1.30
   1   1  -5  776.22   44.50
   1   1  -5  840.82   47.60
  -1  -1   5  793.32   44.90
  -1  -1   5  762.62   44.50
  -1  -1   5  799.52   45.30
   0   1  -5   63.29    8.00
   0   1  -5   62.79    4.30
   0   1  -5   75.09    6.80
   0  -1   5   67.29    4.70
   0  -1   5   67.69    4.30
   0  -1   5   63.29    4.30
  -1   1  -5   57.99    7.60
  -1   1  -5   64.29    4.70
  -1   1  -5   77.69    6.40
   1  -1   5   66.89    4.90
   1  -1   5   85.29    4.80
  -2   1  -5    0.10    0.70
  -2   1  -5    2.60    3.10
  -2   1  -5    0.80    1.90
   2  -1   5    4.10    1.60
   2  -1   5    0.00    0.80
  -3   1  -5 1288.67   75.49
  -3   1  -5 1264.87   73.69
  -3   1  -5 1405.36   74.49
   3  -1   5 1299.27   74.59
  -4   1  -5   84.89    5.80
  -4   1  -5   74.69    6.70
   4  -1   5   82.39    6.70
   4  -1   5   88.19    5.80
   4  -1   5   83.89    5.10
  -5   1  -5 1213.28   65.89
  -5   1  -5 1079.59   65.49
  -5   1  -5 1140.79   65.89
   5  -1   5 1192.18   64.79
   5  -1   5 1136.59   66.19
  -6   1  -5  216.68   13.60
  -6   1  -5  202.88   13.30
   6  -1   5  226.78   12.60
   6  -1   5  206.18   14.20
  -7   1  -5  179.88   11.50
  -7   1  -5  167.78   11.60
   7  -1   5  190.58   10.90
   7  -1   5  168.68   12.60
  -8   1  -5  332.37   19.50
  -8   1  -5  304.17   19.80
   8  -1   5  330.37   21.40
  -9   1  -5   14.70    3.00
  -9   1  -5    6.90    2.90
   9  -1   5    6.60    4.50
 -10   1  -5  112.59    9.80
  10  -1   5  139.59   12.70
 -11   1  -5  121.59   10.70
  11  -1   5  144.99   14.50
  11   0  -5   14.40   14.50
 -11   0   5    5.20    3.20
 -11   0   5   -0.30    2.60
  10   0  -5   -5.80   10.10
 -10   0   5   -1.80    2.80
 -10   0   5    8.10    2.50
   9   0  -5   -2.30    3.20
   9   0  -5    8.60   10.10
  -9   0   5    2.90    2.10
  -9   0   5   -2.20    2.40
   8   0  -5   -1.90    2.70
   8   0  -5    6.00    7.70
  -8   0   5   -0.80    2.20
  -8   0   5    1.80    1.90
   7   0  -5    3.00    2.20
   7   0  -5    3.10    7.80
  -7   0   5    2.60    1.70
  -7   0   5   -0.60    1.90
   6   0  -5    4.50    5.60
   6   0  -5    0.40    1.70
  -6   0   5    0.50    1.90
   5   0  -5    1.70    1.30
   5   0  -5   10.00    6.20
  -5   0   5    0.60    1.20
  -5   0   5    2.00    1.50
  -5   0   5    5.40    1.90
   4   0  -5   -0.20    0.80
   4   0  -5   -1.10    3.90
  -4   0   5   -1.30    0.90
  -4   0   5    1.60    1.40
  -4   0   5   -0.30    1.10
   3   0  -5   -3.20    3.20
  -3   0   5   -2.50    1.30
  -3   0   5   -2.10    0.80
   2   0  -5    1.30    0.60
   2   0  -5   -2.90    3.30
  -2   0   5   -0.20    1.00
  -2   0   5   -1.00    0.70
   1   0  -5    1.00    0.80
   1   0  -5   -2.30    3.00
  -1   0   5   -1.40    0.70
  -1   0   5    3.80    1.20
   0   0  -5   -1.40    2.40
   0   0  -5   -1.40    1.00
   0   0   5   -1.10    0.70
   0   0   5    0.50    1.00
   0   0   5   -1.50    0.90
  -1   0  -5   -2.70    2.30
   1   0   5   -1.40    0.80
   1   0   5   -3.40    1.10
   1   0   5   -3.60    0.80
  -2   0  -5    1.90    2.90
   2   0   5    0.70    0.70
   2   0   5   -0.60    0.80
   2   0   5   -1.00    1.40
  -3   0  -5    0.00    2.40
   3   0   5    3.30    1.50
   3   0   5    1.20    1.10
   3   0   5    4.20    1.00
  -4   0  -5   -1.50    1.20
  -4   0  -5   -1.80    2.00
   4   0   5    1.00    1.70
   4   0   5   -2.20    0.90
   4   0   5   -1.00    1.10
  -5   0  -5    0.20    1.40
  -5   0  -5    1.00    1.80
   5   0   5    1.80    1.10
   5   0   5    5.40    2.40
  -6   0  -5    3.50    1.70
  -6   0  -5   -0.20    1.70
   6   0   5    3.80    2.80
   6   0   5    0.60    1.30
  -7   0  -5    2.70    1.70
  -7   0  -5    1.00    1.70
   7   0   5   -1.60    1.80
   7   0   5    5.50    3.30
  -8   0  -5    0.50    2.00
  -8   0  -5    5.30    2.80
   8   0   5    1.50    2.20
   8   0   5    3.30    3.90
  -9   0  -5   -2.40    2.60
  -9   0  -5    0.20    2.40
   9   0   5    1.70    3.20
   9   0   5   -7.60    4.30
 -10   0  -5    7.10    3.50
  10   0   5    1.30    4.90
 -11   0  -5    5.10    3.70
  11   0   5   11.70    6.00
 -11   1   5  147.09    9.90
 -11   1   5  134.69   10.70
  10  -1  -5   51.19   13.50
  10  -1  -5   46.60    6.50
 -10   1   5   54.99    5.00
 -10   1   5   50.19    6.00
   9  -1  -5   47.40    6.30
   9  -1  -5   32.60   11.70
  -9   1   5   43.40    5.30
  -9   1   5   41.50    4.50
   8  -1  -5   49.20    5.50
   8  -1  -5   30.90   11.20
  -8   1   5   47.10    4.30
  -8   1   5   47.80    5.30
   7  -1  -5   20.80    3.00
   7  -1  -5   10.00    7.80
  -7   1   5   11.90    2.20
  -7   1   5   10.10    2.90
   6  -1  -5  509.35   28.90
   6  -1  -5  467.45   34.70
  -6   1   5  504.55   29.60
  -6   1   5  503.55   28.80
   5  -1  -5 1288.97   81.59
   5  -1  -5 1380.06   76.49
  -5   1   5 1418.86   77.39
  -5   1   5 1326.77   76.39
   4  -1  -5    4.40    4.60
   4  -1  -5    3.90    1.30
  -4   1   5    2.10    1.10
  -4   1   5    6.40    2.10
   3  -1  -5  688.83   39.70
   3  -1  -5  689.33   43.80
  -3   1   5  723.53   40.60
  -3   1   5  705.53   39.80
  -3   1   5  700.03   39.70
   2  -1  -5    6.50    4.20
   2  -1  -5    6.00    1.50
   2  -1  -5    9.60    1.30
  -2   1   5    7.90    1.10
  -2   1   5    8.80    1.70
   1  -1  -5  753.42   46.70
   1  -1  -5  820.72   43.60
  -1   1   5  738.03   43.60
  -1   1   5  778.32   44.20
   0   1   5   67.09    4.70
   0   1   5   62.19    4.70
   0   1   5   63.89    4.50
   0   1   5   69.69    4.20
   1   1   5   71.29    4.90
   1   1   5   66.89    4.50
   1   1   5   67.09    4.70
   1   1   5   71.69    4.90
   2   1   5    0.70    1.00
   2   1   5    1.60    1.50
   2   1   5    1.30    0.90
   2   1   5    1.60    1.00
  -3  -1  -5 1255.07   69.69
  -3  -1  -5 1145.29   70.79
   3   1   5 1225.18   69.49
   3   1   5 1265.17   69.49
   3   1   5 1264.07   69.99
  -4  -1  -5   76.39    5.50
  -4  -1  -5   77.29    6.30
   4   1   5   71.99    5.10
   4   1   5   77.69    6.20
  -5  -1  -5 1085.29   63.39
  -5  -1  -5 1213.98   63.39
   5   1   5 1076.79   63.89
   5   1   5 1076.49   63.09
  -6  -1  -5  247.98   13.10
  -6  -1  -5  196.98   13.30
   6   1   5  201.78   14.20
   6   1   5  202.58   13.20
  -7  -1  -5  155.98   11.50
  -7  -1  -5  201.18   11.00
   7   1   5  189.58   12.90
   7   1   5  161.78   11.60
  -8  -1  -5  363.56   19.50
  -8  -1  -5  309.67   20.50
   8   1   5  311.37   21.40
  -9  -1  -5   14.30    3.30
   9   1   5   -0.80    3.90
   9   1   5    5.80    3.30
 -10  -1  -5  110.79    9.30
  10   1   5   87.79   11.80
  10   1   5  119.79    9.90
 -11  -1  -5  118.49    9.80
  11   1   5  125.89   13.70
 -11   2   5  204.08   12.60
 -11   2   5  184.78   13.80
  10  -2  -5  823.72   47.00
  10  -2  -5  770.92   56.79
 -10   2   5  799.62   46.50
 -10   2   5  771.52   45.50
   9  -2  -5  831.02   47.30
   9  -2  -5  700.23   55.19
  -9   2   5  830.92   47.20
  -9   2   5  829.52   46.20
   8  -2  -5   18.40    4.10
   8  -2  -5   13.90    9.90
  -8   2   5   21.20    3.70
  -8   2   5   16.00    2.40
   7  -2  -5 1296.17   74.59
   7  -2  -5 1167.08   80.59
  -7   2   5 1360.26   75.09
  -7   2   5 1387.46   73.99
   6  -2  -5   73.79    6.10
   6  -2  -5   70.79   12.10
  -6   2   5   72.19    6.20
  -6   2   5   74.29    5.20
   5  -2  -5  786.22   52.39
   5  -2  -5  867.01   47.20
  -5   2   5  808.32   46.60
  -5   2   5  827.02   47.80
   4  -2  -5  110.29    7.10
   4  -2  -5  104.99   11.90
  -4   2   5  105.79    7.80
  -4   2   5  105.49    6.60
   3  -2  -5    2.70    4.50
   3  -2  -5    3.50    1.40
  -3   2   5    2.70    0.90
  -3   2   5    9.10    2.40
   2  -2  -5   32.70    3.00
   2  -2  -5   35.40    6.00
  -2   2   5   34.70    3.60
  -2   2   5   32.90    2.40
   1  -2  -5 6357.36  364.66
  -1   2   5 6019.70  365.16
  -1   2   5 6830.92  365.06
  -1   2   5 6883.11  364.76
   0  -2  -5  519.25   28.80
   0   2   5  498.55   28.30
   0   2   5  511.35   29.00
   0   2   5  470.65   29.00
   1   2   5 1808.92   99.49
   1   2   5 1755.02   99.39
   1   2   5 1671.33   99.29
   1   2   5 1815.12   98.89
  -2  -2  -5  152.28    9.20
   2   2   5  155.68    9.80
   2   2   5  147.69    9.30
   2   2   5  143.89    9.20
  -3  -2  -5 2031.00  112.19
   3   2   5 2064.99  112.79
   3   2   5 1945.91  112.19
   3   2   5 1934.31  111.89
  -4  -2  -5  498.05   28.90
  -4  -2  -5  520.35   29.60
   4   2   5  477.75   28.90
  -5  -2  -5   67.79    5.10
  -5  -2  -5   54.29    4.80
   5   2   5   57.89    4.90
   5   2   5   64.39    6.20
  -6  -2  -5  116.19    8.70
  -6  -2  -5  146.09    7.90
   6   2   5  107.69    9.60
   6   2   5  117.09    8.60
  -7  -2  -5  966.20   55.69
   7   2   5  960.20   55.69
   7   2   5  971.40   56.49
  -8  -2  -5   28.40    3.70
   8   2   5   13.50    3.40
   8   2   5   16.00    4.40
  -9  -2  -5 1584.64   89.89
   9   2   5 1496.75   90.29
   9   2   5 1646.64   91.39
 -10  -2  -5   38.60    5.90
  10   2   5   42.00    6.30
 -11  -2  -5   55.39    6.90
  11   2   5   54.09    9.30
  10  -3  -5  143.49   23.40
  10  -3  -5  149.39   12.80
 -10   3   5  139.09    9.70
 -10   3   5  140.09   11.00
   9  -3  -5  118.69   21.20
   9  -3  -5  157.08   12.50
  -9   3   5  177.78   11.80
  -9   3   5  155.28   10.30
   8  -3  -5  117.29   18.10
   8  -3  -5  109.29    9.30
  -8   3   5  102.69    7.40
  -8   3   5  110.09    8.40
   7  -3  -5   54.59    6.00
   7  -3  -5   42.20   11.10
  -7   3   5   52.69    4.20
  -7   3   5   45.90    5.70
   6  -3  -5 1417.66   76.19
   6  -3  -5 1182.78   81.59
  -6   3   5 1371.46   76.59
  -6   3   5 1345.97   75.19
   5  -3  -5 3820.02  232.18
   5  -3  -5 4425.76  226.98
  -5   3   5 4061.39  225.88
  -5   3   5 3839.72  227.28
   4  -3  -5   56.29    9.90
   4  -3  -5   71.09    5.40
  -4   3   5   68.69    4.20
  -4   3   5   55.99    5.80
   3  -3  -5 1695.23  101.99
   3  -3  -5 1735.83   96.99
  -3   3   5 1717.13   96.09
   2  -3  -5    1.40    1.30
   2  -3  -5    1.80    0.70
  -2   3   5    1.20    0.60
  -2   3   5   -0.10    1.70
  -2   3   5    0.00    1.20
   1  -3  -5 1944.01  120.79
   1  -3  -5 2201.48  121.59
  -1   3   5 2158.88  122.09
  -1   3   5 2271.87  120.79
  -1   3   5 2228.48  121.89
   0  -3  -5   38.00    3.50
   0  -3  -5   40.20    2.80
   0   3   5   33.20    3.60
   0   3   5   33.10    3.20
  -1  -3  -5   69.39    5.30
   1   3   5   70.49    5.30
   1   3   5   69.79    5.20
  -2  -3  -5  266.17   15.70
  -2  -3  -5  271.97   16.20
   2   3   5  261.47   15.80
   2   3   5  260.57   15.90
  -3  -3  -5 2898.81  165.38
   3   3   5 3006.90  165.18
   3   3   5 2933.81  165.58
  -4  -3  -5  909.91   50.39
   4   3   5  989.50   51.19
   4   3   5  739.13   51.59
  -5  -3  -5 3097.19  187.88
  -5  -3  -5 3531.75  186.98
   5   3   5 3236.58  188.08
   5   3   5 3504.35  188.68
  -6  -3  -5   41.80    4.50
   6   3   5   29.60    5.30
   6   3   5   34.50    4.00
  -7  -3  -5  596.54   36.20
   7   3   5  646.14   37.40
   7   3   5  612.44   36.70
  -8  -3  -5  966.00   55.19
   8   3   5  946.31   56.59
   8   3   5  956.30   55.99
   9   3   5   29.90    5.70
   9   3   5   28.40    6.60
 -10  -3  -5   59.59    7.00
  10   3   5   72.19    9.20
  10   3   5   72.99    9.30
  10  -4  -5  602.94   48.80
  10  -4  -5  661.73   39.60
 -10   4   5  644.24   38.30
   9  -4  -5  584.94   48.60
   9  -4  -5  673.73   39.40
  -9   4   5  660.03   38.60
   8  -4  -5    2.60    4.00
   8  -4  -5   15.20   11.80
  -8   4   5    5.60    3.10
   7  -4  -5  677.83   39.50
   7  -4  -5  570.14   45.80
  -7   4   5  722.33   39.60
   6  -4  -5   -0.10    3.00
   6  -4  -5   13.20    8.50
  -6   4   5   -0.50    2.30
  -6   4   5   -0.10    1.20
   5  -4  -5  162.68   11.30
   5  -4  -5  168.98   17.30
  -5   4   5  171.38    9.70
  -5   4   5  159.18   11.60
   4  -4  -5   97.09   12.90
  -4   4   5   89.89    7.40
   3  -4  -5    5.30    2.20
   3  -4  -5    6.00    5.80
  -3   4   5    6.60    1.90
  -3   4   5    4.00    2.50
   2  -4  -5   91.59    6.80
  -2   4   5   93.69    6.50
  -2   4   5   83.49    7.00
   1  -4  -5 3552.84  189.08
  -1   4   5 3645.44  189.18
  -1   4   5 2892.71  189.18
   0  -4  -5  499.75   29.00
   0  -4  -5  517.75   30.20
   0  -4  -5  574.84   29.30
   0   4   5  501.15   30.10
   0   4   5  485.45   30.30
  -1  -4  -5  745.63   41.40
   1   4   5  715.73   42.00
   1   4   5  723.33   42.00
  -2  -4  -5   50.69    4.80
  -2  -4  -5   55.29    4.30
   2   4   5   50.59    4.40
   2   4   5   48.10    4.20
  -3  -4  -5 1724.53   96.09
  -3  -4  -5 1748.23   96.79
   3   4   5 1751.22   95.89
   3   4   5 1588.74   96.39
  -4  -4  -5  416.06   23.90
  -4  -4  -5  375.96   24.30
   4   4   5  389.36   24.20
   4   4   5  419.96   23.30
   4   4   5  422.76   25.00
  -5  -4  -5   18.60    2.90
  -5  -4  -5   17.50    2.60
   5   4   5   15.00    2.90
   5   4   5   14.30    3.90
  -6  -4  -5   20.90    3.10
   6   4   5   19.60    3.60
   6   4   5   20.10    4.80
  -7  -4  -5  450.85   26.90
   7   4   5  454.65   28.40
   7   4   5  443.26   27.70
  -8  -4  -5   47.60    5.60
   8   4   5   42.60    6.20
   8   4   5   44.70    7.30
  -9  -4  -5 1248.78   68.59
   9   4   5 1137.69   69.99
 -10  -4  -5   51.29    6.40
  10   4   5   45.20    7.40
  10   4   5   47.80    9.10
   9  -5  -5   12.80    5.80
   9  -5  -5  -18.00   14.50
  -9   5   5    2.70    3.60
   8  -5  -5   -6.10   11.40
   8  -5  -5    3.00    4.70
  -8   5   5   -2.20    2.80
   7  -5  -5   50.69   14.10
   7  -5  -5   46.80    6.10
  -7   5   5   41.50    5.50
   6  -5  -5  237.38   23.30
   6  -5  -5  227.18   15.70
  -6   5   5  238.48   15.60
   5  -5  -5  653.03   44.30
   5  -5  -5  653.63   38.10
  -5   5   5  623.84   38.10
   4  -5  -5   23.60    4.10
   4  -5  -5   25.70    8.50
  -4   5   5   27.40    4.00
   3  -5  -5   23.10    3.70
  -3   5   5   27.50    3.60
  -3   5   5   19.10    3.60
   2  -5  -5   67.29    6.50
  -2   5   5   76.79    6.40
  -2   5   5   69.79    5.80
   1  -5  -5  116.69    8.60
  -1   5   5  131.79    8.40
  -1   5   5  110.69    8.90
   0  -5  -5   30.70    3.70
   0  -5  -5   28.80    2.00
   0   5   5   31.20    3.50
   0   5   5   25.00    3.70
  -1  -5  -5   50.29    3.60
  -1  -5  -5   50.79    4.90
   1   5   5   45.40    4.90
   1   5   5   48.60    4.40
  -2  -5  -5   24.10    2.80
  -2  -5  -5   25.70    3.50
   2   5   5   26.10    3.50
   2   5   5   25.40    3.30
  -3  -5  -5  137.39    7.70
  -3  -5  -5  103.39    8.40
   3   5   5  118.49    7.90
   3   5   5   96.59    8.00
  -4  -5  -5  244.18   15.50
   4   5   5  227.68   15.30
   4   5   5  242.28   14.20
  -5  -5  -5  171.58   12.40
  -5  -5  -5  177.68   11.30
   5   5   5  180.18   12.20
  -6  -5  -5    0.10    2.70
  -6  -5  -5    5.10    2.40
   6   5   5    5.60    3.30
  -7  -5  -5   55.29    5.40
  -7  -5  -5   48.50    6.60
   7   5   5   40.20    6.10
   7   5   5   49.30    7.10
  -8  -5  -5  189.38   12.50
   8   5   5  188.98   14.40
   8   5   5  167.18   15.60
  -9  -5  -5   45.70    5.60
   9   5   5   45.60    8.30
   9   5   5   50.09    9.50
   8  -6  -5    0.30   15.40
   8  -6  -5   -0.10    5.10
  -8   6   5   -4.70    3.30
   7  -6  -5   33.60   13.90
   7  -6  -5   51.39    6.80
  -7   6   5   37.20    5.80
   6  -6  -5   76.39   15.40
   6  -6  -5   59.09    7.80
  -6   6   5   72.69    7.50
   5  -6  -5  105.39    9.20
   5  -6  -5   81.49   14.70
  -5   6   5  103.49    8.50
   4  -6  -5   16.80    4.10
   4  -6  -5   34.00   10.40
  -4   6   5   17.10    4.00
   3  -6  -5    1.70    3.10
  -3   6   5    9.80    2.70
  -3   6   5    7.40    3.00
   2  -6  -5    6.30    2.80
  -2   6   5    1.90    1.90
  -2   6   5    7.10    3.10
   1  -6  -5   52.39    5.70
  -1   6   5   45.90    4.80
  -1   6   5   51.49    6.00
   0  -6  -5   93.59    7.40
   0   6   5   85.59    6.80
   0   6   5   90.09    7.90
  -1  -6  -5  103.39    6.20
  -1  -6  -5  103.69    8.10
   1   6   5   90.29    8.20
   1   6   5  103.29    7.60
  -2  -6  -5   36.00    3.20
  -2  -6  -5   33.60    4.70
   2   6   5   33.80    3.90
   2   6   5   31.70    4.30
  -3  -6  -5   28.20    4.30
  -3  -6  -5   26.60    3.30
   3   6   5   24.40    3.80
   3   6   5   32.20    4.00
  -4  -6  -5    1.10    2.90
  -4  -6  -5   -4.70    1.70
   4   6   5    0.10    2.30
  -5  -6  -5   14.80    2.90
  -5  -6  -5   18.90    3.90
   5   6   5   23.90    4.20
  -6  -6  -5   39.40    5.00
  -6  -6  -5   48.50    6.20
   6   6   5   52.39    6.30
  -7  -6  -5  182.68   12.80
   7   6   5  212.98   14.80
  -8  -6  -5    4.80    3.10
  -8  -6  -5    8.10    4.50
   8   6   5    8.40    5.10
   7  -7  -5   22.10   15.60
  -7   7   5   23.20    5.20
   6  -7  -5  252.47   19.10
   6  -7  -5  268.47   28.30
  -6   7   5  302.87   19.00
   5  -7  -5  838.32   50.49
   5  -7  -5  819.22   56.89
  -5   7   5  888.91   50.39
   4  -7  -5   13.70    4.70
   4  -7  -5   16.30    9.40
  -4   7   5   18.90    4.40
  -4   7   5   11.90    3.00
   3  -7  -5  488.85   30.90
  -3   7   5  558.64   31.10
  -3   7   5  470.75   30.10
   2  -7  -5   61.99    7.40
  -2   7   5   66.69    6.10
  -2   7   5   79.89    7.80
   1  -7  -5  250.47   16.90
  -1   7   5  237.88   16.00
  -1   7   5  259.57   16.90
   0  -7  -5   10.50    4.20
   0   7   5   15.00    3.00
   0   7   5   11.80    3.90
  -1  -7  -5   14.80    3.80
   1   7   5   12.40    4.00
   1   7   5    8.50    2.80
  -2  -7  -5    4.80    3.70
   2   7   5    5.60    3.50
   2   7   5    2.50    2.60
  -3  -7  -5  789.52   46.40
   3   7   5  775.32   46.10
  -4  -7  -5   13.70    2.60
  -4  -7  -5   17.30    4.20
   4   7   5   13.20    3.90
  -5  -7  -5  488.35   29.20
  -5  -7  -5  486.85   30.80
   5   7   5  523.85   31.20
  -6  -7  -5   16.60    4.70
  -6  -7  -5    8.10    3.10
   6   7   5   17.50    4.40
  -7  -7  -5   92.99   10.10
  -7  -7  -5   88.49    8.10
   7   7   5  109.29   10.50
   5  -8  -5  224.48   27.30
   5  -8  -5  263.07   19.00
  -5   8   5  290.47   18.90
   4  -8  -5   30.20   12.10
  -4   8   5   19.30    5.80
  -4   8   5   13.20    3.60
   3  -8  -5   10.40    4.50
  -3   8   5    7.40    3.30
  -3   8   5   13.20    4.70
   2  -8  -5   99.29   10.10
  -2   8   5  131.49   10.30
  -2   8   5   94.09    8.70
   1  -8  -5 1911.31  116.09
  -1   8   5 1849.42  115.09
  -1   8   5 2321.77  116.19
   0  -8  -5  142.39   13.00
   0   8   5  148.19   11.10
   0   8   5  158.98   12.50
  -1  -8  -5  619.74   39.30
   1   8   5  614.74   38.30
   1   8   5  695.53   38.80
  -2  -8  -5    9.00    4.80
   2   8   5    2.80    3.20
  -3  -8  -5  420.46   28.00
   3   8   5  430.56   26.80
  -4  -8  -5  122.69   12.10
   4   8   5  146.09   11.50
  -5  -8  -5    0.20    5.10
   5   8   5   -3.70    4.30
  -2   9   5   53.89    7.10
   1  -9  -5  412.26   28.60
  -1   9   5  388.06   26.60
  -1   9   5  505.05   28.30
   0  -9  -5   10.70    6.30
   0   9   5    6.30    5.10
   0   9   5    6.60    3.70
  -1  -9  -5    3.00    5.50
   1   9   5    4.00    3.60
   4   8  -6    6.00    5.50
   4   8  -6   16.30    8.30
  -4  -8   6   11.10    5.40
   3   8  -6   40.70    7.10
   3   8  -6   47.00    9.50
  -3  -8   6   49.50    5.60
  -3  -8   6   47.30    6.90
   2   8  -6  276.57   18.60
   2   8  -6  272.67   21.10
  -2  -8   6  281.57   19.00
  -2  -8   6  248.98   16.80
   1   8  -6  148.89   14.80
   1   8  -6  160.38   11.80
  -1  -8   6  149.09   10.40
  -1  -8   6  135.89   12.60
   0   8  -6    5.90    6.30
   0   8  -6    1.40    3.70
   0  -8   6   -3.10    2.20
   0  -8   6   -5.70    4.70
  -1   8  -6   19.40    6.20
   1  -8   6   10.20    2.80
   1  -8   6   10.90    5.60
   2  -8   6   14.10    6.20
   2  -8   6    4.00    2.50
  -3   8  -6    7.60    5.50
   3  -8   6   13.30    6.20
   3  -8   6    4.70    2.40
  -4   8  -6    7.10    5.20
   4  -8   6   16.00    6.50
   4  -8   6   -1.00    2.40
   6   7  -6 1057.39   65.89
  -6  -7   6 1111.69   62.69
   5   7  -6   46.60    8.10
   5   7  -6   51.69    9.70
  -5  -7   6   44.10    5.70
   4   7  -6  183.38   16.50
   4   7  -6  173.58   14.70
  -4  -7   6  184.58   13.40
  -4  -7   6  174.08   12.00
   3   7  -6   16.20    7.00
   3   7  -6   17.50    4.80
  -3  -7   6    5.90    4.40
  -3  -7   6   11.70    2.90
   2   7  -6   64.19    9.50
   2   7  -6   83.69    7.70
  -2  -7   6   65.69    6.10
  -2  -7   6   66.99    8.30
   1   7  -6   31.70    4.70
   1   7  -6   35.40    6.60
  -1  -7   6   34.80    5.40
  -1  -7   6   25.30    3.50
   0   7  -6   60.19    8.50
   0   7  -6   81.49    6.70
   0  -7   6   60.19    8.00
  -1   7  -6    7.80    5.30
  -1   7  -6    0.70    2.30
   1  -7   6    2.30    1.90
   1  -7   6    2.60    4.30
  -2   7  -6  746.53   45.70
   2  -7   6  720.53   44.80
   2  -7   6  763.32   42.70
  -3   7  -6  368.16   24.80
   3  -7   6  374.16   22.00
   3  -7   6  377.46   24.70
  -4   7  -6  515.55   31.80
   4  -7   6  490.75   29.00
   4  -7   6  493.85   32.00
  -5   7  -6    3.90    4.90
   5  -7   6    7.70    5.40
   5  -7   6    6.30    2.40
  -6   7  -6  184.88   14.10
   6  -7   6  165.98   11.60
   6  -7   6  188.58   16.70
   8   6  -6  416.06   31.60
  -8  -6   6  431.66   26.30
   7   6  -6   49.70   16.30
  -7  -6   6   68.79    8.00
   6   6  -6   44.30    8.40
   6   6  -6   17.50    8.60
  -6  -6   6   23.50    3.70
   5   6  -6   48.40    9.40
   5   6  -6   56.49    8.70
  -5  -6   6   50.49    5.60
   4   6  -6   27.50    8.20
   4   6  -6   29.30    6.10
  -4  -6   6   34.40    4.00
   3   6  -6  107.09   10.00
   3   6  -6   97.29   12.40
  -3  -6   6   97.39    7.50
   2   6  -6 2880.61  173.48
   2   6  -6 3182.28  172.28
  -2  -6   6 3020.10  170.78
  -2  -6   6 3060.69  171.38
   1   6  -6  395.26   22.80
   1   6  -6  363.86   25.00
  -1  -6   6  361.16   21.70
  -1  -6   6  340.67   22.50
   0   6  -6 1116.19   58.39
   0   6  -6  987.70   60.59
   0  -6   6  891.41   58.59
   0  -6   6 1057.99   57.89
  -1   6  -6    0.80    1.90
  -1   6  -6   -4.40    3.90
   1  -6   6    4.20    3.50
   1  -6   6   -0.70    1.50
  -2   6  -6  626.34   39.50
  -2   6  -6  683.13   37.10
   2  -6   6  638.84   36.80
   2  -6   6  608.74   38.30
  -3   6  -6  103.19    9.90
   3  -6   6   96.19    9.40
   3  -6   6   92.49    6.60
  -4   6  -6  157.18   12.20
   4  -6   6  157.48   12.90
   4  -6   6  147.69    9.70
  -5   6  -6   23.50    5.10
   5  -6   6   16.10    2.60
   5  -6   6   20.10    6.00
  -6   6  -6  994.90   56.99
   6  -6   6  981.80   57.69
   6  -6   6  917.91   54.89
  -7   6  -6  259.37   17.10
  -7   6  -6  279.37   18.60
   7  -6   6  276.57   20.50
  -8   6  -6 1261.87   73.89
   8  -6   6 1323.57   76.79
   9   5  -6  108.09   16.80
  -9  -5   6  111.89    9.50
   8   5  -6   82.09   14.70
  -8  -5   6  121.79    9.30
   7   5  -6  514.55   35.30
   7   5  -6  478.85   35.30
  -7  -5   6  536.65   30.70
   6   5  -6 2273.87  137.29
   6   5  -6 2203.38  136.59
  -6  -5   6 2588.74  133.59
   5   5  -6    9.90    5.30
   5   5  -6    4.90    7.30
  -5  -5   6    8.90    3.00
  -5  -5   6    8.50    2.40
   4   5  -6  820.12   49.70
   4   5  -6  837.92   48.90
  -4  -5   6  737.63   45.60
  -4  -5   6  787.42   45.60
   3   5  -6   55.59    7.70
   3   5  -6   49.90    8.20
  -3  -5   6   52.09    5.20
  -3  -5   6   45.90    4.40
   2   5  -6  268.97   19.50
   2   5  -6  279.47   17.90
  -2  -5   6  251.77   16.00
  -2  -5   6  260.77   16.40
   1   5  -6   10.40    4.80
   1   5  -6    9.20    3.00
  -1  -5   6    8.60    1.90
  -1  -5   6   13.80    2.90
   0   5  -6  158.78   10.50
   0   5  -6  144.19   13.10
   0  -5   6  159.88   10.90
   0  -5   6  154.88    9.90
  -1   5  -6   31.90    3.40
  -1   5  -6   30.20    5.70
   1  -5   6   25.50    3.00
   1  -5   6   23.40    3.70
  -2   5  -6 2639.94  138.79
  -2   5  -6 2300.37  141.29
   2  -5   6 2470.85  139.09
   2  -5   6 2484.45  140.29
  -3   5  -6  322.97   21.10
   3  -5   6  319.57   18.90
   3  -5   6  317.97   20.50
  -4   5  -6 1637.74   97.29
   4  -5   6 1676.03   95.39
   4  -5   6 1764.12   97.19
  -5   5  -6    8.40    3.80
   5  -5   6    6.00    1.80
   5  -5   6    6.60    4.30
  -6   5  -6  197.98   14.00
   6  -5   6  198.88   14.70
   6  -5   6  190.38   12.30
  -7   5  -6  464.05   28.50
  -7   5  -6  463.55   29.50
   7  -5   6  519.75   31.00
  -8   5  -6   17.50    4.50
  -8   5  -6   21.80    4.20
   8  -5   6   25.40    6.50
   9  -5   6   33.50    7.90
   9   4  -6   -1.30    9.70
  -9  -4   6    0.90    3.20
   8   4  -6  282.57   27.80
   8   4  -6  292.27   25.70
  -8  -4   6  306.97   18.80
   7   4  -6  188.38   18.10
   7   4  -6  159.58   19.00
  -7  -4   6  182.58   12.00
   6   4  -6   38.90    9.00
   6   4  -6   42.70    9.70
  -6  -4   6   45.90    4.50
   5   4  -6   72.49   10.70
   5   4  -6   69.19   10.40
  -5  -4   6   73.99    5.90
  -5  -4   6   71.89    5.70
   4   4  -6   73.39   10.50
   4   4  -6   76.69    9.80
  -4  -4   6   68.09    5.70
  -4  -4   6   84.29    5.80
   3   4  -6   18.10    6.60
   3   4  -6   16.60    5.20
  -3  -4   6   21.90    2.80
  -3  -4   6   18.60    2.60
   2   4  -6 1781.92   97.19
   2   4  -6 1651.73   97.99
  -2  -4   6 1682.93   94.79
  -2  -4   6 1599.14   94.59
   1   4  -6   56.59    6.20
   1   4  -6   47.70    7.80
  -1  -4   6   49.99    4.40
  -1  -4   6   58.19    4.80
   0   4  -6  813.42   43.70
   0   4  -6  674.83   45.50
   0  -4   6  743.23   43.20
   0  -4   6  756.82   42.80
  -1   4  -6  147.19    9.30
   1  -4   6  142.69    9.90
  -2   4  -6  350.76   19.50
  -2   4  -6  311.47   22.10
   2  -4   6  389.06   21.70
   2  -4   6  338.27   20.90
   2  -4   6  318.47   19.90
  -3   4  -6   25.00    4.50
   3  -4   6   30.20    4.50
   3  -4   6   28.80    2.90
  -4   4  -6  155.48   12.10
   4  -4   6  163.98   10.20
   4  -4   6  172.18   12.00
  -5   4  -6   85.79    8.00
   5  -4   6   83.49    6.10
   5  -4   6   94.89    8.70
  -6   4  -6  718.43   43.80
   6  -4   6  771.42   44.50
   6  -4   6  731.13   42.50
  -7   4  -6   14.80    3.20
  -7   4  -6   10.80    3.70
   7  -4   6   11.90    5.20
  -8   4  -6  554.64   33.10
  -8   4  -6  527.05   32.40
   8  -4   6  560.44   34.40
  -9   4  -6    5.10    3.50
  -9   4  -6    1.50    3.70
   9  -4   6    5.00    6.50
  10   3  -6   23.00   10.90
 -10  -3   6   35.20    4.90
   9   3  -6   16.70   10.50
  -9  -3   6   14.10    3.20
  -9  -3   6   12.00    3.10
   8   3  -6    4.90    8.50
  -8  -3   6    2.50    2.70
  -8  -3   6    4.00    2.30
   7   3  -6  -10.60    7.30
  -7  -3   6    1.20    2.00
  -7  -3   6    1.50    2.10
   6   3  -6   32.20    9.10
   6   3  -6   37.20    9.70
  -6  -3   6   33.30    3.30
  -6  -3   6   31.40    3.70
   5   3  -6   -0.50    5.90
  -5  -3   6    2.80    1.60
  -5  -3   6    2.60    1.60
   4   3  -6   38.50    8.70
   4   3  -6   34.70    7.70
  -4  -3   6   47.70    3.30
  -4  -3   6   45.90    3.50
   3   3  -6   41.30    7.30
   3   3  -6   49.20    8.40
  -3  -3   6   44.30    3.80
  -3  -3   6   47.80    3.50
  -3  -3   6   44.40    3.40
   2   3  -6   15.80    5.50
   2   3  -6   19.70    5.20
  -2  -3   6   22.50    2.70
  -2  -3   6   22.60    2.80
   1   3  -6   17.60    5.50
   1   3  -6   21.10    5.00
  -1  -3   6   21.70    2.80
   0   3  -6    8.40    4.30
   0   3  -6   10.50    3.10
   0  -3   6    5.60    1.50
   0  -3   6    7.90    2.00
  -1   3  -6    3.80    1.90
   1  -3   6    1.50    1.80
   1  -3   6    2.70    1.30
  -2   3  -6   43.40    3.00
  -2   3  -6   29.80    5.10
  -2   3  -6   40.20    2.90
   2  -3   6   36.10    3.60
   2  -3   6   42.80    4.60
  -3   3  -6   60.09    6.70
   3  -3   6   66.19    4.50
   3  -3   6   61.79    5.60
  -4   3  -6   84.59    7.80
   4  -3   6   81.29    5.80
   4  -3   6   87.09    7.50
  -5   3  -6   52.49    5.60
   5  -3   6   51.79    4.10
   5  -3   6   46.80    6.50
  -6   3  -6    0.80    2.30
   6  -3   6    3.20    1.70
   6  -3   6    0.80    3.20
  -7   3  -6   18.70    3.90
  -7   3  -6   21.00    3.30
   7  -3   6   23.20    4.90
  -8   3  -6    8.20    3.30
  -8   3  -6    6.50    3.10
   8  -3   6    1.00    4.70
  -9   3  -6   15.40    4.00
  -9   3  -6   20.60    3.90
   9  -3   6   11.60    6.20
 -10   3  -6   17.20    4.70
 -10   3  -6   29.10    5.00
  10  -3   6   24.00    7.60
  10   2  -6  158.38   20.40
   9   2  -6   -7.50    9.10
  -9  -2   6   -1.30    2.40
  -9  -2   6    6.10    2.80
   8   2  -6  158.08   18.90
  -8  -2   6  200.58   11.80
  -8  -2   6  157.28   11.40
   7   2  -6   27.30    9.20
  -7  -2   6   24.00    3.10
  -7  -2   6   17.40    2.90
   6   2  -6   15.50    7.30
  -6  -2   6   22.40    2.80
  -6  -2   6   23.00    3.00
  -6  -2   6   16.00    1.90
   5   2  -6   47.40    9.60
  -5  -2   6   38.80    3.90
  -5  -2   6   48.60    4.80
   4   2  -6    3.50    5.20
  -4  -2   6    1.20    1.30
  -4  -2   6    1.70    1.80
   3   2  -6  114.79   12.00
  -3  -2   6   98.49    6.90
  -3  -2   6   85.39    6.70
   2   2  -6 1379.06   89.19
   2   2  -6 1640.34   84.79
   2   2  -6 1421.36   88.79
  -2  -2   6 1534.05   85.89
  -2  -2   6 1547.45   84.89
  -2  -2   6 1546.35   85.59
   1   2  -6  128.89   11.40
   1   2  -6  102.79   11.90
   1   2  -6  116.99    7.50
  -1  -2   6  127.39    7.40
  -1  -2   6  124.39    7.80
   0   2  -6  340.97   25.50
   0   2  -6  400.26   24.90
   0  -2   6  404.36   22.50
   0  -2   6  395.26   22.50
  -1   2  -6    1.80    4.10
  -1   2  -6    5.80    3.00
   1  -2   6    5.80    1.70
   1  -2   6    3.50    1.10
  -2   2  -6  268.97   19.90
  -2   2  -6  323.07   18.30
  -2   2  -6  313.37   17.10
   2  -2   6  275.97   17.40
  -3   2  -6    7.30    3.40
   3  -2   6    1.90    1.90
   4  -2   6   82.49    5.70
  -5   2  -6   37.50    4.70
   5  -2   6   31.80    4.70
   5  -2   6   31.70    3.50
  -6   2  -6  408.06   25.20
  -6   2  -6  404.36   24.70
   6  -2   6  431.76   25.90
  -7   2  -6   60.59    5.90
  -7   2  -6   60.49    5.60
   7  -2   6   50.59    7.00
  -8   2  -6  332.17   20.90
  -8   2  -6  340.27   21.00
   8  -2   6  344.57   22.40
  -9   2  -6    2.20    3.20
  -9   2  -6    1.90    3.00
   9  -2   6    1.90    4.80
 -10   2  -6    6.40    3.40
  10  -2   6   12.00    6.00
  11   1  -6  359.56   34.50
 -11  -1   6  328.87   20.80
  10   1  -6   19.20   12.20
 -10  -1   6    7.30    3.10
 -10  -1   6   14.10    3.10
   9   1  -6   34.50   12.90
  -9  -1   6   39.10    4.80
  -9  -1   6   36.30    4.30
   8   1  -6  116.79   16.30
  -8  -1   6  114.69    8.00
  -8  -1   6  102.19    7.90
   7   1  -6  828.22   58.99
   7   1  -6  897.31   52.39
  -7  -1   6  936.11   52.99
  -7  -1   6 1007.30   52.89
   6   1  -6 2473.15  158.58
   6   1  -6 2913.51  165.78
  -6  -1   6 3133.29  159.38
  -6  -1   6 2831.62  159.58
   5   1  -6   20.80    6.80
  -5  -1   6   24.40    2.90
  -4  -1   6  968.20   57.49
  -4  -1   6 1058.29   57.89
   3   1  -6   14.20    5.40
  -3  -1   6   12.40    1.90
  -3  -1   6   13.50    2.10
   2   1  -6  259.17   19.60
  -2  -1   6  267.57   16.20
  -2  -1   6  269.07   15.80
   1   1  -6  185.58   11.00
   1   1  -6  200.48   14.40
  -1  -1   6  191.88   11.40
  -1  -1   6  184.08   10.90
  -1  -1   6  193.18   11.80
   0   1  -6   84.59    9.90
   0   1  -6  107.09    9.20
   0  -1   6  100.99    6.80
   0  -1   6   97.89    6.30
   0  -1   6  102.89    6.30
  -1   1  -6   43.50    5.90
  -1   1  -6   33.10    6.10
   1  -1   6   34.40    2.80
   1  -1   6   40.00    3.20
  -2   1  -6 5242.88  265.47
  -2   1  -6 4846.42  266.07
   2  -1   6 4400.46  265.07
   2  -1   6 4442.86  264.77
  -3   1  -6  364.06   20.30
  -3   1  -6  316.77   18.80
  -3   1  -6  328.77   21.40
   3  -1   6  314.07   19.80
   3  -1   6  325.67   19.30
  -4   1  -6 2482.15  142.19
  -4   1  -6 2713.33  140.59
   4  -1   6 2337.47  141.49
   4  -1   6 2561.64  140.89
   4  -1   6 2439.46  140.29
  -5   1  -6   25.70    3.80
  -5   1  -6   14.10    3.30
   5  -1   6   12.80    1.80
   5  -1   6   19.60    2.60
   5  -1   6   13.70    3.30
  -6   1  -6  468.75   28.50
  -6   1  -6  455.65   29.50
   6  -1   6  480.95   29.50
   6  -1   6  523.55   27.60
  -7   1  -6  702.33   40.00
  -7   1  -6  679.43   40.00
   7  -1   6  673.33   41.00
  -8   1  -6   34.80    4.50
  -8   1  -6   35.00    4.80
   8  -1   6   41.30    6.20
  -9   1  -6   99.09    7.90
  -9   1  -6   87.79    8.40
   9  -1   6  103.69   10.30
 -10   1  -6  468.45   28.90
  10  -1   6  471.45   30.60
  11   0  -6  857.41   56.19
 -11   0   6  711.83   44.60
  10   0  -6  670.13   51.49
 -10   0   6  743.83   40.80
 -10   0   6  676.63   41.00
   9   0  -6   57.69   13.70
  -9   0   6   82.89    6.40
  -9   0   6   74.49    6.80
   8   0  -6 1228.38   83.69
   8   0  -6 1391.26   76.29
  -8   0   6 1335.37   76.79
  -8   0   6 1396.76   76.29
   7   0  -6  270.57   16.20
   7   0  -6  264.97   24.00
  -7   0   6  264.97   16.80
  -7   0   6  269.97   16.20
   6   0  -6   75.59    5.70
   6   0  -6   76.69   12.20
  -6   0   6   92.69    5.90
  -6   0   6   81.19    6.40
   5   0  -6   49.30    9.30
   5   0  -6   46.60    3.80
  -5   0   6   58.09    4.20
  -5   0   6   54.99    4.90
  -5   0   6   57.79    3.70
  -4   0   6   53.99    4.50
  -4   0   6   75.99    5.30
   3   0  -6  124.29   12.30
  -3   0   6  127.79    8.40
  -3   0   6  125.29    7.90
   2   0  -6 6545.15  378.06
   2   0  -6 5752.52  373.86
   2   0  -6 6651.83  373.96
  -2   0   6 7330.87  374.56
  -2   0   6 7191.68  374.96
   1   0  -6  576.14   34.20
   1   0  -6  488.45   30.40
  -1   0   6  536.65   31.20
  -1   0   6  554.04   30.60
   0   0  -6 2773.72  154.28
   0   0   6 2575.84  151.38
   0   0   6 2662.73  151.88
   0   0   6 2797.92  151.38
  -1   0  -6   19.60    4.20
   1   0   6   17.70    1.90
   1   0   6   18.50    2.60
   1   0   6   16.20    2.30
  -2   0  -6 1082.99   72.39
   2   0   6 1262.07   70.09
   2   0   6 1263.97   70.49
   2   0   6 1352.26   70.19
  -3   0  -6  130.09   11.10
   3   0   6  145.29    8.70
   3   0   6  132.69    8.50
   3   0   6  132.29    9.20
  -4   0  -6  476.05   29.00
   4   0   6  499.45   27.40
   4   0   6  455.95   28.30
  -5   0  -6  283.47   18.00
  -5   0  -6  325.47   18.80
   5   0   6  299.37   17.50
   5   0   6  284.97   18.70
  -6   0  -6 2694.43  142.49
  -6   0  -6 2478.25  142.39
   6   0   6 2545.35  141.79
   6   0   6 2378.36  142.99
  -7   0  -6  459.35   25.40
  -7   0  -6  405.26   25.60
   7   0   6  426.06   26.60
   7   0   6  414.36   24.90
  -8   0  -6 2309.07  121.79
  -8   0  -6 2079.39  122.39
   8   0   6 2118.19  123.39
   8   0   6 2122.49  121.69
  -9   0  -6   53.99    5.90
   9   0   6   51.69    7.30
 -10   0  -6   89.09    8.80
  10   0   6   91.69   10.70
  11  -1  -6  318.87   33.00
 -11   1   6  343.17   19.90
 -11   1   6  306.67   20.60
  10  -1  -6   -2.50   12.90
 -10   1   6   10.50    3.70
 -10   1   6   20.60    3.20
   9  -1  -6   39.80   13.70
  -9   1   6   39.50    5.60
  -9   1   6   40.00    4.70
   8  -1  -6  111.49    8.60
   8  -1  -6  107.79   16.80
  -8   1   6  125.59    9.10
  -8   1   6  116.39    8.00
   7  -1  -6  953.40   65.69
   7  -1  -6 1064.09   58.29
  -7   1   6 1037.70   58.09
  -7   1   6 1015.20   58.99
   6  -1  -6 2947.61  181.18
   6  -1  -6 3276.77  174.68
  -6   1   6 3141.79  174.68
  -6   1   6 3071.99  175.58
   5  -1  -6   22.20    2.90
   5  -1  -6   19.60    7.00
  -5   1   6   25.50    3.50
  -5   1   6   19.20    2.30
   4  -1  -6 1108.39   61.59
   4  -1  -6 1023.10   67.09
  -4   1   6 1120.29   61.79
  -4   1   6 1108.49   61.69
   3  -1  -6   12.10    5.60
   3  -1  -6    7.60    1.90
  -3   1   6   12.40    1.60
  -3   1   6   14.60    2.50
   2  -1  -6  221.78   15.10
   2  -1  -6  265.57   19.50
   2  -1  -6  264.77   15.00
  -2   1   6  275.27   15.10
  -2   1   6  267.27   15.90
   1  -1  -6  193.88   15.30
   1  -1  -6  190.58   10.90
  -1   1   6  180.08   11.60
  -1   1   6  176.58   10.80
   0  -1  -6  104.49   10.10
   0   1   6  104.19    6.80
   0   1   6  101.29    6.70
   0   1   6  103.29    6.40
   0   1   6  105.29    7.00
   1   1   6   44.90    3.40
   1   1   6   38.80    3.40
   1   1   6   38.90    3.00
   1   1   6   36.40    3.40
   2   1   6 4431.46  241.08
   2   1   6 4081.89  241.28
   2   1   6 4407.46  241.58
   2   1   6 4312.37  241.28
  -3  -1  -6  298.27   20.60
   3   1   6  308.27   19.00
   3   1   6  316.37   18.50
   3   1   6  329.57   18.50
  -4  -1  -6 2488.25  136.89
   4   1   6 2338.17  135.49
  -5  -1  -6    9.80    2.90
  -5  -1  -6   11.70    2.30
   5   1   6    6.70    3.00
  -6  -1  -6  550.64   29.10
  -6  -1  -6  478.65   29.20
   6   1   6  478.05   30.00
   6   1   6  466.95   28.80
  -7  -1  -6  636.84   39.10
  -7  -1  -6  759.92   38.60
   7   1   6  627.14   40.00
   7   1   6  646.14   38.80
  -8  -1  -6   33.60    4.70
   8   1   6   32.80    5.70
  -9  -1  -6   89.49    8.00
   9   1   6   80.39   10.30
   9   1   6   94.19    8.20
 -10  -1  -6  462.05   28.80
  10   1   6  471.85   30.30
  10  -2  -6  168.48   24.40
 -10   2   6  155.88   11.60
 -10   2   6  157.28   10.50
   9  -2  -6    1.80    4.10
   9  -2  -6   15.70   12.30
  -9   2   6   -0.60    2.10
  -9   2   6    3.70    3.60
   8  -2  -6  155.68   23.30
   8  -2  -6  193.48   13.10
  -8   2   6  195.38   11.90
  -8   2   6  191.78   13.10
   7  -2  -6    5.70    9.00
   7  -2  -6   23.30    3.70
  -7   2   6   29.20    4.30
   6  -2  -6   15.60    8.90
   6  -2  -6   19.80    3.20
  -6   2   6   20.60    2.40
  -6   2   6   20.10    3.40
   5  -2  -6   45.80   10.00
   5  -2  -6   52.99    4.60
  -5   2   6   50.09    3.90
  -5   2   6   54.39    5.60
   4  -2  -6    3.30    5.90
   4  -2  -6    1.50    1.60
  -4   2   6    2.10    2.40
   3  -2  -6  102.29    6.80
  -3   2   6  104.19    6.40
   2  -2  -6 1555.54   93.09
   2  -2  -6 1610.44   88.39
  -2   2   6 1592.64   89.29
  -2   2   6 1520.25   88.09
   1  -2  -6  141.09   12.20
   1  -2  -6  121.19    7.70
  -1   2   6  118.69    8.30
  -1   2   6  118.89    7.30
  -1   2   6  123.09    8.10
   0  -2  -6  420.56   23.10
   0   2   6  390.76   22.70
   0   2   6  407.96   23.40
   0   2   6  369.86   23.40
   1   2   6    4.70    1.10
   1   2   6    5.00    1.40
   1   2   6    1.90    1.60
   1   2   6    6.20    1.60
   2   2   6  291.37   16.50
   2   2   6  279.27   17.10
   2   2   6  280.47   16.90
   2   2   6  278.67   16.80
  -3  -2  -6    0.50    1.40
   3   2   6    2.20    1.90
   3   2   6    0.20    1.20
   3   2   6    1.50    1.20
  -4  -2  -6   64.39    7.10
   4   2   6   62.19    5.70
   4   2   6   61.79    4.90
  -5  -2  -6   40.70    4.90
  -5  -2  -6   31.30    3.80
   5   2   6   31.40    3.50
   5   2   6   33.90    4.60
  -6  -2  -6  404.06   26.50
  -6  -2  -6  493.95   26.10
   6   2   6  434.46   27.40
  -7  -2  -6   58.29    5.70
   7   2   6   47.80    6.80
   7   2   6   60.49    5.60
  -8  -2  -6  324.17   20.20
   8   2   6  310.27   21.30
   8   2   6  318.27   20.10
  -9  -2  -6   -0.90    3.50
   9   2   6    7.00    5.70
   9   2   6    0.20    3.50
 -10  -2  -6   20.20    4.60
  10   2   6   32.30    6.10
  10   2   6   20.40    6.70
  10  -3  -6   31.30   15.60
 -10   3   6   29.80    5.00
   9  -3  -6   14.50   13.70
   9  -3  -6   14.60    5.20
  -9   3   6   17.70    2.90
  -9   3   6   14.20    4.30
   8  -3  -6    1.20    3.80
   8  -3  -6  -17.80   11.80
  -8   3   6    3.30    2.10
  -8   3   6    2.70    3.00
   7  -3  -6    4.20    3.40
   7  -3  -6    9.50   10.80
  -7   3   6    2.90    1.70
  -7   3   6    3.60    2.60
   6  -3  -6   30.70   10.40
   6  -3  -6   44.40    5.00
  -6   3   6   33.10    3.20
   5  -3  -6    1.70    2.30
   5  -3  -6    4.70    9.00
  -5   3   6    1.40    1.20
  -5   3   6    5.10    2.60
   4  -3  -6   54.39   10.90
   4  -3  -6   56.99    4.90
  -4   3   6   50.69    5.30
  -4   3   6   49.70    3.50
   3  -3  -6   53.39    4.30
   3  -3  -6   42.80    8.90
  -3   3   6   40.80    5.20
  -3   3   6   45.40    3.10
   2  -3  -6   35.40    8.30
   2  -3  -6   25.40    3.10
  -2   3   6   27.00    3.00
  -2   3   6   26.30    2.00
   1  -3  -6   20.80    2.70
  -1   3   6   22.10    3.30
  -1   3   6   23.70    1.90
   0  -3  -6    6.30    1.80
   0   3   6    8.70    2.00
   0   3   6    8.80    1.20
   0   3   6    6.40    2.00
  -1  -3  -6    1.50    1.40
  -1  -3  -6    0.60    1.10
   1   3   6    1.80    1.30
   1   3   6    2.00    1.60
  -2  -3  -6   44.70    4.20
  -2  -3  -6   43.70    3.80
   2   3   6   46.90    3.90
   2   3   6   39.90    3.70
  -3  -3  -6   57.09    4.80
   3   3   6   61.09    4.60
   3   3   6   63.19    6.10
   4   3   6   83.89    7.00
   4   3   6   82.59    5.50
   4   3   6   75.79    6.00
  -5  -3  -6   45.30    4.80
  -5  -3  -6   53.69    5.80
   5   3   6   45.20    5.70
   5   3   6   49.80    4.40
  -6  -3  -6    1.30    2.40
   6   3   6    0.80    2.20
   6   3   6    8.30    3.70
  -7  -3  -6   24.90    3.90
   7   3   6   32.40    4.30
   7   3   6   16.00    5.00
  -8  -3  -6    2.50    3.10
   8   3   6    8.10    4.40
   8   3   6    2.10    3.40
  -9  -3  -6   15.20    3.80
   9   3   6   15.30    6.20
   9   3   6   13.80    4.60
 -10  -3  -6   32.60    4.90
  10   3   6   16.00    6.90
  10   3   6   24.80    6.10
   9  -4  -6    2.00    5.00
   9  -4  -6   16.40   16.60
  -9   4   6    6.40    4.20
   8  -4  -6  275.37   29.50
   8  -4  -6  345.97   21.30
  -8   4   6  330.57   20.80
   7  -4  -6  202.88   24.90
   7  -4  -6  199.08   14.40
  -7   4   6  222.28   14.50
   6  -4  -6   62.39   12.30
   6  -4  -6   58.49    6.10
  -6   4   6   51.09    5.90
   5  -4  -6   69.19   13.30
   5  -4  -6   83.59    6.70
  -5   4   6   77.69    6.90
  -5   4   6   74.89    5.00
   4  -4  -6   81.89   13.50
  -4   4   6   78.69    7.30
   3  -4  -6   17.80    3.20
   3  -4  -6   40.50    8.80
  -3   4   6   21.20    3.80
   2  -4  -6 1701.03   92.99
  -2   4   6 1463.65   93.39
  -2   4   6 1752.92   93.19
   1  -4  -6   49.99    4.60
   1  -4  -6   59.99    3.50
  -1   4   6   44.50    4.40
  -1   4   6   44.00    5.50
   0  -4  -6  875.41   44.90
   0   4   6  755.82   46.00
   0   4   6  744.53   45.60
  -1  -4  -6  154.28    9.20
  -1  -4  -6  149.29    9.90
   1   4   6  131.09    9.50
   1   4   6  154.58    9.90
  -2  -4  -6  375.56   20.90
  -2  -4  -6  355.86   21.50
   2   4   6  350.66   21.10
   2   4   6  334.27   21.20
  -3  -4  -6   29.50    3.50
  -3  -4  -6   23.20    3.50
   3   4   6   23.10    3.10
   3   4   6   29.70    3.30
  -4  -4  -6  182.68   11.20
  -4  -4  -6  166.88   11.60
   4   4   6  173.08   12.20
   4   4   6  168.68   10.40
   4   4   6  160.88   11.20
  -5  -4  -6   79.49    6.70
  -5  -4  -6   89.19    7.70
   5   4   6   82.99    6.90
   5   4   6   88.69    8.10
  -6  -4  -6  689.13   41.20
   6   4   6  694.03   41.70
   6   4   6  747.63   42.80
  -7  -4  -6   10.80    2.80
   7   4   6   11.20    5.20
   7   4   6   15.40    3.50
  -8  -4  -6  511.55   31.10
   8   4   6  529.45   33.40
   8   4   6  526.95   32.20
  -9  -4  -6    2.90    5.30
   9   4   6    2.80    6.50
   9   4   6    6.80    4.60
   9  -5  -6  122.89   12.30
   9  -5  -6   85.09   23.40
  -9   5   6  122.19    9.90
   8  -5  -6  148.29   12.40
   8  -5  -6  106.09   20.70
   7  -5  -6  532.05   44.10
   7  -5  -6  573.84   34.60
  -7   5   6  585.84   34.60
   6  -5  -6 2595.74  139.89
   6  -5  -6 2172.88  146.29
  -6   5   6 2598.44  140.19
   5  -5  -6   12.60    3.70
   5  -5  -6    1.80   10.40
  -5   5   6   15.90    3.60
   4  -5  -6  752.82   46.60
   4  -5  -6  855.41   53.89
  -4   5   6  817.42   47.30
   3  -5  -6   58.29   11.70
   3  -5  -6   52.09    5.70
  -3   5   6   47.40    4.80
  -3   5   6   59.69    6.00
   2  -5  -6  259.07   16.70
  -2   5   6  259.87   16.40
  -2   5   6  267.27   17.10
   1  -5  -6    9.40    2.80
  -1   5   6   11.10    3.10
  -1   5   6   10.50    2.30
   0  -5  -6  153.58   11.00
   0  -5  -6  172.48    9.60
   0   5   6  159.08   10.90
   0   5   6  172.78   11.60
  -1  -5  -6   32.00    3.00
  -1  -5  -6   36.40    4.60
   1   5   6   26.20    3.40
   1   5   6   30.70    4.20
  -2  -5  -6 2645.94  144.39
  -2  -5  -6 2522.85  143.29
   2   5   6 2504.45  144.19
   2   5   6 2540.15  143.99
  -3  -5  -6  316.67   19.40
  -3  -5  -6  283.27   18.30
   3   5   6  334.17   18.70
   3   5   6  298.07   19.00
  -4  -5  -6 1707.33   96.79
  -4  -5  -6 1646.04   95.79
   4   5   6 1673.93   96.59
   4   5   6 1752.92   95.49
  -5  -5  -6    1.40    2.30
  -5  -5  -6    4.50    2.90
   5   5   6    3.90    2.80
  -6  -5  -6  170.88   13.40
  -6  -5  -6  206.48   12.90
   6   5   6  200.68   13.80
  -7  -5  -6  394.26   27.70
  -7  -5  -6  464.25   26.90
   7   5   6  476.65   28.20
   7   5   6  457.85   29.00
  -8  -5  -6   25.60    3.90
   8   5   6   23.00    7.00
   8   5   6   22.70    5.70
  -9  -5  -6   36.00    4.90
   9   5   6   30.30    7.80
   8  -6  -6  457.55   28.30
   8  -6  -6  363.56   41.80
  -8   6   6  449.16   27.50
   7  -6  -6   81.59   16.20
   7  -6  -6   74.59    9.40
  -7   6   6   89.29    8.70
   6  -6  -6   23.90   13.30
   6  -6  -6   13.40    4.50
  -6   6   6   22.70    4.30
   5  -6  -6   55.99    6.60
   5  -6  -6   38.70   13.70
  -5   6   6   49.90    6.30
   4  -6  -6   48.20   11.20
   4  -6  -6   30.60    4.90
  -4   6   6   45.10    6.40
   3  -6  -6   97.99    8.90
  -3   6   6  110.99    9.20
  -3   6   6  101.89    7.90
   2  -6  -6 3073.89  176.28
  -2   6   6 2994.80  175.98
  -2   6   6 3295.37  176.68
   1  -6  -6  368.96   23.60
  -1   6   6  372.86   23.30
  -1   6   6  409.46   24.10
   0  -6  -6  982.20   57.89
   0   6   6 1020.30   57.79
   0   6   6  998.80   58.09
  -1  -6  -6    2.60    2.90
   1   6   6    2.50    3.30
   1   6   6    2.00    2.30
  -2  -6  -6  667.43   38.50
  -2  -6  -6  664.53   36.80
   2   6   6  608.14   38.00
  -3  -6  -6   88.89    8.20
  -3  -6  -6   93.69    6.80
   3   6   6  104.39    8.00
   3   6   6   98.39    7.70
  -4  -6  -6  136.19   10.90
  -4  -6  -6  130.29    9.10
   4   6   6  145.99   10.30
  -5  -6  -6   10.60    2.90
  -5  -6  -6   17.80    4.00
   5   6   6   16.60    4.30
  -6  -6  -6  871.11   52.59
  -6  -6  -6  909.81   53.99
   6   6   6  968.90   54.19
  -7  -6  -6  238.18   17.40
  -7  -6  -6  269.47   16.30
  -8  -6  -6 1201.08   67.09
  -8  -6  -6 1041.40   67.99
   8   6   6 1254.87   69.19
   6  -7  -6 1086.79   64.09
   6  -7  -6 1020.40   71.39
  -6   7   6 1153.58   64.19
   5  -7  -6   41.60   13.70
   5  -7  -6   51.49    6.90
  -5   7   6   45.50    8.90
   4  -7  -6  231.58   24.00
   4  -7  -6  168.08   13.50
  -4   7   6  197.18   14.20
   3  -7  -6    2.90    4.00
  -3   7   6   15.80    3.30
  -3   7   6   17.30    4.50
   2  -7  -6   70.69    7.60
  -2   7   6   63.99    6.30
  -2   7   6   80.49    7.50
   1  -7  -6   31.40    5.60
  -1   7   6   34.30    4.80
  -1   7   6   36.10    5.70
   0  -7  -6   85.59    8.70
   0   7   6   81.79    8.00
   0   7   6   66.69    6.50
  -1  -7  -6    6.40    4.00
   1   7   6    5.80    2.50
   1   7   6    4.90    3.60
  -2  -7  -6  759.72   45.10
   2   7   6  737.83   44.60
   2   7   6  776.42   44.70
  -3  -7  -6  373.56   24.30
   3   7   6  392.26   24.00
  -4  -7  -6  507.05   31.90
   4   7   6  527.45   31.90
  -5  -7  -6    0.80    2.60
  -5  -7  -6    3.10    4.00
   5   7   6   -2.10    4.00
  -6  -7  -6  152.58   10.90
  -6  -7  -6  152.28   12.60
   6   7   6  170.18   13.20
   4  -8  -6    3.00    5.20
   4  -8  -6    8.20   13.10
  -4   8   6   13.50    5.10
  -3   8   6   51.09    7.20
   2  -8  -6  245.48   19.60
  -2   8   6  300.47   18.60
  -2   8   6  241.98   17.60
   1  -8  -6  169.88   13.90
  -1   8   6  138.29   12.00
  -1   8   6  195.88   13.90
   0  -8  -6    2.50    4.90
   0   8   6    0.40    4.40
   0   8   6    3.20    3.70
   1   8   6   14.40    5.10
   1   8   6   13.60    4.70
  -2  -8  -6    8.20    5.30
   2   8   6    6.80    3.40
  -3  -8  -6    5.60    4.60
   3   8   6    4.80    4.00
  -4  -8  -6   -2.80    4.90
   4   8   6    7.80    4.30
   3   8  -7 1727.83  103.69
   3   8  -7 1983.50  102.49
  -3  -8   7 1577.14  100.79
   2   8  -7   40.90    6.60
   2   8  -7   42.80    9.00
  -2  -8   7   45.30    6.80
  -2  -8   7   41.40    4.90
   1   8  -7  338.87   24.90
   1   8  -7  334.07   21.80
  -1  -8   7  338.87   22.40
  -1  -8   7  313.17   20.20
   0   8  -7   20.20    7.70
   0  -8   7   24.10    5.90
   0  -8   7   16.30    3.30
  -1   8  -7   15.60    7.50
   1  -8   7   29.50    6.30
   1  -8   7   17.10    3.30
  -2   8  -7    7.20    5.90
   2  -8   7   13.00    6.20
   2  -8   7    3.50    2.60
  -3   8  -7  152.38   15.10
   3  -8   7  153.18   10.40
   6   7  -7   11.10    7.50
  -6  -7   7    8.80    4.10
   5   7  -7  194.48   16.90
   5   7  -7  178.98   18.80
  -5  -7   7  190.68   12.80
   4   7  -7   79.29   10.20
   4   7  -7   62.69   10.90
  -4  -7   7   73.99    6.90
   3   7  -7   -0.40    4.50
   3   7  -7   27.10    8.10
  -3  -7   7   12.90    3.00
  -3  -7   7   -1.80    6.50
   2   7  -7   48.60    8.50
   2   7  -7   45.50    6.60
  -2  -7   7   31.50    4.30
  -2  -7   7   40.80    5.60
   1   7  -7   83.19   11.50
   1   7  -7   58.09    7.20
  -1  -7   7   58.59    7.70
  -1  -7   7   63.99    5.70
   0   7  -7   13.70    6.30
   0   7  -7    8.50    3.50
   0  -7   7   14.90    4.90
   0  -7   7    6.00    2.50
  -1   7  -7 1168.68   68.69
   1  -7   7 1131.09   66.89
   1  -7   7 1150.18   65.49
  -2   7  -7   56.99    8.40
   2  -7   7   47.90    7.10
   2  -7   7   53.79    5.10
  -3   7  -7  368.36   25.00
   3  -7   7  371.16   24.70
   3  -7   7  364.06   21.80
  -4   7  -7    7.20    5.10
   4  -7   7    2.00    5.70
   4  -7   7    2.30    2.10
  -5   7  -7    4.20    5.50
   5  -7   7    1.20    2.40
   7   6  -7    3.60    7.90
  -7  -6   7    9.90    3.80
   6   6  -7   -5.40    6.70
   6   6  -7   10.20    9.90
  -6  -6   7    1.10    4.20
   5   6  -7    2.50    5.40
   5   6  -7   13.00    9.00
  -5  -6   7    3.10    2.90
   4   6  -7    6.70    5.20
   4   6  -7    5.60    7.70
  -4  -6   7    3.50    2.70
   3   6  -7  108.79   10.60
   3   6  -7  110.09   13.70
  -3  -6   7  109.49    8.70
  -3  -6   7   95.09    7.80
   2   6  -7   15.60    4.70
   2   6  -7    1.40    6.80
  -2  -6   7   11.70    2.80
   1   6  -7  150.28   10.90
   1   6  -7  150.38   14.10
  -1  -6   7  143.29    9.80
  -1  -6   7  140.29   10.60
   0   6  -7   60.79    5.70
   0   6  -7   55.59    8.30
   0  -6   7   58.39    5.10
   0  -6   7   51.19    7.00
  -1   6  -7   11.90    2.70
  -1   6  -7    8.20    4.50
   1  -6   7   12.40    4.10
   1  -6   7   12.20    2.30
  -2   6  -7    0.90    4.00
   2  -6   7    1.60    3.80
   2  -6   7    1.50    1.80
  -3   6  -7   37.30    6.70
   3  -6   7   42.90    4.10
   3  -6   7   48.50    6.40
  -4   6  -7   32.50    5.90
   4  -6   7   35.10    6.40
   4  -6   7   32.70    3.80
  -5   6  -7  141.19   12.20
   5  -6   7  131.19    9.40
   5  -6   7  166.58   13.20
  -6   6  -7    9.10    5.50
   6  -6   7   13.90    6.10
   6  -6   7   10.40    2.80
  -7   6  -7   27.30    4.60
  -7   6  -7   30.30    6.30
   7  -6   7   16.60    7.20
   8   5  -7  140.79   18.50
  -8  -5   7  150.88   11.10
   7   5  -7  201.28   19.20
   7   5  -7  176.08   22.10
  -7  -5   7  242.28   14.80
   6   5  -7    8.50    9.40
   6   5  -7    9.40    6.30
  -6  -5   7   11.70    2.80
   5   5  -7   21.20    9.30
   5   5  -7   37.70    8.10
  -5  -5   7   33.80    4.30
   4   5  -7   -2.40    4.30
   4   5  -7    5.60    7.50
  -4  -5   7   -0.20    2.20
   3   5  -7   47.40    8.30
   3   5  -7   26.90    6.20
  -3  -5   7   32.90    4.30
  -3  -5   7   37.40    4.70
   2   5  -7   17.20    6.30
   2   5  -7   16.20    4.70
  -2  -5   7   19.20    3.20
  -2  -5   7   14.70    2.70
   1   5  -7   26.10    4.30
   1   5  -7   23.30    6.90
  -1  -5   7   18.70    2.80
  -1  -5   7   27.10    3.90
   0   5  -7   12.00    2.90
   0   5  -7   14.80    5.30
   0  -5   7   13.00    2.40
   0  -5   7    8.80    2.90
  -1   5  -7  438.26   24.30
  -1   5  -7  381.96   27.10
   1  -5   7  416.06   24.20
   1  -5   7  403.46   25.00
  -2   5  -7  308.87   17.10
  -2   5  -7  248.28   19.60
   2  -5   7  288.87   18.50
   2  -5   7  286.77   17.10
  -3   5  -7   80.49    8.60
   3  -5   7  100.99    8.70
   3  -5   7   70.79    5.70
  -4   5  -7   -0.30    3.80
   4  -5   7    3.60    1.70
   4  -5   7    2.20    3.60
  -5   5  -7   35.20    5.60
   5  -5   7   36.20    6.40
   5  -5   7   35.30    3.90
  -6   5  -7   27.80    5.60
   6  -5   7   28.00    3.60
   6  -5   7   32.20    6.60
  -7   5  -7   19.00    3.70
  -7   5  -7   24.00    5.30
   7  -5   7   23.50    7.10
  -8   5  -7    4.80    5.00
  -8   5  -7    9.90    4.60
   8  -5   7    8.30    6.20
   9   4  -7  158.88   19.90
  -9  -4   7  190.28   12.90
   8   4  -7  117.99   17.70
   8   4  -7  117.79   16.90
  -8  -4   7  133.39    9.50
   7   4  -7   22.20   10.30
   7   4  -7    0.80    7.80
  -7  -4   7   15.50    3.20
   6   4  -7   24.50    8.10
   6   4  -7   21.60    9.90
  -6  -4   7   27.70    3.70
   5   4  -7  136.09   15.20
   5   4  -7  122.29   16.70
  -5  -4   7  135.59    9.30
   4   4  -7  397.06   28.50
   4   4  -7  384.76   29.60
  -4  -4   7  445.76   23.70
  -4  -4   7  393.86   24.30
   3   4  -7 2706.23  163.28
   3   4  -7 2890.81  162.68
  -3  -4   7 2848.62  158.58
  -3  -4   7 2865.11  159.18
   2   4  -7  149.88   15.70
  -2  -4   7  171.18   10.50
  -2  -4   7  162.88   10.70
   1   4  -7  698.93   47.50
   1   4  -7  837.92   46.30
  -1  -4   7  761.52   44.00
  -1  -4   7  767.12   44.10
   0   4  -7   32.10    6.80
   0   4  -7   20.70    3.90
   0  -4   7   18.20    3.20
   0  -4   7   18.80    2.60
  -1   4  -7   82.59    6.30
  -1   4  -7  101.09    9.90
   1  -4   7   76.39    5.80
   1  -4   7   81.79    7.00
  -2   4  -7   29.30    5.60
  -2   4  -7   29.60    2.50
   2  -4   7   26.80    2.90
  -3   4  -7  375.36   25.50
   3  -4   7  387.56   24.20
   3  -4   7  413.46   23.10
  -4   4  -7  109.69   10.20
   4  -4   7  124.99    9.60
   4  -4   7  120.09    7.90
  -5   4  -7  945.01   56.69
   5  -4   7  949.01   54.89
   5  -4   7  992.40   56.49
  -6   4  -7  395.86   25.60
   6  -4   7  414.26   25.80
   6  -4   7  400.56   23.90
  -7   4  -7 1175.28   68.29
  -7   4  -7 1124.29   67.29
   7  -4   7 1227.28   69.09
  -8   4  -7   19.60    4.10
  -8   4  -7   14.60    4.30
  -9   4  -7   18.40    4.50
  -9   4  -7    7.10    4.50
   9  -4   7   11.20    6.10
  10   3  -7  158.18   21.40
 -10  -3   7  120.89   10.10
   9   3  -7  432.76   32.80
  -9  -3   7  388.56   24.30
   8   3  -7  434.96   34.30
  -8  -3   7  428.56   26.80
  -8  -3   7  481.75   27.10
   7   3  -7 1785.72  113.39
  -7  -3   7 1861.71  106.99
  -7  -3   7 2008.70  107.19
   6   3  -7   20.50    9.80
   6   3  -7   25.30    8.70
  -6  -3   7   46.00    4.50
  -6  -3   7   39.80    4.50
   5   3  -7  648.34   43.90
   5   3  -7  635.44   43.90
  -5  -3   7  692.93   38.50
   4   3  -7  123.19   14.20
   4   3  -7  130.09   15.30
  -4  -3   7  105.79    7.70
   3   3  -7   26.40    6.60
   3   3  -7   23.80    7.50
  -3  -3   7   28.60    3.20
  -3  -3   7   27.90    2.20
   2   3  -7   16.20    6.20
   2   3  -7   20.50    2.30
   2   3  -7   15.30    5.90
  -2  -3   7   20.60    2.60
  -2  -3   7   14.70    2.40
   1   3  -7  118.19   11.20
   1   3  -7  103.99   12.00
  -1  -3   7  117.29    7.50
  -1  -3   7  112.79    7.70
   0   3  -7   46.10    6.20
   0   3  -7   37.20    7.10
   0  -3   7   35.90    3.40
   0  -3   7   49.10    4.10
  -1   3  -7 5930.41  352.16
  -1   3  -7 6925.01  350.26
   1  -3   7 6129.09  349.07
   1  -3   7 5967.80  349.37
  -2   3  -7 1292.57   67.69
  -2   3  -7 1224.88   67.29
   2  -3   7 1167.18   68.39
   2  -3   7 1099.49   67.69
  -3   3  -7 2102.29  121.49
   3  -3   7 2030.50  120.49
   3  -3   7 2213.28  119.09
  -4   3  -7   -3.30    2.80
   4  -3   7   -0.70    1.30
   4  -3   7    5.10    2.70
  -5   3  -7  131.29   10.50
   5  -3   7  128.09    8.70
   5  -3   7  135.99   10.40
  -6   3  -7  236.18   16.80
   6  -3   7  258.07   15.50
   6  -3   7  259.57   17.30
  -7   3  -7  391.86   24.30
  -7   3  -7  374.96   23.60
   7  -3   7  402.66   25.30
  -8   3  -7    7.10    3.50
  -8   3  -7   10.60    3.50
   8  -3   7   15.80    6.20
  -9   3  -7  552.14   38.30
  -9   3  -7  580.24   35.50
   9  -3   7  644.24   37.90
  10   2  -7   26.80   14.20
 -10  -2   7   24.00    4.20
 -10  -2   7   25.70    4.20
   9   2  -7  440.26   37.00
  -9  -2   7  471.95   28.60
  -9  -2   7  509.25   28.70
   8   2  -7  326.07   28.50
  -8  -2   7  314.37   20.30
  -8  -2   7  356.86   20.40
   7   2  -7   -7.00    8.90
  -7  -2   7   11.70    2.40
  -7  -2   7   10.00    2.60
   6   2  -7   49.70   10.80
  -6  -2   7   61.49    5.30
  -6  -2   7   61.29    5.30
   5   2  -7  313.87   25.80
  -5  -2   7  340.97   19.80
  -5  -2   7  316.27   19.50
   4   2  -7  399.66   29.60
  -4  -2   7  410.36   24.60
  -4  -2   7  436.76   24.90
  -3  -2   7 4316.17  249.28
  -3  -2   7 4579.04  249.68
   2   2  -7   34.10    9.20
   2   2  -7   40.60    7.70
  -2  -2   7   42.10    3.60
  -2  -2   7   42.10    4.80
   1   2  -7 1219.58   71.59
   1   2  -7 1153.68   67.79
  -1  -2   7 1243.78   67.69
   0   2  -7  205.78   15.70
   0  -2   7  213.98   12.70
  -1   2  -7   55.99    6.90
  -1   2  -7   49.20    8.80
   1  -2   7   43.40    4.20
   1  -2   7   51.69    4.40
  -2   2  -7    3.80    3.30
  -2   2  -7   -2.50    3.80
  -2   2  -7    1.50    1.40
   2  -2   7    1.00    1.00
   2  -2   7    3.00    2.10
  -3   2  -7  700.83   38.50
  -3   2  -7  639.44   41.40
   3  -2   7  665.13   39.10
   3  -2   7  728.13   40.00
  -4   2  -7  426.16   27.60
   4  -2   7  448.46   26.70
   4  -2   7  448.06   25.70
  -5   2  -7 1608.34   95.49
   5  -2   7 1704.73   94.19
   5  -2   7 1681.43   95.29
  -6   2  -7  502.75   32.60
   6  -2   7  544.85   33.00
   6  -2   7  582.14   31.80
  -7   2  -7 1847.52  106.19
  -7   2  -7 1870.01  105.89
   7  -2   7 1878.51  107.09
  -8   2  -7   38.00    5.50
  -8   2  -7   41.90    5.30
   8  -2   7   40.10    6.90
  -9   2  -7   36.50    4.90
  -9   2  -7   28.40    4.80
 -10   2  -7  343.27   21.50
 -10   2  -7  322.47   21.70
  10  -2   7  352.86   24.60
  10   1  -7   50.69   14.10
 -10  -1   7   41.50    5.40
 -10  -1   7   44.20    6.10
   9   1  -7  147.69   21.10
  -9  -1   7  166.88   10.90
  -9  -1   7  155.18   11.30
   8   1  -7  235.88   24.10
  -8  -1   7  242.08   15.60
  -8  -1   7  250.57   15.20
   7   1  -7  725.83   52.69
  -7  -1   7  789.22   46.00
  -7  -1   7  843.62   45.70
   6   1  -7    0.80    7.30
  -6  -1   7    3.40    1.90
  -6  -1   7    1.00    2.00
   5   1  -7  213.88   19.40
  -5  -1   7  192.28   12.70
  -5  -1   7  216.78   13.30
   4   1  -7  182.58   16.90
  -4  -1   7  198.18   12.10
  -4  -1   7  177.78   11.50
   3   1  -7    7.70    6.30
  -3  -1   7    1.60    1.60
  -3  -1   7   -1.00    1.80
   2   1  -7  177.88   15.30
  -2  -1   7  162.38   10.40
  -2  -1   7  172.88   11.00
   1   1  -7   47.10    3.10
   1   1  -7   33.80    6.70
  -1  -1   7   43.90    2.90
  -1  -1   7   34.00    3.20
  -1  -1   7   36.50    3.90
   0   1  -7   40.60    6.40
   0   1  -7   36.30    7.60
   0  -1   7   42.20    3.20
   0  -1   7   44.00    3.90
   0  -1   7   41.00    3.30
  -1   1  -7 2405.16  130.49
   1  -1   7 2210.68  127.99
   1  -1   7 2225.58  127.89
  -2   1  -7   54.99    7.90
  -2   1  -7   60.59    7.20
   2  -1   7   60.29    4.90
  -3   1  -7  764.62   48.00
  -3   1  -7  869.21   46.90
   3  -1   7  780.52   46.00
   3  -1   7  771.52   45.40
  -4   1  -7   23.00    4.00
  -4   1  -7   16.90    2.50
   4  -1   7   15.10    2.20
   4  -1   7   16.60    3.20
  -5   1  -7   41.90    5.70
   5  -1   7   39.50    5.10
   5  -1   7   39.70    3.80
  -6   1  -7  131.99   10.10
  -6   1  -7  119.29    9.20
   6  -1   7  149.19   10.70
  -7   1  -7  137.09   10.30
  -7   1  -7  135.39    9.90
   7  -1   7  156.98   12.00
  -8   1  -7   48.90    6.00
  -8   1  -7   45.90    5.70
   8  -1   7   58.29    7.70
  -9   1  -7  232.58   16.60
  -9   1  -7  252.07   16.00
   9  -1   7  263.27   18.90
 -10   1  -7    8.10    4.20
  10  -1   7    6.90    6.20
  10   0  -7   -6.80   13.60
 -10   0   7   -4.00    2.60
 -10   0   7    0.10    3.30
   9   0  -7   -4.40   10.20
  -9   0   7   -0.90    2.90
  -9   0   7   -0.30    2.40
   8   0  -7   11.80   11.30
   7   0  -7   -6.40    7.90
  -7   0   7   -1.40    2.20
  -7   0   7    2.10    1.70
   6   0  -7   -0.60    8.30
  -6   0   7   -2.40    2.10
  -6   0   7    1.80    1.60
   5   0  -7   -4.70    6.10
  -5   0   7    2.90    1.40
  -5   0   7    0.30    1.80
   4   0  -7    0.70    5.10
  -4   0   7    0.40    1.40
  -4   0   7   -3.30    1.60
  -3   0   7    1.50    1.80
  -3   0   7    1.70    1.20
   2   0  -7   -1.90    3.90
   2   0  -7    0.70    0.80
   2   0  -7    1.00    0.70
  -2   0   7    0.00    1.00
  -2   0   7    0.30    1.40
   1   0  -7    2.40    1.30
   1   0  -7    1.10    0.90
   1   0  -7    2.90    4.10
  -1   0   7   -1.10    1.50
  -1   0   7    2.30    1.10
   0   0  -7   -1.80    3.80
   0   0   7    2.10    1.40
   0   0   7   -0.40    1.10
   0   0   7   -0.50    0.80
  -1   0  -7   -2.20    3.50
   1   0   7   -1.60    1.00
   1   0   7    4.40    1.90
   1   0   7    3.60    1.50
  -2   0  -7   -2.00    3.20
  -2   0  -7   -1.80    4.50
   2   0   7   -0.10    1.10
   2   0   7    2.70    1.50
  -3   0  -7    5.00    4.10
   3   0   7    5.60    2.20
   3   0   7    1.70    1.80
   3   0   7    1.20    1.20
  -4   0  -7    1.50    3.50
   4   0   7    0.50    1.40
   4   0   7    0.60    2.30
   4   0   7   -1.10    1.40
  -5   0  -7    2.50    3.20
  -5   0  -7   11.20    2.60
   5   0   7    0.40    1.50
   5   0   7    1.10    2.70
  -6   0  -7    3.00    1.90
  -6   0  -7    1.30    2.70
   6   0   7   -0.20    3.40
   6   0   7    1.50    1.70
  -7   0  -7    3.10    2.80
  -7   0  -7    0.00    2.50
   7   0   7    0.60    2.20
   7   0   7    3.70    3.80
  -8   0  -7    1.30    2.50
  -8   0  -7   -3.80    2.70
   8   0   7    2.20    4.20
  -9   0  -7   -0.30    3.40
   9   0   7    5.60    5.30
 -10   0  -7   -1.00    4.20
  10   0   7   -5.40    5.70
  10  -1  -7   61.39   17.00
 -10   1   7   42.30    5.00
 -10   1   7   38.00    5.50
   9  -1  -7  137.09   22.20
  -9   1   7  160.88   12.00
  -9   1   7  172.98   10.80
   8  -1  -7  237.68   24.80
  -8   1   7  252.77   16.50
  -8   1   7  250.67   15.30
   7  -1  -7  738.63   55.19
   7  -1  -7  867.81   47.50
  -7   1   7  838.72   47.50
  -7   1   7  851.61   48.60
   6  -1  -7    4.60    2.10
   6  -1  -7    3.50    9.20
  -6   1   7    0.10    2.50
  -6   1   7    2.60    1.60
   5  -1  -7  205.18   19.80
   5  -1  -7  225.78   13.10
  -5   1   7  215.08   13.40
  -5   1   7  232.98   14.60
   4  -1  -7  177.88   17.80
   4  -1  -7  197.68   11.90
  -4   1   7  210.08   13.20
  -4   1   7  201.88   12.00
   3  -1  -7    5.90    1.30
   3  -1  -7    5.80    5.80
   3  -1  -7    0.70    1.90
  -3   1   7    5.50    1.90
  -3   1   7    3.00    1.20
   2  -1  -7  173.38   15.30
   2  -1  -7  175.68   10.10
  -2   1   7  158.88   12.20
  -2   1   7  167.68   10.20
   1  -1  -7   34.90    7.30
   1  -1  -7   37.20    2.90
  -1   1   7   36.50    2.90
  -1   1   7   39.20    3.90
   0  -1  -7   35.50    6.70
   0   1   7   42.30    4.00
   0   1   7   41.80    3.50
   0   1   7   41.90    3.20
   1   1   7 2226.88  122.99
   1   1   7 2200.98  123.39
   1   1   7 2141.69  123.49
   1   1   7 2196.88  123.29
   2   1   7   53.39    4.00
   2   1   7   48.40    4.50
   2   1   7   57.29    4.60
   2   1   7   57.49    4.40
  -3  -1  -7  683.43   45.80
   3   1   7  739.23   43.40
   3   1   7  791.92   43.80
   3   1   7  799.02   43.30
  -4  -1  -7   18.30    2.90
  -4  -1  -7   17.30    4.50
   4   1   7   17.50    3.00
   4   1   7   18.10    2.50
  -5  -1  -7   42.10    4.40
  -5  -1  -7   45.40    6.10
   5   1   7   38.70    5.10
   5   1   7   42.80    4.00
  -6  -1  -7  116.09    9.30
  -6  -1  -7  144.69    9.80
   6   1   7  133.79   10.30
   6   1   7  131.39    8.90
  -7  -1  -7  141.49   10.50
  -7  -1  -7  160.98   10.50
   7   1   7  158.38   12.00
   7   1   7  148.59   10.30
  -8  -1  -7   37.50    5.10
   8   1   7   60.59    8.00
  -9  -1  -7  254.37   17.10
   9   1   7  245.38   18.30
 -10  -1  -7   11.70    4.40
  10   1   7    7.50    5.60
  10  -2  -7   10.80   14.50
 -10   2   7   28.60    3.60
 -10   2   7   22.70    4.80
   9  -2  -7  462.95   41.00
  -9   2   7  505.05   28.60
  -9   2   7  485.45   29.90
   8  -2  -7  300.87   30.20
  -8   2   7  357.36   21.90
  -8   2   7  353.86   21.40
   7  -2  -7    5.20    2.90
   7  -2  -7   -8.40    9.20
  -7   2   7    5.30    1.90
  -7   2   7    8.60    3.00
   6  -2  -7   57.19    5.60
   6  -2  -7   51.89   12.00
  -6   2   7   60.29    4.60
  -6   2   7   55.29    6.00
   5  -2  -7  321.57   28.70
   5  -2  -7  381.46   22.10
  -5   2   7  382.56   21.80
  -5   2   7  392.26   23.40
   4  -2  -7  398.76   33.20
   4  -2  -7  503.25   27.50
  -4   2   7  491.15   27.20
   3  -2  -7 4976.00  261.87
   3  -2  -7 4181.58  267.17
  -3   2   7 4694.73  262.97
  -3   2   7 4829.82  261.57
   2  -2  -7   32.20    7.90
   2  -2  -7   36.40    3.30
  -2   2   7   40.20    2.90
  -2   2   7   37.60    4.20
   1  -2  -7 1226.18   69.69
   1  -2  -7 1281.57   75.39
  -1   2   7 1237.48   69.39
  -1   2   7 1201.48   70.49
   0  -2  -7  219.18   12.60
   0   2   7  205.48   12.90
   0   2   7  192.78   12.00
   1   2   7   43.70    4.30
   1   2   7   52.69    4.50
   1   2   7   51.69    3.60
   1   2   7   49.90    4.20
   2   2   7    0.80    1.20
   2   2   7    1.50    1.50
   2   2   7    2.10    1.30
   2   2   7    3.30    2.00
  -3  -2  -7  707.53   38.60
   3   2   7  642.34   39.40
   3   2   7  674.73   38.60
   3   2   7  649.54   38.40
  -4  -2  -7  421.66   25.30
  -4  -2  -7  437.86   27.30
   4   2   7  419.06   25.80
   4   2   7  432.76   25.20
  -5  -2  -7 1565.04   92.79
  -5  -2  -7 1724.53   93.59
   5   2   7 1619.84   93.49
  -6  -2  -7  473.75   31.50
  -6  -2  -7  603.44   31.80
   6   2   7  543.05   32.70
   6   2   7  525.05   31.50
  -7  -2  -7 1760.02   99.89
   7   2   7 1780.02   99.59
   7   2   7 1719.23  100.79
  -8  -2  -7   36.30    5.40
   8   2   7   34.40    6.10
   8   2   7   39.80    5.60
  -9  -2  -7   28.10    4.70
   9   2   7   32.60    5.10
 -10  -2  -7  328.87   21.20
  10   2   7  322.97   23.90
  10  -3  -7  132.69   24.60
 -10   3   7  129.99   10.70
   9  -3  -7  334.47   35.70
  -9   3   7  441.26   25.80
   8  -3  -7  368.46   37.90
   8  -3  -7  454.05   27.30
  -8   3   7  433.46   26.00
  -8   3   7  483.35   27.80
   7  -3  -7 1754.12  121.49
  -7   3   7 2117.89  112.79
  -7   3   7 2102.49  114.59
   6  -3  -7   46.30    5.50
   6  -3  -7   46.60   13.10
  -6   3   7   53.69    5.90
  -6   3   7   45.50    4.00
   5  -3  -7  836.62   45.90
   5  -3  -7  756.62   53.19
  -5   3   7  755.82   46.80
  -5   3   7  817.02   45.00
   4  -3  -7  134.99    9.10
   4  -3  -7  121.39   15.70
  -4   3   7  132.29    8.10
  -4   3   7  140.39   10.10
   3  -3  -7   27.50    3.20
   3  -3  -7   23.20    8.10
  -3   3   7   27.00    2.20
  -3   3   7   21.00    3.80
   2  -3  -7   15.10    2.50
   2  -3  -7   26.50    7.50
  -2   3   7   19.20    1.90
  -2   3   7   19.20    3.30
   1  -3  -7  116.99    7.60
  -1   3   7  107.99    7.80
  -1   3   7  114.29    8.40
  -1   3   7  116.09    6.90
   0  -3  -7   40.40    3.90
   0   3   7   41.70    3.10
   0   3   7   36.70    4.10
   0   3   7   40.70    3.80
  -1  -3  -7 6690.93  353.86
  -1  -3  -7 6780.02  353.26
   1   3   7 5757.52  353.76
   1   3   7 6036.80  353.76
  -2  -3  -7 1227.28   65.29
  -2  -3  -7 1162.68   65.79
   2   3   7 1097.09   65.39
   2   3   7 1116.29   65.59
  -3  -3  -7 2386.06  124.49
   3   3   7 2106.29  124.49
   3   3   7 2169.88  125.09
   3   3   7 2168.38  124.29
  -4  -3  -7    1.70    2.00
   4   3   7    3.90    1.80
   4   3   7    2.90    2.90
  -5  -3  -7  140.39   10.70
  -5  -3  -7  129.59    9.20
   5   3   7  124.99    9.00
   5   3   7  116.89    9.90
  -6  -3  -7  233.58   15.30
   6   3   7  234.48   15.10
   6   3   7  244.18   16.40
  -7  -3  -7  365.06   24.00
   7   3   7  400.36   24.00
   7   3   7  404.06   25.30
  -8  -3  -7   11.40    3.80
   8   3   7   11.40    5.20
   8   3   7   11.00    3.80
  -9  -3  -7  552.54   33.40
   9   3   7  517.35   34.70
   9   3   7  545.25   33.00
   9  -4  -7  116.29   28.40
  -9   4   7  202.78   14.30
   8  -4  -7  155.38   12.50
   8  -4  -7  144.49   23.00
  -8   4   7  150.88   11.80
   7  -4  -7   21.50   13.40
   7  -4  -7   17.70    4.40
  -7   4   7   20.60    4.30
   6  -4  -7   28.80   13.30
   6  -4  -7   32.90    4.80
  -6   4   7   43.40    6.20
   5  -4  -7  157.78   19.80
   5  -4  -7  148.69   11.00
  -5   4   7  172.58   12.20
   4  -4  -7  406.26   25.40
  -4   4   7  437.56   26.30
   3  -4  -7 3289.97  176.78
  -3   4   7 3013.60  168.48
  -3   4   7 2767.82  170.48
  -2   4   7  164.18   11.60
  -2   4   7  161.48   10.80
   1  -4  -7  681.73   41.70
  -1   4   7  747.73   41.80
  -1   4   7  722.03   42.20
   0  -4  -7   16.70    2.70
   0  -4  -7   22.50    2.70
   0   4   7   17.40    2.80
   0   4   7   18.50    3.50
  -1  -4  -7   82.09    6.40
  -1  -4  -7   94.09    5.80
   1   4   7   71.99    6.50
   1   4   7   72.99    6.10
  -2  -4  -7   33.90    3.70
  -2  -4  -7   32.30    4.20
   2   4   7   28.90    3.50
   2   4   7   26.50    3.90
  -3  -4  -7  440.16   24.70
  -3  -4  -7  428.66   25.40
   3   4   7  409.66   24.60
   3   4   7  396.46   25.00
  -4  -4  -7  121.69    8.20
  -4  -4  -7   95.09    8.30
   4   4   7  115.19    8.20
   4   4   7  115.19    9.20
   4   4   7  112.29    7.50
  -5  -4  -7 1013.20   56.49
  -5  -4  -7  945.51   55.59
   5   4   7  918.01   55.79
   5   4   7  992.90   56.79
  -6  -4  -7  378.76   23.90
   6   4   7  394.86   24.30
   6   4   7  409.96   25.70
  -7  -4  -7 1145.39   66.39
   7   4   7 1141.99   66.89
   7   4   7 1176.28   67.89
  -8  -4  -7   16.70    3.60
   8   4   7   19.40    4.80
  -9  -4  -7   14.90    4.10
   9   4   7   18.50    5.70
   9   4   7    6.10    6.30
   8  -5  -7  151.08   27.70
   8  -5  -7  167.18   13.40
  -8   5   7  148.99   12.00
   7  -5  -7  235.18   16.40
   7  -5  -7  209.68   26.90
  -7   5   7  240.08   16.20
   6  -5  -7   15.60    4.20
   6  -5  -7   21.40   13.00
  -6   5   7   16.00    4.00
   5  -5  -7   50.49   13.70
   5  -5  -7   37.90    5.10
  -5   5   7   44.50    5.80
   4  -5  -7    1.50    2.80
  -4   5   7    1.30    3.10
   3  -5  -7   33.90    4.70
   3  -5  -7   42.70   10.90
  -3   5   7   38.60    5.40
   2  -5  -7   12.20    3.40
  -2   5   7   13.60    3.60
  -2   5   7   11.70    2.50
   1  -5  -7   19.60    3.40
  -1   5   7   19.40    3.10
  -1   5   7   30.70    4.70
   0  -5  -7   10.50    3.10
   0  -5  -7   15.60    1.80
   0   5   7    8.70    3.50
   0   5   7    9.80    2.50
  -1  -5  -7  448.16   24.70
  -1  -5  -7  433.76   25.90
   1   5   7  409.36   25.60
   1   5   7  416.86   25.90
  -2  -5  -7  293.07   17.50
  -2  -5  -7  290.67   18.60
   2   5   7  282.97   18.20
   2   5   7  302.57   18.30
  -3  -5  -7   78.69    7.20
  -3  -5  -7   79.89    6.50
   3   5   7   81.69    6.70
   3   5   7   94.39    6.90
  -4  -5  -7    2.80    2.30
  -4  -5  -7   -0.10    2.80
   4   5   7    0.20    2.00
   4   5   7    2.70    2.10
  -5  -5  -7   45.10    4.70
  -5  -5  -7   34.40    5.50
   5   5   7   44.00    5.20
  -6  -5  -7   26.20    3.90
  -6  -5  -7   24.70    4.70
   6   5   7   28.10    4.60
  -7  -5  -7   26.50    4.40
   7   5   7   25.70    4.90
  -8  -5  -7   14.60    4.00
   8   5   7    4.60    6.70
   8   5   7    6.20    4.60
   7  -6  -7   32.70   27.00
   7  -6  -7    9.50    5.40
  -7   6   7   15.20    4.70
   6  -6  -7   10.60   14.30
   5  -6  -7   -3.30    3.60
   5  -6  -7    8.90   10.90
  -5   6   7    2.80    3.50
   4  -6  -7    0.10   11.50
   4  -6  -7    7.20    3.70
  -4   6   7    3.10    3.20
   3  -6  -7   95.39    8.90
   3  -6  -7   97.69   15.40
  -3   6   7  100.99    8.00
  -3   6   7  117.29    9.70
   2  -6  -7   10.40    3.60
  -2   6   7   11.50    2.90
  -2   6   7   15.30    4.40
   1  -6  -7  156.98   11.20
  -1   6   7  150.88   11.60
  -1   6   7  137.59   10.50
   0  -6  -7   61.19    6.40
   0   6   7   65.09    6.10
   0   6   7   68.99    7.50
  -1  -6  -7    9.20    3.80
   1   6   7    9.90    3.80
   1   6   7   10.20    2.80
  -2  -6  -7    2.80    3.30
   2   6   7   -2.50    3.20
   2   6   7    1.50    2.30
  -3  -6  -7   41.30    5.80
  -3  -6  -7   40.70    4.50
   3   6   7   44.20    5.10
   3   6   7   44.90    5.80
  -4  -6  -7   39.80    4.30
  -4  -6  -7   23.40    4.80
   4   6   7   28.10    4.60
  -5  -6  -7  134.39    9.40
  -5  -6  -7  134.59   11.00
   5   6   7  132.49   10.50
  -6  -6  -7   18.10    3.40
  -6  -6  -7    8.20    4.20
   6   6   7   14.60    4.30
  -7  -6  -7    8.90    3.60
  -7  -6  -7   23.50    5.50
   7   6   7   13.80    4.80
   6  -7  -7   19.30    5.60
   6  -7  -7    5.00   14.10
  -6   7   7   14.90    4.90
   5  -7  -7  203.78   15.70
   5  -7  -7  160.18   34.30
  -5   7   7  230.38   16.00
   4  -7  -7   63.19    8.40
   4  -7  -7   69.89   15.10
  -4   7   7   90.99    9.20
   3  -7  -7    5.20    4.10
  -3   7   7    2.50    4.10
  -3   7   7    1.70    3.10
   2  -7  -7   35.60    5.70
  -2   7   7   28.00    4.30
  -2   7   7   34.40    5.60
   1  -7  -7   62.59    8.60
  -1   7   7   62.99    6.70
  -1   7   7   80.99    8.70
   0  -7  -7    8.80    4.70
   0   7   7   12.20    4.70
   0   7   7    4.30    3.10
  -1  -7  -7 1212.68   68.09
   1   7   7 1194.78   67.59
   1   7   7 1097.99   67.69
  -2  -7  -7   50.19    6.70
   2   7   7   51.59    6.50
   2   7   7   49.30    6.20
  -3  -7  -7  401.36   25.40
   3   7   7  386.36   24.80
  -4  -7  -7    0.30    4.90
   4   7   7    2.10    3.60
  -5  -7  -7    4.50    4.70
   5   7   7    3.50    4.20
   3  -8  -7 1774.92  101.09
  -3   8   7 1732.63  100.29
   2  -8  -7   48.50    7.10
  -2   8   7   38.70    6.20
  -2   8   7   70.79    8.90
   1  -8  -7  285.47   22.80
  -1   8   7  377.36   22.30
  -1   8   7  306.77   20.70
   0  -8  -7   23.90    6.30
   0   8   7   21.60    5.70
   0   8   7   16.30    4.50
  -1  -8  -7   27.50    6.20
   1   8   7   14.70    3.90
  -2  -8  -7   13.60    5.60
   2   8   7    3.80    3.40
  -3  -8  -7  151.28   13.30
   3   8   7  158.98   12.40
   1   8  -8   15.80    8.40
  -1  -8   8   20.90    4.00
   0   8  -8   -0.50    7.80
   0  -8   8   -0.30    5.30
  -1   8  -8   21.70    7.80
   1  -8   8   31.40    7.10
   5   7  -8    4.50   10.40
  -5  -7   8    3.70    3.90
   4   7  -8  137.69   13.60
   4   7  -8  153.28   18.10
  -4  -7   8  120.49   10.20
   3   7  -8  102.19   11.00
   3   7  -8   88.79   12.60
  -3  -7   8   92.89    7.80
   2   7  -8   81.29    8.60
   2   7  -8   54.29   10.30
  -2  -7   8   61.19    6.60
   1   7  -8   41.60    9.60
   1   7  -8   30.50    5.10
  -1  -7   8   25.10    5.10
  -1  -7   8   27.80    4.10
   0   7  -8 1233.88   75.29
   0  -7   8 1229.88   71.49
   0  -7   8 1292.67   72.49
  -1   7  -8  383.26   27.10
   1  -7   8  370.16   22.60
   1  -7   8  377.06   24.10
   2  -7   8  226.28   17.00
   2  -7   8  232.38   14.60
  -3   7  -8   -4.40    6.10
   3  -7   8    0.60    2.30
   3  -7   8   -5.10    5.20
  -4   7  -8   13.40    6.40
   4  -7   8   21.40    6.40
   4  -7   8   10.50    3.00
   6   6  -8  167.18   22.70
   6   6  -8  205.58   25.00
  -6  -6   8  216.38   14.00
   5   6  -8  225.18   23.70
   5   6  -8  281.47   21.10
  -5  -6   8  268.47   17.40
   4   6  -8 2062.99  115.99
   4   6  -8 1889.61  117.19
  -4  -6   8 2014.70  112.99
   3   6  -8    3.80    8.10
   3   6  -8    9.70    5.60
  -3  -6   8    7.20    2.70
   2   6  -8  426.56   25.30
   2   6  -8  370.06   28.10
  -2  -6   8  353.56   23.10
   1   6  -8    6.20    3.70
   1   6  -8    4.10    7.50
  -1  -6   8    6.80    3.50
  -1  -6   8    2.80    2.40
   0   6  -8   -7.30    6.60
   0   6  -8    1.80    3.20
   0  -6   8    0.60    2.20
   0  -6   8    1.60    3.60
  -1   6  -8   16.90    7.00
   1  -6   8   23.00    4.70
   1  -6   8   21.50    3.10
  -2   6  -8  438.26   29.50
   2  -6   8  435.96   25.70
   2  -6   8  432.96   27.50
  -3   6  -8   31.00    6.40
   3  -6   8   29.90    5.70
   3  -6   8   22.40    3.20
  -4   6  -8 1353.76   78.49
   4  -6   8 1292.37   75.49
   4  -6   8 1346.57   77.59
  -5   6  -8  617.54   39.40
   5  -6   8  641.44   38.60
   5  -6   8  610.74   36.20
  -6   6  -8 1101.49   63.29
   6  -6   8 1070.69   64.69
   6  -6   8 1021.10   60.79
   8   5  -8  797.52   53.99
  -8  -5   8  835.22   48.10
   7   5  -8    6.00    8.70
   7   5  -8    8.10   12.30
  -7  -5   8    9.60    3.50
   6   5  -8  530.15   38.60
   6   5  -8  512.85   36.80
  -6  -5   8  559.44   32.10
   5   5  -8  137.89   15.60
   5   5  -8  130.99   16.90
  -5  -5   8  147.49   10.30
   4   5  -8   83.49   13.60
   4   5  -8  109.99   12.30
  -4  -5   8   96.59    7.60
   3   5  -8  123.89   12.80
   3   5  -8  130.89   15.10
  -3  -5   8  143.69    9.50
   2   5  -8  514.75   36.60
   2   5  -8  573.94   34.20
  -2  -5   8  540.25   31.40
  -2  -5   8  521.75   31.60
   1   5  -8    9.20    4.30
   1   5  -8   -1.10    6.10
  -1  -5   8    1.30    2.10
  -1  -5   8    5.10    3.10
   0   5  -8 3074.89  186.18
   0   5  -8 3601.04  183.38
   0  -5   8 3258.57  182.48
   0  -5   8 3045.40  182.68
  -1   5  -8  253.27   20.70
  -1   5  -8  290.87   16.60
   1  -5   8  264.47   16.40
   1  -5   8  263.37   17.40
  -2   5  -8  492.85   33.50
   2  -5   8  541.85   31.40
   2  -5   8  513.85   30.20
  -3   5  -8   18.40    5.90
   3  -5   8   15.30    2.50
   3  -5   8   15.50    4.40
  -4   5  -8    3.90    4.70
   4  -5   8    8.20    2.20
   4  -5   8    6.10    4.40
  -5   5  -8   21.20    5.40
   5  -5   8   21.80    3.00
   5  -5   8   24.70    5.80
  -6   5  -8  288.27   20.20
   6  -5   8  276.97   17.70
   6  -5   8  304.87   20.40
  -7   5  -8   52.19    7.50
   7  -5   8   48.40    5.90
   7  -5   8   50.69    9.70
   8   4  -8   29.30   11.70
   8   4  -8   34.00   14.00
  -8  -4   8   32.40    5.00
   7   4  -8   57.29   11.70
   7   4  -8   48.60   13.60
  -7  -4   8   49.00    5.50
   6   4  -8  137.79   19.40
   6   4  -8  128.79   16.70
  -6  -4   8  144.99   10.00
   5   4  -8   80.39   13.20
   5   4  -8   88.19   12.90
  -5  -4   8   80.49    6.80
   4   4  -8 1166.48   72.39
   4   4  -8 1150.78   71.49
  -4  -4   8 1183.58   66.79
   3   4  -8   14.20    6.80
   3   4  -8   15.10    8.40
  -3  -4   8   10.50    2.40
   2   4  -8  417.66   30.40
   2   4  -8  453.65   29.00
  -2  -4   8  419.16   25.40
  -2  -4   8  427.46   24.90
   1   4  -8  133.29   11.30
   1   4  -8  117.79   13.40
  -1  -4   8  112.89    8.00
  -1  -4   8  115.29    8.20
   0   4  -8   63.19    7.00
   0   4  -8   35.50    8.30
   0  -4   8   52.59    5.30
   0  -4   8   40.30    4.30
  -1   4  -8    2.10    2.60
  -1   4  -8    2.80    5.10
   1  -4   8    2.40    1.50
   1  -4   8    2.40    2.90
  -2   4  -8  323.77   24.80
  -2   4  -8  369.16   20.60
   2  -4   8  355.76   21.00
   2  -4   8  359.26   22.00
  -3   4  -8   55.19    8.30
   3  -4   8   52.49    4.60
   3  -4   8   56.89    6.80
  -4   4  -8  780.72   48.30
   4  -4   8  797.22   45.70
   4  -4   8  809.32   47.10
  -5   4  -8   53.79    8.10
   5  -4   8   71.19    8.40
   5  -4   8   64.49    5.40
  -6   4  -8  459.65   29.70
   6  -4   8  495.05   30.10
   6  -4   8  458.75   27.70
  -7   4  -8    4.00    4.50
  -7   4  -8    3.00    3.10
   7  -4   8    8.40    5.00
   7  -4   8    3.00    2.50
  -8   4  -8   14.00    4.00
  -8   4  -8    9.10    4.60
   8  -4   8    0.80    6.00
   9   3  -8   -2.20   15.10
   9   3  -8   18.30   12.40
  -9  -3   8    4.50    3.30
  -9  -3   8    5.80    3.40
   8   3  -8   41.10   12.50
   8   3  -8   22.40   13.80
  -8  -3   8   17.90    3.50
  -8  -3   8    9.60    3.30
   7   3  -8  -14.90    8.40
   7   3  -8    3.10   11.70
  -7  -3   8    1.90    2.60
  -7  -3   8    1.80    2.40
   6   3  -8    7.50    8.80
   6   3  -8   15.40   10.10
  -6  -3   8   11.90    2.80
   5   3  -8   68.79   12.20
   5   3  -8   70.79   13.00
  -5  -3   8   79.39    6.20
   4   3  -8    9.90    8.00
   4   3  -8   22.00    9.20
  -4  -3   8   19.10    3.00
   3   3  -8    0.10    6.60
   3   3  -8  -11.30    5.70
  -3  -3   8    1.80    2.00
   2   3  -8   -5.50   10.70
   2   3  -8   44.20    9.20
  -2  -3   8   11.70    1.60
  -2  -3   8    9.40    2.30
   1   3  -8    8.00    6.80
   1   3  -8   11.50    5.70
  -1  -3   8   10.60    2.20
  -1  -3   8   12.70    2.00
   0   3  -8   39.00    8.30
   0   3  -8   43.10    7.00
   0  -3   8   49.99    4.50
  -1   3  -8   54.89    7.00
  -1   3  -8   41.70    7.80
   1  -3   8   41.70    4.70
   1  -3   8   42.90    3.80
  -2   3  -8  123.79    8.30
  -2   3  -8  116.99   12.00
   2  -3   8   99.29    8.10
   2  -3   8   97.99    7.20
  -3   3  -8    1.10    4.70
   3  -3   8    2.90    1.50
   3  -3   8   -0.70    2.50
  -4   3  -8    6.10    4.80
   4  -3   8    3.50    3.50
   4  -3   8    4.70    1.90
  -5   3  -8    4.50    3.90
   5  -3   8   -2.30    3.60
   5  -3   8    4.70    2.00
  -6   3  -8   12.40    3.90
   6  -3   8    6.50    4.70
   6  -3   8   10.60    2.60
  -7   3  -8   16.20    4.50
  -7   3  -8   11.10    3.50
   7  -3   8   13.30    4.90
  -8   3  -8   77.29    8.10
  -8   3  -8   65.69    7.30
   8  -3   8   66.99    9.50
  -9   3  -8    3.80    4.10
  -9   3  -8    8.00    3.80
   9  -3   8    4.80    6.00
   9   2  -8   99.79   18.20
  -9  -2   8   83.29    7.20
  -9  -2   8   85.29    7.50
   8   2  -8   92.59   16.20
  -8  -2   8   90.09    7.90
  -8  -2   8  103.89    7.60
   7   2  -8   18.60   10.10
  -7  -2   8   29.40    3.90
  -7  -2   8   26.10    3.80
   6   2  -8   55.59   11.80
  -6  -2   8   57.89    5.40
  -6  -2   8   65.09    5.80
   5   2  -8  182.08   19.20
  -5  -2   8  217.68   13.50
  -5  -2   8  209.28   13.20
   4   2  -8 1055.69   67.79
  -4  -2   8 1186.28   62.59
  -4  -2   8 1016.80   61.99
   3   2  -8    2.40    6.00
  -3  -2   8    0.70    1.60
  -3  -2   8   -1.00    1.80
   2   2  -8   45.70    8.80
   2   2  -8   44.00    8.30
  -2  -2   8   43.80    4.10
   1   2  -8   11.90    2.10
   1   2  -8    7.10    6.50
   1   2  -8   17.20    6.20
  -1  -2   8   14.60    2.30
  -1  -2   8   15.00    1.70
   0   2  -8    8.80    5.80
   0   2  -8    8.30    4.80
  -1   2  -8  134.59   13.70
  -1   2  -8  145.19   12.00
   1  -2   8  118.39    8.20
   1  -2   8  131.69    8.70
  -2   2  -8  370.56   22.10
  -2   2  -8  313.27   23.90
   2  -2   8  323.87   19.90
   2  -2   8  343.37   20.50
  -3   2  -8  110.29    8.50
   3  -2   8   94.89    6.80
  -4   2  -8  409.96   26.90
   4  -2   8  415.36   25.30
   4  -2   8  411.66   24.20
  -5   2  -8  201.28   15.20
   5  -2   8  207.58   14.60
   5  -2   8  207.28   12.90
  -6   2  -8  356.66   22.80
   6  -2   8  359.06   22.90
   6  -2   8  351.36   21.40
  -7   2  -8    5.80    3.00
  -7   2  -8   -5.00    3.40
   7  -2   8   -1.20    4.70
  -8   2  -8    2.20    3.30
  -8   2  -8    3.80    3.70
   8  -2   8   -4.00    4.60
  -9   2  -8   98.99    8.90
  -9   2  -8  103.89    9.30
   9  -2   8   98.29   11.40
  10   1  -8  350.26   35.20
 -10  -1   8  326.97   21.50
 -10  -1   8  355.36   21.10
   9   1  -8  225.88   29.80
  -9  -1   8  259.17   16.90
  -9  -1   8  274.87   16.60
   8   1  -8  757.82   56.19
  -8  -1   8  823.02   48.20
  -8  -1   8  878.91   47.80
   7   1  -8   45.30   11.70
  -7  -1   8   51.39    5.20
  -7  -1   8   53.69    5.60
   6   1  -8  537.85   41.40
  -6  -1   8  597.14   34.30
  -6  -1   8  615.44   34.90
   5   1  -8   91.89   14.30
  -5  -1   8   91.59    7.00
  -5  -1   8  112.79    7.70
   4   1  -8  133.89   15.80
  -4  -1   8  139.79    9.30
  -4  -1   8  147.89    9.80
   3   1  -8  350.76   26.50
  -3  -1   8  352.06   21.20
  -3  -1   8  370.66   21.80
   2   1  -8  394.46   27.20
  -2  -1   8  380.06   22.40
  -2  -1   8  373.96   22.90
   1   1  -8   36.20    7.00
   1   1  -8   41.10    3.30
  -1  -1   8   44.50    3.50
  -1  -1   8   40.10    4.00
  -1  -1   8   38.00    2.90
   0   1  -8 4881.51  292.47
   0   1  -8 5499.15  291.47
   0  -1   8 5116.99  287.77
   0  -1   8 5062.89  287.47
  -1   1  -8  725.53   42.60
   1  -1   8  661.93   39.20
   1  -1   8  678.43   39.30
  -2   1  -8  626.94   43.90
  -2   1  -8  742.43   42.80
   2  -1   8  707.73   40.20
   2  -1   8  721.73   40.50
  -3   1  -8   54.39    7.50
  -3   1  -8   36.30    6.80
   3  -1   8   43.80    5.00
   3  -1   8   56.79    4.20
  -4   1  -8   30.10    5.00
  -4   1  -8   14.60    4.40
   4  -1   8   12.50    3.20
   4  -1   8   17.30    2.50
  -5   1  -8   67.49    7.90
  -5   1  -8   58.59    7.50
   5  -1   8   54.29    6.30
   5  -1   8   60.69    5.20
  -6   1  -8  748.53   43.40
  -6   1  -8  701.13   42.50
   6  -1   8  733.63   43.40
  -7   1  -8   80.69    7.40
  -7   1  -8   81.09    7.70
   7  -1   8   93.79    9.60
  -8   1  -8  631.24   37.50
  -8   1  -8  620.44   37.60
   8  -1   8  644.14   39.10
  -9   1  -8  186.08   13.50
  -9   1  -8  196.98   13.50
   9  -1   8  192.78   15.90
  10   0  -8  257.17   31.40
 -10   0   8  230.58   16.60
 -10   0   8  263.67   15.80
   9   0  -8  694.13   59.19
  -9   0   8  775.32   45.40
  -9   0   8  808.42   44.70
   8   0  -8  360.96   33.10
  -8   0   8  378.66   24.00
  -8   0   8  411.76   23.30
   7   0  -8  109.19   16.70
  -7   0   8  118.19    8.10
  -7   0   8  115.09    9.10
   6   0  -8  284.77   27.00
  -6   0   8  297.97   18.20
  -6   0   8  315.87   19.00
   5   0  -8  270.57   24.20
  -5   0   8  279.67   17.10
  -5   0   8  256.47   16.20
   4   0  -8 3844.12  241.38
  -4   0   8 4423.96  235.58
  -4   0   8 4317.27  236.38
   3   0  -8   84.09   13.00
  -3   0   8   90.29    6.90
   2   0  -8  606.94   35.20
  -2   0   8  605.34   36.50
  -2   0   8  666.73   35.90
   1   0  -8   -4.80    5.40
   1   0  -8    2.50    1.10
  -1   0   8    2.50    1.90
  -1   0   8    1.70    1.10
   0   0  -8   26.70    6.80
   0   0   8   23.90    2.50
   0   0   8   15.80    2.60
   0   0   8   17.30    2.20
  -1   0  -8   -2.30    4.50
   1   0   8    4.30    1.70
  -2   0  -8 1230.78   73.29
   2   0   8 1236.58   70.39
   2   0   8 1264.47   70.69
  -3   0  -8  236.08   16.70
   3   0   8  217.28   13.40
   3   0   8  217.28   14.50
  -4   0  -8 2902.11  175.18
   4   0   8 3257.87  172.78
   4   0   8 3087.99  173.48
   4   0   8 3046.10  172.48
  -5   0  -8 1724.53   95.99
   5   0   8 1692.03   94.19
   5   0   8 1597.44   95.09
   5   0   8 1646.44   93.89
  -6   0  -8 2551.64  145.79
  -6   0  -8 2693.43  146.49
   6   0   8 2445.86  146.49
   6   0   8 2625.74  144.99
  -7   0  -8   11.00    3.50
  -7   0  -8   13.80    3.30
   7   0   8   12.20    4.60
  -8   0  -8    3.10    3.10
  -8   0  -8    0.10    3.00
   8   0   8   -1.50    5.30
  -9   0  -8  211.58   15.00
   9   0   8  214.38   17.50
  10  -1  -8  296.47   34.10
 -10   1   8  316.47   21.00
 -10   1   8  341.27   19.90
   9  -1  -8  228.18   33.90
  -9   1   8  278.27   16.90
  -9   1   8  279.17   18.10
   8  -1  -8  829.62   60.69
  -8   1   8  917.21   50.19
  -8   1   8  860.21   51.29
   7  -1  -8   44.20   12.50
  -7   1   8   53.79    4.70
  -7   1   8   53.19    6.00
   6  -1  -8  530.25   42.60
  -6   1   8  602.14   34.50
  -6   1   8  636.54   35.80
   5  -1  -8   98.79    6.50
   5  -1  -8   86.79   13.70
  -5   1   8  113.59    8.50
  -5   1   8  101.29    7.00
   4  -1  -8  160.48   18.70
   4  -1  -8  148.79    9.40
  -4   1   8  168.28   10.00
  -4   1   8  160.78   11.00
   3  -1  -8  402.86   21.60
   3  -1  -8  330.47   21.70
   3  -1  -8  331.57   28.20
  -3   1   8  396.56   23.10
  -3   1   8  401.66   21.90
   2  -1  -8  379.46   28.20
   2  -1  -8  398.46   22.20
  -2   1   8  380.06   23.30
  -2   1   8  383.96   22.40
   1  -1  -8   43.70    3.30
  -1   1   8   36.00    4.00
  -1   1   8   41.00    3.30
   0  -1  -8 6037.10  294.07
   0  -1  -8 4646.54  297.77
   0   1   8 5205.18  293.87
   0   1   8 5332.67  293.97
   0   1   8 5023.00  294.77
  -1  -1  -8  608.14   40.50
   1   1   8  674.03   36.50
   1   1   8  601.44   39.10
   1   1   8  661.93   36.80
   2   1   8  732.63   41.00
   2   1   8  690.63   40.80
   2   1   8  700.63   40.70
  -3  -1  -8   40.70    8.20
   3   1   8   48.60    4.20
   3   1   8   44.70    5.00
   3   1   8   49.50    4.10
  -4  -1  -8   14.50    5.90
   4   1   8   19.70    2.60
   4   1   8   18.50    2.70
   4   1   8   12.50    3.10
  -5  -1  -8   62.69    7.80
  -5  -1  -8   54.39    5.30
   5   1   8   54.59    5.00
   5   1   8   52.39    6.50
  -6  -1  -8  788.32   43.30
  -6  -1  -8  723.23   42.80
   6   1   8  741.73   42.20
   6   1   8  666.83   43.30
  -7  -1  -8   61.99    6.40
  -7  -1  -8   72.49    6.90
   7   1   8   63.89    8.00
   7   1   8   74.69    6.50
  -8  -1  -8  608.54   36.30
   8   1   8  599.94   37.40
  -9  -1  -8  202.18   14.60
   9   1   8  194.78   16.60
   9  -2  -8   57.49   20.80
  -9   2   8   87.39    8.30
  -9   2   8   95.99    7.30
   8  -2  -8  104.29   18.80
  -8   2   8  102.09    7.60
  -8   2   8  114.49    9.70
   7  -2  -8    1.60   10.70
  -7   2   8   25.70    3.20
  -7   2   8   30.50    5.20
   6  -2  -8   62.89    6.10
   6  -2  -8   49.99   12.80
  -6   2   8   64.69    6.60
   5  -2  -8  247.48   14.90
   5  -2  -8  199.68   23.00
  -5   2   8  243.08   14.60
  -5   2   8  263.47   16.40
   4  -2  -8 1359.66   72.49
   4  -2  -8 1071.29   78.99
  -4   2   8 1298.27   73.79
  -4   2   8 1350.06   72.29
   3  -2  -8    2.30    1.80
   3  -2  -8    1.50    7.30
  -3   2   8    1.90    2.50
  -3   2   8    0.60    1.20
   2  -2  -8   44.10    3.80
   2  -2  -8   34.20    8.40
  -2   2   8   43.70    3.50
  -2   2   8   51.69    5.20
   1  -2  -8   13.40    2.10
   1  -2  -8   14.60    6.90
  -1   2   8   14.30    1.80
  -1   2   8   11.90    2.60
   0  -2  -8    0.30    6.30
   0  -2  -8    1.20    1.50
   0   2   8    1.80    1.50
   0   2   8    1.40    2.00
   0   2   8    1.60    1.10
  -1  -2  -8  134.09    8.40
   1   2   8  127.29    7.80
   1   2   8  111.29    9.30
   1   2   8  119.19    8.40
   2   2   8  350.56   19.80
   2   2   8  325.37   20.30
  -3  -2  -8   95.19    6.90
   3   2   8   97.79    7.50
   3   2   8   90.79    6.90
   3   2   8   92.59    6.40
  -4  -2  -8  402.96   23.70
  -4  -2  -8  400.76   26.70
   4   2   8  393.26   23.70
   4   2   8  389.26   24.40
  -5  -2  -8  193.98   13.30
  -5  -2  -8  230.18   15.40
   5   2   8  203.28   13.10
   5   2   8  195.28   14.20
  -6  -2  -8  344.97   21.50
  -6  -2  -8  378.36   22.10
   6   2   8  329.97   22.20
   6   2   8  336.97   21.10
  -7  -2  -8   -0.50    3.20
   7   2   8    6.00    3.00
   7   2   8   -0.50    4.20
  -8  -2  -8   10.50    4.10
   8   2   8    3.80    3.50
  -9  -2  -8   78.59    8.60
   9   2   8   99.19   11.10
   9  -3  -8   22.20   15.60
   8  -3  -8    7.80   15.70
  -8   3   8    9.20    4.20
   7  -3  -8    7.60   14.70
  -7   3   8   -0.90    3.70
   6  -3  -8    9.30   11.30
   6  -3  -8   12.20    3.50
  -6   3   8   13.70    4.10
  -6   3   8   10.20    2.10
   5  -3  -8   95.09   16.50
   5  -3  -8  111.49    7.80
  -5   3   8   99.29    8.80
  -5   3   8   96.99    6.70
   4  -3  -8   17.70    9.70
   4  -3  -8   19.80    3.10
  -4   3   8   17.00    4.10
  -4   3   8   22.40    2.40
   3  -3  -8    1.20    1.90
   3  -3  -8    2.40    8.30
  -3   3   8    2.80    1.20
  -3   3   8    0.30    2.50
   2  -3  -8   17.90    8.70
   2  -3  -8    7.40    2.20
  -2   3   8   10.30    1.50
  -2   3   8    7.30    2.80
   1  -3  -8   11.50    2.20
   1  -3  -8    2.00    6.50
  -1   3   8   10.80    1.50
  -1   3   8   10.80    3.10
  -1   3   8    9.30    2.40
   0  -3  -8   44.60    4.30
   0   3   8   35.90    4.50
   0   3   8   39.30    4.00
   0   3   8   42.30    3.30
  -1  -3  -8   45.30    4.90
   1   3   8   46.30    3.70
   1   3   8   45.60    4.80
   1   3   8   49.70    4.60
  -2  -3  -8  100.09    7.70
  -2  -3  -8  105.29    7.20
   2   3   8  105.39    7.50
   2   3   8   91.89    7.30
  -3  -3  -8    1.20    1.80
   3   3   8    2.70    2.10
   3   3   8    0.00    1.90
   3   3   8    2.70    2.60
  -4  -3  -8    6.50    2.50
  -4  -3  -8    1.20    5.90
   4   3   8    6.90    3.10
   4   3   8    6.40    2.30
  -5  -3  -8    3.60    2.50
  -5  -3  -8   -1.20    4.80
   5   3   8    5.90    3.50
   5   3   8    2.50    1.90
  -6  -3  -8    9.50    3.40
   6   3   8   10.00    4.40
   6   3   8   11.50    3.20
  -7  -3  -8   14.80    3.60
   7   3   8   19.80    5.20
   7   3   8   13.10    3.70
  -8  -3  -8   73.99    7.30
   8   3   8   73.19    8.10
  -9  -3  -8    5.50    4.30
   9   3   8    1.00    4.70
   9   3   8    4.70    6.00
   8  -4  -8   21.60   28.40
  -8   4   8   33.80    6.20
   7  -4  -8   57.59    8.00
   7  -4  -8   72.49   18.20
  -7   4   8   74.39    8.60
   6  -4  -8  160.98   23.60
   6  -4  -8  187.08   12.70
  -6   4   8  175.68   13.30
   5  -4  -8   80.99   16.60
   5  -4  -8  108.89    8.30
  -5   4   8   98.69    9.70
   4  -4  -8 1260.27   71.99
   4  -4  -8 1277.97   80.49
  -4   4   8 1250.97   73.29
   3  -4  -8    9.10    8.20
   3  -4  -8   15.20    3.00
  -3   4   8   16.60    3.80
   2  -4  -8  423.36   26.00
  -2   4   8  442.06   27.30
  -2   4   8  453.05   24.90
   1  -4  -8  135.59    7.70
   1  -4  -8  121.09    8.50
  -1   4   8  113.49    9.60
  -1   4   8  111.59    8.60
   0  -4  -8   42.50    4.70
   0  -4  -8   48.30    4.00
   0   4   8   41.40    5.50
   0   4   8   49.00    4.60
  -1  -4  -8    2.10    1.90
  -1  -4  -8    1.90    2.30
   1   4   8    2.50    2.50
   1   4   8    2.30    1.90
  -2  -4  -8  358.36   21.90
  -2  -4  -8  376.86   21.10
   2   4   8  331.67   21.50
  -3  -4  -8   51.49    5.10
  -3  -4  -8   53.49    5.90
   3   4   8   50.09    5.10
   3   4   8   50.69    5.20
  -4  -4  -8  742.83   46.20
  -4  -4  -8  839.72   45.80
   4   4   8  771.92   46.00
   4   4   8  806.82   45.30
  -5  -4  -8   59.09    6.40
   5   4   8   72.59    8.50
   5   4   8   59.09    6.30
  -6  -4  -8  462.35   28.20
   6   4   8  461.85   28.30
   6   4   8  472.65   29.60
  -7  -4  -8   -0.80    3.10
   7   4   8   -3.40    4.50
   7   4   8    3.00    3.20
  -8  -4  -8   18.10    4.50
   8   4   8    7.20    6.60
   8   4   8    4.60    4.40
   8  -5  -8  723.33   61.89
  -8   5   8  884.01   49.60
   7  -5  -8    6.70    4.80
  -7   5   8    9.30    4.30
   6  -5  -8  618.74   36.70
   6  -5  -8  572.44   48.30
  -6   5   8  628.44   37.60
   5  -5  -8  172.68   12.60
   5  -5  -8  174.08   24.90
  -5   5   8  179.18   13.50
   4  -5  -8  102.29   17.10
   4  -5  -8  108.79    8.90
  -4   5   8  113.69    9.80
   3  -5  -8  139.69   10.80
   3  -5  -8  143.69   18.90
  -3   5   8  168.78   12.30
   2  -5  -8  499.75   30.80
  -2   5   8  535.65   31.00
  -2   5   8  512.45   31.80
   1  -5  -8    6.80    3.10
  -1   5   8    4.30    3.70
  -1   5   8    2.40    1.90
   0  -5  -8 3199.68  176.98
   0   5   8 3213.88  177.08
   0   5   8 2997.60  177.28
  -1  -5  -8  319.57   17.20
  -1  -5  -8  285.27   18.20
   1   5   8  261.77   17.90
   1   5   8  275.17   18.30
  -2  -5  -8  560.04   31.10
  -2  -5  -8  536.45   32.10
   2   5   8  518.45   31.80
   2   5   8  521.65   31.80
  -3  -5  -8   21.00    3.40
  -3  -5  -8   19.10    4.30
   3   5   8   14.90    3.40
  -4  -5  -8    6.20    3.30
  -4  -5  -8    3.70    2.70
   4   5   8    9.20    3.40
  -5  -5  -8   25.50    3.80
  -5  -5  -8   18.60    4.50
   5   5   8   21.60    4.10
  -6  -5  -8  301.37   17.90
  -6  -5  -8  262.47   18.80
   6   5   8  275.67   18.40
  -7  -5  -8   42.10    7.10
  -7  -5  -8   57.39    6.60
   7   5   8   61.29    7.60
   7   5   8   54.39    8.20
   6  -6  -8  213.38   16.30
   6  -6  -8  216.08   30.80
  -6   6   8  241.88   16.60
   5  -6  -8  286.07   28.60
   5  -6  -8  267.27   18.10
  -5   6   8  261.27   22.00
   4  -6  -8 2228.68  133.29
   4  -6  -8 2017.60  124.19
  -4   6   8 2328.47  125.49
   3  -6  -8    1.30    3.90
   3  -6  -8    9.10   11.30
  -3   6   8    2.40    4.00
   2  -6  -8  352.96   23.50
  -2   6   8  365.26   23.20
  -2   6   8  410.66   24.60
   1  -6  -8    2.00    3.00
  -1   6   8    6.60    4.50
  -1   6   8    3.30    2.40
   0  -6  -8    7.60    3.50
   0   6   8   -0.20    2.50
   0   6   8    0.90    3.80
  -1  -6  -8   20.80    4.40
   1   6   8   17.50    3.50
   1   6   8   20.80    4.70
  -2  -6  -8  469.85   28.50
   2   6   8  451.35   28.00
   2   6   8  462.05   28.10
  -3  -6  -8   28.60    4.90
   3   6   8   25.30    5.60
   3   6   8   24.00    4.20
  -4  -6  -8 1230.38   75.69
  -4  -6  -8 1397.56   77.39
   4   6   8 1381.26   77.09
  -5  -6  -8  594.64   36.00
   5   6   8  642.24   37.40
  -6  -6  -8 1048.00   62.89
  -6  -6  -8 1032.80   61.39
   6   6   8 1131.89   63.09
   5  -7  -8    1.10    5.10
   5  -7  -8   18.00   15.00
  -5   7   8   10.20    5.70
   4  -7  -8  135.49   12.00
   4  -7  -8  135.09   20.70
  -4   7   8  172.28   13.40
   3  -7  -8   99.99   17.60
   3  -7  -8   72.09    9.50
  -3   7   8   92.89    8.10
  -3   7   8  118.69   10.80
   2  -7  -8   61.59    7.60
  -2   7   8   60.59    9.20
  -2   7   8   74.79    9.50
   1  -7  -8   23.80    5.40
  -1   7   8   40.50    6.40
  -1   7   8   27.20    4.70
   0  -7  -8 1225.28   70.59
   0   7   8 1239.18   70.29
   0   7   8 1175.68   70.69
  -1  -7  -8  392.56   24.50
   1   7   8  376.36   24.50
   1   7   8  374.56   24.70
  -2  -7  -8  236.08   16.30
   2   7   8  206.88   15.60
   2   7   8  233.98   16.30
  -3  -7  -8   -0.90    4.80
   3   7   8    2.30    3.30
  -4  -7  -8   10.70    5.20
   4   7   8   10.40    3.90
   1  -8  -8   25.10    6.30
  -1   8   8   25.10    4.80
  -1   8   8   43.00    7.40
   0  -8  -8    3.70    5.50
   0   8   8    2.20    3.70
   0   8   8   -1.30    5.90
  -1  -8  -8   34.50    6.70
   1   8   8   23.40    7.30
   1   8   8   27.00    4.90
   3   7  -9  212.98   16.90
   3   7  -9  161.78   20.40
  -3  -7   9  188.88   13.50
   2   7  -9   -2.40    9.40
   2   7  -9    9.00    5.30
  -2  -7   9   11.60    3.60
   0   7  -9   33.50    8.50
   0  -7   9   32.70    5.00
  -1   7  -9  120.29   14.30
   1  -7   9  117.89    9.30
   1  -7   9  115.89   11.20
  -2   7  -9   12.80    6.90
   2  -7   9    6.70    5.80
  -3   7  -9   14.40    8.10
   3  -7   9   20.70    6.60
   3  -7   9   29.50    3.70
   6   6  -9    8.60    9.20
   5   6  -9  105.19   14.50
   5   6  -9  103.79   16.70
  -5  -6   9  114.09    9.20
   4   6  -9   22.00    7.20
   4   6  -9   14.70   11.30
  -4  -6   9   20.00    5.00
   3   6  -9   37.80    7.60
   3   6  -9   37.60   10.90
  -3  -6   9   33.50    4.70
   2   6  -9   32.40    9.00
   2   6  -9   44.50    7.30
  -2  -6   9   33.30    4.60
   1   6  -9    6.50    4.50
   1   6  -9    5.00    8.50
  -1  -6   9    7.90    3.00
   0   6  -9   -3.80    7.90
   0  -6   9    1.00    2.70
   0  -6   9    0.40    4.00
  -1   6  -9   32.90    8.00
   1  -6   9   32.90    3.90
   1  -6   9   36.20    5.70
  -2   6  -9   56.39    8.80
   2  -6   9   55.09    5.10
   2  -6   9   50.69    7.10
  -3   6  -9   58.49   14.00
   3  -6   9   50.89    7.20
   3  -6   9   54.39    5.30
  -4   6  -9    9.40    7.00
   4  -6   9   14.50    5.70
   4  -6   9   17.10    3.20
  -5   6  -9   43.70    7.70
   5  -6   9   50.29    8.10
   5  -6   9   44.50    5.20
   7   5  -9  -18.90   13.70
   7   5  -9   14.30   10.40
  -7  -5   9   17.50    3.90
   6   5  -9   -4.30    8.60
   6   5  -9   -2.40   12.60
  -6  -5   9    5.10    3.20
   5   5  -9  122.89   16.70
   5   5  -9  148.49   20.70
  -5  -5   9  148.79   10.40
   4   5  -9   47.20   10.00
   4   5  -9   48.30   12.90
  -4  -5   9   71.49    6.50
   3   5  -9   67.59   10.00
   3   5  -9   84.39   13.30
  -3  -5   9   68.19    6.30
   2   5  -9   57.69   11.70
   2   5  -9   69.89    9.80
  -2  -5   9   69.19    6.40
   1   5  -9  383.16   24.30
   1   5  -9  373.06   28.90
  -1  -5   9  347.77   22.30
  -1  -5   9  377.16   22.80
   0   5  -9   56.69   10.40
   0   5  -9   88.39    8.40
   0  -5   9   74.79    6.40
  -1   5  -9   22.80    8.00
   1  -5   9   13.50    3.80
   1  -5   9   14.90    2.90
  -2   5  -9   -1.10    6.50
   2  -5   9    2.00    4.10
   2  -5   9    3.50    2.00
  -3   5  -9    7.60    6.00
   3  -5   9   15.40    4.90
   3  -5   9   15.90    2.90
  -4   5  -9   27.20    6.20
   4  -5   9   26.60    3.50
   4  -5   9   30.50    5.60
  -5   5  -9   50.29    8.00
   5  -5   9   74.29    9.50
   5  -5   9   56.59    5.60
  -6   5  -9    1.30    5.10
   6  -5   9   -1.30    6.20
   8   4  -9   71.59   14.20
   8   4  -9   64.69   16.90
  -8  -4   9   62.09    7.30
   7   4  -9  184.88   32.80
   7   4  -9  246.48   27.60
  -7  -4   9  254.77   16.10
   6   4  -9  139.49   19.60
   6   4  -9  173.48   19.90
  -6  -4   9  161.08   11.40
   5   4  -9 1107.69   72.89
   5   4  -9 1149.69   72.09
  -5  -4   9 1186.08   66.09
   4   4  -9    2.60   10.10
   4   4  -9   -3.70    6.90
  -4  -4   9   -1.90    2.20
   3   4  -9  182.48   21.10
   3   4  -9  186.18   17.70
  -3  -4   9  191.18   12.40
   2   4  -9   49.90    9.00
   2   4  -9   45.30   11.00
  -2  -4   9   45.10    4.70
   1   4  -9  281.27   24.50
   1   4  -9  282.87   25.40
  -1  -4   9  282.37   17.30
  -1  -4   9  281.27   17.00
   0   4  -9  189.08   13.40
   0   4  -9  161.98   16.40
   0  -4   9  154.78   10.90
   0  -4   9  153.58   10.60
  -1   4  -9  553.84   29.60
  -1   4  -9  472.85   33.70
   1  -4   9  455.95   28.40
   1  -4   9  458.25   28.90
  -2   4  -9   49.10    9.20
   2  -4   9   41.80    4.10
   2  -4   9   45.80    5.80
  -3   4  -9 1347.97   82.39
   3  -4   9 1394.16   78.89
   3  -4   9 1427.46   79.99
  -4   4  -9  392.56   27.40
   4  -4   9  428.56   26.10
   4  -4   9  413.06   24.40
  -5   4  -9  561.94   35.60
   5  -4   9  585.94   34.70
   5  -4   9  531.35   32.60
  -6   4  -9   27.30    5.70
   6  -4   9   26.00    3.60
   6  -4   9   27.60    6.40
  -7   4  -9    0.60    4.60
   7  -4   9   10.70    3.00
   8   3  -9   43.70   16.40
   8   3  -9   50.49   13.80
  -8  -3   9   39.10    5.10
   7   3  -9  265.87   27.10
   7   3  -9  277.27   29.50
  -7  -3   9  326.97   19.20
   6   3  -9  362.96   33.70
   6   3  -9  385.76   31.70
  -6  -3   9  422.96   24.30
   5   3  -9  610.04   41.20
   5   3  -9  540.25   42.10
  -5  -3   9  579.94   34.00
   4   3  -9  128.69   16.20
   4   3  -9  145.59   18.30
  -4  -3   9  123.09    9.10
   3   3  -9  583.04   41.20
   3   3  -9  621.74   43.60
  -3  -3   9  649.14   36.30
   2   3  -9   18.90    9.10
   2   3  -9    5.40    7.30
  -2  -3   9   -2.30    2.10
   1   3  -9 3219.68  192.88
   1   3  -9 3174.88  190.78
  -1  -3   9 3278.07  186.68
  -1  -3   9 3649.03  187.58
   0   3  -9  258.87   19.40
   0   3  -9  243.38   22.30
   0  -3   9  265.57   15.50
   0  -3   9  249.18   15.70
  -1   3  -9  621.24   43.70
  -1   3  -9  757.12   41.60
   1  -3   9  686.33   39.30
   1  -3   9  643.74   39.10
  -2   3  -9    3.30    3.70
  -2   3  -9   11.40    5.90
   2  -3   9    4.90    1.80
  -3   3  -9   32.50    8.00
   3  -3   9   38.70    5.00
  -4   3  -9   12.10    5.50
   4  -3   9   19.20    4.30
   4  -3   9   17.60    2.90
  -5   3  -9 1210.48   70.79
   5  -3   9 1244.98   69.79
   5  -3   9 1140.29   68.19
  -6   3  -9   62.19    9.00
   6  -3   9   57.79    5.60
   6  -3   9   89.09    8.40
  -7   3  -9  922.21   56.29
  -7   3  -9  972.20   57.39
   7  -3   9 1014.00   58.09
  -8   3  -9  493.75   30.90
  -8   3  -9  521.15   31.70
   8  -3   9  507.95   33.10
   9   2  -9  274.07   30.20
  -9  -2   9  238.98   16.40
  -9  -2   9  255.97   16.40
  -8  -2   9   54.49    6.30
  -8  -2   9   61.09    6.10
   7   2  -9  303.57   28.60
  -7  -2   9  323.27   19.80
  -7  -2   9  318.87   19.90
   6   2  -9   61.29   12.60
  -6  -2   9   67.29    6.10
  -6  -2   9   65.79    6.00
   5   2  -9 1910.71  121.89
  -5  -2   9 2157.68  115.69
  -5  -2   9 2024.30  115.19
   4   2  -9    8.10    7.40
  -4  -2   9   11.60    2.70
  -4  -2   9   14.60    3.10
   3   2  -9  448.06   33.40
  -3  -2   9  469.65   27.40
  -3  -2   9  468.75   27.90
   2   2  -9   37.20    9.30
   2   2  -9   23.40    9.50
  -2  -2   9   32.00    3.90
   1   2  -9  452.65   34.60
   1   2  -9  474.85   33.00
  -1  -2   9  495.25   28.60
  -1  -2   9  509.35   27.70
   0   2  -9  189.38   15.80
   0   2  -9  169.58   18.10
   0  -2   9  171.08   11.00
   0  -2   9  170.98   10.70
  -1   2  -9  874.31   57.49
  -1   2  -9  961.00   55.69
   1  -2   9  912.71   52.49
   1  -2   9  932.41   52.59
  -2   2  -9   62.19    8.80
  -2   2  -9   41.40    8.90
   2  -2   9   64.39    5.70
   2  -2   9   54.49    4.70
  -3   2  -9 2188.48  140.39
  -3   2  -9 2800.32  138.49
   3  -2   9 2294.47  137.09
   3  -2   9 2450.45  137.79
  -4   2  -9  442.96   29.40
   4  -2   9  426.36   25.80
   4  -2   9  452.15   27.00
  -5   2  -9  919.71   54.79
   5  -2   9  906.91   52.29
   5  -2   9  908.31   53.59
  -6   2  -9   17.10    4.50
   6  -2   9   14.00    5.10
   6  -2   9   16.90    3.20
  -7   2  -9   43.40    6.30
  -7   2  -9   44.90    5.60
   7  -2   9   44.60    7.50
  -8   2  -9   87.69    8.80
  -8   2  -9  102.49    9.80
  -9   2  -9  527.15   33.00
   9  -2   9  545.35   34.90
   9   1  -9  215.88   28.10
  -9  -1   9  206.18   13.40
  -9  -1   9  197.58   14.10
   8   1  -9   14.10   11.60
  -8  -1   9   24.90    4.20
  -8  -1   9   22.70    3.70
   7   1  -9  108.69   18.40
  -7  -1   9  120.69    8.90
  -7  -1   9  128.59    9.40
   6   1  -9  173.78   21.40
  -6  -1   9  190.78   13.00
  -6  -1   9  227.68   13.90
   5   1  -9  150.48   18.60
  -5  -1   9  141.09    9.70
  -5  -1   9  143.49   10.10
   4   1  -9   53.49   11.10
  -4  -1   9   59.29    5.20
  -4  -1   9   63.09    5.60
   3   1  -9  247.08   21.60
  -3  -1   9  258.97   15.50
  -3  -1   9  244.58   15.90
   2   1  -9   -4.20    6.70
  -2  -1   9   -1.10    1.40
  -2  -1   9    0.10    2.00
   1   1  -9 1520.45   82.89
   1   1  -9 1240.78   88.69
  -1  -1   9 1533.25   82.39
  -1  -1   9 1505.45   83.09
  -1  -1   9 1507.25   83.79
   0   1  -9   33.30    9.40
   0   1  -9   45.10    8.40
   0  -1   9   40.90    3.60
   0  -1   9   43.80    3.70
  -1   1  -9  251.37   22.40
  -1   1  -9  289.87   21.10
   1  -1   9  294.47   17.00
   1  -1   9  286.07   17.00
  -2   1  -9   19.10    6.20
  -2   1  -9   12.10    6.80
   2  -1   9   20.90    3.20
   2  -1   9   21.80    2.60
  -3   1  -9   64.09    9.90
  -3   1  -9   56.59    9.70
   3  -1   9   75.89    5.50
   3  -1   9   72.89    6.40
  -4   1  -9   16.10    6.00
  -4   1  -9   12.50    5.70
   4  -1   9   15.60    3.50
   4  -1   9   16.50    2.40
  -5   1  -9  579.04   36.90
   5  -1   9  575.24   35.70
   5  -1   9  618.34   34.60
  -6   1  -9   83.79    7.50
  -6   1  -9   75.39    8.90
   6  -1   9   74.89    9.30
   6  -1   9   85.29    6.70
  -7   1  -9  256.87   18.60
  -7   1  -9  292.67   18.10
   7  -1   9  287.07   19.50
  -8   1  -9   61.49    9.70
  -8   1  -9   80.79    8.20
   8  -1   9   62.69    9.00
  -9   1  -9  191.78   14.70
   9  -1   9  220.48   18.20
   9   0  -9  -24.70   12.60
  -9   0   9    8.30    3.00
  -9   0   9    3.20    3.30
   8   0  -9    1.00   12.00
  -8   0   9    3.90    2.50
  -8   0   9    0.90    3.20
   7   0  -9   16.60   12.40
  -7   0   9    1.70    2.20
  -7   0   9   -2.60    2.90
   6   0  -9   -7.60    9.20
  -6   0   9    0.20    2.90
  -6   0   9   -2.60    1.90
   5   0  -9    2.60    9.40
  -5   0   9    0.80    2.20
  -5   0   9    4.80    2.10
   4   0  -9    0.60    7.40
  -4   0   9   -0.70    2.20
  -4   0   9    2.60    2.00
   3   0  -9    2.60    6.60
  -3   0   9    1.00    2.30
  -3   0   9   -1.10    1.60
   2   0  -9    1.10    7.40
   2   0  -9   -0.20    1.30
  -2   0   9   -0.60    1.70
  -2   0   9    0.90    1.40
   1   0  -9   -9.60    6.30
   1   0  -9    0.40    1.10
  -1   0   9   -2.90    1.80
  -1   0   9    2.10    1.40
   0   0  -9   -2.60    5.70
   0   0   9   -1.40    1.50
   0   0   9   -0.10    1.90
   0   0   9   -1.20    1.30
  -1   0  -9   -3.30    6.30
  -1   0  -9   -2.50    5.30
   1   0   9    1.20    2.00
   1   0   9    2.10    1.80
   1   0   9    1.20    1.40
  -2   0  -9    2.50    7.10
  -2   0  -9    6.00    5.60
   2   0   9   -0.30    2.10
   2   0   9    1.00    1.30
  -3   0  -9   15.10    5.80
  -3   0  -9   -0.70    6.20
   3   0   9   -1.30    1.40
   3   0   9    0.50    2.10
  -4   0  -9   -5.40    5.50
  -4   0  -9   -8.00    4.60
   4   0   9   -0.50    1.80
   4   0   9   -1.40    2.80
  -5   0  -9    5.80    4.60
   5   0   9    0.90    2.10
   5   0   9    3.20    2.30
   5   0   9   -1.10    3.20
  -6   0  -9    2.30    4.10
  -6   0  -9    2.20    3.00
   6   0   9   -2.90    3.60
  -7   0  -9    3.30    3.80
  -7   0  -9   -1.80    3.40
   7   0   9   -3.60    4.50
  -8   0  -9    0.20    5.60
  -8   0  -9   -3.80    3.50
   8   0   9   -4.20    5.50
  -9   0  -9   -3.40    4.30
   9   0   9    4.30    6.20
   9  -1  -9  212.78   28.20
  -9   1   9  211.68   13.50
  -9   1   9  198.78   14.80
   8  -1  -9   16.80   13.80
  -8   1   9   22.20    4.70
  -8   1   9   20.00    3.50
   7  -1  -9  101.49   18.80
  -7   1   9  123.79   10.20
  -7   1   9  124.59    8.50
   6  -1  -9  167.98   24.10
  -6   1   9  214.38   14.50
  -6   1   9  203.48   12.80
   5  -1  -9  142.29   18.80
  -5   1   9  157.68   11.30
  -5   1   9  146.39    9.80
   4  -1  -9   45.30   11.10
  -4   1   9   60.79    6.10
  -4   1   9   65.59    5.00
   3  -1  -9  280.37   15.60
   3  -1  -9  247.68   23.40
  -3   1   9  264.47   17.20
   2  -1  -9   16.10    8.00
   2  -1  -9   -0.30    1.40
  -2   1   9    0.20    1.80
  -2   1   9    1.10    1.50
   1  -1  -9 1569.44   81.29
   1  -1  -9 1387.76   87.19
  -1   1   9 1348.67   81.59
  -1   1   9 1456.95   82.39
   0  -1  -9   54.39    4.20
   0  -1  -9   38.30    8.70
   0   1   9   39.00    4.40
   1   1   9  284.97   16.90
   1   1   9  283.87   17.30
   1   1   9  287.17   17.60
  -2  -1  -9   20.60    6.90
   2   1   9   16.00    2.90
   2   1   9   13.90    2.10
   2   1   9   12.40    3.10
  -3  -1  -9   58.79   10.30
   3   1   9   76.19    5.70
   3   1   9   65.69    5.10
   3   1   9   65.99    6.30
  -4  -1  -9   14.70    6.00
   4   1   9   12.70    2.70
   4   1   9   15.60    2.50
   4   1   9   15.60    3.60
  -5  -1  -9  582.74   35.30
  -5  -1  -9  632.74   37.60
   5   1   9  604.94   34.90
   5   1   9  575.04   35.90
  -6  -1  -9   84.39    7.60
  -6  -1  -9   81.09    9.30
   6   1   9   86.29    7.20
   6   1   9   78.99    8.40
  -7  -1  -9  284.27   18.40
  -7  -1  -9  283.67   18.20
   7   1   9  262.67   19.10
   8   1   9   56.19    8.90
  -9  -1  -9  243.48   17.00
   9   1   9  217.28   18.20
   9  -2  -9  209.48   29.40
  -9   2   9  236.08   16.50
   8  -2  -9   68.89   26.20
  -8   2   9   63.89    8.10
  -8   2   9   70.59    6.20
   7  -2  -9  274.17   32.90
  -7   2   9  348.27   22.00
  -7   2   9  347.57   20.10
   6  -2  -9   58.59   15.90
  -6   2   9   70.29    7.80
  -6   2   9   69.49    5.50
   5  -2  -9 1966.20  131.29
  -5   2   9 2364.66  124.49
   4  -2  -9   17.40   11.00
   4  -2  -9   17.70    2.80
  -4   2   9   14.60    2.30
  -4   2   9   18.50    4.00
   3  -2  -9  524.15   28.80
   3  -2  -9  452.75   36.50
  -3   2   9  505.35   30.30
  -3   2   9  492.65   28.60
   2  -2  -9   21.90    9.80
   2  -2  -9   37.00    3.70
  -2   2   9   43.00    3.50
  -2   2   9   43.00    4.90
   1  -2  -9  474.05   27.50
   1  -2  -9  473.05   34.80
  -1   2   9  476.25   28.60
  -1   2   9  476.55   27.30
   0  -2  -9  190.58   11.20
   0  -2  -9  178.68   17.30
   0   2   9  168.38   11.80
   0   2   9  170.58   10.70
  -1  -2  -9  986.40   52.99
   1   2   9  867.71   53.19
   1   2   9  917.21   53.09
   2   2   9   49.10    5.10
   2   2   9   45.40    5.40
   2   2   9   56.89    4.50
   2   2   9   58.89    5.00
   3   2   9 2278.57  130.79
   3   2   9 2374.16  130.69
   3   2   9 2349.36  130.09
   3   2   9 2246.58  130.49
  -4  -2  -9  394.96   28.90
  -4  -2  -9  423.56   25.20
   4   2   9  435.86   25.30
   4   2   9  424.16   25.90
  -5  -2  -9  869.41   54.19
  -5  -2  -9  874.21   50.99
   5   2   9  886.91   50.79
   5   2   9  884.21   51.69
  -6  -2  -9   13.20    3.70
   6   2   9   19.30    3.60
   6   2   9   16.80    4.60
  -7  -2  -9   34.40    5.00
   7   2   9   36.80    6.60
   7   2   9   43.60    5.90
   8   2   9   93.89   11.30
  -9  -2  -9  477.45   29.60
   9   2   9  463.95   31.60
   8  -3  -9   24.20   16.20
  -8   3   9   47.90    6.70
   7  -3  -9  292.07   34.60
  -7   3   9  346.57   22.00
   6  -3  -9  441.66   38.40
  -6   3   9  457.95   28.50
   5  -3  -9  768.12   41.80
   5  -3  -9  656.13   51.69
  -5   3   9  714.03   43.30
  -5   3   9  718.03   41.00
   4  -3  -9  129.29   19.60
   4  -3  -9  173.58   10.80
  -4   3   9  155.98   12.10
  -4   3   9  163.38    9.90
   3  -3  -9  734.73   49.90
   3  -3  -9  698.53   41.00
  -3   3   9  718.83   42.60
  -3   3   9  707.43   40.40
   2  -3  -9    2.30    8.40
   2  -3  -9    1.60    2.00
  -2   3   9    3.90    1.40
  -2   3   9    3.60    3.20
   1  -3  -9 3585.34  200.18
   1  -3  -9 3360.56  193.18
  -1   3   9 3444.66  192.58
  -1   3   9 3386.06  194.18
   0   3   9  260.77   15.00
   0   3   9  244.38   16.30
   0   3   9  253.37   15.90
  -1  -3  -9  674.63   38.00
   1   3   9  629.14   38.00
   1   3   9  669.63   37.20
   1   3   9  629.24   38.10
  -2  -3  -9    3.40    2.20
  -2  -3  -9   -1.40    2.40
   2   3   9    5.30    2.10
   2   3   9    0.60    2.20
  -3  -3  -9   43.70    4.80
   3   3   9   42.90    4.90
   3   3   9   44.30    5.70
   3   3   9   45.70    4.90
  -4  -3  -9   22.90    3.80
  -4  -3  -9    4.30    7.10
   4   3   9   16.80    3.30
   4   3   9   15.20    4.20
  -5  -3  -9 1128.39   66.79
  -5  -3  -9 1264.67   69.09
   5   3   9 1149.39   67.69
   5   3   9 1122.09   66.79
  -6  -3  -9   52.19    6.30
   6   3   9   71.79    8.90
   6   3   9   66.69    6.70
  -7  -3  -9  962.80   55.69
   7   3   9  946.11   56.79
   7   3   9  949.60   55.59
  -8  -3  -9  473.15   30.10
   8   3   9  496.85   29.90
   8   3   9  479.45   31.20
   8  -4  -9   77.09   20.60
  -8   4   9   58.09    8.00
   7  -4  -9  270.07   32.50
  -7   4   9  269.67   18.70
   6  -4  -9  205.68   26.60
  -6   4   9  177.18   13.90
   5  -4  -9 1332.27   89.69
   5  -4  -9 1438.46   79.59
  -5   4   9 1396.46   80.99
   4  -4  -9    3.40    2.90
   4  -4  -9  -11.00   10.70
  -4   4   9   -1.30    3.10
   3  -4  -9  208.38   22.30
   3  -4  -9  196.28   13.00
  -3   4   9  206.58   14.60
   2  -4  -9   58.39    5.30
   2  -4  -9   53.19   12.50
  -2   4   9   44.10    6.30
   1  -4  -9  276.47   17.50
   1  -4  -9  290.47   25.00
  -1   4   9  278.57   18.70
  -1   4   9  280.67   17.80
  -1   4   9  292.87   16.40
   0  -4  -9  165.18   11.20
   0  -4  -9  177.48   10.50
   0   4   9  148.09   11.80
   0   4   9  162.28   11.10
  -1  -4  -9  535.45   27.90
  -1  -4  -9  458.95   28.40
   1   4   9  449.95   28.50
   1   4   9  457.65   28.60
  -2  -4  -9   37.10    4.90
   2   4   9   35.90    5.20
   2   4   9   38.10    4.30
  -3  -4  -9 1539.05   82.39
  -3  -4  -9 1488.55   83.19
   3   4   9 1377.86   82.79
   3   4   9 1396.46   82.49
  -4  -4  -9  398.66   25.40
  -4  -4  -9  430.36   25.00
   4   4   9  406.96   25.10
  -5  -4  -9  569.24   33.20
   5   4   9  569.74   34.50
   5   4   9  536.55   33.40
  -6  -4  -9   18.30    4.50
   6   4   9   22.10    4.50
   6   4   9   29.90    6.20
  -7  -4  -9    9.70    4.00
   7   4   9    1.60    5.20
   7   4   9    7.10    4.00
   7  -5  -9    9.90   17.50
  -7   5   9    8.80    5.20
   6  -5  -9   18.20   15.10
   6  -5  -9    8.00    4.50
  -6   5   9    7.20    4.80
   5  -5  -9  185.38   24.70
   5  -5  -9  163.78   12.20
  -5   5   9  170.88   13.50
   4  -5  -9   50.39   14.30
   4  -5  -9   74.79    7.30
  -4   5   9   60.19    8.00
   3  -5  -9   69.79    7.30
   3  -5  -9   59.49   14.90
  -3   5   9   78.49    9.00
   2  -5  -9   57.59    6.70
   2  -5  -9   72.39   13.90
  -2   5   9   63.59    8.00
   1  -5  -9  339.47   21.00
  -1   5   9  324.57   21.00
  -1   5   9  353.86   22.10
   0  -5  -9   75.99    7.20
   0   5   9   75.49    6.60
   0   5   9   77.69    8.20
  -1  -5  -9   14.10    3.70
   1   5   9   14.90    3.70
   1   5   9   26.20    4.60
  -2  -5  -9   -3.60    3.00
  -2  -5  -9    4.20    2.70
   2   5   9   -2.00    3.00
   2   5   9   -0.60    2.80
  -3  -5  -9   12.60    3.50
  -3  -5  -9   14.50    4.10
   3   5   9   15.70    3.70
   3   5   9   18.10    3.60
  -4  -5  -9   33.30    4.40
  -4  -5  -9   20.00    5.10
   4   5   9   32.10    4.70
  -5  -5  -9   66.09    8.20
  -5  -5  -9   52.79    6.30
   5   5   9   70.29    7.30
  -6  -5  -9   -6.70    4.10
  -6  -5  -9    9.40    3.80
   6   5   9    0.80    3.60
  -7  -5  -9   22.10    4.50
   6  -6  -9    0.40   15.60
  -6   6   9   17.30    5.80
   5  -6  -9   98.09   10.20
   5  -6  -9   84.99   21.20
  -5   6   9  136.39   11.30
   4  -6  -9   26.40   16.70
   4  -6  -9   23.80    4.90
  -4   6   9   22.50    8.50
   3  -6  -9   37.30    5.90
   3  -6  -9   31.80   14.20
  -3   6   9   48.40    6.90
   2  -6  -9   55.49   13.60
   2  -6  -9   35.50    5.70
  -2   6   9   48.50    6.90
  -2   6   9   36.00    5.00
   1  -6  -9    9.30    3.80
  -1   6   9    9.00    3.00
  -1   6   9    5.90    3.90
   0  -6  -9    5.10    3.30
   0   6   9    1.10    4.10
   0   6   9    2.40    3.00
  -1  -6  -9   35.20    5.00
   1   6   9   45.10    5.80
   1   6   9   28.40    4.80
  -2  -6  -9   64.19    7.70
   2   6   9   50.49    6.00
   2   6   9   52.89    7.60
  -3  -6  -9   50.89    6.60
   3   6   9   52.79    6.50
   4   6   9   17.50    5.50
  -5  -6  -9   44.90    6.40
   5   6   9   48.60    6.60
   3  -7  -9  215.18   28.00
   3  -7  -9  188.58   15.60
  -3   7   9  235.78   17.10
   2  -7  -9   13.90    4.80
  -2   7   9    6.10    3.40
  -2   7   9    9.20    5.80
   1  -7  -9  719.53   44.80
  -1   7   9  776.02   45.50
   0  -7  -9   26.00    6.00
   0   7   9   23.60    4.70
   0   7   9   23.70    6.10
   1   7   9  128.29   11.80
   1   7   9  128.99   10.20
  -2  -7  -9   13.50    5.20
   2   7   9    6.90    3.80
  -3  -7  -9   21.10    5.60
   3   7   9   23.00    4.70
   0   7 -10   17.40   10.00
   4   6 -10  122.99   14.90
   4   6 -10  122.59   18.50
  -4  -6  10  138.19   10.20
   3   6 -10   32.00    7.90
   3   6 -10   16.90   13.00
  -3  -6  10   18.00    4.20
   2   6 -10  600.44   36.50
   2   6 -10  583.44   40.10
  -2  -6  10  529.55   33.90
   1   6 -10  233.68   21.90
   0   6 -10  399.26   39.60
   0  -6  10  439.06   26.40
  -1   6 -10   15.90    9.50
   1  -6  10   19.50    3.90
  -2   6 -10 1539.45   89.09
   2  -6  10 1424.76   85.19
  -3   6 -10  447.16   31.90
   3  -6  10  445.56   28.90
   3  -6  10  456.75   26.90
  -4   6 -10  300.77   23.10
   4  -6  10  284.67   18.00
   4  -6  10  279.27   21.00
   6   5 -10  633.24   50.09
   6   5 -10  662.43   47.10
  -6  -5  10  738.03   40.90
   5   5 -10   60.99   12.90
   5   5 -10   59.09   15.60
  -5  -5  10   77.39    7.50
   4   5 -10  409.36   29.90
   4   5 -10  396.26   33.60
   3   5 -10   22.20    8.10
   3   5 -10   21.80   11.70
  -3  -5  10   13.50    3.80
   2   5 -10 1661.83   92.39
   2   5 -10 1490.85   95.39
  -2  -5  10 1540.45   89.29
   1   5 -10   -2.60    5.10
   1   5 -10   24.30   10.60
  -1  -5  10    3.00    3.30
   0   5 -10  120.89   16.70
   0  -5  10  134.29    9.50
  -1   5 -10   -8.60    7.60
   1  -5  10    4.00    4.10
   1  -5  10   -0.20    2.50
  -2   5 -10  235.58   20.10
   2  -5  10  237.08   16.30
   2  -5  10  240.38   15.10
  -3   5 -10   81.69   11.60
   3  -5  10   99.29    9.70
   3  -5  10   88.79    7.20
  -4   5 -10  793.02   55.39
   4  -5  10  894.41   51.19
   4  -5  10  864.91   49.80
  -5   5 -10   57.89    8.90
   5  -5  10   59.69    6.00
   5  -5  10   71.59    9.30
   7   4 -10   14.20   11.70
   7   4 -10   11.40   15.30
  -7  -4  10    1.40    3.60
   6   4 -10  336.17   30.90
   6   4 -10  355.96   33.60
  -6  -4  10  388.16   22.80
   5   4 -10   35.40   14.50
   5   4 -10   48.90   13.10
  -5  -4  10   39.90    4.90
   4   4 -10   76.19   16.20
   4   4 -10   80.29   13.50
  -4  -4  10   80.99    7.20
   3   4 -10   78.99   15.20
   3   4 -10   63.79   11.30
  -3  -4  10   64.49    6.10
   2   4 -10  288.67   23.10
   2   4 -10  273.17   26.00
  -2  -4  10  311.47   18.60
   1   4 -10   99.39   12.30
   1   4 -10   84.59   14.80
  -1  -4  10   96.39    7.40
   0   4 -10  312.07   26.30
   0   4 -10  344.07   23.00
   0  -4  10  320.67   19.90
   0  -4  10  330.37   20.10
  -1   4 -10   60.49   10.70
   1  -4  10   55.19    5.40
  -2   4 -10  877.51   57.39
   2  -4  10  903.11   52.79
   2  -4  10  940.51   52.29
  -3   4 -10   40.80    9.30
   3  -4  10   52.29    5.10
   3  -4  10   45.50    6.30
  -4   4 -10  122.29   14.90
   4  -4  10  137.29   11.90
   4  -4  10  143.09    9.70
  -5   4 -10   15.90    6.50
   5  -4  10   10.70    2.90
   5  -4  10   12.20    5.70
   6  -4  10  153.58   13.00
   6  -4  10  123.29    9.70
   7  -4  10    9.60    6.50
   8   3 -10    5.50   14.40
   8   3 -10   12.00   18.40
  -8  -3  10   23.20    4.60
   7   3 -10   14.80   13.40
   7   3 -10   -3.50   14.90
  -7  -3  10   15.70    3.80
   6   3 -10    0.40    9.50
   6   3 -10   -7.00   13.10
  -6  -3  10    1.10    2.80
   5   3 -10  -11.50    9.80
   5   3 -10   18.30   11.50
  -5  -3  10   -0.30    2.40
   4   3 -10    1.00    9.30
   4   3 -10   25.40   13.60
  -4  -3  10   10.50    3.20
   3   3 -10  -12.20    8.50
   3   3 -10    1.20    8.10
  -3  -3  10    6.60    2.70
   2   3 -10   31.10   10.20
   2   3 -10   42.40    9.70
  -2  -3  10   49.80    5.10
   1   3 -10   14.80    9.70
   1   3 -10   15.80    7.30
  -1  -3  10   11.90    2.90
   0   3 -10   41.70    8.70
   0   3 -10   32.70   10.50
   0  -3  10   34.30    4.20
   0  -3  10   42.50    4.40
  -1   3 -10    2.20    7.60
  -1   3 -10   17.80    6.20
   1  -3  10   11.00    2.60
   1  -3  10    8.50    3.00
  -2   3 -10   41.20   10.20
   2  -3  10   38.20    4.80
   2  -3  10   38.30    4.00
  -3   3 -10   -0.10    6.20
   3  -3  10    1.10    1.90
   3  -3  10    0.80    4.00
  -4   3 -10   28.70    8.10
   4  -3  10   29.40    5.60
   4  -3  10   39.10    4.40
  -5   3 -10   18.40    7.30
   5  -3  10   33.90    4.00
   5  -3  10   33.10    6.30
  -6   3 -10   26.40    6.60
   6  -3  10   15.10    6.50
   6  -3  10   21.10    3.60
  -7   3 -10    6.50    4.00
  -7   3 -10   -0.70    4.90
   7  -3  10    8.60    3.10
   7  -3  10   -1.50    8.00
   8   2 -10  106.19   19.90
  -8  -2  10  133.29   10.50
  -8  -2  10  140.69   10.20
   7   2 -10   29.10   13.00
  -7  -2  10   19.30    3.60
  -7  -2  10   24.60    4.00
   6   2 -10  161.58   22.90
  -6  -2  10  190.08   12.90
  -6  -2  10  186.28   12.50
   5   2 -10   15.50    9.20
  -5  -2  10   14.70    3.00
  -5  -2  10   15.10    3.30
   4   2 -10   27.00   10.50
  -4  -2  10   21.20    3.40
  -4  -2  10   19.50    3.80
   3   2 -10   19.40   11.70
   3   2 -10   21.30    9.60
  -3  -2  10   21.20    3.70
  -3  -2  10   19.10    3.10
   2   2 -10  195.08   20.10
   2   2 -10  176.48   20.90
  -2  -2  10  219.68   13.30
   1   2 -10  121.39   14.70
   1   2 -10   98.09   14.80
  -1  -2  10  108.39    7.80
   0   2 -10  228.98   19.20
   0   2 -10  197.28   22.40
   0  -2  10  233.88   13.80
   0  -2  10  237.28   14.40
  -1   2 -10   33.50    8.00
  -1   2 -10   15.30    8.30
   1  -2  10   27.50    3.50
   1  -2  10   31.20    3.70
  -2   2 -10  609.54   37.30
  -2   2 -10  560.04   40.10
   2  -2  10  586.84   34.10
  -3   2 -10  194.88   19.20
   3  -2  10  224.48   14.40
   3  -2  10  215.28   13.50
  -4   2 -10   93.09   13.00
   4  -2  10  103.49    8.70
   4  -2  10   79.79    6.70
  -5   2 -10    4.20    5.70
   5  -2  10    2.30    2.40
   5  -2  10    2.40    4.30
  -6   2 -10   51.39    8.10
   6  -2  10   53.19    5.70
   6  -2  10   74.19    9.20
  -7   2 -10   -1.10    4.50
  -7   2 -10    1.40    3.80
   7  -2  10    7.60    5.70
  -8   2 -10  228.38   17.20
  -8   2 -10  236.68   16.70
   8  -2  10  252.87   19.50
   8   1 -10   89.49   19.30
  -8  -1  10  109.49    8.30
  -8  -1  10   91.59    8.80
   7   1 -10  322.07   34.40
  -7  -1  10  399.56   23.80
  -7  -1  10  380.76   23.00
   6   1 -10  686.83   52.19
  -6  -1  10  766.62   43.20
  -6  -1  10  717.23   42.20
   5   1 -10  102.59   17.90
  -5  -1  10  114.19    8.70
  -5  -1  10  131.49    9.40
   4   1 -10  534.75   42.70
  -4  -1  10  630.64   35.80
  -4  -1  10  607.14   35.00
   3   1 -10   26.80    9.70
  -3  -1  10   46.10    5.00
  -3  -1  10   31.10    3.90
   2   1 -10 2122.89  133.99
  -2  -1  10 2387.86  128.59
  -2  -1  10 2314.97  129.29
   1   1 -10   20.40    8.40
  -1  -1  10   14.90    3.00
  -1  -1  10   12.70    2.30
   0   1 -10  107.59   15.70
   0  -1  10  121.49    7.90
   0  -1  10  115.69    7.60
  -1   1 -10   25.50    7.80
  -1   1 -10   18.30    9.30
   1  -1  10   23.10    3.00
   1  -1  10   23.20    3.10
  -2   1 -10  302.57   21.90
  -2   1 -10  260.27   23.60
   2  -1  10  280.77   17.00
   2  -1  10  283.77   17.50
  -3   1 -10   86.09   12.00
  -3   1 -10   72.49   11.00
   3  -1  10   81.19    6.20
   3  -1  10   83.39    7.10
  -4   1 -10 1563.74   91.79
   4  -1  10 1538.25   88.79
   4  -1  10 1553.64   87.99
  -5   1 -10  119.99   13.00
   5  -1  10  119.99    8.70
   5  -1  10  120.59   10.40
  -6   1 -10  483.15   29.40
  -6   1 -10  488.45   31.00
   6  -1  10  479.05   30.30
   6  -1  10  477.45   28.70
  -7   1 -10  493.85   30.60
   7  -1  10  476.45   31.20
  -8   1 -10  685.63   41.30
  -8   1 -10  663.63   41.40
   8  -1  10  714.53   43.20
   8   0 -10  475.55   45.50
  -8   0  10  578.54   32.90
  -8   0  10  575.04   34.00
   7   0 -10   16.30   15.40
  -7   0  10    8.40    3.60
  -7   0  10    4.80    2.60
   6   0 -10 1081.29   75.69
  -6   0  10 1227.68   66.79
  -6   0  10 1122.19   65.59
   5   0 -10   48.10   12.50
  -5   0  10   48.70    5.10
  -5   0  10   49.80    6.00
   4   0 -10  238.98   24.60
  -4   0  10  266.87   17.40
  -4   0  10  275.97   16.40
   3   0 -10   37.80   10.40
  -3   0  10   38.80    4.70
  -3   0  10   33.40    3.80
   2   0 -10  919.41   60.89
  -2   0  10  972.60   53.89
  -2   0  10  933.71   54.79
   1   0 -10  416.96   31.30
   1   0 -10  467.15   24.60
  -1   0  10  403.76   25.00
  -1   0  10  417.96   25.90
   0   0 -10 1132.39   69.69
   0   0  10 1140.09   64.89
   0   0  10 1147.49   63.79
   0   0  10 1087.99   63.99
  -1   0 -10  101.89   14.80
   1   0  10  108.89    7.20
   1   0  10  100.89    7.30
  -2   0 -10 3012.50  168.98
  -2   0 -10 2686.93  169.78
   2   0  10 3068.09  164.58
  -3   0 -10  793.52   48.20
  -3   0 -10  702.93   49.00
   3   0  10  792.32   44.60
   3   0  10  760.42   43.90
  -4   0 -10  630.04   39.50
  -4   0 -10  610.84   39.70
   4   0  10  601.34   35.30
   4   0  10  590.14   36.00
  -5   0 -10   10.00    8.20
  -5   0 -10    8.70    5.70
   5   0  10   -1.50    3.90
   5   0  10    3.80    2.60
  -6   0 -10  219.78   17.50
  -6   0 -10  230.98   15.40
   6   0  10  227.78   16.40
  -7   0 -10    9.90    4.00
  -7   0 -10    6.00    4.90
   7   0  10   17.40    5.40
  -8   0 -10 1105.59   68.99
   8   0  10 1280.07   70.89
   8  -1 -10   80.69   20.20
  -8   1  10  102.59    8.20
   7  -1 -10  369.56   36.50
  -7   1  10  441.16   26.60
  -7   1  10  419.36   24.90
   6  -1 -10  726.03   56.39
  -6   1  10  831.22   47.10
  -6   1  10  794.02   45.50
   5  -1 -10  112.09   19.40
  -5   1  10  128.19    8.80
  -5   1  10  126.69   10.10
   4  -1 -10  528.65   44.80
  -4   1  10  656.13   37.20
  -4   1  10  635.94   35.70
   3  -1 -10   40.10   11.40
  -3   1  10   29.00    4.50
  -3   1  10   36.60    3.70
   2  -1 -10 2016.40  133.49
   2  -1 -10 2279.77  126.09
  -2   1  10 2326.77  127.79
  -2   1  10 2346.17  126.59
   1  -1 -10    3.20    8.50
   1  -1 -10   14.80    2.10
  -1   1  10   13.10    2.10
  -1   1  10   13.60    3.00
   0  -1 -10  126.09    8.00
   0  -1 -10   98.19   15.60
   0   1  10  116.79    9.00
   0   1  10  122.99    7.90
  -1  -1 -10   21.60    9.10
   1   1  10   22.70    3.60
   1   1  10   27.00    3.10
   1   1  10   22.70    3.20
  -2  -1 -10  218.68   21.40
  -2  -1 -10  252.97   23.10
   2   1  10  256.77   16.30
   2   1  10  280.27   15.80
   2   1  10  273.17   16.60
  -3  -1 -10   70.89   12.20
  -3  -1 -10   87.49   13.00
   3   1  10   82.69    6.10
   3   1  10   78.19    7.10
  -4  -1 -10 1529.15   89.59
   4   1  10 1466.95   85.49
   4   1  10 1501.35   85.19
   4   1  10 1519.15   86.09
  -5  -1 -10  112.69   13.40
  -5  -1 -10  118.39    9.10
   5   1  10  108.19    8.40
   5   1  10  117.39   10.10
  -6  -1 -10  475.95   29.60
  -6  -1 -10  513.75   31.50
   6   1  10  471.95   30.50
  -7  -1 -10  518.75   30.80
  -7  -1 -10  452.35   29.00
   7   1  10  444.06   30.10
  -8  -1 -10  644.84   39.30
   8   1  10  658.13   41.20
   8  -2 -10  110.89   23.20
  -8   2  10  144.19   12.10
   7  -2 -10   13.80   22.90
  -7   2  10   30.90    3.70
  -7   2  10   19.30    5.30
   6  -2 -10  153.38   23.90
  -6   2  10  195.68   14.70
  -6   2  10  207.78   12.50
   5  -2 -10   23.40   12.70
  -5   2  10   12.30    2.50
  -5   2  10   14.30    4.20
   4  -2 -10   12.10   13.20
  -4   2  10   25.80    4.60
  -4   2  10   26.80    3.50
   3  -2 -10   31.00    4.00
   3  -2 -10   18.70   12.40
  -3   2  10   25.90    3.30
  -3   2  10   29.90    4.70
   2  -2 -10  197.58   12.60
   2  -2 -10  201.88   22.90
  -2   2  10  219.18   14.20
   1  -2 -10  116.69    7.80
   1  -2 -10  116.89   17.20
  -1   2  10  115.29    7.60
  -1   2  10  121.19    9.00
   0  -2 -10  216.48   13.70
   0  -2 -10  208.08   20.50
   0   2  10  227.58   13.30
   0   2  10  225.88   14.70
  -1  -2 -10   22.60    3.40
  -1  -2 -10   32.00   10.00
   1   2  10   25.80    3.90
   1   2  10   29.40    3.20
   2   2  10  590.84   34.50
   2   2  10  589.14   33.70
   2   2  10  556.24   34.30
   2   2  10  597.94   34.40
  -3  -2 -10  178.08   19.60
   3   2  10  196.58   13.50
   3   2  10  211.98   12.60
   3   2  10  199.28   13.10
  -4  -2 -10   96.39    7.60
  -4  -2 -10   85.39   12.40
   4   2  10   79.09    8.40
   4   2  10   93.39    7.60
  -5  -2 -10   10.40    7.10
  -5  -2 -10    3.30    2.90
   5   2  10    0.70    2.70
   5   2  10    4.70    4.10
  -6  -2 -10   49.10    6.30
   6   2  10   44.60    6.70
   6   2  10   46.90    5.90
  -7  -2 -10    3.60    3.90
   7   2  10   -1.20    5.00
  -8  -2 -10  208.78   15.60
   8   2  10  205.08   16.60
   8  -3 -10   -5.60   19.40
  -8   3  10   19.60    5.90
   7  -3 -10   15.20   15.30
  -7   3  10    9.90    4.50
   6  -3 -10   10.20   14.60
  -6   3  10   -1.00    4.40
   5  -3 -10   -9.70   12.70
  -5   3  10   -0.90    3.60
   4  -3 -10   13.40   13.70
  -4   3  10   12.60    2.30
  -4   3  10   24.10    4.90
   3  -3 -10    1.00    2.50
   3  -3 -10   -0.60   11.10
  -3   3  10    2.20    1.70
  -3   3  10    4.10    3.40
   2  -3 -10   47.40    4.70
  -2   3  10   51.79    6.30
  -2   3  10   44.90    3.80
   1  -3 -10    4.50    8.80
  -1   3  10   13.40    3.80
  -1   3  10   16.80    2.10
   0  -3 -10   39.90   10.70
   0  -3 -10   37.80    4.50
   0   3  10   31.90    3.70
   0   3  10   38.50    5.40
  -1  -3 -10    8.50    2.80
   1   3  10    9.70    2.80
   1   3  10   10.20    2.10
   1   3  10    8.20    3.00
  -2  -3 -10   38.80    5.00
  -2  -3 -10   44.00    5.30
   2   3  10   33.40    4.90
   2   3  10   42.00    4.90
  -3  -3 -10   -1.80    2.80
  -3  -3 -10    3.20    2.50
   3   3  10    5.20    2.40
   3   3  10    6.10    2.90
   3   3  10    1.20    2.90
  -4  -3 -10   35.00    9.60
  -4  -3 -10   32.20    4.40
   4   3  10   29.20    5.20
   4   3  10   21.50    3.80
  -5  -3 -10   27.00    8.50
  -5  -3 -10   33.50    4.70
   5   3  10   34.90    5.50
   5   3  10   25.00    4.30
  -6  -3 -10   15.80    4.40
   6   3  10   25.90    5.80
   6   3  10   21.60    4.60
  -7  -3 -10    5.70    4.30
   7   3  10    8.40    4.20
   7   3  10    7.20    5.10
   7  -4 -10   16.80   19.70
   6  -4 -10  414.96   42.40
  -6   4  10  436.66   28.00
   5  -4 -10   20.50   15.20
  -5   4  10   46.90    7.00
   4  -4 -10   79.99    7.60
   4  -4 -10  103.89   18.20
  -4   4  10   80.89    8.90
   3  -4 -10   74.29   16.30
   3  -4 -10   71.39    6.70
  -3   4  10   73.49    8.20
   2  -4 -10  302.27   19.50
   2  -4 -10  318.37   29.30
  -2   4  10  334.67   21.00
   1  -4 -10   88.19    7.30
   1  -4 -10   86.89   15.00
  -1   4  10   89.49    8.60
   0  -4 -10  303.87   19.50
   0  -4 -10  361.06   19.20
   0   4  10  305.77   20.50
   0   4  10  297.07   19.80
  -1  -4 -10   55.29    6.30
   1   4  10   56.89    6.50
   1   4  10   58.39    6.00
  -2  -4 -10  918.61   54.59
  -2  -4 -10 1026.90   54.19
   2   4  10  927.31   54.59
   2   4  10  892.61   54.59
  -3  -4 -10   54.49    5.80
  -3  -4 -10   36.10    5.40
   3   4  10   50.19    5.80
   3   4  10   50.09    5.30
  -4  -4 -10  117.89   10.70
  -4  -4 -10  135.29   10.10
   4   4  10  134.59    9.60
   4   4  10  133.69   10.20
  -5  -4 -10   11.90    4.10
  -5  -4 -10    6.30    4.30
   5   4  10   10.60    3.90
   5   4  10   12.10    5.10
  -6  -4 -10  135.59   11.00
   6   4  10  134.59   13.30
   6   4  10  141.79   11.10
   7   4  10    1.00    4.40
   7   4  10    2.60    5.20
   6  -5 -10  842.02   64.49
  -6   5  10  834.32   50.49
   5  -5 -10   56.39   19.20
  -5   5  10   76.89    9.00
   4  -5 -10  434.56   28.40
  -4   5  10  511.85   30.30
   3  -5 -10   22.40    4.60
   3  -5 -10   -3.80   12.80
  -3   5  10   19.80    5.10
   2  -5 -10 1584.84   94.49
   2  -5 -10 1426.26   84.39
  -2   5  10 1447.96   85.69
   1  -5 -10   17.40   11.20
   1  -5 -10    9.90    3.80
  -1   5  10    4.50    4.00
  -1   5  10    9.10    3.30
   0  -5 -10  131.39   10.00
   0   5  10  130.69    9.70
   0   5  10  125.89   10.90
  -1  -5 -10   -0.40    3.20
   1   5  10    3.70    2.70
   1   5  10    3.60    3.70
  -2  -5 -10  232.98   15.70
   2   5  10  233.88   15.60
   2   5  10  223.78   15.30
  -3  -5 -10   85.19    8.50
  -3  -5 -10   88.19    7.80
   3   5  10   70.49    7.70
   3   5  10   82.69    7.80
  -4  -5 -10  956.10   52.69
  -4  -5 -10  871.81   53.49
   4   5  10  889.71   53.09
  -5  -5 -10   58.39    7.90
  -5  -5 -10   71.19    7.80
   5   5  10   62.39    7.40
   4  -6 -10  130.59   11.30
   4  -6 -10  153.18   24.40
  -4   6  10  143.79   13.20
   3  -6 -10    6.30   14.30
   3  -6 -10   22.70    5.30
  -3   6  10   32.00    8.80
   2  -6 -10  540.25   33.70
   2  -6 -10  596.94   43.60
  -2   6  10  545.85   34.80
   1  -6 -10  209.58   15.10
  -1   6  10  221.98   14.90
  -1   6  10  212.38   16.30
   0  -6 -10  400.76   25.70
   0   6  10  421.86   26.50
  -1  -6 -10   16.00    4.60
   1   6  10   23.20    5.10
   1   6  10   24.00    5.80
  -2  -6 -10 1559.34   85.99
   2   6  10 1477.15   85.49
   2   6  10 1433.36   85.79
   3   6  10  440.26   27.40
  -4  -6 -10  287.47   19.90
   4   6  10  284.47   19.30
   0  -7 -10   13.60    5.60
   0   7  10    8.60    3.60
   0   7  10    4.20    6.00
   2   6 -11    8.50   12.70
  -2  -6  11   13.10    4.20
   1   6 -11   70.69   14.80
  -1  -6  11   66.29    7.40
   0   6 -11   22.40   11.50
   0  -6  11   30.20    4.40
  -1   6 -11   40.70   11.90
   1  -6  11   42.40    5.10
  -2   6 -11   -2.30    8.60
   2  -6  11    4.90    3.50
   5   5 -11   20.90   16.20
   4   5 -11   31.30   11.60
  -4  -5  11   37.30    5.30
   3   5 -11  126.39   15.60
   3   5 -11   91.39   18.60
  -3  -5  11   98.59    8.90
   2   5 -11   -6.70   10.40
   2   5 -11   -1.10    6.60
  -2  -5  11    0.00    3.50
   1   5 -11   20.70   10.60
   0   5 -11    4.20   15.40
   0  -5  11    1.40    3.30
  -1   5 -11   42.30   12.80
  -2   5 -11  104.29   16.00
   2  -5  11  122.69    9.00
  -3   5 -11  106.79   14.80
   3  -5  11  105.69   11.20
   3  -5  11  117.99    8.80
  -4   5 -11    1.90    7.00
   4  -5  11   -6.90    5.30
   4  -5  11    0.80    2.90
   6   4 -11   36.80   27.40
   6   4 -11   47.30   14.60
  -6  -4  11   37.70    5.50
   5   4 -11   86.99   16.60
   5   4 -11   63.99   18.40
  -5  -4  11   88.69    7.70
   4   4 -11   25.70   11.70
   4   4 -11    7.70   13.90
   3   4 -11  727.43   48.90
   3   4 -11  736.83   51.49
  -3  -4  11  734.03   43.00
   2   4 -11  332.77   31.00
   2   4 -11  328.37   26.30
  -2  -4  11  334.57   20.70
   1   4 -11  641.74   41.10
   1   4 -11  599.14   44.90
  -1  -4  11  628.24   36.90
   0   4 -11   12.20   10.30
   0  -4  11    4.40    2.40
  -1   4 -11 1121.29   71.19
   1  -4  11 1146.79   65.19
  -2   4 -11  150.68   19.40
   2  -4  11  159.98   11.20
   2  -4  11  170.98   12.10
  -3   4 -11   41.30    9.90
   3  -4  11   34.60    5.20
   3  -4  11   24.80    3.90
   4  -4  11    5.20    2.60
   4  -4  11    5.90    4.90
  -5   4 -11  189.08   17.50
   5  -4  11  170.88   12.00
   5  -4  11  186.78   15.10
   7   3 -11 1198.78   80.39
  -7  -3  11 1270.87   71.39
   6   3 -11   69.79   19.40
   6   3 -11   72.69   19.50
  -6  -3  11   84.99    7.80
   5   3 -11  294.57   28.30
   5   3 -11  293.17   32.90
  -5  -3  11  323.57   19.70
   4   3 -11    1.00   13.10
   4   3 -11   -5.50   10.20
  -4  -3  11    0.60    2.90
   3   3 -11 1005.90   67.09
   3   3 -11 1034.60   70.39
  -3  -3  11 1111.59   60.89
   2   3 -11   10.20    9.60
   2   3 -11   26.40   13.90
  -2  -3  11   20.70    3.70
   1   3 -11   79.29   12.40
   1   3 -11   66.99   13.10
  -1  -3  11   81.79    6.90
   0   3 -11   12.90   10.10
   0   3 -11   16.40    7.80
   0  -3  11   13.80    3.10
  -1   3 -11  606.44   39.80
  -1   3 -11  572.84   40.80
   1  -3  11  552.94   33.90
   1  -3  11  599.04   34.20
  -2   3 -11  209.58   20.70
   2  -3  11  213.38   13.40
   2  -3  11  203.08   14.00
  -3   3 -11 1553.04   94.89
   3  -3  11 1615.44   89.49
   3  -3  11 1552.54   90.09
  -4   3 -11    8.20    7.30
   4  -3  11    8.20    4.60
   4  -3  11    6.30    2.70
  -5   3 -11  864.81   52.79
   5  -3  11  846.52   50.09
   5  -3  11  808.52   49.50
  -6   3 -11  526.85   36.30
   6  -3  11  553.54   33.90
   6  -3  11  514.55   31.50
   7   2 -11  350.16   32.50
  -7  -2  11  331.27   21.30
  -7  -2  11  351.96   22.30
   6   2 -11   48.00   13.90
  -6  -2  11   49.10    6.00
  -6  -2  11   42.30    5.30
   5   2 -11  106.89   17.80
  -5  -2  11  123.99    9.30
  -5  -2  11  118.59    9.90
   4   2 -11   87.79   16.50
   4   2 -11   67.99   15.70
  -4  -2  11   91.99    7.90
  -4  -2  11  100.29    7.90
   3   2 -11 1078.29   70.99
   3   2 -11 1049.20   73.19
  -3  -2  11 1194.88   64.19
   2   2 -11  422.26   33.00
   2   2 -11  393.26   35.60
  -2  -2  11  454.35   26.00
   1   2 -11 1044.80   66.19
   1   2 -11 1008.30   68.29
  -1  -2  11 1100.79   60.59
   0   2 -11   52.19   11.60
   0   2 -11   64.79   11.20
   0  -2  11   52.69    5.30
  -1   2 -11 1383.26   87.89
  -1   2 -11 1419.56   84.89
   1  -2  11 1414.36   80.69
   1  -2  11 1473.35   81.09
  -2   2 -11   96.89   15.40
  -2   2 -11  118.69   14.10
   2  -2  11  103.09    8.20
   2  -2  11  105.09    7.80
  -3   2 -11   35.30    9.40
   3  -2  11   44.70    4.70
   3  -2  11   41.80    5.40
  -4   2 -11   28.10    8.60
   4  -2  11    6.20    2.40
   4  -2  11    8.70    4.30
  -5   2 -11  273.17   21.80
   5  -2  11  277.37   18.90
   5  -2  11  258.77   16.80
  -6   2 -11   18.40    7.20
   6  -2  11   24.70    4.10
   6  -2  11   22.60    6.60
  -7   2 -11  965.30   58.29
  -7   2 -11  993.60   59.69
   7  -2  11 1027.70   61.19
   8   1 -11  180.78   26.40
   7   1 -11  329.87   36.40
  -7  -1  11  392.76   24.50
  -7  -1  11  390.96   23.30
   6   1 -11   59.79   15.90
  -6  -1  11   68.19    7.50
  -6  -1  11   59.09    6.20
   5   1 -11  203.78   26.00
  -5  -1  11  206.28   14.00
  -5  -1  11  226.58   14.80
   4   1 -11   -3.00   10.30
  -4  -1  11    1.80    2.80
  -4  -1  11    6.30    3.20
   3   1 -11  448.76   36.60
  -3  -1  11  477.15   28.10
  -3  -1  11  485.55   29.00
   2   1 -11   45.90   11.90
  -2  -1  11   37.50    5.10
  -2  -1  11   48.80    4.90
   1   1 -11   15.80   11.90
   1   1 -11    5.20    8.40
  -1  -1  11   13.20    2.60
   0   1 -11   14.10    9.50
   0   1 -11   17.00    8.30
   0  -1  11   11.50    2.60
   0  -1  11    8.50    2.10
  -1   1 -11  334.17   25.90
  -1   1 -11  289.37   28.50
   1  -1  11  324.07   19.40
   1  -1  11  333.47   19.60
  -2   1 -11   43.90    9.40
  -2   1 -11   26.50   10.10
   2  -1  11   31.50    4.30
   2  -1  11   30.50    3.70
  -3   1 -11  620.74   38.40
  -3   1 -11  529.85   39.90
   3  -1  11  624.54   34.50
   3  -1  11  539.25   33.80
  -4   1 -11   52.29   10.50
   4  -1  11   35.10    5.50
   4  -1  11   39.70    4.70
  -5   1 -11  213.08   18.60
   5  -1  11  194.98   14.40
   5  -1  11  191.58   13.00
  -6   1 -11  118.29   13.20
   6  -1  11  105.69   11.20
  -7   1 -11   74.79   10.50
  -7   1 -11   53.99    7.20
   8   0 -11    0.10   17.20
  -8   0  11    3.20    3.00
  -8   0  11    3.60    3.90
   7   0 -11   -1.00   13.10
  -7   0  11    0.20    5.90
  -7   0  11    0.70    2.90
   6   0 -11  -21.30   11.30
  -6   0  11   -2.20    2.60
  -6   0  11    2.80    3.40
   5   0 -11  -12.70   11.80
  -5   0  11    3.50    3.00
  -5   0  11   -0.30    2.50
   4   0 -11   -2.10    9.70
  -4   0  11   -6.50    3.10
  -4   0  11   -0.30    2.40
   3   0 -11    2.50   10.20
  -3   0  11    4.80    3.00
   2   0 -11    8.60   10.50
  -2   0  11   -1.10    1.90
  -2   0  11    3.20    2.60
   1   0 -11    3.90    9.30
  -1   0  11    0.00    1.70
  -1   0  11    8.10    2.70
   0   0 -11   -9.00    7.90
   0   0 -11    1.90    1.70
   0   0  11    2.50    1.90
   0   0  11   -0.60    2.60
   0   0  11    0.30    1.90
  -1   0 -11   13.10    8.60
  -1   0 -11    3.10   10.20
   1   0  11    3.70    2.00
   1   0  11    0.10    2.30
  -2   0 -11    4.20    8.20
  -2   0 -11    1.90    9.00
   2   0  11   -0.40    2.50
   2   0  11    5.50    2.10
  -3   0 -11    1.70    9.30
   3   0  11   -1.30    2.80
   3   0  11    3.50    1.90
  -4   0 -11    8.90    9.20
  -4   0 -11   -6.80    8.00
   4   0  11   -5.30    3.30
   4   0  11   -0.70    2.30
  -5   0 -11    4.10    7.30
   5   0  11   -0.50    4.00
   5   0  11    2.60    2.40
  -6   0 -11   -2.10    3.40
  -6   0 -11    4.60    6.90
   6   0  11    2.90    4.90
  -7   0 -11    2.40    4.20
  -7   0 -11   -3.00    5.70
   8  -1 -11  177.18   29.10
   7  -1 -11  356.06   37.40
  -7   1  11  393.06   24.10
  -7   1  11  427.36   26.00
   6  -1 -11   54.49   17.20
  -6   1  11   72.89    8.40
  -6   1  11   77.29    6.50
   5  -1 -11  185.98   27.60
  -5   1  11  222.58   16.00
  -5   1  11  234.38   14.30
   4  -1 -11   -3.90   11.30
  -4   1  11    3.00    3.10
  -4   1  11   -0.60    2.00
   3  -1 -11  433.56   38.80
  -3   1  11  511.05   28.80
  -3   1  11  506.45   30.30
   2  -1 -11   22.60   11.60
  -2   1  11   59.59    6.20
  -2   1  11   45.10    4.40
   1  -1 -11   11.90    2.20
   1  -1 -11   14.60   10.10
  -1   1  11   13.30    2.30
  -1   1  11   15.80    3.10
   0  -1 -11    7.80    2.30
   0  -1 -11    8.30    9.40
   0   1  11    7.70    1.90
   0   1  11    7.50    2.80
  -1  -1 -11  261.87   25.90
   1   1  11  326.67   19.80
   1   1  11  323.97   18.70
  -2  -1 -11   24.90   10.60
  -2  -1 -11   14.80   10.60
   2   1  11   32.50    4.20
   2   1  11   26.80    3.30
  -3  -1 -11  489.35   35.80
  -3  -1 -11  423.86   35.80
   3   1  11  538.05   29.40
   3   1  11  519.55   30.00
  -4  -1 -11   30.20    9.40
  -4  -1 -11   50.29   10.60
   4   1  11   33.50    5.50
   4   1  11   36.10    4.30
  -5  -1 -11  201.38   13.90
  -5  -1 -11  213.08   18.20
  -5  -1 -11  169.68   22.00
   5   1  11  193.28   14.50
  -6  -1 -11  112.09   13.40
  -6  -1 -11  118.99   10.00
   6   1  11  115.99   11.50
  -7  -1 -11   77.49    9.20
   7   1  11   80.09   10.50
   7  -2 -11  297.57   36.70
  -7   2  11  382.86   23.90
   6  -2 -11   36.40   29.50
  -6   2  11   51.69    5.50
   5  -2 -11  107.39   21.80
  -5   2  11  135.89   11.80
  -5   2  11  141.69    9.30
   4  -2 -11   78.89   17.80
  -4   2  11  102.39    7.20
  -4   2  11  104.09    9.80
   3  -2 -11 1109.89   79.89
  -3   2  11 1234.98   69.49
  -3   2  11 1310.97   71.69
   2  -2 -11  384.86   36.10
  -2   2  11  443.36   25.70
  -2   2  11  468.15   27.60
   1  -2 -11 1089.49   60.49
   1  -2 -11  940.91   68.39
  -1   2  11 1112.79   60.49
  -1   2  11 1086.99   61.99
   0  -2 -11   55.89   12.90
   0   2  11   51.19    6.10
   0   2  11   69.59    5.00
  -1  -2 -11 1458.55   78.09
  -1  -2 -11 1213.08   84.39
   1   2  11 1347.07   78.69
   1   2  11 1439.86   77.69
  -2  -2 -11   90.69    7.90
  -2  -2 -11  124.89   17.10
   2   2  11  101.99    7.10
   2   2  11   98.99    8.00
   2   2  11   93.59    8.20
  -3  -2 -11   44.80   11.40
  -3  -2 -11   34.50   11.90
   3   2  11   50.29    6.00
   3   2  11   47.10    4.80
   3   2  11   49.99    5.40
  -4  -2 -11    6.10    9.80
  -4  -2 -11    6.50    3.20
   4   2  11   10.10    3.20
   4   2  11    4.30    4.00
  -5  -2 -11  262.87   22.20
  -5  -2 -11  261.17   17.00
   5   2  11  250.37   16.50
   5   2  11  242.18   17.50
  -6  -2 -11   25.80    5.30
   6   2  11   18.30    6.10
  -7  -2 -11  926.01   54.89
   7   2  11  939.91   56.19
   7  -3 -11 1350.46   93.09
  -7   3  11 1360.06   79.39
   6  -3 -11  105.09   23.50
  -6   3  11   95.19   10.70
   5  -3 -11  338.17   37.30
  -5   3  11  365.56   24.10
   4  -3 -11   22.80   15.80
   3  -3 -11 1147.49   76.59
  -3   3  11 1019.80   65.29
  -3   3  11 1286.27   67.69
   2  -3 -11   12.60   13.70
   2  -3 -11   21.60    3.90
  -2   3  11   17.30    4.30
  -2   3  11   30.70    3.30
   1  -3 -11   86.79    6.70
   1  -3 -11   81.59   15.70
  -1   3  11   75.49    5.70
  -1   3  11   83.39    8.50
   0  -3 -11   -9.50    9.00
   0  -3 -11   18.00    3.10
   0   3  11   17.50    3.60
   0   3  11   14.50    2.40
  -1  -3 -11  558.74   33.40
   1   3  11  567.94   34.10
   1   3  11  571.74   33.00
  -2  -3 -11  230.48   14.20
  -2  -3 -11  216.98   14.30
   2   3  11  203.28   14.40
   2   3  11  210.18   14.30
  -3  -3 -11 1688.83   91.09
  -3  -3 -11 1570.94   91.39
   3   3  11 1601.24   91.29
   3   3  11 1532.15   91.09
  -4  -3 -11   10.60    3.60
  -4  -3 -11    9.00   10.00
   4   3  11   14.10    3.70
   4   3  11    7.30    4.50
  -5  -3 -11  873.31   49.50
  -5  -3 -11  899.11   53.89
   5   3  11  777.12   49.99
   5   3  11  833.02   49.50
  -6  -3 -11  538.85   31.40
   6   3  11  513.65   31.20
   6   3  11  468.75   33.10
   6  -4 -11   36.20   18.90
  -6   4  11   40.10    7.50
   5  -4 -11  126.09   25.30
  -5   4  11   78.79    9.70
  -4   4  11   23.50    6.40
   3  -4 -11  813.82   59.39
  -3   4  11  830.32   49.50
   2  -4 -11  322.27   30.90
   2  -4 -11  308.47   20.40
  -2   4  11  363.56   22.50
   1  -4 -11  581.84   35.30
   1  -4 -11  595.64   45.70
  -1   4  11  625.04   36.80
   0  -4 -11    1.10    3.40
   0  -4 -11   14.30   11.40
   0  -4 -11    5.20    3.10
   0   4  11    4.00    3.70
  -1  -4 -11 1182.58   60.69
  -1  -4 -11 1030.70   60.99
   1   4  11 1001.00   61.49
   1   4  11 1020.90   61.29
  -2  -4 -11  189.68   11.80
  -2  -4 -11  155.98   11.90
   2   4  11  150.08   12.00
   2   4  11  165.48   11.90
  -3  -4 -11   21.60    5.10
  -3  -4 -11   32.60    4.80
   3   4  11   26.10    4.30
   3   4  11   27.20    4.50
  -4  -4 -11    1.10    4.20
  -4  -4 -11    6.80   11.10
  -4  -4 -11    3.40    3.80
   4   4  11    0.90    3.50
  -5  -4 -11  190.68   14.00
   5   4  11  190.58   13.80
   5  -5 -11   28.00   17.20
  -5   5  11   27.80    7.30
   4  -5 -11   50.19   17.20
  -4   5  11   49.50    7.60
   3  -5 -11  113.79   21.40
   3  -5 -11   96.29    9.50
  -3   5  11  103.79   13.50
   2  -5 -11  -20.80   11.50
   2  -5 -11   -2.10    4.10
  -2   5  11    3.90    4.70
   1  -5 -11   12.90    4.20
   1  -5 -11   17.10   14.10
  -1   5  11    8.80    5.10
   0  -5 -11   18.30   13.30
   0  -5 -11    3.50    3.60
   0   5  11    2.20    4.10
   0   5  11    1.70    2.90
  -1  -5 -11   46.40    6.00
   1   5  11   40.40    6.20
   1   5  11   50.39    5.60
  -2  -5 -11   99.69    9.70
   2   5  11  116.59    9.20
   2   5  11  122.39   10.10
  -3  -5 -11  106.59   10.10
   3   5  11  111.09    9.20
   3   5  11  116.69   12.10
  -4  -5 -11   -1.10    3.80
   4   5  11    2.50    6.50
   2  -6 -11    2.50   15.50
   2  -6 -11   16.90    5.70
  -2   6  11    2.90    6.20
   1  -6 -11   79.39   18.10
   1  -6 -11   86.09    9.10
  -1   6  11   74.29    9.90
   0  -6 -11   40.10    6.00
   0   6  11   25.20    6.40
   0   6  11   35.60    5.50
  -1  -6 -11   44.20    6.50
   1   6  11   44.70    7.20
   1   6  11   56.69    6.40
  -2  -6 -11    0.90    5.20
   2   6  11    6.30    5.80
   2   6  11   13.90    4.50
   2   5 -12    8.10   13.70
  -2  -5  12    9.20    4.00
   1   5 -12   15.10   12.60
   0   5 -12  913.61   61.69
   0  -5  12  917.61   53.29
  -1   5 -12  440.46   34.30
   1  -5  12  392.26   25.00
  -2   5 -12  911.41   59.79
   2  -5  12  904.71   52.69
   4   4 -12  479.85   42.00
   4   4 -12  434.16   36.50
  -4  -4  12  474.05   28.30
   3   4 -12   75.09   16.20
   3   4 -12   55.59   14.70
  -3  -4  12   65.69    7.40
   2   4 -12  355.56   29.20
   2   4 -12  307.07   34.00
  -2  -4  12  371.26   22.20
   1   4 -12   39.00   15.50
   1   4 -12   33.50   11.60
  -1  -4  12   37.70    5.00
   0   4 -12  314.27   28.70
   0  -4  12  298.97   20.50
  -1   4 -12   16.50   10.90
  -2   4 -12   -5.10    9.70
   2  -4  12    4.00    2.60
  -3   4 -12   -3.60   10.40
   3  -4  12   10.10    3.20
  -4   4 -12  184.88   20.30
   4  -4  12  170.18   14.60
   4  -4  12  173.18   12.00
   5   3 -12   -4.20   12.40
   5   3 -12    2.50   15.10
  -5  -3  12   14.80    3.60
   4   3 -12   17.10   13.90
   4   3 -12    8.30   24.70
  -4  -3  12   25.40    5.30
   3   3 -12   25.90   15.00
   3   3 -12   13.40   11.90
  -3  -3  12   20.20    3.70
   2   3 -12    1.80   10.10
   2   3 -12    5.50   13.60
  -2  -3  12    0.60    3.10
   1   3 -12   -5.20    8.90
   1   3 -12   -3.40   11.90
  -1  -3  12    4.50    3.00
   0   3 -12   20.60   11.40
   0   3 -12   -0.90    9.20
   0  -3  12    7.10    2.90
  -1   3 -12   -3.90   11.90
   1  -3  12    5.80    3.00
  -2   3 -12   22.70   10.80
   2  -3  12   20.70    3.40
  -3   3 -12   18.90   11.20
   3  -3  12   14.70    5.80
   3  -3  12   19.10    5.00
  -4   3 -12    1.60   11.30
   4  -3  12   15.70    5.40
   4  -3  12   32.30    4.40
  -5   3 -12    0.60    8.50
   5  -3  12    7.70    5.50
   5  -3  12    7.50    3.00
   6   2 -12    3.70   14.60
  -6  -2  12    2.20    3.80
  -6  -2  12    6.10    3.60
   5   2 -12   52.49   16.10
  -5  -2  12   59.49    6.20
   4   2 -12  338.17   37.40
   4   2 -12  358.36   33.50
  -4  -2  12  386.26   23.00
   3   2 -12   82.09   14.60
   3   2 -12   70.29   18.30
  -3  -2  12   74.19    6.80
   2   2 -12  226.58   25.90
   2   2 -12  188.48   27.70
  -2  -2  12  271.97   16.00
   1   2 -12   -6.20   10.80
   1   2 -12    8.60   10.30
  -1  -2  12    1.80    2.50
   0   2 -12  160.58   21.60
   0   2 -12  151.18   19.90
   0  -2  12  172.78   11.60
  -1   2 -12   -7.10    9.70
  -1   2 -12   -3.40    9.10
   1  -2  12    0.60    2.20
  -2   2 -12   -5.00   10.90
   2  -2  12    1.70    3.40
   2  -2  12   11.30    2.70
  -3   2 -12   10.90   10.50
   3  -2  12   -0.60    3.70
   3  -2  12    7.60    2.80
  -4   2 -12  164.78   18.10
   4  -2  12  145.29   12.00
  -5   2 -12   45.80   11.00
   5  -2  12   50.99    5.70
   5  -2  12   57.49    8.00
   6  -2  12  259.77   17.10
   6  -2  12  280.97   19.90
   6   1 -12  306.37   33.90
  -6  -1  12  376.06   22.60
  -6  -1  12  375.76   23.60
   5   1 -12   17.60   15.20
  -5  -1  12    9.90    4.20
  -5  -1  12    8.00    3.60
   4   1 -12  303.27   32.10
  -4  -1  12  351.26   22.40
  -4  -1  12  373.26   21.80
   3   1 -12   41.70   14.50
  -3  -1  12   37.20    5.30
  -3  -1  12   41.30    4.80
   2   1 -12   32.40   13.20
   2   1 -12   37.00   12.70
  -2  -1  12   26.70    4.50
  -2  -1  12   24.40    4.00
   1   1 -12   -9.90   11.10
   1   1 -12   -5.10    9.60
  -1  -1  12    0.60    2.60
   0   1 -12 1085.89   74.89
   0   1 -12 1147.99   72.69
   0  -1  12 1224.98   66.49
  -1   1 -12  294.07   25.60
  -1   1 -12  280.57   27.80
   1  -1  12  302.47   18.30
  -2   1 -12 1060.99   70.59
  -2   1 -12 1156.78   68.49
   2  -1  12 1057.89   62.69
   2  -1  12 1112.29   62.79
  -3   1 -12   -3.00   10.40
   3  -1  12    6.80    2.80
   3  -1  12   17.70    3.90
  -4   1 -12  483.85   34.60
   4  -1  12  444.96   28.40
   4  -1  12  463.05   27.50
  -5   1 -12  172.98   19.00
   5  -1  12  172.78   13.80
   5  -1  12  171.28   11.90
  -6   1 -12   35.20    5.90
  -6   1 -12   35.00    9.10
   6  -1  12   46.20    5.70
   6  -1  12   43.90    7.40
   7   0 -12   63.79   20.90
  -7   0  12   75.89    9.20
   6   0 -12    3.70   13.50
  -6   0  12    3.30    4.50
  -6   0  12    7.00    3.30
   5   0 -12  364.56   36.80
  -5   0  12  385.76   23.20
  -5   0  12  386.06   25.70
   4   0 -12 1652.43  113.39
  -4   0  12 1928.01  105.09
  -4   0  12 1875.11  103.69
   3   0 -12  153.18   22.50
  -3   0  12  171.18   12.40
  -3   0  12  172.48   11.40
   2   0 -12  812.52   59.49
  -2   0  12  890.81   50.89
  -2   0  12  930.01   52.19
   1   0 -12   32.60   13.00
  -1   0  12   46.40    4.80
  -1   0  12   38.50    5.60
   0   0 -12  608.14   52.39
   0   0 -12  752.42   51.29
   0   0  12  806.82   44.60
   0   0  12  785.82   43.40
  -1   0 -12   33.70   13.70
  -1   0 -12    8.80   10.80
   1   0  12   23.40    3.30
  -2   0 -12   41.10   11.80
  -2   0 -12   14.10   11.00
   2   0  12   25.40    4.00
   2   0  12   18.50    3.20
  -3   0 -12   80.29   13.70
  -3   0 -12   55.19   13.80
   3   0  12   68.29    7.10
   3   0  12   60.19    5.90
  -4   0 -12  376.56   30.00
   4   0  12  372.76   22.40
   4   0  12  360.06   23.40
  -5   0 -12  201.68   18.90
   5   0  12  168.38   14.00
   5   0  12  164.68   12.60
  -6   0 -12 2033.10  111.19
  -6   0 -12 1818.32  108.49
   6   0  12 1840.02  109.09
   6  -1 -12  339.27   38.20
  -6   1  12  407.36   24.00
  -6   1  12  410.16   25.90
   5  -1 -12  -15.00   13.70
  -5   1  12   18.40    3.40
  -5   1  12   16.20    6.90
   4  -1 -12  346.37   34.30
  -4   1  12  377.06   22.40
  -4   1  12  381.06   24.10
   3  -1 -12   29.30   13.70
  -3   1  12   51.89    5.10
  -3   1  12   40.90    5.90
   2  -1 -12   29.20   14.50
  -2   1  12   29.00    5.10
  -2   1  12   34.30    3.80
   1  -1 -12    7.80   12.40
  -1   1  12    0.50    3.10
  -1   1  12    1.30    2.10
   0  -1 -12 1018.10   74.19
   0   1  12 1227.48   67.79
   0   1  12 1224.08   66.49
  -1  -1 -12  248.98   27.10
  -1  -1 -12  304.77   18.50
   1   1  12  303.17   19.50
   1   1  12  315.17   18.30
  -2  -1 -12  952.00   65.39
  -2  -1 -12  857.71   64.09
   2   1  12 1038.60   57.49
   2   1  12 1099.29   57.29
  -3  -1 -12   15.40   11.00
  -3  -1 -12    2.60   11.60
   3   1  12   13.90    2.90
   3   1  12   16.40    4.00
  -4  -1 -12  469.85   34.40
  -4  -1 -12  332.47   33.50
   4   1  12  439.66   26.70
   4   1  12  457.75   25.90
  -5  -1 -12  179.58   13.30
  -5  -1 -12  183.08   19.60
   5   1  12  173.58   13.80
  -6  -1 -12   45.90   10.70
  -6  -1 -12   41.00    5.60
   6   1  12   46.50    8.00
   6  -2 -12    1.30   15.70
  -6   2  12    3.10    4.50
   5  -2 -12   69.39   20.00
  -5   2  12   66.59    6.90
  -5   2  12   82.19    8.70
   4  -2 -12  343.47   39.00
  -4   2  12  425.66   27.10
  -4   2  12  426.96   24.40
   3  -2 -12   49.60   16.80
  -3   2  12   87.59    8.90
  -3   2  12   79.19    6.30
   2  -2 -12  254.27   30.20
  -2   2  12  270.07   18.60
  -2   2  12  281.77   16.50
   1  -2 -12    1.90   11.80
  -1   2  12    3.20    2.00
  -1   2  12   -5.50    3.40
   0  -2 -12  155.18   10.30
   0  -2 -12  113.79   18.40
   0   2  12  155.28   11.50
   0   2  12  158.38   10.00
  -1  -2 -12    1.40    2.90
  -1  -2 -12    0.10    9.60
   1   2  12    6.80    2.30
  -2  -2 -12   -7.90   11.70
  -2  -2 -12    2.40    3.10
   2   2  12    1.50    2.30
   2   2  12    2.10    3.60
  -3  -2 -12  -13.60   11.00
  -3  -2 -12    0.00   11.30
   3   2  12    1.20    3.50
   3   2  12    5.20    2.50
  -4  -2 -12  127.39   10.20
  -4  -2 -12  112.89   17.20
  -4  -2 -12  144.89   19.50
   4   2  12  121.59   11.00
  -5  -2 -12   47.30    6.10
  -5  -2 -12   40.80   11.70
   5   2  12   37.00    6.80
  -6  -2 -12  283.77   18.90
   6   2  12  252.77   19.40
   5  -3 -12   29.80   18.20
  -5   3  12   11.00    5.50
   4  -3 -12   31.60   19.80
  -4   3  12   35.30    6.70
   3  -3 -12   18.80   16.60
  -3   3  12   22.10    5.10
   2  -3 -12    7.10   12.50
  -2   3  12   -0.70    3.50
   1  -3 -12   -3.70   12.50
  -1   3  12    2.70    2.00
  -1   3  12    3.10    3.80
   0  -3 -12    8.60   12.00
   0  -3 -12   14.10    3.40
   0   3  12   14.30    4.40
   0   3  12   13.30    2.70
  -1  -3 -12    9.70    3.30
  -1  -3 -12   -5.50   10.60
   1   3  12    3.90    2.40
   1   3  12    0.10    3.50
  -2  -3 -12   39.50   13.80
  -2  -3 -12   22.60    4.30
  -2  -3 -12   28.10    4.70
   2   3  12   25.10    4.50
  -3  -3 -12   24.80   12.40
  -3  -3 -12   16.50    4.20
  -3  -3 -12   22.00    4.30
  -3  -3 -12   19.60   13.30
   3   3  12   14.50    3.60
  -4  -3 -12    2.20    4.10
  -4  -3 -12   11.80   12.30
  -4  -3 -12    8.60    4.40
   4   3  12    3.20    3.90
   4   3  12    4.80    4.60
  -5  -3 -12    4.40    4.70
   5   3  12    2.00    4.00
   4  -4 -12  507.45   46.50
  -4   4  12  564.34   35.00
   3  -4 -12   70.59   18.50
  -3   4  12   60.99    8.20
   2  -4 -12  361.46   40.70
  -2   4  12  360.86   24.20
   1  -4 -12   41.00    5.10
   1  -4 -12   30.80   13.50
  -1   4  12   36.90    6.60
   0  -4 -12  294.47   18.00
   0  -4 -12  211.28   28.90
   0   4  12  288.47   19.20
  -1  -4 -12    7.60   12.80
  -1  -4 -12    3.80    3.40
   1   4  12   -8.00    3.80
  -2  -4 -12   11.80    4.20
  -2  -4 -12   -0.90    3.70
   2   4  12   -1.00    3.20
   2   4  12    5.60    4.10
  -3  -4 -12    9.40    4.40
  -3  -4 -12   -0.10    4.20
   3   4  12   -5.00    3.90
   3   4  12    9.10    3.50
  -4  -4 -12  164.08   18.30
  -4  -4 -12  199.78   13.80
   4   4  12  183.58   13.60
   2  -5 -12   -1.70   15.50
  -2   5  12   12.30    6.10
   1  -5 -12  -26.00   15.10
   1  -5 -12    2.80    4.40
   0  -5 -12  865.51   50.89
   0  -5 -12  824.72   60.19
   0   5  12  905.71   52.09
  -1  -5 -12  383.56   24.00
  -1  -5 -12  341.37   34.20
   1   5  12  404.66   24.90
   1   5  12  372.46   24.10
  -2  -5 -12  837.52   50.59
   2   5  12  858.31   50.59
   2   5  12  879.71   50.99
   2   4 -13  -11.20   14.90
   1   4 -13  217.48   28.90
  -1  -4  13  212.28   14.90
   0   4 -13   17.50   14.10
   0  -4  13    9.10    4.10
  -1   4 -13  106.79   17.80
   1  -4  13   85.29    8.40
   4   3 -13  121.79   25.30
   4   3 -13  151.18   22.10
   3   3 -13    7.90   13.50
   3   3 -13    1.10   14.70
  -3  -3  13    9.00    4.10
   2   3 -13  -14.00   16.30
   2   3 -13    5.00   13.10
  -2  -3  13    1.60    3.20
   1   3 -13 1212.88   81.69
   1   3 -13 1148.19   77.19
  -1  -3  13 1331.07   71.29
   0   3 -13  464.85   41.00
   0  -3  13  494.65   29.40
  -1   3 -13  939.01   64.59
   1  -3  13  972.60   55.69
  -2   3 -13   39.30   13.20
   2  -3  13   48.90    6.20
  -3   3 -13  394.16   34.30
   3  -3  13  401.26   24.60
   4   2 -13   55.69   18.80
   4   2 -13   69.89   17.80
  -4  -2  13   83.59    7.90
   3   2 -13  399.16   37.70
   3   2 -13  389.96   35.50
   2   2 -13   -4.10   12.20
   2   2 -13    0.10   15.30
  -2  -2  13   12.70    3.90
   1   2 -13  289.27   29.90
   1   2 -13  290.07   37.30
  -1  -2  13  351.36   20.60
   0   2 -13   27.80   12.60
   0  -2  13   18.70    4.00
   1  -2  13   30.80    5.40
  -2   2 -13   -7.00   15.20
   2  -2  13    9.90    3.20
  -3   2 -13  538.45   40.30
   3  -2  13  506.35   30.90
  -4   2 -13  176.18   22.60
   4  -2  13  175.98   12.80
   4  -2  13  203.48   14.80
   5   1 -13   56.19   18.30
  -5  -1  13   37.50    6.40
   4   1 -13   71.09   18.60
  -4  -1  13   58.29    8.20
  -4  -1  13   68.89    7.10
   3   1 -13   -9.00   12.00
  -3  -1  13    1.80    4.00
  -3  -1  13   -5.00    3.20
   2   1 -13    5.10   13.20
   2   1 -13   29.40   25.00
  -2  -1  13   -0.60    2.80
   1   1 -13  399.16   40.20
   1   1 -13  477.75   38.30
  -1  -1  13  495.95   28.30
   0   1 -13   74.29   17.70
   0   1 -13  119.29   18.40
   0  -1  13  124.79    8.90
  -1   1 -13  403.36   37.20
  -1   1 -13  417.16   34.40
   1  -1  13  436.26   25.60
  -2   1 -13   12.50   12.50
   2  -1  13   11.80    3.10
  -3   1 -13  100.39   16.80
   3  -1  13  111.79   10.10
   3  -1  13   99.99   11.30
  -4   1 -13   37.00   14.30
   4  -1  13   24.10    4.30
   4  -1  13   26.60    6.10
   5   0 -13    3.50   15.30
  -5   0  13   -3.10    4.30
  -5   0  13   -2.00    3.20
   4   0 -13   12.00   14.20
  -4   0  13   -2.10    4.00
   3   0 -13   -6.00   14.20
  -3   0  13   -0.60    3.90
  -3   0  13    4.90    3.10
   2   0 -13    3.20   13.10
  -2   0  13   -0.60    2.50
  -2   0  13    2.90    3.40
   1   0 -13    7.70   12.10
  -1   0  13    1.60    3.30
  -1   0  13    4.60    2.50
   0   0 -13   -4.50   12.40
   0   0 -13   -2.80   14.00
   0   0  13    3.50    2.40
  -1   0 -13  -21.40   12.50
  -1   0 -13    9.50   13.50
   1   0  13    7.30    2.70
  -2   0 -13   14.10   13.30
  -2   0 -13   -3.90   11.60
   2   0  13   -3.20    2.60
  -3   0 -13    0.00   12.90
   3   0  13    3.80    4.10
   3   0  13    2.60    2.80
  -4   0 -13    3.40   11.60
   4   0  13    0.20    3.30
   4   0  13   -0.50    4.30
  -5   0 -13    7.10   10.30
   5   0  13    4.90    3.30
   5   0  13    3.90    5.60
   5  -1 -13   16.70   20.40
  -5   1  13   46.80    7.10
  -5   1  13   48.10    5.90
   4  -1 -13   65.59   19.70
  -4   1  13   65.89    6.50
  -4   1  13   49.30    7.60
   3  -1 -13   10.50   13.90
  -3   1  13    4.10    4.20
  -3   1  13   -5.00    2.40
   2  -1 -13   12.30   15.40
  -2   1  13    2.90    2.70
  -2   1  13    5.00    3.50
   1  -1 -13  361.06   39.20
  -1   1  13  488.65   29.10
  -1   1  13  488.05   27.50
   0  -1 -13   97.69   18.80
   0   1  13  126.89   10.30
   0   1  13  126.69    8.80
  -1  -1 -13  329.87   35.30
  -1  -1 -13  356.66   34.30
   1   1  13  418.86   23.20
  -2  -1 -13   19.40   13.00
  -2  -1 -13   11.30   14.50
   2   1  13    9.90    3.80
   2   1  13    8.90    2.80
  -3  -1 -13  122.09   18.60
  -3  -1 -13  107.29   18.10
   3   1  13  114.59    8.80
   3   1  13  114.39   10.10
  -4  -1 -13   28.50   13.50
   4   1  13   30.70    5.60
   4  -2 -13   89.69   21.90
  -4   2  13  113.19   11.20
  -3   2  13  525.15   32.50
  -3   2  13  501.15   29.90
   2  -2 -13   16.70   16.40
  -2   2  13   14.90    3.00
   1  -2 -13  294.97   31.90
  -1   2  13  330.17   21.60
  -1   2  13  339.97   19.80
   0  -2 -13   13.10   14.40
   0   2  13   13.80    4.00
   0   2  13   12.50    2.90
  -1  -2 -13   23.50   14.70
   1   2  13   45.30    4.80
   1   2  13   37.00    5.70
  -2  -2 -13   15.40   13.70
  -2  -2 -13   17.20   13.00
  -2  -2 -13    5.80    3.90
   2   2  13    4.90    2.70
  -3  -2 -13  390.86   38.10
  -3  -2 -13  471.05   28.80
   3   2  13  507.85   28.10
  -4  -2 -13  173.88   13.30
  -4  -2 -13  110.19   21.20
  -4  -2 -13  182.78   24.20
   4   2  13  187.88   13.50
   4  -3 -13  146.79   29.70
  -4   3  13  167.28   13.80
   3  -3 -13   11.00   17.80
  -3   3  13    3.70    5.40
   2  -3 -13  -20.40   16.20
  -2   3  13    6.90    4.10
   1  -3 -13 1064.19   74.89
   0  -3 -13  400.56   40.20
   0   3  13  509.05   30.50
   0   3  13  499.35   28.40
  -1  -3 -13  749.03   59.99
  -1  -3 -13  870.31   50.49
   1   3  13  920.51   49.90
   1   3  13  901.81   51.69
  -2  -3 -13   46.00    5.90
  -2  -3 -13   28.30    5.10
  -2  -3 -13   47.20   16.40
   2   3  13   28.80    5.90
  -3  -3 -13  411.46   23.20
  -3  -3 -13  353.26   22.90
  -3  -3 -13  320.57   32.90
  -3  -3 -13  303.37   33.00
   2  -4 -13   12.70   16.80
  -2   4  13   -7.00    5.40
   1  -4 -13  195.58   27.60
  -1   4  13  240.28   17.00
   0  -4 -13  -13.90   15.60
  -1  -4 -13   77.19    8.00
  -1  -4 -13   47.80   16.50
   1   4  13   67.79    8.80
   2   2 -14   18.00   17.20
   2   2 -14    2.50   15.50
   1   2 -14   22.00   16.70
   1   2 -14   48.20   15.90
  -1  -2  14   32.30    5.20
   0   2 -14   31.60   16.50
   0  -2  14   22.40    4.20
  -1   2 -14    8.90   16.50
   1  -2  14   12.50    3.80
   3   1 -14   37.10   19.60
   3   1 -14   11.50   14.20
   2   1 -14  963.00   78.09
   2   1 -14 1142.09   77.29
  -2  -1  14 1309.37   67.09
   1   1 -14  253.47   32.40
   1   1 -14  240.18   34.80
  -1  -1  14  301.47   18.30
   0   1 -14  622.14   52.99
   0   1 -14  640.94   48.10
   0  -1  14  683.23   38.70
  -1   1 -14   -2.20   16.20
   1  -1  14    7.10    3.50
  -2   1 -14   95.49   19.00
   2  -1  14  100.99    8.10
   3   0 -14   25.50   21.50
  -3   0  14   24.80    4.20
  -3   0  14   25.70    6.10
   2   0 -14   11.70   16.90
  -2   0  14   57.39    7.80
  -2   0  14   73.49    6.80
   1   0 -14  132.59   24.60
   1   0 -14  121.79   22.50
  -1   0  14  134.69    9.90
   0   0 -14   60.79   17.80
   0   0 -14   58.19   19.00
   0   0  14   57.59    6.20
  -1   0 -14    3.40   14.40
  -1   0 -14   31.40   16.30
   1   0  14   49.90    7.20
  -2   0 -14  845.72   62.79
   2   0  14  931.61   52.09
   3  -1 -14   14.70   18.10
  -3   1  14   13.00    4.90
  -2   1  14 1336.67   77.39
  -2   1  14 1315.47   75.59
   1  -1 -14  264.27   34.10
  -1   1  14  320.27   18.90
  -1   1  14  299.57   20.90
   0  -1 -14  574.04   50.99
   0   1  14  685.03   38.70
   0   1  14  686.83   40.20
  -1  -1 -14   12.20   14.30
  -1  -1 -14   15.50   16.70
   1   1  14    5.10    2.80
  -2  -1 -14   88.19   20.40
  -2  -1 -14   55.29   18.20
   2   1  14  110.69    9.50
   2  -2 -14  -21.60   18.60
  -2   2  14    0.00    5.00
   1  -2 -14   42.30   23.60
  -1   2  14   34.00    5.90
  -1   2  14   45.00    5.40
   0  -2 -14   25.70   18.50
   0   2  14   23.10    5.90
   0   2  14   28.00    3.90
  -1  -2 -14   16.60   15.20
  -1  -2 -14    0.20   16.70
   1   2  14   10.60    3.20
   1   2  14    5.80    4.50
   0   0   0    0.00    0.00

_computing_structure_solution     'SHELXT 2014/5 (Sheldrick, 2014)'
;
_shelx_hkl_checksum              88563
loop_
_space_group_symop_operation_xyz
'x, y, z'
'-x, y+1/2, -z+1/2'
'-x, -y, -z'
'x, -y-1/2, z-1/2'
loop_
_atom_site_label
_atom_site_type_symbol
_atom_site_fract_x
_atom_site_fract_y
_atom_site_fract_z
_atom_site_U_iso_or_equiv
_atom_site_adp_type
_atom_site_occupancy
_atom_site_site_symmetry_order
_atom_site_calc_flag
Pr1 Pr 0.44878(2) 0.16415(3) 0.65472(2) 0.00986(12) Uani 1 1 d
Cs1 Cs -0.06971(3) 0.34570(4) 0.65748(2) 0.01961(12) Uani 1 1 d
Cr1 Cr 0.23841(8) 0.32954(8) 0.91712(6) 0.01084(17) Uani 1 1 d
O1 O 0.0984(4) 0.4449(4) 0.8857(3) 0.0283(7) Uani 1 1 d
Cr2 Cr 0.67268(7) 0.33849(7) 0.38889(6) 0.00912(17) Uani 1 1 d
O2 O 0.2235(3) 0.2273(4) 1.0473(3) 0.0201(6) Uani 1 1 d
O3 O 0.3840(3) 0.4556(4) 0.9454(3) 0.0210(7) Uani 1 1 d
O4 O 0.2683(4) 0.1851(4) 0.8073(3) 0.0203(7) Uani 1 1 d
O6 O 0.8438(3) 0.3607(4) 0.3875(3) 0.0174(6) Uani 1 1 d
O5 O 0.6187(4) 0.3244(4) 0.5272(3) 0.0182(7) Uani 1 1 d
O7 O 0.5876(3) 0.5036(4) 0.3141(3) 0.0148(6) Uani 1 1 d
O8 O 0.6266(4) 0.1582(3) 0.3089(3) 0.0166(6) Uani 1 1 d
loop_
_atom_site_aniso_label
_atom_site_aniso_U_11
_atom_site_aniso_U_22
_atom_site_aniso_U_33
_atom_site_aniso_U_23
_atom_site_aniso_U_13
_atom_site_aniso_U_12
Pr1 0.00996(16) 0.00979(16) 0.00980(16) 0.00070(7) -0.00030(10) 0.00086(7)
Cs1 0.01714(18) 0.02263(19) 0.01900(19) 0.00255(9) -0.00062(12) -0.00319(10)
Cr1 0.0110(4) 0.0118(3) 0.0097(3) -0.0002(2) -0.0004(2) -0.0010(2)
O1 0.0257(18) 0.0311(18) 0.0277(17) -0.0016(14) -0.0089(14) 0.0113(15)
Cr2 0.0096(3) 0.0092(3) 0.0086(3) -0.0003(2) -0.0007(2) -0.0010(2)
O2 0.0208(15) 0.0257(16) 0.0138(14) 0.0063(12) -0.0004(12) -0.0030(13)
O3 0.0222(15) 0.0223(15) 0.0187(15) -0.0029(12) 0.0018(12) -0.0108(13)
O4 0.0244(17) 0.0183(15) 0.0184(15) -0.0056(11) 0.0060(13) -0.0047(12)
O6 0.0120(14) 0.0209(14) 0.0192(15) -0.0028(12) -0.0012(12) 0.0003(11)
O5 0.0221(17) 0.0198(15) 0.0128(15) -0.0013(11) 0.0044(12) -0.0058(12)
O7 0.0179(14) 0.0107(13) 0.0156(14) 0.0002(11) -0.0053(12) 0.0015(11)
O8 0.0222(16) 0.0123(14) 0.0154(15) -0.0029(10) 0.0003(12) -0.0035(11)
loop_
_atom_type_symbol
_atom_type_description
_atom_type_scat_dispersion_real
_atom_type_scat_dispersion_imag
_atom_type_scat_source
Cr Cr 0.3209 0.6236 'International Tables Vol C Tables 4.2.6.8 and 6.1.1.4'
Cs Cs -0.3680 2.1192 'International Tables Vol C Tables 4.2.6.8 and 6.1.1.4'
O O 0.0106 0.0060 'International Tables Vol C Tables 4.2.6.8 and 6.1.1.4'
Pr Pr -0.2180 2.8214 'International Tables Vol C Tables 4.2.6.8 and 6.1.1.4'
loop_
_geom_angle_atom_site_label_1
_geom_angle_atom_site_label_2
_geom_angle_atom_site_label_3
_geom_angle
_geom_angle_site_symmetry_1
_geom_angle_site_symmetry_3
O4 Pr1 O5 146.92(9) . .
O4 Pr1 O3 143.73(10) . 2_646
O5 Pr1 O3 68.39(10) . 2_646
O4 Pr1 O7 83.81(11) . 4_566
O5 Pr1 O7 108.88(10) . 4_566
O3 Pr1 O7 71.53(10) 2_646 4_566
O4 Pr1 O2 74.25(11) . 4_565
O5 Pr1 O2 96.21(11) . 4_565
O3 Pr1 O2 120.83(10) 2_646 4_565
O7 Pr1 O2 154.89(10) 4_566 4_565
O4 Pr1 O7 75.14(10) . 3_666
O5 Pr1 O7 71.92(10) . 3_666
O3 Pr1 O7 139.88(10) 2_646 3_666
O7 Pr1 O7 117.60(6) 4_566 3_666
O2 Pr1 O7 68.71(9) 4_565 3_666
O4 Pr1 O8 75.65(10) . 3_656
O5 Pr1 O8 137.43(10) . 3_656
O3 Pr1 O8 69.71(11) 2_646 3_656
O7 Pr1 O8 63.45(10) 4_566 3_656
O2 Pr1 O8 98.69(10) 4_565 3_656
O7 Pr1 O8 150.40(10) 3_666 3_656
O4 Pr1 O3 120.53(11) . 4_565
O5 Pr1 O3 77.78(10) . 4_565
O3 Pr1 O3 60.61(12) 2_646 4_565
O7 Pr1 O3 125.15(9) 4_566 4_565
O2 Pr1 O3 60.31(9) 4_565 4_565
O7 Pr1 O3 116.08(9) 3_666 4_565
O8 Pr1 O3 75.61(9) 3_656 4_565
O4 Pr1 O8 87.05(11) . 4_566
O5 Pr1 O8 74.52(10) . 4_566
O3 Pr1 O8 102.23(10) 2_646 4_566
O7 Pr1 O8 60.00(9) 4_566 4_566
O2 Pr1 O8 129.17(9) 4_565 4_566
O7 Pr1 O8 60.85(9) 3_666 4_566
O8 Pr1 O8 122.13(6) 3_656 4_566
O3 Pr1 O8 151.50(10) 4_565 4_566
O4 Pr1 Cr1 98.83(9) . 4_565
O5 Pr1 Cr1 84.74(8) . 4_565
O3 Pr1 Cr1 91.01(7) 2_646 4_565
O7 Pr1 Cr1 150.76(6) 4_566 4_565
O2 Pr1 Cr1 29.82(7) 4_565 4_565
O7 Pr1 Cr1 90.97(6) 3_666 4_565
O8 Pr1 Cr1 88.82(7) 3_656 4_565
O3 Pr1 Cr1 30.62(7) 4_565 4_565
O8 Pr1 Cr1 148.87(6) 4_566 4_565
O4 Pr1 Cr2 83.31(9) . 4_566
O5 Pr1 Cr2 93.13(8) . 4_566
O3 Pr1 Cr2 87.61(7) 2_646 4_566
O7 Pr1 Cr2 29.82(6) 4_566 4_566
O2 Pr1 Cr2 151.53(7) 4_565 4_566
O7 Pr1 Cr2 88.97(6) 3_666 4_566
O8 Pr1 Cr2 92.33(7) 3_656 4_566
O3 Pr1 Cr2 148.16(7) 4_565 4_566
O8 Pr1 Cr2 30.23(6) 4_566 4_566
Cr1 Pr1 Cr2 177.773(17) 4_565 4_566
O4 Pr1 Cs1 130.98(8) . 1_655
O5 Pr1 Cs1 40.08(8) . 1_655
O3 Pr1 Cs1 64.95(8) 2_646 1_655
O7 Pr1 Cs1 70.25(7) 4_566 1_655
O2 Pr1 Cs1 134.00(8) 4_565 1_655
O7 Pr1 Cs1 81.09(7) 3_666 1_655
O8 Pr1 Cs1 122.73(7) 3_656 1_655
O3 Pr1 Cs1 108.37(7) 4_565 1_655
O8 Pr1 Cs1 44.03(7) 4_566 1_655
Cr1 Pr1 Cs1 124.07(2) 4_565 1_655
Cr2 Pr1 Cs1 53.73(2) 4_566 1_655
O1 Cs1 O1 114.39(9) . 2_546
O1 Cs1 O2 86.02(9) . 4_565
O1 Cs1 O2 80.63(9) 2_546 4_565
O1 Cs1 O6 67.79(9) . 3_666
O1 Cs1 O6 137.06(9) 2_546 3_666
O2 Cs1 O6 56.46(8) 4_565 3_666
O1 Cs1 O6 156.70(9) . 1_455
O1 Cs1 O6 82.11(8) 2_546 1_455
O2 Cs1 O6 80.43(8) 4_565 1_455
O6 Cs1 O6 88.92(8) 3_666 1_455
O1 Cs1 O6 64.73(9) . 4_466
O1 Cs1 O6 67.48(8) 2_546 4_466
O2 Cs1 O6 119.26(8) 4_565 4_466
O6 Cs1 O6 132.52(4) 3_666 4_466
O6 Cs1 O6 138.57(8) 1_455 4_466
O1 Cs1 O4 89.56(9) . 2_556
O1 Cs1 O4 139.34(9) 2_546 2_556
O2 Cs1 O4 135.94(8) 4_565 2_556
O6 Cs1 O4 81.39(9) 3_666 2_556
O6 Cs1 O4 87.16(8) 1_455 2_556
O6 Cs1 O4 97.76(8) 4_466 2_556
O1 Cs1 O5 146.03(8) . 1_455
O1 Cs1 O5 78.79(8) 2_546 1_455
O2 Cs1 O5 127.81(8) 4_565 1_455
O6 Cs1 O5 124.91(8) 3_666 1_455
O6 Cs1 O5 49.60(8) 1_455 1_455
O6 Cs1 O5 95.67(8) 4_466 1_455
O4 Cs1 O5 64.73(8) 2_556 1_455
O1 Cs1 O8 90.42(9) . 4_466
O1 Cs1 O8 89.93(8) 2_546 4_466
O2 Cs1 O8 167.44(7) 4_565 4_466
O6 Cs1 O8 132.66(7) 3_666 4_466
O6 Cs1 O8 106.61(8) 1_455 4_466
O6 Cs1 O8 48.73(7) 4_466 4_466
O4 Cs1 O8 55.93(7) 2_556 4_466
O5 Cs1 O8 57.25(8) 1_455 4_466
O1 Cs1 O4 44.96(8) . .
O1 Cs1 O4 79.80(8) 2_546 .
O2 Cs1 O4 51.01(8) 4_565 .
O6 Cs1 O4 74.40(8) 3_666 .
O6 Cs1 O4 130.15(7) 1_455 .
O6 Cs1 O4 72.72(8) 4_466 .
O4 Cs1 O4 133.79(7) 2_556 .
O5 Cs1 O4 158.30(7) 1_455 .
O8 Cs1 O4 119.34(8) 4_466 .
O1 Cs1 Cr2 164.89(6) . 1_455
O1 Cs1 Cr2 79.06(6) 2_546 1_455
O2 Cs1 Cr2 103.67(6) 4_565 1_455
O6 Cs1 Cr2 107.70(6) 3_666 1_455
O6 Cs1 Cr2 24.33(6) 1_455 1_455
O6 Cs1 Cr2 118.06(6) 4_466 1_455
O4 Cs1 Cr2 75.40(6) 2_556 1_455
O5 Cs1 Cr2 25.27(5) 1_455 1_455
O8 Cs1 Cr2 82.43(6) 4_466 1_455
O4 Cs1 Cr2 149.46(5) . 1_455
O1 Cs1 Cr2 81.10(7) . 4_466
O1 Cs1 Cr2 72.31(7) 2_546 4_466
O2 Cs1 Cr2 141.60(6) 4_565 4_466
O6 Cs1 Cr2 143.75(6) 3_666 4_466
O6 Cs1 Cr2 120.91(6) 1_455 4_466
O6 Cs1 Cr2 24.13(6) 4_466 4_466
O4 Cs1 Cr2 80.21(6) 2_556 4_466
O5 Cs1 Cr2 73.25(6) 1_455 4_466
O8 Cs1 Cr2 25.88(5) 4_466 4_466
O4 Cs1 Cr2 96.82(6) . 4_466
Cr2 Cs1 Cr2 97.46(4) 1_455 4_466
O1 Cr1 O2 111.08(18) . .
O1 Cr1 O4 109.95(17) . .
O2 Cr1 O4 111.23(16) . .
O1 Cr1 O3 112.93(17) . .
O2 Cr1 O3 100.41(15) . .
O4 Cr1 O3 110.95(16) . .
O1 Cr1 Pr1 130.09(12) . 4_566
O2 Cr1 Pr1 49.75(11) . 4_566
O4 Cr1 Pr1 119.94(12) . 4_566
O3 Cr1 Pr1 50.93(10) . 4_566
O1 Cr1 Cs1 42.37(12) . .
O2 Cr1 Cs1 124.88(11) . .
O4 Cr1 Cs1 67.69(12) . .
O3 Cr1 Cs1 132.69(11) . .
Pr1 Cr1 Cs1 171.18(2) 4_566 .
O1 Cr1 Cs1 97.39(13) . 2_546
O2 Cr1 Cs1 73.89(11) . 2_546
O4 Cr1 Cs1 48.14(11) . 2_546
O3 Cr1 Cs1 148.81(11) . 2_546
Pr1 Cr1 Cs1 113.91(2) 4_566 2_546
Cs1 Cr1 Cs1 67.105(17) . 2_546
O1 Cr1 Cs1 74.97(13) . 4_566
O2 Cr1 Cs1 38.60(11) . 4_566
O4 Cr1 Cs1 113.23(11) . 4_566
O3 Cr1 Cs1 128.41(11) . 4_566
Pr1 Cr1 Cs1 83.96(3) 4_566 4_566
Cs1 Cr1 Cs1 88.83(4) . 4_566
Cs1 Cr1 Cs1 65.085(19) 2_546 4_566
O1 Cr1 Cs1 33.70(13) . 2_556
O2 Cr1 Cs1 123.86(12) . 2_556
O4 Cr1 Cs1 121.13(12) . 2_556
O3 Cr1 Cs1 79.51(11) . 2_556
Pr1 Cr1 Cs1 111.026(19) 4_566 2_556
Cs1 Cr1 Cs1 65.041(15) . 2_556
Cs1 Cr1 Cs1 129.61(3) 2_546 2_556
Cs1 Cr1 Cs1 98.91(2) 4_566 2_556
Cr1 O1 Cs1 116.93(16) . .
Cr1 O1 Cs1 129.42(17) . 2_556
Cs1 O1 Cs1 93.85(9) . 2_556
O6 Cr2 O5 110.04(17) . .
O6 Cr2 O8 108.84(16) . .
O5 Cr2 O8 111.68(15) . .
O6 Cr2 O7 112.16(15) . .
O5 Cr2 O7 111.28(15) . .
O8 Cr2 O7 102.65(15) . .
O6 Cr2 Pr1 127.17(12) . 4_565
O5 Cr2 Pr1 122.75(13) . 4_565
O8 Cr2 Pr1 54.81(10) . 4_565
O7 Cr2 Pr1 47.97(10) . 4_565
O6 Cr2 Cs1 52.69(11) . 1_655
O5 Cr2 Cs1 57.37(12) . 1_655
O8 Cr2 Cs1 125.64(11) . 1_655
O7 Cr2 Cs1 131.57(10) . 1_655
Pr1 Cr2 Cs1 179.519(18) 4_565 1_655
O6 Cr2 Cs1 52.47(11) . 4_665
O5 Cr2 Cs1 145.45(11) . 4_665
O8 Cr2 Cs1 60.37(11) . 4_665
O7 Cr2 Cs1 103.23(11) . 4_665
Pr1 Cr2 Cs1 82.03(3) 4_565 4_665
Cs1 Cr2 Cs1 98.06(4) 1_655 4_665
Cr1 O2 Pr1 100.43(14) . 4_566
Cr1 O2 Cs1 121.83(15) . 4_566
Pr1 O2 Cs1 127.30(11) 4_566 4_566
Cr1 O3 Pr1 141.45(16) . 2_656
Cr1 O3 Pr1 98.46(13) . 4_566
Pr1 O3 Pr1 119.39(12) 2_656 4_566
Cr1 O4 Pr1 133.51(16) . .
Cr1 O4 Cs1 108.93(14) . 2_546
Pr1 O4 Cs1 116.75(10) . 2_546
Cr1 O4 Cs1 88.00(13) . .
Pr1 O4 Cs1 107.45(11) . .
Cs1 O4 Cs1 79.93(8) 2_546 .
Cr2 O6 Cs1 139.06(15) . 3_666
Cr2 O6 Cs1 102.98(14) . 1_655
Cs1 O6 Cs1 91.09(8) 3_666 1_655
Cr2 O6 Cs1 103.40(13) . 4_665
Cs1 O6 Cs1 91.81(8) 3_666 4_665
Cs1 O6 Cs1 135.54(10) 1_655 4_665
Cr2 O5 Pr1 142.17(16) . .
Cr2 O5 Cs1 97.36(14) . 1_655
Pr1 O5 Cs1 110.45(11) . 1_655
Cr2 O7 Pr1 102.21(13) . 4_565
Cr2 O7 Pr1 135.87(15) . 3_666
Pr1 O7 Pr1 121.32(11) 4_565 3_666
Cr2 O8 Pr1 138.67(16) . 3_656
Cr2 O8 Pr1 94.95(12) . 4_565
Pr1 O8 Pr1 113.53(11) 3_656 4_565
Cr2 O8 Cs1 93.75(13) . 4_665
Pr1 O8 Cs1 108.21(9) 3_656 4_665
Pr1 O8 Cs1 101.47(9) 4_565 4_665
loop_
_geom_bond_atom_site_label_1
_geom_bond_atom_site_label_2
_geom_bond_distance
_geom_bond_site_symmetry_2
Pr1 O4 2.422(3) .
Pr1 O5 2.463(3) .
Pr1 O3 2.489(3) 2_646
Pr1 O7 2.512(3) 4_566
Pr1 O2 2.530(3) 4_565
Pr1 O7 2.540(3) 3_666
Pr1 O8 2.552(3) 3_656
Pr1 O3 2.558(3) 4_565
Pr1 O8 2.711(3) 4_566
Pr1 Cr1 3.2596(13) 4_565
Pr1 Cr2 3.3048(13) 4_566
Pr1 Cs1 4.6909(18) 1_655
Cs1 O1 3.049(3) .
Cs1 O1 3.056(4) 2_546
Cs1 O2 3.070(3) 4_565
Cs1 O6 3.095(3) 3_666
Cs1 O6 3.098(3) 1_455
Cs1 O6 3.113(3) 4_466
Cs1 O4 3.177(3) 2_556
Cs1 O5 3.223(3) 1_455
Cs1 O8 3.327(3) 4_466
Cs1 O4 3.734(4) .
Cs1 Cr2 3.7956(14) 1_455
Cs1 Cr2 3.8188(12) 4_466
Cr1 O1 1.599(3) .
Cr1 O2 1.648(3) .
Cr1 O4 1.661(3) .
Cr1 O3 1.678(3) .
Cr2 O6 1.605(3) .
Cr2 O5 1.634(3) .
Cr2 O8 1.670(3) .
Cr2 O7 1.682(3) .
