#------------------------------------------------------------------------------
#$Date: 2018-01-31 02:16:12 +0200 (Wed, 31 Jan 2018) $
#$Revision: 205917 $
#$URL: file:///home/coder/svn-repositories/cod/cif/4/12/71/4127112.cif $
#------------------------------------------------------------------------------
#
# This file is available in the Crystallography Open Database (COD),
# http://www.crystallography.net/
#
# All data on this site have been placed in the public domain by the
# contributors.
#
data_4127112
loop_
_publ_author_name
'Galley, Shane S.'
'Arico, Alexandra A.'
'Lee, Tsung-Han'
'Deng, Xiaoyu'
'Yao, Yong-Xin'
'Sperling, Joseph M.'
'Proust, Vanessa'
'Storbeck, Julia S.'
'Dobrosavljevic, Vladimir'
'Neu, Jennifer N.'
'Siegrist, Theo'
'Baumbach, Ryan E.'
'Albrecht-Schmitt, Thomas E'
'Kaltsoyannis, Nikolas'
'Lanat\`a, Nicola'
_publ_section_title
;
 Uncovering the Origin of Divergence in the CsM(CrO4)2 (M = La, Pr, Nd,
 Sm, Eu; Am) Family through Examination of the Chemical Bonding in a
 Molecular Cluster and by Band Structure Analysis.
;
_journal_name_full               'Journal of the American Chemical Society'
_journal_paper_doi               10.1021/jacs.7b09474
_journal_year                    2018
_chemical_formula_moiety         'Cr4 La2 O16, 2(Cs)'
_chemical_formula_sum            'Cr4 Cs2 La2 O16'
_chemical_formula_weight         1007.64
_space_group_crystal_system      monoclinic
_space_group_IT_number           14
_space_group_name_Hall           '-P 2ybc'
_space_group_name_H-M_alt        'P 1 21/c 1'
_symmetry_space_group_name_Hall  '-P 2ybc'
_symmetry_space_group_name_H-M   'P 1 21/c 1'
_audit_creation_method           SHELXL-2017/1
_cell_angle_alpha                90
_cell_angle_beta                 91.600(2)
_cell_angle_gamma                90
_cell_formula_units_Z            2
_cell_length_a                   9.3329(10)
_cell_length_b                   7.5558(8)
_cell_length_c                   11.2150(12)
_cell_measurement_reflns_used    1823
_cell_measurement_temperature    298(2)
_cell_measurement_theta_max      27.531
_cell_measurement_theta_min      2.183
_cell_volume                     790.55(15)
_computing_cell_refinement       'SAINT V8.37A (Bruker, 2016)'
_computing_data_collection       'Apex2 (Bruker, 2016)'
_computing_data_reduction        'SAINT V8.37A (Bruker, 2016)'
_computing_structure_refinement
;  
SHELXL-2016/6 (Sheldrick, 2015, 2016), 
SHELXLE Rev714 (H\"ubschle et al., 2011)
;
_computing_structure_solution    'SHELXS-97 (Sheldrick, 2008)'
_diffrn_ambient_temperature      298(2)
_diffrn_measured_fraction_theta_full 0.999
_diffrn_measured_fraction_theta_max 0.996
_diffrn_measurement_device_type  'Bruker ApexII CCD diffractometer'
_diffrn_measurement_method       '0.5 wide w/ exposures'
_diffrn_radiation_type           MoK\a
_diffrn_radiation_wavelength     0.71073
_diffrn_reflns_av_R_equivalents  0.0530
_diffrn_reflns_av_unetI/netI     0.0308
_diffrn_reflns_Laue_measured_fraction_full 0.999
_diffrn_reflns_Laue_measured_fraction_max 0.996
_diffrn_reflns_limit_h_max       12
_diffrn_reflns_limit_h_min       -12
_diffrn_reflns_limit_k_max       9
_diffrn_reflns_limit_k_min       -9
_diffrn_reflns_limit_l_max       14
_diffrn_reflns_limit_l_min       -14
_diffrn_reflns_number            11337
_diffrn_reflns_point_group_measured_fraction_full 0.999
_diffrn_reflns_point_group_measured_fraction_max 0.996
_diffrn_reflns_theta_full        25.242
_diffrn_reflns_theta_max         27.531
_diffrn_reflns_theta_min         2.183
_diffrn_source                   'I-mu-S microsource X-ray tube'
_exptl_absorpt_coefficient_mu    12.548
_exptl_absorpt_correction_T_max  0.7456
_exptl_absorpt_correction_T_min  0.1831
_exptl_absorpt_correction_type   multi-scan
_exptl_absorpt_process_details
;
 SADABS 2016/2: Krause, L., Herbst-Irmer, R., Sheldrick G.M. & Stalke D.,
 J. Appl. Cryst. 48 (2015) 3-10
;
_exptl_crystal_colour            orange
_exptl_crystal_density_diffrn    4.233
_exptl_crystal_description       prism
_exptl_crystal_F_000             896
_exptl_crystal_size_max          0.08
_exptl_crystal_size_mid          0.06
_exptl_crystal_size_min          0.04
_refine_diff_density_max         1.772
_refine_diff_density_min         -1.434
_refine_diff_density_rms         0.306
_refine_ls_extinction_coef       0.0062(5)
_refine_ls_extinction_expression Fc^*^=kFc[1+0.001xFc^2^\l^3^/sin(2\q)]^-1/4^
_refine_ls_extinction_method     'SHELXL-2017/1 (Sheldrick 2017)'
_refine_ls_goodness_of_fit_ref   1.201
_refine_ls_hydrogen_treatment    undef
_refine_ls_matrix_type           full
_refine_ls_number_parameters     110
_refine_ls_number_reflns         1823
_refine_ls_number_restraints     0
_refine_ls_restrained_S_all      1.201
_refine_ls_R_factor_all          0.0302
_refine_ls_R_factor_gt           0.0269
_refine_ls_shift/su_max          0.001
_refine_ls_shift/su_mean         0.000
_refine_ls_structure_factor_coef Fsqd
_refine_ls_weighting_details
'w=1/[\s^2^(Fo^2^)+(0.0559P)^2^+1.4081P] where P=(Fo^2^+2Fc^2^)/3'
_refine_ls_weighting_scheme      calc
_refine_ls_wR_factor_gt          0.0794
_refine_ls_wR_factor_ref         0.0962
_reflns_Friedel_coverage         0.000
_reflns_number_gt                1708
_reflns_number_total             1823
_reflns_threshold_expression     'I > 2\s(I)'
_cod_data_source_file            ja7b09474_si_001.cif
_cod_data_source_block           b_a
_cod_database_code               4127112
_shelx_shelxl_version_number     2017/1
_shelx_space_group_comment
;
The symmetry employed for this shelxl refinement is uniquely defined
by the following loop, which should always be used as a source of
symmetry information in preference to the above space-group names.
They are only intended as comments.
;
_shelx_res_file
;
TITL b_a.res in P2(1)/c
    b_a.res
    created by SHELXL-2017/1 at 23:21:07 on 30-Aug-2017

CELL  0.71073   9.3329   7.5558  11.2150   90.000   91.600   90.000
ZERR    2.000   0.0010   0.0008   0.0012    0.000    0.002    0.000
LATT  1
SYMM -X, 1/2+Y, 1/2-Z
SFAC CR CS LA O
UNIT 8 4 4 32
ACTA
TEMP -273.150
L.S. 10
BOND $H
LIST 6
FMAP 2
PLAN 20
WGHT    0.055900    1.408100
EXTI    0.006186
FVAR       0.26431
LA1   3    0.447551    0.835463    0.653793    11.00000    0.00919    0.01046 =
         0.00890   -0.00030    0.00150   -0.00065
CS1   2    0.068950    0.153376    0.842315    11.00000    0.01579    0.02311 =
         0.01878    0.00179    0.00170   -0.00269
CR1   1    0.675106    0.662465    0.388984    11.00000    0.00904    0.00988 =
         0.00805    0.00048    0.00160    0.00109
O1    4    0.623045    0.678455    0.526557    11.00000    0.02050    0.02250 =
         0.01236   -0.00022    0.00618    0.00595
CR2   1    0.234929    0.670237    0.915224    11.00000    0.01040    0.01291 =
         0.00928    0.00003    0.00166    0.00116
O2    4    0.588931    0.497896    0.316516    11.00000    0.01740    0.01279 =
         0.01550    0.00099   -0.00475   -0.00217
O3    4    0.846378    0.640276    0.387098    11.00000    0.00986    0.02330 =
         0.02202    0.00100    0.00272    0.00134
O4    4    0.628376    0.840328    0.307990    11.00000    0.01787    0.01351 =
         0.01367    0.00100    0.00103    0.00086
O5    4    0.382178    0.548122    0.943670    11.00000    0.01763    0.02196 =
         0.01504    0.00071    0.00113    0.00984
O7    4    0.218543    0.773692    1.042636    11.00000    0.01888    0.02574 =
         0.01555   -0.00447    0.00114    0.00670
O8    4    0.260563    0.811759    0.805058    11.00000    0.02238    0.02022 =
         0.01837    0.00543    0.00872    0.00452
O6    4    0.097803    0.550377    0.885205    11.00000    0.02559    0.02777 =
         0.02946    0.00356   -0.00647   -0.00871
HKLF 4




REM  b_a.res in P2(1)/c
REM R1 =  0.0269 for    1708 Fo > 4sig(Fo)  and  0.0302 for all    1823 data
REM    110 parameters refined using      0 restraints

END

WGHT      0.0508      0.9216

REM Highest difference peak  1.772,  deepest hole -1.434,  1-sigma level  0.306
Q1    1   0.0603  0.2536  0.8419  11.00000  0.05    1.77
Q2    1   0.4462  0.9405  0.6520  11.00000  0.05    1.70
Q3    1   0.0651  0.0395  0.8440  11.00000  0.05    1.55
Q4    1   0.4437  0.7407  0.6472  11.00000  0.05    1.47
Q5    1  -0.0017  0.1728  0.8581  11.00000  0.05    1.29
Q6    1   0.1353  0.2196  0.8025  11.00000  0.05    1.14
Q7    1   0.3714  0.7518  0.6988  11.00000  0.05    1.07
Q8    1   0.3665  0.8319  0.6658  11.00000  0.05    1.06
Q9    1   0.1481  0.0704  0.7978  11.00000  0.05    1.05
Q10   1   0.0834  0.3983  0.8342  11.00000  0.05    0.98
Q11   1   0.5270  0.7456  0.5961  11.00000  0.05    0.86
Q12   1  -0.0541  0.3154  0.8406  11.00000  0.05    0.83
Q13   1   0.6760  0.7725  0.3811  11.00000  0.05    0.80
Q14   1  -0.0147  0.3700  0.7815  11.00000  0.05    0.78
Q15   1   0.0552 -0.0711  0.8178  11.00000  0.05    0.78
Q16   1   0.3704  0.9174  0.6977  11.00000  0.05    0.73
Q17   1   0.0651 -0.0861  0.8913  11.00000  0.05    0.70
Q18   1   0.5240  0.8405  0.6403  11.00000  0.05    0.64
Q19   1   0.4638  0.4397  0.9021  11.00000  0.05    0.63
Q20   1   0.9234  0.5193  0.3410  11.00000  0.05    0.63
;
_shelx_res_checksum              9408
_shelx_hkl_file
;
   1   0   0   -0.50    0.50
  -2   0   0  890.01   58.69
  -2   0   0  867.11   58.29
  -2   0   0  945.21   58.59
   2   0   0  802.42   58.19
   2   0   0  880.91   58.19
  -2   0   0 1070.79   58.29
   3   0   0    9.30    1.60
  -3   0   0   14.80    2.40
  -3   0   0   16.00    3.00
  -3   0   0   14.50    2.50
   3   0   0   11.00    1.80
   4   0   0   14.00    2.10
  -4   0   0   20.70    3.50
  -4   0   0   13.20    2.70
   4   0   0   17.30    2.30
   5   0   0   89.59    7.30
  -5   0   0  106.39    8.20
  -5   0   0   97.29    8.80
   5   0   0   93.29    7.20
   6   0   0 2339.27  152.68
  -6   0   0 2279.07  154.08
   6   0   0 2388.26  152.68
  -6   0   0 2526.35  153.68
  -7   0   0  359.56   27.50
   7   0   0  365.96   25.80
   7   0   0  402.16   25.80
  -7   0   0  408.86   26.90
  -8   0   0 1703.03  121.29
  -8   0   0 1848.42  120.39
   8   0   0 1959.90  119.49
   8   0   0 1899.91  119.49
   9   0   0  463.45   31.20
   9   0   0  490.25   31.20
  -9   0   0  427.46   33.30
  -9   0   0  464.35   32.40
 -10   0   0 1293.37   89.39
 -10   0   0 1307.77   88.69
  10   0   0 1396.56   87.59
  10   0   0 1384.86   87.69
 -11   0   0   65.69    9.90
  11   0   0   77.19    7.80
 -11   0   0   73.29   11.10
  11   0   0   78.69    8.60
 -12   0   0   -3.40    5.40
 -12   0   0   -7.60    7.50
  12   0   0    5.20    3.90
  12   0   0   11.90    4.70
   0  -1   0   -4.70    0.40
   0  -1   0   -3.60    0.60
   0   1   0   -2.80    0.60
   0   1   0   -4.50    0.50
  -1  -1   0   11.70    1.70
   1  -1   0   10.60    0.80
  -1  -1   0    9.10    0.90
  -1  -1   0   12.00    1.00
   1  -1   0    9.10    1.30
   1  -1   0    9.20    0.80
  -1  -1   0    9.80    0.90
   1   1   0    9.90    0.90
  -1   1   0   10.70    1.40
  -1   1   0    8.90    0.90
  -1   1   0    8.50    0.80
   1   1   0    7.60    0.80
   2  -1   0 1168.28   65.69
   2  -1   0 1083.29   65.39
  -2  -1   0 1018.30   65.49
  -2  -1   0  919.01   65.29
   2   1   0 1080.59   65.49
   2   1   0 1031.60   65.49
  -2   1   0 1000.40   65.29
  -2   1   0  983.00   65.39
  -2   1   0 1001.70   65.39
   2   1   0  918.51   65.29
  -2   1   0 1043.90   65.59
  -3  -1   0  969.50   65.89
   3  -1   0 1094.49   64.39
  -3  -1   0 1040.70   64.59
  -3  -1   0  998.60   64.29
   3  -1   0  858.21   64.59
   3  -1   0  944.81   64.39
  -3   1   0 1027.90   64.39
   3   1   0  992.50   64.29
   3   1   0 1044.00   64.59
  -3   1   0 1122.29   64.89
  -3   1   0  955.20   64.29
  -4  -1   0 5897.21  379.76
   4  -1   0 5469.95  379.76
   4  -1   0 5045.20  379.36
  -4   1   0 6742.03  380.16
  -4   1   0 6123.29  379.76
   4   1   0 6427.66  380.16
   4   1   0 5980.40  379.56
   5  -1   0 1731.13  119.29
   5  -1   0 1775.32  119.59
  -5  -1   0 1752.92  119.69
   5   1   0 1837.72  119.49
  -5   1   0 2066.39  120.09
  -5   1   0 1947.51  120.19
   5   1   0 1926.01  119.19
   6  -1   0 1173.88   75.99
   6  -1   0 1128.89   75.69
  -6  -1   0 1018.40   77.59
  -6  -1   0 1142.19   76.29
  -6   1   0 1264.57   76.79
  -6   1   0 1281.27   76.79
   6   1   0 1156.58   75.89
   6   1   0 1218.88   75.59
   7  -1   0   10.10    2.30
  -7  -1   0    5.70    2.80
  -7  -1   0    9.30    5.30
  -7   1   0    7.30    2.90
   7   1   0    8.50    1.80
   7   1   0    3.60    2.30
  -7   1   0    8.60    3.30
   8  -1   0   93.59    7.80
  -8  -1   0   78.39   10.80
  -8  -1   0   94.19    9.00
  -8   1   0   95.89    9.90
  -8   1   0   85.49    8.90
   8   1   0  102.59    7.50
   8   1   0   86.39    7.80
   9  -1   0  573.74   36.20
   9  -1   0  560.74   36.30
  -9  -1   0  502.95   38.60
  -9  -1   0  550.44   37.30
   9   1   0  520.45   36.20
  -9   1   0  518.35   37.30
  -9   1   0  539.25   37.80
   9   1   0  554.14   35.90
  10  -1   0  420.56   27.30
 -10  -1   0  406.16   28.50
 -10  -1   0  388.16   30.20
  10  -1   0  406.46   27.40
 -10   1   0  354.06   28.30
  10   1   0  401.06   26.90
 -10   1   0  417.86   29.60
  10   1   0  367.66   27.20
  11  -1   0   30.60    5.20
 -11  -1   0   21.60    6.20
 -11  -1   0   33.70    8.30
  11  -1   0   36.30    5.30
  11   1   0   33.10    5.10
  11   1   0   33.40    5.30
 -11   1   0   23.70    6.10
 -11   1   0   41.70    8.10
 -12  -1   0  547.35   39.90
  12  -1   0  552.34   37.30
 -12  -1   0  536.75   38.80
  12  -1   0  551.44   37.30
  12   1   0  533.95   37.70
  12   1   0  530.85   36.60
   0  -2   0 3560.94  215.78
   0  -2   0 3563.54  215.78
   0   2   0 3559.84  216.18
   0   2   0 3198.08  215.68
   0   2   0 3028.70  215.78
   1  -2   0   68.89    5.10
  -1  -2   0   61.79    5.80
   1  -2   0   64.59    5.80
   1  -2   0   75.59    5.00
  -1  -2   0   66.19    5.10
  -1  -2   0   82.69    5.40
  -1   2   0   79.69    5.20
   1   2   0   76.39    5.10
   1   2   0   72.89    5.00
  -1   2   0   74.79    5.00
  -1   2   0   87.39    5.30
  -2  -2   0    7.60    1.20
   2  -2   0    7.10    0.90
  -2  -2   0   10.20    1.20
  -2  -2   0    4.80    1.90
   2  -2   0    8.20    1.80
   2   2   0    6.70    1.10
  -2   2   0    5.60    1.10
   2   2   0    6.50    1.00
  -2   2   0    9.20    1.00
   2   2   0    9.10    1.20
  -3  -2   0   10.10    1.50
   3  -2   0   11.30    1.50
   3  -2   0    9.20    2.00
  -3  -2   0   10.60    1.80
  -3  -2   0   13.60    3.30
   3  -2   0   10.30    1.40
   3   2   0   11.20    1.40
  -3   2   0   13.60    1.70
  -3   2   0   13.20    1.80
  -3   2   0   11.40    1.50
   3   2   0   10.70    1.60
   4  -2   0  391.56   25.90
   4  -2   0  350.26   26.50
  -4  -2   0  414.36   26.20
  -4  -2   0  360.36   28.20
  -4   2   0  414.06   26.40
  -4   2   0  414.86   25.80
   4   2   0  401.26   26.20
   4   2   0  407.76   25.80
   5  -2   0   23.10    2.80
  -5  -2   0   22.50    3.20
  -5  -2   0   18.90    5.50
   5  -2   0   21.20    3.60
  -5   2   0   25.20    2.80
   5   2   0   23.00    3.00
  -5   2   0   23.10    3.50
   5   2   0   20.30    2.30
   6  -2   0  161.88   12.30
   6  -2   0  161.58   11.50
  -6  -2   0  179.08   12.20
   6   2   0  191.28   11.40
  -6   2   0  125.99   13.10
  -6   2   0  175.18   12.10
   6   2   0  138.39   12.20
   7  -2   0   54.39    5.10
  -7  -2   0   47.20    5.70
  -7  -2   0   36.80    8.10
   7  -2   0   52.69    5.40
   7   2   0   47.20    5.20
  -7   2   0   59.19    6.50
   7   2   0   48.50    4.40
  -7   2   0   50.99    6.10
   8  -2   0  344.87   22.40
  -8  -2   0  283.17   24.10
   8  -2   0  335.47   22.90
  -8  -2   0  305.37   25.80
   8   2   0  330.37   22.70
   8   2   0  327.87   21.90
  -8   2   0  362.16   23.70
  -8   2   0  320.17   23.60
  -9  -2   0  194.88   15.50
  -9  -2   0  183.98   18.40
   9  -2   0  198.48   15.10
   9  -2   0  214.88   14.90
  -9   2   0  208.58   17.00
  -9   2   0  195.68   16.00
   9   2   0  195.98   14.00
   9   2   0  195.78   14.80
 -10  -2   0  405.16   31.70
 -10  -2   0  389.26   29.00
  10  -2   0  449.16   28.20
  10  -2   0  440.06   28.50
 -10   2   0  440.46   29.90
 -10   2   0  366.06   29.10
  10   2   0  371.26   28.00
  10   2   0  398.96   27.40
 -11  -2   0   10.50    5.70
 -11  -2   0   12.40    7.40
  11  -2   0    9.80    3.80
  11  -2   0   17.10    4.50
 -11   2   0   10.80    5.30
  11   2   0   11.10    4.00
  11   2   0    8.70    3.20
   0  -3   0   -8.40    1.70
   0  -3   0   -6.80    1.00
   0   3   0   -7.40    0.60
   0   3   0   -7.10    0.60
  -1  -3   0   95.69    7.30
   1  -3   0   89.19    6.60
  -1  -3   0   84.29    7.60
   1   3   0   92.49    6.50
  -1   3   0   99.09    6.40
   1   3   0   91.39    6.50
  -1   3   0  104.29    6.70
  -2  -3   0  168.28   11.40
   2  -3   0  158.48   11.00
   2  -3   0  137.49   12.10
  -2   3   0  185.78   11.40
   2   3   0  172.98   11.20
   2   3   0  169.18   11.00
  -2   3   0  167.28   10.90
   3  -3   0   24.70    2.30
   3  -3   0   23.40    3.80
  -3  -3   0   22.80    4.40
  -3  -3   0   24.80    2.50
   3   3   0   22.70    2.30
  -3   3   0   27.00    2.70
  -3   3   0   27.00    2.30
   3   3   0   28.90    2.80
   4  -3   0   30.90    4.50
  -4  -3   0   24.60    5.40
   4  -3   0   38.00    3.10
   4   3   0   37.10    3.10
  -4   3   0   36.40    3.70
   4   3   0   34.70    3.60
  -4   3   0   40.50    3.40
  -5  -3   0   56.09    5.00
   5  -3   0   52.69    5.70
  -5  -3   0   53.19    8.30
   5  -3   0   59.69    4.50
  -5   3   0   54.99    4.30
   5   3   0   51.39    4.20
  -5   3   0   50.19    5.20
   5   3   0   49.00    4.70
   6  -3   0   19.10    3.60
  -6  -3   0    9.30    5.50
   6  -3   0   21.00    2.60
   6   3   0   20.10    2.40
  -6   3   0   18.70    2.90
   6   3   0   13.70    2.40
  -6   3   0   14.80    3.10
   7  -3   0    9.90    3.20
  -7  -3   0    5.50    5.90
   7  -3   0    7.70    2.30
  -7  -3   0    4.80    2.50
   7   3   0    5.30    1.60
   7   3   0    1.80    2.00
  -7   3   0    2.80    2.50
  -7   3   0    6.30    2.70
  -8  -3   0   11.00    3.60
  -8  -3   0   12.60    7.00
   8  -3   0   14.70    3.70
   8  -3   0   13.40    3.10
  -8   3   0   11.50    3.80
  -8   3   0   19.90    4.20
   8   3   0   13.70    3.00
   8   3   0    8.50    2.10
  -9  -3   0    2.00    3.60
  -9  -3   0   16.70    6.90
   9  -3   0   10.00    3.40
   9  -3   0    3.70    3.10
   9   3   0    3.40    3.00
  -9   3   0    9.20    4.90
   9   3   0    7.20    3.00
  -9   3   0    1.90    3.60
 -10  -3   0    4.70    4.40
 -10  -3   0    5.90    7.40
  10  -3   0    3.90    3.60
  10  -3   0    5.40    3.80
 -10   3   0    9.80    4.70
  10   3   0    6.10    3.20
  10   3   0    3.50    2.40
 -11  -3   0   32.80    6.90
 -11  -3   0   46.40   10.70
  11  -3   0   29.90    6.50
 -11   3   0   25.10    7.60
   0  -4   0 3080.09  211.48
   0   4   0 3493.05  210.98
   0   4   0 3348.06  211.08
   1  -4   0    8.10    3.10
  -1  -4   0   12.10    3.00
  -1  -4   0   10.10    2.50
   1  -4   0   10.30    1.70
  -1   4   0   12.60    1.50
  -1   4   0   13.90    1.90
   1   4   0    8.70    1.40
   1   4   0   10.70    1.60
   2  -4   0  478.05   30.30
  -2  -4   0  383.66   31.90
  -2  -4   0  448.06   31.20
   2   4   0  512.35   30.50
  -2   4   0  479.45   30.70
  -2   4   0  466.75   30.10
   2   4   0  487.85   30.30
   3  -4   0    3.40    1.10
  -3  -4   0    2.20    3.60
  -3  -4   0    3.50    1.80
   3  -4   0    5.20    2.50
  -3   4   0    1.80    0.90
  -3   4   0    3.30    1.50
   3   4   0    4.80    1.00
   3   4   0    5.90    1.30
  -4  -4   0   15.90    2.60
  -5  -4   0  272.97   17.80
   5  -4   0  296.07   17.40
   5  -4   0  257.57   19.30
  -5  -4   0  208.58   20.80
  -5   4   0  257.27   17.60
   5   4   0  259.47   17.30
   5   4   0  254.97   18.00
  -5   4   0  261.17   18.30
   6  -4   0  257.67   17.50
  -6  -4   0  262.07   17.90
   6  -4   0  259.57   19.20
  -6   4   0  250.87   18.40
  -6   4   0  267.97   17.40
   6   4   0  247.18   18.10
   6   4   0  257.07   17.20
  -7  -4   0   98.29    8.40
  -7  -4   0   63.79   11.50
   7  -4   0  106.99    7.90
   7  -4   0   96.19    9.30
   7   4   0   95.99    7.10
   7   4   0   93.79    8.10
  -7   4   0  100.59    7.80
  -7   4   0   90.69    8.90
   8  -4   0  832.82   53.69
  -8  -4   0  652.23   53.19
   8  -4   0  886.11   52.09
   8   4   0  800.92   51.49
  -8   4   0  768.52   53.39
  -8   4   0  877.81   52.49
   8   4   0  732.33   52.49
   9  -4   0   65.49    7.20
  -9  -4   0   45.90    7.30
  -9  -4   0   74.69   12.30
   9  -4   0   62.99    8.00
  -9   4   0   54.69    8.50
   9   4   0   44.40    6.60
 -10  -4   0  499.55   36.40
  10  -4   0  481.85   31.80
 -10   4   0  384.26   31.90
  10   4   0  429.56   30.90
 -11  -4   0   66.59   12.00
  11  -4   0   37.60    6.90
  11   4   0   30.20    5.70
 -11   4   0   40.80    7.80
   0  -5   0    4.80    3.40
  -1  -5   0  176.28   15.30
   1  -5   0  200.48   13.60
  -1  -5   0  199.18   14.70
  -1   5   0  207.28   13.70
   1   5   0  209.58   13.50
  -1   5   0  195.08   13.20
   1   5   0  195.78   13.40
  -2  -5   0  667.73   50.99
   2  -5   0  769.02   49.50
  -2  -5   0  710.63   51.29
   2   5   0  811.82   49.60
   2   5   0  789.52   49.60
  -2   5   0  780.62   49.30
  -2   5   0  820.92   49.99
   3  -5   0  275.27   21.60
  -3  -5   0  244.08   21.80
   3  -5   0  307.37   19.40
  -3  -5   0  297.67   21.00
   3   5   0  289.47   19.70
   3   5   0  306.97   19.40
  -3   5   0  303.57   19.20
  -3   5   0  295.47   19.90
   4  -5   0 3642.24  250.07
   4  -5   0 4016.00  247.88
  -4  -5   0 3762.32  248.98
  -4   5   0 3900.81  248.68
   4   5   0 3939.81  247.98
   4   5   0 3887.91  248.48
  -4   5   0 4044.30  247.88
   5  -5   0  764.72   45.70
  -5  -5   0  720.43   46.80
   5  -5   0  692.63   48.00
  -5  -5   0  584.74   49.50
  -5   5   0  713.23   45.90
   5   5   0  730.53   45.80
  -5   5   0  739.13   46.80
   5   5   0  680.43   46.40
  -6  -5   0  995.70   67.99
   6  -5   0  987.90   67.29
   6  -5   0 1105.99   69.79
  -6  -5   0  890.21   71.59
  -6   5   0 1131.49   67.29
   6   5   0 1056.09   68.19
  -6   5   0 1052.89   68.49
   6   5   0 1103.59   67.29
   7  -5   0   26.60    3.80
  -7  -5   0   30.20    4.90
  -7  -5   0   22.90    8.70
  -7  -5   0   22.80    3.90
   7  -5   0   33.10    5.80
   7   5   0   28.30    4.20
  -7   5   0   28.10    4.30
  -7   5   0   29.50    5.00
  -8  -5   0    8.30    7.70
  -8  -5   0   17.30    5.80
   8  -5   0   19.70    5.40
   8  -5   0   15.60    3.60
  -8   5   0   17.00    4.40
   8   5   0   16.10    3.60
   9  -5   0  496.75   33.30
  -9  -5   0  473.65   38.10
   9   5   0  432.26   31.70
  -9   5   0  438.66   33.00
  10  -5   0  324.67   23.90
 -10  -5   0  361.36   30.50
  10   5   0  298.77   22.80
 -10   5   0  283.07   24.30
   0  -6   0 4856.71  349.27
   0   6   0 6017.00  347.17
   0   6   0 5450.25  347.47
   1  -6   0  329.37   22.20
  -1  -6   0  306.37   24.30
  -1  -6   0  334.17   23.20
  -1   6   0  342.97   21.80
  -1   6   0  328.57   22.30
   1   6   0  343.37   22.10
   1   6   0  319.17   21.80
  -2  -6   0  398.56   31.00
   2  -6   0  448.26   28.80
  -2  -6   0  426.96   30.60
  -2   6   0  428.86   29.20
   2   6   0  433.06   28.80
   2   6   0  468.55   28.90
  -2   6   0  444.76   28.50
  -3  -6   0    8.70    5.00
   3  -6   0    5.40    4.10
  -3  -6   0   -2.20    3.80
   3  -6   0    0.80    1.30
   3   6   0    3.40    1.50
   3   6   0    2.00    1.50
  -3   6   0    0.20    1.90
  -3   6   0    1.80    1.20
   4  -6   0   32.60    3.30
  -4  -6   0   33.70    6.60
  -4  -6   0   50.99    8.30
   4  -6   0   50.79    6.90
  -4   6   0   27.00    3.30
   4   6   0   29.40    4.00
  -4   6   0   37.60    4.70
   4   6   0   31.90    3.70
  -5  -6   0   73.79    9.10
   5  -6   0   60.89    5.00
  -5  -6   0   49.80    9.30
   5  -6   0   58.29    8.70
   5   6   0   47.20    5.50
   5   6   0   59.49    5.40
  -5   6   0   67.29    6.70
  -5   6   0   68.79    5.40
   6  -6   0  628.54   42.90
  -6  -6   0  560.24   45.90
  -6  -6   0  682.13   42.20
   6  -6   0  654.83   39.90
  -6   6   0  580.64   41.30
   6   6   0  603.24   40.10
   6   6   0  572.24   40.90
  -6   6   0  609.94   40.20
   7  -6   0   22.90    5.30
  -7  -6   0    6.80    8.60
  -7   6   0   12.10    3.90
   7   6   0   20.00    4.00
   8  -6   0 1118.19   66.19
  -8  -6   0  834.42   69.19
   8   6   0  971.10   63.79
  -8   6   0  919.01   64.59
  -9  -6   0  379.76   35.00
   9  -6   0  406.66   28.50
  -9   6   0  347.27   28.00
   9   6   0  361.46   26.60
   0  -7   0   -0.60    2.00
   0  -7   0    8.50    4.80
   0   7   0   -3.10    1.80
   0   7   0    0.80    1.30
   1  -7   0   43.10    7.40
   1  -7   0   37.10    4.30
  -1  -7   0   38.80    7.00
  -1  -7   0   40.90    5.60
   1   7   0   39.10    4.40
  -1   7   0   42.00    3.80
   1   7   0   39.80    3.90
  -1   7   0   36.90    4.60
   2  -7   0  112.09    8.30
   2  -7   0   93.99   11.50
  -2  -7   0  109.19   10.40
   2   7   0  107.19    8.40
   2   7   0  113.29    8.20
  -2   7   0  106.79    8.80
  -2   7   0  106.89    7.80
  -3  -7   0   12.20    4.90
   3  -7   0    7.60    5.10
  -3  -7   0    9.90    6.80
   3  -7   0    5.00    1.80
   3   7   0    3.30    1.80
  -3   7   0    3.30    2.40
  -3   7   0    5.20    1.70
   3   7   0   12.40    2.60
  -4  -7   0 1266.57   87.39
  -4  -7   0 1488.75   87.49
   4  -7   0 1245.88   86.89
  -4   7   0 1298.17   84.79
   4   7   0 1305.97   84.39
   4   7   0 1216.78   84.59
  -5  -7   0  609.44   48.00
   5  -7   0  635.04   43.00
  -5  -7   0  772.82   49.60
   5  -7   0  649.43   46.50
  -5   7   0  649.24   44.40
   5   7   0  658.03   43.90
   5   7   0  674.73   43.90
  -6  -7   0  366.66   32.70
   6  -7   0  420.96   29.90
   6   7   0  399.46   27.10
  -6   7   0  369.86   27.60
  -7   7   0   -3.80    6.40
   7   7   0    6.60    4.50
   8  -7   0   59.79    9.30
  -8  -7   0   54.79   14.00
   8   7   0   54.89    7.70
  -8   7   0   47.40    7.60
   0  -8   0  304.17   23.40
   0  -8   0  276.97   20.00
   0   8   0  263.97   19.70
   0   8   0  295.37   19.30
  -1  -8   0  163.58   13.00
  -1  -8   0  188.18   16.60
   1  -8   0  182.28   16.10
   1  -8   0  158.48   12.10
   1   8   0  159.88   11.60
   1   8   0  162.58   12.20
  -1   8   0  141.59   12.30
  -1   8   0  158.58   11.40
   2  -8   0    0.90    5.10
  -2  -8   0    1.40    3.60
   2  -8   0   -0.90    2.10
  -2  -8   0    3.80    8.20
   2   8   0    1.90    2.60
  -2   8   0    4.00    1.80
  -2   8   0    0.60    2.40
   2   8   0    0.80    1.80
  -3  -8   0    3.20    4.30
  -3  -8   0    0.00    7.40
   3  -8   0    6.30    2.10
   3  -8   0   13.30    6.30
   3   8   0    1.80    2.80
  -3   8   0    2.00    1.90
  -3   8   0    5.80    3.00
   3   8   0    1.80    2.00
   4  -8   0   45.80    4.90
   4  -8   0   55.69    8.50
  -4  -8   0   43.40    8.40
  -4   8   0   39.30    6.40
  -4   8   0   51.89    5.00
   4   8   0   53.39    5.60
   4   8   0   61.99    6.30
  -5  -8   0    2.30    7.00
   5  -8   0   12.30    7.00
   5   8   0    2.70    2.80
  -5   8   0    0.30    3.70
   6  -8   0   15.80    7.10
  -6  -8   0   18.60    9.40
  -6   8   0   12.40    4.60
   6   8   0   19.30    4.20
  -7  -8   0    7.10   10.90
   7  -8   0   13.00    7.10
   7   8   0   10.00    4.10
  -7   8   0   -1.70    5.00
   0  -9   0   -1.10    6.50
   0  -9   0    0.20    3.20
   0   9   0   -3.00    3.20
   0   9   0    2.80    2.30
  -1  -9   0   55.39    7.30
   1  -9   0   64.89   10.40
   1  -9   0   46.80    6.20
  -1  -9   0   69.29   10.90
   1   9   0   44.30    5.30
   1   9   0   50.49    6.70
  -1   9   0   46.40    6.50
  -1   9   0   49.40    5.20
  -2  -9   0   79.29    9.50
   2  -9   0   83.29    7.70
  -2  -9   0  125.89   15.10
   2  -9   0  111.39   14.00
  -2   9   0   76.19    7.10
   2   9   0   69.79    8.20
  -2   9   0   81.59    8.70
   2   9   0   80.39    7.30
  -3  -9   0   16.70    5.80
   3  -9   0   15.20    3.40
   3  -9   0   22.50    8.10
  -3   9   0   18.20    3.40
  -3   9   0   18.80    4.30
   3   9   0   15.50    3.40
   3   9   0   23.90    6.70
   4  -9   0  209.58   19.30
  -4  -9   0  166.38   18.00
   4   9   0  208.08   14.70
 -12   0   1    3.60    5.60
  12   0  -1   -3.40    4.10
 -12   0   1    5.00    7.30
  12   0  -1    3.40    3.70
 -11   0   1    0.60    6.00
  11   0  -1   -5.90    3.30
  11   0  -1    6.60    3.30
 -11   0   1   -4.30    4.80
  10   0  -1    2.90    2.40
  10   0  -1   -0.40    2.70
 -10   0   1    2.50    4.50
 -10   0   1   -1.30    5.60
  -9   0   1   -5.10    4.80
   9   0  -1    1.70    2.00
  -9   0   1   -3.90    3.80
  -8   0   1    1.70    4.70
   8   0  -1   -1.10    2.00
  -8   0   1    4.10    3.40
   7   0  -1    2.10    1.50
   7   0  -1    4.30    2.20
  -7   0   1    7.00    4.10
   6   0  -1   -0.70    1.30
   6   0  -1   -0.10    1.50
  -6   0   1   -1.20    2.40
  -6   0   1   -1.60    3.30
  -5   0   1    5.70    3.20
  -5   0   1    3.10    2.60
   4   0  -1    0.40    0.90
   4   0  -1    0.20    0.90
  -4   0   1    1.90    1.90
  -4   0   1   -1.00    2.20
  -3   0   1    3.10    1.60
   3   0  -1   -0.70    1.50
   3   0  -1    1.60    0.90
  -3   0   1    2.10    1.90
  -2   0   1   -1.60    1.30
   2   0  -1   -3.70    1.00
  -2   0   1   -3.70    0.80
  -2   0   1   -1.30    0.70
   2   0  -1   -3.50    0.90
   2   0  -1   -3.30    0.60
   2   0  -1   -4.30    0.50
  -2   0   1   -2.60    0.90
  -1   0   1  -12.50    0.50
   1   0  -1  -11.60    0.60
   1   0  -1  -12.40    0.40
  -1   0   1  -11.30    0.70
  -1   0   1  -10.30    1.00
   1   0   1   13.20    1.30
  -1   0  -1   11.20    1.40
  -2   0  -1   -4.60    0.50
  -2   0  -1   -5.50    0.50
   2   0   1   -5.30    0.80
   2   0   1   -5.00    0.50
  -2   0  -1   -5.70    0.70
  -2   0  -1   -5.90    0.50
   2   0   1   -3.50    0.50
   2   0   1   -5.30    0.60
  -3   0  -1   -3.30    0.90
  -3   0  -1   -4.80    1.10
   3   0   1   -0.80    1.20
   3   0   1   -4.90    0.70
  -4   0  -1    5.30    1.70
  -4   0  -1    2.20    1.90
   4   0   1    5.70    1.30
   5   0   1    6.00    1.50
  -5   0  -1    1.30    2.40
  -5   0  -1    2.80    1.60
   5   0   1    1.60    1.30
   6   0   1    0.50    1.40
  -6   0  -1    0.50    2.00
   6   0   1    0.30    1.40
  -6   0  -1   -0.90    3.00
  -7   0  -1   11.20    3.10
   7   0   1    4.50    2.00
  -7   0  -1   15.10    4.70
   7   0   1    7.40    1.90
  -8   0  -1    2.30    4.20
   8   0   1    3.10    2.00
   8   0   1   -1.80    2.30
  -8   0  -1    1.50    2.80
   9   0   1    7.10    2.90
  -9   0  -1   30.80    5.00
  -9   0  -1   14.70    5.60
 -10   0  -1    4.20    6.10
 -10   0  -1    2.80    3.90
  10   0   1    0.30    3.20
  10   0   1    4.30    2.70
  11   0   1   -0.80    3.20
  11   0   1    5.30    4.00
 -11   0  -1   -5.00    4.40
 -11   0  -1    4.50    6.90
 -12   0  -1    1.90    5.70
  12   0   1    1.90    3.80
 -12   0  -1   11.50    8.90
  12   0   1   -3.00    4.70
  12  -1  -1   29.20    5.00
 -12  -1   1   39.20    9.20
  12  -1  -1   21.60    5.30
 -12  -1   1   16.40    6.60
  12   1  -1   21.10    5.10
 -12   1   1   26.50    6.90
  11  -1  -1   12.30    4.10
 -11  -1   1   20.30    7.40
 -11  -1   1   10.00    5.80
  11  -1  -1    9.10    3.60
 -11   1   1   12.30    6.80
 -11   1   1   10.90    5.40
  11   1  -1   15.90    3.60
  10  -1  -1  346.87   24.10
 -10  -1   1  348.77   26.80
  10  -1  -1  351.66   24.20
 -10  -1   1  360.76   26.10
  10   1  -1  351.66   23.70
 -10   1   1  342.17   26.10
 -10   1   1  333.67   25.60
  10   1  -1  337.57   24.10
  -9  -1   1   88.89   11.70
  -9  -1   1  109.49   10.30
   9  -1  -1  104.59    8.50
   9  -1  -1   98.09    8.60
   9   1  -1   88.19    8.40
   9   1  -1  104.69    8.00
  -9   1   1  100.69   10.40
   8  -1  -1    1.00    2.00
   8  -1  -1    0.10    2.10
  -8  -1   1    3.40    4.80
  -8  -1   1   -0.20    3.10
   8   1  -1    2.00    2.10
   8   1  -1    3.20    1.80
  -8   1   1    0.30    3.20
  -8   1   1    1.00    4.10
   7  -1  -1  443.36   29.90
   7  -1  -1  461.85   30.10
  -7  -1   1  450.85   31.00
  -7  -1   1  408.76   32.20
  -7   1   1  460.95   31.20
   7   1  -1  483.75   29.60
   7   1  -1  423.06   29.90
  -7   1   1  453.15   31.20
   6  -1  -1  147.89   10.80
  -6  -1   1  141.79   11.60
  -6  -1   1  126.99   13.20
   6  -1  -1  153.78   11.00
  -6   1   1  155.38   12.10
   6   1  -1  148.69   10.80
   6   1  -1  154.48   10.40
  -6   1   1  164.38   12.10
   5  -1  -1 1784.72  119.59
   5  -1  -1 1785.82  119.39
  -5  -1   1 1717.63  119.89
  -5   1   1 2001.30  120.59
  -5   1   1 1932.71  120.19
   5   1  -1 1908.91  119.09
   5   1  -1 1910.61  119.59
   4  -1  -1  124.19   10.20
   4  -1  -1  170.78   10.10
  -4  -1   1  139.29   10.60
  -4  -1   1  167.68   10.20
   4  -1  -1  140.79   10.10
  -4  -1   1  128.59   11.80
  -4   1   1  150.78   10.80
   4   1  -1  149.49   10.30
   4   1  -1  139.79    9.80
  -4   1   1  149.99   11.20
  -3  -1   1  255.97   15.90
   3  -1  -1  231.88   16.00
   3  -1  -1  228.88   16.30
  -3  -1   1  231.38   16.30
  -3  -1   1  248.28   17.40
  -3   1   1  259.37   16.30
  -3   1   1  247.18   16.80
   3   1  -1  235.58   15.70
  -2  -1   1   74.69    6.30
  -2  -1   1   74.09    5.50
   2  -1  -1   78.39    5.30
  -2  -1   1   72.29    5.10
   2   1  -1   74.69    5.50
  -2   1   1   71.89    5.00
   2   1  -1   83.39    5.50
  -2   1   1   89.79    5.30
   2   1  -1   70.49    5.00
  -2   1   1   80.29    5.40
  -2   1   1   75.39    5.90
   1  -1  -1  699.83   40.10
  -1  -1   1  678.43   40.00
  -1  -1   1  578.24   39.90
   1  -1  -1  610.44   39.80
   1  -1  -1  544.45   39.60
  -1   1   1  637.14   40.20
   1   1  -1  595.54   39.90
  -1   1   1  549.85   39.80
  -1   1   1  696.53   40.60
   1   1  -1  588.44   39.90
   1   1  -1  650.63   40.30
   0  -1  -1    2.90    0.50
   0  -1   1    2.20    0.40
   0  -1  -1    3.40    0.50
   0  -1  -1    3.40    0.90
   0  -1   1    2.40    0.40
   0  -1  -1    2.20    0.40
   0  -1   1    1.40    0.40
   0   1  -1    0.90    0.40
   0   1  -1    2.10    0.40
   0   1   1    4.20    1.10
   0   1   1    2.00    0.40
   0   1   1    2.20    0.50
   0   1  -1    2.10    0.50
  -1  -1  -1  670.93   41.30
   1  -1   1  678.53   41.20
   1  -1   1  632.04   41.20
   1   1   1  587.44   40.90
  -1   1  -1  704.53   41.30
   1   1   1  643.24   41.20
  -1   1  -1  582.74   41.20
  -2  -1  -1   19.80    3.30
   2  -1   1   19.10    1.50
   2  -1   1   23.00    1.80
  -2  -1  -1   18.10    1.80
  -2  -1  -1   17.90    1.70
   2  -1   1   21.90    1.60
  -2   1  -1   19.40    1.80
   2   1   1   25.00    2.00
  -2   1  -1   20.30    1.90
   2   1   1   24.10    4.50
   2   1   1   16.50    1.70
   2   1   1   19.50    1.80
   3  -1   1 1882.71  138.19
  -3  -1  -1 2108.99  139.29
  -3  -1  -1 2192.88  137.89
   3  -1   1 2050.59  137.79
  -3   1  -1 2210.58  137.99
   3   1   1 2298.37  137.99
   3   1   1 2238.28  137.89
  -3   1  -1 2283.47  137.99
   4  -1   1   60.09    4.70
   4  -1   1   58.19    5.10
  -4  -1  -1   60.09    5.00
  -4  -1  -1   62.69    6.90
  -4   1  -1   65.99    4.90
   4   1   1   64.49    4.90
   4   1   1   57.79    4.70
  -4   1  -1   65.39    5.00
   5  -1   1  384.96   25.80
   5  -1   1  383.86   26.20
  -5  -1  -1  354.06   27.60
  -5  -1  -1  371.96   26.10
  -5   1  -1  414.26   26.20
   5   1   1  390.06   25.90
  -5   1  -1  434.76   26.40
   5   1   1  394.96   25.80
  -6  -1  -1    5.00    2.10
   6  -1   1    7.40    1.70
   6  -1   1   10.20    2.20
  -6  -1  -1    3.00    3.90
   6   1   1    6.90    1.80
  -6   1  -1    5.00    2.20
   6   1   1    5.30    1.50
  -6   1  -1    5.50    2.70
  -7  -1  -1    4.90    3.90
  -7  -1  -1    4.60    2.60
   7  -1   1    4.70    1.90
   7  -1   1    6.00    2.00
   7   1   1    5.80    3.00
  -7   1  -1    3.20    3.00
   7   1   1    8.40    1.90
  -8  -1  -1  225.28   19.90
   8  -1   1  258.47   17.40
   8  -1   1  243.38   17.50
  -8  -1  -1  261.97   18.10
   8   1   1  256.47   17.20
  -8   1  -1  245.28   18.20
   8   1   1  218.78   17.30
  -8   1  -1  255.87   18.90
  -9  -1  -1  227.68   20.40
   9  -1   1  243.68   17.40
   9  -1   1  240.68   17.50
  -9  -1  -1  243.28   18.20
   9   1   1  235.68   17.50
  -9   1  -1  236.48   18.40
  -9   1  -1  250.07   19.30
   9   1   1  255.07   17.20
 -10  -1  -1   55.99    9.60
  10  -1   1   67.49    7.00
  10  -1   1   65.09    7.80
 -10  -1  -1   58.79    8.50
  10   1   1   62.99    6.50
 -10   1  -1   56.59    8.40
  10   1   1   57.09    7.00
 -10   1  -1   74.09   10.80
 -11  -1  -1  328.97   24.40
 -11  -1  -1  329.67   26.60
  11  -1   1  335.57   23.30
  11  -1   1  323.57   23.30
  11   1   1  304.47   23.10
  11   1   1  317.47   22.70
 -11   1  -1  375.76   26.50
 -11   1  -1  286.47   24.10
  12  -1   1  136.69   15.40
 -12  -1  -1  149.59   15.10
 -12  -1  -1  163.48   18.30
  12   1   1  148.09   12.30
 -12   1  -1  131.49   18.00
 -11  -2   1 1049.79   64.29
  11  -2  -1  914.51   60.99
  11  -2  -1  990.90   60.79
 -11  -2   1  917.31   62.29
  11   2  -1  874.31   60.69
 -11   2   1  785.82   61.89
 -10  -2   1  167.58   15.00
 -10  -2   1  192.48   18.10
  10  -2  -1  187.38   13.50
  10  -2  -1  166.28   13.40
  10   2  -1  163.98   12.30
  10   2  -1  153.98   13.10
 -10   2   1  182.78   15.40
 -10   2   1  163.28   14.90
  -9  -2   1 1239.48   84.89
   9  -2  -1 1350.06   82.19
   9  -2  -1 1318.27   82.59
  -9  -2   1 1136.59   82.99
   9   2  -1 1218.18   82.19
  -9   2   1 1210.38   83.49
  -9   2   1 1368.86   83.29
   9   2  -1 1269.57   81.49
   8  -2  -1   89.69    7.40
  -8  -2   1   90.89   11.50
   8  -2  -1   81.59    7.60
  -8  -2   1   74.29    8.20
   8   2  -1   85.49    7.50
  -8   2   1   79.19    8.70
  -8   2   1   92.29    8.90
   8   2  -1   82.19    6.50
   7  -2  -1  950.20   61.09
  -7  -2   1  838.52   61.09
   7  -2  -1  982.10   60.59
  -7   2   1 1038.50   61.39
  -7   2   1  846.82   61.49
   7   2  -1  927.61   60.69
   7   2  -1  931.11   59.99
   6  -2  -1  839.52   52.79
  -6  -2   1  780.02   52.79
   6  -2  -1  810.42   52.19
  -6   2   1  697.73   55.69
   6   2  -1  795.82   51.69
  -6   2   1  877.81   52.79
  -5  -2   1  517.55   36.40
   5  -2  -1  551.74   36.00
   5   2  -1  560.54   36.30
  -5   2   1  601.04   36.30
   5   2  -1  543.25   35.60
  -5   2   1  532.05   37.00
   4  -2  -1   33.70    4.10
  -4  -2   1   39.80    3.30
  -4  -2   1   35.10    5.90
   4  -2  -1   39.50    3.50
  -4  -2   1   41.10    3.90
   4   2  -1   37.80    3.00
  -4   2   1   46.30    3.40
  -4   2   1   40.10    3.20
  -4   2   1   42.80    4.40
   4   2  -1   43.70    3.80
   3  -2  -1 2652.23  191.38
  -3  -2   1 3202.18  191.18
  -3  -2   1 2861.21  190.48
  -3   2   1 3318.67  190.68
   3   2  -1 2903.61  190.98
  -3   2   1 2938.31  190.88
  -3   2   1 3072.89  191.38
  -3   2   1 2972.00  190.58
   3   2  -1 2991.00  190.58
   2  -2  -1   19.30    3.10
   2  -2  -1   26.60    2.00
  -2  -2   1   18.10    3.60
  -2  -2   1   24.40    2.40
  -2  -2   1   27.60    2.20
  -2  -2   1   26.50    2.10
  -2   2   1   24.60    2.20
  -2   2   1   29.50    2.70
  -2   2   1   29.90    2.20
   2   2  -1   24.60    2.40
   1  -2  -1 7711.13  453.15
   1  -2  -1 6135.69  453.35
   1  -2  -1 7519.05  454.05
   1   2  -1 6583.34  453.25
  -1   2   1 8156.28  453.85
  -1   2   1 7384.76  453.25
  -1   2   1 6273.97  453.05
   1   2  -1 7105.89  453.65
   0  -2  -1    2.90    1.00
   0  -2  -1    1.10    0.90
   0  -2  -1    4.00    0.60
   0  -2   1    3.30    0.90
   0  -2   1    0.60    0.90
   0   2   1    2.10    0.50
   0   2   1    2.50    1.10
   0   2   1    7.60    2.10
   0   2  -1    5.60    1.20
   0   2   1    2.60    0.60
   0   2  -1    4.20    0.60
  -1  -2  -1  246.68   18.40
   1  -2   1  266.37   18.40
  -1  -2  -1  290.97   18.10
   1  -2   1  303.47   18.10
   1   2   1  280.67   18.30
  -1   2  -1  291.57   18.40
  -1   2  -1  283.87   18.40
   2  -2   1   19.70    1.70
   2  -2   1   23.50    2.10
   2  -2   1   19.90    2.60
  -2  -2  -1   24.80    3.80
   2   2   1   25.50    2.10
   2   2   1   20.80    2.10
   2   2   1   20.00    1.80
  -2   2  -1   22.20    2.10
  -3  -2  -1  233.18   17.40
   3  -2   1  231.18   14.90
   3  -2   1  211.78   14.90
  -3  -2  -1  224.58   15.00
   3  -2   1  244.18   15.10
   3   2   1  213.58   15.20
  -3   2  -1  212.88   15.20
   3   2   1  224.08   15.20
   3   2   1  247.18   15.00
   4  -2   1  195.68   14.20
   4  -2   1  181.18   15.00
  -4  -2  -1  225.68   14.40
   4  -2   1  248.68   14.20
  -4   2  -1  214.88   14.40
  -4   2  -1  221.98   14.60
   4   2   1  207.48   14.30
   4   2   1  214.48   14.50
  -5  -2  -1 1247.08   81.19
   5  -2   1 1204.68   80.99
   5  -2   1 1166.08   81.79
  -5   2  -1 1295.97   81.19
  -5   2  -1 1335.97   81.59
   5   2   1 1321.07   81.09
   6  -2   1  355.06   23.20
  -6  -2  -1  314.97   23.30
   6   2   1  334.67   23.50
   6   2   1  355.06   23.10
  -6   2  -1  350.96   23.80
  -6   2  -1  377.36   23.50
   7  -2   1 3067.59  190.28
  -7  -2  -1 2629.44  190.38
   7  -2   1 2993.50  190.98
  -7   2  -1 3090.79  191.18
  -7   2  -1 3169.98  190.88
   7   2   1 2780.42  190.48
   7   2   1 3074.89  190.18
   8  -2   1  821.92   47.40
   8  -2   1  734.93   47.90
  -8  -2  -1  626.04   49.99
  -8  -2  -1  691.23   47.60
  -8   2  -1  756.02   48.30
   8   2   1  672.33   47.40
  -9  -2  -1  768.12   53.59
   9  -2   1  853.41   53.39
   9  -2   1  838.92   53.79
  -9  -2  -1  763.62   56.29
   9   2   1  806.22   52.79
  -9   2  -1  781.22   54.09
   9   2   1  780.72   53.39
  -9   2  -1  870.51   54.59
 -10  -2  -1   94.29   15.00
  10  -2   1  116.89   10.00
 -10  -2  -1  101.39   10.80
  10  -2   1  112.79   10.00
  10   2   1  111.79    9.90
  10   2   1  111.49    9.00
 -10   2  -1  113.59   12.40
 -10   2  -1   96.09   11.30
 -11  -2  -1   73.89   10.00
 -11  -2  -1   64.59   11.00
  11  -2   1   58.99    7.90
 -11   2  -1   43.20    7.50
  11   2   1   64.99    8.00
  11   2   1   52.29    6.60
 -11   2  -1   89.19   12.30
  11  -3  -1   54.19    6.80
 -11  -3   1   70.39   11.60
 -11  -3   1   54.29    8.60
  11  -3  -1   51.09    7.60
  11   3  -1   46.50    6.90
 -11   3   1   41.60    7.70
  10  -3  -1 1215.08   72.69
  10  -3  -1 1114.09   73.19
 -10  -3   1 1259.57   76.89
 -10  -3   1 1002.00   73.49
  10   3  -1 1061.79   72.79
 -10   3   1 1025.20   73.99
  -9  -3   1  213.08   17.90
   9  -3  -1  231.48   17.50
  -9  -3   1  256.07   21.80
  -9   3   1  209.58   18.40
  -9   3   1  260.67   18.30
   9   3  -1  241.68   16.00
   9   3  -1  232.88   17.10
   8  -3  -1    6.30    2.90
  -8  -3   1    9.70    6.50
   8  -3  -1    9.90    2.80
  -8  -3   1    5.60    3.20
  -8   3   1    7.30    3.90
   8   3  -1   10.50    2.80
   8   3  -1   10.40    1.90
  -8   3   1    4.20    3.00
   7  -3  -1 1217.38   79.19
  -7  -3   1 1132.29   78.89
   7  -3  -1 1260.77   78.29
  -7   3   1 1352.06   78.69
   7   3  -1 1208.28   77.69
  -7   3   1 1135.39   79.39
   7   3  -1 1161.38   78.59
   6  -3  -1  518.85   35.40
   6  -3  -1  534.35   34.50
  -6  -3   1  502.75   35.00
  -6   3   1  504.45   35.50
   6   3  -1  496.75   34.80
   6   3  -1  536.75   34.00
  -6   3   1  572.84   34.60
   5  -3  -1 4883.81  313.17
   5  -3  -1 4640.04  312.17
  -5  -3   1 5248.77  312.77
   5   3  -1 4897.01  313.77
  -5   3   1 4165.68  313.67
  -5   3   1 5193.58  311.87
   5   3  -1 5209.68  311.77
  -4  -3   1  375.16   25.60
  -4  -3   1  425.56   26.40
   4  -3  -1  356.96   27.00
   4   3  -1  370.26   25.60
   4   3  -1  399.46   26.30
  -4   3   1  427.96   25.70
  -4   3   1  387.26   26.00
  -4   3   1  439.96   25.90
  -4   3   1  384.26   26.60
  -3  -3   1 1547.25  101.99
  -3  -3   1 1719.73  101.79
   3  -3  -1 1672.03  101.79
  -3  -3   1 1644.54  102.19
   3   3  -1 1511.45  102.19
  -3   3   1 1551.84  101.89
  -3   3   1 1498.35  102.39
   2  -3  -1    1.90    2.10
  -2  -3   1    1.60    0.90
  -2  -3   1    1.80    1.80
  -2  -3   1    1.80    2.20
   2  -3  -1    1.40    0.70
  -2   3   1    3.80    1.60
  -2   3   1    1.20    0.70
  -2   3   1   -0.20    1.00
   2   3  -1    0.60    0.80
   2   3  -1    0.30    0.80
  -1  -3   1  366.46   26.80
   1  -3  -1  405.56   25.90
  -1  -3   1  359.26   26.70
   1  -3  -1  351.66   26.90
   1   3  -1  408.96   25.90
  -1   3   1  416.16   25.80
  -1   3   1  411.46   26.00
   1   3  -1  416.46   25.90
   0  -3  -1   78.39    6.90
   0  -3  -1   84.79    7.40
   0   3   1   99.89    6.50
   0   3  -1   94.89    6.30
   0   3   1   98.59    6.40
   1  -3   1 2663.93  175.48
   1  -3   1 2973.90  175.28
  -1  -3  -1 2696.23  176.28
   1  -3   1 2468.35  176.18
  -1  -3  -1 2931.71  175.18
  -1  -3  -1 2624.64  175.78
  -1   3  -1 2942.41  175.18
  -1   3  -1 2759.82  175.48
   1   3   1 2734.93  175.28
   1   3   1 2676.93  175.38
  -2  -3  -1   43.30    3.80
   2  -3   1   33.80    4.60
   2  -3   1   51.89    3.40
   2  -3   1   41.60    3.60
  -2  -3  -1   49.50    5.70
   2   3   1   44.60    3.30
  -2   3  -1   41.10    3.20
   2   3   1   44.10    3.40
  -2   3  -1   44.90    3.80
   3  -3   1 9154.48  549.45
  -3  -3  -1 8744.43  551.64
   3  -3   1 9107.99  549.95
   3   3   1 8771.32  549.35
  -3   3  -1 8630.44  549.85
   3   3   1 8369.36  550.14
   3   3   1 8243.08  549.85
   3   3   1 7979.50  549.54
   4  -3   1 1408.16   84.09
   4  -3   1 1343.97   83.89
   4  -3   1 1171.98   85.09
  -4  -3  -1 1261.07   86.79
  -4  -3  -1 1370.16   83.99
  -4   3  -1 1291.97   84.39
   4   3   1 1285.37   84.39
   4   3   1 1337.27   84.09
   5  -3   1  947.11   61.29
  -5  -3  -1 1020.70   61.49
  -5   3  -1  961.50   61.39
  -5   3  -1  870.71   61.89
   5   3   1  947.91   61.39
   5   3   1  962.90   61.89
  -6  -3  -1    6.80    2.10
  -6  -3  -1   -1.50    4.50
   6  -3   1    6.00    1.90
   6  -3   1    0.10    2.30
  -6   3  -1    4.30    1.60
  -6   3  -1    3.10    2.00
   6   3   1    2.50    2.10
   6   3   1    5.90    1.50
  -7  -3  -1  104.09    8.80
   7  -3   1  118.79    8.50
   7  -3   1  108.39    9.60
   7   3   1  102.89    8.00
  -7   3  -1  114.89    8.70
   7   3   1   99.89    8.80
  -7   3  -1  103.79    9.10
   8  -3   1  281.27   18.80
  -8  -3  -1  218.38   21.10
  -8  -3  -1  227.78   17.80
   8  -3   1  289.27   17.70
   8   3   1  227.18   17.80
  -8   3  -1  237.08   18.50
  -8   3  -1  266.67   18.30
   8   3   1  236.18   17.10
  -9  -3  -1  917.61   63.99
   9  -3   1  948.21   60.99
  -9   3  -1  871.81   61.09
   9   3   1  899.31   59.49
   9   3   1  873.11   60.39
  -9   3  -1  983.70   60.99
 -10  -3  -1   49.50    7.00
 -10  -3  -1   83.79   12.90
  10  -3   1   68.99    7.90
  10   3   1   49.60    7.30
  10   3   1   55.99    5.90
 -10   3  -1   49.60    7.40
 -10   3  -1   61.09    9.60
  11  -3   1  611.94   42.70
 -11  -3  -1  636.74   54.39
  11   3   1  589.44   44.80
  11  -4  -1  800.72   50.89
  11   4  -1  744.03   50.09
 -11   4   1  693.03   51.69
  10  -4  -1  224.08   16.30
  10  -4  -1  218.98   16.90
 -10  -4   1  266.77   24.30
 -10  -4   1  188.98   17.30
 -10   4   1  203.58   19.60
  10   4  -1  189.28   16.10
   9  -4  -1  638.94   41.50
  -9  -4   1  639.04   45.90
   9  -4  -1  669.33   40.40
  -9  -4   1  535.75   41.00
   9   4  -1  591.14   40.60
  -9   4   1  559.54   41.80
   8  -4  -1   16.10    4.10
  -8  -4   1   13.60    7.90
  -8  -4   1   16.30    3.90
   8  -4  -1   15.00    3.10
   8   4  -1   16.30    3.30
  -8   4   1   10.20    4.10
   8   4  -1   11.90    2.10
  -7  -4   1  241.08   18.20
   7  -4  -1  239.38   18.60
   7  -4  -1  249.78   17.40
  -7   4   1  277.07   17.60
  -7   4   1  242.98   18.80
   7   4  -1  253.47   16.70
   6  -4  -1  281.07   20.40
  -6  -4   1  314.77   21.10
   6  -4  -1  300.67   21.90
  -6   4   1  286.47   21.60
   6   4  -1  305.77   19.90
   6   4  -1  297.57   20.90
  -6   4   1  334.67   20.20
  -5  -4   1  625.64   42.00
  -5  -4   1  683.93   42.40
   5  -4  -1  589.24   43.20
  -5   4   1  689.23   41.60
  -5   4   1  658.73   42.00
   5   4  -1  643.04   42.40
  -5   4   1  616.44   42.80
   4  -4  -1   24.60    2.30
  -4  -4   1   25.30    3.70
  -4  -4   1   23.80    3.20
  -4   4   1   23.90    2.70
  -3  -4   1  646.54   46.20
   3  -4  -1  725.23   45.30
  -3   4   1  709.63   45.40
   3   4  -1  711.53   45.70
  -3   4   1  707.73   46.00
   3   4  -1  719.43   45.50
  -2  -4   1  249.48   19.60
   2  -4  -1  238.28   19.40
  -2  -4   1  237.18   19.30
   2  -4  -1  283.57   17.80
   2   4  -1  287.87   18.10
   2   4  -1  285.87   18.00
  -2   4   1  283.57   18.30
  -2   4   1  291.87   17.90
  -1  -4   1 3908.61  262.27
   1  -4  -1 3457.25  262.47
   1  -4  -1 4345.87  261.47
   1   4  -1 4063.59  261.37
   1   4  -1 4313.67  261.27
  -1   4   1 4063.09  261.47
  -1   4   1 4521.55  261.27
   0  -4  -1  164.48   13.70
   0  -4  -1  182.48   12.90
   0  -4   1  160.38   13.70
   0  -4   1  183.88   12.80
   0   4  -1  188.48   12.10
   0   4   1  182.38   12.20
   0   4   1  197.78   12.40
   0   4  -1  191.68   12.40
  -1  -4  -1  277.27   19.90
   1  -4   1  266.77   19.10
   1  -4   1  270.37   20.40
  -1  -4  -1  262.37   20.00
  -1   4  -1  293.17   18.70
  -1   4  -1  304.97   19.10
   1   4   1  307.67   19.00
   1   4   1  307.37   18.90
  -2  -4  -1    4.40    1.70
  -2  -4  -1    0.30    2.50
   2  -4   1   -0.40    0.90
   2  -4   1   -1.00    2.40
   2   4   1    2.20    0.80
  -2   4  -1   -0.20    0.60
  -2   4  -1    0.60    0.90
   2   4   1    0.90    0.80
   3  -4   1    5.90    1.30
   3  -4   1    3.20    2.50
  -3  -4  -1    6.40    1.90
  -3   4  -1    3.90    1.40
  -3   4  -1    4.10    0.90
   4  -4   1    2.60    1.20
  -4  -4  -1    3.50    1.70
   4   4   1    2.60    0.90
  -4   4  -1    1.90    1.10
   5  -4   1  588.54   39.00
   5  -4   1  613.64   37.10
  -5  -4  -1  472.85   40.10
   5  -4   1  584.84   37.00
   5   4   1  567.14   37.60
  -5   4  -1  570.54   37.80
   5   4   1  576.24   37.20
   6  -4   1   12.10    3.50
  -6  -4  -1   17.50    6.20
   6  -4   1   14.40    2.50
  -6  -4  -1   17.60    2.70
   6   4   1   18.80    3.30
   6   4   1   16.00    2.30
  -6   4  -1   16.60    2.50
  -6   4  -1   14.60    3.10
   7  -4   1 1948.51  126.69
   7  -4   1 2109.19  124.89
  -7  -4  -1 1922.41  124.99
  -7   4  -1 1948.51  124.89
   7   4   1 1881.71  125.59
  -7   4  -1 1877.71  125.79
   7   4   1 1923.41  124.69
   8  -4   1  695.83   42.90
  -8  -4  -1  633.24   41.20
  -8  -4  -1  557.14   45.40
  -8   4  -1  661.43   42.00
  -8   4  -1  607.44   42.10
   8   4   1  585.04   41.50
   8   4   1  596.84   40.70
   9  -4   1  696.23   43.00
  -9  -4  -1  615.04   46.40
  -9  -4  -1  546.25   44.10
  -9   4  -1  668.53   42.20
   9   4   1  617.54   40.80
  -9   4  -1  604.04   42.80
   9   4   1  598.14   42.00
 -10  -4  -1   30.60    9.20
  10  -4   1   18.10    5.60
  10   4   1   19.00    4.80
 -10   4  -1   22.30    6.00
 -11  -4  -1   10.30    9.20
  11  -4   1   19.60    5.60
  11   4   1   17.40    5.10
 -11   4  -1    2.30    5.80
  10  -5  -1  163.88   14.80
 -10  -5   1  210.98   23.70
 -10   5   1  154.58   15.60
  10   5  -1  158.08   13.50
   9  -5  -1  143.19   13.40
  -9  -5   1  151.08   20.60
  -9  -5   1  113.29   11.20
   9  -5  -1  126.59   12.10
  -9   5   1  102.29   12.50
   9   5  -1  116.59   10.60
   8  -5  -1    4.00    4.10
   8  -5  -1    3.80    3.00
  -8  -5   1    5.00    8.80
  -8  -5   1    0.70    3.10
   8   5  -1   -5.20    2.60
  -8   5   1    5.80    4.00
  -7  -5   1  125.59   18.00
  -7  -5   1  153.48   11.90
   7  -5  -1  151.78   13.00
  -7   5   1  155.58   13.00
   7   5  -1  157.98   12.00
  -6  -5   1  180.88   21.10
  -6  -5   1  247.78   17.10
  -6  -5   1  231.78   16.40
   6  -5  -1  222.78   17.50
  -6   5   1  226.88   16.00
   6   5  -1  232.08   15.70
  -6   5   1  214.98   17.10
  -6   5   1  244.78   15.50
   6   5  -1  231.98   16.50
   5  -5  -1  247.98   15.00
  -5  -5   1  243.58   16.80
   5  -5  -1  191.88   17.00
  -5   5   1  223.38   15.40
   5   5  -1  213.08   15.70
  -5   5   1  213.78   16.30
   5   5  -1  225.98   15.30
   4  -5  -1   -2.40    2.90
   4  -5  -1    2.20    1.10
  -4  -5   1   -6.40    4.40
  -4  -5   1   -2.50    3.60
   4   5  -1    0.90    1.30
  -4   5   1    2.60    2.10
   4   5  -1    1.30    1.60
  -4   5   1    2.50    1.30
   3  -5  -1   -0.20    0.90
  -3  -5   1    1.00    3.60
   3  -5  -1    1.10    2.60
  -3  -5   1   -1.80    3.60
  -3   5   1    1.20    1.00
   3   5  -1    1.40    1.20
  -3   5   1    3.70    1.70
   3   5  -1    1.30    1.20
   2  -5  -1    4.60    3.60
  -2  -5   1    1.90    3.50
   2  -5  -1    1.20    1.00
  -2   5   1   -0.70    0.80
   2   5  -1    0.30    1.00
  -2   5   1    1.50    1.40
   1  -5  -1   24.10    4.70
   1  -5  -1   24.70    2.70
  -1  -5   1   23.70    3.80
  -1   5   1   22.70    2.40
  -1   5   1   25.20    2.90
   1   5  -1   21.20    2.50
   1   5  -1   23.70    2.70
   0  -5  -1   16.60    2.70
   0  -5   1   14.20    4.30
   0  -5   1   15.70    2.60
   0  -5  -1   10.00    3.60
   0   5   1   21.30    2.60
   0   5  -1   18.90    2.40
   0   5  -1   19.80    2.10
   0   5   1   15.30    2.20
  -1  -5  -1   24.60    4.70
   1  -5   1   36.30    3.50
  -1  -5  -1   28.30    4.70
   1  -5   1   31.60    5.40
   1   5   1   28.40    2.90
  -1   5  -1   34.70    2.80
  -1   5  -1   28.60    3.20
   1   5   1   32.20    3.10
  -2  -5  -1   31.40    5.40
   2  -5   1   32.40    3.20
   2  -5   1   28.20    5.10
  -2  -5  -1   33.60    5.10
   2   5   1   35.60    3.10
  -2   5  -1   30.40    2.70
  -3  -5  -1  565.04   39.40
   3  -5   1  599.14   40.70
  -3  -5  -1  520.95   40.70
   3  -5   1  603.94   38.50
   3   5   1  603.54   38.70
   3   5   1  625.94   38.30
  -3   5  -1  577.54   38.90
  -3   5  -1  616.44   38.10
  -4  -5  -1  255.37   17.90
  -4  -5  -1  228.68   20.00
   4  -5   1  235.68   16.60
   4  -5   1  230.98   19.10
  -4   5  -1  264.27   16.50
  -4   5  -1  249.38   17.30
   4   5   1  246.28   17.10
   4   5   1  265.07   16.60
   5  -5   1   82.49    9.30
  -5  -5  -1   63.39   10.40
  -5  -5  -1   70.09    7.50
   5  -5   1   84.59    6.30
   5   5   1   85.59    7.10
   5   5   1   87.49    6.20
  -5   5  -1   84.49    6.40
  -5   5  -1   85.49    7.30
   6  -5   1    8.70    4.20
  -6  -5  -1    8.90    3.50
  -6  -5  -1    1.70    6.40
   6  -5   1    9.70    2.20
  -6   5  -1    7.60    2.20
   6   5   1   11.00    2.00
   6   5   1    7.70    2.50
  -6   5  -1    7.20    2.90
   7  -5   1   16.00    3.20
   7  -5   1   21.10    5.60
  -7  -5  -1   17.70    6.90
  -7   5  -1   15.70    2.80
   7   5   1   15.00    2.40
   7   5   1   11.90    3.40
  -7   5  -1   15.40    3.50
   7   5   1   13.20    2.60
   8  -5   1   16.20    5.10
  -8  -5  -1    6.60    8.00
  -8   5  -1    4.50    3.60
   8   5   1    5.00    3.00
  -8   5  -1    9.00    4.00
  -9  -5  -1   24.80    9.90
   9  -5   1   20.00    5.80
   9   5   1   16.70    4.10
  -9   5  -1   14.20    4.90
  10  -5   1    7.60    5.40
 -10  -5  -1    9.60    9.90
 -10   5  -1   18.40    6.20
  10   5   1    4.70    4.20
   9  -6  -1  137.99   13.20
  -9  -6   1  117.59   19.60
   9   6  -1  104.99   10.80
  -9   6   1  129.59   13.70
   8  -6  -1   49.40    7.50
  -8  -6   1   44.30   12.30
  -8   6   1   32.80    6.10
   8   6  -1   28.90    4.80
   7  -6  -1   12.80    2.90
   7  -6  -1   16.30    4.90
  -7  -6   1   11.80    9.20
  -7   6   1   16.20    4.60
   7   6  -1    9.60    2.80
   7   6  -1   13.10    3.30
  -6  -6   1   58.29   11.50
   6  -6  -1   64.19    8.40
   6   6  -1   70.59    6.50
  -6   6   1   64.99    7.10
  -6   6   1   58.49    5.90
   6   6  -1   62.99    5.80
  -5  -6   1   12.40    6.50
   5  -6  -1    1.50    3.30
   5  -6  -1    1.60    1.40
  -5  -6   1   -1.10    5.90
   5   6  -1    1.50    2.00
  -5   6   1    4.20    2.80
  -4  -6   1   17.30    5.90
  -4  -6   1   10.20    5.80
   4  -6  -1   15.50    4.40
   4  -6  -1   21.20    2.50
   4   6  -1   15.30    2.40
  -4   6   1   15.10    2.20
  -4   6   1   18.70    3.40
   4   6  -1   10.80    2.30
   3  -6  -1   54.89    4.40
   3  -6  -1   47.30    7.30
  -3  -6   1   50.69    7.90
  -3  -6   1   54.99    7.90
   3   6  -1   53.99    4.90
  -3   6   1   51.99    4.50
  -3   6   1   59.49    5.70
   3   6  -1   55.89    4.90
  -2  -6   1  102.59   12.30
   2  -6  -1  129.89    9.00
   2  -6  -1  114.59   11.40
  -2  -6   1  119.79   11.00
   2   6  -1  127.79    9.10
  -2   6   1  126.49    9.60
  -2   6   1  131.19    8.90
   2   6  -1  133.19    9.20
   1  -6  -1  174.28   11.60
   1  -6  -1  170.98   14.10
  -1  -6   1  137.29   14.00
   0  -6  -1   12.20    5.40
   0  -6   1   16.50    2.90
   0  -6  -1   20.40    3.20
   0  -6   1   13.40    4.70
   0   6   1   14.50    2.20
   0   6   1   20.60    2.70
   0   6  -1   19.50    2.40
   0   6  -1   19.00    2.90
  -1  -6  -1   46.40    6.80
  -1  -6  -1   47.20    5.40
   1   6   1   41.60    3.90
   1   6   1   46.70    4.30
  -1   6  -1   44.90    3.70
  -1   6  -1   39.20    4.30
  -2  -6  -1    2.90    4.40
  -2  -6  -1    3.40    3.50
   2  -6   1    3.50    4.20
   2  -6   1    2.90    1.70
  -2   6  -1    2.40    1.60
   2   6   1    2.90    1.50
  -2   6  -1    3.30    1.10
   2   6   1    2.10    1.40
   3  -6   1    0.90    1.40
  -3  -6  -1    1.20    4.00
   3  -6   1   -0.70    4.40
  -3  -6  -1    0.20    3.80
  -3   6  -1    0.00    1.60
   3   6   1    2.20    1.50
  -3   6  -1    1.70    1.10
   3   6   1   -0.70    1.40
   4  -6   1    9.80    4.80
   4  -6   1   11.60    2.00
  -4  -6  -1    5.70    5.70
  -4  -6  -1    9.90    4.20
   4   6   1   10.40    2.00
   4   6   1   12.00    2.40
  -4   6  -1    8.60    2.40
  -4   6  -1   12.10    1.90
   5  -6   1  149.19   12.60
   5  -6   1  121.09    8.80
  -5  -6  -1  109.69   11.40
  -5  -6  -1  110.89   14.60
  -5   6  -1  114.99    9.80
   5   6   1  129.59    8.90
  -5   6  -1  114.69    8.70
   5   6   1  114.79    9.50
  -6  -6  -1   37.10   10.10
  -6  -6  -1   46.90    7.00
   6  -6   1   48.00    7.80
  -6   6  -1   41.30    6.20
   6   6   1   51.19    4.80
   6   6   1   49.60    5.80
   7  -6   1  195.28   15.70
  -7  -6  -1  136.49   19.60
   7   6   1  172.38   12.90
  -7   6  -1  155.38   12.90
  -7   6  -1  141.39   12.10
  -8  -6  -1   -3.90    8.30
   8  -6   1   16.90    5.30
  -8   6  -1    3.20    4.20
   8   6   1    3.10    3.30
  -9  -6  -1   13.20   11.80
   9  -6   1    1.00    5.10
   9   6   1   21.80    4.60
  -9   6  -1    9.80    5.10
   8  -7  -1   15.00    5.60
  -8  -7   1   -1.00   11.40
  -8   7   1   12.10    5.60
   8   7  -1    8.60    3.90
  -7   7   1  217.28   19.50
   7   7  -1  224.38   19.50
  -6  -7   1   -0.80    7.30
   6  -7  -1   16.50    5.30
   6   7  -1   13.40    3.10
  -6   7   1   15.20    3.10
  -6   7   1   15.00    4.80
   6   7  -1   12.70    3.30
  -5  -7   1  997.80   73.09
  -5   7   1 1030.50   69.79
  -5   7   1 1078.89   68.39
   5   7  -1 1072.59   68.59
   5   7  -1 1101.29   69.19
  -4  -7   1  145.39   14.90
  -4  -7   1  173.68   15.60
   4  -7  -1  141.49   10.40
   4  -7  -1  187.58   14.40
  -4   7   1  147.69   10.60
   4   7  -1  142.59   11.10
  -4   7   1  134.59   11.80
   4   7  -1  142.59   11.00
   3  -7  -1  242.18   18.70
  -3  -7   1  198.48   18.00
  -3  -7   1  216.98   19.20
   3  -7  -1  221.58   15.50
   3   7  -1  232.28   15.90
  -3   7   1  229.88   16.60
  -3   7   1  228.18   15.50
   3   7  -1  246.78   16.00
  -2  -7   1   24.10    6.40
   2  -7  -1   27.60    4.00
   2  -7  -1   31.60    5.90
  -2  -7   1   31.00    5.20
  -2   7   1   23.80    3.00
   2   7  -1   24.60    3.80
   2   7  -1   25.30    3.30
  -2   7   1   27.30    4.20
   1  -7  -1  111.09   11.30
  -1  -7   1  106.29    9.30
   1  -7  -1  108.69    8.20
   1   7  -1  106.79    8.30
   1   7  -1  101.39    7.80
  -1   7   1  103.89    7.80
  -1   7   1  101.29    8.40
   0  -7   1   25.80    6.40
   0  -7  -1   27.60    3.90
   0  -7  -1   22.00    6.00
   0  -7   1   27.50    4.10
   0   7  -1   25.10    3.00
   0   7   1   22.80    3.10
   0   7   1   25.40    3.90
   0   7  -1   19.90    3.20
  -1  -7  -1  409.86   27.80
   1  -7   1  356.46   29.40
  -1  -7  -1  398.76   29.50
   1  -7   1  394.56   26.90
   1   7   1  403.96   26.90
  -1   7  -1  403.66   26.90
   1   7   1  402.36   26.50
  -1   7  -1  409.86   26.30
   2  -7   1   56.09    5.60
  -2  -7  -1   71.19    7.90
  -2  -7  -1   67.69   10.40
   2  -7   1   62.79   10.20
  -2   7  -1   60.39    5.00
   2   7   1   66.39    5.90
   2   7   1   63.39    5.40
  -2   7  -1   60.29    5.90
  -3  -7  -1 1409.56   97.99
   3  -7   1 1455.05   95.19
   3  -7   1 1420.76   98.39
  -3  -7  -1 1520.25   97.89
  -3   7  -1 1430.36   95.69
  -3   7  -1 1550.74   94.79
   3   7   1 1584.94   95.29
   3   7   1 1444.46   95.39
   4  -7   1   81.79   11.30
  -4  -7  -1   83.19   11.60
  -4  -7  -1   85.29   11.90
   4  -7   1   76.59    6.40
  -4   7  -1   79.69    7.50
   4   7   1   69.29    6.80
   4   7   1   91.19    7.00
  -4   7  -1   76.89    6.10
   5  -7   1  151.38   11.60
  -5  -7  -1  180.08   18.00
  -5  -7  -1  175.28   16.80
   5  -7   1  203.18   17.10
  -5   7  -1  161.58   12.90
   5   7   1  152.78   12.50
   6  -7   1    3.50    1.80
   6  -7   1    0.60    5.30
  -6  -7  -1    2.30    9.10
   6   7   1    7.10    3.20
  -6   7  -1    4.90    3.50
   8  -7   1  185.18   17.00
  -8  -7  -1  184.48   24.60
  -8   7  -1  154.18   14.80
   8   7   1  158.28   13.80
  -6  -8   1  263.37   24.50
   6  -8  -1  267.67   20.00
   6   8  -1  207.58   16.60
  -6   8   1  182.78   18.00
   5  -8  -1  276.07   20.00
  -5  -8   1  210.58   21.20
   5   8  -1  223.08   16.40
  -5   8   1  210.38   15.70
  -5   8   1  220.58   17.60
   5   8  -1  219.38   16.30
  -4  -8   1   18.20    6.10
   4  -8  -1   18.80    6.30
   4   8  -1   20.10    3.60
  -4   8   1   19.00    3.10
  -4   8   1   23.90    4.60
   4   8  -1   21.30    3.70
   3  -8  -1  521.05   34.50
  -3  -8   1  532.15   38.10
  -3  -8   1  550.94   37.60
  -3   8   1  521.65   34.60
  -3   8   1  512.95   35.70
   3   8  -1  500.75   34.90
   3   8  -1  544.05   35.10
  -2  -8   1   61.49    9.50
   2  -8  -1   62.99    5.90
   2  -8  -1   81.69   10.60
  -2  -8   1   51.69    7.80
   2   8  -1   65.89    5.80
   2   8  -1   61.89    6.40
  -2   8   1   72.49    7.00
  -2   8   1   64.49    5.60
   1  -8  -1 2780.72  167.78
  -1  -8   1 2660.13  168.68
  -1  -8   1 2324.87  170.38
  -1   8   1 2780.02  167.38
  -1   8   1 2496.55  167.88
   1   8  -1 2621.14  167.78
   1   8  -1 2614.34  167.38
   0  -8   1   19.90    3.70
   0  -8  -1   19.90    3.50
   0  -8  -1   15.10    6.40
   0  -8   1   19.60    7.10
   0   8   1   14.90    2.80
   0   8  -1   17.50    2.70
   0   8   1   20.00    3.50
   0   8  -1   14.10    3.30
   1  -8   1   97.29   13.10
  -1  -8  -1  116.29    9.60
  -1  -8  -1  123.49   13.50
   1  -8   1   96.59    8.90
  -1   8  -1  125.79    8.10
   1   8   1   95.59    8.10
   1   8   1  103.19    9.00
  -1   8  -1   93.99    8.80
  -2  -8  -1    7.80    4.00
  -2  -8  -1    0.80    6.90
   2  -8   1    1.90    2.10
   2  -8   1   -0.30    6.40
  -2   8  -1    2.30    1.60
  -2   8  -1   -1.90    2.50
   2   8   1    1.10    1.80
   2   8   1    2.20    2.80
   3  -8   1   16.60    7.20
   3  -8   1   13.40    2.80
  -3  -8  -1   45.10    9.20
  -3  -8  -1   21.90    5.90
   3   8   1   12.40    3.50
  -3   8  -1   19.40    2.80
   3   8   1   17.90    2.90
  -3   8  -1   18.60    3.70
   4  -8   1   24.20    7.10
   4  -8   1   14.70    2.70
  -4  -8  -1   12.70    6.30
  -4  -8  -1   20.30    8.70
   4   8   1   14.50    3.10
  -4   8  -1   13.70    3.60
   5  -8   1  464.75   34.00
  -5  -8  -1  474.35   34.70
   5  -8   1  407.96   28.80
  -5   8  -1  416.06   30.20
   5   8   1  430.96   29.70
  -6  -8  -1   29.90   11.60
   6  -8   1   58.79    9.90
   6   8   1   45.50    6.10
  -6   8  -1   51.69    7.50
  -4  -9   1    5.00    6.40
   4  -9  -1   11.20    6.60
  -4   9   1   11.90    7.80
   4   9  -1    3.80    3.20
   3   9  -1  125.29   10.30
  -3   9   1  128.39   12.00
  -3   9   1  132.79   10.20
   3   9  -1  132.59   11.20
   2  -9  -1   -3.60    6.00
   2  -9  -1    1.30    2.70
  -2  -9   1    2.00    4.20
   2   9  -1    4.60    2.40
  -2   9   1    2.90    3.90
   2   9  -1    1.90    3.30
  -2   9   1    1.10    2.30
  -1  -9   1  100.09   15.20
   1  -9  -1  102.49    9.00
  -1  -9   1  107.19   10.30
   1  -9  -1  143.99   14.20
   1   9  -1   89.39    9.40
   1   9  -1  101.69    8.40
  -1   9   1  100.19    8.40
  -1   9   1  104.69    9.90
   0  -9   1   82.99   12.00
   0  -9   1   80.89    8.50
   0  -9  -1   90.19    8.30
   0   9   1   89.79    7.00
   0   9  -1   76.99    8.10
   0   9   1   67.49    8.30
   0   9  -1   75.69    7.00
   1  -9   1  307.37   21.30
  -1  -9  -1  313.67   21.70
   1  -9   1  280.87   25.80
  -1   9  -1  312.17   20.30
  -1   9  -1  263.67   21.10
   1   9   1  292.37   20.40
   1   9   1  299.17   21.10
  -2  -9  -1   60.59   10.20
   2  -9   1   61.09    6.40
  -2  -9  -1   60.29    8.20
   2  -9   1   49.00   10.40
   2   9   1   49.90    5.60
  -2   9  -1   45.20    6.80
   2   9   1   41.50    6.80
  -2   9  -1   50.79    5.40
   3  -9   1 1747.53  108.89
   3  -9   1 1755.22  113.29
  -3  -9  -1 1851.61  111.49
   3   9   1 1541.55  108.89
  -3   9  -1 1547.45  109.69
  -4  -9  -1  475.65   34.30
   4  -9   1  488.35   36.30
  -4   9  -1  438.06   31.40
   4   9   1  421.86   30.70
  12   0  -2  807.92   52.19
 -12   0   2  745.03   55.69
  11   0  -2   60.79    6.70
 -11   0   2   67.99    9.40
  11   0  -2   53.29    7.00
 -11   0   2   48.70    8.40
  10   0  -2 1278.67   89.09
  10   0  -2 1387.36   88.89
 -10   0   2 1366.86   90.99
 -10   0   2 1466.85   93.39
   9   0  -2  144.89   11.10
  -9   0   2  170.58   14.30
   9   0  -2  145.79   11.70
  -9   0   2  146.79   13.70
   8   0  -2  413.86   26.50
   8   0  -2  382.06   26.70
  -8   0   2  391.86   28.40
  -8   0   2  391.46   28.40
   7   0  -2 1425.56   96.19
  -7   0   2 1527.45   97.69
  -7   0   2 1368.46   97.39
   7   0  -2 1638.34   95.99
  -6   0   2 1533.65   96.49
   6   0  -2 1613.54   94.99
   6   0  -2 1493.45   95.19
  -6   0   2 1262.47   96.09
   5   0  -2   23.80    2.70
   5   0  -2   26.40    3.00
  -5   0   2   21.30    4.30
  -5   0   2   24.80    4.00
  -4   0   2 3422.66  226.08
   4   0  -2 3479.45  225.28
   4   0  -2 3671.63  225.18
  -3   0   2  197.08   13.50
   3   0  -2  165.78   12.70
   3   0  -2  203.78   12.70
  -3   0   2  182.28   13.30
   2   0  -2 9050.00  601.44
  -2   0   2 9814.32  601.74
  -2   0   2 8838.32  601.94
   2   0  -2 9999.00  602.14
  -1   0   2    3.50    0.80
  -1   0   2    3.50    0.70
   1   0  -2    3.40    0.70
   1   0  -2    2.00    0.70
   0   0  -2  463.75   30.10
   0   0   2  480.45   30.30
   0   0  -2  460.35   30.20
   0   0  -2  509.15   30.30
   0   0  -2  453.75   30.20
   0   0   2  385.96   30.30
   1   0   2   -7.00    0.60
  -1   0  -2   -6.10    0.50
  -1   0  -2   -5.70    0.70
   1   0   2   -6.80    0.50
   1   0   2   -5.80    0.50
  -1   0  -2   -4.20    0.80
   1   0   2   -6.60    0.60
  -2   0  -2 1855.51  117.59
   2   0   2 1720.23  117.89
   2   0   2 1856.71  117.59
  -2   0  -2 1932.41  117.59
   2   0   2 1736.63  117.59
  -2   0  -2 1930.41  117.99
   3   0   2   48.40    3.70
  -3   0  -2   52.69    3.80
   3   0   2   44.40    4.00
  -3   0  -2   55.89    4.30
  -3   0  -2   55.39    3.70
   3   0   2   53.49    3.80
   4   0   2 4184.78  261.07
   4   0   2 3871.71  260.67
  -4   0  -2 4422.56  260.97
  -4   0  -2 3871.01  261.37
   5   0   2  916.51   58.99
   5   0   2  873.11   59.29
  -5   0  -2  874.31   59.99
  -5   0  -2  987.20   59.49
  -6   0  -2 4552.24  273.87
   6   0   2 4376.66  273.67
   6   0   2 3957.30  273.27
  -6   0  -2 4235.68  274.57
  -7   0  -2 2472.35  147.59
   7   0   2 2156.38  146.89
  -7   0  -2 2104.49  148.39
   7   0   2 2423.16  147.29
  -8   0  -2  545.35   40.40
   8   0   2  619.44   39.00
  -9   0  -2   58.39    8.80
  -9   0  -2   40.70    6.30
   9   0   2   43.80    5.40
   9   0   2   33.70    5.00
  10   0   2  231.48   16.70
 -10   0  -2  218.88   19.40
  10   0   2  218.78   16.40
 -10   0  -2  213.18   17.20
 -11   0  -2  251.67   23.50
  11   0   2  303.87   20.70
 -11   0  -2  247.38   20.90
  11   0   2  286.47   20.20
 -11  -1   2  831.92   56.99
  11  -1  -2  838.82   54.79
  11  -1  -2  864.91   54.99
  11   1  -2  856.91   54.39
 -11   1   2  758.62   56.49
  11   1  -2  812.12   54.89
  10  -1  -2  328.97   20.20
  10  -1  -2  263.07   19.90
 -10  -1   2  268.97   21.80
 -10  -1   2  296.17   22.80
  10   1  -2  259.87   19.90
  10   1  -2  268.77   19.30
 -10   1   2  251.07   21.80
 -10   1   2  302.17   21.70
  -9  -1   2   16.60    4.80
   9  -1  -2   18.70    3.50
   9  -1  -2   16.30    3.40
  -9  -1   2   14.80    6.40
   9   1  -2   19.00    2.90
   9   1  -2   17.50    3.30
  -9   1   2   21.60    5.40
  -9   1   2   19.10    5.30
  -8  -1   2 1304.27   88.59
  -8  -1   2 1283.57   89.19
   8  -1  -2 1340.17   87.29
   8  -1  -2 1404.96   87.29
   8   1  -2 1419.66   86.79
  -8   1   2 1287.17   88.69
  -8   1   2 1465.25   88.39
   8   1  -2 1267.77   87.19
   7  -1  -2  144.19    9.90
  -7  -1   2  108.09   10.80
  -7  -1   2   95.99   12.20
  -7   1   2  124.69   11.10
   7   1  -2  126.89    9.80
  -7   1   2  135.69   11.30
   7   1  -2  138.99    9.20
  -6  -1   2 2567.04  190.68
   6  -1  -2 2936.01  189.08
  -6  -1   2 2671.53  189.88
   6  -1  -2 3142.79  189.28
  -6   1   2 2958.40  189.88
   6   1  -2 3245.88  188.68
   6   1  -2 2826.12  189.18
  -6   1   2 3283.87  190.78
  -5  -1   2  133.29   10.40
   5  -1  -2  140.79    9.70
  -5  -1   2  118.99   12.00
   5  -1  -2  131.49    9.70
  -5   1   2  132.29   10.60
   5   1  -2  131.19    9.70
   5   1  -2  133.99    9.10
  -5   1   2  146.99   11.30
   4  -1  -2  249.28   16.90
   4  -1  -2  251.07   16.80
  -4  -1   2  243.58   18.40
  -4  -1   2  241.68   17.30
   4   1  -2  235.48   16.80
   4   1  -2  258.47   16.30
  -4   1   2  264.67   18.10
  -3  -1   2  251.07   20.60
   3  -1  -2  301.77   19.70
   3   1  -2  301.07   19.50
  -3   1   2  308.57   19.60
  -3   1   2  308.07   20.50
   3   1  -2  292.27   19.00
  -2  -1   2 2844.82  161.28
  -2  -1   2 2245.78  161.48
   2   1  -2 2280.97  160.88
  -2   1   2 2444.86  161.58
  -2   1   2 2787.62  160.98
   1  -1  -2   91.99    5.60
  -1  -1   2   82.79    6.00
   1  -1  -2   88.69    6.30
   1  -1  -2   85.29    5.60
  -1  -1   2   92.19    6.00
   1  -1  -2   82.69    5.80
  -1  -1   2   87.59    5.60
  -1   1   2   82.69    5.80
   1   1  -2   92.29    6.00
  -1   1   2   88.79    6.40
   1   1  -2   86.79    6.00
   1   1  -2   77.09    5.60
   1   1  -2   75.79    5.80
   0  -1   2 1205.38   75.29
   0  -1   2 1090.49   75.49
   0  -1  -2 1271.57   75.49
   0  -1  -2 1109.49   75.29
   0  -1  -2 1244.58   75.59
   0   1  -2 1250.77   75.49
   0   1  -2 1221.28   75.49
   0   1  -2 1205.58   75.39
   0   1   2 1107.69   75.29
   0   1   2 1251.97   75.49
   0   1   2 1018.00   75.49
   0   1   2 1273.37   75.49
   0   1  -2 1081.19   75.29
   1  -1   2   70.39    5.30
   1  -1   2   77.39    5.10
  -1  -1  -2   75.09    5.30
  -1  -1  -2   72.79    5.00
  -1  -1  -2   80.39    5.70
   1  -1   2   78.39    5.30
   1   1   2   70.49    5.00
  -1   1  -2   76.59    5.30
   1   1   2   75.99    5.30
  -1   1  -2   65.89    5.20
  -1   1  -2   70.99    5.10
   2  -1   2 8287.77  505.55
   2  -1   2 8602.94  506.75
  -2  -1  -2 6837.42  506.35
   2  -1   2 6778.52  506.45
  -2  -1  -2 8317.27  505.85
  -2   1  -2 8194.68  505.65
   2   1   2 7435.66  505.55
  -2   1  -2 8389.66  506.95
   2   1   2 8924.21  507.55
   2   1   2 7649.93  505.95
   3  -1   2  786.02   51.59
   3  -1   2  735.13   52.19
  -3  -1  -2  838.12   53.19
  -3  -1  -2  825.62   51.89
  -3   1  -2  847.12   51.89
   3   1   2  788.62   51.79
  -3   1  -2  808.72   52.09
   3   1   2  747.53   51.99
   3   1   2  885.61   51.69
  -4  -1  -2  385.16   24.00
  -4  -1  -2  356.16   25.30
   4  -1   2  368.66   23.60
   4  -1   2  339.17   24.20
   4   1   2  401.36   23.80
  -4   1  -2  349.77   24.00
  -4   1  -2  386.36   23.90
   4   1   2  323.37   23.80
   4   1   2  356.16   23.80
  -5  -1  -2    4.40    3.20
  -5  -1  -2    4.30    1.80
   5  -1   2    3.90    1.70
  -5   1  -2    3.00    1.50
  -5   1  -2    2.20    1.40
   5   1   2    6.10    1.60
   5   1   2    3.50    1.30
   6  -1   2  133.19   10.40
  -6  -1  -2  139.29   10.40
   6  -1   2  136.19   10.00
  -6   1  -2  149.09   10.50
   6   1   2  129.89   10.00
  -6   1  -2  143.19   10.70
   6   1   2  141.39   10.10
   7  -1   2  107.49    8.10
  -7  -1  -2  100.19    8.60
  -7  -1  -2  104.69   10.90
   7  -1   2   98.39    8.40
   7   1   2   98.79    8.20
   7   1   2   98.89    9.50
  -7   1  -2  102.99    8.80
  -7   1  -2  102.29   10.10
  -8  -1  -2 1603.04  111.19
   8  -1   2 1820.42  109.49
   8  -1   2 1677.73  108.79
  -8  -1  -2 1772.12  109.39
   8   1   2 1711.53  108.89
  -8   1  -2 1686.63  110.09
   8   1   2 1583.94  108.99
  -8   1  -2 1647.04  109.49
  -9  -1  -2   32.10    4.90
   9  -1   2   33.70    4.80
  -9  -1  -2   25.40    6.80
   9  -1   2   33.10    5.00
  -9   1  -2   32.80    5.10
   9   1   2   25.00    4.20
   9   1   2   27.10    4.40
  -9   1  -2   33.70    6.20
  10  -1   2  587.84   36.70
 -10  -1  -2  526.25   37.00
 -10  -1  -2  499.15   39.10
  10  -1   2  589.74   36.90
 -10   1  -2  494.25   37.10
  10   1   2  506.45   36.50
  10   1   2  549.35   36.30
 -10   1  -2  548.45   38.40
  11  -1   2  579.04   37.50
 -11  -1  -2  545.45   38.00
  11  -1   2  617.34   37.60
 -11  -1  -2  484.25   39.90
 -11   1  -2  505.65   37.90
  11   1   2  546.85   36.90
 -11   1  -2  530.45   39.50
  11   1   2  537.35   37.60
  11  -2  -2   19.80    4.50
  11  -2  -2   27.20    4.80
 -11  -2   2   25.60    8.30
 -11  -2   2   23.00    6.60
  11   2  -2   17.90    4.10
 -11   2   2   21.90    6.70
 -10  -2   2  189.38   17.40
  10  -2  -2  163.08   12.40
 -10  -2   2  157.08   14.20
  10  -2  -2  150.68   12.30
 -10   2   2  145.09   14.20
  10   2  -2  134.59   12.10
  -9  -2   2   20.70    6.50
   9  -2  -2   20.40    3.90
  -9  -2   2   20.80    5.20
   9  -2  -2   19.30    3.70
  -9   2   2   23.30    5.50
  -9   2   2   19.70    5.00
   9   2  -2   14.70    3.20
   9   2  -2   21.50    2.80
   8  -2  -2    0.20    2.30
  -8  -2   2   15.50    5.40
   8  -2  -2    2.60    2.30
  -8  -2   2    3.40    3.30
   8   2  -2    1.80    1.90
  -8   2   2    0.00    3.30
   8   2  -2    1.90    1.40
  -8   2   2   -2.40    4.00
   7  -2  -2  243.98   16.30
  -7  -2   2  175.38   18.50
  -7  -2   2  201.38   17.30
  -7   2   2  239.08   17.60
   7   2  -2  216.78   15.80
  -7   2   2  263.57   16.80
   7   2  -2  228.08   15.10
  -6  -2   2  324.37   28.10
   6  -2  -2  387.56   26.20
   6  -2  -2  404.26   25.90
  -6  -2   2  385.96   26.60
  -6   2   2  377.86   27.10
   6   2  -2  394.36   25.10
   6   2  -2  381.76   25.90
  -6   2   2  421.76   26.30
  -5  -2   2   -1.10    3.60
  -5  -2   2    2.50    2.00
  -5  -2   2    3.70    1.60
   5  -2  -2    5.20    1.60
   5  -2  -2    0.20    1.70
   5   2  -2    0.50    0.70
  -5   2   2    0.10    2.00
   5   2  -2    1.20    1.40
  -5   2   2    2.20    2.20
   4  -2  -2  235.18   18.10
  -4  -2   2  282.97   18.20
  -4  -2   2  256.27   17.20
   4   2  -2  268.07   17.80
  -4   2   2  241.68   18.30
  -4   2   2  289.27   17.10
  -4   2   2  254.17   18.60
  -4   2   2  263.47   17.70
  -3  -2   2  162.18   11.10
  -3   2   2  153.88   10.70
   3   2  -2  155.38   10.80
  -3   2   2  153.08   11.60
   2  -2  -2 1431.36  100.49
  -2  -2   2 1712.63  100.09
  -2  -2   2 1364.56  100.69
   2   2  -2 1635.74   99.89
  -2   2   2 1642.94   99.79
   1  -2  -2   21.20    2.50
  -1  -2   2   22.30    2.60
  -1  -2   2   25.90    3.20
   1  -2  -2   20.60    2.00
  -1  -2   2   20.60    2.00
  -1   2   2   26.70    2.60
  -1   2   2   28.30    3.00
   1   2  -2   27.80    2.10
   0  -2   2   28.30    2.40
   0  -2   2   25.00    2.10
   0  -2  -2   21.50    2.00
   0  -2  -2   19.30    2.30
   0  -2   2   15.10    2.20
   0   2  -2   23.80    2.20
   0   2  -2   23.80    1.90
   0   2   2   22.70    2.20
   0   2  -2   16.90    2.00
   0   2   2   31.30    3.90
   0   2   2   17.10    2.00
   1  -2   2    9.80    1.50
   1  -2   2   11.80    1.20
  -1  -2  -2   11.70    2.50
  -1  -2  -2   10.50    1.00
   1  -2   2    6.90    1.70
   1   2   2   10.20    1.60
   1   2   2   10.40    1.30
  -1   2  -2   10.70    1.40
  -1   2  -2   11.00    0.90
   1   2   2   12.30    1.20
  -2  -2  -2   89.89    7.70
   2  -2   2   76.39    6.00
  -2   2  -2   80.99    5.90
   2   2   2   85.79    6.10
   3  -2   2  216.08   13.90
   3  -2   2  169.68   14.30
   3  -2   2  217.58   13.30
  -3  -2  -2  229.38   13.40
   3  -2   2  204.08   13.40
  -3  -2  -2  192.88   15.90
   3   2   2  201.28   13.80
   3   2   2  199.68   13.90
  -3   2  -2  217.98   13.90
   4  -2   2  428.06   28.20
  -4  -2  -2  456.25   28.00
   4  -2   2  414.66   27.90
   4  -2   2  363.56   28.70
   4  -2   2  469.45   27.80
  -4  -2  -2  404.46   30.60
  -4   2  -2  450.55   28.30
   4   2   2  444.56   28.30
   4   2   2  430.76   28.30
  -4   2  -2  440.86   28.40
   5  -2   2  200.98   13.00
  -5  -2  -2  190.38   13.00
   5  -2   2  175.88   13.80
  -5  -2  -2  173.38   16.00
  -5   2  -2  189.98   13.20
  -5   2  -2  205.18   13.40
   5   2   2  201.58   13.30
   5   2   2  182.98   13.10
  -6  -2  -2  573.04   44.20
  -6  -2  -2  584.34   41.50
   6  -2   2  594.44   42.30
   6  -2   2  660.33   41.50
  -6   2  -2  685.33   42.00
   6   2   2  679.73   42.00
   6   2   2  657.93   41.70
  -6   2  -2  654.63   41.80
  -7  -2  -2  337.97   25.30
   7  -2   2  398.36   25.30
  -7  -2  -2  339.37   28.60
   7  -2   2  384.96   26.20
  -7   2  -2  396.16   26.00
   7   2   2  380.46   25.70
   7   2   2  379.26   25.30
  -7   2  -2  398.96   25.90
  -8  -2  -2  174.08   17.30
  -8  -2  -2  183.98   14.00
   8  -2   2  195.28   14.30
   8  -2   2  217.88   13.90
   8   2   2  175.68   14.00
   8   2   2  181.38   13.50
  -8   2  -2  179.58   14.60
  -8   2  -2  205.28   14.80
   9  -2   2   -1.30    2.70
  -9  -2  -2    3.00    3.30
   9  -2   2    1.50    3.40
  -9  -2  -2    3.90    6.10
  -9   2  -2    6.90    3.60
   9   2   2   -2.30    2.00
   9   2   2   -1.80    2.90
  -9   2  -2    1.90    3.90
 -10  -2  -2    2.00    6.30
  10  -2   2    3.70    3.60
 -10  -2  -2    0.20    3.80
  10  -2   2   10.90    4.30
  10   2   2    7.80    3.80
 -10   2  -2   11.70    5.60
  10   2   2    3.60    2.70
 -10   2  -2    2.50    4.20
  11  -2   2  121.69   10.70
 -11  -2  -2   95.09   15.00
  11   2   2  101.89   10.70
 -11   2  -2   93.69   11.30
  11   2   2  104.79    9.40
 -11   2  -2  110.09   13.70
 -11  -3   2    5.80    6.00
  11  -3  -2   12.40    4.20
  11  -3  -2    7.70    4.30
 -11  -3   2   16.20    9.40
 -11   3   2   10.80    6.00
  11   3  -2    5.40    3.80
 -10  -3   2   -1.70    5.20
  10  -3  -2    1.40    3.10
  10  -3  -2   12.40    3.60
 -10  -3   2    4.70    8.30
 -10   3   2   -2.30    4.10
  10   3  -2    3.80    3.40
   9  -3  -2    5.30    3.00
  -9  -3   2    1.70    4.50
  -9  -3   2    9.20    7.50
   9  -3  -2   -0.50    3.10
   9   3  -2    0.30    2.50
  -9   3   2    2.70    4.10
   8  -3  -2   47.00    5.20
  -8  -3   2   22.40    7.90
   8  -3  -2   40.10    5.60
  -8  -3   2   33.20    5.60
   8   3  -2   33.30    4.60
   8   3  -2   42.00    3.80
  -8   3   2   49.80    6.80
  -8   3   2   41.50    6.20
  -7  -3   2   -3.00    6.30
   7  -3  -2    2.10    2.10
  -7  -3   2    2.80    2.80
   7  -3  -2    1.30    2.50
   7   3  -2    0.70    1.90
  -7   3   2   -0.60    2.80
  -7   3   2    2.10    2.80
   7   3  -2    2.50    1.20
  -6  -3   2   56.09   10.40
   6  -3  -2   77.59    7.30
   6  -3  -2   91.69    6.70
  -6  -3   2   82.19    7.50
   6   3  -2   80.59    6.80
  -6   3   2   78.69    8.20
   6   3  -2   84.09    5.70
  -5  -3   2   16.30    3.00
  -5  -3   2   19.50    2.40
  -5  -3   2   13.90    5.90
   5  -3  -2   20.70    3.50
   5   3  -2   18.50    1.80
  -5   3   2   20.90    3.00
  -5   3   2   18.00    2.60
  -5   3   2   22.70    2.30
  -4  -3   2    1.20    4.20
  -4  -3   2    2.80    1.90
  -4  -3   2    2.80    0.90
  -4  -3   2    1.20    1.20
   4  -3  -2   -1.10    1.80
   4   3  -2    0.90    1.30
  -4   3   2    2.90    2.10
  -4   3   2    0.70    1.30
  -4   3   2    2.50    1.20
  -4   3   2   -0.50    1.10
  -3  -3   2   41.50    3.90
  -3  -3   2   40.60    2.80
   3  -3  -2   40.80    2.90
  -3  -3   2   25.00    5.00
   3  -3  -2   32.40    4.60
  -3   3   2   42.50    3.40
   3   3  -2   40.50    3.60
  -3   3   2   41.00    4.40
  -2  -3   2   73.39    6.00
  -2  -3   2   75.99    5.40
  -2  -3   2   75.49    6.30
   2  -3  -2   85.09    5.40
  -2  -3   2   96.99    7.60
   2  -3  -2   68.19    6.80
   2   3  -2   85.29    5.90
  -2   3   2   74.19    6.30
   2   3  -2   84.99    5.90
  -2   3   2   77.09    5.70
  -1  -3   2    6.70    1.60
   1  -3  -2    7.40    2.10
  -1  -3   2    9.80    1.90
   1  -3  -2    8.20    1.40
  -1   3   2    8.80    1.20
  -1   3   2   11.70    1.60
   1   3  -2    6.00    1.10
  -1   3   2   19.10    3.60
   1   3  -2    9.90    1.30
   1   3  -2   12.90    1.80
   0  -3  -2   -1.20    1.30
   0  -3   2    0.80    1.60
   0  -3   2    1.90    1.30
   0   3  -2    3.10    0.90
   0   3   2   -0.10    0.80
  -1  -3  -2   36.70    3.70
  -1  -3  -2   49.80    4.90
  -1  -3  -2   41.90    3.00
   1  -3   2   36.40    3.50
   1  -3   2   42.80    3.10
   1  -3   2   31.60    4.00
  -1   3  -2   38.10    3.40
   1   3   2   39.10    3.30
  -1   3  -2   37.60    2.90
   1   3   2   42.70    3.10
   2  -3   2   26.00    2.50
  -2  -3  -2   25.70    4.50
   2  -3   2   21.30    1.90
  -2   3  -2   17.70    2.40
   2   3   2   27.20    2.60
   2   3   2   20.50    1.90
   2   3   2   18.70    2.30
   2   3   2   19.70    1.90
   3  -3   2  111.39    7.90
   3  -3   2   88.09    8.70
   3  -3   2  117.19    7.30
  -3  -3  -2  123.89   10.80
   3   3   2  111.99    7.30
  -3   3  -2  101.09    7.50
  -3   3  -2  117.09    8.00
   3   3   2  120.99    7.50
   3   3   2  106.49    7.90
   4  -3   2  113.39   10.60
  -4  -3  -2  140.89    9.20
   4  -3   2  135.59    9.20
   4  -3   2  146.09    9.00
   4  -3   2  135.49    9.60
  -4  -3  -2  106.59   12.00
   4   3   2  148.89    9.90
   4   3   2  145.59    9.70
  -4   3  -2  138.79    9.80
  -5  -3  -2   11.60    5.50
   5  -3   2   21.00    2.20
   5  -3   2   12.60    3.10
  -5  -3  -2   21.30    2.50
   5  -3   2   18.00    2.70
  -5   3  -2   18.90    2.60
   5   3   2   19.30    2.60
  -6  -3  -2   31.70    7.50
  -6  -3  -2   45.20    4.10
   6  -3   2   30.00    3.80
   6  -3   2   37.20    4.90
   6   3   2   35.40    3.80
  -6   3  -2   36.20    3.90
  -6   3  -2   47.60    4.50
   6   3   2   35.00    4.10
   7  -3   2   29.60    4.70
   7  -3   2   35.90    4.30
  -7  -3  -2   31.50    4.40
  -7  -3  -2   28.00    7.50
   7   3   2   24.10    3.40
  -7   3  -2   24.50    3.90
   7   3   2   25.60    3.90
  -7   3  -2   30.50    3.90
  -8  -3  -2   15.40    7.60
   8  -3   2   26.70    4.90
   8  -3   2   32.30    4.00
  -8  -3  -2   26.20    3.90
  -8   3  -2   23.80    4.30
   8   3   2   21.20    3.80
  -8   3  -2   18.60    3.60
   8   3   2   20.00    3.10
  -9  -3  -2    6.70    3.60
   9  -3   2    9.80    3.60
  -9  -3  -2   11.70    7.70
   9   3   2   12.20    3.60
  -9   3  -2   10.90    4.20
  -9   3  -2    8.60    4.00
   9   3   2    8.40    2.50
  10  -3   2   54.69    7.30
 -10  -3  -2   44.80   10.40
  10   3   2   52.59    7.70
 -10   3  -2   49.00    7.40
 -10   3  -2   51.99    7.60
  10   3   2   49.10    5.80
 -11  -3  -2    3.60    8.60
  11  -3   2   -8.00    3.80
 -11   3  -2   -3.50    8.70
  11   3   2   -2.40    3.00
  11   3   2   -3.00    4.70
 -11   3  -2   11.40    6.90
 -10  -4   2  299.57   24.30
  10  -4  -2  343.67   23.90
  10  -4  -2  359.26   22.90
 -10   4   2  251.77   27.90
  -9  -4   2   99.99   11.20
   9  -4  -2  134.49    9.80
  -9  -4   2  118.19   17.20
   9  -4  -2  114.39   10.50
  -9   4   2  102.49   11.80
   9   4  -2  106.89    9.40
   8  -4  -2   74.89    6.90
  -8  -4   2   63.99    8.10
  -8  -4   2   60.19   12.40
   8  -4  -2   84.59    8.10
   8   4  -2   67.39    6.80
  -8   4   2   64.69    8.60
   7  -4  -2  533.35   36.30
  -7  -4   2  463.75   40.30
   7  -4  -2  534.35   35.20
  -7  -4   2  551.64   36.20
   7   4  -2  559.54   35.70
  -7   4   2  531.85   36.90
  -6  -4   2  466.15   27.90
  -6  -4   2  381.06   29.60
   6  -4  -2  408.56   29.10
  -6   4   2  428.26   28.30
   6   4  -2  430.76   28.40
  -6   4   2  402.76   29.40
  -5  -4   2   89.39    7.00
  -5  -4   2   72.49    6.80
  -5  -4   2   60.89   10.10
  -5  -4   2   80.79    5.50
   5  -4  -2   60.49    7.30
  -5   4   2   70.29    7.10
  -5   4   2   80.09    6.30
   5   4  -2   76.29    6.50
  -5   4   2   89.79    5.70
   4  -4  -2  847.32   48.70
  -4  -4   2  723.03   49.50
  -4  -4   2  689.53   48.60
  -4  -4   2  812.52   49.70
  -4   4   2  724.23   49.10
  -3  -4   2    2.20    1.00
  -3  -4   2    4.30    2.50
   3  -4  -2    6.50    2.60
   3  -4  -2    1.60    0.70
  -3  -4   2    1.90    3.10
   3   4  -2    3.30    1.30
  -3   4   2    4.10    2.00
   3   4  -2    0.70    1.00
  -3   4   2    0.50    1.00
  -3   4   2    2.10    2.90
  -2  -4   2 1688.93  125.99
   2  -4  -2 1723.43  125.89
  -2  -4   2 2096.29  125.29
   2  -4  -2 1942.71  124.29
  -2   4   2 1928.01  124.99
   2   4  -2 2006.40  124.69
  -2   4   2 2107.39  124.59
   2   4  -2 2079.09  124.79
  -1  -4   2   11.90    2.50
   1  -4  -2   10.50    1.70
  -1  -4   2   12.40    2.70
   1  -4  -2   11.50    3.00
  -1   4   2   11.70    1.60
   1   4  -2   12.60    1.70
  -1   4   2   11.30    1.80
   1   4  -2   10.70    1.60
   0  -4  -2  211.88   16.30
   0  -4  -2  212.78   15.80
   0  -4   2  218.58   16.30
   0   4   2  237.48   15.20
   0   4   2  233.48   15.20
   0   4  -2  243.48   15.00
   0   4  -2  233.58   15.30
   1  -4   2   35.10    3.20
   1  -4   2   20.40    3.80
  -1  -4  -2   26.90    3.60
  -1  -4  -2   27.20    4.00
  -1   4  -2   30.10    2.90
   1   4   2   28.00    2.50
  -1   4  -2   29.50    2.30
   1   4   2   24.80    2.60
   2  -4   2  443.36   29.60
  -2  -4  -2  485.05   31.30
  -2  -4  -2  435.46   30.10
  -2   4  -2  443.76   29.00
   2   4   2  432.16   29.50
   2   4   2  473.65   29.30
  -2   4  -2  453.15   29.70
   3  -4   2    5.90    1.50
  -3  -4  -2    5.00    3.30
   3  -4   2    3.40    2.70
  -3  -4  -2    5.10    1.90
   3  -4   2    7.00    1.20
  -3   4  -2    8.40    1.10
   3   4   2   10.40    1.40
   3   4   2    5.40    1.60
  -3   4  -2    7.10    1.60
   3   4   2    7.10    1.10
  -4  -4  -2  729.33   53.69
   4  -4   2  792.02   50.89
   4  -4   2  837.82   50.39
  -4   4  -2  793.62   51.29
   4   4   2  764.12   50.99
   4   4   2  837.42   50.49
   4   4   2  805.02   51.19
  -4   4  -2  724.63   50.39
   5  -4   2  287.27   20.10
   5  -4   2  263.67   21.70
   5  -4   2  325.87   19.90
  -5   4  -2  306.57   20.70
   5   4   2  296.17   20.30
   5   4   2  313.17   19.70
   5   4   2  312.07   20.60
   6  -4   2 1223.08   83.09
   6  -4   2 1339.67   81.09
   6   4   2 1249.88   81.89
  -6   4  -2 1256.17   81.39
   6   4   2 1257.47   81.29
  -6   4  -2 1238.28   81.89
   7  -4   2  183.28   12.30
  -7  -4  -2  139.29   17.30
   7  -4   2  174.88   13.90
  -7  -4  -2  169.98   12.10
  -7   4  -2  166.48   12.90
   7   4   2  169.48   13.00
  -8  -4  -2  132.29   12.30
   8  -4   2  122.09   11.50
  -8  -4  -2  116.39   16.00
  -8   4  -2  117.39    9.80
   8   4   2  115.79    9.10
  -8   4  -2  115.69   10.50
   8   4   2  125.19   10.50
   9  -4   2   92.79   10.20
  -9  -4  -2   76.09   12.50
  -9   4  -2  102.69   10.00
   9   4   2   92.89    7.90
   9   4   2  117.39    9.80
  -9   4  -2  100.19    9.40
 -10  -4  -2   46.80   16.70
  10  -4   2   74.59   12.70
  10   4   2   63.49    6.70
  10   4   2   61.29    8.80
 -10   4  -2   65.79    9.60
 -10   4  -2   77.99    9.70
 -10  -5   2   97.69   12.30
  10  -5  -2  115.69   11.80
 -10   5   2  117.79   13.30
  10   5  -2  131.09   10.90
   9  -5  -2    5.40    3.40
  -9  -5   2   17.00   10.10
   9  -5  -2    0.80    4.20
  -9  -5   2    8.80    4.20
   9   5  -2    8.80    3.30
  -9   5   2    2.10    5.00
   8  -5  -2  995.60   63.99
   8  -5  -2  997.50   62.49
  -8  -5   2  875.21   68.49
  -8  -5   2  931.81   63.29
  -8   5   2  918.91   64.39
   8   5  -2 1011.00   63.09
  -7  -5   2   54.99    6.70
  -7  -5   2   51.39   11.60
   7  -5  -2   53.69    5.60
   7  -5  -2   55.89    7.10
   7   5  -2   60.29    6.00
  -7   5   2   63.79    8.10
  -6  -5   2 2182.48  134.99
   6  -5  -2 2120.59  135.89
  -6   5   2 2112.19  134.39
   6   5  -2 2136.79  134.79
  -6   5   2 1904.81  135.49
  -5  -5   2  102.49   14.10
   5  -5  -2  139.99   11.80
   5   5  -2  146.49   10.60
  -5   5   2  163.38    9.60
  -5   5   2  137.29   11.50
  -5   5   2  128.29   10.90
   4  -5  -2  480.85   28.10
   4  -5  -2  391.76   29.90
   4   5  -2  467.25   28.70
   4   5  -2  420.26   28.80
  -4   5   2  400.26   29.40
  -4   5   2  425.96   28.40
   3  -5  -2  146.79   12.60
   3  -5  -2  163.58   10.70
  -3  -5   2  133.59   13.60
  -3  -5   2  190.58   12.80
  -3   5   2  147.59   12.40
   3   5  -2  154.58   11.30
  -3   5   2  164.58   11.10
   3   5  -2  173.28   11.30
  -2  -5   2 1597.24   99.29
   2  -5  -2 1526.55   97.99
   2  -5  -2 1413.66   99.79
   2   5  -2 1557.94   98.19
   2   5  -2 1549.34   98.29
  -2   5   2 1520.65   98.59
  -2   5   2 1546.15   98.09
   1  -5  -2    2.60    1.20
  -1  -5   2    6.40    2.40
  -1  -5   2    2.00    2.80
   1  -5  -2    2.40    2.70
   1   5  -2    2.80    1.00
  -1   5   2    3.90    1.20
   1   5  -2    5.60    1.30
  -1   5   2    2.50    1.40
   0  -5  -2 1168.48   71.69
   0  -5  -2  943.51   72.29
   0  -5   2 1043.20   72.49
   0  -5   2 1082.89   71.59
   0   5   2 1143.99   70.89
   0   5   2 1090.69   70.99
   0   5  -2 1161.38   71.09
   0   5  -2 1172.78   70.69
  -1  -5  -2    2.30    2.70
   1  -5   2    8.10    1.90
  -1  -5  -2    4.20    2.70
   1  -5   2    3.60    3.30
   1   5   2   10.20    1.60
  -1   5  -2    4.90    1.00
   1   5   2    5.00    1.50
  -1   5  -2    5.50    1.50
  -2  -5  -2 4217.48  308.97
   2  -5   2 4488.85  309.87
   2  -5   2 5014.20  308.37
  -2  -5  -2 4450.15  309.57
  -2   5  -2 5053.49  308.47
   2   5   2 5156.28  308.27
   2   5   2 4900.71  307.87
  -2   5  -2 5342.07  307.87
   3  -5   2  259.27   20.70
  -3  -5  -2  269.57   20.90
  -3  -5  -2  273.87   19.50
   3  -5   2  273.47   18.60
  -3   5  -2  272.57   18.80
   3   5   2  270.47   18.70
   3   5   2  298.07   18.20
  -3   5  -2  280.27   18.00
  -4  -5  -2  222.78   18.80
   4  -5   2  224.08   15.30
   4  -5   2  209.18   17.50
  -4  -5  -2  217.48   16.30
   4   5   2  223.38   15.60
  -4   5  -2  220.28   15.80
  -4   5  -2  226.58   14.90
   4   5   2  243.88   15.00
  -5  -5  -2   42.20    7.90
   5  -5   2   41.20    3.80
   5  -5   2   41.90    3.90
  -5  -5  -2   33.50    5.50
   5  -5   2   38.00    6.50
   5   5   2   37.70    3.50
   5   5   2   35.80    4.40
  -5   5  -2   31.30    4.40
   6  -5   2  373.76   27.40
   6  -5   2  429.76   24.90
  -6  -5  -2  294.57   28.90
   6   5   2  392.26   24.30
   6   5   2  359.26   25.40
  -6   5  -2  347.87   25.50
  -7  -5  -2   44.00    9.80
   7  -5   2   65.19    9.20
  -7   5  -2   80.69    7.40
   7   5   2   68.29    7.10
  -7   5  -2   64.19    6.00
   7   5   2   69.09    5.90
  -8  -5  -2  895.61   69.69
   8  -5   2 1157.08   67.89
  -8   5  -2  984.90   66.09
  -8   5  -2 1004.30   64.99
   8   5   2  949.60   65.69
   8   5   2  987.10   64.69
   9  -5   2   28.80    7.00
  -9  -5  -2   28.60   12.10
   9   5   2   17.10    4.70
  -9   5  -2   24.70    6.20
  -9   5  -2   20.90    4.90
   9   5   2   21.50    3.50
 -10  -5  -2  502.15   39.90
  10  -5   2  559.44   35.90
 -10   5  -2  462.95   34.90
  10   5   2  430.46   33.80
   9  -6  -2   21.50    5.40
  -9  -6   2    8.90   12.20
   9   6  -2   15.60    3.80
  -9   6   2   22.80    6.60
   8  -6  -2   79.09    7.20
  -8  -6   2   68.09   15.50
  -8   6   2   74.29   10.50
   8   6  -2   65.59    6.90
   8   6  -2   71.79    7.70
   7  -6  -2  611.44   40.40
   7  -6  -2  682.73   42.60
  -7  -6   2  563.04   47.00
  -7   6   2  604.74   42.60
  -7   6   2  623.04   40.80
   7   6  -2  619.34   41.20
   7   6  -2  582.94   40.30
  -6  -6   2  603.24   51.19
   6  -6  -2  821.62   49.00
   6   6  -2  689.13   46.50
  -6   6   2  700.83   46.60
   6   6  -2  757.82   47.20
  -6   6   2  684.73   48.10
   5  -6  -2    7.90    2.10
   5  -6  -2    6.70    3.70
  -5  -6   2    0.20    5.80
   5   6  -2    4.70    2.00
   5   6  -2   10.20    2.60
  -5   6   2    5.20    3.00
  -5   6   2    3.20    1.80
   4  -6  -2  980.30   57.99
  -4  -6   2 1026.50   59.49
   4  -6  -2  951.70   60.49
  -4  -6   2  754.42   61.39
   4   6  -2  886.31   58.49
  -4   6   2  851.71   59.29
   4   6  -2  866.71   58.69
  -4   6   2  880.91   58.29
  -3  -6   2  441.16   27.50
  -3  -6   2  358.06   28.40
   3  -6  -2  391.56   27.80
   3  -6  -2  385.46   25.50
   3   6  -2  398.76   26.00
  -3   6   2  386.56   25.80
  -3   6   2  379.46   26.60
   3   6  -2  385.26   26.00
   2  -6  -2 3604.24  228.18
  -2  -6   2 3378.96  229.98
  -2  -6   2 3633.84  229.78
   2   6  -2 3714.33  228.38
  -2   6   2 3431.36  228.78
   2   6  -2 3569.04  228.48
  -2   6   2 3688.33  228.28
  -1  -6   2   40.40    6.00
   1  -6  -2   43.80    3.90
  -1  -6   2   35.30    4.60
   1  -6  -2   40.20    6.50
  -1   6   2   32.60    4.00
   1   6  -2   39.50    3.60
   1   6  -2   36.70    3.90
  -1   6   2   34.60    3.40
   0  -6  -2  294.77   19.60
   0  -6  -2  244.08   20.80
   0  -6   2  271.67   19.60
   0  -6   2  270.87   21.30
   0   6  -2  278.17   18.60
   0   6   2  278.27   18.80
   0   6   2  271.77   19.00
   0   6  -2  329.07   19.30
   1  -6   2    3.70    1.80
  -1  -6  -2   -1.60    3.50
   1  -6   2    2.70    4.50
  -1   6  -2    5.70    1.20
   1   6   2    2.10    1.60
   1   6   2    2.30    1.40
  -1   6  -2    0.10    1.50
  -2  -6  -2  553.54   41.10
   2  -6   2  597.64   39.60
   2  -6   2  573.34   41.80
   2   6   2  607.34   39.40
  -2   6  -2  601.14   39.60
  -2   6  -2  620.94   38.80
   2   6   2  646.94   39.30
  -3  -6  -2  142.19   13.80
   3  -6   2  151.18   13.90
   3  -6   2  144.89   10.80
   3   6   2  145.39   10.90
  -3   6  -2  150.98   11.20
   3   6   2  165.08   10.80
  -3   6  -2  155.28   10.20
   4  -6   2 1109.69   73.59
   4  -6   2 1209.58   76.99
  -4  -6  -2 1036.80   76.49
   4   6   2 1222.38   73.39
   4   6   2 1161.58   73.99
  -4   6  -2 1156.98   73.19
  -4   6  -2 1086.29   74.09
   5  -6   2   42.50    4.40
  -5  -6  -2   43.80    6.70
   5  -6   2   58.29    8.90
  -5  -6  -2   48.20    9.30
  -5   6  -2   45.50    4.50
   5   6   2   53.29    5.40
  -5   6  -2   44.00    5.40
   5   6   2   57.49    5.50
  -6  -6  -2 1781.12  126.99
   6  -6   2 1968.30  122.39
  -6  -6  -2 1736.93  123.69
   6   6   2 2144.79  123.59
  -6   6  -2 1897.01  123.39
  -7  -6  -2  745.93   52.99
  -7  -6  -2  675.03   56.59
   7   6   2  878.91   52.79
  -7   6  -2  809.62   52.69
  -7   6  -2  817.22   51.69
   8  -6   2  413.76   29.20
  -8  -6  -2  299.47   39.10
  -8   6  -2  315.77   24.70
   8   6   2  321.97   25.10
   9  -6   2   21.20    6.50
  -9  -6  -2    9.30   10.90
  -9   6  -2   12.70    5.20
   9   6   2    8.40    4.50
  -8  -7   2  487.55   43.50
   8  -7  -2  578.14   37.00
   8   7  -2  482.35   35.10
  -8   7   2  495.65   37.20
  -7  -7   2  303.27   29.00
   7  -7  -2  310.47   24.00
   7   7  -2  285.27   20.50
  -7   7   2  298.47   20.80
  -7   7   2  276.07   25.30
  -6  -7   2  422.66   36.20
   6  -7  -2  529.35   33.00
  -6   7   2  438.26   30.10
   6   7  -2  434.26   30.20
  -6   7   2  421.06   32.00
   6   7  -2  461.65   30.80
  -5  -7   2    7.60    6.30
   5  -7  -2    4.00    4.00
  -5   7   2   -1.00    3.10
  -5   7   2    2.70    2.10
   5   7  -2    2.90    2.50
   5   7  -2    4.80    2.40
  -4  -7   2   45.10    9.00
   4  -7  -2   60.59    8.30
   4  -7  -2   58.69    5.00
   4   7  -2   55.89    5.60
  -4   7   2   54.29    6.90
   4   7  -2   60.29    5.70
  -4   7   2   50.59    5.10
  -3  -7   2   77.39    9.90
   3  -7  -2   95.49    9.40
  -3  -7   2   97.29    9.90
   3  -7  -2   80.49    6.30
  -3   7   2   86.49    8.00
   3   7  -2   81.89    7.10
   3   7  -2   75.79    6.80
  -3   7   2   79.89    6.60
   2  -7  -2  694.93   44.60
  -2  -7   2  592.74   43.70
   2  -7  -2  634.64   41.90
  -2  -7   2  674.93   44.20
  -2   7   2  632.64   41.90
   2   7  -2  648.04   42.00
  -2   7   2  629.94   42.70
   2   7  -2  642.74   42.30
   1  -7  -2   82.59   10.10
  -1  -7   2   98.49   11.00
  -1  -7   2   93.09    8.70
   1   7  -2   86.29    7.50
   1   7  -2   86.69    7.00
  -1   7   2   91.89    7.10
  -1   7   2  103.39    7.90
   0  -7  -2  114.29   11.80
   0  -7   2  107.09   12.30
   0  -7  -2  125.29    9.50
   0  -7   2  123.09    9.80
   0   7  -2  109.59    9.00
   0   7   2  109.49    8.70
   0   7   2  118.29    9.10
   0   7  -2  117.19    8.40
   1  -7   2   77.39   10.30
  -1  -7  -2   80.59    7.80
  -1  -7  -2   73.19   10.00
   1  -7   2   72.49    6.90
   1   7   2   77.59    6.70
   1   7   2   78.39    6.20
  -1   7  -2   76.29    5.90
  -1   7  -2   74.09    6.60
  -2  -7  -2 1865.51  115.09
  -2  -7  -2 1528.95  115.29
   2  -7   2 1807.72  113.39
   2  -7   2 1744.03  116.19
   2   7   2 1771.62  113.09
  -2   7  -2 1858.71  112.59
  -2   7  -2 1679.93  113.39
   2   7   2 1804.22  113.09
   3  -7   2  334.77   22.70
   3  -7   2  351.76   26.80
  -3  -7  -2  309.37   25.20
  -3  -7  -2  294.27   25.50
   3   7   2  334.37   22.80
  -3   7  -2  347.67   22.00
   3   7   2  363.36   22.70
  -3   7  -2  329.27   23.10
  -4  -7  -2   63.09    9.00
  -4  -7  -2   67.49   11.20
   4  -7   2   66.19    5.90
   4  -7   2   85.99   11.00
  -4   7  -2   71.59    6.80
   4   7   2   74.69    6.70
  -5  -7  -2    7.80    6.30
   5  -7   2    5.10    1.90
   5  -7   2    5.50    6.40
  -5  -7  -2    7.60    7.20
   5   7   2    2.90    2.40
  -5   7  -2    5.80    2.70
   6  -7   2    4.00    7.20
  -6  -7  -2    5.40    6.30
   6  -7   2    7.70    2.10
  -6  -7  -2   -7.30    8.20
  -6   7  -2   -3.20    2.90
   6   7   2    1.10    2.70
   7  -7   2   17.90   11.10
  -7  -7  -2    3.90   10.10
  -7   7  -2    6.40    4.10
   7   7   2    6.70    3.50
   8  -7   2  464.15   31.60
  -8  -7  -2  333.87   35.20
  -8   7  -2  364.76   28.00
   8   7   2  381.36   27.70
  -6  -8   2  152.68   19.30
   6   8  -2  156.78   11.50
  -6   8   2  128.09   11.00
   6   8  -2  133.89   11.30
  -6   8   2  120.49   13.50
   5  -8  -2   52.59   11.60
  -5   8   2   26.30    6.10
   5   8  -2   34.40    4.50
   5   8  -2   26.10    4.50
  -5   8   2   32.30    4.60
   4  -8  -2   27.10    5.90
  -4  -8   2   14.50    6.40
   4   8  -2   17.40    3.30
  -4   8   2   13.00    3.00
  -4   8   2   20.60    4.90
   4   8  -2   22.90    3.60
   3  -8  -2  255.07   18.40
  -3  -8   2  201.28   17.70
   3   8  -2  208.78   15.30
   3   8  -2  191.28   14.80
  -3   8   2  206.98   14.80
  -3   8   2  213.18   16.20
  -2  -8   2   88.19   11.10
  -2  -8   2   70.49    8.70
   2  -8  -2   70.19    6.20
  -2   8   2   68.29    7.90
   2   8  -2   84.29    7.10
   2   8  -2   64.89    6.30
  -2   8   2   67.79    6.20
  -1  -8   2    3.90    3.30
   1  -8  -2   -0.50    4.80
   1  -8  -2    1.40    2.20
  -1  -8   2    3.50    6.10
  -1   8   2    1.60    2.90
   1   8  -2    4.10    2.30
   1   8  -2    4.00    1.90
  -1   8   2    1.90    1.90
   0  -8  -2    3.90    5.50
   0  -8  -2   12.40    3.00
   0  -8   2    3.00    3.10
   0  -8   2   13.10    6.80
   0   8   2   10.60    3.20
   0   8  -2    6.70    1.90
   0   8  -2    2.40    2.20
   0   8   2    7.00    2.00
  -1  -8  -2   22.30    4.10
  -1  -8  -2   26.90    7.00
   1  -8   2   19.70    7.40
   1  -8   2   18.30    3.70
   1   8   2   17.30    3.60
   1   8   2   15.40    2.80
  -1   8  -2   15.60    2.40
  -1   8  -2   12.20    3.00
  -2  -8  -2    7.00    6.60
   2  -8   2   10.30    7.20
  -2  -8  -2    8.60    4.20
   2  -8   2   14.80    3.00
  -2   8  -2   13.70    2.90
   2   8   2   11.00    2.60
  -2   8  -2   11.80    2.10
   2   8   2   11.70    3.30
  -3  -8  -2   70.19   10.80
   3  -8   2   77.69   11.70
  -3  -8  -2   67.19    9.70
   3  -8   2   69.49    6.30
   3   8   2   63.99    6.20
  -3   8  -2   51.49    6.70
   4  -8   2    2.40    7.60
  -4  -8  -2   -5.00    6.20
   4  -8   2    9.70    2.70
  -4  -8  -2   -8.30    8.00
  -4   8  -2    4.00    3.00
   4   8   2    4.60    2.60
  -5  -8  -2   16.80    9.50
   5  -8   2    6.20    7.90
   5  -8   2    4.30    2.40
  -5  -8  -2   11.40    7.70
   6  -8   2   93.09   13.70
  -6  -8  -2   72.99   13.70
  -6   8  -2   53.69    7.60
   6   8   2   65.49    7.70
   4  -9  -2    3.90    5.30
  -4  -9   2    3.30    5.70
  -4   9   2    8.00    3.00
   4   9  -2    0.90    3.60
  -3  -9   2   12.90    5.40
   3  -9  -2   12.10    7.40
  -3   9   2   21.50    3.70
   3   9  -2   13.80    3.30
  -3   9   2   21.50    5.20
   3   9  -2   20.50    4.00
   2  -9  -2   19.90    6.40
  -2  -9   2   14.50    5.30
  -2   9   2   17.80    3.40
  -2   9   2   24.70    5.10
   2   9  -2   21.80    3.30
   2   9  -2   16.70    3.90
   1  -9  -2   16.20    3.50
   1  -9  -2   30.60    6.70
  -1  -9   2   16.80   11.90
  -1  -9   2   15.80    4.70
   1   9  -2   15.90    3.00
  -1   9   2   12.60    3.00
   1   9  -2   13.20    3.70
  -1   9   2   19.30    4.80
   0  -9  -2   95.39    8.60
   0  -9   2   89.59    9.30
   0  -9   2   73.69   11.90
   0  -9  -2  114.99   13.50
   0   9  -2   96.29    7.60
   0   9   2   87.79    9.50
   0   9  -2   75.59    8.30
   0   9   2   81.49    7.60
  -1  -9  -2   76.39    8.40
  -1  -9  -2  109.19   14.10
   1  -9   2   73.79    8.10
   1  -9   2   79.39   11.90
  -1   9  -2   64.49    7.40
  -1   9  -2   71.89    6.50
   1   9   2   65.09    6.80
   1   9   2   77.49    8.20
   2  -9   2   93.49   14.70
  -2  -9  -2  101.19   13.60
   2  -9   2   83.29    8.10
  -2   9  -2   71.99    8.40
   2   9   2   79.19    7.40
  -3  -9  -2   20.90    9.50
  -3  -9  -2   10.00    5.30
   3  -9   2   17.10    8.90
   3  -9   2    8.60    3.10
   3   9   2   10.60    3.10
  -3   9  -2    6.20    3.50
  -4  -9  -2   80.29   11.80
   4  -9   2   56.89   15.00
   4  -9   2   47.20    5.90
   4   9   2   45.10    6.40
  -4   9  -2   53.09    7.60
  11   0  -3    1.70    3.40
  11   0  -3    6.80    3.20
 -11   0   3    7.00    8.90
  10   0  -3    0.40    2.40
 -10   0   3    4.30    4.60
  10   0  -3   -1.90    3.10
 -10   0   3   -1.90    5.20
   9   0  -3    3.70    2.20
   9   0  -3    1.80    2.30
  -9   0   3    1.60    6.40
  -9   0   3   -1.90    4.30
   8   0  -3   -1.00    1.70
   8   0  -3   -1.30    2.10
  -8   0   3   -2.70    3.00
  -8   0   3    8.10    4.60
   7   0  -3    7.70    2.20
   7   0  -3    7.50    1.90
  -7   0   3   11.70    4.50
  -7   0   3    8.80    3.50
  -6   0   3    1.10    3.60
   6   0  -3    0.20    1.70
   6   0  -3    1.50    1.30
  -6   0   3    1.90    3.30
   5   0  -3    1.20    1.50
  -5   0   3    4.20    3.50
  -5   0   3    0.70    2.60
   5   0  -3    5.00    1.50
   4   0  -3   -1.20    1.20
   4   0  -3   -1.20    0.90
  -4   0   3   -2.40    2.20
  -4   0   3   -1.00    2.10
  -3   0   3   18.50    2.90
   3   0  -3   12.80    1.90
  -2   0   3    1.20    0.70
   2   0  -3    1.00    0.70
  -2   0   3    1.40    1.00
   2   0  -3    1.10    0.80
  -2   0   3   -0.30    0.80
   2   0  -3    2.60    0.80
  -1   0   3   -9.90    0.80
  -1   0   3  -11.20    0.50
   0   0   3   -2.90    0.60
   0   0  -3   -4.20    0.50
   0   0   3   -2.00    0.60
   0   0  -3   -3.50    0.60
   0   0   3   -0.80    0.80
   0   0  -3   -3.40    0.60
   0   0  -3   -3.10    0.60
   0   0   3   -4.30    0.50
   1   0   3    0.30    0.70
   1   0   3    0.80    0.80
   1   0   3   -0.60    0.40
  -1   0  -3   -0.50    0.40
  -2   0  -3    1.30    0.90
  -2   0  -3    0.50    0.50
   2   0   3    1.00    0.50
  -2   0  -3    0.00    0.40
   2   0   3   -0.30    0.70
   3   0   3   -0.80    0.80
   3   0   3   -1.50    0.70
  -3   0  -3   -1.10    1.10
  -3   0  -3    0.20    0.80
   3   0   3    2.50    1.40
  -3   0  -3   -3.20    0.70
   4   0   3   -2.60    0.80
  -4   0  -3   -2.50    1.40
  -4   0  -3   -0.90    0.90
  -5   0  -3    7.10    1.60
  -5   0  -3    0.60    2.00
  -6   0  -3   -0.40    1.70
  -6   0  -3   -0.40    2.80
   6   0   3    3.60    1.60
   6   0   3    0.20    1.30
  -7   0  -3    6.70    3.40
   7   0   3    1.50    2.10
  -7   0  -3   -0.10    2.30
   7   0   3    4.50    2.00
  -8   0  -3   -2.50    3.90
   8   0   3   -0.40    2.50
  -8   0  -3    1.70    2.70
   8   0   3    3.20    2.20
   9   0   3    0.50    2.60
  -9   0  -3   -2.90    3.30
  -9   0  -3    3.40    5.10
   9   0   3   -4.70    3.00
 -10   0  -3    3.90    4.10
 -10   0  -3    6.60    6.10
  10   0   3    2.10    3.90
  10   0   3    0.50    3.00
 -11   0  -3    1.90    7.40
  11   0   3    4.50    3.80
 -11   0  -3    1.20    4.80
  11  -1  -3  167.78   13.10
 -11  -1   3  174.68   16.40
 -11  -1   3  211.48   17.70
  11  -1  -3  163.38   13.50
 -11   1   3  151.78   16.00
  11   1  -3  153.08   13.20
  10  -1  -3    5.90    3.10
  10  -1  -3    2.70    2.70
 -10  -1   3    5.00    6.50
 -10  -1   3    4.20    5.20
  10   1  -3    0.30    2.80
  10   1  -3    2.10    2.50
 -10   1   3    1.30    4.80
  -9  -1   3  652.73   45.70
   9  -1  -3  629.14   43.70
  -9  -1   3  705.73   46.50
   9  -1  -3  665.63   43.60
  -9   1   3  760.82   44.90
   9   1  -3  665.63   43.00
   9   1  -3  593.84   43.60
  -9   1   3  602.64   45.60
   8  -1  -3    1.90    2.00
  -8  -1   3   -1.00    3.30
  -8  -1   3    2.80    5.60
   8  -1  -3    3.50    2.30
   8   1  -3    2.00    1.50
   8   1  -3    3.20    2.30
  -8   1   3   10.30    4.60
  -8   1   3    2.00    3.80
  -7  -1   3  260.77   21.30
   7  -1  -3  308.27   20.10
   7  -1  -3  318.87   20.30
  -7  -1   3  293.57   22.80
   7   1  -3  318.37   19.50
  -7   1   3  269.17   21.60
  -7   1   3  301.37   21.10
   7   1  -3  259.97   20.00
   6  -1  -3  121.49    9.30
   6  -1  -3  129.29    9.40
  -6  -1   3  117.29   12.40
  -6  -1   3  123.29   10.60
  -6   1   3  147.89   10.60
   6   1  -3  100.59    9.60
  -6   1   3  114.69   10.90
   6   1  -3  134.49    8.70
  -5  -1   3    9.10    4.40
   5  -1  -3    6.00    1.80
  -5  -1   3    9.70    2.70
   5  -1  -3    8.30    1.90
  -5   1   3    7.20    2.70
  -5   1   3    6.40    3.10
   5   1  -3    6.20    1.70
   5   1  -3    6.10    1.20
   4  -1  -3  243.18   16.80
   4  -1  -3  257.37   16.80
  -4  -1   3  215.78   18.30
  -4   1   3  283.97   16.90
   4   1  -3  236.68   16.70
   4   1  -3  260.87   16.20
  -4   1   3  222.78   17.90
  -3  -1   3 1174.28   76.49
   3  -1  -3 1271.97   76.49
  -3  -1   3 1330.87   75.79
   3   1  -3 1012.40   75.69
  -3   1   3 1158.18   77.09
  -3   1   3 1221.28   75.59
  -3   1   3 1195.38   76.19
   3   1  -3 1103.49   75.99
   2  -1  -3   21.70    1.60
  -2  -1   3   21.60    2.60
  -2  -1   3   22.10    2.50
   2  -1  -3   19.90    2.40
   2   1  -3   22.10    2.10
   2   1  -3   20.70    1.70
  -2   1   3   22.00    3.10
  -2   1   3   20.90    1.60
   2   1  -3   21.50    1.60
   1  -1  -3  253.67   14.90
   1  -1  -3  213.08   15.20
  -1  -1   3  218.58   15.30
  -1   1   3  237.28   15.50
  -1   1   3  234.68   15.10
   1   1  -3  221.78   14.90
   1   1  -3  219.98   15.10
   1   1  -3  220.18   15.20
   0  -1   3  132.29    9.00
   0  -1  -3  150.48    8.90
   0  -1  -3  133.39    8.80
   0  -1   3  114.69    8.70
   0  -1   3  112.69    8.80
   0  -1  -3  152.88    8.90
   0   1   3  121.39    8.70
   0   1  -3  131.99    8.70
   0   1   3  133.19    9.00
   0   1   3  134.69    8.80
   0   1  -3  136.29    8.70
   0   1  -3  122.59    8.70
  -1  -1  -3 3985.90  240.98
  -1  -1  -3 3542.75  241.28
   1  -1   3 4088.39  240.88
   1  -1   3 3341.57  241.08
   1   1   3 3961.50  241.28
  -1   1  -3 3564.84  241.08
   1   1   3 3572.84  240.88
  -1   1  -3 3977.30  240.88
   1   1   3 3992.60  240.98
  -2  -1  -3   45.60    2.90
  -2  -1  -3   54.19    4.20
   2  -1   3   38.90    2.80
   2  -1   3   36.90    3.60
   2   1   3   44.10    3.50
  -2   1  -3   41.90    2.80
   2   1   3   38.20    3.10
  -2   1  -3   45.00    3.20
  -3  -1  -3   84.19    7.20
   3  -1   3   81.59    6.30
  -3  -1  -3  103.09    6.60
   3  -1   3   78.39    6.60
  -3   1  -3   90.29    6.50
   3   1   3   87.89    5.80
   3   1   3   80.69    6.40
   3   1   3   78.59    6.10
  -3   1  -3   86.59    6.10
  -3   1  -3   93.79    5.80
  -4  -1  -3   11.40    1.70
   4  -1   3    7.40    1.10
  -4  -1  -3    9.30    2.80
   4  -1   3    7.60    2.00
   4   1   3    6.80    1.50
  -4   1  -3    7.90    1.30
   4   1   3    5.80    1.30
  -4   1  -3   10.60    1.60
  -4   1  -3    6.20    1.60
   4   1   3    7.70    1.20
  -5  -1  -3  446.46   27.70
   5  -1   3  408.36   27.10
   5  -1   3  407.16   28.10
  -5  -1  -3  412.46   29.20
  -5   1  -3  429.96   27.50
   5   1   3  406.06   27.40
  -5   1  -3  426.16   27.90
   5   1   3  403.46   27.70
   6  -1   3    6.50    2.20
   6  -1   3    4.90    1.50
  -6  -1  -3    0.50    3.20
  -6  -1  -3    8.10    2.30
   6   1   3    4.70    1.80
  -6   1  -3    7.20    2.30
   6   1   3    6.50    1.90
  -6   1  -3    5.90    1.80
  -7  -1  -3  710.33   43.80
   7  -1   3  639.54   43.20
   7  -1   3  674.93   44.00
  -7  -1  -3  599.14   45.30
   7   1   3  652.53   43.60
  -7   1  -3  661.03   44.20
   7   1   3  652.43   43.50
  -7   1  -3  700.93   43.90
   8  -1   3   55.89    6.10
  -8  -1  -3   54.59    6.60
   8  -1   3   57.69    6.50
  -8  -1  -3   61.69    9.10
   8   1   3   60.39    6.30
   8   1   3   62.99    5.90
  -8   1  -3   65.89    6.80
  -8   1  -3   63.39    7.70
   9  -1   3  300.77   22.90
  -9  -1  -3  275.77   24.10
   9  -1   3  321.07   21.90
  -9  -1  -3  301.67   24.30
   9   1   3  306.57   21.60
  -9   1  -3  296.37   22.80
  -9   1  -3  287.37   21.90
   9   1   3  321.27   21.40
 -10  -1  -3  182.98   15.60
 -10  -1  -3  176.28   18.60
  10  -1   3  209.28   15.50
  10  -1   3  204.58   15.50
 -10   1  -3  171.38   15.90
 -10   1  -3  206.68   17.60
  10   1   3  203.48   14.90
  10   1   3  207.38   15.80
 -11  -1  -3  143.89   17.30
  11  -1   3  150.38   13.00
  11   1   3  157.68   12.50
 -11   1  -3  126.99   13.80
  11   1   3  170.28   13.70
 -11   1  -3  139.19   16.10
 -11  -2   3  599.74   41.10
  11  -2  -3  583.44   38.30
  11  -2  -3  588.44   38.20
 -11   2   3  474.95   40.10
  10  -2  -3   77.59    7.80
 -10  -2   3   79.79   11.50
 -10  -2   3  113.59   13.60
  10  -2  -3   79.69    8.10
  10   2  -3   75.09    7.70
 -10   2   3   72.19   10.30
   9  -2  -3   41.00    5.60
  -9  -2   3   36.90    7.90
   9  -2  -3   35.00    5.10
   9   2  -3   44.80    4.10
  -9   2   3   31.20    6.20
   9   2  -3   36.10    5.20
  -8  -2   3 1199.78   90.69
   8  -2  -3 1467.35   88.39
  -8  -2   3 1227.08   89.19
   8  -2  -3 1473.05   88.19
   8   2  -3 1427.26   87.09
  -8   2   3 1386.06   89.89
   8   2  -3 1308.57   87.99
  -7  -2   3 1918.11  134.99
   7  -2  -3 2144.09  133.99
   7  -2  -3 2144.69  134.19
  -7  -2   3 1814.32  136.59
   7   2  -3 2144.89  133.09
  -7   2   3 2355.86  134.19
  -7   2   3 2091.39  135.69
   7   2  -3 2036.00  133.99
  -6  -2   3   29.70    6.50
  -6  -2   3   31.70    5.70
   6  -2  -3   34.50    3.90
   6  -2  -3   31.40    4.00
   6   2  -3   29.60    3.90
  -6   2   3   33.70    5.60
   6   2  -3   31.70    2.70
  -6   2   3   43.80    4.90
  -6   2   3   30.70    2.90
   5  -2  -3 1790.02  119.79
  -5  -2   3 1843.32  120.19
   5  -2  -3 1873.61  119.49
  -5   2   3 1870.71  118.59
   5   2  -3 1885.11  118.59
  -5   2   3 1899.01  120.99
  -4  -2   3   93.69    7.40
  -4  -2   3   80.99    9.60
   4   2  -3   87.19    6.80
  -4   2   3   84.29    8.20
  -4   2   3   89.39    6.90
  -3  -2   3 4019.60  232.58
  -3  -2   3 3289.27  233.28
   3  -2  -3 3811.82  232.68
   3   2  -3 3599.44  231.98
  -3   2   3 3726.33  231.98
  -3   2   3 3352.96  233.08
   2  -2  -3  537.05   37.10
  -2  -2   3  641.24   36.90
  -2  -2   3  473.95   37.10
   2   2  -3  581.24   36.50
  -2   2   3  605.04   36.50
  -2   2   3  537.65   37.50
  -1  -2   3  104.29    7.70
   1  -2  -3   97.89    7.90
  -1  -2   3   98.99    7.50
  -1   2   3  122.99    7.40
  -1   2   3  110.39    8.60
   1   2  -3  103.59    7.30
  -1   2   3  105.79    7.50
   1   2  -3  109.29    7.50
   0  -2   3    8.70    1.30
   0  -2  -3    7.00    1.20
   0  -2   3    5.00    1.20
   0  -2  -3    3.40    1.20
   0   2   3    3.20    0.80
   0   2  -3    4.00    1.00
   0   2  -3    6.40    1.00
   0   2   3    5.90    1.50
   0   2  -3    4.00    1.00
   1  -2   3 2585.84  167.98
  -1  -2  -3 2916.51  167.48
   1  -2   3 2247.38  167.98
  -1  -2  -3 2600.94  168.78
   1   2   3 2663.83  168.08
   1   2   3 2648.33  167.68
  -1   2  -3 2543.25  167.48
  -1   2  -3 2550.64  167.78
   1   2   3 2893.71  167.58
  -2  -2  -3   33.30    4.30
  -2   2  -3   25.30    2.40
   2   2   3   29.80    2.80
   2   2   3   25.60    2.40
   3  -2   3 3061.49  182.78
   3  -2   3 2434.16  183.08
  -3  -2  -3 2782.32  184.28
   3   2   3 3021.30  182.88
   3   2   3 2841.42  182.58
  -3   2  -3 3006.60  182.68
   4  -2   3  287.97   22.70
  -4  -2  -3  295.37   21.70
   4  -2   3  374.56   21.50
  -4  -2  -3  353.76   24.60
   4  -2   3  337.27   21.50
   4  -2   3  336.37   22.20
   4   2   3  334.57   22.20
   4   2   3  349.87   21.60
   4   2   3  338.37   22.30
  -4   2  -3  332.47   22.20
  -5  -2  -3 3356.76  224.18
   5  -2   3 3217.58  225.28
   5  -2   3 3412.56  224.08
   5  -2   3 4062.79  224.08
  -5  -2  -3 3253.87  226.88
  -5   2  -3 3396.26  224.78
   5   2   3 3608.14  224.68
   5   2   3 3518.05  224.18
  -5   2  -3 3701.53  224.68
   5   2   3 3619.94  224.78
   6  -2   3 1641.14  106.29
  -6  -2  -3 1563.64  106.49
   6  -2   3 1578.04  107.49
  -6  -2  -3 1575.54  109.29
   6   2   3 1768.72  106.99
   6   2   3 1712.73  106.99
  -6   2  -3 1683.03  107.09
  -6   2  -3 1761.12  107.09
   7  -2   3  212.88   14.30
   7  -2   3  202.58   15.40
  -7  -2  -3  182.88   17.20
  -7  -2  -3  198.68   14.40
  -7   2  -3  224.08   15.00
   7   2   3  207.98   14.80
  -7   2  -3  207.58   14.90
   7   2   3  206.58   14.60
  -8  -2  -3   66.29   10.30
   8  -2   3   56.79    5.60
   8  -2   3   49.80    6.20
  -8  -2  -3   54.79    5.80
  -8   2  -3   49.00    6.50
  -8   2  -3   48.30    6.10
   8   2   3   43.00    5.10
   8   2   3   44.70    5.90
  -9  -2  -3  370.06   32.10
   9  -2   3  436.26   29.60
  -9  -2  -3  415.66   28.70
   9  -2   3  481.75   28.80
  -9   2  -3  415.06   29.50
  -9   2  -3  404.86   29.70
   9   2   3  418.06   28.60
   9   2   3  412.76   29.00
  10  -2   3   26.70    5.00
 -10  -2  -3   19.00    7.80
  10   2   3   19.10    4.60
  10   2   3   17.30    3.80
 -10   2  -3   24.40    6.00
 -10   2  -3   16.70    4.90
  11  -2   3  858.51   57.09
 -11   2  -3  785.02   55.99
  11   2   3  862.41   55.69
 -11   2  -3  796.22   56.99
  11   2   3  839.22   54.89
  11  -3  -3  288.07   20.40
  11  -3  -3  290.27   20.50
 -11  -3   3  267.57   23.20
 -11   3   3  270.17   22.60
  11   3  -3  261.77   20.10
  10  -3  -3    5.30    3.40
  10  -3  -3    3.30    3.50
 -10  -3   3   -0.70    8.10
 -10  -3   3    7.00    6.00
  10   3  -3    9.50    3.10
 -10   3   3    2.30    5.10
  -9  -3   3 1243.78   89.99
   9  -3  -3 1414.66   88.69
   9  -3  -3 1453.45   89.19
  -9  -3   3 1443.96   93.09
   9   3  -3 1370.16   88.69
  -9   3   3 1261.57   90.19
  -8  -3   3   -0.40    7.50
  -8  -3   3    7.50    4.00
   8  -3  -3    2.50    2.60
   8  -3  -3    1.20    2.40
   8   3  -3   -1.00    2.10
  -8   3   3    3.60    4.00
   7  -3  -3 1254.37   78.59
  -7  -3   3 1165.48   79.59
   7  -3  -3 1194.28   78.99
  -7  -3   3 1087.49   82.29
   7   3  -3 1213.58   78.69
   7   3  -3 1367.16   77.49
  -7   3   3 1174.78   80.19
   6  -3  -3   86.69    7.40
  -6  -3   3   72.09    7.90
  -6  -3   3   72.59   11.90
  -6   3   3   91.99    8.50
   6   3  -3   85.39    6.90
  -5  -3   3  616.74   39.60
  -5   3   3  564.64   40.10
  -5   3   3  592.94   39.00
  -4  -3   3  149.49   16.00
  -4  -3   3  215.28   14.20
   4  -3  -3  181.58   14.10
   4   3  -3  194.98   13.50
  -4   3   3  209.68   14.90
  -4   3   3  198.88   13.40
  -3  -3   3 3721.13  233.28
   3  -3  -3 3521.45  233.68
  -3   3   3 3456.15  233.88
   3   3  -3 3832.62  232.98
  -3   3   3 3701.03  232.78
  -2  -3   3  183.68   11.30
  -2  -3   3  142.79   12.80
  -2  -3   3  166.48   12.00
   2  -3  -3  148.29   12.60
  -2   3   3  194.18   11.60
  -2   3   3  160.48   12.60
   2   3  -3  196.68   11.20
  -2   3   3  160.48   11.60
   2   3  -3  179.38   11.80
   1  -3  -3 2667.73  159.38
  -1  -3   3 2496.45  159.38
   1  -3  -3 2433.06  160.08
  -1  -3   3 2203.18  159.88
  -1   3   3 2643.54  159.38
  -1   3   3 2483.05  159.98
   1   3  -3 2656.33  159.28
  -1   3   3 2339.37  159.78
   0  -3   3   25.10    3.00
   0  -3  -3   17.70    2.80
   0  -3  -3   33.80    3.60
   0  -3   3   28.40    3.00
   0   3   3   24.90    2.40
   0   3  -3   24.90    2.20
   0   3  -3   24.20    2.40
   0   3   3   30.60    3.20
   1  -3   3 8074.59  493.75
   1  -3   3 7338.97  494.15
  -1  -3  -3 7419.26  494.35
  -1   3  -3 8524.95  494.05
  -1   3  -3 7898.81  494.95
   1   3   3 6849.81  493.85
   1   3   3 8170.38  494.15
   2  -3   3  408.86   30.60
   2  -3   3  474.45   30.20
   2   3   3  487.35   30.30
   2   3   3  457.95   30.00
  -2   3  -3  469.15   30.10
   3  -3   3   20.70    3.30
   3  -3   3   28.00    2.80
  -3   3  -3   14.20    2.40
   3   3   3   23.20    2.70
   4  -3   3    2.40    1.40
  -4  -3  -3    1.90    3.70
   4  -3   3    7.70    2.70
   4   3   3    1.40    1.40
  -4   3  -3    3.70    1.50
   4   3   3    0.70    1.20
  -5  -3  -3 1699.73   96.29
   5  -3   3 1387.26   97.89
   5  -3   3 1643.84   96.99
  -5  -3  -3 1295.37   99.59
  -5   3  -3 1450.05   97.49
   5   3   3 1569.24   96.29
   5   3   3 1585.34   97.09
   5   3   3 1396.36   97.59
  -6  -3  -3   12.50    5.40
  -6  -3  -3   18.50    2.70
   6  -3   3   14.70    2.00
   6  -3   3   11.50    3.40
   6  -3   3   17.30    2.30
   6   3   3   14.00    2.70
   6   3   3   21.40    3.00
  -6   3  -3   12.90    2.90
   6   3   3   12.70    2.40
  -6   3  -3   14.40    2.60
  -7  -3  -3 1834.12  112.69
   7  -3   3 1844.42  112.49
  -7  -3  -3 1544.15  116.19
   7  -3   3 1856.21  114.49
  -7   3  -3 1729.33  113.19
  -7   3  -3 1741.03  113.39
   7   3   3 1701.13  112.99
   7   3   3 1784.92  113.49
  -8  -3  -3   53.39    6.10
   8  -3   3   65.49    7.20
  -8  -3  -3   40.40    8.80
  -8   3  -3   61.69    6.30
  -8   3  -3   41.00    6.20
   8   3   3   52.69    5.30
   8   3   3   62.49    6.40
  -9  -3  -3  596.94   51.39
   9  -3   3  795.32   49.50
  -9   3  -3  745.83   48.70
   9   3   3  739.03   47.90
  -9   3  -3  746.93   48.90
   9   3   3  715.73   48.60
  10  -3   3  835.82   53.19
 -10  -3  -3  664.83   55.19
  10   3   3  805.92   51.59
  10   3   3  771.62   52.39
 -10   3  -3  807.12   52.99
 -10   3  -3  784.42   53.09
 -11  -3  -3  468.05   39.20
  11  -3   3  576.94   36.30
 -11   3  -3  453.65   41.30
  11   3   3  484.65   36.40
  11   3   3  518.35   34.40
 -11   3  -3  510.25   37.00
  10  -4  -3    1.70    3.60
  10  -4  -3    0.60    3.50
 -10  -4   3    9.50    9.00
 -10  -4   3   11.50    5.80
  10   4  -3    2.60    3.40
 -10   4   3    0.70    5.10
  -9  -4   3    7.80    4.90
   9  -4  -3    7.80    3.60
   9  -4  -3    3.00    2.80
  -9  -4   3   -1.10    8.40
  -9   4   3    7.30    4.10
   9   4  -3    3.70    2.90
  -8  -4   3  713.03   54.49
   8  -4  -3  743.73   50.09
   8  -4  -3  753.32   49.30
  -8  -4   3  738.73   50.59
  -8   4   3  742.53   51.19
   8   4  -3  800.32   49.70
  -7  -4   3 1086.19   83.39
   7  -4  -3 1259.97   79.89
   7  -4  -3 1171.48   78.89
  -7  -4   3 1225.58   79.99
  -7   4   3 1226.08   80.69
   7   4  -3 1327.97   79.39
  -6  -4   3    0.20    7.00
  -6  -4   3    3.10    2.60
   6   4  -3   -0.30    1.80
  -6   4   3    1.20    3.00
  -6   4   3    2.70    2.00
   5  -4  -3  772.12   51.69
  -5   4   3  763.32   52.09
   5   4  -3  802.72   50.99
  -4  -4   3  557.94   35.70
  -4   4   3  468.15   36.80
   4   4  -3  554.34   35.40
  -4   4   3  556.24   35.10
  -3  -4   3 2356.46  147.39
   3  -4  -3 2583.94  147.39
   3   4  -3 2336.07  148.19
   3   4  -3 2276.87  148.09
  -3   4   3 2510.65  147.89
  -3   4   3 1966.70  148.69
  -3   4   3 2144.59  147.89
   2  -4  -3   92.99    9.00
  -2  -4   3   88.99    9.10
  -2  -4   3   97.29    7.70
   2  -4  -3  105.29    7.20
  -2   4   3  105.69    7.60
   2   4  -3  113.09    7.90
  -2   4   3  123.29    9.20
  -2   4   3  113.09    8.60
   2   4  -3  105.39    7.70
   2   4  -3  124.69    7.30
   1  -4  -3    9.40    2.60
   1  -4  -3   11.90    2.00
  -1  -4   3   11.20    2.20
  -1  -4   3   12.10    2.70
  -1   4   3   19.00    2.90
   1   4  -3   15.40    2.10
   1   4  -3   14.50    1.80
   0  -4   3   25.00    3.10
   0  -4  -3   15.00    2.70
   0  -4   3   15.40    2.70
   0  -4  -3   20.40    3.10
   0   4   3   22.20    2.30
   0   4   3   16.70    2.70
   0   4  -3   15.60    2.10
   0   4  -3   17.60    1.80
   1  -4   3 1207.98   75.59
  -1  -4  -3 1072.19   75.79
  -1   4  -3 1252.77   74.69
   1   4   3 1222.48   75.19
   1   4   3 1179.08   75.09
  -1   4  -3 1077.79   75.19
   2  -4   3  283.67   19.50
  -2  -4  -3  264.47   19.80
   2  -4   3  325.97   18.90
   2   4   3  288.57   19.30
  -2   4  -3  300.67   19.40
   2   4   3  284.17   18.90
   2   4   3  288.27   18.70
  -2   4  -3  274.47   18.60
   3  -4   3 1031.70   68.99
  -3  -4  -3 1178.48   71.69
  -3  -4  -3 1027.60   69.49
   3   4   3 1078.99   68.29
   3   4   3 1042.20   69.09
   4  -4   3  112.39   10.40
  -4  -4  -3  128.79   12.50
   4  -4   3  121.79    8.70
  -4   4  -3  113.79    8.80
   4   4   3  118.29    8.80
   4   4   3  117.99    8.80
   5  -4   3 2123.99  131.69
   5  -4   3 1840.22  133.09
  -5   4  -3 2024.00  131.89
   5   4   3 2154.68  131.79
   5   4   3 2114.59  131.99
   6  -4   3  847.52   60.99
   6   4   3  997.50   58.59
   6   4   3  898.41   59.89
  -6   4  -3  938.01   59.69
   6   4   3  884.31   59.49
  -6   4  -3  922.01   59.89
  -7  -4  -3  212.18   21.30
   7  -4   3  236.98   18.20
  -7   4  -3  233.08   16.90
   7   4   3  224.28   16.20
   7   4   3  239.88   16.90
  -7   4  -3  240.58   16.40
  -8  -4  -3   -1.30    7.50
   8  -4   3   11.40    4.50
   8   4   3    6.40    3.20
  -8   4  -3    6.80    2.90
   8   4   3   11.10    2.50
  -8   4  -3   12.40    3.00
   9  -4   3  145.29   12.60
  -9  -4  -3  119.09   17.70
  -9   4  -3  120.09   11.50
   9   4   3  132.59   11.90
   9   4   3  144.49   10.60
  -9   4  -3  135.99   12.00
  10  -4   3   18.20    5.80
 -10  -4  -3   18.00    9.00
  10   4   3   11.00    3.20
 -10   4  -3    8.10    4.90
 -10   4  -3   10.30    5.30
  10   4   3   -2.50    4.40
  10  -5  -3    3.80    4.50
 -10  -5   3  -10.00   10.30
  10  -5  -3   10.80    4.00
 -10  -5   3   -1.50    5.20
 -10   5   3    5.00    5.70
  10   5  -3    4.50    3.50
  -9  -5   3  136.09   21.40
   9  -5  -3  177.38   12.80
  -9  -5   3  149.19   14.30
   9  -5  -3  168.48   13.90
  -8  -5   3   82.79   15.30
  -8  -5   3   90.39    9.20
   8  -5  -3   82.39    7.50
   8  -5  -3   81.99    8.70
   8   5  -3   86.19    7.70
  -8   5   3   66.09    9.90
  -7  -5   3    7.30    3.50
   7  -5  -3    4.60    3.10
   7  -5  -3    3.50    2.40
  -7  -5   3    0.10    7.90
  -7   5   3    9.40    4.30
   7   5  -3    5.70    2.80
   6  -5  -3    7.70    3.30
  -6  -5   3    8.70    2.90
  -6  -5   3   -3.50    7.10
  -6   5   3    7.80    3.80
   6   5  -3    2.70    2.00
  -6   5   3    4.30    2.30
  -5  -5   3   20.30    6.90
  -5  -5   3   23.30    3.80
   5  -5  -3   25.80    4.30
  -5   5   3   26.00    3.40
   5   5  -3   27.20    3.40
   5   5  -3   22.30    3.30
  -5   5   3   22.70    4.40
   4  -5  -3   45.00    3.10
   4  -5  -3   33.40    5.30
  -4  -5   3   24.90    6.60
   4   5  -3   45.50    4.30
   4   5  -3   39.60    4.10
  -4   5   3   33.60    5.30
  -4   5   3   41.70    4.00
  -3  -5   3  653.33   41.00
  -3  -5   3  538.55   43.30
   3  -5  -3  663.83   40.60
   3  -5  -3  644.94   42.90
  -3  -5   3  663.93   40.70
   3   5  -3  657.53   41.30
  -3   5   3  588.54   42.20
  -2  -5   3   91.19    8.80
   2  -5  -3   96.59    6.50
  -2  -5   3   81.59    7.40
   2  -5  -3   88.79    8.70
  -2   5   3   89.99    7.30
   2   5  -3   99.49    6.90
  -2   5   3  101.69    8.00
   1  -5  -3   10.90    3.60
   1  -5  -3   14.40    2.20
  -1  -5   3   15.10    3.10
  -1  -5   3   12.00    2.80
  -1   5   3    8.40    2.10
   1   5  -3   14.30    2.00
  -1   5   3   12.80    2.40
   0  -5  -3   74.59    6.70
   0  -5   3   61.79    7.00
   0   5  -3   79.79    5.40
   0   5   3   74.89    6.10
   1  -5   3  570.74   40.30
  -1  -5  -3  621.24   40.40
  -1  -5  -3  596.24   40.50
  -1   5  -3  600.84   39.50
  -1   5  -3  632.04   38.90
   1   5   3  611.74   39.40
   1   5   3  591.94   39.20
   2  -5   3   78.29    8.70
  -2  -5  -3   94.69    8.10
   2  -5   3   85.69    7.50
  -2  -5  -3   97.89    9.20
   2   5   3   88.39    6.50
  -2   5  -3   87.79    6.00
  -2   5  -3   89.19    6.90
   2   5   3   88.79    6.70
   3  -5   3   11.50    4.00
  -3  -5  -3    8.20    2.90
  -3  -5  -3   12.50    5.00
  -3   5  -3    9.00    1.20
   3   5   3   10.40    1.60
   3   5   3   10.80    2.00
  -3   5  -3    7.80    1.70
   4  -5   3    6.20    1.70
   4  -5   3    1.50    3.80
  -4  -5  -3    9.10    4.70
  -4   5  -3    6.00    1.90
   4   5   3    8.20    2.10
   4   5   3    7.60    1.40
   5  -5   3    8.30    4.20
  -5  -5  -3    2.10    2.80
  -5  -5  -3    9.40    6.00
   5  -5   3    7.50    1.80
   5   5   3    4.60    2.10
  -5   5  -3    4.80    2.10
   6  -5   3   36.60    6.30
  -6  -5  -3   29.10    8.60
   6  -5   3   32.50    3.90
   6   5   3   37.80    5.00
   6   5   3   34.20    4.10
  -6   5  -3   39.30    4.80
   7  -5   3  122.69   11.70
  -7  -5  -3   89.89   13.40
   7   5   3  105.59    8.30
  -7   5  -3  101.69    9.30
   7   5   3  103.69    9.20
  -7   5  -3   96.49    8.40
   8  -5   3   -2.10    4.10
  -8  -5  -3   10.60    8.30
  -8   5  -3    2.30    2.70
  -8   5  -3    1.50    3.10
   8   5   3   -2.40    3.10
   8   5   3   -1.70    2.10
   9  -5   3   78.29   10.00
  -9  -5  -3   56.39   11.70
   9   5   3   60.19    8.20
  -9   5  -3   58.19    7.30
  -9   5  -3   60.19    8.00
   9   5   3   59.29    6.30
  10  -5   3  210.28   17.40
 -10  -5  -3  164.08   21.50
  10   5   3  151.58   14.90
 -10   5  -3  170.98   15.50
  -9  -6   3   14.00    5.30
   9  -6  -3    7.10    4.20
   9  -6  -3    8.20    3.60
  -9  -6   3   11.30   12.00
   9   6  -3    5.80    3.90
  -9   6   3    9.40    6.00
  -8  -6   3    0.60   10.10
   8  -6  -3   -0.50    2.60
   8  -6  -3    1.50    3.80
  -8   6   3    0.90    5.10
   8   6  -3    0.50    2.80
   8   6  -3   10.80    5.00
  -7  -6   3   14.00    8.80
   7  -6  -3    9.10    3.80
  -7   6   3    5.90    4.40
   7   6  -3    2.90    2.40
  -7   6   3    5.10    3.00
   7   6  -3   -1.60    2.40
  -6  -6   3    9.60    7.20
   6  -6  -3    9.80    3.80
   6   6  -3    0.90    2.50
   6   6  -3    8.00    2.40
  -6   6   3    6.00    2.50
  -6   6   3    8.60    4.00
  -5  -6   3  127.99   14.30
  -5   6   3   97.09    9.50
  -5   6   3   94.19    7.60
   5   6  -3   94.29    8.10
   5   6  -3   91.19    7.90
  -4  -6   3   37.50    7.60
   4  -6  -3   58.39    6.80
   4  -6  -3   52.99    3.90
   4   6  -3   45.50    5.00
   4   6  -3   50.39    5.00
  -4   6   3   51.59    4.60
  -4   6   3   41.50    6.40
   3  -6  -3  159.78   12.90
  -3  -6   3  137.09   13.20
   3  -6  -3  151.98   10.20
  -3  -6   3  157.88   11.20
   3   6  -3  151.78   11.00
   3   6  -3  147.49   10.80
  -3   6   3  149.19   10.70
  -3   6   3  149.49   12.00
   2  -6  -3   -1.40    2.90
  -2  -6   3    4.40    2.80
  -2  -6   3    0.80    3.00
  -2   6   3    0.20    1.30
   2   6  -3    1.90    1.40
  -2   6   3   -0.80    2.30
   2   6  -3    1.00    1.50
  -1  -6   3   28.70    4.80
  -1  -6   3   27.70    4.90
   1  -6  -3   34.30    3.70
   1  -6  -3   30.70    5.70
  -1   6   3   36.80    3.50
   1   6  -3   35.60    3.90
  -1   6   3   31.20    4.50
   1   6  -3   40.00    3.40
   0  -6  -3   95.79    7.90
   0  -6   3   86.79    7.80
   0  -6   3   75.39    8.90
   0  -6  -3   75.49    9.20
   0   6  -3   91.79    7.10
   0   6   3   86.39    7.30
   0   6   3   96.99    6.90
   0   6  -3   94.09    6.60
   1  -6   3   98.09    8.10
   1  -6   3   89.59   10.10
  -1  -6  -3   91.79    9.80
  -1   6  -3  100.09    6.90
   1   6   3   97.89    7.60
  -1   6  -3   99.69    7.60
   1   6   3   95.09    7.30
   2  -6   3   76.99   10.00
  -2  -6  -3   71.69    8.40
  -2  -6  -3   89.19    9.10
   2  -6   3   85.29    6.80
  -2   6  -3   78.99    6.80
   2   6   3   78.89    6.40
   2   6   3   81.99    6.50
  -2   6  -3   84.69    5.80
  -3  -6  -3  142.09   12.70
   3  -6   3  149.59   11.00
   3  -6   3  137.99   14.00
  -3  -6  -3  158.28   13.90
   3   6   3  159.18   10.70
  -3   6  -3  143.59   11.10
  -3   6  -3  155.08   10.10
   3   6   3  154.18   11.00
  -4  -6  -3   82.49    9.50
  -4  -6  -3   99.99   11.40
   4  -6   3   89.59    7.30
   4  -6   3   98.29   11.70
  -4   6  -3  103.19    7.10
   4   6   3   88.79    7.60
  -4   6  -3   90.69    7.70
   5  -6   3   39.10    7.70
   5  -6   3   45.10    4.50
  -5  -6  -3   44.90    7.10
  -5  -6  -3   40.90    8.00
   5   6   3   47.00    5.20
  -5   6  -3   35.20    5.00
  -6  -6  -3    5.80    7.50
   6  -6   3    7.40    2.10
  -6  -6  -3   14.30    4.60
   6  -6   3    2.70    5.20
   6   6   3    0.60    2.40
  -6   6  -3    9.80    3.00
   7  -6   3    8.60    6.10
  -7  -6  -3    6.80    8.70
  -7  -6  -3    4.80    5.00
   7   6   3    8.20    3.60
  -7   6  -3    5.40    3.40
  -7   6  -3    4.20    2.60
  -8  -6  -3   26.10   10.80
  -8  -6  -3   18.20    6.40
   8  -6   3   29.80    8.60
  -8   6  -3   23.80    4.00
  -8   6  -3   29.50    7.90
   9  -6   3   29.80    8.10
  -9  -6  -3   69.69   13.70
  -9   6  -3   41.70    7.10
   9   6   3   44.90    7.00
  -8  -7   3   20.80   11.50
   8  -7  -3   17.70    5.40
   8   7  -3   11.70    3.70
   8   7  -3   19.00    4.20
  -8   7   3   18.70    6.50
   7  -7  -3  608.24   37.60
  -7  -7   3  521.65   42.80
  -7   7   3  530.85   35.70
   7   7  -3  468.35   35.30
   6  -7  -3   52.79    7.80
  -6  -7   3   51.59   11.30
   6   7  -3   44.50    5.70
  -6   7   3   36.80    5.10
  -6   7   3   46.00    7.40
   6   7  -3   47.00    5.90
  -5  -7   3   16.80    6.90
   5  -7  -3    2.00    3.50
   5   7  -3   10.90    2.80
  -5   7   3    5.40    4.20
  -5   7   3    8.60    2.50
   5   7  -3    8.40    2.70
  -4  -7   3  131.39   14.50
   4  -7  -3  161.18   12.60
  -4   7   3  137.19   12.10
   4   7  -3  135.49   10.70
   4   7  -3  142.39   10.80
  -4   7   3  139.39   10.40
   3  -7  -3  480.75   30.10
   3  -7  -3  470.05   32.60
  -3  -7   3  428.06   33.10
   3   7  -3  461.15   30.70
   3   7  -3  468.05   30.80
  -3   7   3  438.36   31.70
  -3   7   3  471.85   30.60
  -2  -7   3    0.10    3.90
   2  -7  -3    3.00    1.60
   2  -7  -3   -3.50    3.40
  -2  -7   3    2.50    3.80
   2   7  -3   -0.80    1.40
  -2   7   3    1.30    1.70
   2   7  -3    0.70    2.00
  -2   7   3    4.40    2.80
  -1  -7   3  521.05   41.10
   1  -7  -3  595.14   42.10
  -1  -7   3  641.24   41.40
   1  -7  -3  652.63   39.90
   1   7  -3  618.74   39.60
  -1   7   3  590.24   40.40
  -1   7   3  619.24   39.80
   1   7  -3  610.44   40.10
   0  -7   3   52.49    8.00
   0  -7   3   64.69    6.60
   0  -7  -3   64.69    8.70
   0  -7  -3   64.19    6.30
   0   7   3   66.49    5.40
   0   7  -3   60.39    6.00
   1  -7   3 1031.10   74.39
   1  -7   3 1185.08   72.89
  -1  -7  -3  968.10   74.29
  -1  -7  -3 1236.08   73.49
  -1   7  -3 1065.19   72.29
  -1   7  -3 1148.19   71.59
   1   7   3 1166.98   72.19
   1   7   3 1098.79   72.29
  -2  -7  -3   19.60    4.90
  -2  -7  -3   24.30    6.10
   2  -7   3   23.10    6.60
   2  -7   3   18.60    3.10
   2   7   3   16.10    3.20
  -2   7  -3   14.50    2.90
  -2   7  -3   20.50    2.40
   2   7   3   17.80    2.80
  -3  -7  -3   12.00    5.80
   3  -7   3   15.10    6.70
   3  -7   3   12.40    2.40
  -3  -7  -3    6.80    5.40
   3   7   3   15.70    2.80
  -3   7  -3   14.40    2.50
  -3   7  -3   16.40    3.00
   4  -7   3   11.80    6.60
  -4  -7  -3    8.50    5.90
   4  -7   3    9.60    2.20
  -4  -7  -3    8.20    5.30
  -4   7  -3    4.70    2.70
   4   7   3   12.60    2.70
  -5  -7  -3  378.76   29.20
   5  -7   3  462.05   32.00
  -5  -7  -3  419.36   32.00
   5  -7   3  374.46   26.30
  -5   7  -3  368.76   27.00
   5   7   3  393.06   27.00
   6  -7   3   23.00    8.50
  -6  -7  -3   25.20    7.20
   6  -7   3   20.90    3.20
  -6  -7  -3   30.30    9.80
  -6   7  -3   22.20    4.10
   6   7   3   25.10    4.50
  -7  -7  -3  306.47   29.40
  -7  -7  -3  305.17   27.40
   7  -7   3  312.97   21.90
   7   7   3  349.37   23.40
  -7   7  -3  325.27   23.40
  -8  -7  -3   32.30   11.10
   8  -7   3   65.69   11.50
  -8   7  -3   30.50    6.10
   8   7   3   31.50    5.90
  -6  -8   3   18.10    9.70
   6  -8  -3   17.60    5.30
   6   8  -3   10.50    3.50
  -6   8   3   17.40    6.20
   6   8  -3   21.00    4.10
  -6   8   3    7.50    3.40
  -5  -8   3  607.34   45.10
   5   8  -3  619.24   40.60
  -5   8   3  584.84   40.10
   5   8  -3  616.84   40.60
  -5   8   3  611.94   42.50
   4  -8  -3   26.40    5.60
  -4  -8   3   28.30    7.20
   4   8  -3   20.90    3.60
  -4   8   3   21.60    5.30
  -4   8   3   24.70    3.70
   4   8  -3   24.70    4.00
   3  -8  -3 1303.37   76.89
  -3  -8   3 1111.79   76.79
   3   8  -3 1101.79   74.19
   3   8  -3 1108.49   74.49
  -3   8   3 1168.88   74.19
  -3   8   3 1084.29   75.49
  -2  -8   3    8.80    4.60
   2  -8  -3    7.20    5.00
  -2   8   3    5.00    3.80
   2   8  -3    8.20    2.30
  -2   8   3    5.70    2.10
   2   8  -3    6.40    2.80
   1  -8  -3   20.00    6.80
  -1  -8   3   18.00    6.00
   1  -8  -3   23.10    3.30
  -1  -8   3   26.00    5.00
   1   8  -3   21.40    3.70
   1   8  -3   26.40    3.40
  -1   8   3   21.00    4.40
  -1   8   3   28.80    3.70
   0  -8  -3   25.60    3.80
   0  -8  -3   17.80    5.80
   0  -8   3   18.50    4.50
   0  -8   3    8.80    6.10
   0   8  -3   16.50    2.60
   0   8   3   17.80    4.20
   0   8  -3   12.40    3.10
   0   8   3   19.90    3.10
   1  -8   3  678.13   45.30
  -1  -8  -3  751.92   45.80
  -1  -8  -3  668.63   47.60
   1  -8   3  677.03   47.70
   1   8   3  634.44   44.40
  -1   8  -3  642.24   44.80
  -1   8  -3  691.13   43.90
   1   8   3  667.83   44.90
   2  -8   3   18.60    7.50
  -2  -8  -3   15.00    4.90
   2  -8   3   15.80    3.30
  -2  -8  -3    8.60    6.60
   2   8   3   11.20    2.70
  -3  -8  -3  756.02   50.29
   3  -8   3  714.83   47.60
   3  -8   3  794.92   52.49
  -3  -8  -3  719.73   50.99
   3   8   3  699.63   47.50
  -3   8  -3  670.63   47.80
  -4  -8  -3   11.90    7.00
   4  -8   3   22.90    8.80
   4  -8   3   16.70    3.20
  -4  -8  -3   24.60    8.50
  -4   8  -3   16.60    3.80
   4   8   3   16.00    3.50
   5  -8   3  974.10   66.09
  -5  -8  -3 1059.39   70.09
  -5  -8  -3 1103.29   71.49
  -5   8  -3  932.61   66.79
   5   8   3 1040.20   66.79
   6  -8   3  486.55   34.50
  -6  -8  -3  548.15   41.90
   6   8   3  545.15   35.70
  -6   8  -3  520.45   35.90
  -4  -9   3   87.99   14.00
   4  -9  -3  141.89   13.50
   4   9  -3  117.69   10.00
  -4   9   3  107.39    9.40
  -4   9   3   87.39   13.00
  -3  -9   3  717.23   48.10
  -3   9   3  688.83   44.90
   3   9  -3  657.93   45.30
   3   9  -3  671.73   45.00
  -3   9   3  671.53   46.80
   2  -9  -3  136.89   18.40
  -2  -9   3   71.19   14.40
   2   9  -3   89.39    9.10
  -2   9   3   91.39    8.10
  -2   9   3   91.99   11.00
   2   9  -3   98.49    8.00
   1  -9  -3  377.36   26.20
  -1  -9   3  340.37   24.50
   1   9  -3  312.67   22.10
   1   9  -3  296.17   22.80
  -1   9   3  340.17   24.20
  -1   9   3  311.47   22.40
   0  -9  -3   90.79   12.70
   0  -9   3   97.49   14.40
   0  -9  -3   79.09    8.10
   0  -9   3   93.19    9.40
   0   9  -3   89.39    7.20
   0   9  -3   69.19    8.40
   0   9   3   85.49    9.90
   0   9   3   79.39    7.40
   1  -9   3 1544.05   97.89
  -1  -9  -3 1634.64  100.69
  -1  -9  -3 1651.63   98.09
   1  -9   3 1489.75  100.49
  -1   9  -3 1310.87   97.09
   1   9   3 1375.66   96.69
  -2  -9  -3  290.67   22.20
   2  -9   3  263.57   25.40
   2  -9   3  273.47   20.40
  -2  -9  -3  312.67   25.50
   3  -9   3   41.60    5.60
  -3  -9  -3   36.00    7.40
   3  -9   3   28.10   11.40
  -3  -9  -3   35.70   10.40
  -3   9  -3   34.30    5.20
   3   9   3   30.40    4.50
  -4  -9  -3    0.00   10.70
   4  -9   3    7.10    2.90
  -4  -9  -3    7.00    7.20
   4  -9   3    8.70    9.90
  -4   9  -3    4.50    3.60
   4   9   3   11.40    3.70
  11   0  -4  143.79   12.20
 -11   0   4  139.79   15.30
  10   0  -4  115.39   10.40
  10   0  -4  134.39    9.80
 -10   0   4  107.29   13.40
   9   0  -4 1752.02  111.79
  -9   0   4 1896.91  115.09
   9   0  -4 1665.73  112.19
  -9   0   4 1630.64  114.49
  -8   0   4 2019.70  144.79
   8   0  -4 2087.69  142.79
  -8   0   4 2415.36  144.59
   8   0  -4 2349.36  142.39
  -7   0   4   51.69    7.30
   7   0  -4   51.99    4.80
  -7   0   4   55.39    7.60
   7   0  -4   43.30    5.20
   6   0  -4 1642.04   99.99
  -6   0   4 1813.92  101.99
  -6   0   4 1319.57  101.59
   6   0  -4 1450.85  100.29
   5   0  -4  186.58   13.70
  -5   0   4  179.28   15.10
  -5   0   4  205.28   14.80
   5   0  -4  202.58   13.30
   4   0  -4 3695.43  216.68
  -4   0   4 3336.87  217.78
  -4   0   4 3292.07  216.98
   4   0  -4 3241.28  216.88
   3   0  -4    5.30    1.40
   3   0  -4    4.80    1.40
  -3   0   4    3.30    1.80
  -3   0   4    3.80    1.20
  -2   0   4  708.93   47.10
   2   0  -4  726.43   46.90
   2   0  -4  712.23   47.00
  -2   0   4  691.03   47.60
  -2   0   4  775.62   47.40
  -1   0   4   61.89    4.70
  -1   0   4   60.19    4.90
  -1   0   4   61.69    4.60
  -1   0   4   63.59    4.80
   0   0   4 7553.64  484.75
   0   0   4 7659.53  484.25
   0   0   4 7803.52  485.05
   0   0   4 7382.16  484.75
   1   0   4  121.09    8.50
  -1   0  -4  133.89    8.70
   1   0   4  115.29    8.80
  -1   0  -4  122.99    8.40
   1   0   4  122.19    8.80
  -1   0  -4  138.49    8.50
  -2   0  -4 6112.19  412.26
   2   0   4 5969.50  412.06
   2   0   4 6406.56  411.86
  -2   0  -4 6594.94  412.46
  -2   0  -4 6290.17  411.76
  -2   0  -4 7393.16  411.86
  -3   0  -4  145.79    9.30
  -3   0  -4  133.99    9.90
   3   0   4  126.99    9.80
   3   0   4  132.59    9.20
   4   0   4 3877.81  248.48
  -4   0  -4 3990.90  248.58
  -4   0  -4 3969.90  247.78
   4   0   4 3708.13  247.68
   5   0   4 1039.00   70.19
   5   0   4 1070.09   69.39
  -5   0  -4 1129.69   69.49
  -5   0  -4 1082.79   70.49
   6   0   4    8.10    2.30
   6   0   4    8.50    1.80
  -6   0  -4    5.20    2.60
  -6   0  -4   10.90    2.20
  -7   0  -4    3.80    2.30
  -7   0  -4    5.80    3.50
   7   0   4    3.40    2.00
   7   0   4    5.40    2.40
  -8   0  -4 1184.38   71.19
   8   0   4 1164.58   71.39
   8   0   4  998.30   70.39
  -8   0  -4  998.10   72.09
  -9   0  -4    4.40    4.70
  -9   0  -4    1.50    3.50
   9   0   4    4.80    2.80
   9   0   4    4.00    3.10
  10   0   4 1508.35   97.19
  10   0   4 1602.84   97.79
 -10   0  -4 1536.55   97.69
 -10   0  -4 1324.47   98.99
 -11   0  -4    8.30    7.40
  11   0   4    5.70    3.90
 -11   0  -4    4.80    5.10
  11  -1  -4   -2.20    3.40
 -11  -1   4    6.20    7.50
  11  -1  -4    6.20    3.20
 -11  -1   4   15.60    6.50
 -11   1   4   12.20    7.20
 -10  -1   4  834.92   55.59
  10  -1  -4  810.72   52.99
  10  -1  -4  818.82   52.59
  10   1  -4  765.62   52.79
 -10   1   4  757.52   55.19
   9  -1  -4   22.10    3.60
  -9  -1   4   21.50    6.10
  -9  -1   4   21.50    7.20
  -9   1   4   29.20    6.10
  -9   1   4   22.80    5.90
   9   1  -4   19.40    3.50
   9   1  -4   22.30    3.50
  -8  -1   4  557.84   41.00
   8  -1  -4  616.64   39.00
   8  -1  -4  606.24   39.30
   8   1  -4  542.35   39.00
  -8   1   4  571.84   41.30
   8   1  -4  622.44   38.30
  -7  -1   4   11.30    3.80
   7  -1  -4   20.70    3.00
  -7  -1   4   17.90    5.70
   7  -1  -4   18.70    3.10
   7   1  -4   21.10    2.60
   7   1  -4   15.10    3.00
  -7   1   4   10.90    4.70
  -7   1   4   21.70    4.70
   6  -1  -4   11.70    2.50
  -6  -1   4   13.60    4.90
   6  -1  -4   12.80    2.40
   6   1  -4   13.10    2.10
   6   1  -4   13.20    2.40
  -6   1   4   12.80    4.00
  -6   1   4   16.50    3.50
   5  -1  -4 1074.49   70.19
  -5  -1   4 1120.19   71.99
  -5  -1   4 1012.20   70.99
   5  -1  -4 1042.40   69.99
  -5   1   4 1207.88   69.99
  -5   1   4  981.40   71.59
   5   1  -4 1042.80   70.19
   5   1  -4 1177.98   69.49
  -4  -1   4 3499.45  236.28
   4  -1  -4 3534.95  235.38
  -4  -1   4 3452.35  236.08
   4  -1  -4 4153.08  235.68
  -4   1   4 3761.12  234.88
  -4   1   4 3700.83  236.78
   3  -1  -4  134.79    9.10
   3  -1  -4  154.88   10.10
  -3  -1   4  121.09   10.00
  -3  -1   4  132.19   10.20
   3   1  -4  126.19    9.00
  -3   1   4  141.89    9.90
  -3   1   4  143.89    9.10
  -3   1   4  145.19   10.90
   3   1  -4  137.19    9.70
  -2  -1   4 2977.30  207.58
  -2  -1   4 3453.25  207.98
   2  -1  -4 3342.67  207.58
   2  -1  -4 3256.77  207.08
  -2   1   4 3338.87  208.18
   2   1  -4 2888.71  207.38
  -2   1   4 3233.08  207.58
   2   1  -4 3351.86  207.08
   2   1  -4 3353.76  207.28
  -2   1   4 3291.37  207.08
   1  -1  -4  140.29    8.40
  -1  -1   4  119.39    8.80
   1  -1  -4  121.69    8.60
  -1  -1   4  116.89    8.70
  -1  -1   4  134.29    8.40
   1   1  -4  123.79    8.50
   1   1  -4  120.29    8.30
  -1   1   4  128.79    8.80
  -1   1   4  112.59    8.20
  -1   1   4  120.19    8.50
   0  -1  -4 3279.17  195.58
   0  -1   4 3205.38  195.88
   0  -1   4 2870.71  195.48
   0  -1  -4 3043.80  195.58
   0  -1   4 2964.30  195.58
   0   1  -4 2946.31  195.38
   0   1  -4 3210.28  195.48
   0   1   4 3167.08  195.78
   0   1   4 2904.71  195.48
   0   1   4 3066.79  195.58
   1  -1   4   32.90    3.20
   1  -1   4   36.20    3.10
  -1  -1  -4   39.40    3.30
  -1  -1  -4   40.80    3.00
   1  -1   4   39.80    2.80
  -1   1  -4   37.50    2.70
   1   1   4   33.80    2.70
   1   1   4   37.60    3.30
   1   1   4   34.50    2.90
  -1   1  -4   36.10    2.90
   2  -1   4    3.00    0.70
   2  -1   4    2.70    1.00
   2  -1   4    4.40    1.20
  -2  -1  -4   -0.10    1.00
   2   1   4    0.30    0.70
   2   1   4    0.30    0.90
  -2   1  -4    1.90    0.70
  -2   1  -4    1.50    0.50
  -3  -1  -4   56.49    3.60
   3  -1   4   48.80    3.50
   3  -1   4   47.20    4.60
   3  -1   4   48.90    4.30
  -3  -1  -4   52.69    5.00
  -3   1  -4   52.19    4.00
  -3   1  -4   54.19    3.60
   3   1   4   52.69    4.40
   3   1   4   47.70    3.90
  -4  -1  -4 2024.60  134.79
   4  -1   4 2023.50  133.29
   4  -1   4 1880.91  134.29
  -4  -1  -4 2285.87  133.59
  -4   1  -4 2126.89  134.29
   4   1   4 1943.61  133.59
  -4   1  -4 2353.66  133.39
   4   1   4 2042.70  134.09
  -4   1  -4 2167.98  133.69
   4   1   4 2055.69  133.39
  -5  -1  -4   99.89    7.10
   5  -1   4   83.59    7.70
   5  -1   4   97.09    6.50
  -5  -1  -4   96.69    8.90
  -5   1  -4   91.69    7.50
  -5   1  -4   93.49    6.90
   5   1   4   90.79    7.30
   5   1   4   92.39    6.90
  -6  -1  -4 2120.19  121.09
   6  -1   4 1862.01  120.49
   6  -1   4 1869.51  121.69
  -6  -1  -4 1791.42  122.59
  -6   1  -4 1947.11  120.99
   6   1   4 1866.61  120.89
   6   1   4 1813.92  121.29
  -6   1  -4 1797.82  121.49
  -7  -1  -4   63.49    6.30
   7  -1   4   63.39    5.30
  -7  -1  -4   60.29    8.50
   7  -1   4   58.59    6.50
  -7   1  -4   54.69    6.40
   7   1   4   61.29    5.80
  -7   1  -4   64.99    5.90
   7   1   4   65.19    6.10
  -8  -1  -4 1007.20   60.69
   8  -1   4  944.41   61.19
   8  -1   4  905.61   59.99
  -8  -1  -4  832.22   62.49
   8   1   4  870.51   60.39
  -8   1  -4  990.50   60.99
  -8   1  -4  889.91   61.49
   8   1   4  956.30   60.79
   9  -1   4  751.92   49.00
  -9  -1  -4  697.33   51.69
   9  -1   4  777.62   49.99
  -9  -1  -4  820.12   49.50
  -9   1  -4  725.03   49.70
   9   1   4  677.93   49.30
  -9   1  -4  729.13   50.79
   9   1   4  770.82   49.60
 -10  -1  -4  177.18   14.30
  10  -1   4  177.18   13.90
 -10  -1  -4  164.78   16.90
 -10   1  -4  159.28   14.10
 -10   1  -4  146.19   15.50
  10   1   4  168.18   13.20
  10   1   4  155.58   13.80
  11  -1   4   74.69   13.10
 -11   1  -4   73.19   10.80
 -11   1  -4   72.39   10.20
  11   1   4   74.79   10.40
  11   1   4   77.49    8.50
  11  -2  -4    4.20    3.90
  11  -2  -4    1.10    3.50
 -11  -2   4   -4.40    7.80
 -11  -2   4    6.50    6.60
 -11   2   4   -0.10    5.70
  11   2  -4   -4.60    3.10
  10  -2  -4   70.39    7.10
  10  -2  -4   50.49    6.60
 -10  -2   4   49.40    8.80
  10   2  -4   46.20    6.40
 -10   2   4   47.50    8.40
  -9  -2   4  309.37   26.00
   9  -2  -4  363.46   24.20
  -9  -2   4  339.67   27.50
   9  -2  -4  361.76   24.20
   9   2  -4  343.07   24.00
  -9   2   4  354.16   26.50
  -8  -2   4  516.95   37.70
   8  -2  -4  509.25   34.00
  -8  -2   4  496.75   35.90
   8  -2  -4  518.45   34.10
  -8   2   4  496.55   36.20
   8   2  -4  475.65   34.00
   8   2  -4  530.55   32.90
  -7  -2   4   24.20    7.50
   7  -2  -4   26.00    3.60
   7  -2  -4   23.40    3.70
  -7  -2   4   19.90    4.60
  -7   2   4   18.50    4.70
  -7   2   4   38.70    4.90
   7   2  -4   21.70    3.60
   7   2  -4   26.50    2.50
   6  -2  -4  272.87   19.30
  -6  -2   4  284.37   20.40
   6  -2  -4  283.97   19.20
  -6  -2   4  291.07   22.80
   6   2  -4  273.27   19.10
  -6   2   4  262.97   17.90
  -6   2   4  269.97   20.90
   6   2  -4  289.57   18.00
  -5  -2   4    2.90    2.50
   5  -2  -4    2.10    1.60
  -5  -2   4    2.10    4.20
   5  -2  -4   -1.00    1.60
  -5   2   4    2.00    1.90
   4  -2  -4  203.18   13.80
  -4  -2   4  169.28   15.10
  -4  -2   4  198.38   14.10
  -4   2   4  182.38   15.10
   4   2  -4  187.68   13.20
  -4   2   4  196.68   13.50
  -3  -2   4   18.80    2.90
   3  -2  -4   14.20    2.50
  -3  -2   4   15.70    3.30
  -3   2   4   16.20    2.40
   3   2  -4   16.80    2.20
  -3   2   4   13.40    3.20
   2  -2  -4    1.00    1.30
  -2  -2   4    0.70    0.50
   2  -2  -4    0.30    0.90
   2  -2  -4    1.50    0.50
  -2  -2   4    0.60    1.50
  -2  -2   4    0.20    1.40
   2   2  -4   -0.40    0.60
   2   2  -4    0.90    1.10
  -2   2   4    0.00    2.20
  -2   2   4   -1.20    0.90
  -1  -2   4  246.98   17.40
   1  -2  -4  281.17   16.90
   1  -2  -4  234.48   17.40
  -1  -2   4  236.38   16.80
   1  -2  -4  298.17   17.40
  -1   2   4  240.18   17.10
   1   2  -4  249.28   17.10
  -1   2   4  284.77   17.90
   0  -2  -4  845.22   54.59
   0  -2   4  815.42   53.99
   0  -2   4  773.42   54.29
   0  -2  -4  846.52   54.29
   0   2  -4  844.42   54.09
   0   2   4  809.82   53.89
   0   2  -4  780.02   53.79
   0   2  -4  884.61   53.89
   0   2   4  956.20   54.19
   1  -2   4   14.90    2.40
   1  -2   4   17.50    2.40
  -1  -2  -4   24.10    2.00
  -1  -2  -4   26.60    3.50
  -1   2  -4   17.30    1.70
   1   2   4   19.70    2.00
   1   2   4   22.30    2.50
  -1   2  -4   18.60    1.70
  -1   2  -4   18.10    2.00
   2  -2   4  427.86   28.30
   2  -2   4  434.26   28.10
  -2  -2  -4  428.56   29.10
   2   2   4  441.16   28.20
  -2   2  -4  405.86   27.70
   2   2   4  411.76   27.70
   3  -2   4   22.30    2.90
  -3  -2  -4   15.30    3.30
   3   2   4   15.00    2.40
  -3   2  -4   17.70    2.20
   3   2   4   19.00    2.20
   4  -2   4  680.53   44.60
  -4  -2  -4  675.93   46.40
   4  -2   4  633.34   45.20
  -4   2  -4  714.73   44.50
   4   2   4  678.13   44.70
   4   2   4  722.93   44.40
  -5  -2  -4  134.79    9.70
  -5  -2  -4  137.99   12.50
   5  -2   4  135.39   11.10
   5  -2   4  162.78    9.50
   5   2   4  140.09   10.50
  -5   2  -4  143.49   10.60
   5   2   4  152.38    9.60
  -5   2  -4  145.49   10.30
   5   2   4  140.29   10.30
   6  -2   4   44.20    3.60
  -6  -2  -4   38.10    4.00
   6  -2   4   42.90    5.20
  -6  -2  -4   47.80    7.60
   6  -2   4   48.20    3.90
  -6   2  -4   40.80    4.60
   6   2   4   45.60    4.40
  -7  -2  -4   13.20    2.50
   7  -2   4   12.10    2.10
   7  -2   4    7.70    2.80
  -7  -2  -4   15.80    5.30
  -7   2  -4    6.90    2.50
   7   2   4   12.70    2.80
  -7   2  -4    9.30    2.50
   7   2   4   10.90    2.60
   8  -2   4   94.89    7.70
   8  -2   4  105.39    9.30
  -8  -2  -4   87.39   11.10
  -8  -2  -4  107.69    8.20
   8   2   4   85.49    8.30
  -8   2  -4   99.69    8.90
   8   2   4   92.89    8.10
  -8   2  -4   93.09    8.40
   9  -2   4    3.50    3.60
  -9  -2  -4    4.30    6.50
  -9   2  -4    3.30    3.70
   9   2   4    7.80    2.80
  -9   2  -4    0.30    3.30
   9   2   4    1.40    3.40
 -10  -2  -4  237.98   24.00
  10  -2   4  313.97   21.50
  10   2   4  286.27   20.20
 -10   2  -4  277.97   22.10
  10   2   4  262.07   20.70
 -10   2  -4  282.17   21.20
 -11  -2  -4    5.30    8.60
  11  -2   4    6.20    4.60
  11   2   4    6.60    4.00
  11   2   4   -2.30    5.00
 -11   2  -4   -3.20    4.90
 -11   2  -4   -1.00    6.40
  11  -3  -4    2.60    4.10
 -11  -3   4   -1.90    9.00
 -11  -3   4    5.90    6.80
  11  -3  -4    2.40    4.20
  11   3  -4    6.90    3.60
 -11   3   4    9.80    6.20
 -10  -3   4    6.10    8.80
  10  -3  -4   16.50    4.10
  10  -3  -4   22.80    4.40
 -10  -3   4   10.80    6.10
 -10   3   4   30.00    7.90
  10   3  -4    4.50    3.50
  -9  -3   4   12.10    5.20
  -9  -3   4   -3.60    7.40
   9  -3  -4   15.50    3.50
   9  -3  -4   13.30    3.50
   9   3  -4    5.90    2.80
  -9   3   4    6.20    4.90
  -8  -3   4   11.60    4.30
   8  -3  -4   15.30    3.20
  -8  -3   4    8.20    7.30
   8  -3  -4    4.70    2.70
  -8   3   4    4.40    4.20
   8   3  -4   10.70    2.80
  -7  -3   4   13.20    4.10
  -7  -3   4   18.90    7.50
   7  -3  -4   20.00    3.10
   7  -3  -4   17.00    3.30
  -7   3   4   11.70    4.50
   7   3  -4   15.30    3.00
  -6  -3   4   15.10    3.50
  -6  -3   4    3.80    5.90
   6  -3  -4   19.90    3.40
   6  -3  -4   13.90    2.60
   6   3  -4   13.00    2.30
  -6   3   4   24.00    4.90
  -5  -3   4    1.50    4.50
   5  -3  -4    2.80    1.90
  -5  -3   4    3.70    2.20
  -5   3   4    6.80    3.00
  -5   3   4   -1.70    2.80
   5   3  -4    1.70    1.60
   4   3  -4   34.90    3.70
  -3  -3   4   23.80    3.30
  -3  -3   4   18.20    3.90
   3  -3  -4   22.30    3.50
  -3   3   4   25.60    4.40
   3   3  -4   24.70    2.80
  -3   3   4   24.50    2.70
   2  -3  -4    8.90    1.40
  -2  -3   4    6.30    2.50
   2  -3  -4    3.50    2.20
  -2  -3   4    9.40    2.10
  -2  -3   4    8.90    1.20
   2   3  -4    7.50    1.70
  -2   3   4   11.60    1.90
   1  -3  -4   37.90    4.10
  -1  -3   4   37.80    3.30
  -1  -3   4   33.40    4.20
  -1   3   4   48.30    3.60
   1   3  -4   38.20    3.30
  -1   3   4   37.40    3.40
   1   3  -4   38.70    3.50
   1   3  -4   47.60    3.50
  -1   3   4   41.50    5.20
   0  -3   4  306.67   21.60
   0  -3   4  348.17   21.30
   0  -3  -4  291.57   21.60
   0   3   4  316.27   21.10
   0   3  -4  329.07   20.80
   0   3  -4  330.17   21.30
   1  -3   4    2.90    1.40
  -1  -3  -4    3.70    0.80
  -1  -3  -4    5.80    1.80
  -1  -3  -4    3.20    2.40
   1  -3   4    6.00    1.20
  -1   3  -4    3.90    0.70
   1   3   4    4.90    1.50
  -1   3  -4    2.90    1.10
   1   3   4    2.90    1.10
  -2  -3  -4   -1.80    2.40
   2  -3   4   -0.60    1.30
   2  -3   4   -0.90    1.60
   2   3   4    1.90    1.40
  -2   3  -4   -1.20    1.00
   2   3   4   -2.30    0.90
   3  -3   4    4.10    2.10
  -3  -3  -4    2.80    3.50
   3  -3   4    7.20    1.80
  -3   3  -4    6.00    1.50
   3   3   4    6.10    1.60
   3   3   4    5.60    1.80
   4  -3   4   62.79    5.20
   4   3   4   61.79    5.30
  -4   3  -4   60.09    5.00
   4   3   4   58.19    5.10
  -5  -3  -4    6.10    4.90
   5  -3   4    6.80    2.70
  -6  -3  -4   76.59   10.50
   6  -3   4   80.79    7.70
   6   3   4   67.69    6.20
  -6   3  -4   70.39    6.30
  -6   3  -4   74.19    6.40
   6   3   4   79.19    6.50
  -7  -3  -4   47.40    8.90
   7  -3   4   43.80    5.90
  -7   3  -4   44.60    5.10
   7   3   4   38.10    5.20
   7   3   4   45.00    4.70
  -7   3  -4   43.60    5.00
  -8  -3  -4   18.20    7.60
   8  -3   4   16.90    4.50
   8   3   4   17.20    3.80
  -8   3  -4   15.60    3.30
  -8   3  -4   18.40    3.50
   8   3   4   14.30    3.00
  -9  -3  -4    4.00    7.90
   9  -3   4   12.90    4.50
  -9   3  -4    2.70    3.10
  -9   3  -4    4.10    3.70
   9   3   4    1.10    2.30
   9   3   4   -4.20    3.40
  10   3   4    8.20    3.10
  10   3   4   -2.50    4.50
 -10   3  -4   11.70    4.60
 -10   3  -4   19.80    5.80
 -10  -4   4   10.70   10.10
  10  -4  -4   12.50    4.10
 -10  -4   4    2.70    5.90
  10  -4  -4   22.30    4.00
 -10   4   4   14.10    6.20
  10   4  -4    5.60    3.10
   9  -4  -4  390.66   26.10
  -9  -4   4  404.26   33.00
   9  -4  -4  381.26   26.60
  -9  -4   4  362.06   27.90
   9   4  -4  373.76   26.20
  -9   4   4  367.36   28.50
   8  -4  -4  648.44   42.30
   8  -4  -4  653.93   42.90
  -8  -4   4  625.34   43.90
  -8  -4   4  618.14   47.90
  -8   4   4  616.94   44.40
   8   4  -4  656.93   42.50
  -7  -4   4    7.80    3.70
   7  -4  -4    7.60    2.60
  -7  -4   4    6.60    7.10
   7  -4  -4   12.70    3.20
  -7   4   4    4.10    4.30
   7   4  -4    7.00    2.40
  -6  -4   4  392.76   28.70
   6  -4  -4  428.16   28.50
  -6  -4   4  351.66   32.00
  -6   4   4  456.25   28.20
   6   4  -4  427.86   27.90
  -6   4   4  407.86   29.50
  -5  -4   4   19.10    3.60
   5  -4  -4   23.20    3.70
  -5  -4   4   12.40    6.00
  -5   4   4   21.00    4.50
   5   4  -4   16.50    2.60
  -5   4   4   16.70    2.90
   4  -4  -4  688.83   50.29
  -4  -4   4  793.42   50.19
  -4   4   4  778.52   49.50
  -4   4   4  728.13   50.89
   4   4  -4  809.52   49.60
  -3  -4   4  189.48   15.40
  -3  -4   4  171.98   16.20
   3  -4  -4  189.48   15.20
   3   4  -4  228.88   14.60
   3   4  -4  233.48   14.30
  -3   4   4  210.48   15.80
  -3   4   4  211.88   14.20
   2  -4  -4   27.90    2.50
  -2  -4   4   28.90    2.60
   2  -4  -4   18.90    4.20
  -2  -4   4   21.10    5.70
  -2   4   4   25.20    4.20
   2   4  -4   27.10    3.00
  -2   4   4   26.60    2.90
  -2   4   4   28.90    3.20
   2   4  -4   34.30    2.70
   2   4  -4   28.50    3.30
   1  -4  -4    3.40    1.50
  -1  -4   4    2.90    1.40
   1  -4  -4    1.30    1.70
  -1   4   4    3.30    1.10
   1   4  -4    1.60    1.00
   1   4  -4    1.40    1.20
  -1   4   4    2.50    2.30
   0  -4   4 1804.12  117.59
   0  -4  -4 1742.03  117.69
   0  -4   4 1731.93  117.19
   0   4   4 1965.30  116.99
   0   4  -4 1918.81  116.59
   0   4   4 1652.33  117.49
   0   4  -4 1955.20  117.09
  -1  -4  -4    2.20    2.50
   1  -4   4    9.60    2.50
  -1  -4  -4    1.50    1.60
   1  -4   4    2.40    1.70
   1   4   4    7.30    2.50
   1   4   4   -0.20    1.20
  -1   4  -4    2.10    0.70
  -1   4  -4    1.20    1.10
   2  -4   4  801.22   50.49
  -2  -4  -4  787.32   51.79
   2  -4   4  752.32   51.29
  -2   4  -4  796.62   50.29
   2   4   4  800.12   50.29
   3  -4   4  144.19   12.60
  -3  -4  -4  177.08   14.90
   3  -4   4  161.38   11.70
  -3   4  -4  167.28   11.60
   3   4   4  166.38   11.60
   3   4   4  171.28   11.90
  -4  -4  -4  787.72   56.49
   4  -4   4  837.42   54.09
   4  -4   4  772.12   54.79
   4   4   4  902.51   53.69
  -4   4  -4  815.72   53.69
  -5  -4  -4  119.69   14.90
   5  -4   4  159.48   10.90
   5  -4   4  137.29   12.50
   5   4   4  153.18   11.10
  -5   4  -4  154.08   11.00
   5   4   4  155.88   11.10
   6  -4   4    7.00    1.90
  -6  -4  -4   -0.90    5.30
   6  -4   4    6.30    3.90
  -6   4  -4    6.80    2.20
  -6   4  -4    3.40    1.90
   6   4   4    3.80    2.20
   6   4   4    2.60    1.90
   7  -4   4   58.09    7.40
  -7  -4  -4   29.00    7.90
  -7   4  -4   45.30    5.10
   7   4   4   43.30    4.90
   7   4   4   61.29    6.10
  -7   4  -4   48.20    5.60
  -8  -4  -4  230.08   22.80
   8  -4   4  267.57   19.80
  -8   4  -4  249.88   18.00
   8   4   4  258.27   18.60
   8   4   4  241.68   17.70
  -8   4  -4  256.57   18.40
  -9  -4  -4   16.70    8.60
   9  -4   4   15.50    5.20
   9   4   4   24.80    3.80
  -9   4  -4   15.70    4.30
   9   4   4   17.90    4.70
  -9   4  -4   25.60    4.60
  10  -4   4  564.04   35.80
 -10  -4  -4  421.66   38.20
 -10   4  -4  505.75   34.30
  10   4   4  464.15   35.40
  10   4   4  496.15   33.10
 -10   4  -4  446.16   38.10
   9  -5  -4    9.40    3.90
  -9  -5   4    8.80    9.80
  -9  -5   4   14.90    5.00
   9  -5  -4    6.40    3.30
  -9   5   4    4.20    5.30
   9   5  -4    3.00    3.10
  -8  -5   4  563.64   43.90
   8  -5  -4  566.94   37.20
   8  -5  -4  610.74   38.30
  -8  -5   4  533.45   38.50
   8   5  -4  565.34   37.60
  -8   5   4  504.45   39.40
   7  -5  -4   60.39    6.60
  -7  -5   4   32.00   10.90
  -7  -5   4   43.80    7.00
  -7   5   4   42.90    7.30
   7   5  -4   52.59    5.80
  -7   5   4   52.99    6.10
  -6  -5   4   14.40    7.40
  -6  -5   4   22.40    4.20
   6  -5  -4   21.70    4.00
   6   5  -4   20.10    3.30
  -6   5   4   16.30    4.50
  -6   5   4   23.20    3.50
  -5  -5   4  685.23   43.50
   5  -5  -4  634.54   43.50
   5   5  -4  685.63   42.80
  -5   5   4  584.44   44.00
  -5   5   4  649.14   42.60
   4  -5  -4 3177.28  203.58
   4   5  -4 3275.57  202.48
   4   5  -4 3449.25  202.48
  -4   5   4 2811.52  203.48
  -4   5   4 3092.59  202.18
   3  -5  -4   24.60    4.50
  -3  -5   4   25.90    5.60
   3  -5  -4   28.30    2.30
  -3   5   4   28.30    3.20
   3   5  -4   31.30    3.30
  -3   5   4   27.70    4.60
  -3   5   4   30.70    3.80
   3   5  -4   33.30    3.70
  -2  -5   4 1570.94   96.89
  -2  -5   4 1355.36   98.59
   2  -5  -4 1629.84   96.69
   2  -5  -4 1307.67   98.39
   2   5  -4 1579.84   96.99
  -2   5   4 1394.36   98.09
  -2   5   4 1618.64   97.19
   2   5  -4 1612.44   97.39
  -1  -5   4   94.39    7.80
  -1  -5   4   93.99    8.60
   1  -5  -4   88.69    9.10
   1  -5  -4  107.09    7.60
  -1   5   4   92.99    8.40
   1   5  -4   99.39    7.50
  -1   5   4   95.19    7.20
   1   5  -4   98.99    7.00
   0  -5  -4 2103.69  123.99
   0  -5   4 1974.00  124.19
   0  -5  -4 1845.92  124.49
   0  -5   4 1633.44  123.69
   0   5   4 1797.32  123.79
   0   5   4 2002.20  123.39
   0   5  -4 2102.19  122.89
   1  -5   4    9.30    2.20
   1  -5   4   12.70    3.40
  -1  -5  -4    4.10    2.70
  -1  -5  -4    4.60    2.70
  -1   5  -4    5.10    1.10
   1   5   4   11.20    2.00
  -1   5  -4    7.10    1.80
  -2  -5  -4   52.59    8.30
   2  -5   4   47.10    6.50
   2  -5   4   45.70    4.80
  -2  -5  -4   47.60    5.60
  -2   5  -4   48.70    3.60
  -2   5  -4   51.29    4.70
   2   5   4   58.89    4.70
  -3  -5  -4  172.98   12.80
  -3  -5  -4  180.68   14.90
   3  -5   4  139.49   13.00
   3  -5   4  166.78   11.80
  -3   5  -4  150.98   11.60
   3   5   4  168.58   11.70
   4  -5   4 1071.59   70.69
  -4  -5  -4 1152.08   73.99
   4  -5   4 1049.99   72.49
  -4  -5  -4 1051.99   71.59
   4   5   4 1134.29   70.79
  -4   5  -4 1095.79   70.89
  -5  -5  -4   47.30    9.10
   5  -5   4   76.69    9.20
   5  -5   4   60.99    5.50
  -5   5  -4   62.09    5.80
   5   5   4   62.99    6.10
   5   5   4   65.79    5.80
   6  -5   4 1216.58   78.39
   6  -5   4 1279.67   81.09
  -6  -5  -4 1020.60   82.09
   6   5   4 1260.97   78.69
  -6   5  -4 1198.58   78.79
   6   5   4 1282.77   78.99
   7  -5   4   39.50    7.40
  -7  -5  -4   35.10    9.80
  -7   5  -4   35.50    5.20
   7   5   4   34.30    5.20
   7   5   4   30.10    4.50
  -7   5  -4   41.60    4.80
  -8  -5  -4  654.93   52.89
   8  -5   4  837.32   51.09
   8   5   4  717.33   47.90
   8   5   4  736.03   48.80
  -8   5  -4  726.23   48.60
  -8   5  -4  689.23   48.00
  -9  -5  -4  693.43   51.79
  -9   5  -4  688.13   46.20
   9   5   4  692.03   45.80
  -9  -6   4  777.72   58.69
   9  -6  -4  912.01   57.39
  -9  -6   4  880.01   65.19
   9  -6  -4  959.10   58.79
   9   6  -4  865.41   57.79
  -9   6   4  841.02   60.09
  -8  -6   4 1086.49   70.39
  -8  -6   4  848.02   81.59
   8  -6  -4 1184.48   71.39
   8  -6  -4 1121.19   68.89
  -8   6   4 1007.70   72.59
   8   6  -4 1002.10   68.89
   8   6  -4 1081.09   69.59
   7  -6  -4    5.00    3.50
  -7  -6   4   -0.70    8.40
  -7   6   4    6.10    3.00
  -7   6   4    2.00    4.50
   7   6  -4    0.00    2.50
   7   6  -4    4.10    2.70
   6  -6  -4  683.33   40.30
  -6  -6   4  479.25   43.40
   6   6  -4  602.34   38.90
  -6   6   4  600.34   38.80
  -6   6   4  548.95   40.60
   6   6  -4  564.44   38.60
  -5  -6   4   11.80    7.30
   5  -6  -4   19.20    4.00
   5   6  -4   15.80    3.10
   5   6  -4   20.00    3.00
  -5   6   4   20.80    3.10
  -5   6   4   21.60    5.30
   4  -6  -4 1042.40   66.59
  -4  -6   4  895.91   68.19
   4   6  -4 1073.69   65.29
  -4   6   4  926.21   66.59
   4   6  -4 1047.70   65.29
  -4   6   4 1018.20   64.99
   3  -6  -4   10.30    3.70
   3  -6  -4   13.60    2.00
  -3  -6   4   11.70    4.60
  -3   6   4   13.10    2.40
   3   6  -4   13.10    2.50
   3   6  -4   17.40    2.50
  -3   6   4   23.20    4.40
   2  -6  -4   63.59    7.90
  -2  -6   4   68.79    6.20
   2  -6  -4   67.69    5.10
  -2  -6   4   63.49    7.50
   2   6  -4   69.99    6.10
  -2   6   4   50.19    7.10
   2   6  -4   69.89    5.50
  -2   6   4   68.59    5.60
   1  -6  -4    4.10    3.80
  -1  -6   4   11.30    3.20
   1  -6  -4    9.20    2.20
  -1  -6   4   12.80    3.30
   1   6  -4    7.70    1.60
   1   6  -4    4.50    1.80
  -1   6   4    8.30    1.80
  -1   6   4    6.80    3.00
   0  -6  -4 2630.84  155.28
   0  -6  -4 2108.79  156.08
   0  -6   4 2489.45  155.68
   0   6   4 2516.85  154.58
   0   6  -4 2421.96  154.78
   0   6  -4 2554.54  154.18
   0   6   4 2154.28  154.88
   1  -6   4  264.37   22.40
  -1  -6  -4  287.77   22.50
   1  -6   4  330.77   21.70
  -1  -6  -4  275.87   24.90
  -1   6  -4  308.27   21.10
   1   6   4  324.57   20.90
   1   6   4  309.57   21.30
  -1   6  -4  346.47   20.30
  -2  -6  -4 1293.27   83.19
  -2  -6  -4 1221.38   82.99
   2  -6   4 1053.79   82.99
   2  -6   4 1320.57   81.99
   2   6   4 1315.87   81.59
  -2   6  -4 1327.47   80.69
  -2   6  -4 1249.57   81.69
   2   6   4 1307.17   81.59
   3  -6   4    7.60    5.20
   3  -6   4    0.90    1.70
  -3  -6  -4    1.60    4.20
  -3  -6  -4    0.70    3.40
   3   6   4    4.00    1.80
  -3   6  -4   -0.50    1.20
  -3   6  -4    1.80    1.80
  -4  -6  -4 1868.81  119.99
   4  -6   4 1792.72  119.59
  -4  -6  -4 1720.03  118.29
   4  -6   4 1997.50  117.19
   4   6   4 1805.12  117.19
  -4   6  -4 1724.23  117.19
  -5  -6  -4  431.06   31.70
   5  -6   4  438.76   30.20
   5  -6   4  513.85   34.00
  -5  -6  -4  437.46   34.20
   5   6   4  465.55   30.70
  -5   6  -4  446.56   30.70
   6  -6   4    4.10    2.00
  -6  -6  -4    6.60    6.70
   6  -6   4   10.40    5.90
  -6   6  -4    1.80    2.60
   6   6   4    4.30    3.00
   7  -6   4   -3.70    6.50
  -7  -6  -4    4.50    7.70
  -7  -6  -4    2.90    4.90
  -7   6  -4    9.70    3.20
   7   6   4    6.30    3.00
  -7   6  -4    3.40    2.90
  -8  -6  -4  349.67   30.70
  -8   6  -4  335.37   23.70
  -8   6  -4  333.67   24.50
   8   6   4  347.77   24.70
   7  -7  -4    8.60    4.30
  -7  -7   4   18.30   10.00
   7   7  -4   -2.00    2.90
  -7   7   4    0.30    5.60
  -7   7   4    2.20    3.40
   7   7  -4    0.90    2.90
   6  -7  -4    0.90    4.00
  -6  -7   4    0.10    7.80
   6   7  -4    5.70    2.80
  -6   7   4   -1.60    2.60
  -6   7   4   -1.90    5.00
   6   7  -4   -5.30    2.60
  -5  -7   4  216.68   21.90
   5  -7  -4  257.97   18.70
   5   7  -4  229.78   17.00
   5   7  -4  248.78   17.10
  -5   7   4  248.68   19.50
  -5   7   4  221.98   16.60
  -4  -7   4 1150.48   80.49
   4  -7  -4 1284.17   78.99
   4   7  -4 1175.78   77.29
  -4   7   4 1163.58   76.99
   4   7  -4 1226.88   77.19
  -4   7   4 1134.59   78.69
   3  -7  -4  151.58   13.50
  -3  -7   4  148.89   14.20
   3   7  -4  153.48   11.30
   3   7  -4  151.88   11.60
  -3   7   4  151.98   13.20
  -3   7   4  162.58   11.40
  -2  -7   4  277.57   18.50
   2  -7  -4  247.18   19.40
  -2  -7   4  234.08   19.20
   2  -7  -4  241.38   16.70
  -2   7   4  231.78   18.60
   2   7  -4  247.78   17.10
   2   7  -4  260.47   17.70
  -2   7   4  256.57   17.30
   1  -7  -4  108.89    8.00
  -1  -7   4   85.59    9.60
  -1  -7   4  101.89    9.80
   1  -7  -4   98.39   10.70
  -1   7   4  103.79    7.90
  -1   7   4   89.69    9.50
   1   7  -4  102.39    7.50
   1   7  -4   96.49    8.20
   0  -7   4  787.02   52.39
   0  -7  -4  708.03   53.39
   0  -7  -4  891.31   51.89
   0   7   4  799.82   51.19
   0   7  -4  798.02   50.69
   0   7   4  755.12   51.79
   0   7  -4  739.33   51.29
  -1  -7  -4   24.30    4.60
   1  -7   4   19.10    3.80
  -1  -7  -4   14.70    5.50
   1  -7   4   22.10    5.60
   1   7   4   22.90    3.20
   1   7   4   20.40    4.10
  -1   7  -4   16.60    2.90
  -1   7  -4   19.60    2.40
  -2  -7  -4   -1.40    4.30
   2  -7   4    5.90    2.50
  -2  -7  -4    1.70    4.30
   2  -7   4   -3.00    5.20
  -2   7  -4    1.70    1.90
  -2   7  -4    2.50    1.30
   2   7   4    1.60    1.70
   3  -7   4    2.80    2.20
  -3  -7  -4    4.10    5.30
   3  -7   4    2.10    5.60
  -3  -7  -4    0.20    4.60
  -3   7  -4   -1.40    2.00
   3   7   4    2.50    2.10
  -4  -7  -4  364.46   26.70
   4  -7   4  321.47   22.80
  -4  -7  -4  326.27   25.40
   4  -7   4  340.57   26.80
   4   7   4  337.57   23.00
  -4   7  -4  321.17   23.10
  -5  -7  -4  246.18   22.10
  -5  -7  -4  215.58   19.90
   5  -7   4  299.47   22.50
   5  -7   4  226.48   16.90
   5   7   4  255.87   17.60
  -5   7  -4  226.48   17.40
  -6  -7  -4  445.66   35.20
  -6  -7  -4  419.26   32.30
   6  -7   4  429.96   29.50
   6   7   4  476.25   32.60
  -6   7  -4  438.56   32.50
  -7  -7  -4   13.10    9.30
  -7  -7  -4    0.10    6.90
   7  -7   4    5.80    8.70
   7  -7   4    2.30    2.40
   7   7   4    5.50    4.00
  -7   7  -4    0.90    3.40
   6  -8  -4   10.70    4.90
  -6  -8   4    5.50    8.60
   6   8  -4   10.40    3.40
   6   8  -4    6.80    3.50
  -6   8   4   10.20    6.20
  -6   8   4    6.10    3.50
   5  -8  -4   70.29    8.40
  -5  -8   4   39.50    9.90
  -5   8   4   57.89    6.40
   5   8  -4   64.09    7.20
   5   8  -4   62.49    6.70
  -5   8   4   85.69   11.40
   4  -8  -4    3.80    4.60
  -4   8   4    8.20    5.00
   4   8  -4    3.40    3.10
  -4   8   4    3.30    2.40
   4   8  -4    2.60    2.70
  -3  -8   4    3.20    5.40
   3  -8  -4    3.30    4.60
  -3   8   4    6.60    2.60
   3   8  -4    3.90    2.90
   3   8  -4    3.30    2.30
  -3   8   4    6.20    4.80
  -2  -8   4    0.70    4.30
   2  -8  -4    1.10    5.10
   2   8  -4   -1.30    2.00
   2   8  -4    1.40    2.60
  -2   8   4   -0.10    4.20
  -2   8   4   -0.70    2.00
   1  -8  -4    2.50    2.10
  -1  -8   4    4.50    3.90
   1  -8  -4    9.20    5.30
   1   8  -4    1.60    1.90
  -1   8   4    4.90    2.30
   1   8  -4    0.60    2.60
  -1   8   4   -1.40    4.10
   0  -8  -4   70.39   11.60
   0  -8   4   59.89   10.20
   0  -8  -4   88.59    7.70
   0  -8   4   78.79    8.90
   0   8  -4   83.29    6.40
   0   8  -4   78.09    7.40
   0   8   4   79.69    7.10
   0   8   4   62.39    8.80
   1  -8   4  153.78   16.10
  -1  -8  -4  163.08   16.80
   1  -8   4  189.38   13.80
  -1   8  -4  163.38   13.00
   1   8   4  177.68   12.60
  -2  -8  -4   -2.40    4.50
  -2  -8  -4    6.60    7.20
   2  -8   4    2.60    6.90
   2  -8   4    6.10    2.80
  -2   8  -4    4.20    2.70
   2   8   4    5.30    2.50
   3  -8   4   48.10    5.70
  -3  -8  -4   45.40    8.20
  -3  -8  -4   41.80    9.30
   3  -8   4   50.19    9.20
  -3   8  -4   41.10    5.80
   3   8   4   43.70    5.50
   4  -8   4  127.59   16.90
  -4  -8  -4  126.89   15.00
   4  -8   4  114.29    9.50
  -4  -8  -4   92.29   14.80
   5  -8   4   71.19    6.90
   5  -8   4  114.99   15.40
  -5  -8  -4   73.39   11.20
   5   8   4   82.29    7.80
  -5   8  -4   63.79    7.30
  -6  -8  -4   -4.80    9.10
   6  -8   4    0.30    2.70
  -6  -8  -4   15.40    8.80
   6  -8   4    9.80    9.80
  -6   8  -4    2.00    3.50
   6   8   4    2.10    3.90
  -3  -9   4   29.50    7.40
   3  -9  -4   46.70    7.70
   3   9  -4   38.40    5.30
  -3   9   4   32.60    7.10
   3   9  -4   32.70    4.50
  -3   9   4   32.30    4.80
  -2  -9   4   88.69   11.60
   2  -9  -4  108.59   12.80
  -2   9   4   99.69   13.00
  -2   9   4  108.09    9.10
   2   9  -4  113.39    9.70
   2   9  -4   96.99    8.60
  -1  -9   4   69.59   10.30
   1   9  -4   79.39    7.00
   1   9  -4   82.79    8.10
  -1   9   4   75.79    7.40
  -1   9   4   74.39   11.10
   0  -9  -4   81.49   13.10
   0  -9   4   89.99   11.30
   0  -9  -4   98.39    8.80
   0   9   4   92.79    8.60
   0   9  -4   86.79    9.50
   1  -9   4    2.60    3.90
  -1  -9  -4   -3.10    7.00
   1  -9   4    1.60    7.60
  -1  -9  -4    2.90    4.10
  -1   9  -4   -0.10    3.30
   1   9   4   -4.80    2.40
  -2  -9  -4   -0.60    7.70
   2  -9   4    2.90    8.70
  -2  -9  -4   -2.80    4.80
   2  -9   4    0.00    3.50
   2   9   4    4.80    2.60
  -2   9  -4   -1.90    3.00
   3  -9   4   -0.10    3.30
   3  -9   4    3.40    9.10
  -3  -9  -4   -5.40    9.40
  -3  -9  -4    1.50    6.10
   3   9   4    3.80    3.10
  -3   9  -4    6.30    3.50
  11   0  -5    4.80    3.90
 -11   0   5    3.50    6.50
 -10   0   5   -3.70    5.80
  10   0  -5    3.20    2.50
  10   0  -5    1.90    3.00
  -9   0   5   -0.60    5.50
  -9   0   5   12.30    6.10
   9   0  -5   11.80    3.60
  -8   0   5    4.20    5.00
   8   0  -5    1.90    2.10
   8   0  -5    3.10    2.70
  -8   0   5    0.20    4.00
   7   0  -5    3.60    1.70
  -7   0   5    3.20    4.30
  -7   0   5    5.70    4.60
  -6   0   5    2.40    3.10
   6   0  -5    2.10    2.00
  -6   0   5    0.70    3.10
   6   0  -5    0.00    1.40
   5   0  -5    0.80    1.20
  -5   0   5    0.20    2.00
   4   0  -5   -0.70    1.30
  -4   0   5   -2.30    2.00
   4   0  -5    1.80    1.30
  -4   0   5   -1.00    1.40
  -3   0   5   -2.50    1.10
   3   0  -5   -1.20    0.90
   3   0  -5    0.20    1.30
  -3   0   5   -2.20    1.60
  -2   0   5    0.60    1.40
  -2   0   5   -0.80    1.20
   2   0  -5    0.10    0.70
  -2   0   5    1.30    1.00
  -1   0   5    2.50    1.20
  -1   0   5   -0.60    1.20
  -1   0   5    6.20    1.40
   0   0   5   -0.90    0.90
   0   0   5    0.50    1.00
   0   0   5   -0.50    0.90
   0   0   5   -0.90    0.90
  -1   0  -5   -2.80    0.70
   1   0   5   -4.80    0.70
   1   0   5   -2.40    1.10
   1   0   5   -2.40    1.10
   2   0   5    0.20    0.60
  -2   0  -5   -1.60    1.10
  -2   0  -5    0.40    0.60
   2   0   5    0.00    1.10
   3   0   5    1.30    0.80
  -3   0  -5    2.90    0.80
   3   0   5    1.60    1.30
  -3   0  -5   -0.30    1.20
  -4   0  -5    0.10    1.50
   4   0   5   -1.40    0.90
   4   0   5   -0.10    1.50
  -4   0  -5   -1.10    0.80
   5   0   5   14.00    2.60
  -5   0  -5    1.30    1.90
   6   0   5    2.40    1.50
  -6   0  -5    0.50    2.10
  -6   0  -5    0.10    1.50
   6   0   5    0.10    2.00
  -7   0  -5    9.10    3.50
   8   0   5    1.30    2.60
  -8   0  -5    3.20    2.90
  -8   0  -5    6.90    4.00
   8   0   5    0.40    2.60
  -9   0  -5   22.20    4.40
  -9   0  -5    8.40    4.80
 -10   0  -5   -2.30    4.40
 -10   0  -5    7.00    6.00
  10   0   5    5.40    3.50
 -11   0  -5    6.90    7.90
  11   0   5    3.90    4.00
 -11  -1   5  199.68   18.90
  11  -1  -5  143.79   17.60
  11  -1  -5  178.88   13.60
 -11   1   5  157.68   17.80
  11   1  -5  175.18   14.00
 -10  -1   5   74.09   10.30
  10  -1  -5   68.79    7.80
 -10  -1   5   62.69   10.00
  10  -1  -5   63.29    6.70
  10   1  -5   63.29    7.70
 -10   1   5   66.09   10.20
  -9  -1   5   54.29    8.80
  -9  -1   5   45.80    7.60
   9  -1  -5   51.39    6.40
   9  -1  -5   47.20    5.60
  -9   1   5   51.19    8.60
   9   1  -5   42.80    5.90
  -8  -1   5   38.90    8.00
  -8  -1   5   42.10    7.80
   8  -1  -5   39.00    4.90
   8  -1  -5   49.50    5.60
  -8   1   5   57.99    7.60
   8   1  -5   51.19    5.60
  -8   1   5   34.20    7.00
   8   1  -5   47.70    4.40
  -7  -1   5    2.40    3.70
  -7  -1   5    0.90    4.80
   7  -1  -5    3.40    1.90
   7  -1  -5    5.60    2.60
  -7   1   5    0.40    4.50
   7   1  -5    8.60    1.70
  -7   1   5    7.60    3.00
   7   1  -5    3.80    2.10
  -6  -1   5  515.85   33.90
   6  -1  -5  472.35   32.00
  -6  -1   5  443.66   33.40
   6  -1  -5  447.46   31.60
  -6   1   5  420.86   33.90
   6   1  -5  461.85   32.00
  -6   1   5  527.25   31.50
   6   1  -5  523.05   31.20
   5  -1  -5 1370.86  101.19
  -5  -1   5 1433.56  102.09
   5  -1  -5 1566.94  100.69
  -5  -1   5 1560.24  101.89
   5   1  -5 1662.73  100.99
   5   1  -5 1775.72  100.19
  -5   1   5 1458.25  102.79
  -5   1   5 1668.73  100.29
  -4  -1   5    6.00    2.50
   4  -1  -5    9.00    1.90
   4  -1  -5   10.80    1.60
  -4  -1   5    7.00    2.60
   4  -1  -5    9.10    2.10
  -4   1   5    7.90    1.50
  -4   1   5   20.40    3.80
   4   1  -5    7.00    1.90
   4   1  -5    6.40    1.30
  -4   1   5    9.10    2.20
   4   1  -5    7.90    1.40
  -3  -1   5  711.13   47.60
   3  -1  -5  784.62   46.30
   3  -1  -5  748.33   47.00
  -3  -1   5  649.93   47.00
  -3   1   5  738.13   48.00
  -3   1   5  760.32   46.40
  -3   1   5  682.53   47.00
   3   1  -5  705.93   46.90
   3   1  -5  703.83   46.30
   2  -1  -5   15.20    2.00
  -2  -1   5   13.20    2.40
  -2  -1   5   16.10    2.60
   2  -1  -5   15.40    1.60
   2   1  -5   15.90    2.20
  -2   1   5   16.50    2.60
   2   1  -5   15.10    1.50
  -2   1   5   15.80    1.80
   2   1  -5   15.50    1.90
  -2   1   5   14.70    2.10
  -1  -1   5  718.33   49.10
  -1  -1   5  817.12   49.30
   1  -1  -5  761.82   49.00
  -1  -1   5  807.12   48.80
  -1   1   5  754.52   49.20
   1   1  -5  784.32   48.90
  -1   1   5  729.53   48.90
  -1   1   5  688.43   48.70
   0  -1   5   92.89    7.10
   0  -1  -5  102.09    6.90
   0  -1   5   88.59    6.70
   0  -1   5   92.29    6.80
   0  -1   5   96.59    6.80
   0   1   5   96.09    6.80
   0   1   5  100.09    7.10
   0   1   5   88.49    6.70
   1  -1   5   63.59    5.10
  -1  -1  -5   62.29    4.70
   1  -1   5   68.79    4.60
  -1  -1  -5   64.39    5.00
   1   1   5   58.19    5.00
  -1   1  -5   55.29    4.30
   1   1   5   56.89    4.40
   1   1   5   61.39    4.50
  -1   1  -5   59.79    4.60
  -2  -1  -5    0.10    0.90
  -2  -1  -5    0.90    1.20
   2  -1   5    3.10    1.30
   2  -1   5    1.60    1.20
   2  -1   5    0.20    0.70
  -2  -1  -5   -0.20    0.50
   2   1   5    1.90    1.10
  -2   1  -5   -0.20    0.60
   2   1   5    0.50    0.80
  -3  -1  -5 1441.06   84.59
   3  -1   5 1328.87   84.49
   3  -1   5 1200.68   85.39
   3  -1   5 1292.77   85.19
  -3  -1  -5 1357.46   85.69
  -3  -1  -5 1441.26   84.49
  -3   1  -5 1327.87   84.39
   3   1   5 1270.37   84.69
  -3   1  -5 1305.37   84.79
   3   1   5 1258.07   85.29
   4  -1   5   60.79    6.20
   4  -1   5   67.79    4.90
  -4  -1  -5   70.99    6.60
  -4  -1  -5   73.39    5.00
  -4   1  -5   73.89    5.00
  -4   1  -5   68.89    5.30
   4   1   5   60.79    5.30
   4   1   5   87.49    6.20
  -4   1  -5   71.49    6.10
   4   1   5   71.69    5.00
  -5  -1  -5 1052.49   60.89
   5  -1   5  911.41   61.89
   5  -1   5  963.90   60.59
   5   1   5  896.81   60.89
  -5   1  -5  923.01   61.69
  -5   1  -5  970.50   60.99
   5   1   5  893.41   61.59
   6  -1   5  259.17   16.90
  -6  -1  -5  245.18   19.20
   6  -1   5  230.68   18.30
  -6  -1  -5  291.27   17.60
  -6   1  -5  250.07   18.10
   6   1   5  239.78   17.30
  -6   1  -5  268.77   17.40
   6   1   5  254.17   18.10
   7  -1   5  202.08   13.50
  -7  -1  -5  189.88   16.00
  -7  -1  -5  230.08   14.40
   7   1   5  189.48   14.40
  -7   1  -5  173.08   14.80
   7   1   5  199.58   14.60
  -7   1  -5  194.58   14.80
  -8  -1  -5  215.48   20.00
   8  -1   5  256.07   17.50
   8  -1   5  269.17   19.10
  -8  -1  -5  289.97   18.40
  -8   1  -5  261.47   18.30
   8   1   5  253.97   18.60
   8   1   5  248.68   17.90
  -8   1  -5  249.78   19.20
   9  -1   5    2.50    3.40
  -9  -1  -5    6.50    5.20
  -9  -1  -5    2.30    3.60
  -9   1  -5   15.30    5.10
   9   1   5    1.50    3.40
   9   1   5    8.00    3.30
 -10  -1  -5   81.99   13.10
  10  -1   5   95.79   10.00
  10   1   5   92.89    9.20
 -10   1  -5   85.79   10.00
 -10   1  -5   91.79   11.70
  10   1   5   75.69    9.60
 -11  -1  -5  126.09   17.10
  11  -1   5  167.18   13.60
 -11   1  -5  129.89   14.10
  11   1   5  131.99   16.00
  11   1   5  133.19   16.50
 -11  -2   5  166.18   18.20
  11  -2  -5  140.29   17.80
  11  -2  -5  176.98   13.30
  11   2  -5  162.28   13.40
 -11   2   5  152.48   17.20
 -10  -2   5  837.82   59.49
  10  -2  -5  891.91   56.59
  10  -2  -5  829.82   56.29
 -10   2   5  878.21   59.39
  10   2  -5  829.52   56.39
   9  -2  -5 1002.50   65.59
  -9  -2   5 1105.09   69.29
   9  -2  -5 1027.30   65.89
  -9  -2   5  938.91   68.09
   9   2  -5  969.00   65.79
  -9   2   5  979.50   68.19
  -8  -2   5   45.90    8.60
  -8  -2   5   26.60    6.70
   8  -2  -5   31.00    4.40
   8  -2  -5   27.40    4.50
  -8   2   5   30.50    6.90
   8   2  -5   40.90    4.90
  -7  -2   5 1327.67   91.49
   7  -2  -5 1313.57   89.79
   7  -2  -5 1386.36   89.99
  -7  -2   5 1529.15   93.29
   7   2  -5 1371.86   89.89
  -7   2   5 1350.96   92.19
   7   2  -5 1442.66   88.59
   6  -2  -5   87.19    7.10
   6  -2  -5   71.59    7.30
  -6  -2   5   82.09    8.80
  -6   2   5   99.99   10.20
   6   2  -5   92.59    7.30
   5  -2  -5  916.41   56.89
  -5  -2   5  908.51   57.89
  -5  -2   5  862.91   58.69
   5   2  -5  844.92   56.59
  -5   2   5  763.02   58.39
  -5   2   5  916.51   57.09
   4  -2  -5  113.39    8.70
  -4  -2   5  104.19    9.00
  -4  -2   5  111.79   10.00
   4   2  -5  103.99    8.20
  -4   2   5  114.19    8.50
  -4   2   5  114.79   10.80
  -3  -2   5    4.40    2.10
   3  -2  -5    0.20    1.60
  -3  -2   5    1.10    1.80
   3   2  -5    4.70    0.70
   3   2  -5    2.20    1.30
  -3   2   5    5.70    1.70
  -3   2   5    9.70    3.30
   3   2  -5    3.00    0.80
  -2  -2   5   23.00    2.00
   2  -2  -5   21.90    1.90
  -2  -2   5   27.90    3.40
  -2  -2   5   21.70    3.20
   2  -2  -5   20.70    2.80
   2   2  -5   21.60    2.00
  -2   2   5   17.50    2.30
   2   2  -5   22.30    2.50
  -2   2   5   26.50    4.10
  -1  -2   5 7555.14  455.65
   1  -2  -5 6937.61  455.25
  -1  -2   5 7500.95  455.25
   1  -2  -5 6463.35  455.05
  -1  -2   5 6740.33  455.45
  -1   2   5 7204.18  455.35
  -1   2   5 7584.44  455.55
   0  -2  -5  425.66   26.20
   0  -2   5  388.96   26.20
   0  -2   5  376.86   25.60
   0  -2  -5  389.86   26.10
   0   2   5  413.36   25.80
   0   2  -5  375.96   25.50
   0   2   5  370.86   25.70
   0   2  -5  397.26   25.80
   0   2   5  396.86   26.10
   1  -2   5 1678.83  106.89
  -1  -2  -5 1828.32  106.39
  -1  -2  -5 1690.23  107.19
   1  -2   5 1600.34  106.59
   1   2   5 1716.13  106.89
  -1   2  -5 1666.33  106.09
  -1   2  -5 1544.35  106.39
   1   2   5 1641.44  106.39
   1   2   5 1666.23  106.09
  -1   2  -5 1578.04  106.09
  -2  -2  -5  186.98   13.50
   2  -2   5  178.58   12.80
   2  -2   5  186.98   12.80
   2   2   5  177.48   12.70
  -2   2  -5  172.38   11.70
  -2   2  -5  171.98   12.30
   2   2   5  183.28   12.30
  -2   2  -5  194.18   11.80
  -3  -2  -5 1870.11  126.59
   3  -2   5 1936.61  125.99
   3  -2   5 2026.00  125.69
   3   2   5 1940.81  125.19
  -3   2  -5 1969.00  125.19
   3   2   5 1988.50  125.69
   4  -2   5  261.47   20.90
  -4  -2  -5  258.37   22.40
   4  -2   5  302.47   19.70
   4   2   5  300.97   19.80
   4   2   5  278.87   19.30
  -4   2  -5  317.77   19.40
  -5  -2  -5  103.29    9.70
   5  -2   5   82.69    8.50
  -5   2  -5  102.09    8.10
   5   2   5  101.19    7.90
  -5   2  -5  101.89    7.50
   5   2   5   98.09    7.50
  -6  -2  -5  104.99   11.30
  -6  -2  -5   98.49    7.40
   6  -2   5  105.99    9.60
   6  -2   5  114.99    7.20
   6   2   5  104.69    8.40
  -6   2  -5  103.09    8.60
   6   2   5  101.39    8.10
  -6   2  -5  108.59    8.10
  -7  -2  -5  914.21   68.99
   7  -2   5 1114.49   65.79
  -7  -2  -5  973.20   65.99
   7  -2   5 1073.39   67.99
   7   2   5  992.50   66.59
  -7   2  -5 1063.19   66.69
   7   2   5 1014.20   66.99
  -7   2  -5 1045.80   67.19
  -8  -2  -5   24.40    6.80
   8  -2   5   19.10    4.60
   8   2   5   24.40    4.00
  -8   2  -5   27.00    4.00
   8   2   5   28.10    4.50
  -8   2  -5   24.50    4.30
   9  -2   5 1624.94  101.19
  -9  -2  -5 1337.97  102.49
  -9   2  -5 1533.75  100.89
   9   2   5 1488.55   99.99
  -9   2  -5 1604.94  100.39
   9   2   5 1642.84  100.39
 -10  -2  -5   21.50    8.90
  10  -2   5   11.00    5.60
 -10   2  -5   20.00    5.10
  10   2   5    8.30    4.40
 -10   2  -5    9.00    5.50
  10   2   5   12.00    3.60
 -11  -2  -5   67.19   13.00
  11  -2   5   76.69   10.00
 -10  -3   5  138.89   16.20
 -10  -3   5  182.08   19.10
  10  -3  -5  144.49   12.00
  10  -3  -5  142.99   12.30
 -10   3   5  127.49   15.50
  10   3  -5  154.78   12.10
  -9  -3   5  145.99   15.30
   9  -3  -5  159.28   12.70
   9  -3  -5  164.08   12.90
  -9  -3   5  189.18   18.90
  -9   3   5  186.48   16.20
   9   3  -5  158.28   12.70
  -8  -3   5   87.49   12.80
   8  -3  -5   78.69    7.80
   8  -3  -5   84.59    7.90
  -8  -3   5   93.99   10.90
  -8   3   5  107.19   11.20
   8   3  -5   83.69    7.70
  -7  -3   5   15.10    7.00
   7  -3  -5   18.00    3.20
  -7  -3   5   16.60    4.30
   7  -3  -5   16.60    3.10
  -7   3   5   17.80    5.00
   7   3  -5   12.60    2.80
  -6  -3   5 1082.39   78.49
   6  -3  -5 1179.48   75.49
  -6  -3   5 1176.78   76.59
   6  -3  -5 1144.99   75.19
  -6   3   5 1117.19   77.29
   6   3  -5 1193.78   75.29
  -6   3   5 1210.88   75.69
  -5  -3   5 4725.23  283.37
  -5  -3   5 3905.21  284.47
   5  -3  -5 4761.42  282.67
  -5   3   5 4037.70  283.87
  -5   3   5 4493.35  282.37
   5   3  -5 4550.74  282.17
  -4  -3   5   71.29    6.90
   4  -3  -5   69.39    8.50
  -4   3   5   74.79    6.10
  -3  -3   5 1641.64  100.59
   3  -3  -5 1617.14  100.79
  -3  -3   5 1450.35  101.19
   3   3  -5 1607.74   99.89
  -3   3   5 1453.25  101.49
  -3   3   5 1547.35   99.79
  -2  -3   5    2.70    0.80
  -2  -3   5    0.80    1.60
  -2  -3   5    2.90    2.10
   2  -3  -5    8.30    2.00
   2  -3  -5    4.10    1.20
   2   3  -5    1.70    0.90
  -2   3   5    2.80    2.70
   2   3  -5    3.70    1.30
  -2   3   5    0.00    1.00
  -1  -3   5 2052.29  135.19
  -1  -3   5 1897.81  136.19
   1  -3  -5 2052.39  136.09
   1   3  -5 2384.06  135.89
  -1   3   5 2135.89  135.59
   1   3  -5 2179.48  135.39
   0  -3   5   20.20    2.50
   0  -3  -5   19.50    3.40
   0  -3   5   13.80    2.50
   0   3  -5   18.30    2.00
   0   3   5   20.70    2.40
   0   3  -5   20.30    2.60
   1  -3   5   76.49    6.10
  -1  -3  -5   62.49    6.00
   1  -3   5   70.09    6.10
  -1  -3  -5   84.09    7.80
  -1  -3  -5   81.29    5.10
  -1   3  -5   68.29    5.60
   1   3   5   64.59    5.90
  -1   3  -5   73.99    5.00
   1   3   5   60.69    5.50
   1   3   5   74.59    5.30
  -1   3  -5   60.29    5.10
  -2  -3  -5  223.98   17.70
   2  -3   5  238.68   16.50
   2  -3   5  231.48   16.20
   2   3   5  245.28   16.30
  -2   3  -5  225.58   15.80
   2   3   5  234.28   15.80
  -3  -3  -5 3143.99  210.68
   3  -3   5 2933.51  209.38
   3  -3   5 3371.86  209.18
   3   3   5 3223.28  208.58
  -3   3  -5 3316.17  208.68
   3   3   5 3598.34  209.18
  -4  -3  -5  949.71   61.29
   4  -3   5  996.00   58.99
   4  -3   5  816.82   59.49
   4   3   5  928.81   58.99
   4   3   5  856.61   58.79
  -4   3  -5  882.21   59.09
   5  -3   5 3215.28  191.18
   5  -3   5 2649.24  191.98
  -5  -3  -5 2771.02  193.48
   5   3   5 3031.30  190.98
   5   3   5 3110.19  191.28
  -5   3  -5 3110.79  190.98
  -6  -3  -5   64.69   10.10
   6  -3   5   68.19    7.50
  -6   3  -5   75.99    6.20
  -6   3  -5   72.29    6.60
   6   3   5   73.09    6.30
   6   3   5   69.29    6.30
   7  -3   5  694.63   47.20
  -7  -3  -5  667.03   49.20
  -7   3  -5  704.33   46.10
  -7   3  -5  718.33   45.80
   7   3   5  695.13   45.90
   7   3   5  680.13   45.80
   8  -3   5  914.11   57.89
  -8  -3  -5  784.82   59.69
  -8   3  -5  859.51   56.69
   8   3   5  847.42   56.49
   8   3   5  849.72   56.39
  -8   3  -5  881.41   56.49
   9  -3   5    3.70    4.40
  -9  -3  -5   -1.00    7.60
  -9   3  -5    3.30    3.80
   9   3   5    6.60    3.10
   9   3   5    8.20    4.00
  -9   3  -5   -1.50    3.30
  10  -3   5   34.50    7.30
 -10  -3  -5   23.80    9.60
  10   3   5   27.40    5.50
  10   3   5   22.80    4.60
 -10   3  -5   22.50    5.10
 -10   3  -5   29.60    6.00
 -10  -4   5  627.14   47.80
  10  -4  -5  686.13   45.10
  10  -4  -5  681.03   45.60
 -10  -4   5  779.62   50.99
  10   4  -5  632.34   45.10
 -10   4   5  665.83   47.80
   9  -4  -5  762.52   50.19
  -9  -4   5  713.53   51.99
  -9  -4   5  845.82   55.59
   9  -4  -5  763.52   49.80
  -9   4   5  709.13   52.29
   9   4  -5  734.43   49.99
  -8  -4   5    6.00    4.50
   8  -4  -5    0.40    2.60
   8  -4  -5   -0.90    2.50
  -8  -4   5   -1.60    8.20
   8   4  -5   -3.00    2.50
  -8   4   5   -2.40    4.30
  -7  -4   5  611.34   43.00
   7  -4  -5  612.34   41.40
  -7  -4   5  621.64   46.70
   7  -4  -5  659.73   42.00
  -7   4   5  621.64   43.70
   7   4  -5  629.94   41.60
  -6  -4   5    1.30    6.40
   6  -4  -5    0.80    2.20
  -6  -4   5    6.10    3.20
  -6   4   5    1.10    3.80
   6   4  -5    1.20    1.80
  -6   4   5    0.10    2.10
   5  -4  -5  140.39   10.90
  -5  -4   5  144.49   11.40
  -5  -4   5  107.89   14.30
  -5   4   5  135.39   10.30
  -5   4   5  142.89   12.70
   5   4  -5  138.39   10.20
  -4  -4   5  100.49    8.40
  -4  -4   5   77.69    9.90
   4  -4  -5   92.29    8.40
  -4   4   5   91.79    9.90
   4   4  -5   97.89    7.50
  -4   4   5  105.69    7.60
   3  -4  -5    7.20    2.70
  -3  -4   5   13.80    4.30
  -3  -4   5    7.80    2.30
  -3   4   5   16.00    2.20
   3   4  -5    9.70    1.90
  -2  -4   5   90.09    5.90
  -2  -4   5   79.09    8.30
   2  -4  -5   82.89    6.10
   2  -4  -5   73.99    7.70
   2   4  -5   96.69    7.00
  -2   4   5   81.29    6.50
   2   4  -5   94.39    6.50
  -2   4   5   76.69    9.00
   1  -4  -5 3360.66  224.78
  -1  -4   5 3527.45  223.68
  -1   4   5 3803.42  225.48
  -1   4   5 3309.37  224.28
   1   4  -5 3667.23  223.68
   1   4  -5 3367.66  224.38
   0  -4   5  469.45   28.10
   0  -4   5  361.36   29.20
   0   4  -5  390.76   28.40
   0   4  -5  462.75   27.40
   0   4   5  412.96   28.30
   1  -4   5  547.55   39.60
   1  -4   5  585.54   39.20
  -1   4  -5  595.14   38.90
  -1   4  -5  628.64   38.10
   1   4   5  608.14   38.80
  -2  -4  -5   51.19    5.40
  -2  -4  -5   68.49    7.90
   2  -4   5   46.60    4.60
   2  -4   5   46.50    5.60
  -2   4  -5   49.10    4.40
   2   4   5   50.59    4.30
   3  -4   5 1742.03  110.39
  -3  -4  -5 1723.23  112.69
  -3   4  -5 1657.73  110.09
   3   4   5 1621.04  109.99
   3   4   5 1823.12  110.59
  -4  -4  -5  246.48   21.00
   4  -4   5  256.57   17.80
   4  -4   5  243.58   19.00
   4   4   5  256.57   17.60
  -4   4  -5  270.47   17.80
   4   4   5  267.87   18.10
   5  -4   5   29.90    5.10
   5  -4   5   32.10    3.90
  -5  -4  -5   28.80    7.00
   5   4   5   33.20    4.10
   5   4   5   37.00    4.10
  -5   4  -5   37.30    4.00
  -6  -4  -5   17.40    7.30
   6  -4   5   13.70    2.60
   6  -4   5   12.30    4.20
   6   4   5   18.00    2.90
  -6   4  -5   10.30    2.50
  -6   4  -5   13.70    3.00
   6   4   5   16.30    3.20
  -7  -4  -5  414.06   36.10
   7  -4   5  491.05   34.40
  -7   4  -5  495.45   32.70
  -7   4  -5  492.85   32.60
   7   4   5  484.25   32.60
   7   4   5  513.95   32.90
   8  -4   5   95.79   10.60
  -8  -4  -5   82.49   13.50
  -8   4  -5   82.49    8.00
   8   4   5   76.59    8.40
   8   4   5   81.39    7.60
  -8   4  -5   83.29    7.90
  -9  -4  -5  985.50   85.59
  -9   4  -5 1239.88   76.49
   9   4   5 1181.08   75.99
  -9   4  -5 1183.98   76.39
   9   4   5 1170.48   76.59
 -10  -4  -5   13.60    9.50
  10  -4   5   20.10    6.20
  10   4   5   11.50    3.70
  10   4   5   -1.00    6.40
 -10   4  -5    6.50    4.90
 -10   4  -5   18.30    5.20
  -9  -5   5   31.00   16.00
   9  -5  -5   11.00    3.20
  -9  -5   5    0.80    5.10
  -9   5   5   11.70    6.30
  -8  -5   5    7.40    4.50
   8  -5  -5    4.40    2.80
   8  -5  -5    3.30    3.20
  -8  -5   5   -0.60    8.80
  -8   5   5    0.40    4.70
   8   5  -5    0.10    2.60
   7  -5  -5   30.00    4.80
  -7  -5   5   42.70   10.40
  -7  -5   5   30.10    5.80
  -7   5   5   28.90    6.00
  -7   5   5   31.80    4.70
   7   5  -5   30.50    4.30
   6  -5  -5  252.17   17.90
  -6  -5   5  206.68   22.60
  -6  -5   5  251.57   18.50
  -6   5   5  246.38   17.30
   6   5  -5  254.17   17.20
  -6   5   5  226.58   19.40
  -5  -5   5  617.74   40.40
   5  -5  -5  583.74   40.20
  -5   5   5  547.25   41.20
   5   5  -5  615.44   39.40
  -5   5   5  610.34   39.40
   4  -5  -5   34.20    5.60
  -4  -5   5   34.00    7.00
   4   5  -5   35.70    4.00
  -4   5   5   30.40    5.60
  -4   5   5   38.10    4.00
   4   5  -5   32.70    4.30
  -3  -5   5   10.90    4.60
   3  -5  -5    8.00    3.40
   3   5  -5    9.40    2.30
  -3   5   5   17.00    2.40
  -3   5   5   14.70    4.00
   3   5  -5    9.70    2.00
  -2  -5   5   66.99    5.10
   2  -5  -5   56.59    6.90
  -2  -5   5   60.19    7.80
   2  -5  -5   68.19    5.00
  -2   5   5   62.69    5.40
   2   5  -5   72.09    5.30
  -2   5   5   69.79    8.20
   2   5  -5   60.69    5.90
   1  -5  -5   86.19    8.90
   1  -5  -5  107.89    7.70
  -1  -5   5   85.59    8.80
  -1   5   5   95.79    7.40
  -1   5   5  109.19    9.90
   1   5  -5   95.09    7.00
   1   5  -5   97.19    7.50
   0  -5  -5   41.30    5.50
   0  -5   5   39.00    5.20
   0  -5  -5   48.90    5.20
   0  -5   5   37.30    4.80
   0   5   5   51.79    6.70
   0   5   5   42.80    4.10
   0   5  -5   40.10    3.50
   0   5  -5   41.00    4.20
  -1  -5  -5   35.10    5.30
  -1  -5  -5   27.90    4.50
   1  -5   5   23.00    4.00
   1  -5   5   28.50    3.80
  -1   5  -5   31.00    2.60
  -1   5  -5   24.20    3.50
   1   5   5   35.70    3.50
   1   5   5   49.00    6.30
   2  -5   5   17.20    3.10
  -2  -5  -5   23.90    5.40
  -2  -5  -5   22.60    4.10
  -2   5  -5   20.10    3.10
  -2   5  -5   21.70    1.80
   2   5   5   20.00    2.90
   3  -5   5  133.69    9.90
  -3  -5  -5  129.39   11.00
  -3  -5  -5  136.99   13.00
  -3   5  -5  124.89    9.80
   3   5   5  130.89    9.70
   4  -5   5  261.57   18.70
  -4  -5  -5  265.07   22.20
  -4  -5  -5  277.17   19.80
   4  -5   5  272.17   20.60
  -4   5  -5  267.07   18.60
   4   5   5  273.67   18.70
   5  -5   5  123.49    9.80
  -5  -5  -5  121.89   14.70
   5  -5   5  145.99   12.70
   5   5   5  127.29   10.20
   5   5   5  137.09   10.10
   6  -5   5    3.60    2.20
  -6  -5  -5    1.00    6.00
   6  -5   5    2.60    4.20
   6   5   5    2.80    2.10
  -6   5  -5    4.90    2.30
   6   5   5    5.90    2.30
  -7  -5  -5   58.49   11.40
   7  -5   5   82.49   10.60
   7   5   5   74.59    7.70
  -7   5  -5   70.89    7.20
   7   5   5   70.99    6.80
  -7   5  -5   68.29    7.00
  -8  -5  -5  149.69   19.00
   8  -5   5  206.98   17.70
  -8   5  -5  172.78   13.80
   8   5   5  190.38   14.60
  -8   5  -5  177.18   14.10
   8   5   5  174.48   13.40
   9  -5   5   41.70    8.90
  -9  -5  -5   29.20   10.50
  -9   5  -5   27.70    5.00
   9   5   5   26.20    4.50
   9   5   5   29.60    5.60
  -9   5  -5   29.10    5.40
   8  -6  -5    0.10    3.20
  -8  -6   5   14.70   11.10
   8  -6  -5   -0.20    2.80
  -8  -6   5    8.40    4.90
  -8   6   5    2.50    5.80
   8   6  -5    2.90    3.00
   7  -6  -5   67.29    7.30
  -7  -6   5   49.70   11.30
   7   6  -5   48.00    6.40
   7   6  -5   58.99    6.10
  -7   6   5   44.70    8.30
  -7   6   5   54.69    6.60
   6  -6  -5   73.39    8.20
  -6  -6   5   64.29   12.40
   6   6  -5   87.59    7.20
  -6   6   5   78.69   10.30
  -6   6   5   78.19    7.30
   6   6  -5   82.19    7.50
   5  -6  -5   85.69    8.70
  -5  -6   5   73.09   12.10
  -5   6   5   89.89    7.60
   5   6  -5   96.99    7.60
  -5   6   5   85.29   10.10
   5   6  -5   87.49    7.80
   4  -6  -5   15.10    4.20
  -4  -6   5   13.30    6.10
  -4   6   5   17.20    2.80
  -4   6   5   15.20    5.00
   4   6  -5   17.40    2.90
   4   6  -5   17.70    3.00
   3  -6  -5   10.00    4.00
  -3  -6   5    6.30    4.80
   3   6  -5   14.30    2.90
   3   6  -5   12.20    2.30
  -3   6   5   14.10    2.40
  -3   6   5   10.60    4.40
   2  -6  -5    0.80    1.20
  -2  -6   5    3.20    2.10
  -2  -6   5    4.10    3.70
   2  -6  -5    3.20    3.10
   2   6  -5    1.40    2.00
  -2   6   5   -0.90    1.70
  -2   6   5    0.90    3.90
   2   6  -5    1.90    1.60
   1  -6  -5   54.39    5.10
   1  -6  -5   48.90    7.50
  -1  -6   5   38.50    6.20
  -1  -6   5   44.10    5.30
   1   6  -5   55.19    4.40
  -1   6   5   52.79    4.80
   1   6  -5   46.50    4.80
  -1   6   5   42.90    6.70
   0  -6  -5  102.69   10.90
   0  -6   5  106.79    9.60
   0  -6   5  105.29    9.80
   0  -6  -5  121.79    9.70
   0   6  -5  111.99    9.10
   0   6  -5  125.79    8.20
   0   6   5  125.99    8.80
   0   6   5  115.79   11.20
  -1  -6  -5  123.39   11.50
   1  -6   5  121.29   10.30
  -1  -6  -5  127.39   10.90
  -1   6  -5  124.19    9.70
  -1   6  -5  132.59    8.70
   1   6   5  128.29    9.50
  -2  -6  -5   47.20    7.70
   2  -6   5   53.29    7.20
  -2  -6  -5   51.79    7.00
   2  -6   5   50.99    5.40
  -2   6  -5   45.90    3.60
  -2   6  -5   49.00    5.20
   2   6   5   54.79    5.00
  -3  -6  -5   26.50    5.50
   3  -6   5   27.30    5.70
  -3  -6  -5   43.60    6.80
   3  -6   5   27.90    4.00
   3   6   5   28.90    3.70
  -3   6  -5   24.20    3.70
  -4  -6  -5   -2.00    3.50
   4  -6   5   -1.10    4.60
   4  -6   5    1.30    2.10
  -4  -6  -5    0.00    5.30
   4   6   5    1.50    1.90
  -4   6  -5   -3.10    1.90
   5  -6   5   22.30    3.60
  -5  -6  -5   12.20    4.70
   5  -6   5   17.30    5.70
  -5  -6  -5   22.90    6.80
  -5   6  -5   18.40    3.40
   5   6   5   16.70    3.50
  -6  -6  -5   36.90    6.80
  -6  -6  -5   46.80   10.00
   6  -6   5   60.79    9.80
   6  -6   5   44.10    4.90
  -6   6  -5   38.20    5.60
   6   6   5   50.09    6.00
  -7  -6  -5  164.78   17.00
   7  -6   5  196.58   14.60
  -7  -6  -5  191.78   21.00
   7   6   5  238.28   15.90
  -7   6  -5  205.08   15.20
  -7   6  -5  213.48   15.50
   8  -6   5   29.90    8.60
  -8  -6  -5   10.30    9.40
  -8  -6  -5    9.60    6.40
  -8   6  -5   16.00    3.90
  -8   6  -5   18.60    4.50
   8   6   5   22.20    4.00
   8   6   5   14.70    4.50
   7  -7  -5   28.10    5.00
  -7  -7   5   -2.00    9.10
  -7   7   5   18.00    6.40
  -7   7   5   19.20    4.50
   7   7  -5   16.60    3.80
   7   7  -5   15.60    3.90
   6  -7  -5  218.78   16.20
  -6  -7   5  172.18   21.70
   6   7  -5  211.68   14.90
  -6   7   5  196.38   14.80
   6   7  -5  190.08   14.80
  -6   7   5  184.08   18.00
   5  -7  -5  846.22   54.29
  -5  -7   5  760.22   57.39
   5   7  -5  862.71   52.99
  -5   7   5  808.62   52.79
   5   7  -5  782.32   52.99
  -5   7   5  758.32   54.99
  -4  -7   5   21.30    7.40
   4  -7  -5   28.50    5.40
  -4   7   5   27.30    6.10
  -4   7   5   31.60    4.50
   4   7  -5   30.30    4.80
   4   7  -5   38.10    4.50
  -3  -7   5  484.95   35.60
   3  -7  -5  486.45   34.40
   3   7  -5  490.35   32.10
  -3   7   5  494.75   32.30
   3   7  -5  500.75   32.70
  -3   7   5  442.36   34.10
   2  -7  -5   81.79    9.60
  -2  -7   5   85.09   10.40
   2   7  -5  105.39    8.30
   2   7  -5   90.09    7.40
  -2   7   5   94.49    7.80
  -2   7   5  100.09   10.90
  -1  -7   5  228.88   17.00
   1  -7  -5  263.77   16.70
   1  -7  -5  207.78   18.80
  -1  -7   5  244.78   18.40
  -1   7   5  245.78   16.60
  -1   7   5  240.68   18.70
   1   7  -5  224.08   17.00
   1   7  -5  233.98   16.10
   0  -7  -5    9.70    4.80
   0  -7  -5    6.50    3.10
   0  -7   5    8.50    3.80
   0   7  -5   11.80    2.80
   0   7  -5    9.90    2.00
   0   7   5    8.80    2.30
   0   7   5   -1.60    4.90
   1  -7   5    9.00    4.10
  -1  -7  -5    4.60    4.10
   1  -7   5   12.70    3.40
  -1  -7  -5    8.40    4.80
   1   7   5    6.10    8.30
   1   7   5    4.00    2.10
  -1   7  -5    7.80    2.60
  -1   7  -5    6.60    1.70
   2  -7   5   10.20    4.70
  -2  -7  -5    7.90    4.60
  -2  -7  -5    4.30    4.40
   2  -7   5    6.00    2.80
  -2   7  -5    2.50    2.00
   2   7   5    1.50    2.10
  -3  -7  -5  844.42   53.09
   3  -7   5  732.23   52.79
   3  -7   5  786.72   50.79
  -3  -7  -5  777.72   52.69
   3   7   5  757.12   50.49
  -3   7  -5  714.93   50.59
   4  -7   5    9.60    6.60
  -4  -7  -5    9.60    6.10
  -4  -7  -5    8.20    5.30
   4  -7   5    6.50    2.30
  -4   7  -5    5.20    2.50
   4   7   5    7.90    2.80
   5  -7   5  481.15   33.20
  -5  -7  -5  489.55   35.60
  -5  -7  -5  466.85   37.30
   5  -7   5  560.84   38.10
   5   7   5  508.65   33.60
  -5   7  -5  475.35   33.60
   6  -7   5   21.50    3.50
  -6  -7  -5   11.90    6.80
  -6  -7  -5   34.00   11.60
   6  -7   5   22.50    8.00
   6   7   5   23.80    4.80
  -6   7  -5   20.40    4.20
   7  -7   5  108.09    9.60
  -7  -7  -5   97.79   14.00
   7  -7   5  167.48   18.80
  -7  -7  -5  107.09   17.80
   7   7   5  134.99   11.30
  -7   7  -5  122.49   10.70
  -5  -8   5  241.98   23.90
   5  -8  -5  269.87   19.70
   5   8  -5  231.88   18.00
   5   8  -5  253.47   17.70
  -5   8   5  234.88   21.10
  -5   8   5  239.88   17.60
  -4  -8   5   12.50    7.40
   4  -8  -5   16.30    5.10
   4   8  -5   14.00    3.20
  -4   8   5   20.40    6.40
  -4   8   5   17.60    3.40
   4   8  -5   15.80    3.80
  -3  -8   5   10.60    7.10
   3  -8  -5   10.60    5.10
  -3   8   5    9.50    2.80
   3   8  -5   14.50    3.50
  -3   8   5   10.50    6.10
   3   8  -5    8.80    2.80
   2  -8  -5   90.69   10.60
  -2  -8   5   87.79   10.80
  -2   8   5   88.79    7.60
   2   8  -5   72.29    8.30
  -2   8   5  103.89   12.20
   2   8  -5   84.79    7.20
  -1  -8   5 2035.90  128.99
   1  -8  -5 1990.30  129.49
  -1   8   5 2075.49  126.99
  -1   8   5 1777.02  128.29
   1   8  -5 2016.30  126.39
   1   8  -5 1919.11  127.19
   0  -8   5  103.09   11.00
   0  -8  -5  107.29   13.50
   0  -8   5  114.99   11.20
   0  -8  -5  114.99   10.00
   0   8   5  120.39    9.30
   0   8  -5  102.39    9.60
   0   8  -5  135.29   10.70
  -1  -8  -5  526.75   41.10
   1  -8   5  626.24   38.90
   1  -8   5  522.45   39.20
   1   8   5  562.54   37.60
  -1   8  -5  577.24   38.00
  -2  -8  -5   13.40    7.20
   2  -8   5   11.70    3.70
   2  -8   5   19.40    6.80
  -2  -8  -5   12.30    5.40
  -2   8  -5    6.10    2.90
   2   8   5   12.10    2.90
  -3  -8  -5  466.95   32.40
   3  -8   5  418.86   29.60
  -3  -8  -5  406.46   32.70
   3  -8   5  434.86   32.70
  -4  -8  -5  130.49   14.80
   4  -8   5  106.89    9.10
  -4  -8  -5  126.99   14.80
   4  -8   5  143.29   15.80
   4   8   5  100.39    9.10
  -4   8  -5   87.79    9.40
   5  -8   5    6.30    3.00
  -5  -8  -5    4.60    7.60
  -5  -8  -5    3.20    8.50
   5   8   5    3.20    3.50
  -5   8  -5   -2.30    3.50
   2  -9  -5   51.39    8.50
  -2  -9   5   47.60    9.00
   2   9  -5   43.10    6.10
  -2   9   5   53.89    6.30
  -2   9   5   59.29   11.00
   2   9  -5   52.89    6.00
   1  -9  -5  440.86   31.20
  -1  -9   5  431.46   30.10
   1   9  -5  359.66   27.90
  -1   9   5  386.66   27.40
   0  -9   5    3.90    5.00
   0  -9  -5   26.30    7.90
   0   9   5    2.60    2.80
   0   9  -5    2.30    3.40
  -1  -9  -5    4.40    4.50
   1  -9   5    6.50    4.20
  -1  -9  -5    3.80    9.90
  -1   9  -5    2.70    3.40
   1   9   5    8.40    3.30
   2  -9   5    4.70    3.60
   2  -9   5   11.00    7.50
  -2  -9  -5   11.00    5.80
   2   9   5    5.70    3.00
  -2   9  -5    2.20    3.30
  11   0  -6  903.41   63.59
 -11   0   6 1033.70   67.79
  10   0  -6 1015.20   69.39
 -10   0   6 1098.29   72.99
   9   0  -6  111.89   10.10
  -9   0   6  119.09   14.20
  -8   0   6 1547.75  109.39
   8   0  -6 1575.14  106.79
   8   0  -6 1808.72  106.09
  -7   0   6  354.66   22.90
   7   0  -6  335.27   21.60
  -7   0   6  267.17   24.20
   7   0  -6  312.97   22.30
   6   0  -6   70.79    7.10
  -6   0   6   71.89    9.10
   6   0  -6   90.19    6.50
  -6   0   6   85.19    7.60
   5   0  -6   48.20    5.20
  -5   0   6   52.89    7.00
   5   0  -6   54.29    4.70
  -5   0   6   60.69    5.40
   4   0  -6   71.79    5.50
   4   0  -6   55.99    6.90
  -4   0   6   50.99    7.20
  -4   0   6   68.99    5.70
   3   0  -6  102.29    7.20
  -3   0   6  100.09    8.60
   3   0  -6  103.09    7.70
  -3   0   6   93.09    7.40
  -2   0   6 8006.60  527.25
  -2   0   6 8105.39  526.75
  -2   0   6 8674.03  527.05
   2   0  -6 8266.77  527.65
  -1   0   6  502.05   32.30
  -1   0   6  501.95   32.40
  -1   0   6  496.15   32.40
  -1   0   6  470.95   32.60
   0   0   6 2799.52  175.48
   0   0   6 2688.43  175.48
   0   0   6 2754.02  175.38
   0   0   6 2729.23  175.28
   1   0   6   37.10    3.60
   1   0   6   37.70    3.30
  -1   0  -6   43.90    3.30
   1   0   6   36.30    3.70
   2   0   6 1143.39   72.39
  -2   0  -6 1110.49   72.29
   2   0   6 1057.79   72.89
  -2   0  -6 1202.48   73.19
   3   0   6   62.39    5.80
   3   0   6   65.89    4.90
  -3   0  -6   66.09    4.90
  -3   0  -6   61.39    5.70
   4   0   6  424.26   31.80
  -4   0  -6  508.45   30.90
  -4   0  -6  464.45   32.00
   4   0   6  499.85   30.90
   5   0   6  217.68   14.80
  -5   0  -6  229.88   14.80
  -5   0  -6  228.88   16.10
   5   0   6  209.28   15.90
   6   0   6 2517.45  170.48
   6   0   6 2650.43  171.88
  -6   0  -6 2650.63  172.08
  -6   0  -6 2858.21  170.78
   7   0   6  373.36   26.70
   7   0   6  370.56   25.40
  -7   0  -6  364.06   27.30
  -7   0  -6  424.16   25.90
  -8   0  -6 1568.64  116.29
  -8   0  -6 1919.81  114.99
   8   0   6 1855.51  115.79
   8   0   6 1764.62  114.29
  -9   0  -6   10.80    5.40
   9   0   6   19.20    4.30
   9   0   6   12.60    3.70
  -9   0  -6   17.10    4.40
  10   0   6   98.89   10.30
 -10   0  -6   94.09   13.10
 -11  -1   6  429.66   33.50
  11  -1  -6  379.76   28.00
  11   1  -6  403.76   28.30
 -11   1   6  384.46   31.80
  10  -1  -6    8.90    3.40
  10  -1  -6    7.70    4.00
 -10  -1   6   16.40    7.50
 -10   1   6    9.00    7.70
  10   1  -6   12.10    3.80
   9  -1  -6   29.90    4.40
   9  -1  -6   38.50    5.30
  -9  -1   6   45.60    7.60
  -9  -1   6   38.40    8.30
  -9   1   6   32.00    8.00
   9   1  -6   32.10    4.90
  -8  -1   6   99.29   12.00
  -8  -1   6   94.99   12.10
   8  -1  -6   90.59    7.50
   8  -1  -6   88.39    8.30
   8   1  -6   86.39    6.80
  -8   1   6   79.39   11.40
   8   1  -6   89.59    8.30
  -7  -1   6 1136.49   68.59
  -7  -1   6  935.41   68.99
   7  -1  -6  971.90   66.89
   7  -1  -6  912.51   67.09
   7   1  -6 1129.59   65.99
  -7   1   6  910.71   69.39
   7   1  -6  989.00   66.99
  -7   1   6 1186.28   66.49
   6  -1  -6 3736.23  246.48
  -6  -1   6 3498.55  247.98
  -6  -1   6 4079.59  247.48
   6  -1  -6 3885.41  246.08
   6   1  -6 3595.54  246.38
  -6   1   6 4323.17  245.78
  -6   1   6 3431.46  248.58
   6   1  -6 4220.38  245.58
  -5  -1   6   16.70    3.70
  -5  -1   6   13.90    3.40
   5  -1  -6   23.70    3.20
   5  -1  -6   18.50    3.10
   5   1  -6   21.60    3.10
  -5   1   6   17.80    4.90
   5   1  -6   21.90    2.40
  -5   1   6   16.60    2.70
   4  -1  -6 1323.97   76.19
  -4  -1   6 1038.30   79.59
  -4  -1   6 1064.09   76.19
  -4   1   6 1158.18   78.69
  -4   1   6 1265.87   75.39
   3  -1  -6   29.10    3.30
  -3  -1   6   25.50    4.00
  -3  -1   6   27.10    3.80
  -3   1   6   31.40    2.90
  -3   1   6   33.50    4.80
   3   1  -6   30.80    2.60
   3   1  -6   28.30    3.30
  -3   1   6   29.70    3.60
  -2  -1   6  199.78   14.60
  -2  -1   6  212.68   13.90
   2  -1  -6  200.08   14.20
  -2  -1   6  217.68   15.00
  -2   1   6  213.08   15.00
  -2   1   6  206.58   14.00
  -2   1   6  203.28   14.40
   2   1  -6  216.48   14.30
  -1  -1   6  225.68   15.80
  -1  -1   6  235.18   15.90
   1  -1  -6  234.98   15.60
  -1  -1   6  242.58   15.40
  -1   1   6  207.88   15.40
  -1   1   6  234.18   15.90
   1   1  -6  245.78   15.50
  -1   1   6  212.18   15.30
   0  -1   6   96.89    7.10
   0  -1   6   97.99    7.50
   0  -1   6  105.19    7.20
   0  -1   6   95.49    7.20
   0   1   6   99.59    7.10
   0   1   6  101.69    7.40
   0   1   6   87.49    7.00
   1  -1   6   27.80    2.60
  -1  -1  -6   23.90    3.00
   1  -1   6   27.60    2.90
   1  -1   6   24.50    3.20
   1   1   6   24.50    2.50
  -1   1  -6   28.20    2.60
   1   1   6   25.20    2.30
   1   1   6   27.00    3.10
  -2  -1  -6 4317.27  275.87
  -2  -1  -6 4525.25  276.87
   2  -1   6 4421.06  276.77
   2  -1   6 4719.13  275.97
   2  -1   6 3904.41  276.57
   2   1   6 4253.67  276.17
  -2   1  -6 4210.38  276.17
   2   1   6 4295.17  276.67
  -3  -1  -6  268.97   17.80
   3  -1   6  237.88   17.30
  -3  -1  -6  261.47   16.40
   3  -1   6  262.27   16.50
  -3  -1  -6  262.77   16.80
   3  -1   6  243.48   17.50
   3   1   6  238.18   17.30
   3   1   6  244.18   16.70
  -3   1  -6  248.18   16.80
  -4  -1  -6 2334.37  137.29
   4  -1   6 2259.27  137.19
   4  -1   6 2087.89  138.49
  -4  -1  -6 2096.39  138.69
  -4   1  -6 2227.18  137.59
   4   1   6 2059.49  137.49
   4   1   6 1901.61  138.19
  -4   1  -6 2234.28  138.49
  -5  -1  -6   27.20    2.90
   5  -1   6   29.60    4.40
   5  -1   6   24.80    2.60
  -5  -1  -6   30.80    4.90
   5   1   6   27.10    3.00
  -5   1  -6   27.70    3.00
  -5   1  -6   25.50    4.00
   5   1   6   28.00    3.80
  -6  -1  -6  503.85   30.20
  -6  -1  -6  420.86   31.90
   6  -1   6  488.35   29.70
   6  -1   6  438.86   31.40
   6   1   6  438.26   30.90
  -6   1  -6  468.75   30.10
  -6   1  -6  451.45   31.10
   6   1   6  430.66   30.00
   7  -1   6  491.75   30.40
  -7  -1  -6  416.86   33.10
  -7  -1  -6  522.15   31.10
   7  -1   6  476.95   32.40
  -7   1  -6  456.55   32.00
  -7   1  -6  425.76   32.40
   7   1   6  454.95   31.80
  -8  -1  -6   66.79    7.20
   8  -1   6   64.89    7.70
  -8  -1  -6   61.79    9.70
  -8   1  -6   65.69    8.00
  -8   1  -6   59.89    6.60
   8   1   6   61.69    7.10
   8   1   6   55.59    6.20
  -9  -1  -6   59.19    9.70
   9  -1   6   73.19    8.70
  -9   1  -6   58.79    9.00
   9   1   6   64.39    7.30
   9   1   6   64.99    7.90
  -9   1  -6   77.39    8.10
  10   1   6  458.15   34.90
 -10   1  -6  545.15   35.80
 -10   1  -6  494.55   37.20
  10   1   6  555.14   35.90
 -10  -2   6  255.87   21.40
  10  -2  -6  211.48   16.80
  10  -2  -6  210.58   16.50
 -10  -2   6  223.88   21.30
 -10   2   6  257.27   21.40
  10   2  -6  215.68   16.90
  -9  -2   6   -0.10    6.70
  -9  -2   6   -4.90    5.50
   9  -2  -6    2.10    2.80
   9  -2  -6    5.40    3.00
   9   2  -6    3.10    3.20
  -9   2   6   -0.30    5.80
   8  -2  -6  170.08   13.20
  -8  -2   6  212.98   18.00
   8  -2  -6  182.48   13.70
  -8  -2   6  173.38   16.60
  -8   2   6  181.08   17.20
   8   2  -6  175.28   13.60
  -7  -2   6   22.80    6.70
   7  -2  -6   26.10    3.90
   7  -2  -6   26.00    3.90
  -7  -2   6   21.30    5.60
  -7   2   6   23.20    6.60
   7   2  -6   24.80    4.00
  -6  -2   6   14.60    4.50
  -6  -2   6   27.80    5.90
   6  -2  -6   19.50    3.00
   6  -2  -6   29.00    3.70
  -6   2   6   13.20    5.70
   6   2  -6   18.10    3.10
  -5  -2   6   48.90    7.60
  -5  -2   6   42.70    6.40
  -5   2   6   39.20    7.20
   5   2  -6   50.79    5.00
  -5   2   6   50.19    5.60
  -4  -2   6    2.90    2.50
  -4  -2   6    1.00    3.00
   4  -2  -6    1.90    2.00
  -4   2   6   -2.00    1.70
   4   2  -6    0.70    1.80
   3  -2  -6  103.29    6.70
  -3  -2   6   86.59    8.20
   3  -2  -6   97.09    7.80
   3  -2  -6  104.69    6.60
  -3  -2   6   88.29    8.80
   3   2  -6   92.89    6.60
  -3   2   6   78.99    7.90
   3   2  -6   89.19    7.30
  -3   2   6  105.59    9.50
   3   2  -6  113.79    6.70
  -2  -2   6 1596.24   98.39
   2  -2  -6 1541.65   99.09
  -2  -2   6 1372.26   99.29
  -2  -2   6 1575.84   99.39
   2  -2  -6 1555.94   98.49
   2  -2  -6 1647.94   98.29
  -2   2   6 1674.03   99.99
   2   2  -6 1450.55   98.69
  -2   2   6 1425.16   98.79
   1  -2  -6  110.39    7.80
  -1  -2   6  107.19    8.20
  -1  -2   6  106.79    8.50
  -1  -2   6  105.49    7.60
   1  -2  -6  104.79    8.10
  -1   2   6  120.19    8.50
   1   2  -6  103.49    7.70
  -1   2   6  107.19    7.90
   0  -2   6  364.26   24.90
   0  -2  -6  389.66   25.30
   0  -2   6  361.46   25.50
   0   2   6  426.56   25.10
   0   2   6  377.26   25.40
   0   2   6  364.76   24.90
   0   2  -6  349.67   24.70
   0   2  -6  399.16   25.20
   1  -2   6    6.50    1.50
   1  -2   6    4.20    1.70
  -1  -2  -6    7.70    2.10
  -1  -2  -6   10.90    1.90
   1   2   6    7.60    1.20
   1   2   6    7.10    1.40
   1   2   6    6.90    2.00
  -1   2  -6    7.50    1.60
  -1   2  -6    6.80    1.20
  -2  -2  -6  253.87   17.60
  -2  -2  -6  262.47   16.20
  -2  -2  -6  256.57   15.90
   2  -2   6  241.88   17.10
   2  -2   6  233.78   17.00
  -2   2  -6  246.38   16.00
  -2   2  -6  253.87   16.50
  -2   2  -6  228.98   15.80
   2   2   6  237.48   17.00
   2   2   6  239.78   16.40
   3  -2   6    8.30    2.10
  -3  -2  -6    2.70    2.80
   3   2   6    2.40    1.30
  -3   2  -6    4.40    1.20
   4  -2   6   62.59    5.50
  -4  -2  -6   63.19    7.30
   4  -2   6   62.09    6.30
  -4   2  -6   62.19    5.00
   4   2   6   56.79    5.00
  -5  -2  -6   18.20    4.40
   5  -2   6   16.90    3.70
  -5   2  -6   13.90    2.90
   5   2   6   14.60    2.60
   6  -2   6  442.26   31.30
  -6  -2  -6  454.35   32.60
  -6   2  -6  460.15   30.70
   6   2   6  422.86   29.80
  -6   2  -6  459.05   29.90
   6   2   6  466.25   30.60
   7  -2   6   58.59    7.20
  -7  -2  -6   60.69    8.80
   7   2   6   43.10    5.30
  -7   2  -6   54.49    5.40
  -7   2  -6   56.99    6.40
   7   2   6   48.90    6.00
   8  -2   6  280.37   21.10
  -8  -2  -6  258.47   23.10
   8   2   6  269.17   19.60
  -8   2  -6  289.47   20.60
   8   2   6  295.57   20.30
  -8   2  -6  282.27   19.80
  -9  -2  -6   -5.60    6.60
   9  -2   6    1.50    4.10
  -9   2  -6    6.90    4.40
   9   2   6    0.70    3.00
   9   2   6   -1.20    3.50
  -9   2  -6    2.40    3.20
  10  -2   6   20.30    6.10
 -10  -2  -6   29.50    9.10
  10   2   6   22.60    4.80
 -10   2  -6   32.60    6.00
  10   2   6   16.60    5.20
 -10   2  -6   17.10    6.50
 -10  -3   6   53.59   10.80
  10  -3  -6   45.80    6.00
 -10   3   6   38.00    8.50
  10   3  -6   28.10    5.00
  -9  -3   6    8.50    6.00
   9  -3  -6   11.40    3.40
  -9  -3   6   19.90    8.20
   9  -3  -6   15.20    3.70
   9   3  -6   10.70    3.50
  -9   3   6   15.20    6.40
   8  -3  -6    4.70    2.70
  -8  -3   6    2.10    6.70
  -8  -3   6    3.50    4.50
   8  -3  -6    1.80    2.50
   8   3  -6    5.00    2.50
  -8   3   6   -5.30    5.40
  -7  -3   6    6.20    4.00
   7  -3  -6    4.40    2.40
  -7  -3   6    1.50    6.40
   7  -3  -6    4.30    2.60
  -7   3   6    7.80    5.00
   7   3  -6    0.60    2.10
  -6  -3   6   39.10    7.50
  -6  -3   6   36.20    5.60
   6  -3  -6   32.20    4.30
  -6   3   6   33.60    6.90
   6   3  -6   31.50    4.30
  -6   3   6   28.60    4.30
  -5  -3   6   -4.60    4.40
   5  -3  -6    1.00    2.20
  -5  -3   6    2.50    2.90
  -5   3   6    2.30    1.90
   5   3  -6    2.00    1.80
  -5   3   6   -1.00    4.30
  -4  -3   6   66.19    7.90
   4  -3  -6   61.89    6.00
  -4  -3   6   71.59    6.70
   4   3  -6   50.49    5.10
  -4   3   6   54.79    7.90
  -4   3   6   51.99    5.40
  -3  -3   6   35.80    6.90
   3  -3  -6   44.20    5.20
  -3  -3   6   57.59    5.50
   3   3  -6   43.00    4.20
  -3   3   6   51.19    7.00
  -3   3   6   43.70    4.30
  -2  -3   6   20.00    4.60
  -2  -3   6   24.40    3.80
  -2  -3   6   28.20    2.60
   2  -3  -6   39.10    3.60
   2  -3  -6   31.40    2.70
  -2   3   6   34.00    5.10
  -2   3   6   21.60    3.20
   2   3  -6   36.40    2.80
   2   3  -6   25.10    3.10
   1  -3  -6   25.20    3.30
  -1  -3   6   20.10    3.50
  -1  -3   6   27.70    2.70
  -1   3   6   33.60    4.70
   1   3  -6   27.70    2.70
   1   3  -6   26.30    3.50
  -1   3   6   17.40    3.40
   0  -3  -6    9.70    2.80
   0  -3   6    9.00    1.80
   0  -3  -6   17.70    2.90
   0  -3   6   12.20    2.60
   0   3   6   15.40    2.20
   0   3  -6   10.30    1.60
   0   3   6   15.00    2.30
   0   3  -6   12.40    2.10
   1  -3   6    0.10    1.50
  -1  -3  -6    0.10    2.40
  -1  -3  -6    0.80    1.20
   1   3   6    0.00    1.10
  -1   3  -6    1.50    0.80
  -1   3  -6   -1.80    1.00
  -1   3  -6    0.60    1.10
   1   3   6    1.00    1.20
   2  -3   6   55.19    5.10
  -2  -3  -6   40.80    6.40
   2   3   6   39.90    4.40
   3  -3   6   71.99    6.40
   3   3   6   83.29    6.60
   3   3   6   75.89    6.00
  -3   3  -6   71.29    6.00
  -4  -3  -6   76.29    9.00
   4  -3   6   79.69    7.70
   4  -3   6   68.29    6.20
   4   3   6   69.79    5.80
  -4   3  -6   69.09    5.90
   4   3   6   71.59    6.40
   5  -3   6   58.09    7.20
  -5  -3  -6   63.19    9.30
   5  -3   6   59.99    5.30
  -5   3  -6   55.09    5.10
   5   3   6   52.69    5.10
   5   3   6   57.69    5.40
   6  -3   6    5.50    3.50
  -6  -3  -6    9.20    5.50
  -6   3  -6   -0.10    1.60
  -6   3  -6    5.10    2.50
   6   3   6    2.80    1.80
   7  -3   6   31.20    5.50
  -7  -3  -6   26.90    7.50
   7   3   6   23.50    3.70
  -7   3  -6   33.10    4.10
   7   3   6   28.90    4.60
  -7   3  -6   21.40    3.90
   8  -3   6    5.00    4.60
  -8  -3  -6    8.90    6.90
   8   3   6    4.10    2.90
  -8   3  -6    6.00    3.10
  -8   3  -6    4.90    2.90
   8   3   6    0.50    2.70
   9  -3   6   24.30    6.60
  -9  -3  -6   17.10    9.10
   9   3   6   14.10    4.30
  -9   3  -6   21.20    4.20
   9   3   6   10.90    3.80
  -9   3  -6   19.90    4.60
  10  -3   6   21.30    6.50
 -10  -3  -6   21.70    9.60
  10   3   6   17.30    4.60
  10   3   6   17.20    5.50
 -10   3  -6   18.80    5.70
 -10   3  -6   17.60    5.30
 -10  -4   6  390.56   31.90
  10  -4  -6  418.66   28.70
 -10  -4   6  517.25   38.80
  10  -4  -6  369.06   30.10
 -10   4   6  424.06   32.50
  10   4  -6  407.56   28.70
  -9  -4   6    8.40    5.80
  -9  -4   6   15.10    9.10
   9  -4  -6   10.20    3.60
   9  -4  -6    9.80    3.20
   9   4  -6    6.20    3.20
  -9   4   6    5.30    5.70
  -8  -4   6  373.76   29.70
   8  -4  -6  337.17   23.70
  -8  -4   6  324.77   26.00
   8  -4  -6  357.26   24.00
   8   4  -6  329.07   23.60
  -8   4   6  335.07   26.70
  -7  -4   6  191.28   20.50
  -7  -4   6  201.28   16.50
   7  -4  -6  199.08   14.80
   7  -4  -6  198.68   14.60
   7   4  -6  205.08   14.60
  -7   4   6  191.58   17.70
  -6  -4   6   48.90    7.20
  -6  -4   6   41.60    8.70
   6  -4  -6   39.30    5.20
  -6   4   6   40.40    7.20
   6   4  -6   37.90    4.70
  -6   4   6   45.40    5.60
  -5  -4   6   70.09   10.80
   5  -4  -6   62.99    6.80
  -5  -4   6   78.19    7.70
  -5   4   6   60.99    6.00
   5   4  -6   63.49    5.90
  -5   4   6   73.89   10.10
  -4  -4   6   81.19    7.50
  -4  -4   6   75.19    9.80
   4  -4  -6   71.49    7.10
  -4   4   6   77.49    6.40
   4   4  -6   75.39    6.20
  -4   4   6   51.79    8.20
  -3  -4   6   21.30    3.40
  -3  -4   6   22.50    5.00
   3  -4  -6   23.20    3.90
  -2  -4   6 1519.25  117.89
   2  -4  -6 1910.11  116.19
  -2  -4   6 1870.21  115.99
   2   4  -6 1928.91  117.09
   2   4  -6 1777.42  116.49
  -2   4   6 1892.71  118.69
  -1  -4   6   22.70    2.80
   1  -4  -6   20.10    3.50
   1  -4  -6   29.50    4.00
  -1  -4   6   26.00    4.20
  -1   4   6   25.70    4.70
  -1   4   6   25.40    3.10
   1   4  -6   26.70    2.70
   1   4  -6   22.60    3.40
   0  -4   6  638.44   45.80
   0  -4  -6  612.94   45.70
   0  -4   6  726.23   45.10
   0   4   6  709.23   45.00
   0   4  -6  738.33   45.30
   0   4  -6  714.03   44.50
   1  -4   6  158.48   12.80
   1  -4   6  175.28   12.80
  -1  -4  -6  184.98   13.30
   1   4   6  173.28   12.30
  -1   4  -6  181.78   11.60
  -1   4  -6  182.38   12.50
  -2  -4  -6  372.56   25.60
  -2  -4  -6  434.26   27.20
   2  -4   6  346.57   25.10
   2  -4   6  376.66   25.40
   2   4   6  347.17   24.50
  -2   4  -6  349.27   24.60
   3  -4   6   12.50    3.60
   3  -4   6   12.10    2.40
  -3  -4  -6   10.60    4.80
   3   4   6   12.50    2.30
  -3   4  -6   10.30    2.10
   3   4   6   10.70    2.50
   4  -4   6  175.88   12.90
   4  -4   6  164.08   14.10
  -4  -4  -6  179.98   16.10
   4   4   6  179.68   12.60
  -4   4  -6  176.38   12.70
   4   4   6  181.48   13.10
   5  -4   6   94.29    7.50
  -5  -4  -6  100.79   12.10
   5  -4   6   76.19    9.30
  -5   4  -6   84.39    7.20
   5   4   6   94.19    7.70
   5   4   6   84.89    7.20
   6  -4   6  740.23   47.50
   6  -4   6  706.93   49.20
  -6  -4  -6  681.33   51.19
   6   4   6  727.43   47.60
  -6   4  -6  702.33   47.40
   6   4   6  723.83   47.70
  -6   4  -6  757.92   48.00
   7  -4   6    9.60    5.30
  -7  -4  -6    9.90    7.20
  -7   4  -6   12.60    3.20
  -7   4  -6   12.10    2.90
   7   4   6   14.00    3.20
   7   4   6   20.70    3.50
  -8  -4  -6  464.65   37.90
   8  -4   6  552.44   35.90
   8   4   6  473.25   33.40
   8   4   6  489.65   33.20
  -8   4  -6  474.15   33.50
  -8   4  -6  483.85   33.20
   9  -4   6    0.30    5.50
  -9  -4  -6   -5.80    8.50
  -9   4  -6    4.80    3.50
  -9   4  -6   -3.90    3.70
   9   4   6   -6.40    3.90
   9   4   6    0.10    3.30
   9  -5  -6   90.49    9.00
   9  -5  -6  100.09    8.60
  -9  -5   6   84.09   15.80
  -9  -5   6   97.79   15.00
   9   5  -6   91.19    8.90
  -9   5   6   99.89   13.20
   8  -5  -6  102.59    8.90
  -8  -5   6  114.29   12.20
   8  -5  -6  111.79    9.60
  -8  -5   6  115.79   18.70
   8   5  -6   91.79    9.70
  -8   5   6  104.19   13.30
  -7  -5   6  390.26   29.70
   7  -5  -6  427.96   28.70
  -7  -5   6  411.06   34.20
   7   5  -6  396.86   28.00
  -7   5   6  422.26   28.60
  -7   5   6  428.06   31.20
  -6  -5   6 2342.77  162.08
   6  -5  -6 2415.96  158.18
  -6  -5   6 2443.36  158.98
  -6   5   6 2415.76  159.88
  -6   5   6 2564.44  157.88
   6   5  -6 2525.05  157.68
  -5  -5   6   15.60    3.90
  -5  -5   6    9.90    7.20
   5  -5  -6   11.80    3.60
  -5   5   6   13.50    3.10
  -5   5   6   12.80    5.20
   5   5  -6   26.00    3.60
  -4  -5   6  674.83   52.89
   4  -5  -6  796.12   51.19
  -4   5   6  715.63   52.09
   4   5  -6  808.92   50.39
  -4   5   6  741.83   49.90
   4   5  -6  825.02   49.90
   3  -5  -6   59.49    7.40
  -3  -5   6   56.99    9.10
   3   5  -6   66.89    6.00
  -3   5   6   59.69    5.40
  -3   5   6   44.20    7.30
   3   5  -6   61.09    5.20
   2  -5  -6  259.07   16.50
  -2  -5   6  258.87   16.40
   2  -5  -6  209.78   18.40
  -2  -5   6  199.58   18.70
  -2   5   6  244.78   17.10
   2   5  -6  280.57   16.90
  -2   5   6  241.48   19.60
   2   5  -6  263.17   17.50
   1  -5  -6   15.20    3.90
  -1  -5   6   20.60    3.20
  -1  -5   6   20.00    4.40
   1  -5  -6   21.60    3.00
   1   5  -6   21.20    2.60
  -1   5   6   16.70    2.80
  -1   5   6   24.90    5.50
   1   5  -6   16.10    3.00
   0  -5   6  159.78   12.80
   0  -5  -6  185.78   12.80
   0  -5   6  164.88   12.10
   0  -5  -6  155.58   13.20
   0   5  -6  163.38   11.20
  -1  -5  -6   28.60    5.00
   1  -5   6   26.80    4.20
  -1  -5  -6   44.00    6.50
   1  -5   6   33.80    5.00
   1   5   6   30.20    3.80
  -1   5  -6   30.40    3.90
  -1   5  -6   34.40    2.80
   2  -5   6 2689.33  169.58
  -2  -5  -6 2739.33  170.18
   2  -5   6 2407.16  169.58
  -2   5  -6 2630.74  169.08
   2   5   6 2714.03  168.98
   3  -5   6  252.97   20.60
  -3  -5  -6  277.77   20.60
  -3  -5  -6  313.97   22.50
   3  -5   6  291.37   19.80
   3   5   6  282.97   19.40
  -3   5  -6  280.67   19.50
   4  -5   6 1512.55   95.09
   4  -5   6 1330.97   96.19
  -4  -5  -6 1459.05   95.99
  -4  -5  -6 1416.26   97.69
  -4   5  -6 1569.44   94.99
   4   5   6 1509.75   94.89
   5  -5   6   18.00    3.30
  -5  -5  -6   15.10    6.80
   5  -5   6   20.70    5.10
   5   5   6   23.90    3.70
   5   5   6   23.70    3.40
  -5   5  -6   14.80    2.90
  -6  -5  -6  190.18   19.90
   6  -5   6  195.08   17.60
   6  -5   6  200.18   14.70
  -6   5  -6  194.68   14.80
   6   5   6  219.58   15.10
   6   5   6  210.58   15.10
  -7  -5  -6  338.47   30.70
   7  -5   6  407.76   29.20
   7   5   6  379.46   26.20
   7   5   6  371.36   25.90
  -7   5  -6  377.06   26.10
  -7   5  -6  371.66   25.90
  -8  -5  -6   61.09   12.30
   8  -5   6   73.39   10.10
   8   5   6   57.89    6.60
  -8   5  -6   50.79    7.10
  -8   5  -6   63.89    7.00
   8   5   6   57.29    7.80
   9  -5   6   27.00    8.40
  -9  -5  -6   16.50   10.00
  -9   5  -6   18.00    5.00
   9   5   6   14.20    4.10
  -9   5  -6   17.20    4.90
  -8  -6   6  466.35   37.50
  -8  -6   6  410.36   31.60
   8  -6  -6  407.76   29.00
   8  -6  -6  446.36   29.90
  -8   6   6  426.46   32.50
   8   6  -6  411.86   29.20
  -7  -6   6   64.79   15.30
  -7   6   6   95.09    8.20
   7   6  -6   73.09    7.40
  -7   6   6   70.39   10.10
   7   6  -6   65.79    7.40
  -6  -6   6    7.70    8.60
   6  -6  -6   25.10    4.50
  -6   6   6   21.10    6.60
  -6   6   6   14.00    3.30
   6   6  -6   16.00    3.40
   6   6  -6   25.80    3.80
   5  -6  -6   45.60    6.60
  -5  -6   6   47.60    9.70
   5   6  -6   40.80    4.80
  -5   6   6   42.80    5.20
  -5   6   6   44.00    7.30
   5   6  -6   38.30    5.70
  -4  -6   6   15.90    6.10
   4  -6  -6   15.20    4.10
   4   6  -6   24.10    3.30
   4   6  -6   23.70    3.80
   3  -6  -6   71.49    8.90
  -3  -6   6   81.49   10.70
   3   6  -6   82.29    7.50
  -3   6   6   84.89   11.20
  -3   6   6   87.79    7.10
   3   6  -6   86.19    6.70
  -2  -6   6 2906.21  198.68
   2  -6  -6 3442.56  195.88
   2  -6  -6 2795.72  198.08
   2   6  -6 3255.47  196.18
  -2   6   6 3133.19  196.48
  -2   6   6 2658.93  197.98
   2   6  -6 3249.77  196.88
   1  -6  -6  376.36   24.10
  -1  -6   6  335.57   25.80
  -1  -6   6  360.36   23.90
   1  -6  -6  332.87   26.00
   1   6  -6  336.87   24.20
  -1   6   6  339.67   23.90
  -1   6   6  419.46   26.90
   1   6  -6  347.07   23.40
   0  -6   6 1017.30   68.09
   0  -6  -6  954.30   68.29
   0  -6  -6 1141.59   67.39
   0  -6   6  959.00   66.89
   0   6  -6 1030.20   67.09
   0   6   6 1033.50   66.79
   0   6  -6 1056.49   66.09
   1  -6   6    8.20    3.50
  -1  -6  -6    7.00    4.10
   1  -6   6    3.30    2.90
  -1  -6  -6    2.30    3.40
   1   6   6    1.70    1.90
   1   6   6    7.20    4.70
  -1   6  -6    3.20    1.40
  -1   6  -6    2.90    1.80
   2  -6   6  617.74   41.80
   2  -6   6  544.55   42.00
  -2  -6  -6  644.24   43.00
  -2  -6  -6  704.03   43.20
   2   6   6  639.14   41.20
  -2   6  -6  600.54   41.30
  -3  -6  -6   72.29    9.00
  -3  -6  -6   45.60    7.30
   3  -6   6   54.79    8.30
   3  -6   6   47.80    5.70
  -3   6  -6   41.90    5.40
   3   6   6   56.39    5.50
   4  -6   6  186.18   15.70
  -4  -6  -6  190.38   15.30
   4  -6   6  171.78   13.50
  -4  -6  -6  197.78   17.50
   4   6   6  172.38   13.40
  -4   6  -6  180.48   13.50
   5  -6   6   14.80    6.10
  -5  -6  -6   12.40    4.90
   5  -6   6    9.40    2.80
  -5  -6  -6   11.60    7.20
  -5   6  -6   10.10    2.90
   5   6   6    9.50    3.10
   6  -6   6 1013.20   66.29
   6  -6   6 1106.59   69.79
  -6  -6  -6  918.41   70.39
  -6  -6  -6  923.21   67.89
  -6   6  -6 1033.20   66.69
   6   6   6 1101.09   66.99
   7  -6   6  324.37   28.10
  -7  -6  -6  257.77   25.80
   7  -6   6  289.07   19.80
  -7  -6  -6  240.78   22.30
   7   6   6  303.67   21.20
  -7   6  -6  296.77   20.50
  -7   6  -6  271.97   20.80
  -8  -6  -6 1052.89   76.49
  -8   6  -6 1057.29   71.49
   8   6   6 1148.09   71.99
   8   6   6 1095.69   71.19
  -8   6  -6 1068.59   71.29
  -7  -7   6  408.16   36.60
   7   7  -6  403.26   28.40
  -7   7   6  428.96   32.10
  -6  -7   6  948.31   73.99
   6  -7  -6 1127.79   69.49
   6   7  -6  968.60   68.19
  -6   7   6 1030.50   70.69
   6   7  -6 1113.99   68.29
  -6   7   6 1051.09   68.29
  -5  -7   6   43.20   15.80
   5   7  -6   64.79    6.30
  -5   7   6   60.59    6.60
  -5   7   6   50.19    9.20
   5   7  -6   53.89    6.70
   4  -7  -6  150.58   13.90
  -4  -7   6  144.19   17.10
  -4   7   6  158.48   12.10
   4   7  -6  170.38   12.50
   4   7  -6  165.48   11.90
  -4   7   6  148.39   15.70
   3  -7  -6   10.50    4.80
  -3  -7   6    8.00    6.20
  -3   7   6   10.70    6.00
   3   7  -6   14.10    3.50
   3   7  -6    9.90    2.40
  -3   7   6    9.20    2.60
  -2  -7   6   47.20    7.80
   2   7  -6   55.99    6.30
   2   7  -6   57.89    5.10
  -2   7   6   52.59    5.70
  -2   7   6   44.90    9.30
   1  -7  -6   51.09    5.60
  -1  -7   6   51.09    7.90
   1  -7  -6   38.30    7.60
  -1   7   6   45.30    5.20
   1   7  -6   46.20    4.60
   1   7  -6   50.29    5.80
  -1   7   6   51.99    8.50
   0  -7  -6   66.99    7.50
   0  -7   6   68.79    8.10
   0  -7  -6   68.39   10.60
   0   7   6   88.09   12.70
   0   7  -6   78.19    5.90
   0   7   6   65.59    6.50
   0   7  -6   70.19    6.90
  -1  -7  -6    1.10    4.00
  -1  -7  -6   -0.20    4.80
   1  -7   6    6.50    3.40
   1  -7   6    7.90    3.90
   1   7   6    3.50    2.10
  -1   7  -6    2.70    2.70
  -2  -7  -6  916.61   55.89
   2  -7   6  705.43   55.09
  -2  -7  -6  858.71   56.49
   2  -7   6  847.02   54.79
   2   7   6  840.82   53.99
  -2   7  -6  776.02   54.19
  -3  -7  -6  415.86   29.20
   3  -7   6  405.26   27.10
  -3  -7  -6  395.46   29.30
   3  -7   6  338.57   28.70
  -3   7  -6  379.06   26.80
   3   7   6  402.46   26.70
   4  -7   6  424.66   29.00
  -4  -7  -6  450.35   32.30
   4  -7   6  410.66   31.90
  -4  -7  -6  431.16   31.50
   4   7   6  440.06   29.10
  -4   7  -6  392.36   29.00
   5  -7   6   10.40    7.40
  -5  -7  -6    3.90    7.30
   5  -7   6    0.00    2.40
  -5  -7  -6   -4.40    5.40
  -5   7  -6    3.00    3.80
   5   7   6    1.40    3.80
   6  -7   6  196.08   19.90
  -6  -7  -6  149.29   16.90
   6  -7   6  159.68   12.80
  -6  -7  -6  171.48   19.40
  -6   7  -6  157.58   13.40
   6   7   6  196.88   14.00
  -5  -8   6   10.00    8.90
   5  -8  -6   11.90    4.70
   5   8  -6    9.20    4.00
   5   8  -6   11.90    4.10
  -5   8   6    2.40    6.60
  -5   8   6    9.40    3.80
  -4  -8   6    2.70    7.30
   4  -8  -6    8.50    4.70
   4   8  -6    9.30    4.20
   4   8  -6   10.20    3.00
  -4   8   6    1.70    6.80
  -4   8   6    9.80    3.60
   3  -8  -6   57.69    8.80
  -3  -8   6   57.79    9.80
  -3   8   6   68.29    6.60
  -3   8   6   57.69    9.40
   3   8  -6   52.79    6.00
   3   8  -6   63.59    7.30
  -2  -8   6  203.88   25.50
  -2   8   6  225.48   20.80
   2   8  -6  254.77   16.90
   2   8  -6  253.57   18.10
  -1  -8   6  173.18   16.10
   1  -8  -6  172.48   16.80
   1   8  -6  181.48   13.80
  -1   8   6  174.28   13.30
   1   8  -6  172.28   13.10
   0  -8   6   10.10    4.70
   0  -8  -6   -1.30    6.60
   0   8   6    4.10    2.70
   0   8  -6    0.10    3.20
  -1  -8  -6   19.50    7.50
  -1  -8  -6   16.10    5.00
   1  -8   6   10.50    4.40
   1  -8   6    9.60    5.40
  -1   8  -6   13.60    3.50
   1   8   6   13.40    3.20
   2  -8   6    9.50    3.60
   2  -8   6   16.40    6.10
  -2  -8  -6    2.70    5.20
  -2  -8  -6    2.80    6.70
   2   8   6    8.90    3.20
  -3  -8  -6   -0.80    6.30
  -3  -8  -6    3.40    6.90
   3  -8   6    7.90    3.50
   3  -8   6   14.80    7.10
  -3   8  -6    5.40    3.10
   3   8   6    5.70    2.90
   4  -8   6    4.70    3.20
  -4  -8  -6   10.00    7.60
   4  -8   6   11.10    8.00
  -4  -8  -6    1.10    6.90
   4   8   6    3.30    3.50
  -4   8  -6    3.80    3.20
 -10   0   7    8.40    8.00
  10   0  -7    5.00    4.00
   9   0  -7    0.20    3.30
  -9   0   7   -2.60    6.60
   8   0  -7    0.70    2.60
  -8   0   7   -0.70    4.30
   8   0  -7    1.60    2.20
  -8   0   7    8.60    6.30
  -7   0   7    1.90    5.30
   6   0  -7   -0.40    2.00
  -6   0   7    1.40    2.70
  -6   0   7   -0.50    3.90
   6   0  -7    0.00    1.50
  -5   0   7    1.40    3.40
  -5   0   7    0.80    2.30
   5   0  -7    0.30    1.60
   5   0  -7   -1.10    1.90
   4   0  -7    0.10    1.50
  -4   0   7   -2.10    2.70
  -4   0   7    4.30    2.00
   4   0  -7   -0.60    1.60
   3   0  -7    3.00    2.00
  -3   0   7    4.90    2.70
   3   0  -7    5.60    1.40
  -2   0   7    0.40    1.70
   2   0  -7    0.30    0.90
  -2   0   7   -0.10    1.80
  -2   0   7    0.30    1.40
  -1   0   7    3.60    1.50
  -1   0   7    0.90    1.50
  -1   0   7    0.60    1.40
  -1   0   7    1.00    1.20
   0   0   7    1.50    1.30
   0   0   7   -0.60    1.30
   0   0   7    1.00    1.20
   0   0   7    0.90    1.30
   1   0   7    4.20    1.30
   1   0   7    1.90    1.30
  -1   0  -7    1.30    1.00
   1   0   7    2.80    1.60
  -2   0  -7    0.60    0.90
   2   0   7    1.40    1.50
   2   0   7    0.10    1.10
  -2   0  -7   -1.80    1.50
  -3   0  -7    1.20    1.80
   3   0   7    5.10    1.90
  -3   0  -7    1.10    0.90
   3   0   7    3.30    1.30
   4   0   7   -0.60    1.60
   4   0   7    1.40    1.20
  -4   0  -7    0.20    0.90
  -4   0  -7    5.50    2.30
  -5   0  -7   12.40    1.90
  -5   0  -7    8.50    2.50
   6   0   7    0.30    2.10
  -6   0  -7    1.40    1.50
   6   0   7    0.90    1.80
  -6   0  -7    3.20    2.60
   7   0   7    2.30    3.20
   7   0   7    2.40    2.10
  -7   0  -7    2.10    2.30
  -8   0  -7   -1.20    3.10
   8   0   7   -5.50    3.30
  -8   0  -7   -0.60    4.00
   8   0   7    1.60    2.50
   9   0   7   -2.30    3.30
  -9   0  -7    2.10    5.70
 -10   0  -7   -1.00    6.50
  10   0   7   -0.10    4.30
 -10  -1   7   50.79   10.20
  10  -1  -7   50.19    7.10
  10   1  -7   46.60    6.40
 -10   1   7   42.00    9.40
   9  -1  -7  176.68   13.40
  -9  -1   7  208.98   17.10
   9  -1  -7  185.98   14.40
  -9  -1   7  177.48   19.10
  -9   1   7  170.18   18.70
   9   1  -7  176.68   14.50
   8  -1  -7  242.98   18.10
   8  -1  -7  255.37   19.00
  -8  -1   7  256.77   22.40
  -8  -1   7  310.67   21.20
   8   1  -7  263.37   19.00
  -8   1   7  255.97   22.40
   7  -1  -7  991.30   66.89
  -7  -1   7 1131.59   68.79
   7  -1  -7  918.21   66.09
  -7  -1   7  988.90   69.39
   7   1  -7 1025.50   66.99
  -7   1   7  904.91   69.59
   7   1  -7 1173.38   65.79
   6  -1  -7    6.70    2.40
  -6  -1   7    6.30    4.40
  -6  -1   7    4.80    3.70
   6  -1  -7    5.90    1.90
  -6   1   7    8.50    4.80
   6   1  -7    4.50    1.60
   6   1  -7    6.40    2.50
  -6   1   7    6.40    2.20
  -5  -1   7  235.88   17.80
   5  -1  -7  242.38   17.00
  -5  -1   7  219.18   18.70
   5  -1  -7  224.98   17.10
  -5   1   7  231.28   19.20
   5   1  -7  284.87   16.50
   5   1  -7  241.08   17.20
  -5   1   7  256.47   16.50
  -4  -1   7  248.78   17.50
  -4  -1   7  212.68   17.80
   4  -1  -7  262.07   17.00
   4   1  -7  255.67   17.00
  -4   1   7  231.48   17.40
  -4   1   7  234.38   18.50
  -4   1   7  256.27   16.40
  -3  -1   7    3.10    2.20
  -3  -1   7    4.10    2.30
   3  -1  -7    3.90    1.50
   3   1  -7   10.00    2.00
  -3   1   7    3.50    2.00
  -3   1   7    2.90    2.70
  -2  -1   7  185.08   13.40
   2  -1  -7  184.38   12.90
  -2  -1   7  185.28   12.70
  -2  -1   7  200.78   13.90
  -2   1   7  180.18   13.90
  -2   1   7  177.88   12.70
   2   1  -7  196.88   13.10
  -2   1   7  185.78   13.20
  -1  -1   7   32.10    3.70
  -1  -1   7   33.20    3.20
  -1  -1   7   31.00    3.80
   1  -1  -7   32.00    3.30
  -1   1   7   26.80    3.10
   1   1  -7   30.60    3.20
  -1   1   7   30.10    3.50
  -1   1   7   32.20    3.70
  -1   1   7   30.70    3.30
   0  -1   7   57.39    4.80
   0  -1   7   52.29    4.70
   0  -1   7   53.09    4.60
   0  -1   7   58.69    5.20
   0  -1  -7   56.69    4.80
   0   1   7   56.99    4.80
   0   1   7   56.69    5.00
   0   1   7   51.99    4.50
   1  -1   7 2041.70  140.39
   1  -1   7 2278.77  140.79
  -1  -1  -7 2256.77  140.59
   1  -1   7 2393.76  140.19
   1   1   7 2120.39  140.09
   1   1   7 2139.09  140.59
  -1   1  -7 2181.18  140.19
   1   1   7 2107.49  139.89
   2  -1   7   32.50    3.60
   2  -1   7   31.60    2.90
  -2  -1  -7   30.20    2.50
   2  -1   7   28.40    3.80
  -2   1  -7   27.50    2.80
   2   1   7   26.20    2.90
   2   1   7   26.20    3.80
  -3  -1  -7  636.14   46.10
  -3  -1  -7  736.03   44.40
   3  -1   7  620.64   45.90
   3  -1   7  762.52   44.50
  -3   1  -7  694.83   44.70
   3   1   7  678.13   45.40
   3   1   7  691.53   44.70
  -4  -1  -7   30.90    2.60
   4  -1   7   28.80    3.90
   4  -1   7   30.30    2.90
  -4  -1  -7   32.10    4.20
   4   1   7   27.20    3.00
  -4   1  -7   29.10    4.20
   4   1   7   21.20    3.70
  -4   1  -7   29.10    3.00
   5  -1   7   44.50    5.70
  -5  -1  -7   43.10    6.00
  -5  -1  -7   50.29    3.90
   5  -1   7   49.30    4.00
  -5   1  -7   48.50    4.20
   5   1   7   42.20    4.40
   5   1   7   45.40    5.30
  -5   1  -7   42.40    5.50
  -6  -1  -7   85.09    8.90
   6  -1   7   78.59    8.00
   6  -1   7   93.39    6.50
  -6  -1  -7  102.19    6.90
   6   1   7   78.89    6.80
   6   1   7   85.59    8.00
  -6   1  -7   79.49    6.70
  -6   1  -7   80.79    7.80
   7  -1   7  142.59   13.20
  -7  -1  -7  132.09   14.00
  -7  -1  -7  182.38   12.90
   7   1   7  154.88   11.60
  -7   1  -7  176.38   13.30
  -7   1  -7  167.18   11.80
   7   1   7  162.58   12.70
  -8  -1  -7   35.80    7.30
   8  -1   7   38.80    6.20
  -8   1  -7   24.30    5.30
   8   1   7   37.60    5.40
  -8   1  -7   35.60    4.60
   8   1   7   33.80    4.90
   9  -1   7  266.17   19.40
  -9  -1  -7  203.88   21.10
  -9   1  -7  262.07   18.10
   9   1   7  236.28   17.30
   9   1   7  245.98   18.50
  -9   1  -7  212.08   19.30
 -10  -1  -7   17.70    8.60
  10  -1   7   21.70    5.70
  10   1   7   11.80    4.70
 -10   1  -7   13.40    6.60
 -10  -2   7   35.50    9.90
  10  -2  -7   39.20    6.10
  10  -2  -7   34.00    5.50
 -10  -2   7   34.70    8.60
 -10   2   7   23.80    8.80
  10   2  -7   40.60    5.90
  -9  -2   7  608.94   45.40
   9  -2  -7  557.34   40.90
   9  -2  -7  594.14   41.50
  -9  -2   7  723.93   44.60
   9   2  -7  621.84   41.70
  -9   2   7  620.84   45.60
   8  -2  -7  370.86   25.80
  -8  -2   7  426.76   29.40
  -8  -2   7  376.96   29.60
   8  -2  -7  364.86   26.30
   8   2  -7  377.06   26.30
  -8   2   7  367.86   30.20
   7  -2  -7   12.90    3.10
   7  -2  -7    8.70    2.40
  -7  -2   7    9.10    4.80
  -7  -2   7   15.00    6.10
   7   2  -7    9.90    3.20
  -7   2   7   10.90    5.50
   6  -2  -7   45.90    5.50
   6  -2  -7   52.59    5.00
  -6  -2   7   58.39    8.30
  -6  -2   7   46.30    7.00
  -6   2   7   40.90    8.00
   6   2  -7   51.89    5.30
   5  -2  -7  330.17   21.90
  -5  -2   7  305.67   23.10
  -5  -2   7  284.77   23.40
   5   2  -7  325.57   21.80
  -5   2   7  317.27   22.30
  -5   2   7  341.57   25.00
  -4  -2   7  375.06   27.10
   4  -2  -7  415.66   24.90
   4  -2  -7  390.86   24.90
  -4  -2   7  372.86   27.70
  -4   2   7  348.77   26.00
   4   2  -7  378.06   25.90
  -4   2   7  408.36   28.50
   4   2  -7  388.56   24.90
  -3  -2   7 5068.39  324.67
   3  -2  -7 5228.98  324.07
   3  -2  -7 4906.91  323.07
   3  -2  -7 5069.19  322.97
  -3  -2   7 4788.92  324.47
   3   2  -7 5597.34  323.07
   3   2  -7 4427.36  323.67
  -3   2   7 4690.33  323.87
  -3   2   7 5874.51  325.67
  -2  -2   7   27.70    3.90
   2  -2  -7   17.60    2.80
   2  -2  -7   21.00    2.60
  -2  -2   7   21.60    2.40
  -2  -2   7   21.80    3.60
  -2   2   7   25.10    3.80
  -2   2   7   25.00    3.10
   2   2  -7   18.30    2.60
  -1  -2   7 1252.27   78.09
   1  -2  -7 1249.97   78.59
  -1  -2   7 1168.58   78.89
   1  -2  -7 1223.48   78.19
  -1  -2   7 1195.28   78.69
  -1   2   7 1167.28   78.39
   1   2  -7 1151.68   78.09
  -1   2   7 1313.47   78.79
   0  -2   7  236.28   16.80
   0  -2  -7  244.38   17.10
   0  -2   7  268.17   17.70
   0   2   7  238.08   16.90
   0   2  -7  245.18   16.70
   0   2   7  256.57   17.50
   0   2  -7  261.17   17.10
   0   2   7  256.67   17.00
  -1  -2  -7   29.60    4.00
   1  -2   7   35.40    3.70
   1   2   7   30.60    2.90
   1   2   7   32.70    3.30
  -1   2  -7   34.90    2.90
  -1   2  -7   32.40    3.40
   2  -2   7    1.80    1.60
  -2  -2  -7    1.50    2.10
  -2  -2  -7    3.60    0.80
   2  -2   7    4.20    2.00
  -2  -2  -7    4.30    1.60
  -2   2  -7    3.10    1.40
   2   2   7    5.00    1.30
  -2   2  -7    2.60    1.00
   2   2   7    2.40    1.90
  -2   2  -7    1.50    1.20
  -3  -2  -7  664.33   42.20
  -3  -2  -7  649.43   44.00
  -3  -2  -7  730.73   42.00
   3  -2   7  646.34   43.50
   3  -2   7  648.44   43.30
   3   2   7  628.44   42.70
  -3   2  -7  664.83   42.00
  -3   2  -7  663.73   42.00
  -3   2  -7  622.94   42.70
   3   2   7  636.54   43.30
   4  -2   7  415.16   28.30
   4  -2   7  414.46   27.70
  -4  -2  -7  412.46   28.90
   4   2   7  396.96   27.70
  -5  -2  -7 1596.34  113.59
   5  -2   7 1706.03  112.99
   5   2   7 1712.13  111.59
  -5   2  -7 1819.12  111.59
   5   2   7 1806.02  112.39
  -5   2  -7 1775.42  112.59
  -6  -2  -7  526.65   36.90
   6  -2   7  503.65   35.70
   6   2   7  531.85   34.90
   6   2   7  494.85   34.00
  -6   2  -7  523.95   35.10
  -6   2  -7  512.95   34.00
   7  -2   7 1525.25   98.49
  -7  -2  -7 1407.66   99.49
   7   2   7 1435.16   96.59
  -7   2  -7 1512.55   97.69
   7   2   7 1576.74   97.69
  -7   2  -7 1523.85   96.59
  -8  -2  -7    6.10    6.00
   8  -2   7    7.10    4.30
   8   2   7    8.50    3.40
   8   2   7    5.40    2.90
  -8   2  -7    6.30    3.60
  -8   2  -7    7.80    2.90
   9   2   7   38.50    5.30
  -9   2  -7   28.60    5.00
   9   2   7   28.30    5.10
  -9   2  -7   33.10    6.20
 -10  -2  -7  255.97   25.00
  10  -2   7  303.37   22.50
 -10   2  -7  285.57   21.10
  10   2   7  256.47   20.60
  10   2   7  282.77   20.90
 -10   2  -7  256.37   22.10
  10  -3  -7  104.89    9.80
 -10  -3   7  117.89   16.70
 -10  -3   7  132.59   15.90
  10  -3  -7  108.99   10.30
 -10   3   7  118.19   15.60
  10   3  -7  104.29   10.30
  -9  -3   7  416.16   31.80
  -9  -3   7  497.95   33.20
   9  -3  -7  404.06   28.00
   9  -3  -7  424.36   28.40
  -9   3   7  333.97   38.80
   9   3  -7  359.96   29.90
  -8  -3   7  507.85   34.60
  -8  -3   7  405.06   32.60
   8  -3  -7  424.66   29.70
   8  -3  -7  431.26   29.90
   8   3  -7  430.96   30.00
  -8   3   7  449.66   33.80
  -7  -3   7 2532.15  147.79
  -7  -3   7 2197.68  146.39
   7  -3  -7 2157.08  144.09
   7  -3  -7 2073.59  144.19
   7   3  -7 2274.37  144.39
  -7   3   7 2222.38  147.39
   6  -3  -7   47.10    5.10
  -6  -3   7   44.80    8.30
  -6  -3   7   52.09    7.40
  -6   3   7   36.40    8.60
  -6   3   7   40.50    6.00
   6   3  -7   49.90    5.30
  -5  -3   7  779.72   51.89
   5  -3  -7  788.42   49.80
  -5  -3   7  728.53   50.69
   5   3  -7  756.32   49.30
  -5   3   7  655.33   51.89
  -5   3   7  794.72   49.80
  -4  -3   7  136.99   12.90
   4  -3  -7  147.29   11.40
  -4  -3   7  151.38   11.90
  -4   3   7  145.99   10.90
   4   3  -7  147.09   10.80
  -4   3   7  142.59   14.10
   3  -3  -7   22.80    3.60
  -3  -3   7   12.00    3.90
   3  -3  -7   23.10    1.70
  -3  -3   7   12.20    3.00
  -3   3   7   21.50    3.00
   3   3  -7   16.90    1.80
  -2  -3   7   31.90    2.80
   2  -3  -7   27.10    3.80
  -2  -3   7   26.40    4.20
  -2  -3   7   27.10    4.30
   2   3  -7   26.30    3.10
  -2   3   7   27.50    3.30
  -2   3   7   30.20    5.10
   1  -3  -7  106.49    8.70
  -1  -3   7  103.19    7.70
  -1  -3   7  101.29    9.10
   1   3  -7  103.99    7.80
  -1   3   7  130.09    9.30
   0  -3  -7   39.10    4.50
   0  -3   7   44.20    3.90
   0  -3   7   31.30    4.60
   0   3   7   38.40    3.90
   0   3  -7   46.10    4.30
   0   3  -7   40.10    3.50
   0   3   7   40.00    4.20
   1  -3   7 6066.29  392.96
   1  -3   7 6294.07  393.56
  -1  -3  -7 5457.55  393.66
  -1   3  -7 6231.08  392.86
  -1   3  -7 6083.69  392.16
   1   3   7 6298.87  393.36
   1   3   7 6759.62  392.36
   1   3   7 6067.69  392.76
   2  -3   7  924.01   62.89
   2  -3   7 1037.30   62.99
  -2  -3  -7  937.71   63.79
   2   3   7  996.70   62.99
  -2   3  -7  858.61   62.29
   2   3   7  947.51   62.29
  -2   3  -7  918.11   61.39
  -2   3  -7 1077.59   61.49
   3  -3   7 1857.31  120.79
   3  -3   7 1874.81  121.09
  -3  -3  -7 1810.62  121.99
   3   3   7 1883.11  120.19
  -3   3  -7 1905.81  120.19
   3   3   7 1898.01  120.79
   4  -3   7   -0.60    1.80
   4  -3   7    5.40    2.70
  -4  -3  -7    7.00    4.40
   4   3   7    1.40    1.80
   4   3   7    2.40    1.70
  -4   3  -7    2.80    1.60
  -5  -3  -7  130.19   12.30
   5  -3   7  102.49   10.00
   5  -3   7  102.29    8.60
  -5   3  -7  104.29    8.10
   5   3   7  100.29    8.20
   5   3   7  109.89    8.90
   6  -3   7  113.39   11.00
  -6  -3  -7  115.59   13.10
  -6   3  -7  108.79    9.60
   6   3   7  117.29    9.00
   6   3   7  115.49    9.30
  -6   3  -7  112.39    8.80
   7  -3   7  462.55   32.90
  -7  -3  -7  453.15   34.70
  -7   3  -7  481.55   31.80
  -7   3  -7  452.15   30.80
   7   3   7  460.45   31.50
   7   3   7  448.06   30.90
  -8  -3  -7    9.90    7.50
   8  -3   7   13.70    5.40
  -8   3  -7   11.50    4.10
   8   3   7    8.30    3.30
  -8   3  -7    9.80    3.30
   8   3   7    9.50    3.60
  -9  -3  -7  542.65   43.50
   9  -3   7  643.34   41.50
  -9   3  -7  589.54   39.20
  -9   3  -7  577.54   39.90
   9   3   7  537.95   39.20
   9   3   7  582.74   39.50
  -9  -4   7  198.48   20.60
   9  -4  -7  178.48   14.20
  -9  -4   7  168.08   21.30
   9   4  -7  182.28   14.30
  -9   4   7  204.18   19.00
   8  -4  -7  144.09   11.40
   8  -4  -7  137.49   11.40
  -8  -4   7  131.39   14.60
  -8  -4   7  173.18   18.10
  -8   4   7  171.08   16.40
   8   4  -7  128.39   11.30
  -7  -4   7   15.30    5.00
   7  -4  -7   18.50    3.70
   7  -4  -7   17.00    3.40
  -7  -4   7   10.60    7.90
   7   4  -7   14.30    3.10
  -6  -4   7   18.50    4.80
   6  -4  -7   18.60    3.60
  -6  -4   7   24.10    8.30
  -6   4   7   16.90    6.10
   6   4  -7   20.80    3.40
  -6   4   7   23.20    4.30
  -5  -4   7  122.99   10.80
  -5  -4   7  109.29   13.90
   5  -4  -7  110.79    9.70
  -5   4   7  145.19    9.80
  -5   4   7   83.49   12.40
   5   4  -7  111.09    9.00
  -4  -4   7  343.77   28.00
  -4  -4   7  393.96   26.60
   4  -4  -7  383.16   26.30
  -4   4   7  380.16   25.40
   4   4  -7  379.56   25.20
  -4   4   7  358.46   28.20
   3  -4  -7 2778.12  195.68
  -3  -4   7 2770.02  196.78
  -3  -4   7 3334.57  195.98
   3   4  -7 2936.81  194.58
  -3   4   7 2981.30  194.78
   3   4  -7 3289.97  195.38
  -3   4   7 3210.88  197.38
  -2  -4   7  156.88   13.90
   2  -4  -7  152.68   13.10
  -2  -4   7  173.88   11.60
   2   4  -7  170.18   12.00
   2   4  -7  188.58   12.80
  -2   4   7  204.98   15.30
  -2   4   7  167.78   12.30
   1  -4  -7  700.03   48.10
  -1  -4   7  749.42   46.80
  -1  -4   7  657.23   48.30
  -1   4   7  706.83   47.20
   1   4  -7  753.12   47.60
   1   4  -7  766.62   46.80
   0  -4   7   26.90    4.60
   0  -4   7   34.60    4.00
   0  -4  -7   33.90    4.80
   0  -4  -7   44.20    5.90
   0   4  -7   37.00    3.20
   0   4   7   33.60    3.90
   0   4  -7   39.60    4.30
   0   4   7   49.60    5.10
   1  -4   7   52.39    5.00
  -1  -4  -7   51.89    6.80
  -1  -4  -7   37.40    5.00
  -1   4  -7   44.90    3.50
  -1   4  -7   42.80    4.40
   1   4   7   40.60    4.30
   2  -4   7   66.69    6.40
   2  -4   7   70.79    7.00
  -2  -4  -7   73.69    8.80
  -2  -4  -7   64.89    7.00
  -2   4  -7   63.89    5.70
   2   4   7   64.49    5.70
   3  -4   7  366.76   25.60
   3  -4   7  367.86   26.20
  -3  -4  -7  344.57   27.40
   3   4   7  379.06   25.10
   3   4   7  402.96   25.80
  -3   4  -7  373.36   25.10
   4  -4   7  102.39    8.40
  -4  -4  -7  103.39   11.90
   4  -4   7   94.29    9.80
   4   4   7  101.79    8.40
   4   4   7   95.79    8.00
  -4   4  -7  103.79    8.00
   5  -4   7  954.60   67.59
  -5  -4  -7 1003.90   69.39
   5  -4   7 1051.69   66.29
   5   4   7 1006.10   65.99
  -5   4  -7 1002.50   65.99
   5   4   7 1062.89   66.59
   6  -4   7  388.96   28.70
  -6  -4  -7  357.56   30.10
   6  -4   7  410.56   26.80
  -6   4  -7  397.36   26.60
  -6   4  -7  393.96   27.30
   6   4   7  404.56   27.10
   6   4   7  379.06   26.60
  -7  -4  -7  853.01   65.39
   7  -4   7 1041.20   64.49
  -7   4  -7  907.81   61.69
   7   4   7  955.90   62.19
  -7   4  -7  971.20   62.39
   7   4   7  931.41   61.99
  -8   4  -7    2.60    3.70
  -8   4  -7    2.10    2.80
   8   4   7    0.40    3.40
   8   4   7    4.90    3.10
   9  -4   7   35.50    7.80
  -9  -4  -7   20.30   10.20
  -9   4  -7   19.20    4.60
   9   4   7   23.90    5.30
  -8  -5   7  157.48   20.90
   8  -5  -7  154.68   11.80
  -8  -5   7  146.59   16.20
   8  -5  -7  141.49   13.00
   8   5  -7  145.59   11.90
  -8   5   7  164.18   16.60
   7  -5  -7  217.58   16.60
  -7  -5   7  215.68   18.40
  -7  -5   7  236.48   23.50
  -7   5   7  223.48   17.00
   7   5  -7  217.08   16.30
  -7   5   7  254.47   20.40
  -6  -5   7   21.70    8.90
  -6  -5   7   19.70    5.10
   6  -5  -7   19.00    3.90
  -6   5   7   30.20    7.00
   6   5  -7   19.90    3.40
  -6   5   7   15.10    3.70
   5  -5  -7   27.40    4.80
  -5  -5   7   18.70    8.10
   5   5  -7   23.30    3.60
  -5   5   7   20.50    3.60
  -5   5   7   33.30    6.80
  -4  -5   7    2.00    5.60
   4  -5  -7    3.30    3.00
  -4   5   7    2.70    2.20
  -4   5   7    3.80    5.00
   4   5  -7   -0.50    1.80
   4   5  -7   -0.30    2.40
  -3  -5   7   33.10    7.20
   3  -5  -7   39.40    6.10
   3   5  -7   40.70    5.10
  -3   5   7   41.00    4.30
   3   5  -7   37.70    4.10
  -3   5   7   41.30    7.40
   2  -5  -7   20.30    3.20
  -2  -5   7   16.90    4.90
   2  -5  -7   18.90    4.50
  -2  -5   7   22.70    2.80
  -2   5   7   16.40    2.80
   2   5  -7   19.00    3.30
   2   5  -7   16.70    2.80
   1  -5  -7    8.60    3.30
   1  -5  -7   14.40    3.00
  -1  -5   7   12.40    3.90
  -1  -5   7   13.50    2.40
  -1   5   7   13.90    2.70
  -1   5   7   22.10    5.40
   1   5  -7   16.10    2.80
   1   5  -7   14.70    2.20
   0  -5   7   19.50    3.20
   0  -5   7   18.60    4.00
   0  -5  -7   19.40    4.20
   0  -5  -7   32.10    4.50
   0   5  -7   17.70    2.50
   0   5   7   19.10    3.00
   0   5  -7   15.10    3.00
   0   5   7   29.40    4.80
  -1  -5  -7  419.46   31.50
   1  -5   7  482.75   31.00
   1  -5   7  406.66   31.20
   1   5   7  513.65   30.70
  -1   5  -7  447.76   30.70
  -1   5  -7  469.95   29.50
   2  -5   7  273.57   20.70
   2  -5   7  291.57   21.10
  -2  -5  -7  291.37   21.50
  -2  -5  -7  333.37   22.80
   2   5   7  291.67   20.20
  -2   5  -7  288.57   20.30
  -3  -5  -7   64.69    9.30
  -3  -5  -7   72.79    8.10
   3  -5   7   81.89    8.30
   3  -5   7   55.69    6.20
   3   5   7   60.49    6.00
  -3   5  -7   74.79    6.40
  -4  -5  -7   -0.80    5.40
  -4  -5  -7   -5.40    3.20
   4  -5   7    0.20    2.30
   4  -5   7    0.20    3.90
  -4   5  -7    2.20    2.00
   4   5   7    3.20    2.20
  -5  -5  -7   25.80    8.40
   5  -5   7   32.40    4.60
   5  -5   7   37.90    6.70
  -5   5  -7   36.70    4.60
   5   5   7   34.60    5.10
   5   5   7   31.20    4.30
   6  -5   7    8.70    2.80
  -6  -5  -7    3.10    7.40
   6  -5   7   15.00    5.50
  -6   5  -7    6.70    2.70
   6   5   7    7.70    3.00
   6   5   7    4.80    2.90
  -7  -5  -7   29.50    9.30
   7  -5   7   38.60    8.10
  -7   5  -7   26.00    4.80
   7   5   7   31.90    5.00
  -7   5  -7   33.10    4.50
   7   5   7   31.00    4.80
   8  -5   7   15.80    7.70
  -8  -5  -7    3.00    9.90
  -8   5  -7    7.50    3.80
   8   5   7   -0.30    4.90
   8   5   7    3.70    3.10
  -8   5  -7    2.00    3.60
   7  -6  -7   10.40    3.70
  -7  -6   7   18.70   10.70
  -7   6   7    8.00    3.60
   7   6  -7    6.40    3.80
   7   6  -7    4.70    3.80
  -7   6   7   -2.80   11.00
  -6  -6   7   -8.90    8.90
   6  -6  -7    0.00    3.30
  -6   6   7    0.50    2.90
   6   6  -7    0.40    2.90
   6   6  -7    0.40    2.50
  -6   6   7    6.50    6.50
   5  -6  -7    1.50    3.40
  -5  -6   7    2.40    8.50
  -5   6   7    5.10    6.10
  -5   6   7    4.80    2.70
   5   6  -7    0.20    2.10
   5   6  -7   -1.20    2.40
   4  -6  -7   11.00    4.10
  -4  -6   7   16.90    7.60
  -4   6   7    8.10    2.70
  -4   6   7    8.60    6.20
   4   6  -7    3.10    2.40
   4   6  -7    5.30    2.90
   3  -6  -7   80.79    9.70
  -3  -6   7   85.69   12.60
  -3   6   7  112.49   13.20
  -3   6   7  102.79    8.30
   3   6  -7   97.19    8.80
   3   6  -7  105.09    7.80
   2  -6  -7   21.60    4.60
  -2  -6   7   18.40    6.40
   2   6  -7   31.60    3.30
   2   6  -7   18.10    3.50
  -2   6   7   22.90    7.20
  -2   6   7   26.80    3.80
   1  -6  -7  182.78   12.90
  -1  -6   7  185.98   12.50
  -1  -6   7  161.98   14.90
   1  -6  -7  152.98   14.30
   1   6  -7  163.48   12.90
  -1   6   7  169.98   12.70
   1   6  -7  175.18   12.00
   0  -6  -7   77.39    8.90
   0  -6   7   73.19    8.10
   0  -6   7   69.49    7.20
   0  -6  -7   77.19    7.70
   0   6  -7   67.89    6.70
   0   6  -7   68.19    5.60
   0   6   7   68.39    6.40
   1  -6   7   26.70    4.50
   1  -6   7   14.70    3.80
  -1  -6  -7   17.70    4.50
  -1  -6  -7   15.80    4.70
   1   6   7   14.40    3.10
   2  -6   7   -2.50    2.60
  -2  -6  -7   -1.00    4.50
   2  -6   7    5.40    4.00
  -2  -6  -7    1.90    3.60
  -2   6  -7    2.70    2.10
   2   6   7   -1.70    2.10
  -3  -6  -7   49.90    8.20
  -3  -6  -7   65.89    9.80
   3  -6   7   54.69    5.90
   3  -6   7   43.30    7.20
   3   6   7   60.99    5.90
  -3   6  -7   51.29    5.90
   4  -6   7   31.00    6.90
  -4  -6  -7   30.90    7.90
   4  -6   7   35.00    5.00
  -4  -6  -7   40.90    6.60
   4   6   7   37.80    5.30
  -4   6  -7   24.80    4.10
   5  -6   7  122.39   10.30
   5  -6   7  141.39   14.30
  -5  -6  -7  133.29   13.00
  -5  -6  -7  120.09   15.20
   5   6   7  128.09   10.50
  -5   6  -7  111.89   10.20
   6  -6   7   31.60    4.90
   6  -6   7   37.20    8.40
  -6  -6  -7   28.70    6.80
  -6  -6  -7   22.70    9.10
  -6   6  -7   21.50    4.80
   6   6   7   30.20    6.20
  -7  -6  -7   14.60    8.90
  -7  -6  -7   11.40    6.40
   7  -6   7   20.70    7.60
  -7   6  -7   16.40    4.00
   7   6   7   21.40    4.80
  -7   6  -7   11.00    4.20
   6  -7  -7   19.20    4.90
  -6  -7   7   32.00   12.00
   6   7  -7   11.90    3.90
  -6   7   7   19.50    4.30
   5  -7  -7  227.08   17.40
  -5  -7   7  192.48   22.70
  -5   7   7  204.58   16.10
   5   7  -7  208.88   16.30
  -5   7   7  239.68   20.10
   5   7  -7  226.48   15.80
   4   7  -7   70.99    7.40
   4   7  -7   65.09    6.60
  -4   7   7   62.99    6.80
  -4   7   7   61.19   10.10
  -3  -7   7   -4.90    6.40
   3  -7  -7    0.30    4.50
   3   7  -7    7.20    2.40
  -3   7   7    2.60    2.60
  -3   7   7   -5.00    6.40
   3   7  -7    5.50    3.00
  -2  -7   7   39.10    8.20
   2  -7  -7   33.50    7.10
  -2   7   7   48.20    8.70
   2   7  -7   41.10    4.70
   2   7  -7   44.70    6.10
  -2   7   7   48.30    5.50
  -1  -7   7   81.69   10.30
   1  -7  -7   77.99   10.80
   1   7  -7   74.69    6.30
   1   7  -7   73.39    7.60
  -1   7   7   72.99    7.20
   0  -7  -7   14.90    4.40
   0  -7  -7   18.90    5.90
   0  -7   7   12.80    5.00
   0   7  -7   15.30    3.70
   0   7   7   12.60    3.20
   1  -7   7 1359.96   85.69
   1  -7   7 1157.48   84.59
  -1  -7  -7 1247.58   86.49
  -1  -7  -7 1432.76   85.49
  -1   7  -7 1291.87   84.69
   1   7   7 1301.87   84.29
  -2  -7  -7   37.10    6.40
   2  -7   7   24.60    4.80
   2  -7   7   25.60    6.00
  -2  -7  -7   29.60    7.10
  -2   7  -7   17.00    3.70
   2   7   7   31.30    4.40
   3  -7   7  296.77   26.30
   3  -7   7  354.86   25.20
  -3  -7  -7  369.96   27.50
  -3  -7  -7  400.86   27.60
   3   7   7  370.16   24.80
  -3   7  -7  359.36   25.00
   4  -7   7   10.30    7.00
  -4  -7  -7   15.70    6.80
  -4  -7  -7   11.60    6.10
   4  -7   7    8.40    3.30
  -4   7  -7    7.00    4.20
   4   7   7    8.10    3.90
   5  -7   7   -4.80    7.40
  -5  -7  -7   10.40    6.50
  -5  -7  -7   11.60    7.50
   5  -7   7    2.30    2.90
  -5   7  -7    2.30    2.90
   5   7   7   10.10    3.80
   6  -7   7   18.80    3.90
   6  -7   7   13.60    9.10
  -6  -7  -7    4.80   11.00
  -6  -7  -7   14.00    8.50
  -4  -8   7  161.18   20.40
   4  -8  -7  188.78   16.00
  -4   8   7  166.58   18.80
   4   8  -7  181.98   13.00
  -4   8   7  159.98   13.50
   4   8  -7  169.18   14.10
   3  -8  -7 2032.90  129.19
  -3  -8   7 2098.19  131.29
   3   8  -7 1967.30  126.29
  -3   8   7 1872.71  129.29
   3   8  -7 1925.81  127.19
  -3   8   7 1890.31  126.79
  -2  -8   7   35.30    7.90
   2  -8  -7   42.50    8.30
   2   8  -7   35.70    5.60
  -2   8   7   40.80    5.80
   2   8  -7   37.50    6.20
  -1  -8   7  349.87   27.70
   1  -8  -7  426.46   29.10
   1   8  -7  333.67   25.20
  -1   8   7  337.37   24.80
   0  -8   7   25.70    5.90
   0  -8  -7   23.20    7.50
   0   8   7   16.70    3.90
   0   8  -7   26.10    4.70
   1  -8   7   16.70    4.70
  -1  -8  -7   16.30    9.10
  -1  -8  -7   17.60    5.60
   1   8   7   16.30    3.60
  -1   8  -7   15.50    4.20
  -2  -8  -7    1.20    6.00
  -2  -8  -7    0.90    8.20
   2  -8   7   -0.30    5.60
   2  -8   7    4.40    3.90
   2   8   7    5.10    3.30
  -2   8  -7    5.20    3.40
  -3  -8  -7  180.38   17.10
   3  -8   7  157.28   13.20
   3  -8   7  119.69   16.40
  -3  -8  -7  190.28   17.60
  -3   8  -7  151.58   12.90
   3   8   7  165.38   12.80
  10   0  -8  384.66   28.60
 -10   0   8  437.76   34.50
  -9   0   8  953.20   66.79
   9   0  -8  892.71   61.19
  -8   0   8  550.74   41.10
   8   0  -8  533.65   36.80
   7   0  -8  146.59   12.00
   7   0  -8  138.79   10.80
  -7   0   8  165.58   12.50
  -7   0   8  154.48   16.30
  -6   0   8  356.56   22.60
  -6   0   8  312.77   25.50
   6   0  -8  314.77   21.70
   6   0  -8  307.77   22.60
   5   0  -8  232.78   17.70
  -5   0   8  261.87   17.60
  -5   0   8  229.18   19.70
   5   0  -8  266.97   17.20
   4   0  -8 5795.62  335.57
  -4   0   8 4928.81  337.07
  -4   0   8 5274.77  335.67
   4   0  -8 5018.30  335.87
   3   0  -8  137.19    9.70
  -3   0   8  139.69   10.10
   3   0  -8  132.59   10.20
  -3   0   8  130.39   11.30
   2   0  -8  678.63   42.90
  -2   0   8  614.64   44.40
  -2   0   8  682.23   43.30
  -1   0   8    3.90    1.80
  -1   0   8    7.30    1.80
  -1   0   8    1.00    1.90
  -1   0   8    4.30    1.90
   0   0   8    3.40    1.80
   0   0   8    4.20    1.70
   0   0   8    2.80    1.50
   1   0   8   19.10    2.50
   1   0   8   21.10    3.00
  -1   0  -8   18.90    2.60
   1   0   8   19.10    3.00
   2   0   8 1095.29   73.59
  -2   0  -8 1133.79   72.89
   2   0   8 1132.79   72.99
  -2   0  -8 1175.88   73.89
  -3   0  -8  243.78   16.60
  -3   0  -8  231.28   15.30
   3   0   8  234.28   15.50
   3   0   8  203.48   16.10
  -4   0  -8 3404.76  225.38
  -4   0  -8 3405.46  223.98
   4   0   8 3752.72  224.18
   4   0   8 3478.55  225.28
  -5   0  -8 1626.84  100.39
   5   0   8 1447.46  101.69
  -5   0  -8 1516.15  101.89
   5   0   8 1665.23  100.49
   6   0   8 1947.51  132.99
  -6   0  -8 2044.40  133.39
  -6   0  -8 2093.29  131.49
   6   0   8 2122.49  131.59
  -7   0  -8    1.10    2.30
  -7   0  -8    2.70    4.10
   7   0   8    2.90    3.60
  -8   0  -8    2.20    4.70
   8   0   8   -0.60    4.20
  -9   0  -8  120.49   14.70
   9   0   8  115.89   12.30
 -10  -1   8  391.66   33.60
  10  -1  -8  375.76   27.90
  10   1  -8  383.46   27.90
 -10   1   8  441.56   33.70
   9  -1  -8  288.77   22.00
  -9  -1   8  302.47   28.90
   9  -1  -8  288.47   20.20
   8  -1  -8 1029.60   67.99
   8  -1  -8 1026.80   68.79
  -8  -1   8 1049.09   72.39
   8   1  -8 1127.29   69.09
  -8   1   8 1003.30   72.79
   7  -1  -8   70.99    6.50
  -7  -1   8   69.19   10.60
   7  -1  -8   79.39    7.40
  -7  -1   8   76.19    9.50
  -7   1   8   85.99   12.90
   7   1  -8   82.69    7.70
   6  -1  -8  675.63   48.70
  -6  -1   8  737.43   49.50
   6  -1  -8  720.83   48.30
  -6  -1   8  693.93   50.99
  -6   1   8  703.63   51.69
   6   1  -8  759.32   48.90
  -6   1   8  797.82   48.00
   6   1  -8  790.12   47.70
   5  -1  -8  111.89    9.90
   5  -1  -8  127.59    9.80
  -5  -1   8  104.29   11.30
  -5  -1   8  128.09   10.90
   5   1  -8  123.19   10.00
  -5   1   8  133.39    9.30
  -5   1   8  130.19   12.50
   5   1  -8  147.49    9.30
   4  -1  -8  193.08   13.70
  -4  -1   8  181.18   14.10
  -4  -1   8  157.48   14.80
   4   1  -8  199.68   13.90
   4   1  -8  221.48   13.30
  -4   1   8  185.98   14.40
  -4   1   8  183.98   15.70
  -4   1   8  192.98   13.20
   3  -1  -8  405.46   25.30
  -3  -1   8  374.16   25.70
  -3  -1   8  370.06   26.30
   3   1  -8  377.26   25.30
  -3   1   8  369.66   26.50
  -3   1   8  368.46   24.80
   3   1  -8  400.96   24.70
  -3   1   8  334.87   25.40
  -2  -1   8  346.67   22.40
  -2  -1   8  333.67   23.20
   2  -1  -8  343.07   22.70
  -2  -1   8  349.87   23.50
   2   1  -8  360.46   22.80
  -2   1   8  296.97   22.30
  -2   1   8  359.96   23.70
  -2   1   8  316.97   22.90
  -1  -1   8   40.70    4.80
  -1  -1   8   43.00    5.00
  -1  -1   8   41.90    4.00
   1  -1  -8   45.90    4.30
  -1   1   8   42.90    4.80
  -1   1   8   42.60    4.40
   1   1  -8   49.50    4.20
  -1   1   8   40.30    4.10
  -1   1   8   35.30    5.60
   0  -1   8 5981.50  368.46
   0  -1   8 6139.49  367.96
   0  -1  -8 5706.43  367.96
   0  -1   8 5799.52  367.86
   0  -1   8 5638.94  367.96
   0   1   8 5284.77  367.76
   0   1   8 5748.23  368.76
   0   1   8 5833.42  367.86
   1  -1   8  530.25   35.90
   1  -1   8  530.75   36.20
   1  -1   8  575.64   35.60
  -1  -1  -8  571.24   36.10
   1   1   8  538.15   36.10
   1   1   8  517.35   35.30
   1   1   8  519.95   35.60
  -1   1  -8  571.94   35.70
   2  -1   8  541.35   36.80
   2  -1   8  521.45   36.70
   2  -1   8  615.04   36.10
  -2  -1  -8  558.54   35.80
  -2  -1  -8  561.64   37.00
   2   1   8  509.25   36.60
  -2   1  -8  555.14   36.10
   2   1   8  559.74   36.10
   3  -1   8   53.69    6.00
  -3  -1  -8   63.29    6.20
   3  -1   8   63.49    5.70
   3  -1   8   66.99    5.00
  -3  -1  -8   67.59    4.70
  -3   1  -8   61.69    5.00
   3   1   8   61.49    5.20
   3   1   8   52.79    5.60
  -3   1  -8   64.19    6.20
  -4  -1  -8    9.20    3.00
   4  -1   8   12.20    1.90
   4  -1   8   13.90    3.00
  -4  -1  -8   10.80    1.60
  -4   1  -8   13.50    2.00
   4   1   8   12.70    2.10
   4   1   8    9.00    2.30
   5  -1   8   14.60    3.70
  -5  -1  -8    9.80    1.70
  -5  -1  -8   10.40    3.70
   5  -1   8   11.00    2.10
  -5   1  -8   12.60    3.10
   5   1   8   10.70    2.20
   5   1   8   10.80    3.30
  -5   1  -8   11.60    2.00
   6  -1   8  805.32   49.70
  -6  -1  -8  723.63   49.90
   6   1   8  723.43   49.10
  -6   1  -8  753.62   49.30
  -6   1  -8  663.53   48.60
  -7  -1  -8   72.49   10.00
   7  -1   8   69.79    8.50
  -7   1  -8   77.19    6.80
   7   1   8   82.89    7.10
  -7   1  -8   80.39    8.70
   7   1   8   87.19    8.40
  -8  -1  -8  593.64   45.60
   8  -1   8  650.63   44.50
  -8   1  -8  689.13   42.70
  -8   1  -8  635.54   44.50
   8   1   8  623.04   42.40
   8   1   8  660.53   44.10
  -9  -1  -8  204.28   20.40
   9  -1   8  264.37   19.00
  -9   1  -8  212.68   20.50
   9   1   8  217.98   18.90
 -10  -2   8   61.89   12.40
  10  -2  -8   69.79    7.80
  10  -2  -8   77.69    8.70
  10   2  -8   76.79    8.10
 -10   2   8   72.69   12.40
  -9  -2   8   79.99   19.50
   9  -2  -8   83.69    8.20
  -9  -2   8  125.19   14.30
  -9   2   8  111.49   15.10
   9   2  -8  100.79    9.50
  -8  -2   8  172.98   15.30
   8  -2  -8  132.39   10.40
   8  -2  -8  132.29   11.40
  -8  -2   8  141.29   16.30
  -8   2   8  114.49   16.40
   8   2  -8  138.89   11.40
   7  -2  -8   36.30    4.50
  -7  -2   8   29.90    7.40
   7  -2  -8   34.60    4.80
  -7  -2   8   46.50    7.40
   7   2  -8   40.30    5.60
  -7   2   8   25.60    8.40
   6  -2  -8   45.00    5.10
   6  -2  -8   46.30    5.70
  -6  -2   8   49.40    7.30
  -6  -2   8   43.60    7.10
   6   2  -8   53.79    5.50
  -6   2   8   46.40    8.10
  -5  -2   8  220.28   18.30
  -5  -2   8  231.38   18.20
   5  -2  -8  243.38   16.70
   5   2  -8  239.98   16.70
  -5   2   8  233.68   19.90
  -5   2   8  226.88   17.20
   4  -2  -8 1300.97   81.89
  -4  -2   8 1172.78   82.69
  -4  -2   8 1213.78   82.59
   4  -2  -8 1282.77   80.59
  -4   2   8 1224.68   81.89
   4   2  -8 1264.87   81.59
  -4   2   8 1358.76   84.09
  -3  -2   8    4.20    2.80
   3  -2  -8    2.00    1.30
   3  -2  -8    0.00    1.60
  -3  -2   8   -0.10    2.40
   3   2  -8    1.40    1.00
   3   2  -8    6.30    1.80
  -3   2   8    1.30    1.90
  -3   2   8    4.10    3.30
  -2  -2   8   41.00    3.60
  -2  -2   8   40.70    5.00
   2  -2  -8   34.30    4.10
  -2  -2   8   36.50    5.00
   2  -2  -8   39.40    3.70
  -2   2   8   35.90    5.70
   2   2  -8   40.50    3.90
  -2   2   8   35.80    4.20
   1  -2  -8   20.50    2.90
  -1  -2   8   24.80    2.90
  -1  -2   8   16.50    3.20
  -1  -2   8   20.40    3.30
   1  -2  -8   21.10    3.20
   1   2  -8   22.70    2.80
  -1   2   8   25.00    3.50
  -1   2   8   16.70    2.50
   0  -2   8    5.80    1.70
   0  -2  -8   10.30    2.20
   0  -2   8    6.70    2.20
   0   2  -8    6.90    1.70
   0   2   8   10.90    1.90
   0   2   8    8.80    2.20
   0   2  -8    8.20    1.80
  -1  -2  -8  176.18   12.80
   1  -2   8  165.58   12.30
   1  -2   8  171.88   12.90
   1   2   8  176.08   11.70
  -1   2  -8  169.08   12.30
   1   2   8  176.68   12.10
   1   2   8  161.28   12.60
  -1   2  -8  181.08   11.70
  -2  -2  -8  254.27   18.30
   2  -2   8  240.78   17.90
   2  -2   8  255.07   18.00
  -2  -2  -8  261.17   16.70
   2   2   8  258.87   17.40
  -2   2  -8  234.98   17.50
   2   2   8  264.27   18.00
  -2   2  -8  269.37   16.80
  -3  -2  -8  117.09    7.50
   3  -2   8  110.09    9.20
   3  -2   8  104.59    9.00
  -3  -2  -8  108.29    9.70
  -3   2  -8  121.39    7.70
   3   2   8  104.19    8.90
   3   2   8  111.19    8.40
  -3   2  -8  108.39    8.30
  -4  -2  -8  449.66   31.60
   4  -2   8  454.55   31.00
   4  -2   8  454.15   30.50
   4   2   8  434.46   29.80
  -4   2  -8  488.35   28.90
   4   2   8  428.66   30.40
  -4   2  -8  437.36   29.70
  -5  -2  -8  195.68   16.00
   5  -2   8  203.38   15.50
  -5   2  -8  197.38   14.90
   5   2   8  186.48   14.50
   5   2   8  191.68   13.60
  -5   2  -8  193.08   13.60
  -6  -2  -8  230.78   20.00
   6  -2   8  237.98   19.00
   6   2   8  244.38   18.00
  -6   2  -8  260.17   18.40
  -6   2  -8  250.47   17.00
   6   2   8  247.58   17.20
  -7  -2  -8    7.40    5.30
   7  -2   8   -1.50    3.60
   7   2   8    2.30    2.50
  -7   2  -8    3.90    2.20
   7   2   8    2.10    3.00
  -7   2  -8    2.90    3.40
  -8  -2  -8   -3.90    6.50
   8  -2   8   -1.10    4.70
   8   2   8    2.50    3.20
  -8   2  -8   16.80    4.50
   8   2   8   -0.10    3.30
  -8   2  -8    3.20    2.90
   9  -2   8   70.89   10.30
  -9  -2  -8   59.19   11.20
   9   2   8   63.19    7.90
  -9   2  -8   58.19    9.60
  -9   2  -8   69.09    7.90
   9   2   8   69.09    8.10
   9  -3  -8    2.00    2.90
  -9  -3   8    1.60    8.00
  -9  -3   8    4.80    7.20
   9  -3  -8   -1.40    3.30
  -9   3   8   -4.10    7.20
   9   3  -8   -4.00    3.30
   8  -3  -8   14.30    3.80
   8  -3  -8   14.10    3.30
  -8  -3   8   28.10    8.50
  -8  -3   8   26.50    7.80
  -8   3   8   26.10    8.20
   8   3  -8   11.80    3.70
  -7  -3   8    7.40    6.80
  -7  -3   8   -3.00    4.60
   7  -3  -8    0.60    2.70
   7  -3  -8    4.90    2.30
   7   3  -8    1.70    2.70
  -7   3   8    5.60    7.00
  -6  -3   8    6.50    4.70
   6  -3  -8    6.80    2.80
  -6  -3   8   12.80    6.40
   6   3  -8   11.90    3.10
  -6   3   8   18.70    7.00
  -6   3   8   10.20    3.10
   5  -3  -8   94.89    8.50
  -5  -3   8   94.59   11.60
  -5  -3   8   92.19    9.90
  -5   3   8   96.29    8.60
  -5   3   8  104.89   12.80
   5   3  -8   97.49    8.10
  -4  -3   8   22.20    5.40
  -4  -3   8   16.70    4.20
   4  -3  -8   23.50    4.00
  -4   3   8   16.90    3.40
   4   3  -8   18.10    3.00
  -4   3   8   18.00    6.00
  -3  -3   8    1.20    3.30
   3  -3  -8    4.10    2.40
   3  -3  -8    7.30    2.20
  -3  -3   8   -1.00    2.50
   3   3  -8    3.50    2.00
  -3   3   8    1.90    4.10
   3   3  -8    4.30    1.00
  -3   3   8    2.50    2.00
   2  -3  -8   21.10    3.40
  -2  -3   8   21.00    3.60
  -2  -3   8   13.40    3.60
  -2  -3   8   14.80    2.40
   2  -3  -8   19.40    3.30
   2   3  -8   15.50    2.50
  -2   3   8   13.00    2.60
  -2   3   8   22.00    4.40
  -1  -3   8   19.00    3.70
  -1  -3   8   21.20    3.00
   1  -3  -8   14.00    2.80
   1  -3  -8   23.20    3.70
   1   3  -8   27.20    3.70
   1   3  -8   20.50    2.80
  -1   3   8   23.30    3.90
  -1   3   8   17.10    2.60
   0  -3  -8   32.20    4.30
   0  -3  -8   37.00    5.30
   0  -3   8   37.20    4.00
   0  -3   8   34.10    5.10
   0   3  -8   43.80    3.60
   0   3   8   46.70    4.60
   0   3   8   29.80    3.90
  -1  -3  -8   42.50    5.20
   1  -3   8   54.69    5.20
  -1  -3  -8   43.30    6.30
   1  -3   8   50.49    5.70
   1   3   8   53.79    5.40
   1   3   8   43.70    4.60
   1   3   8   50.79    4.20
  -1   3  -8   46.90    4.70
  -1   3  -8   53.99    4.10
  -2  -3  -8  106.39   10.50
   2  -3   8  106.59    9.10
   2  -3   8  112.09    9.10
  -2  -3  -8  113.19    7.50
  -2   3  -8  125.39    7.60
   2   3   8  104.39    8.90
   2   3   8  103.19    8.30
  -2   3  -8  112.19    8.60
  -3  -3  -8    1.00    3.70
   3  -3   8    2.00    2.10
   3  -3   8    2.40    2.60
  -3   3  -8    0.80    1.50
   3   3   8    0.50    1.80
   3   3   8   -2.80    1.50
   4  -3   8    5.80    3.30
   4  -3   8    7.90    2.70
  -4  -3  -8    4.80    4.00
   4   3   8    9.80    2.90
  -4   3  -8    3.70    1.80
   4   3   8    8.20    2.10
   5  -3   8    5.70    2.60
   5  -3   8    4.60    4.00
  -5  -3  -8    4.60    5.20
  -5   3  -8    2.60    1.80
   5   3   8    1.80    2.60
   5   3   8    2.60    2.30
   6  -3   8   11.60    5.30
  -6  -3  -8   17.80    6.40
   6   3   8   10.10    2.90
  -6   3  -8   15.70    3.80
   6   3   8   16.30    3.50
  -6   3  -8   18.30    2.90
  -7  -3  -8    7.30    6.70
   7  -3   8   18.20    6.50
  -7   3  -8   13.10    4.20
   7   3   8    5.70    2.90
  -7   3  -8   11.20    2.80
   7   3   8   10.50    3.20
   8   3   8   72.39    7.70
  -8   3  -8   64.79    8.20
  -8   3  -8   60.09    6.60
   8   3   8   53.59    7.30
   9  -3   8    7.70    6.50
  -9  -3  -8   11.50    8.80
   9   3   8    5.60    4.00
   9   3   8   10.00    4.20
  -9   3  -8    9.30    4.80
  -9   3  -8    7.10    3.90
   9  -4  -8  241.48   21.60
  -9  -4   8  307.67   26.10
   9  -4  -8  255.97   18.60
  -9  -4   8  234.68   22.40
  -9   4   8  250.97   24.00
   9   4  -8  241.68   18.60
   8  -4  -8   34.00    5.30
  -8  -4   8   40.10   10.30
   8  -4  -8   30.50    7.20
  -8   4   8   32.10   16.40
   8   4  -8   31.30    5.30
  -7  -4   8   85.19   12.50
   7  -4  -8   56.79    6.70
   7  -4  -8   66.29    6.50
  -7  -4   8   37.70    7.60
   7   4  -8   63.39    6.60
  -7   4   8   56.09   10.50
   6  -4  -8  137.59   12.00
  -6  -4   8  202.88   18.20
  -6  -4   8  140.99   13.90
  -6   4   8  178.38   12.70
   6   4  -8  144.29   11.70
  -6   4   8  141.39   16.70
  -5  -4   8   51.89    9.30
  -5  -4   8   45.00    6.70
   5  -4  -8   48.00    6.10
  -5   4   8   52.99    9.40
  -5   4   8   49.00    5.50
   5   4  -8   44.20    5.20
  -4  -4   8 1287.17   81.39
  -4  -4   8 1142.79   82.59
   4  -4  -8 1277.57   81.09
   4   4  -8 1216.18   79.89
  -4   4   8 1235.78   80.19
  -4   4   8 1244.48   83.29
   3  -4  -8   28.10    4.90
  -3  -4   8   20.20    5.70
  -3   4   8   29.40    4.00
   3   4  -8   28.70    3.50
   3   4  -8   31.70    4.30
   2  -4  -8  418.36   30.20
  -2  -4   8  458.75   28.60
  -2  -4   8  414.56   31.10
  -2   4   8  423.56   29.40
   2   4  -8  478.35   30.00
   1  -4  -8  136.09   11.40
  -1  -4   8  139.89   10.00
  -1  -4   8  124.59   11.80
   1   4  -8  147.29    9.90
  -1   4   8  133.09   10.30
   1   4  -8  149.29   10.90
   0  -4   8   39.00    6.00
   0  -4  -8   40.80    5.40
   0  -4  -8   59.19    7.00
   0  -4   8   49.00    5.00
   0   4   8   41.80    4.80
   0   4  -8   50.29    4.10
   0   4   8   60.19    5.70
   0   4  -8   51.49    5.20
   1  -4   8    8.10    2.70
   1  -4   8    1.70    2.40
  -1  -4  -8    0.50    2.40
   1   4   8    1.80    1.70
  -1   4  -8    4.40    2.10
   1   4   8    4.60    1.70
  -1   4  -8    3.50    1.20
  -2  -4  -8  352.76   24.50
   2  -4   8  331.97   24.00
   2  -4   8  357.06   24.00
  -2  -4  -8  333.27   25.40
   2   4   8  339.67   23.30
  -2   4  -8  351.36   23.50
   3  -4   8   64.29    7.10
   3  -4   8   57.39    6.50
  -3  -4  -8   60.29    9.10
   3   4   8   67.89    6.50
  -3   4  -8   62.79    5.80
   3   4   8   57.59    5.70
   4  -4   8  797.92   53.79
  -4  -4  -8  757.62   54.99
   4   4   8  831.72   53.09
  -4   4  -8  794.72   52.29
   4   4   8  811.02   52.39
   5  -4   8   45.70    5.50
   5  -4   8   52.89    8.10
  -5  -4  -8   43.10    8.60
  -5   4  -8   44.40    5.00
   5   4   8   40.10    5.40
   5   4   8   43.70    5.70
  -6  -4  -8  381.26   31.20
   6  -4   8  400.46   29.60
   6   4   8  404.06   27.30
  -6   4  -8  409.66   28.10
   6   4   8  422.06   27.80
  -6   4  -8  374.66   27.00
  -7  -4  -8   -1.30    7.00
   7  -4   8    3.30    5.60
  -7   4  -8    0.00    2.40
   7   4   8    0.40    3.10
   7   4   8    1.70    3.20
  -7   4  -8    3.10    3.30
   8  -4   8    4.90    6.00
  -8  -4  -8    2.20    8.80
   8   4   8   11.30    4.10
  -8   4  -8   12.60    3.50
   8  -5  -8  852.31   58.69
   8  -5  -8  871.51   58.49
  -8  -5   8 1035.70   66.69
  -8  -5   8  804.12   60.79
  -8   5   8  942.41   62.49
   8   5  -8  870.51   58.59
  -7  -5   8   12.00   10.10
  -7  -5   8   14.70    7.00
   7  -5  -8   14.20    3.60
   7   5  -8    9.30    3.20
  -7   5   8    4.00    6.90
  -7   5   8   15.90    4.50
   6  -5  -8  561.34   39.70
  -6  -5   8  670.53   45.90
  -6  -5   8  587.84   41.30
  -6   5   8  573.24   39.60
  -6   5   8  583.04   43.10
   6   5  -8  575.94   39.00
   5  -5  -8  149.19   12.80
  -5  -5   8  177.18   14.00
  -5  -5   8  155.68   18.10
   5   5  -8  154.18   11.50
  -5   5   8  143.79   16.80
   5   5  -8  148.29   11.90
  -5   5   8  149.19   11.90
   4  -5  -8  112.69   10.40
  -4  -5   8  104.09   14.40
   4   5  -8  101.99    8.60
   4   5  -8  111.19    9.40
  -4   5   8  116.09    9.20
  -4   5   8  113.19   14.80
  -3  -5   8  113.19   13.70
   3  -5  -8  132.69   11.70
   3   5  -8  134.19   10.40
   3   5  -8  128.89    9.60
  -3   5   8  123.99    9.90
  -2  -5   8  499.05   38.40
   2  -5  -8  511.65   37.60
   2   5  -8  584.84   36.80
   2   5  -8  557.34   35.70
  -2   5   8  563.64   36.30
   1  -5  -8   -2.00    3.00
  -1  -5   8    3.20    4.00
   1  -5  -8    9.00    3.10
  -1  -5   8    1.70    2.10
   1   5  -8    4.00    1.70
  -1   5   8    5.20    2.20
   1   5  -8    2.50    2.20
  -1   5   8    6.80    5.00
   0  -5   8 3179.68  217.78
   0  -5   8 3403.36  216.38
   0  -5  -8 3204.58  217.68
   0   5  -8 3451.55  216.98
   0   5  -8 3544.25  215.78
   0   5   8 3495.35  216.68
   1  -5   8  202.38   15.90
  -1  -5  -8  258.07   17.80
   1  -5   8  195.88   16.60
  -1  -5  -8  207.68   16.90
   1   5   8  212.48   15.60
  -1   5  -8  242.48   16.00
   2  -5   8  450.05   31.70
  -2  -5  -8  456.15   32.30
  -2  -5  -8  527.25   33.70
   2  -5   8  431.06   31.70
  -2   5  -8  459.25   31.20
   2   5   8  456.25   31.00
   3  -5   8   30.50    5.50
  -3  -5  -8   34.20    7.30
   3  -5   8   32.30    4.90
  -3  -5  -8   26.50    5.10
  -3   5  -8   37.60    4.70
   3   5   8   32.30    4.50
   4  -5   8    7.60    4.60
  -4  -5  -8   13.70    6.20
   4  -5   8   14.30    3.00
   4   5   8   12.10    3.00
  -4   5  -8   10.60    2.80
  -5  -5  -8    6.80    6.80
   5  -5   8   11.20    3.10
   5  -5   8    6.80    5.50
   5   5   8    6.70    3.10
  -5   5  -8    6.30    2.60
   5   5   8   15.60    3.50
  -6  -5  -8  274.97   26.00
   6  -5   8  331.87   21.40
   6  -5   8  281.77   24.00
  -6   5  -8  293.27   21.00
   6   5   8  299.67   21.50
   6   5   8  297.37   21.30
  -7  -5  -8   38.20   11.30
   7  -5   8   51.99    9.20
   7   5   8   50.69    7.50
   7   5   8   52.19    6.50
  -7   5  -8   47.50    6.10
  -7   5  -8   43.80    6.70
  -7  -6   8   72.69   14.70
   7  -6  -8   57.19    7.10
   7   6  -8   41.00    6.00
  -7   6   8   57.79   10.20
  -7   6   8   52.39    7.60
   7   6  -8   53.79    6.50
   6  -6  -8  196.18   15.20
  -6  -6   8  209.48   23.70
   6   6  -8  181.78   13.90
  -6   6   8  162.68   16.90
   6   6  -8  186.88   15.40
  -6   6   8  201.98   19.70
  -5  -6   8  237.28   24.40
   5  -6  -8  237.98   18.10
  -5   6   8  238.18   17.00
   5   6  -8  234.68   16.50
   5   6  -8  211.28   17.00
  -5   6   8  229.38   21.80
   4  -6  -8 2001.60  136.19
  -4  -6   8 2026.40  139.39
  -4   6   8 2246.48  138.29
  -4   6   8 2092.99  134.99
   4   6  -8 2064.49  135.29
   4   6  -8 2133.59  134.59
  -3  -6   8   22.70    7.90
   3  -6  -8    3.40    4.40
  -3   6   8    8.20    2.70
   3   6  -8   -0.70    2.70
  -3   6   8   11.10    7.00
   3   6  -8    1.10    2.10
   2  -6  -8  361.66   28.20
  -2  -6   8  354.56   29.20
  -2   6   8  394.26   26.30
   2   6  -8  385.66   25.50
   2   6  -8  411.76   26.80
   1  -6  -8    2.20    4.10
  -1  -6   8   14.40    4.50
   1   6  -8    7.50    3.00
  -1   6   8   14.40    3.00
  -1   6   8   20.30    7.10
   0  -6   8   13.20    3.50
   0  -6   8    1.50    3.60
   0  -6  -8    8.80    4.30
   0   6   8    6.10    2.70
   0   6  -8   12.50    3.10
  -1  -6  -8   52.89    8.00
  -1  -6  -8   52.49    7.10
   1  -6   8   45.40    6.30
   1  -6   8   48.40    7.10
   1   6   8   43.20    5.30
  -1   6  -8   37.20    5.40
  -2  -6  -8  469.65   32.80
   2  -6   8  421.56   31.50
   2  -6   8  418.66   31.40
  -2  -6  -8  539.55   33.30
   2   6   8  442.36   30.70
  -2   6  -8  451.85   31.00
  -3  -6  -8   24.80    5.90
   3  -6   8   23.10    5.50
  -3  -6  -8   19.10    7.00
   3  -6   8   22.20    4.50
   3   6   8   20.20    3.90
  -3   6  -8   24.90    4.30
  -4  -6  -8 1393.46   94.49
   4  -6   8 1486.95   93.29
  -4  -6  -8 1431.06   95.79
   4  -6   8 1294.77   94.29
   4   6   8 1511.25   92.89
  -4   6  -8 1452.75   92.99
   5  -6   8  578.04   41.60
   5  -6   8  591.44   39.20
  -5  -6  -8  587.34   40.90
  -5  -6  -8  536.75   42.60
   5   6   8  623.54   39.80
  -5   6  -8  558.14   39.30
  -6  -6  -8  782.62   59.29
   6  -6   8  721.53   60.99
   6  -6   8  852.01   55.79
   6   6   8  928.81   55.59
  -6   6  -8  843.12   55.19
   5  -7  -8   11.60    4.90
  -5  -7   8    0.40   10.20
   5   7  -8    1.50    3.60
  -5   7   8   26.00    8.50
  -5   7   8   10.50    3.80
   5   7  -8    9.40    2.90
   4  -7  -8  155.18   14.00
  -4  -7   8  165.18   19.70
  -4   7   8  201.68   18.20
   4   7  -8  153.98   11.80
  -4   7   8  149.59   12.40
   4   7  -8  139.49   12.60
   3  -7  -8   99.59   11.00
  -3  -7   8  100.59   15.20
  -3   7   8  104.79    9.90
   3   7  -8  100.09    8.50
   3   7  -8  115.49   13.20
  -2  -7   8   55.99   11.50
   2  -7  -8   42.80    9.50
  -2   7   8  105.79   13.70
  -2   7   8   74.19    7.00
   2   7  -8   57.89    7.50
   1  -7  -8   43.30    8.40
  -1  -7   8   38.00    7.30
  -1   7   8   41.20    5.60
   1   7  -8   31.10    5.10
   0  -7  -8 1330.47   91.29
   0  -7   8 1363.16   90.89
   0   7  -8 1363.96   89.39
   0   7   8 1408.26   88.99
   1  -7   8  385.86   27.90
  -1  -7  -8  413.66   27.70
  -1  -7  -8  401.16   29.20
   1  -7   8  343.27   26.60
   1   7   8  368.16   26.30
  -1   7  -8  385.86   26.80
   2  -7   8  192.78   16.70
  -2  -7  -8  228.78   17.80
  -2  -7  -8  201.68   18.40
   2  -7   8  201.48   16.40
  -3  -7  -8    9.10    6.10
  -3  -7  -8    8.30    6.30
   3  -7   8   11.30    6.20
  -3   7  -8    0.60    3.10
   3   7   8    4.20    3.20
   4  -7   8   11.10    6.40
   4  -7   8    4.10    3.30
  -4  -7  -8    2.90    7.80
  -4  -7  -8   11.20    7.30
  -4   7  -8    6.50    3.30
   4   7   8   11.80    3.70
   5  -7   8   -3.10    3.10
  -5  -7  -8   -1.20    7.60
  -5  -7  -8  -11.50    6.50
  -5   7  -8    1.50    3.10
   5   7   8    7.80    3.60
   2  -8  -8   19.00    7.10
  -2  -8   8   24.40    7.50
  -2   8   8   22.90    4.30
   2   8  -8   23.10    4.80
  -1  -8   8   27.20    7.20
   1  -8  -8   17.70    8.20
  -1   8   8   20.50    4.20
   1   8  -8   15.50    4.80
   0  -8  -8    9.30    7.50
   0  -8   8   -7.30    4.90
   0   8  -8    2.70    3.70
   0   8   8    4.30    3.00
   1  -8   8   45.10    7.50
  -1  -8  -8   50.39    9.80
   1   8   8   44.00    6.00
  -1   8  -8   49.40    7.40
  -2  -8  -8    7.50    7.30
  -2  -8  -8   13.70    7.00
  -2   8  -8   10.50    3.90
  -9   0   9    2.60    8.90
   9   0  -9   -1.30    3.80
   8   0  -9   -1.80    3.20
  -8   0   9    3.50    8.00
   7   0  -9    5.40    3.00
  -7   0   9    1.50    6.80
   7   0  -9    5.00    2.10
   6   0  -9    1.80    2.00
   6   0  -9   -0.60    2.80
  -6   0   9    9.20    6.20
  -6   0   9    2.20    3.10
   5   0  -9    3.40    2.20
  -5   0   9    5.30    2.90
   5   0  -9    3.20    2.10
  -5   0   9    6.20    4.80
   4   0  -9    1.20    2.30
   4   0  -9    0.30    1.60
  -4   0   9   -1.80    3.40
  -4   0   9   -0.20    2.40
   3   0  -9    1.50    1.40
   3   0  -9   -0.30    2.00
  -3   0   9   -1.80    2.50
  -3   0   9    9.50    2.60
  -2   0   9    4.10    2.20
   2   0  -9   -0.80    1.30
  -2   0   9    0.40    2.00
  -2   0   9   -0.80    2.20
  -1   0   9    5.40    2.10
  -1   0   9   -1.80    2.20
  -1   0   9    0.40    1.70
   0   0   9    0.10    1.70
   0   0   9    1.60    1.60
   0   0   9    1.40    2.00
  -1   0  -9    4.60    1.60
   1   0   9    1.60    1.80
   1   0   9    2.30    1.80
   1   0   9    4.00    1.70
   2   0   9    2.10    1.70
  -2   0  -9    0.90    1.30
   2   0   9   -0.10    1.80
  -2   0  -9    0.70    2.00
   4   0   9   -1.00    2.50
   4   0   9   -1.10    1.90
  -4   0  -9    1.30    1.30
  -4   0  -9    8.60    3.00
   6   0   9    2.60    2.60
  -6   0  -9    3.40    3.30
  -6   0  -9    1.00    1.80
   6   0   9    1.90    3.20
  -7   0  -9    0.80    4.40
   7   0   9    2.40    3.30
  -8   0  -9    7.40    8.40
   8   0   9    7.70    7.50
  -9   0  -9   41.10    9.20
  -9  -1   9  295.87   27.20
   9  -1  -9  281.47   20.90
   9   1  -9  270.67   20.80
  -9   1   9  291.37   27.50
   8  -1  -9   29.10    4.50
   8  -1  -9   30.10    4.70
  -8  -1   9   29.10    9.30
  -8   1   9   34.80   10.40
   8   1  -9   35.30    5.60
   7  -1  -9  143.79   11.30
  -7  -1   9  137.09   16.40
  -7  -1   9  169.38   14.00
   7  -1  -9  155.48   12.60
   7   1  -9  162.78   12.70
  -7   1   9  181.38   18.40
   6  -1  -9  222.38   16.50
  -6  -1   9  224.68   20.00
   6  -1  -9  226.88   17.20
  -6  -1   9  260.17   18.10
  -6   1   9  245.78   21.50
   6   1  -9  240.38   17.20
  -5  -1   9  178.88   14.80
   5  -1  -9  184.48   13.50
  -5  -1   9  148.69   15.50
  -5   1   9  186.88   13.00
   5   1  -9  210.68   13.10
   5   1  -9  184.48   13.80
  -5   1   9  180.38   17.20
  -4  -1   9   59.39    7.90
   4  -1  -9   63.79    5.90
   4  -1  -9   56.39    6.30
   4   1  -9   65.39    6.30
  -4   1   9   56.19    6.90
  -4   1   9   61.59    5.60
   4   1  -9   69.79    5.40
  -4   1   9   62.59    9.00
  -3  -1   9  250.47   19.50
   3  -1  -9  269.47   18.20
   3   1  -9  271.17   18.40
   3   1  -9  281.97   17.70
  -3   1   9  255.77   17.90
  -3   1   9  246.68   18.70
  -3   1   9  268.37   19.80
  -2  -1   9    0.50    1.50
  -2  -1   9    7.30    2.90
   2  -1  -9    4.40    1.80
  -2  -1   9    2.50    2.30
  -2   1   9    2.30    1.70
  -2   1   9    2.50    2.10
  -2   1   9    2.00    2.60
   2   1  -9   -0.20    2.00
   1  -1  -9 1515.45   97.99
  -1  -1   9 1572.44   97.79
   1  -1  -9 1546.35   97.89
  -1  -1   9 1467.75   98.39
  -1  -1   9 1400.56   98.19
  -1   1   9 1422.66   97.89
  -1   1   9 1625.94   98.39
   1   1  -9 1604.24   97.89
   0  -1   9   24.70    3.50
   0  -1   9   26.70    4.10
   0  -1  -9   26.80    3.60
   0  -1   9   24.70    3.50
   0   1   9   22.70    3.40
   0   1  -9   27.70    3.60
   0   1   9   25.00    3.40
   0   1   9   20.00    3.10
   1  -1   9  292.37   18.20
  -1  -1  -9  260.57   18.50
   1  -1   9  250.97   18.60
   1  -1   9  246.68   18.20
  -1  -1  -9  285.07   17.80
   1   1   9  251.57   18.40
   2  -1   9   34.70    3.80
   2  -1   9   27.60    4.10
  -2  -1  -9   31.90    4.60
  -2  -1  -9   33.30    3.10
   2  -1   9   31.20    4.60
   2   1   9   29.70    4.00
  -2   1  -9   27.60    3.80
   3  -1   9  101.19    7.10
  -3  -1  -9   89.19    6.40
   3  -1   9   82.59    7.60
  -3  -1  -9   93.89    8.20
  -3   1  -9   88.49    8.10
  -3   1  -9   83.29    6.80
   3   1   9   79.69    7.60
  -4  -1  -9   30.10    4.70
   4  -1   9   27.00    3.60
  -4  -1  -9   27.10    2.80
   4  -1   9   26.00    4.30
  -4   1  -9   20.20    3.80
   4   1   9   21.20    4.00
  -5  -1  -9  545.95   38.10
  -5  -1  -9  601.44   35.80
   5  -1   9  544.55   37.80
   5   1   9  547.55   36.20
   5   1   9  552.84   37.50
  -5   1  -9  512.45   36.00
  -5   1  -9  546.55   37.60
  -6  -1  -9   91.09   10.20
   6  -1   9   89.09    9.70
  -6   1  -9   84.49    7.10
   6   1   9   88.69    8.70
   6   1   9   95.29    7.60
  -6   1  -9   99.29    9.40
   7  -1   9  308.97   23.10
  -7  -1  -9  284.17   23.60
  -7   1  -9  289.07   22.30
  -7   1  -9  306.87   20.40
   7   1   9  283.27   20.50
   7   1   9  322.87   22.50
   8  -1   9   54.99   12.80
  -8  -1  -9   54.79   14.90
  -9  -1  -9  139.29   16.50
   9  -1   9  156.08   15.40
   9   1   9  158.98   14.30
  -9   1  -9  151.68   15.60
   9  -2  -9  288.97   21.10
  -9  -2   9  279.47   26.60
   9  -2  -9  276.37   20.00
   9   2  -9  310.07   21.10
  -9   2   9  275.07   26.50
   8  -2  -9   53.99    6.10
   8  -2  -9   63.69    8.10
  -8  -2   9   63.09   10.10
  -8  -2   9   79.79   13.00
   8   2  -9   70.89    7.90
  -8   2   9   71.39   12.60
  -7  -2   9  375.36   28.60
  -7  -2   9  414.96   28.30
   7  -2  -9  345.77   25.40
   7  -2  -9  334.57   24.70
  -7   2   9  343.97   30.40
   7   2  -9  381.46   25.60
   6  -2  -9   34.70    4.80
  -6  -2   9   40.30    7.00
   6  -2  -9   33.50    4.80
  -6  -2   9   37.90    7.20
  -6   2   9   29.50    8.30
  -5  -2   9 2481.75  154.58
   5  -2  -9 2519.25  153.48
  -5  -2   9 2248.97  154.98
  -5   2   9 2105.39  153.58
   5   2  -9 2406.86  153.28
  -5   2   9 2537.65  156.68
  -4  -2   9   23.80    4.50
   4  -2  -9   20.60    3.60
   4  -2  -9   22.20    3.00
  -4  -2   9   18.50    4.50
   4   2  -9   26.50    3.10
  -4   2   9   20.90    4.00
  -4   2   9   13.10    5.40
   4   2  -9   29.60    4.00
   3  -2  -9  510.25   33.90
  -3  -2   9  490.25   34.70
   3  -2  -9  506.95   33.10
  -3  -2   9  483.05   34.60
  -3   2   9  469.55   33.80
  -3   2   9  523.35   35.60
   3   2  -9  510.05   33.60
   3   2  -9  551.64   32.90
   2  -2  -9   49.70    4.50
  -2  -2   9   47.10    5.70
  -2  -2   9   45.50    5.90
  -2  -2   9   47.20    4.40
   2  -2  -9   47.60    5.00
   2   2  -9   52.49    4.80
  -2   2   9   39.40    5.80
  -2   2   9   48.90    5.10
  -1  -2   9  531.15   37.50
  -1  -2   9  582.04   36.60
   1  -2  -9  565.14   37.10
  -1  -2   9  538.95   37.20
   1  -2  -9  557.04   36.70
  -1   2   9  522.45   36.70
   1   2  -9  582.74   37.10
  -1   2   9  587.14   37.30
   1   2  -9  551.34   36.60
   0  -2  -9  194.38   14.30
   0  -2   9  183.28   14.50
   0  -2   9  199.38   13.90
   0  -2  -9  205.98   14.10
   0   2  -9  199.58   14.10
   0   2   9  175.78   13.70
   0   2  -9  197.88   13.50
   0   2   9  202.08   14.40
   0   2   9  208.48   13.90
  -1  -2  -9  867.01   58.09
   1  -2   9  863.11   57.89
   1  -2   9  896.71   58.49
   1   2   9  872.81   57.59
  -1   2  -9  890.81   57.19
   1   2   9  905.21   57.19
  -1   2  -9  911.11   57.79
   1   2   9  887.71   58.19
  -2  -2  -9   59.29    4.50
  -2  -2  -9   56.59    6.50
   2  -2   9   56.09    6.20
   2  -2   9   66.19    5.90
   2   2   9   61.49    5.90
  -2   2  -9   53.79    5.30
   2   2   9   60.59    5.40
  -2   2  -9   62.09    4.80
  -3  -2  -9 2440.36  159.88
  -3  -2  -9 2637.64  157.78
   3  -2   9 2467.55  159.48
   3  -2   9 2493.55  159.38
   3   2   9 2337.07  159.28
   3   2   9 2528.25  158.68
  -3   2  -9 2573.54  157.88
  -3   2  -9 2312.07  158.48
  -4  -2  -9  318.17   23.60
   4  -2   9  340.57   22.70
   4  -2   9  330.17   23.10
   4   2   9  323.77   21.80
  -4   2  -9  308.37   21.60
  -4   2  -9  325.17   22.90
   4   2   9  303.87   22.40
  -5  -2  -9  665.03   47.60
   5  -2   9  718.23   47.10
   5   2   9  690.43   46.30
  -5   2  -9  672.33   45.10
  -5   2  -9  698.13   46.60
   5   2   9  702.13   45.30
   6  -2   9    2.50    4.00
  -6  -2  -9    2.80    5.30
  -6   2  -9    0.40    1.80
   6   2   9    2.00    3.00
  -6   2  -9    1.20    3.20
   6   2   9    2.60    2.40
  -7  -2  -9   40.10    8.60
   7  -2   9   39.00    6.70
   7   2   9   42.20    7.00
  -7   2  -9   49.10    5.50
   7   2   9   64.09    6.20
  -7   2  -9   48.10    7.60
   8  -2   9   43.00    7.60
  -8  -2  -9   41.60   10.00
   8   2   9   43.00    6.60
  -8   2  -9   42.60    6.00
  -8   2  -9   39.00    7.20
   8   2   9   36.60    5.50
  -9  -2  -9  501.05   40.50
   9  -2   9  590.04   38.90
  -9   2  -9  503.55   37.80
   9   2   9  521.55   37.20
   9  -3  -9  784.92   52.49
  -9  -3   9  761.62   56.69
   9   3  -9  806.52   52.69
   8  -3  -9   46.70    6.50
  -8  -3   9   63.69   10.70
  -8  -3   9   55.49   10.10
   8  -3  -9   42.90    5.60
   8   3  -9   51.39    6.90
  -8   3   9   51.99   11.80
  -7  -3   9  443.96   30.70
  -7  -3   9  382.96   29.20
   7  -3  -9  381.76   26.10
   7  -3  -9  346.87   25.60
  -7   3   9  323.07   30.60
   7   3  -9  382.16   26.10
   6  -3  -9  424.26   30.60
  -6  -3   9  435.16   32.80
  -6  -3   9  505.75   34.40
   6   3  -9  448.76   30.70
  -6   3   9  456.15   31.40
  -6   3   9  453.15   35.60
  -5  -3   9  722.13   49.99
  -5  -3   9  678.33   49.20
   5  -3  -9  729.73   48.00
   5   3  -9  721.63   47.50
  -5   3   9  719.43   48.10
  -5   3   9  754.42   51.69
  -4  -3   9  137.19   12.40
  -4  -3   9  143.89   13.40
   4  -3  -9  138.99   11.70
  -4   3   9  145.49   11.30
  -4   3   9  153.18   15.10
   4   3  -9  144.69   10.90
  -3  -3   9  664.13   46.70
  -3  -3   9  667.23   47.20
   3  -3  -9  700.93   46.30
   3   3  -9  628.24   45.50
   3   3  -9  775.12   44.80
  -3   3   9  641.24   45.80
  -3   3   9  794.62   48.30
   2  -3  -9    5.30    2.80
   2  -3  -9    1.30    2.30
  -2  -3   9    2.30    2.40
  -2  -3   9    2.60    1.60
  -2  -3   9    3.30    3.30
  -2   3   9    3.10    2.00
   2   3  -9    8.60    2.20
   2   3  -9   -0.50    1.80
  -2   3   9    6.80    3.60
  -1  -3   9 3558.24  218.68
   1  -3  -9 3404.06  219.68
  -1  -3   9 3179.78  220.08
   1  -3  -9 3436.36  219.38
  -1   3   9 3807.32  219.78
   1   3  -9 3069.09  218.58
   1   3  -9 3604.14  219.48
  -1   3   9 3325.17  219.08
   0  -3   9  176.88   14.10
   0  -3  -9  176.78   13.70
   0  -3  -9  175.78   14.10
   0  -3   9  195.78   13.20
   0   3  -9  177.48   12.60
   0   3   9  193.48   13.30
   0   3  -9  199.68   13.70
   0   3   9  181.58   13.20
   1  -3   9  589.84   40.60
  -1  -3  -9  587.04   40.40
   1  -3   9  599.24   39.90
  -1  -3  -9  560.64   40.60
   1   3   9  620.04   39.10
   1   3   9  604.34   40.40
  -1   3  -9  637.04   39.90
   1   3   9  609.14   39.80
  -1   3  -9  610.14   39.00
  -2  -3  -9   10.10    3.70
   2  -3   9    0.80    2.50
   2  -3   9    0.90    2.40
  -2  -3  -9    1.70    1.00
  -2   3  -9    2.50    1.80
   2   3   9    1.90    2.20
   2   3   9    2.80    2.00
  -2   3  -9    2.00    1.30
   3  -3   9   82.59    7.60
   3  -3   9   88.19    8.10
  -3  -3  -9   72.79    9.50
   3   3   9   74.99    7.30
  -3   3  -9   80.39    6.80
   3   3   9   70.59    6.60
   4  -3   9   48.30    6.90
  -4  -3  -9   48.80    7.90
   4  -3   9   52.69    6.00
  -4   3  -9   47.70    5.10
   4   3   9   51.39    5.90
   4   3   9   49.40    5.40
  -5  -3  -9 1030.20   72.79
   5  -3   9 1155.48   71.99
   5  -3   9 1118.49   70.79
   5   3   9 1086.19   70.89
  -5   3  -9 1079.49   71.19
   5   3   9 1041.70   69.99
  -5   3  -9 1035.20   69.89
   6  -3   9   55.69    9.30
  -6  -3  -9   59.29   10.00
  -6   3  -9   53.59    5.70
   6   3   9   79.39    6.80
   6   3   9   78.79    7.70
  -6   3  -9   58.29    7.10
   7  -3   9 1022.60   68.89
  -7  -3  -9 1000.70   70.39
  -7   3  -9 1024.20   67.69
   7   3   9  986.50   66.49
  -7   3  -9  995.30   66.29
   7   3   9 1074.59   67.59
  -8  -3  -9  454.65   36.70
   8  -3   9  479.45   35.00
  -8   3  -9  469.75   33.20
   8   3   9  485.35   33.00
   8   3   9  451.45   32.10
  -8   3  -9  468.55   31.70
  -8  -4   9   84.29   13.20
  -8  -4   9   48.60   10.00
   8  -4  -9   68.49    7.60
   8  -4  -9   57.79    6.70
  -8   4   9   81.99   12.80
   8   4  -9   64.19    7.40
   7  -4  -9  227.48   18.50
  -7  -4   9  318.97   25.40
  -7   4   9  300.47   25.60
   7   4  -9  250.57   18.70
  -6  -4   9  176.78   18.80
  -6  -4   9  163.88   14.70
   6  -4  -9  148.99   12.70
  -6   4   9  172.18   19.30
  -6   4   9  169.08   13.30
   6   4  -9  157.08   12.40
   5  -4  -9 1292.37   86.09
  -5  -4   9 1269.67   86.99
  -5  -4   9 1379.96   89.39
  -5   4   9 1249.38   85.69
   5   4  -9 1302.37   85.29
  -5   4   9 1419.96   89.89
  -4  -4   9    1.50    5.90
   4  -4  -9   -0.90    3.20
  -4  -4   9    0.90    3.70
  -4   4   9   -3.20    2.30
  -4   4   9   -8.80    6.40
   4   4  -9   -0.80    2.10
   3  -4  -9  186.98   15.40
  -3  -4   9  247.08   18.20
   3   4  -9  185.48   14.20
  -3   4   9  210.28   14.80
   3   4  -9  186.58   14.90
  -3   4   9  229.98   18.80
  -2  -4   9   72.59    7.00
  -2  -4   9   77.09    9.30
   2  -4  -9   68.69    7.50
  -2   4   9   82.19    9.90
  -2   4   9   65.19    6.50
   2   4  -9   69.69    6.10
   2   4  -9   76.59    7.00
  -1  -4   9  352.76   23.40
  -1  -4   9  327.47   25.40
   1  -4  -9  318.97   24.70
  -1   4   9  334.67   23.90
  -1   4   9  416.36   25.20
   1   4  -9  347.87   23.30
   1   4  -9  360.86   24.40
   0  -4   9  161.48   14.80
   0  -4  -9  176.98   14.80
   0  -4   9  192.28   13.80
   0  -4  -9  235.18   15.80
   0   4   9  224.18   14.30
   0   4   9  183.48   14.00
   0   4  -9  191.68   14.20
   0   4  -9  188.68   13.20
   1  -4   9  472.35   29.80
  -1  -4  -9  452.45   31.00
  -1  -4  -9  407.76   30.40
   1  -4   9  405.36   30.30
  -1   4  -9  477.75   28.50
   1   4   9  425.06   29.50
  -1   4  -9  424.56   29.70
   2  -4   9   30.80    5.10
  -2  -4  -9   32.40    5.60
   2  -4   9   35.80    5.70
  -2  -4  -9   31.70    6.40
   2   4   9   31.20    4.40
  -2   4  -9   35.40    4.80
  -3  -4  -9 1319.17   95.99
   3  -4   9 1447.46   94.89
   3  -4   9 1509.35   95.09
   3   4   9 1473.75   94.09
   3   4   9 1540.25   94.89
  -3   4  -9 1435.06   94.09
   4  -4   9  353.86   25.00
  -4  -4  -9  339.87   26.50
   4  -4   9  340.97   24.00
   4   4   9  343.47   24.00
  -4   4  -9  334.07   23.30
   4   4   9  329.87   23.40
   5  -4   9  456.95   30.70
   5  -4   9  459.95   32.20
  -5  -4  -9  394.06   33.50
   5   4   9  436.06   30.10
   5   4   9  461.45   30.80
  -5   4  -9  451.85   30.10
   6  -4   9   10.00    5.40
  -6  -4  -9   13.40    7.30
   6   4   9   10.50    3.50
  -6   4  -9   13.20    4.30
  -6   4  -9    8.80    2.90
   6   4   9   11.20    3.20
  -7  -4  -9   14.80    8.10
   7  -4   9    4.50    6.10
   7   4   9    9.60    4.10
  -7   4  -9    5.40    3.00
  -7   4  -9   12.90    4.70
   7   4   9    6.30    4.00
   7  -5  -9    6.40    3.40
  -7  -5   9    9.50    5.70
  -7  -5   9  -10.40   16.00
   7   5  -9    7.30    3.20
  -7   5   9    6.10    8.10
  -7   5   9    7.50    4.30
   6  -5  -9    9.70    3.90
  -6  -5   9   22.50   10.70
   6   5  -9   10.50    3.10
  -6   5   9    3.40    8.60
  -5  -5   9  179.48   20.00
   5  -5  -9  156.78   13.50
  -5   5   9  159.38   13.00
   5   5  -9  162.18   12.80
   5   5  -9  160.58   12.10
  -5   5   9  169.48   18.90
   4  -5  -9   72.99    8.60
  -4  -5   9   70.89   11.20
   4   5  -9   66.69    6.30
  -4   5   9   68.29    7.20
   4   5  -9   67.39    7.10
  -4   5   9   80.79   11.90
  -3  -5   9   58.09    9.50
   3  -5  -9   50.59    7.30
   3   5  -9   55.39    5.50
  -3   5   9   64.39   10.50
  -3   5   9   55.79    6.10
   3   5  -9   64.19    6.70
   2  -5  -9   66.79    8.60
  -2  -5   9   81.69   10.60
  -2   5   9   75.09    7.10
   2   5  -9   71.49    6.30
  -2   5   9   91.69   12.00
   2   5  -9   82.09    7.80
  -1  -5   9  304.57   24.60
   1  -5  -9  316.87   23.80
  -1   5   9  341.67   22.70
   1   5  -9  314.37   21.80
   1   5  -9  350.76   23.10
   0  -5   9   69.59    6.70
   0  -5  -9   65.89    7.80
   0  -5   9   67.39    8.70
   0   5   9   67.69    6.40
   0   5  -9   67.29    5.60
   0   5  -9   65.99    7.10
  -1  -5  -9   11.00    3.60
   1  -5   9   12.60    3.90
   1  -5   9   13.80    3.30
  -1  -5  -9   17.00    5.30
   1   5   9   11.40    3.00
  -1   5  -9   10.20    3.00
  -2  -5  -9    5.40    3.80
  -2  -5  -9    4.60    5.40
   2  -5   9    2.60    2.90
   2  -5   9    4.40    3.60
  -2   5  -9    1.20    2.50
   2   5   9    2.10    2.50
  -3  -5  -9   31.40    5.80
   3  -5   9   31.90    5.20
  -3  -5  -9   28.90    7.50
   3  -5   9   35.60    6.00
  -3   5  -9   20.50    3.80
   3   5   9   29.30    4.30
  -4  -5  -9   41.80    8.60
   4  -5   9   35.70    5.50
   4  -5   9   38.30    6.90
  -4  -5  -9   33.80    6.20
   4   5   9   39.60    5.50
  -4   5  -9   34.70    5.20
  -5  -5  -9   42.80   10.10
   5  -5   9   54.99    6.60
   5  -5   9   55.79    8.80
   5   5   9   50.19    6.80
   5   5   9   57.59    6.50
  -5   5  -9   46.90    5.90
  -6  -5  -9    8.80   14.70
   6  -5   9    0.30    3.00
   6  -5   9    2.50    7.10
  -6   5  -9    1.40    2.70
   6   5   9    2.10    3.80
   6   5   9    6.70    3.30
   7  -5   9   45.40    9.30
  -7  -5  -9   34.30   11.00
  -7   5  -9   31.00    5.90
   7   5   9   26.70    5.60
   7   5   9   33.20    5.50
  -7   5  -9   33.30    4.90
  -6  -6   9    3.20   11.10
  -6   6   9   15.20    4.30
   6   6  -9   14.00    4.00
  -6   6   9   -9.20   11.90
  -5  -6   9  150.58   20.50
   5  -6  -9  132.39   12.00
   5   6  -9  114.39   10.90
  -5   6   9  125.09   10.90
   5   6  -9  113.39   10.00
  -5   6   9  151.98   18.10
  -4  -6   9   36.90   12.00
   4   6  -9   31.90    4.20
   4   6  -9   26.80    6.30
  -4   6   9   34.80   10.10
  -4   6   9   27.60    7.00
   3  -6  -9   31.20    7.00
  -3  -6   9   59.79   10.50
  -3   6   9   40.60    6.00
   3   6  -9   40.60    5.00
  -3   6   9   66.59   11.80
   3   6  -9   39.40    5.70
  -2  -6   9   38.60    8.20
   2  -6  -9   29.60    6.70
   2   6  -9   29.00    3.70
  -2   6   9   49.99    9.40
  -2   6   9   31.10    4.60
   2   6  -9   31.30    5.00
  -1  -6   9   -0.10    5.70
   1  -6  -9    7.40    4.60
   0  -6  -9    7.50    5.10
   0  -6   9    3.20    3.90
   0  -6  -9   -0.40    4.10
   0   6   9    0.20    2.70
   0   6  -9    2.90    2.90
  -1  -6  -9   49.90    7.20
   1  -6   9   43.90    6.70
  -1  -6  -9   40.10    6.90
   1  -6   9   38.20    6.20
   1   6   9   46.30    5.70
  -1   6  -9   35.00    5.40
  -2  -6  -9   80.89   10.50
  -2  -6  -9   78.49   11.40
   2  -6   9   79.89    9.50
   2  -6   9   76.19    9.00
   2   6   9   83.39    7.90
  -2   6  -9   84.49    8.20
   3  -6   9   52.69    7.70
   3  -6   9   71.39    9.00
  -3  -6  -9   59.29    9.40
  -3  -6  -9   75.79   11.30
   3   6   9   59.39    6.90
  -3   6  -9   56.99    7.00
  -4  -6  -9   23.40    9.50
  -4  -6  -9   22.60    7.70
   4  -6   9   21.40    6.40
  -5  -6  -9   33.70    9.10
  -5  -6  -9   37.30    7.50
   5  -6   9   34.30    5.30
   5  -6   9   40.10    8.50
  -5   6  -9   29.70    4.90
   5   6   9   55.79    6.50
  -4  -7   9   64.09   14.00
   4  -7  -9   46.80    8.10
   4   7  -9   48.30    7.40
  -4   7   9   42.40    6.20
   4   7  -9   50.09    5.80
  -4   7   9   68.79   12.40
   3  -7  -9  199.18   18.10
  -3  -7   9  207.68   22.00
   3   7  -9  219.58   16.30
  -3   7   9  196.98   15.60
   3   7  -9  206.48   14.90
   2  -7  -9   13.00    6.50
  -2  -7   9   29.50    8.10
  -2   7   9   19.10    4.40
   2   7  -9   16.80    4.40
   1  -7  -9  763.32   54.59
  -1  -7   9  743.03   54.59
   1   7  -9  815.32   52.59
  -1   7   9  801.92   52.09
   0  -7  -9    6.40    6.10
   0  -7   9   -2.40    5.20
   0   7  -9    7.90    4.30
   0   7   9    9.00    3.60
   1  -7   9   95.69   11.80
  -1  -7  -9  101.39   12.70
  -1   7  -9  117.49   10.60
   1   7   9  131.69   10.30
   2  -7   9   16.80    5.10
  -2  -7  -9   16.50    6.30
   2  -7   9   13.60    5.30
  -2  -7  -9   11.20    6.50
  -2   7  -9   11.00    3.80
   2   7   9   15.00    3.70
   3  -7   9   25.80    6.80
  -3  -7  -9   24.60    7.10
  -3  -7  -9   31.60    7.70
   3   7   9   30.10    4.80
  -3   7  -9   22.60    4.70
   9   0 -10   54.79    7.40
  -9   0  10   60.29   14.30
   8   0 -10  707.23   49.40
  -8   0  10  773.82   55.39
   7   0 -10    5.00    3.10
  -7   0  10   15.70    8.60
   6   0 -10 1317.77   87.69
  -6   0  10 1375.36   91.19
   5   0 -10   73.09    7.30
  -5   0  10   75.19    7.80
  -5   0  10   64.99    9.60
  -4   0  10  255.47   21.80
   4   0 -10  282.77   20.20
  -4   0  10  311.77   20.20
  -3   0  10   38.30    5.80
   3   0 -10   41.90    5.00
   3   0 -10   43.20    4.80
  -3   0  10   38.90    6.00
  -2   0  10 1129.39   70.99
   2   0 -10 1141.19   70.19
  -2   0  10 1092.69   71.19
  -2   0  10  968.60   71.19
  -1   0  10  440.56   29.70
  -1   0  10  431.86   29.70
  -1   0  10  429.06   29.70
  -1   0  10  457.25   29.50
   0   0  10 1001.60   66.59
   0   0  10 1003.70   66.49
   0   0  10 1031.10   66.49
   0   0  10 1048.90   66.39
  -1   0 -10  124.29    9.70
   1   0  10  113.19    9.30
  -2   0 -10 3280.27  211.78
   2   0  10 3228.88  211.48
   2   0  10 3394.16  210.98
  -2   0 -10 3286.27  210.68
   3   0  10  623.64   39.80
  -3   0 -10  611.64   40.90
   3   0  10  587.94   40.60
  -3   0 -10  601.74   39.50
  -4   0 -10  401.26   27.60
   4   0  10  401.76   29.10
   4   0  10  445.86   28.10
  -4   0 -10  432.76   29.50
   5   0  10   -1.00    2.60
   5   0  10    0.70    3.20
  -5   0 -10    4.30    1.70
  -5   0 -10    8.50    3.80
  -6   0 -10  202.08   16.50
   6   0  10  202.68   16.50
  -7   0 -10   -1.90    5.00
   7   0  10    1.10    4.50
  -8   0 -10 1174.48   82.39
   8   0  10 1270.77   81.99
  -8  -1  10  166.28   19.70
   8  -1 -10  143.49   13.00
  -8   1  10  153.28   20.90
   8   1 -10  164.88   13.20
   7  -1 -10  393.56   28.10
  -7  -1  10  407.16   33.30
   7  -1 -10  415.36   29.20
  -7   1  10  426.66   34.90
   7   1 -10  459.95   29.50
  -6  -1  10  813.72   63.79
   6  -1 -10  903.01   61.49
  -6  -1  10 1035.60   62.19
   6  -1 -10  933.31   60.79
  -6   1  10  973.00   65.69
   6   1 -10  931.11   61.49
   5  -1 -10  127.99   10.40
   5  -1 -10  120.29   10.50
  -5  -1  10  148.99   11.60
  -5  -1  10  111.99   13.10
   5   1 -10  156.68   10.00
  -5   1  10  100.99   14.20
   5   1 -10  124.59   10.60
  -4  -1  10  619.14   44.00
  -4  -1  10  658.23   42.80
   4  -1 -10  586.74   42.40
   4  -1 -10  663.53   42.20
   4   1 -10  669.33   42.50
  -4   1  10  642.94   44.70
  -4   1  10  625.14   41.70
   3  -1 -10   28.60    4.00
  -3  -1  10   31.00    5.00
  -3  -1  10   22.90    4.60
  -3   1  10   26.10    4.00
   3   1 -10   31.50    4.30
  -3   1  10   26.80    5.40
   3   1 -10   29.50    3.40
  -3   1  10   22.20    4.10
   2  -1 -10 2425.76  151.98
  -2  -1  10 2384.56  152.58
   2  -1 -10 2396.56  152.08
  -2  -1  10 2295.07  152.78
  -2   1  10 2261.87  151.78
  -2   1  10 2364.16  152.98
  -2   1  10 2142.19  152.28
   2   1 -10 2649.53  151.78
   2   1 -10 2390.56  152.08
  -1  -1  10    5.10    2.60
  -1  -1  10    3.50    2.30
   1  -1 -10    3.40    2.00
  -1   1  10    2.70    2.30
   1   1 -10    1.80    2.00
  -1   1  10    4.10    2.50
   0  -1  10  109.59    8.20
   0  -1  10  116.49    9.70
   0  -1  10   96.59    8.70
   0  -1 -10  103.89    8.40
   0   1 -10  106.39    8.30
   0   1  10  104.69    8.50
   0   1  10   94.39    8.30
   0   1  10   98.79    8.20
   1  -1  10   35.30    4.90
  -1  -1 -10   37.10    3.80
  -1  -1 -10   29.90    4.40
   1  -1  10   31.40    4.20
   1  -1  10   36.90    4.70
   1   1  10   30.50    4.50
   1   1  10   34.70    4.20
  -1   1 -10   34.10    4.00
   2  -1  10  402.56   24.00
   2  -1  10  334.37   24.30
  -2  -1 -10  346.37   24.50
  -2  -1 -10  357.86   23.30
   2  -1  10  348.67   24.50
   2   1  10  351.56   23.80
   2   1  10  340.07   24.40
  -2   1 -10  342.07   23.60
   3  -1  10  141.59   11.90
   3  -1  10  165.28   11.10
  -3  -1 -10  154.98   12.20
  -3  -1 -10  159.48   10.40
   3   1  10  142.69   11.70
   3   1  10  146.29   11.10
  -3   1 -10  143.89   12.00
  -3   1 -10  140.89   10.70
   4  -1  10 1445.76   92.79
  -4  -1 -10 1501.85   90.89
  -4  -1 -10 1410.86   92.99
   4   1  10 1331.87   92.29
   4   1  10 1497.75   91.59
  -4   1 -10 1318.57   91.09
  -4   1 -10 1415.76   92.79
   5  -1  10  175.18   14.20
  -5  -1 -10  180.38   14.90
  -5   1 -10  159.98   12.10
  -5   1 -10  173.48   14.30
   5   1  10  178.18   12.70
   5   1  10  165.48   13.80
   6  -1  10  523.15   37.80
  -6  -1 -10  518.05   38.20
   6   1  10  563.44   37.60
  -6   1 -10  547.25   37.70
   6   1  10  561.84   36.00
  -6   1 -10  529.65   35.60
   7  -1  10  419.36   34.20
  -7  -1 -10  366.86   33.30
  -7   1 -10  410.76   32.90
   7   1  10  482.85   35.10
  -8  -1 -10  459.45   37.30
   8  -1  10  501.75   36.00
   8   1  10  529.35   35.60
  -8   1 -10  488.65   36.10
   8  -2 -10  155.18   13.10
   8  -2 -10  147.09   12.00
  -8  -2  10  158.58   19.20
  -8  -2  10  214.88   21.70
   8   2 -10  164.18   13.50
  -8   2  10  152.08   21.40
  -7  -2  10   13.20    7.30
   7  -2 -10   29.20    4.60
   7  -2 -10   21.10    3.60
  -7  -2  10   34.20    7.80
   7   2 -10   24.70    4.60
  -7   2  10   33.90   10.60
   6  -2 -10  172.58   14.30
  -6  -2  10  166.78   17.40
  -6  -2  10  212.68   16.90
   6  -2 -10  191.78   14.10
   6   2 -10  193.18   14.60
  -6   2  10  204.08   20.90
   5  -2 -10   20.90    4.00
   5  -2 -10   19.00    4.20
  -5  -2  10   15.00    5.70
  -5  -2  10   25.60    5.40
  -5   2  10   27.60    8.00
   5   2 -10   24.00    3.90
  -5   2  10   23.10    4.90
  -4  -2  10   27.60    5.10
  -4  -2  10   15.30    4.80
   4  -2 -10   23.10    3.90
   4   2 -10   27.30    4.20
  -4   2  10   24.00    6.40
  -4   2  10   14.70    3.60
  -3  -2  10   29.60    5.30
   3  -2 -10   39.20    4.60
  -3  -2  10   31.20    5.20
   3  -2 -10   34.30    4.00
   3   2 -10   37.80    3.60
  -3   2  10   34.60    6.30
  -3   2  10   27.50    4.30
   3   2 -10   38.90    4.50
   2  -2 -10  251.67   17.00
   2  -2 -10  239.08   16.30
  -2  -2  10  234.38   16.10
  -2  -2  10  236.18   17.70
  -2  -2  10  231.58   17.50
  -2   2  10  249.68   17.90
  -2   2  10  214.38   16.70
   2   2 -10  229.88   16.40
   1  -2 -10  121.49   10.30
   1  -2 -10  132.19   10.00
  -1  -2  10  132.59   11.00
  -1  -2  10  135.39    9.80
  -1   2  10  122.39   10.00
   1   2 -10  139.39   10.50
   1   2 -10  138.19    9.80
   0  -2 -10  195.18   14.20
   0  -2  10  175.78   13.50
   0  -2 -10  178.08   13.70
   0  -2  10  183.08   14.60
   0   2  10  214.88   13.80
   0   2 -10  191.58   13.80
   0   2  10  196.48   13.70
   0   2 -10  186.98   13.20
  -1  -2 -10   33.30    4.70
   1  -2  10   32.50    5.20
   1  -2  10   34.70    4.30
  -1   2 -10   31.40    4.10
   1   2  10   27.70    4.50
   1   2  10   27.20    3.60
   1   2  10   26.50    3.40
  -1   2 -10   27.60    3.60
   2  -2  10  637.24   41.40
  -2  -2 -10  631.44   40.10
  -2  -2 -10  611.94   41.70
   2  -2  10  627.44   41.80
  -2   2 -10  635.04   40.20
  -2   2 -10  598.84   40.80
   2   2  10  624.44   40.90
   2   2  10  591.84   41.40
   3  -2  10  169.98   13.30
  -3  -2 -10  169.58   14.00
   3  -2  10  178.88   13.50
  -3   2 -10  166.18   12.20
   3   2  10  163.98   13.00
   3   2  10  171.38   12.50
  -4  -2 -10   39.90    6.50
   4  -2  10   43.30    6.80
  -4   2 -10   56.39    5.20
   4   2  10   56.99    5.80
  -4   2 -10   58.39    6.80
   4   2  10   49.60    6.30
   5  -2  10    1.90    4.40
  -5  -2 -10    3.60    4.90
   5   2  10    8.80    3.30
   5   2  10    7.50    2.80
  -5   2 -10    5.40    2.20
  -5   2 -10    2.90    3.20
  -6  -2 -10   57.19    9.00
   6  -2  10   35.00    6.40
  -6   2 -10   46.90    5.00
   6   2  10   41.40    6.10
  -6   2 -10   48.50    7.40
  -7  -2 -10    5.30    7.40
   7  -2  10   -1.40    5.50
   7   2  10    1.00    4.00
  -7   2 -10   -1.20    2.40
   7   2  10    5.40    3.60
  -7   2 -10   -4.20    4.30
  -8  -2 -10  219.78   23.30
   8  -2  10  248.78   21.30
   8   2  10  275.07   20.00
  -8   2 -10  236.38   19.70
   8  -3 -10   25.80    4.70
  -8  -3  10   30.20    9.80
   8  -3 -10   19.60    3.70
  -8  -3  10   20.70    8.50
  -8   3  10   18.40   10.20
   8   3 -10   26.60    4.80
  -7  -3  10    1.60    7.70
   7  -3 -10    6.50    2.70
   7  -3 -10    1.40    3.40
  -7  -3  10    5.00    6.30
  -7   3  10    5.50    9.10
   7   3 -10   10.70    3.80
  -6  -3  10    8.70    7.00
   6  -3 -10   -0.80    3.20
  -6  -3  10   -0.40    5.20
   6  -3 -10   -2.70    2.70
   6   3 -10    3.50    2.80
  -6   3  10    0.60    3.80
  -6   3  10    0.40    8.00
   5  -3 -10    4.40    3.10
  -5  -3  10   12.00    5.70
  -5  -3  10    5.30    4.50
  -5   3  10    0.40    3.20
  -5   3  10   11.80    7.70
   5   3 -10    6.20    2.70
   4  -3 -10   13.90    4.00
  -4  -3  10   17.20    5.60
  -4  -3  10   17.80    4.70
  -4   3  10   17.00    3.80
  -4   3  10   15.10    6.60
   4   3 -10   21.20    3.60
   3  -3 -10    5.80    3.00
  -3  -3  10    6.80    3.30
  -3  -3  10   12.40    4.70
  -3   3  10    0.80    2.60
   3   3 -10    4.00    2.30
  -3   3  10   13.00    5.70
   2  -3 -10   60.19    6.50
  -2  -3  10   58.29    7.90
  -2  -3  10   56.59    5.10
   2  -3 -10   62.89    6.60
  -2   3  10   50.39    5.70
   2   3 -10   46.70    5.30
  -2   3  10   58.19    8.10
   2   3 -10   53.49    6.10
   1  -3 -10   19.50    3.80
  -1  -3  10   14.90    3.80
   1  -3 -10   18.60    3.40
  -1  -3  10   17.10    2.90
  -1   3  10   14.60    3.20
  -1   3  10   19.90    4.50
   1   3 -10   15.50    2.90
   1   3 -10   11.70    2.90
   0  -3  10   34.10    4.80
   0  -3 -10   36.00    5.10
   0  -3 -10   34.60    5.70
   0  -3  10   39.90    6.00
   0   3 -10   37.20    4.10
   0   3 -10   41.20    5.20
   0   3  10   46.90    5.40
   0   3  10   35.90    4.90
   1  -3  10   14.90    3.00
   1  -3  10   16.00    3.90
  -1  -3 -10   13.20    3.90
  -1  -3 -10   10.50    3.40
   1   3  10   11.90    2.10
   1   3  10   12.30    2.70
  -1   3 -10   11.60    2.10
  -1   3 -10   12.10    2.70
  -2  -3 -10   45.60    7.00
   2  -3  10   37.60    5.90
   2  -3  10   39.10    5.70
   2   3  10   38.60    5.10
   2   3  10   41.50    5.10
  -2   3 -10   47.60    5.20
   3  -3  10    4.70    3.50
  -3  -3 -10   14.90    5.10
   3  -3  10    6.60    3.00
  -3   3 -10    8.80    2.50
   3   3  10    8.80    2.80
   4  -3  10   26.50    4.70
   4  -3  10   23.50    5.20
  -4  -3 -10   21.00    6.20
   4   3  10   21.80    4.10
   4   3  10   34.90    4.40
  -4   3 -10   18.10    3.20
  -5  -3 -10   26.40    6.80
   5  -3  10   26.10    6.10
  -5   3 -10   24.60    3.70
  -5   3 -10   26.40    5.10
   5   3  10   25.10    4.10
   5   3  10   31.10    5.20
  -6  -3 -10   15.00    7.20
   6  -3  10   13.80    5.90
  -6   3 -10   18.50    4.60
   6   3  10   20.70    3.80
  -6   3 -10   17.20    3.30
   6   3  10   20.10    4.50
   7  -3  10    9.20    6.00
  -7  -3 -10   13.20    8.20
   7   3  10    3.90    3.90
  -7   3 -10    3.70    2.80
   7   3  10    4.40    4.30
  -7   3 -10    2.40    4.40
  -7  -4  10   10.10    6.10
  -7  -4  10   -4.40    9.30
   7  -4 -10    3.10    3.70
   7  -4 -10   -1.30    3.10
   7   4 -10   -2.40    3.00
  -7   4  10    2.60    9.80
  -6  -4  10  415.66   33.20
   6  -4 -10  420.16   30.70
  -6  -4  10  520.85   36.70
   6   4 -10  426.76   30.30
  -6   4  10  424.26   31.90
  -6   4  10  520.65   37.20
   5  -4 -10   57.09    7.20
  -5  -4  10   58.49    9.20
  -5  -4  10   63.89   10.10
  -5   4  10   51.89    7.10
  -5   4  10   67.49   12.00
   5   4 -10   57.19    6.20
   4  -4 -10   90.99    9.30
  -4  -4  10   91.09   10.00
  -4  -4  10   88.59   13.30
  -4   4  10  103.49   15.10
   4   4 -10   84.79    7.70
  -4   4  10   80.59    8.40
   3  -4 -10   75.09    8.50
  -3  -4  10   86.99   11.20
  -3   4  10  103.09   12.10
  -3   4  10   72.79    7.60
   3   4 -10   84.29    7.00
   3   4 -10   72.39    7.70
  -2  -4  10  335.27   25.10
   2  -4 -10  335.57   23.90
  -2   4  10  320.47   22.90
   2   4 -10  325.67   22.30
   2   4 -10  334.87   23.30
   1  -4 -10   96.49    9.00
  -1  -4  10   66.09    9.20
  -1  -4  10   75.19    6.70
   1  -4 -10   70.19    8.00
  -1   4  10   72.39    6.80
  -1   4  10   98.39   10.60
   1   4 -10   72.79    7.50
   1   4 -10   66.29    6.60
   0  -4 -10  313.47   24.00
   0  -4  10  319.97   23.00
   0  -4  10  306.47   24.40
   0  -4 -10  385.26   24.60
   0   4 -10  333.27   22.30
   0   4  10  362.46   23.30
   0   4  10  333.67   23.20
   0   4 -10  334.57   23.50
  -1  -4 -10   68.79    7.60
   1  -4  10   67.39    8.30
   1  -4  10   68.59    7.00
  -1  -4 -10   79.69    9.40
   1   4  10   69.69    7.00
  -1   4 -10   76.79    7.20
  -2  -4 -10  843.32   61.79
  -2  -4 -10  881.01   61.19
   2  -4  10  902.11   61.19
   2  -4  10  951.40   60.69
  -2   4 -10  963.70   60.39
   2   4  10  965.40   60.29
   3  -4  10   13.00    4.50
   3  -4  10   26.30    4.80
  -3  -4 -10   20.10    6.10
   3   4  10   21.70    4.20
  -3   4 -10   16.40    3.30
   3   4  10   17.30    3.70
   4  -4  10  125.69   11.90
   4  -4  10  110.09   10.10
  -4  -4 -10  102.09   12.90
  -4   4 -10  114.69    9.40
   4   4  10  106.19   10.00
   4   4  10  105.49    9.40
   5  -4  10    6.20    5.30
  -5  -4 -10   14.40    6.80
   5  -4  10   13.60    3.60
   5   4  10    8.20    3.20
  -5   4 -10    2.90    2.80
   5   4  10    6.10    3.30
  -6   4 -10  146.49   12.40
  -6   4 -10  123.99   10.70
   6   4  10  137.29   11.80
   6   4  10  124.99   11.20
   7  -4  10    2.50    6.80
  -7  -4 -10    5.90    9.10
  -7   4 -10   -1.10    3.00
  -7   4 -10    4.50    4.50
   7   4  10    3.10    3.70
   7   4  10   -0.80    3.80
   6  -5 -10  771.62   50.09
  -6  -5  10  813.82   52.29
  -6   5  10  779.52   50.19
   6   5 -10  714.23   49.60
   6   5 -10  651.43   49.50
  -5  -5  10   74.09   13.20
   5  -5 -10   58.09    8.40
   5   5 -10   57.79    7.20
  -5   5  10   66.09    7.60
   5   5 -10   57.79    6.20
  -5   5  10   62.49   12.80
   4  -5 -10  414.16   30.50
  -4  -5  10  442.76   34.30
   4   5 -10  398.96   29.50
   4   5 -10  449.46   28.70
  -4   5  10  423.86   29.50
  -3  -5  10    7.90    7.00
   3  -5 -10   16.60    4.90
   3   5 -10    8.70    3.60
  -3   5  10   10.50    3.40
  -3   5  10   15.00    8.40
   3   5 -10   10.70    2.80
   2  -5 -10 1475.95   98.69
  -2  -5  10 1434.26   99.99
   2   5 -10 1562.54   97.89
   2   5 -10 1480.85   96.49
  -2   5  10 1546.65   97.49
  -1  -5  10    4.40    4.80
   1  -5 -10    5.50    3.70
   1   5 -10   -1.20    2.00
  -1   5  10    2.20    2.90
   1   5 -10    3.70    2.90
   0  -5  10  142.79   13.30
   0  -5 -10  142.69   13.00
   0  -5  10  138.09   11.20
   0   5 -10  140.29   12.00
   0   5  10  152.28   11.70
  -1  -5 -10    9.00    5.30
   1  -5  10    5.80    3.20
   1  -5  10    8.60    4.30
  -1  -5 -10    5.60    3.90
   1   5  10    5.90    2.90
  -1   5 -10    4.70    2.90
  -2  -5 -10  292.57   22.90
   2  -5  10  288.57   22.50
  -2  -5 -10  345.27   24.40
   2  -5  10  297.97   22.00
  -2   5 -10  301.77   21.70
   2   5  10  304.17   21.50
  -3  -5 -10  113.09   11.70
   3  -5  10  105.99   10.70
  -3  -5 -10  136.09   14.50
   3  -5  10  121.99   11.40
   3   5  10  117.29    9.80
  -3   5 -10  104.99    9.80
  -4  -5 -10  766.72   56.99
   4  -5  10  843.02   55.49
  -4  -5 -10  771.72   60.59
   4   5  10  845.12   53.99
  -4   5 -10  836.52   53.99
  -5  -5 -10   59.79   11.10
   5  -5  10   67.29    8.00
   5  -5  10   86.39   11.40
  -5   5 -10   63.99    8.00
   5   5  10   61.29    8.50
   5   5  10   73.79    8.20
   6  -5  10  585.14   40.20
  -6  -5 -10  495.35   41.50
   6  -5  10  557.34   37.40
   6   5  10  554.14   37.10
  -6   5 -10  501.65   36.60
  -6   5 -10  544.55   38.00
   6   5  10  570.34   37.70
   5   6 -10   38.40    5.80
   5   6 -10   32.40    4.70
   4  -6 -10  124.39   13.00
  -4  -6  10  149.09   19.40
   4   6 -10  128.09   11.40
  -4   6  10  128.89   11.40
  -4   6  10  188.88   21.80
   4   6 -10  117.09   10.20
  -3  -6  10   32.20    9.70
   3  -6 -10   30.60    7.20
  -3   6  10   47.50   11.10
  -3   6  10   26.70    4.50
   3   6 -10   24.50    4.80
   3   6 -10   29.50    4.00
  -2  -6  10  517.05   46.10
   2  -6 -10  579.74   42.00
   2   6 -10  604.54   40.20
  -2   6  10  626.44   39.90
   1  -6 -10  184.38   21.90
   1  -6  10   20.00    6.70
  -1  -6 -10   21.50    9.50
  -1  -6 -10   11.40    6.10
  -2  -6 -10 1906.51  108.99
   2  -6  10 1589.84  107.99
  -2  -6 -10 1599.24  108.59
   2  -6  10 1622.04  107.19
  -2   6 -10 1562.74  107.29
   2   6  10 1604.54  106.99
  -3  -6 -10  368.06   28.10
  -3  -6 -10  411.96   29.00
   3  -6  10  354.16   27.10
   3  -6  10  341.97   26.60
   3   6  10  374.96   25.90
  -3   6 -10  370.06   26.10
   4  -6  10  238.08   20.00
   4  -6  10  231.18   18.20
  -4  -6 -10  209.28   21.60
  -4  -6 -10  257.57   20.40
  -4   6 -10  225.38   17.60
   4   6  10  238.28   17.60
  -1  -7  10   20.50    7.40
   1  -7 -10   20.00    7.10
  -1   7  10   34.00    5.20
   1   7 -10   22.20    5.10
   0  -7  10    8.50    6.20
   0  -7 -10    6.00    6.60
   0   7  10    7.40    3.90
   0   7 -10    1.40    4.30
  -1  -7 -10    0.20    6.30
   1  -7  10    2.70    5.20
  -1   7 -10    1.60    3.90
   1   7  10    0.30    3.30
   8   0 -11    7.80    4.30
  -8   0  11   -6.20   10.20
   7   0 -11    2.00    3.30
  -7   0  11    6.50    8.70
   6   0 -11    1.50    3.30
  -6   0  11   -0.80    7.20
   5   0 -11    4.50    3.10
  -5   0  11    3.10    5.40
   5   0 -11   -0.60    2.60
  -5   0  11   -0.50    3.50
  -4   0  11    0.50    3.10
   4   0 -11    0.00    2.80
   4   0 -11    5.40    2.40
  -4   0  11    4.70    4.80
  -3   0  11    6.50    3.80
  -3   0  11    6.50    3.00
   3   0 -11    6.20    2.30
   3   0 -11    1.90    2.50
  -2   0  11    0.20    3.00
  -2   0  11    1.40    3.00
  -2   0  11    1.60    2.70
   2   0 -11   -1.50    2.50
   2   0 -11    0.30    1.90
  -1   0  11    5.30    2.70
  -1   0  11    0.60    2.20
  -1   0  11    5.60    2.90
  -1   0  11    1.30    2.70
   0   0  11    2.60    2.20
   0   0  11    3.20    2.60
   0   0 -11   -0.80    1.90
   0   0  11    0.00    2.70
   1   0  11    5.60    2.50
   1   0  11    4.70    2.80
  -1   0 -11    2.20    2.50
  -2   0 -11   -0.30    1.70
   2   0  11    2.30    2.50
   2   0  11   10.30    2.80
  -2   0 -11    1.10    2.70
  -3   0 -11    4.10    2.00
   3   0  11    1.10    2.70
   3   0  11    1.50    2.80
  -3   0 -11    2.70    2.90
   4   0  11   -1.70    3.10
  -4   0 -11   -2.90    2.90
   4   0  11    1.40    3.80
   5   0  11    4.80    3.70
  -5   0 -11    6.70    4.40
  -6   0 -11    0.00    4.70
   6   0  11   -4.30    3.90
   7   0  11    9.10    5.40
  -7   0 -11   -1.10    5.70
  -8  -1  11  231.28   23.90
   8  -1 -11  206.78   17.30
  -8   1  11  223.18   27.00
   8   1 -11  233.98   17.70
   7  -1 -11  467.65   33.10
  -7  -1  11  504.65   37.80
  -7   1  11  436.66   39.60
   7   1 -11  500.85   33.50
   6  -1 -11   81.09    7.60
   6  -1 -11   83.89    8.40
  -6  -1  11   64.79   10.60
  -6  -1  11   82.79   10.00
   6   1 -11   85.89    8.40
  -6   1  11   76.39   12.50
   5  -1 -11  243.38   18.90
  -5  -1  11  218.48   21.40
   5  -1 -11  261.37   18.60
  -5  -1  11  285.07   19.80
  -5   1  11  264.67   23.00
   5   1 -11  278.07   19.00
  -4  -1  11   -3.50    4.20
   4  -1 -11    1.00    2.40
   4  -1 -11    5.70    3.20
  -4  -1  11   -0.90    3.60
  -4   1  11    0.50    5.00
  -4   1  11    0.20    2.60
   4   1 -11    2.20    2.10
   4   1 -11    2.00    2.80
   3  -1 -11  495.05   32.30
  -3  -1  11  458.55   33.50
  -3  -1  11  472.45   33.00
  -3   1  11  520.35   33.20
  -3   1  11  483.25   33.90
   3   1 -11  444.96   32.80
   3   1 -11  487.35   32.40
  -2  -1  11   83.19    8.20
   2  -1 -11   84.39    7.20
   2  -1 -11   83.29    7.00
  -2  -1  11   84.29    8.30
  -2   1  11   87.89    9.00
   2   1 -11   85.79    6.80
   2   1 -11   75.99    7.30
  -2   1  11   64.29    7.70
   1  -1 -11   13.10    2.80
  -1  -1  11   13.20    3.10
  -1  -1  11   10.40    3.30
   1  -1 -11    8.60    2.80
  -1  -1  11   11.30    2.60
  -1   1  11   12.60    3.10
   1   1 -11    9.40    2.90
   0  -1  11    9.90    2.70
   0  -1 -11    8.80    2.70
   0  -1  11    9.50    3.30
   0   1  11   11.70    3.20
   0   1 -11   10.50    2.60
   0   1  11   15.50    2.80
   0   1  11   11.50    3.00
   0   1 -11    6.10    2.50
   1  -1  11  357.56   24.80
   1  -1  11  348.77   24.10
  -1  -1 -11  357.96   24.40
   1  -1  11  333.57   25.00
   1   1  11  356.26   24.40
  -1   1 -11  360.26   23.90
   1   1  11  339.77   24.00
  -2  -1 -11   29.40    4.80
   2  -1  11   32.30    4.90
   2  -1  11   40.80    5.60
  -2  -1 -11   28.10    3.70
   2  -1  11   30.20    4.70
   2   1  11   35.00    5.10
   2   1  11   28.40    4.10
  -2   1 -11   29.20    4.90
  -2   1 -11   38.70    4.30
   3  -1  11  597.84   34.40
  -3  -1 -11  525.15   33.60
   3  -1  11  504.85   35.10
  -3  -1 -11  509.35   35.40
  -3   1 -11  483.35   35.20
   3   1  11  520.25   34.40
  -3   1 -11  498.15   33.90
   3   1  11  471.85   34.90
   4  -1  11   50.89    7.40
  -4  -1 -11   52.59    7.60
  -4   1 -11   49.00    7.00
   4   1  11   58.59    6.80
  -4   1 -11   49.00    5.30
   4   1  11   68.69    6.30
   5  -1  11  229.28   18.50
  -5  -1 -11  215.98   18.70
   5   1  11  268.97   17.00
  -5   1 -11  215.58   16.00
   5   1  11  240.38   17.90
  -5   1 -11  220.78   18.20
   6  -1  11   99.29   11.80
  -6  -1 -11   91.49   12.30
   7  -1  11   62.29    9.10
  -7  -1 -11   38.30    9.50
   7   1  11   47.90    7.80
  -7   1 -11   56.29    9.10
   7  -2 -11  377.76   26.90
  -7  -2  11  347.27   30.50
   7  -2 -11  339.67   26.00
  -7  -2  11  458.55   29.90
  -7   2  11  361.16   34.40
   7   2 -11  412.16   27.20
   6  -2 -11   75.59    7.50
  -6  -2  11   64.09   11.40
  -6  -2  11   90.59   11.40
   6  -2 -11   55.79    9.10
   6   2 -11   81.89    8.10
  -6   2  11   83.29   13.90
  -5  -2  11  165.18   14.00
   5  -2 -11  145.69   12.00
  -5  -2  11  121.89   14.10
   5  -2 -11  131.49   12.10
   5   2 -11  156.88   12.00
  -5   2  11  149.99   18.00
  -4  -2  11  102.99   11.00
   4  -2 -11  113.39    9.70
  -4  -2  11  103.89   11.50
   4   2 -11  121.19    9.60
  -4   2  11  120.39   13.80
  -4   2  11  107.89   10.10
   3  -2 -11 1304.37   88.69
  -3  -2  11 1289.87   90.39
  -3  -2  11 1355.06   90.39
   3  -2 -11 1430.16   89.59
  -3   2  11 1229.58   89.49
   3   2 -11 1542.15   88.69
   3   2 -11 1380.56   89.29
  -3   2  11 1485.35   91.49
   2  -2 -11  411.66   27.70
  -2  -2  11  402.66   26.90
   2  -2 -11  401.96   27.10
  -2  -2  11  391.46   28.20
  -2  -2  11  391.26   28.30
   2   2 -11  415.96   27.20
  -2   2  11  374.46   27.60
  -2   2  11  431.76   28.70
   1  -2 -11 1079.99   69.19
  -1  -2  11 1033.30   69.79
  -1  -2  11 1058.79   68.59
   1  -2 -11 1031.80   68.79
  -1   2  11 1158.78   69.49
   1   2 -11 1031.00   69.09
   1   2 -11 1033.80   68.59
  -1   2  11 1032.30   68.99
   0  -2  11   75.19    7.90
   0  -2  11   63.19    6.40
   0  -2 -11   68.69    7.10
   0  -2 -11   60.99    6.60
   0   2 -11   70.49    6.10
   0   2 -11   65.09    6.80
   0   2  11   64.69    6.60
   1  -2  11 1396.46   93.69
  -1  -2 -11 1506.65   92.29
  -1  -2 -11 1388.16   93.29
   1  -2  11 1415.46   92.89
  -1   2 -11 1486.35   92.89
   1   2  11 1406.86   92.79
   1   2  11 1411.56   93.29
  -1   2 -11 1458.35   92.29
  -2  -2 -11   48.40    5.40
   2  -2  11   64.99    7.00
   2  -2  11   54.59    6.40
  -2  -2 -11   45.30    6.70
   2   2  11   50.39    6.30
  -2   2 -11   52.39    5.70
  -2   2 -11   49.40    4.90
   2   2  11   55.49    6.00
  -3  -2 -11   21.30    5.10
   3  -2  11   21.30    4.20
   3  -2  11   25.50    4.60
   3   2  11   17.60    3.70
   3   2  11   28.40    4.10
  -3   2 -11   18.90    3.30
  -4  -2 -11    1.10    4.10
   4  -2  11    8.40    3.70
   4   2  11    7.20    3.30
  -4   2 -11    4.80    2.30
   4   2  11    1.80    3.00
  -4   2 -11    2.00    3.40
   5  -2  11  313.77   22.30
  -5  -2 -11  266.67   22.90
   5   2  11  305.17   20.30
  -5   2 -11  286.77   21.70
   5   2  11  273.97   21.10
  -5   2 -11  274.47   19.80
  -6   2 -11   34.90    6.50
   6   2  11   51.59    7.20
   6   2  11   38.00    5.30
  -6   2 -11   30.90    5.00
   7  -2  11  947.61   62.59
  -7  -2 -11  840.92   63.39
  -7   2 -11  869.61   61.49
   7   2  11  936.21   61.29
  -7   2 -11  937.21   61.09
  -7  -3  11 1410.56   99.39
   7  -3 -11 1533.25   96.59
   7  -3 -11 1397.96   95.89
  -7   3  11 1507.35  102.79
   7   3 -11 1545.75   96.39
   6  -3 -11  109.49   10.10
   6  -3 -11  107.79    9.60
  -6  -3  11  132.19   15.40
  -6  -3  11   77.49   13.00
  -6   3  11  101.29   15.70
   6   3 -11  106.59    9.70
  -5  -3  11  399.46   30.90
   5  -3 -11  400.16   28.50
  -5  -3  11  402.46   30.30
   5   3 -11  407.46   28.00
  -5   3  11  385.76   28.70
  -5   3  11  476.35   34.70
  -4  -3  11    2.50    4.60
  -4  -3  11   -2.20    5.30
   4  -3 -11    4.20    3.50
  -4   3  11    4.30    2.90
   4   3 -11    3.30    2.80
  -4   3  11    7.20    7.80
   3  -3 -11 1114.19   74.99
  -3  -3  11 1115.49   76.19
  -3  -3  11 1149.58   75.69
  -3   3  11 1056.69   74.69
   3   3 -11 1107.59   74.19
  -3   3  11 1330.47   77.39
   2  -3 -11   53.69    6.30
  -2  -3  11   38.60    6.50
   2  -3 -11   48.60    7.10
  -2   3  11   47.80    6.90
  -2   3  11   44.90    5.90
   2   3 -11   29.80    4.80
   2   3 -11   41.00    5.10
   1  -3 -11   87.99   10.70
   1  -3 -11   75.29    7.90
  -1  -3  11   90.99    9.30
  -1  -3  11   72.49    7.60
   1   3 -11   77.69    7.70
   1   3 -11   75.09    6.90
  -1   3  11   80.89    7.60
  -1   3  11   88.79    8.70
   0  -3  11    9.00    2.70
   0  -3 -11    7.20    3.30
   0  -3 -11    9.30    3.90
   0  -3  11    3.60    3.90
   0   3  11   11.80    3.20
   0   3 -11   10.70    2.90
   0   3 -11    6.50    3.00
   0   3  11    8.10    2.90
   1  -3  11  674.53   45.90
  -1  -3 -11  642.44   45.40
   1  -3  11  701.23   44.80
  -1  -3 -11  622.54   45.50
  -1   3 -11  699.83   44.90
   1   3  11  704.13   44.80
   2  -3  11  270.87   19.30
  -2  -3 -11  244.88   20.30
   2  -3  11  257.97   19.70
   2   3  11  269.07   18.70
   2   3  11  262.57   19.30
  -2   3 -11  268.67   18.70
   3  -3  11 1540.05   95.59
   3  -3  11 1491.75   95.59
  -3  -3 -11 1308.57   96.29
  -3   3 -11 1490.35   94.59
   3   3  11 1468.75   94.69
   3   3  11 1459.35   95.39
  -4  -3 -11   18.90    6.30
   4  -3  11   13.60    4.00
   4  -3  11    8.90    4.60
   4   3  11   19.00    3.50
   4   3  11   16.10    4.00
  -4   3 -11   15.70    3.30
  -5  -3 -11  781.32   58.59
   5  -3  11  962.60   58.19
  -5   3 -11  831.22   55.49
   5   3  11  817.72   60.29
   5   3  11  840.72   55.79
   6  -3  11  436.06   31.20
  -6  -3 -11  409.26   32.30
  -6   3 -11  390.26   29.50
   6   3  11  416.06   29.30
  -6   3 -11  381.36   27.70
   6   3  11  426.66   28.30
  -6  -4  11   56.09    9.40
   6  -4 -11   47.00    7.00
  -6  -4  11   80.99   12.50
  -6   4  11   59.79   13.90
  -6   4  11   57.69    8.50
  -5  -4  11  118.49   15.90
   5  -4 -11  106.49    9.90
  -5  -4  11   98.49   12.40
  -5   4  11   88.19    9.80
  -5   4  11  103.89   15.20
   5   4 -11   90.19    8.70
  -4  -4  11   21.80    8.10
   4  -4 -11   34.90    5.80
  -4   4  11   31.40   10.00
  -4   4  11   27.50    5.00
   4   4 -11   22.00    4.60
   4   4 -11   34.50    4.90
  -3  -4  11  822.32   57.09
   3  -4 -11  894.51   55.59
  -3   4  11  842.22   54.59
   3   4 -11  796.02   53.79
   3   4 -11  767.92   54.59
  -2  -4  11  333.07   26.50
   2  -4 -11  372.16   25.30
   2   4 -11  345.37   23.50
   2   4 -11  322.37   24.40
  -2   4  11  361.86   24.40
   1  -4 -11  567.44   40.40
  -1  -4  11  571.14   41.30
   1   4 -11  569.24   38.70
  -1   4  11  599.64   39.70
  -1   4  11  647.14   40.30
   1   4 -11  589.54   39.90
   0  -4  11   -0.20    2.70
   0  -4  11    5.90    4.10
   0  -4 -11    3.90    4.40
   0  -4 -11    0.80    3.60
   0   4  11    1.60    2.90
   0   4 -11    2.30    2.70
  -1  -4 -11 1031.10   71.59
   1  -4  11 1127.59   70.79
  -1  -4 -11 1028.30   71.79
   1  -4  11 1084.29   71.99
   1   4  11 1087.39   70.69
  -1   4 -11 1120.29   70.99
  -2  -4 -11  116.29   12.70
   2  -4  11  102.29   10.50
   2  -4  11  106.89   10.10
  -2  -4 -11  102.49   10.70
  -2   4 -11  111.29    9.70
   2   4  11  117.69    9.60
  -3  -4 -11    8.50    5.80
   3  -4  11   21.00    5.10
  -3   4 -11   10.00    3.20
   3   4  11    8.60    3.30
  -4  -4 -11   -4.30    6.10
   4  -4  11   -1.10    4.90
   4  -4  11   -0.20    3.30
  -4   4 -11    0.60    2.80
   4   4  11    0.10    3.70
   4   4  11   -1.40    3.20
  -5  -4 -11  203.18   20.40
   5  -4  11  225.08   18.90
   5  -4  11  214.78   16.80
   5   4  11  220.28   17.00
  -5   4 -11  192.18   17.20
  -5   4 -11  207.78   16.00
   5   4  11  234.88   16.40
  -6  -4 -11   69.09   12.00
  -6   4 -11   59.29    9.00
   5  -5 -11   30.10    6.10
  -5  -5  11   47.40   12.20
   5   5 -11   30.60    4.60
   5   5 -11   25.80    5.00
  -5   5  11   42.20   12.30
  -5   5  11   30.30    5.30
   4  -5 -11   56.19    8.10
  -4  -5  11   57.89   12.80
   4   5 -11   42.60    6.70
  -4   5  11   41.90    6.40
  -4   5  11   77.99   13.30
   4   5 -11   45.00    5.70
  -3  -5  11  104.39   16.40
  -3   5  11   82.79    8.80
   3   5 -11   84.69    9.10
  -3   5  11  127.19   17.60
   3   5 -11   83.49    7.70
   2  -5 -11   -0.60    4.80
  -2  -5  11    6.80    6.20
   2   5 -11    2.20    2.50
   1  -5 -11    4.90    4.60
  -1  -5  11    9.80    5.80
   1   5 -11    9.30    3.80
  -1   5  11   13.40    3.70
   0  -5 -11   -3.00    4.00
   0  -5  11    6.90    4.60
   0   5  11    7.10    3.20
   0   5 -11    1.30    3.40
   1  -5  11   50.59   12.20
   1  -5  11   64.09    7.60
  -1  -5 -11   74.69   10.80
  -1  -5 -11   61.89   12.60
   1   5  11   61.19    7.50
  -1   5 -11   72.19    8.00
   2  -5  11  142.99   13.60
   2  -5  11  148.49   13.00
  -2  -5 -11  160.28   15.70
  -2  -5 -11  134.29   13.80
   2   5  11  159.28   12.40
  -2   5 -11  144.69   12.40
  -3  -5 -11  104.79   14.10
   3  -5  11   96.59   10.50
  -3  -5 -11   99.49   11.20
   3  -5  11  109.79   11.20
  -3   5 -11  105.19   12.20
   3   5  11   84.19   12.40
  -4  -5 -11    7.70    7.50
  -4  -5 -11    1.50    5.20
   4  -5  11    5.20    4.20
   4  -5  11    3.10    5.50
  -4   5 -11    2.60    3.20
   4   5  11   -1.40    3.60
   3  -6 -11    3.90    5.70
  -3  -6  11   10.90    9.10
  -3   6  11    9.50    4.20
   3   6 -11    4.60    3.60
   2  -6 -11   19.40    6.20
  -2  -6  11   13.40    7.30
   2   6 -11   14.10    4.30
  -2   6  11    9.10    4.20
  -1  -6  11   86.89   13.30
   1  -6 -11   84.89   11.60
  -1   6  11   86.59    9.30
   1   6 -11   86.29    9.70
   0  -6 -11   69.49   10.30
   0   6  11   64.19    7.80
   0   6 -11   58.29    8.30
  -1  -6 -11   52.59    8.50
   1  -6  11   61.99    9.60
   1   6  11   66.29    7.80
  -1   6 -11   56.19    8.40
   2  -6  11    8.50    5.20
  -2  -6 -11    2.70    6.50
  -2  -6 -11    4.40    5.10
  -2   6 -11    7.80    4.00
   2   6  11    8.50    4.10
   7   0 -12  101.89   10.30
  -7   0  12   97.29   15.50
  -6   0  12   38.50   10.00
   6   0 -12   15.90    4.70
   5   0 -12  393.66   29.30
   5   0 -12  451.75   29.60
  -5   0  12  420.26   32.80
  -4   0  12 2077.69  134.09
  -4   0  12 1978.00  136.19
   4   0 -12 1975.80  134.19
   4   0 -12 2269.67  133.79
   3   0 -12  166.58   11.60
  -3   0  12  148.99   12.20
   3   0 -12  146.49   12.10
  -3   0  12  135.79   13.70
  -2   0  12  898.21   61.59
  -2   0  12  904.21   62.09
   2   0 -12 1002.40   61.29
   2   0 -12  942.41   61.69
  -1   0  12   56.99    6.70
   1   0 -12   56.19    6.00
  -1   0  12   57.49    6.70
  -1   0  12   53.69    7.20
   0   0  12  748.93   47.20
   0   0 -12  713.63   46.60
   0   0  12  702.13   46.90
   0   0 -12  666.23   47.00
  -1   0 -12    6.30    2.50
  -1   0 -12    5.60    2.90
   1   0  12    9.40    3.50
   1   0  12    6.30    2.80
   2   0  12   18.10    3.90
   2   0  12   15.20    4.10
  -2   0 -12   22.80    3.20
  -2   0 -12   21.20    4.50
  -3   0 -12   41.30    4.90
   3   0  12   54.09    6.60
   3   0  12   40.60    6.00
  -3   0 -12   42.80    6.30
  -4   0 -12  467.55   33.30
   4   0  12  477.15   33.00
  -6   0 -12 1744.23  116.99
   6   0  12 1803.42  116.69
   7  -1 -12   66.09    7.90
  -7  -1  12   51.59   12.90
  -7   1  12   72.09   15.50
   7   1 -12   57.69    8.30
   6  -1 -12  459.45   32.20
  -6  -1  12  422.26   36.00
   6  -1 -12  479.25   31.50
   6   1 -12  479.55   33.00
  -5  -1  12   26.90    5.60
   5  -1 -12   27.70    5.00
  -5  -1  12   33.40    8.20
   5  -1 -12   26.90    4.70
   5   1 -12   35.10    5.40
  -5   1  12   33.20    9.70
   4  -1 -12  342.57   23.10
  -4  -1  12  337.47   24.20
   4  -1 -12  321.37   23.50
  -4  -1  12  306.77   25.00
   4   1 -12  335.77   23.30
  -4   1  12  330.37   26.10
  -3  -1  12   64.79    8.90
   3  -1 -12   73.89    6.90
  -3  -1  12   67.29    8.00
   3  -1 -12   63.09    6.50
  -3   1  12   56.09    8.00
  -3   1  12   62.89    9.60
   3   1 -12   65.09    6.30
   3   1 -12   73.89    7.10
  -2  -1  12   31.40    5.00
   2  -1 -12   26.60    4.10
   2  -1 -12   33.80    5.20
  -2  -1  12   31.80    5.20
  -2   1  12   24.60    5.00
   2   1 -12   29.10    4.40
  -2   1  12   24.70    4.80
   2   1 -12   38.10    4.50
   1  -1 -12    2.20    2.50
   1  -1 -12    2.70    2.50
  -1  -1  12    0.60    2.50
  -1  -1  12    4.90    3.30
   1   1 -12    2.80    2.60
  -1   1  12    6.20    3.30
  -1   1  12   -0.50    2.90
   1   1 -12   -0.80    2.50
   0  -1  12 1272.27   83.39
   0  -1  12 1227.28   83.99
   0  -1 -12 1228.98   83.49
   0   1 -12 1265.27   83.39
   0   1  12 1252.67   83.59
   0   1  12 1446.46   84.89
   0   1  12 1219.08   83.49
   0   1 -12 1366.76   83.29
   1  -1  12  306.37   21.60
   1  -1  12  292.67   20.90
  -1  -1 -12  279.27   21.10
  -1  -1 -12  299.07   20.20
   1   1  12  287.17   21.00
  -1   1 -12  313.77   20.60
   1   1  12  295.07   20.90
  -1   1 -12  291.87   20.50
   2  -1  12  993.40   64.99
  -2  -1 -12  985.50   65.39
  -2  -1 -12  996.80   63.89
   2   1  12 1014.10   64.69
  -2   1 -12 1018.70   64.29
  -2   1 -12  913.41   65.19
   2   1  12  990.20   65.09
  -3  -1 -12   10.90    4.20
   3  -1  12   17.40    4.20
  -3   1 -12   12.30    3.00
   3   1  12   18.50    3.90
   3   1  12   23.80    4.20
  -3   1 -12   16.80    4.30
   4  -1  12  489.25   33.30
  -4  -1 -12  470.15   33.60
  -4   1 -12  452.55   33.20
  -4   1 -12  452.85   31.40
   4   1  12  527.45   32.30
   4   1  12  447.76   32.80
  -5  -1 -12  109.39   16.60
   5  -1  12  105.19   16.10
  -5   1 -12  111.59   11.60
   5   1  12  109.69   10.80
   6  -1  12   20.80    6.40
  -6  -1 -12   15.60    6.90
  -6   1 -12   15.80    5.60
   6   1  12   18.50    5.50
  -6  -2  12    4.30    6.60
   6  -2 -12    6.30    4.10
  -6  -2  12   -0.50    6.70
   6  -2 -12    6.20    3.50
   6   2 -12   13.10    4.10
  -6   2  12    5.30   13.00
   5  -2 -12   83.69    9.20
  -5  -2  12   93.99   11.30
   5  -2 -12   82.99   10.00
  -5   2  12   87.59   13.90
   5   2 -12   87.79    8.60
  -4  -2  12  460.05   32.40
   4  -2 -12  467.95   31.20
  -4  -2  12  430.56   32.70
  -4   2  12  484.15   34.60
  -4   2  12  401.36   31.40
   4   2 -12  463.65   30.90
  -3  -2  12   84.89   10.20
  -3  -2  12   90.99   10.30
   3  -2 -12   96.99    8.60
   3   2 -12  101.29    8.50
  -3   2  12   92.69   11.80
  -3   2  12   71.29    9.00
  -2  -2  12  274.87   20.50
   2  -2 -12  289.67   19.90
   2  -2 -12  258.97   19.10
  -2  -2  12  263.87   21.00
  -2   2  12  257.57   19.80
   2   2 -12  308.07   19.00
   2   2 -12  240.58   19.60
   2   2 -12  279.97   19.30
  -2   2  12  298.97   21.30
   1  -2 -12    1.90    2.80
  -1  -2  12    0.20    2.70
   1  -2 -12   -1.50    2.60
  -1  -2  12    0.30    4.00
   1   2 -12    9.10    2.90
  -1   2  12   -2.10    3.10
   1   2 -12    2.50    2.60
  -1   2  12    2.80    3.40
   0  -2  12  137.99   12.30
   0  -2 -12  126.49   11.10
   0  -2  12  141.39   10.80
   0  -2 -12  157.28   11.70
   0   2 -12  129.69   10.90
   0   2  12  138.19   10.70
   0   2  12  126.19   11.10
   0   2 -12  135.09   10.30
   1  -2  12    2.90    3.50
   1  -2  12    1.00    2.80
  -1  -2 -12    6.30    3.40
  -1   2 -12    2.60    2.40
   1   2  12    8.40    3.30
   1   2  12    3.00    3.20
  -1   2 -12    3.70    2.60
   2  -2  12    1.80    3.40
   2  -2  12   15.10    4.50
  -2  -2 -12    5.40    4.10
   2   2  12   16.00    3.70
   2   2  12    6.80    3.30
  -2   2 -12    9.10    3.00
   3  -2  12   -0.70    3.50
   3  -2  12    4.10    3.30
  -3  -2 -12    6.20    4.30
   3   2  12   -3.60    3.10
  -3   2 -12    0.20    3.40
  -3   2 -12   -2.80    2.50
   3   2  12    1.20    3.40
   4  -2  12  172.98   14.20
  -4  -2 -12  186.48   15.40
  -4   2 -12  151.28   11.80
  -4   2 -12  125.69   14.20
   4   2  12  132.39   15.00
   4   2  12  170.38   12.70
  -5   2 -12   54.49    7.70
   5   2  12   75.69    8.40
   5   2  12   59.89    8.00
  -5   2 -12   43.90    6.10
   6  -2  12  285.17   21.40
  -6  -2 -12  229.48   22.30
  -6   2 -12  231.68   19.50
  -6   2 -12  232.38   19.90
   6   2  12  244.88   19.40
   6  -3 -12   17.00    4.30
   6  -3 -12   15.40    4.70
  -6  -3  12    2.90    7.70
  -6  -3  12   11.80    7.00
   6   3 -12   11.10    4.10
  -6   3  12   10.30   12.90
  -5  -3  12   30.50    7.50
   5  -3 -12   15.50    4.70
  -5  -3  12   22.20    6.70
  -5   3  12   17.30    4.90
  -5   3  12   21.70   10.80
   5   3 -12   20.30    4.00
  -4  -3  12   26.80    6.90
   4  -3 -12   37.60    6.00
   4   3 -12   28.60    4.60
  -4   3  12   32.40    9.60
  -4   3  12   34.30    8.50
   3  -3 -12   25.30    4.60
  -3  -3  12   19.60    6.10
  -3   3  12   20.80    4.20
  -3   3  12   32.00    7.90
   3   3 -12   18.40    4.10
   3   3 -12   20.70    3.90
  -2  -3  12   -0.10    4.60
   2  -3 -12    2.60    3.20
   2   3 -12    4.00    2.90
  -2   3  12   -4.60    3.30
   2   3 -12    0.10    2.70
  -2   3  12    6.90    4.70
  -1  -3  12   -7.80    4.40
  -1  -3  12    2.70    2.70
   1  -3 -12    5.90    4.00
   1  -3 -12    2.40    3.40
  -1   3  12    1.40    3.00
   1   3 -12    1.10    3.10
   1   3 -12    6.80    2.60
  -1   3  12    1.20    3.90
   0  -3  12   10.00    3.20
   0  -3 -12    9.70    4.60
   0  -3  12   16.50    4.90
   0  -3 -12   16.30    4.20
   0   3 -12    9.30    3.40
   0   3 -12   12.10    3.60
   0   3  12   11.00    3.50
   1  -3  12   13.20    4.50
  -1  -3 -12    1.80    4.50
  -1  -3 -12   10.80    4.20
   1  -3  12    3.90    3.40
   1   3  12    9.00    3.40
  -1   3 -12    9.50    3.30
   2  -3  12   21.70    5.20
   2  -3  12   19.80    4.60
  -2  -3 -12   33.70    6.50
   2   3  12   25.80    4.60
  -2   3 -12   27.20    4.30
   2   3  12   32.60    4.70
   3  -3  12   19.80    7.00
   3  -3  12   24.30    5.30
  -3  -3 -12   17.30    6.40
  -3   3 -12   17.60    3.60
   3   3  12   17.10    6.10
   3   3  12   23.00    4.50
   4  -3  12   20.30    5.50
  -4  -3 -12   12.20    6.70
   4  -3  12   16.00    4.60
  -4   3 -12   11.40    4.70
   4   3  12   10.10    4.00
   4   3  12    8.20    3.50
  -4   3 -12   12.50    3.40
  -5  -3 -12    0.50    6.50
   5  -3  12   -0.90    5.00
   5   3  12    2.40    4.00
   5   3  12   -0.40    4.00
  -5   3 -12   -1.40    2.90
  -5   3 -12   -1.00    3.90
   5  -4 -12   93.79   10.20
  -5  -4  12  100.49   12.00
   5   4 -12  101.19    9.20
  -5   4  12  100.59   16.70
  -5   4  12   83.39   10.40
  -4  -4  12  625.64   41.50
   4   4 -12  566.44   36.90
  -4   4  12  557.64   37.90
   4   4 -12  472.85   37.40
   3  -4 -12   51.69    7.60
  -3  -4  12   44.70    8.90
   3   4 -12   57.79    6.20
  -3   4  12   51.59   10.40
  -3   4  12   50.79    6.70
   3   4 -12   52.09    6.90
  -2  -4  12  329.87   26.70
   2  -4 -12  365.86   25.30
   2   4 -12  331.77   23.30
   1  -4 -12   61.49    8.30
  -1  -4  12   69.59    9.70
  -1   4  12   52.89    7.10
   1   4 -12   44.10    6.40
   0  -4 -12  278.07   22.60
   0  -4 -12  332.27   23.50
   0  -4  12  299.77   23.60
   0   4 -12  293.77   22.00
   0   4  12  316.67   21.80
  -1  -4 -12    6.10    5.30
   1  -4  12    2.70    3.70
   1  -4  12   -5.30    6.70
   1   4  12   -1.40    3.30
  -1   4 -12    8.20    3.80
   2  -4  12    0.00    4.30
  -2  -4 -12   11.00    4.70
   2  -4  12    2.80    4.20
  -2  -4 -12   -3.10    5.70
  -2   4 -12    1.10    3.60
   3  -4  12    2.90    4.20
  -3  -4 -12    0.90    4.70
   3  -4  12   10.90    4.80
  -3  -4 -12    7.50    6.80
   3   4  12    3.10    3.70
  -3   4 -12    3.80    3.20
   4  -4  12  207.38   17.70
  -4  -4 -12  183.68   19.10
   4  -4  12  193.48   16.30
   4   4  12  210.58   16.40
   4   4  12  216.58   16.50
  -4   4 -12  196.68   15.40
   3  -5 -12   51.69    8.00
  -3  -5  12   44.40   10.40
  -3   5  12   44.90    6.50
   3   5 -12   33.60    5.70
   3   5 -12   42.10    5.50
  -2  -5  12    9.50    7.20
   2  -5 -12   13.20    5.40
   2   5 -12   13.00    4.30
  -2   5  12   11.80    4.10
  -1  -5  12    2.00    6.00
   1  -5 -12    6.70    4.70
   1   5 -12   -1.10    3.40
  -1   5  12   -5.30    3.40
   0  -5 -12 1069.29   70.99
   0  -5  12 1058.99   71.49
   0   5  12 1067.69   69.49
   0   5 -12 1020.50   69.69
  -1  -5 -12  359.76   28.80
   1  -5  12  385.36   29.40
   1   5  12  420.26   27.80
  -1   5 -12  399.26   28.00
   2  -5  12  855.61   55.29
  -2  -5 -12  861.91   57.19
  -2  -5 -12  762.62   56.09
   2  -5  12  803.92   56.29
  -2   5 -12  849.12   55.19
   2   5  12  814.82   54.99
   5   0 -13    6.60    3.90
  -5   0  13    5.20    7.50
   4   0 -13    4.20    3.50
   4   0 -13    0.00    3.20
  -4   0  13    6.60    6.10
   3   0 -13    2.00    3.50
  -3   0  13   -1.40    3.80
   3   0 -13   -1.30    2.80
  -3   0  13   -1.70    4.70
  -2   0  13    0.00    3.40
   2   0 -13    2.10    3.30
  -2   0  13   -0.10    3.80
   2   0 -13    2.00    2.70
   1   0 -13    1.60    2.80
   1   0 -13    0.40    3.50
  -1   0  13    0.20    3.10
   0   0 -13   -0.20    3.10
   0   0 -13    4.40    2.80
   0   0  13    8.50    4.20
   0   0  13    1.10    2.90
   1   0  13    4.30    2.90
  -1   0 -13    2.10    3.40
  -1   0 -13   -3.60    2.60
   1   0  13    0.70    4.10
   2   0  13   -1.60    3.90
   2   0  13   -2.40    3.20
  -2   0 -13    0.60    2.50
  -2   0 -13   -1.60    3.70
   3   0  13    0.90    3.40
  -3   0 -13    9.50    4.10
  -4   0 -13    5.70    4.40
   4   0  13    9.60    4.50
  -5   0 -13   24.60    6.30
   5  -1 -13   31.00    5.60
   5  -1 -13   32.40    5.50
  -5  -1  13   24.90    7.80
  -5   1  13   19.20   12.40
   5   1 -13   33.70    5.60
  -4  -1  13   70.79   10.90
   4  -1 -13   75.69    8.30
  -4  -1  13   90.09   10.50
   4   1 -13   87.39    8.60
  -4   1  13   71.09   11.00
  -3  -1  13   -1.10    4.70
   3  -1 -13   -3.00    3.50
   3  -1 -13    0.00    3.10
  -3  -1  13   15.40    4.80
  -3   1  13    0.80    5.30
   3   1 -13    2.90    3.20
   3   1 -13    2.40    3.10
   2  -1 -13    4.20    2.80
  -2  -1  13    1.60    4.30
  -2  -1  13   -0.80    3.80
   2  -1 -13   -2.30    3.00
  -2   1  13    3.30    4.50
  -2   1  13    7.10    4.00
   2   1 -13    0.00    3.10
   2   1 -13    1.00    2.70
  -1  -1  13  532.75   35.40
   1  -1 -13  543.85   35.00
   1  -1 -13  489.65   34.60
  -1  -1  13  514.25   34.50
   1   1 -13  561.04   34.80
   1   1 -13  465.55   34.60
  -1   1  13  531.95   35.20
  -1   1  13  468.55   35.10
   0  -1 -13  102.49    9.00
   0  -1 -13  110.99   10.00
   0  -1  13  110.99   10.40
   0  -1  13  103.09    9.40
   0  -1 -13  108.19    9.80
   0   1  13   91.49    9.80
   0   1 -13  110.89    9.40
   0   1 -13  106.09    9.40
  -1  -1 -13  353.96   24.40
  -1  -1 -13  347.27   25.50
   1  -1  13  367.46   25.20
  -1   1 -13  315.97   25.30
  -1   1 -13  372.46   24.90
  -1   1 -13  404.86   25.00
   1   1  13  358.46   25.40
   1   1  13  356.86   25.40
   2  -1  13   13.10    4.20
  -2  -1 -13   19.80    4.90
   2   1  13   15.20    3.90
   2   1  13   25.30    4.70
  -2   1 -13   11.00    3.90
  -2   1 -13   20.00    3.60
  -3  -1 -13  130.09   11.80
   3  -1  13  117.89   11.20
  -3   1 -13  124.59   10.10
  -3   1 -13  113.49   12.40
   3   1  13  128.29   11.40
   3   1  13  116.09   13.90
   4  -1  13   12.70    5.30
  -4  -1 -13    8.30    6.00
  -4   1 -13   13.20    4.70
   4   1  13   17.60    4.70
   5  -1  13   25.10    6.60
  -5  -1 -13   30.90    7.10
   5   1  13   23.00    6.00
  -5   1 -13   29.10    6.60
   5  -2 -13 1619.54  103.19
  -5  -2  13 1447.36  105.19
  -5  -2  13 1688.43  104.59
   5  -2 -13 1532.95  103.29
   5   2 -13 1621.14  103.19
  -4  -2  13   71.99   11.20
  -4  -2  13   67.39   10.90
   4  -2 -13   77.49    9.20
   4  -2 -13   85.39    9.00
   4   2 -13   93.39    8.80
  -4   2  13   77.89   11.90
  -4   2  13   64.49    9.60
  -3  -2  13  455.75   36.30
   3  -2 -13  532.55   35.30
  -3  -2  13  570.84   36.60
   3   2 -13  509.55   34.80
  -3   2  13  442.86   36.10
  -3   2  13  579.14   37.90
  -2  -2  13   15.20    5.50
   2  -2 -13   21.00    4.30
  -2   2  13   20.30    5.50
   2   2 -13   11.30    3.90
  -2   2  13    6.00    4.20
   2   2 -13   17.80    3.80
  -1  -2  13  293.17   20.80
  -1  -2  13  303.67   22.60
   1  -2 -13  278.57   21.00
   1  -2 -13  322.17   21.60
   1   2 -13  309.57   20.70
  -1   2  13  283.17   21.50
  -1   2  13  325.67   21.70
   1   2 -13  251.77   21.00
   0  -2 -13   45.30    6.60
   0  -2  13   44.40    6.90
   0  -2 -13   46.30    7.00
   0  -2  13   41.50    5.90
   0   2  13   36.90    5.70
   0   2 -13   37.30    5.40
   0   2 -13   32.40    5.00
   1  -2  13   42.90    6.50
  -1  -2 -13   47.50    7.20
  -1  -2 -13   45.20    6.70
   1  -2  13   50.79    7.90
   1   2  13   45.60    6.70
   1   2  13   40.80    6.00
  -1   2 -13   51.39    6.30
   2  -2  13    3.20    3.60
  -2  -2 -13    9.00    4.80
   2  -2  13    5.90    4.30
   2   2  13    8.00    4.00
  -2   2 -13   10.80    3.40
   2   2  13    3.20    4.00
   3  -2  13  628.04   40.00
  -3  -2 -13  573.64   40.50
  -3   2 -13  597.44   38.70
  -3   2 -13  484.55   39.40
   3   2  13  614.94   39.30
   3   2  13  569.24   39.70
   4  -2  13  214.08   17.50
  -4  -2 -13  194.78   18.40
  -4   2 -13  193.48   14.70
  -4   2 -13  179.48   16.40
   4   2  13  230.98   16.30
   4   2  13  184.68   16.00
  -4  -3  13  189.48   18.60
  -4  -3  13  236.78   19.60
   4  -3 -13  213.68   17.50
  -4   3  13  229.18   23.30
   4   3 -13  213.98   16.00
  -4   3  13  197.18   17.10
   3  -3 -13    7.90    4.20
  -3  -3  13    9.90    5.90
  -3   3  13    1.80    4.10
   3   3 -13    5.20    3.50
  -3   3  13   14.80    7.80
   3   3 -13    4.00    3.30
  -2  -3  13   -5.30    5.50
   2  -3 -13   -0.80    3.70
   2   3 -13    0.40    3.00
   2   3 -13   -0.10    5.00
  -2   3  13    4.30    6.00
  -2   3  13    3.00    4.70
   1  -3 -13 1463.05   91.69
  -1  -3  13 1374.26   92.49
  -1   3  13 1331.77   91.19
   1   3 -13 1271.57   90.99
   1   3 -13 1546.45   92.59
   0  -3 -13  469.85   35.40
   0  -3 -13  419.76   32.30
   0  -3  13  464.05   33.20
   0  -3  13  492.45   31.40
   0   3  13  470.45   31.80
   0   3 -13  440.96   31.60
  -1  -3 -13  757.92   54.29
  -1  -3 -13  832.02   54.19
   1  -3  13  758.42   56.49
   1  -3  13  818.02   53.19
  -1   3 -13  806.42   53.39
   1   3  13  831.22   53.39
   2  -3  13   50.89    7.60
   2  -3  13   53.79    8.50
  -2  -3 -13   41.10    7.00
  -2  -3 -13   40.70    8.10
  -2   3 -13   42.80    6.00
   2   3  13   64.99    7.30
   3  -3  13  434.26   29.20
   3  -3  13  420.66   29.50
  -3  -3 -13  378.46   31.00
  -3   3 -13  385.96   27.90
   3   3  13  388.16   28.90
   3   3  13  423.66   28.50
  -2  -4  13    5.80    6.50
   2  -4 -13   -2.80    4.40
  -2   4  13   -1.40    3.80
   2   4 -13    1.20    3.30
   1  -4 -13  183.08   15.10
  -1  -4  13  158.58   16.70
   1   4 -13  160.78   14.00
  -1   4  13  179.68   14.40
   0  -4 -13   32.40    6.40
   0  -4  13   27.90    7.30
   0   4 -13   46.90    7.10
   0   4  13   30.90    5.50
  -1  -4 -13   76.59   12.60
  -1  -4 -13   90.69   10.60
   1  -4  13   98.89   11.70
  -1   4 -13   96.19    9.70
   1   4  13   92.19    9.60
  -2  -4 -13    3.30    5.10
   2  -4  13   10.20    4.90
   2  -4  13   14.30    5.60
  -2  -4 -13    9.50    7.00
  -2   4 -13   -1.90    4.00
  -3   0  14   41.70    7.80
   3   0 -14   52.89    7.20
   3   0 -14   38.10   10.00
   2   0 -14   31.70    5.50
   2   0 -14   41.70    5.50
   2   0 -14   27.90    5.00
   1   0 -14  151.58   13.50
   1   0 -14  182.48   14.20
   1   0 -14  156.28   13.90
   1   0 -14  210.28   14.30
   0   0  14   57.89    7.80
   0   0 -14   48.10    6.70
   0   0 -14   46.20    7.10
   0   0 -14   39.10    5.50
   0   0  14   54.69    7.00
  -1   0 -14   30.80    4.60
   1   0  14   42.80    6.70
   1   0  14   32.40    5.10
  -1   0 -14   27.80    5.30
   3   0  14  314.37   22.00
  -3   0 -14  261.07   21.90
   3  -1 -14   17.30    4.50
   3  -1 -14    8.70    4.40
  -3  -1  14   18.10    6.10
  -3  -1  14   20.70    5.70
   3   1 -14   17.40    4.80
  -3   1  14   10.10    6.90
   2  -1 -14 1502.15   92.69
  -2  -1  14 1340.77   92.89
  -2   1  14 1421.86   93.39
  -2   1  14 1217.58   93.09
   2   1 -14 1583.74   92.29
   2   1 -14 1434.26   92.49
  -1  -1  14  259.67   20.30
   1  -1 -14  303.17   19.80
   1  -1 -14  225.68   19.30
   1   1 -14  224.38   19.10
  -1   1  14  245.58   20.10
   1   1 -14  307.37   19.50
   1   1 -14  280.27   19.40
  -1   1  14  263.17   19.80
   0  -1 -14  605.34   42.40
   0  -1 -14  581.74   41.70
   0  -1 -14  730.03   43.00
   0  -1  14  646.34   42.30
   0  -1  14  667.23   43.20
   0   1  14  605.04   42.70
   0   1 -14  602.24   42.00
   0   1 -14  525.85   42.20
   0   1 -14  697.33   42.20
   1  -1  14   10.50    3.90
  -1  -1 -14    7.90    4.50
  -1   1 -14   10.70    3.60
   1   1  14   15.30    4.90
  -1   1 -14    9.00    5.50
  -2  -1 -14   54.19    9.10
   2  -1  14   72.79    8.50
   2   1  14   72.09   10.00
   2   1  14   87.99    9.30
  -2   1 -14   88.59    8.10
  -2   1 -14   62.99    8.60
   2  -2 -14   10.30    4.70
  -2  -2  14   -6.10    5.40
   2   2 -14    6.90    3.50
  -2   2  14    5.60    5.70
  -2   2  14   -0.80    4.60
   2   2 -14    5.30    3.70
  -1  -2  14   48.40    7.90
   1   2 -14   58.99    7.20
   1   2 -14   49.90    9.90
   0  -2  14   23.10    7.60
   0  -2 -14   33.70    5.80
   0  -2  14   25.80    4.80
   0  -2 -14   23.80    5.60
   0   2  14   35.30    6.00
   0   2 -14   23.40    4.80
   1  -2  14    7.40    4.00
   1  -2  14    6.40    5.00
  -1  -2 -14    7.80    5.00
  -1  -2 -14    7.40    4.80
  -1   2 -14   10.40    3.90
   1   2  14   11.70    5.00
  -2  -2 -14  230.48   17.40
   2   2  14  194.88   15.70
  -2   2 -14  162.08   15.70
   0   0   0    0.00    0.00

_computing_structure_solution     'SHELXT 2014/5 (Sheldrick, 2014)'
;
_shelx_hkl_checksum              93625
loop_
_space_group_symop_operation_xyz
'x, y, z'
'-x, y+1/2, -z+1/2'
'-x, -y, -z'
'x, -y-1/2, z-1/2'
loop_
_atom_site_label
_atom_site_type_symbol
_atom_site_fract_x
_atom_site_fract_y
_atom_site_fract_z
_atom_site_U_iso_or_equiv
_atom_site_adp_type
_atom_site_occupancy
_atom_site_site_symmetry_order
_atom_site_calc_flag
La1 La 0.44755(3) 0.83546(4) 0.65379(2) 0.00949(16) Uani 1 1 d
Cs1 Cs 0.06895(4) 0.15338(5) 0.84231(3) 0.01920(16) Uani 1 1 d
Cr1 Cr 0.67511(9) 0.66246(9) 0.38898(7) 0.0090(2) Uani 1 1 d
O1 O 0.6230(4) 0.6785(4) 0.5266(3) 0.0183(8) Uani 1 1 d
Cr2 Cr 0.23493(10) 0.67024(9) 0.91522(7) 0.0108(2) Uani 1 1 d
O2 O 0.5889(4) 0.4979(4) 0.3165(3) 0.0153(7) Uani 1 1 d
O3 O 0.8464(4) 0.6403(5) 0.3871(3) 0.0184(8) Uani 1 1 d
O4 O 0.6284(4) 0.8403(4) 0.3080(3) 0.0150(7) Uani 1 1 d
O5 O 0.3822(4) 0.5481(5) 0.9437(3) 0.0182(8) Uani 1 1 d
O7 O 0.2185(4) 0.7737(5) 1.0426(3) 0.0200(8) Uani 1 1 d
O8 O 0.2606(4) 0.8118(5) 0.8051(3) 0.0202(8) Uani 1 1 d
O6 O 0.0978(4) 0.5504(5) 0.8852(4) 0.0277(9) Uani 1 1 d
loop_
_atom_site_aniso_label
_atom_site_aniso_U_11
_atom_site_aniso_U_22
_atom_site_aniso_U_33
_atom_site_aniso_U_23
_atom_site_aniso_U_13
_atom_site_aniso_U_12
La1 0.0092(2) 0.0105(2) 0.0089(2) -0.00030(8) 0.00150(13) -0.00065(8)
Cs1 0.0158(2) 0.0231(2) 0.0188(2) 0.00179(11) 0.00170(15) -0.00269(12)
Cr1 0.0090(4) 0.0099(4) 0.0081(4) 0.0005(2) 0.0016(3) 0.0011(2)
O1 0.021(2) 0.0225(19) 0.0124(17) -0.0002(13) 0.0062(15) 0.0059(14)
Cr2 0.0104(5) 0.0129(4) 0.0093(4) 0.0000(2) 0.0017(3) 0.0012(3)
O2 0.0174(18) 0.0128(16) 0.0155(16) 0.0010(13) -0.0048(14) -0.0022(14)
O3 0.0099(17) 0.0233(18) 0.0220(19) 0.0010(14) 0.0027(14) 0.0013(14)
O4 0.0179(19) 0.0135(16) 0.0137(17) 0.0010(12) 0.0010(14) 0.0009(13)
O5 0.0176(18) 0.0220(18) 0.0150(16) 0.0007(14) 0.0011(14) 0.0098(15)
O7 0.0189(18) 0.0257(19) 0.0156(16) -0.0045(15) 0.0011(14) 0.0067(16)
O8 0.022(2) 0.0202(17) 0.0184(18) 0.0054(14) 0.0087(16) 0.0045(15)
O6 0.026(2) 0.028(2) 0.029(2) 0.0036(17) -0.0065(18) -0.0087(17)
loop_
_atom_type_symbol
_atom_type_description
_atom_type_scat_dispersion_real
_atom_type_scat_dispersion_imag
_atom_type_scat_source
Cr Cr 0.3209 0.6236 'International Tables Vol C Tables 4.2.6.8 and 6.1.1.4'
Cs Cs -0.3680 2.1192 'International Tables Vol C Tables 4.2.6.8 and 6.1.1.4'
La La -0.2871 2.4523 'International Tables Vol C Tables 4.2.6.8 and 6.1.1.4'
O O 0.0106 0.0060 'International Tables Vol C Tables 4.2.6.8 and 6.1.1.4'
loop_
_geom_angle_atom_site_label_1
_geom_angle_atom_site_label_2
_geom_angle_atom_site_label_3
_geom_angle
_geom_angle_site_symmetry_1
_geom_angle_site_symmetry_3
O8 La1 O1 147.40(12) . .
O8 La1 O5 143.70(12) . 2_656
O1 La1 O5 68.01(11) . 2_656
O8 La1 O2 84.60(13) . 4_576
O1 La1 O2 107.94(12) . 4_576
O5 La1 O2 71.17(11) 2_656 4_576
O8 La1 O2 75.00(12) . 3_666
O1 La1 O2 72.52(12) . 3_666
O5 La1 O2 140.11(12) 2_656 3_666
O2 La1 O2 117.34(7) 4_576 3_666
O8 La1 O5 119.94(12) . 4_575
O1 La1 O5 77.40(12) . 4_575
O5 La1 O5 61.50(13) 2_656 4_575
O2 La1 O5 126.20(11) 4_576 4_575
O2 La1 O5 115.20(11) 3_666 4_575
O8 La1 O7 73.59(12) . 4_575
O1 La1 O7 96.87(13) . 4_575
O5 La1 O7 121.09(11) 2_656 4_575
O2 La1 O7 155.17(12) 4_576 4_575
O2 La1 O7 68.75(11) 3_666 4_575
O5 La1 O7 59.64(11) 4_575 4_575
O8 La1 O4 75.72(12) . 3_676
O1 La1 O4 136.87(11) . 3_676
O5 La1 O4 69.43(12) 2_656 3_676
O2 La1 O4 63.48(11) 4_576 3_676
O2 La1 O4 150.43(12) 3_666 3_676
O5 La1 O4 76.65(11) 4_575 3_676
O7 La1 O4 98.95(12) 4_575 3_676
O8 La1 O4 88.04(12) . 4_576
O1 La1 O4 74.18(11) . 4_576
O5 La1 O4 101.43(11) 2_656 4_576
O2 La1 O4 59.26(11) 4_576 4_576
O2 La1 O4 61.41(10) 3_666 4_576
O5 La1 O4 150.92(11) 4_575 4_576
O7 La1 O4 129.82(11) 4_575 4_576
O4 La1 O4 121.54(7) 3_676 4_576
O8 La1 Cr2 97.81(10) . 4_575
O1 La1 Cr2 85.38(9) . 4_575
O5 La1 Cr2 91.65(8) 2_656 4_575
O2 La1 Cr2 151.20(8) 4_576 4_575
O2 La1 Cr2 90.77(7) 3_666 4_575
O5 La1 Cr2 30.28(8) 4_575 4_575
O7 La1 Cr2 29.43(8) 4_575 4_575
O4 La1 Cr2 89.16(8) 3_676 4_575
O4 La1 Cr2 149.16(7) 4_576 4_575
O8 La1 Cr1 84.49(10) . 4_576
O1 La1 Cr1 92.33(9) . 4_576
O5 La1 Cr1 86.85(8) 2_656 4_576
O2 La1 Cr1 29.42(8) 4_576 4_576
O2 La1 Cr1 89.19(7) 3_666 4_576
O5 La1 Cr1 148.33(8) 4_575 4_576
O7 La1 Cr1 152.03(8) 4_575 4_576
O4 La1 Cr1 92.05(8) 3_676 4_576
O4 La1 Cr1 29.90(7) 4_576 4_576
Cr2 La1 Cr1 177.61(2) 4_575 4_576
O8 La1 Cs1 131.72(9) . 2_656
O1 La1 Cs1 39.23(9) . 2_656
O5 La1 Cs1 64.97(8) 2_656 2_656
O2 La1 Cs1 70.25(8) 4_576 2_656
O2 La1 Cs1 80.95(8) 3_666 2_656
O5 La1 Cs1 108.09(8) 4_575 2_656
O7 La1 Cs1 133.69(9) 4_575 2_656
O4 La1 Cs1 122.73(9) 3_676 2_656
O4 La1 Cs1 43.72(8) 4_576 2_656
Cr2 La1 Cs1 124.018(17) 4_575 2_656
Cr1 La1 Cs1 53.627(14) 4_576 2_656
O6 Cs1 O6 115.05(10) . 2_546
O6 Cs1 O7 80.26(11) . 3_567
O6 Cs1 O7 88.04(10) 2_546 3_567
O6 Cs1 O3 137.53(11) . 4_466
O6 Cs1 O3 67.88(11) 2_546 4_466
O7 Cs1 O3 57.27(10) 3_567 4_466
O6 Cs1 O3 81.88(10) . 2_646
O6 Cs1 O3 156.28(10) 2_546 2_646
O7 Cs1 O3 78.26(9) 3_567 2_646
O3 Cs1 O3 88.41(10) 4_466 2_646
O6 Cs1 O3 67.43(10) . 3_666
O6 Cs1 O3 64.80(10) 2_546 3_666
O7 Cs1 O3 120.11(10) 3_567 3_666
O3 Cs1 O3 132.68(5) 4_466 3_666
O3 Cs1 O3 138.91(10) 2_646 3_666
O6 Cs1 O8 140.64(11) . 1_545
O6 Cs1 O8 87.63(10) 2_546 1_545
O7 Cs1 O8 134.90(10) 3_567 1_545
O3 Cs1 O8 79.70(10) 4_466 1_545
O3 Cs1 O8 88.50(10) 2_646 1_545
O3 Cs1 O8 98.09(10) 3_666 1_545
O6 Cs1 O1 78.16(10) . 2_646
O6 Cs1 O1 146.14(10) 2_546 2_646
O7 Cs1 O1 125.66(9) 3_567 2_646
O3 Cs1 O1 124.58(9) 4_466 2_646
O3 Cs1 O1 49.74(9) 2_646 2_646
O3 Cs1 O1 95.98(9) 3_666 2_646
O8 Cs1 O1 66.81(10) 1_545 2_646
O6 Cs1 O4 89.62(10) . 3_666
O6 Cs1 O4 90.02(10) 2_546 3_666
O7 Cs1 O4 167.74(9) 3_567 3_666
O3 Cs1 O4 132.54(9) 4_466 3_666
O3 Cs1 O4 107.32(9) 2_646 3_666
O3 Cs1 O4 48.65(9) 3_666 3_666
O8 Cs1 O4 57.05(9) 1_545 3_666
O1 Cs1 O4 57.83(9) 2_646 3_666
O6 Cs1 O8 79.55(9) . 2_546
O6 Cs1 O8 45.73(9) 2_546 2_546
O7 Cs1 O8 52.74(9) 3_567 2_546
O3 Cs1 O8 75.37(9) 4_466 2_546
O3 Cs1 O8 129.69(9) 2_646 2_546
O3 Cs1 O8 72.14(9) 3_666 2_546
O8 Cs1 O8 132.63(8) 1_545 2_546
O1 Cs1 O8 157.44(8) 2_646 2_546
O4 Cs1 O8 118.80(8) 3_666 2_546
O6 Cs1 Cr1 78.81(7) . 2_646
O6 Cs1 Cr1 164.53(7) 2_546 2_646
O7 Cs1 Cr1 101.65(7) 3_567 2_646
O3 Cs1 Cr1 107.17(7) 4_466 2_646
O3 Cs1 Cr1 24.49(7) 2_646 2_646
O3 Cs1 Cr1 118.45(7) 3_666 2_646
O8 Cs1 Cr1 76.98(7) 1_545 2_646
O1 Cs1 Cr1 25.25(6) 2_646 2_646
O4 Cs1 Cr1 82.97(6) 3_666 2_646
O8 Cs1 Cr1 149.00(6) 2_546 2_646
O6 Cs1 Cr1 72.30(8) . 3_666
O6 Cs1 Cr1 80.78(8) 2_546 3_666
O7 Cs1 Cr1 142.16(7) 3_567 3_666
O3 Cs1 Cr1 143.56(7) 4_466 3_666
O3 Cs1 Cr1 121.62(7) 2_646 3_666
O3 Cs1 Cr1 24.06(7) 3_666 3_666
O8 Cs1 Cr1 80.92(7) 1_545 3_666
O1 Cs1 Cr1 73.79(6) 2_646 3_666
O4 Cs1 Cr1 25.78(6) 3_666 3_666
O8 Cs1 Cr1 96.17(6) 2_546 3_666
Cr1 Cs1 Cr1 98.07(2) 2_646 3_666
O3 Cr1 O1 110.0(2) . .
O3 Cr1 O4 108.71(19) . .
O1 Cr1 O4 111.91(17) . .
O3 Cr1 O2 112.30(19) . .
O1 Cr1 O2 111.14(19) . .
O4 Cr1 O2 102.60(18) . .
O3 Cr1 La1 126.91(14) . 4_575
O1 Cr1 La1 123.08(15) . 4_575
O4 Cr1 La1 54.35(12) . 4_575
O2 Cr1 La1 48.36(12) . 4_575
O3 Cr1 Cs1 53.44(14) . 2_656
O1 Cr1 Cs1 56.55(15) . 2_656
O4 Cr1 Cs1 126.49(13) . 2_656
O2 Cr1 Cs1 130.83(12) . 2_656
La1 Cr1 Cs1 179.11(2) 4_575 2_656
O3 Cr1 Cs1 52.48(13) . 3_666
O1 Cr1 Cs1 144.92(14) . 3_666
O4 Cr1 Cs1 59.96(13) . 3_666
O2 Cr1 Cs1 103.90(13) . 3_666
La1 Cr1 Cs1 81.87(2) 4_575 3_666
Cs1 Cr1 Cs1 98.83(2) 2_656 3_666
Cr1 O1 La1 142.2(2) . .
Cr1 O1 Cs1 98.20(17) . 2_656
La1 O1 Cs1 111.12(12) . 2_656
O6 Cr2 O7 111.1(2) . .
O6 Cr2 O8 109.9(2) . .
O7 Cr2 O8 111.17(19) . .
O6 Cr2 O5 112.1(2) . .
O7 Cr2 O5 101.08(18) . .
O8 Cr2 O5 111.23(19) . .
O6 Cr2 La1 128.80(15) . 4_576
O7 Cr2 La1 50.63(13) . 4_576
O8 Cr2 La1 121.28(15) . 4_576
O5 Cr2 La1 50.62(12) . 4_576
O6 Cr2 Cs1 43.96(14) . 2_556
O7 Cr2 Cs1 124.33(13) . 2_556
O8 Cr2 Cs1 66.14(14) . 2_556
O5 Cr2 Cs1 132.94(12) . 2_556
La1 Cr2 Cs1 171.47(3) 4_576 2_556
O6 Cr2 Cs1 99.75(15) . 1_565
O7 Cr2 Cs1 72.61(13) . 1_565
O8 Cr2 Cs1 47.80(13) . 1_565
O5 Cr2 Cs1 147.40(13) . 1_565
La1 Cr2 Cs1 113.33(2) 4_576 1_565
Cs1 Cr2 Cs1 67.782(15) 2_556 1_565
O6 Cr2 Cs1 76.39(16) . 3_567
O7 Cr2 Cs1 37.20(13) . 3_567
O8 Cr2 Cs1 113.09(13) . 3_567
O5 Cr2 Cs1 127.98(12) . 3_567
La1 Cr2 Cs1 83.130(19) 4_576 3_567
Cs1 Cr2 Cs1 89.98(2) 2_556 3_567
Cs1 Cr2 Cs1 65.314(14) 1_565 3_567
O6 Cr2 Cs1 32.49(15) . .
O7 Cr2 Cs1 124.09(14) . .
O8 Cr2 Cs1 120.43(14) . .
O5 Cr2 Cs1 79.89(13) . .
La1 Cr2 Cs1 110.57(2) 4_576 .
Cs1 Cr2 Cs1 65.541(15) 2_556 .
Cs1 Cr2 Cs1 130.72(3) 1_565 .
Cs1 Cr2 Cs1 99.566(19) 3_567 .
Cr1 O2 La1 102.23(15) . 4_575
Cr1 O2 La1 136.74(17) . 3_666
La1 O2 La1 120.61(13) 4_575 3_666
Cr1 O3 Cs1 138.59(19) . 4_665
Cr1 O3 Cs1 102.07(16) . 2_656
Cs1 O3 Cs1 91.59(10) 4_665 2_656
Cr1 O3 Cs1 103.47(16) . 3_666
Cs1 O3 Cs1 92.17(10) 4_665 3_666
Cs1 O3 Cs1 136.22(13) 2_656 3_666
Cr1 O4 La1 137.60(18) . 3_676
Cr1 O4 La1 95.76(14) . 4_575
La1 O4 La1 113.47(13) 3_676 4_575
Cr1 O4 Cs1 94.26(15) . 3_666
La1 O4 Cs1 108.07(11) 3_676 3_666
La1 O4 Cs1 101.81(10) 4_575 3_666
Cr2 O5 La1 141.99(18) . 2_646
Cr2 O5 La1 99.10(15) . 4_576
La1 O5 La1 118.50(13) 2_646 4_576
Cr2 O7 La1 99.94(16) . 4_576
Cr2 O7 Cs1 123.89(18) . 3_567
La1 O7 Cs1 125.33(13) 4_576 3_567
Cr2 O8 La1 132.7(2) . .
Cr2 O8 Cs1 109.46(16) . 1_565
La1 O8 Cs1 116.24(12) . 1_565
Cr2 O8 Cs1 89.35(15) . 2_556
La1 O8 Cs1 108.34(12) . 2_556
Cs1 O8 Cs1 81.70(9) 1_565 2_556
Cr2 O6 Cs1 131.2(2) . .
Cr2 O6 Cs1 114.76(19) . 2_556
Cs1 O6 Cs1 94.49(11) . 2_556
loop_
_geom_bond_atom_site_label_1
_geom_bond_atom_site_label_2
_geom_bond_distance
_geom_bond_site_symmetry_2
La1 O8 2.474(4) .
La1 O1 2.501(4) .
La1 O5 2.530(3) 2_656
La1 O2 2.554(3) 4_576
La1 O2 2.565(3) 3_666
La1 O5 2.573(3) 4_575
La1 O7 2.579(4) 4_575
La1 O4 2.589(3) 3_676
La1 O4 2.728(4) 4_576
La1 Cr2 3.2866(9) 4_575
La1 Cr1 3.3399(10) 4_576
La1 Cs1 4.7166(7) 2_656
Cs1 O6 3.049(4) .
Cs1 O6 3.052(4) 2_546
Cs1 O7 3.060(4) 3_567
Cs1 O3 3.090(4) 4_466
Cs1 O3 3.116(4) 2_646
Cs1 O3 3.129(4) 3_666
Cs1 O8 3.174(4) 1_545
Cs1 O1 3.198(4) 2_646
Cs1 O4 3.330(4) 3_666
Cs1 O8 3.652(4) 2_546
Cs1 Cr1 3.7933(10) 2_646
Cs1 Cr1 3.8363(8) 3_666
Cr1 O3 1.608(4) .
Cr1 O1 1.635(4) .
Cr1 O4 1.673(3) .
Cr1 O2 1.678(3) .
Cr2 O6 1.596(4) .
Cr2 O7 1.640(3) .
Cr2 O8 1.656(4) .
Cr2 O5 1.678(3) .
