#------------------------------------------------------------------------------
#$Date: 2016-02-16 22:30:59 +0200 (Tue, 16 Feb 2016) $
#$Revision: 176467 $
#$URL: svn://www.crystallography.net/cod/cif/4/34/09/4340937.cif $
#------------------------------------------------------------------------------
#
# This file is available in the Crystallography Open Database (COD),
# http://www.crystallography.net/
#
# All data on this site have been placed in the public domain by the
# contributors.
#
data_4340937
loop_
_publ_author_name
'Habjani\<c, Jelena'
'Juri\'c, Marijana'
'Popovi\'c, Jasminka'
'Mol\<canov, Kre\<simir'
'Paji\'c, Damir'
_publ_section_title
;
 A 3D oxalate-based network as a precursor for the CoMn&#x2082;O&#x2084;
 spinel: synthesis and structural and magnetic studies.
;
_journal_issue                   18
_journal_name_full               'Inorganic chemistry'
_journal_page_first              9633
_journal_page_last               9643
_journal_paper_doi               10.1021/ic501134y
_journal_volume                  53
_journal_year                    2014
_chemical_formula_structural
;
Co Mn2 O4
;
_chemical_formula_sum            'Co Mn2 O4'
_chemical_formula_weight         232.805
_chemical_name_systematic
;
Cobalt Dimanganese(III) Oxide
;
_space_group_IT_number           141
_symmetry_Int_Tables_number      141
_symmetry_space_group_name_Hall  '-I 4bd 2'
_symmetry_space_group_name_H-M   'I 41/a m d :2'
_audit_creation_date             '2.7.2014 13:49:01'
_audit_creation_method           'Generated by X_Pert HighScore Plus 2.1.0'
_cell_angle_alpha                90
_cell_angle_beta                 90
_cell_angle_gamma                90
_cell_formula_units_Z            4
_cell_length_a                   5.7235(2)
_cell_length_b                   5.7235(2)
_cell_length_c                   9.2695(5)
_cell_measurement_temperature    296(2)
_cell_volume                     303.65(2)
_computing_cell_refinement       EXPO2011
_computing_molecular_graphics    VESTA
_computing_structure_refinement  'HighScore Xpert Plus, ver. 2.1'
_diffrn_ambient_temperature      296(2)
_diffrn_measurement_device_type  'Philips MPD 1880'
_diffrn_radiation_type           CuK\a
_diffrn_radiation_wavelength     1.54176
_diffrn_source_target            Cu
_exptl_crystal_colour            blue
_exptl_crystal_density_method    'not measured'
_exptl_crystal_description       powder
_pd_meas_2theta_range_inc        0.02
_pd_meas_2theta_range_max        70
_pd_meas_2theta_range_min        10
_pd_meas_number_of_points        2800
_pd_meas_scan_method             'Continuous absolute scan'
_pd_proc_ls_background_function  'polynomial of degree 7'
_pd_proc_ls_profile_function     'Pseudo Voigh '
_pd_proc_ls_prof_R_factor        0.02472
_pd_proc_ls_prof_wR_factor       0.03458
_pd_proc_number_of_points        2800
_refine_ls_number_constraints    8
_refine_ls_shift/su_max          0.01
_refine_ls_weighting_details     1/[Y~i~+\s(Y~i~)]
_refine_ls_weighting_scheme      sigma
_reflns_d_resolution_high        1.359
_reflns_d_resolution_low         4.914
_reflns_limit_h_max              2
_reflns_limit_h_min              0
_reflns_limit_k_max              4
_reflns_limit_k_min              0
_reflns_limit_l_max              6
_reflns_limit_l_min              0
_reflns_number_observed          48
_cod_data_source_file            ic501134y_si_003.cif
_cod_data_source_block
;
;
_cod_depositor_comments
'Adding full bibliography for 4340936--4340937.cif.'
_cod_original_cell_volume        303.65(3)
_cod_original_sg_symbol_H-M      'I 41/a m d'
_cod_original_formula_sum
;
Co1 Mn2 O4
;
_cod_database_code               4340937
#BEGIN Tags that were not found in dictionaries:
_xact_pref_orient_vector_k       0.00000000
_xact_pref_orient_vector_l       1.00000000
_xact_pref_orient_param          1.033(2)
_xact_scale_factor               0.0000592(3)
_xact_cagliotti_u                0.09(3)
_xact_cagliotti_v                -0.02(1)
_xact_cagliotti_w                0.144(1)
_xact_shape_param_1              0.58(2)
_xact_shape_param_2              0.009(1)
_xact_shape_param_3              0.000000
_xact_asym_param_1               0.0043(1)
_xact_asym_param_2               0.000000
#END Tags that were not found in dictionaries
loop_
_symmetry_equiv_pos_as_xyz
'x, y, z'
'-x, -y, -z'
'-x+1/2, -y, z+1/2'
'x+1/2, y, -z+1/2'
'-y+1/4, x+3/4, z+1/4'
'y+3/4, -x+1/4, -z+3/4'
'y+1/4, -x+1/4, z+3/4'
'-y+3/4, x+3/4, -z+1/4'
'-x+1/2, y, -z+1/2'
'x+1/2, -y, z+1/2'
'x, -y, -z'
'-x, y, z'
'y+1/4, x+3/4, -z+1/4'
'-y+3/4, -x+1/4, z+3/4'
'-y+1/4, -x+1/4, -z+3/4'
'y+3/4, x+3/4, z+1/4'
'x+1/2, y+1/2, z+1/2'
'-x+1/2, -y+1/2, -z+1/2'
'-x, -y+1/2, z'
'x, y+1/2, -z'
'-y+3/4, x+1/4, z+3/4'
'y+1/4, -x+3/4, -z+1/4'
'y+3/4, -x+3/4, z+1/4'
'-y+1/4, x+1/4, -z+3/4'
'-x, y+1/2, -z'
'x, -y+1/2, z'
'x+1/2, -y+1/2, -z+1/2'
'-x+1/2, y+1/2, z+1/2'
'y+3/4, x+1/4, -z+3/4'
'-y+1/4, -x+3/4, z+1/4'
'-y+3/4, -x+3/4, -z+1/4'
'y+1/4, x+1/4, z+3/4'
loop_
_atom_site_aniso_label
_atom_site_aniso_U_11
_atom_site_aniso_U_22
_atom_site_aniso_U_33
_atom_site_aniso_U_23
_atom_site_aniso_U_13
_atom_site_aniso_U_12
Co1 0.000000 0.000000 0.000000 0.000000 0.000000 0.000000
Mn1 0.000000 0.000000 0.000000 0.000000 0.000000 0.000000
Co2 0.000000 0.000000 0.000000 0.000000 0.000000 0.000000
Mn2 0.000000 0.000000 0.000000 0.000000 0.000000 0.000000
O1 0.000000 0.000000 0.000000 0.000000 0.000000 0.000000
loop_
_atom_site_label
_atom_site_type_symbol
_atom_site_fract_x
_atom_site_fract_y
_atom_site_fract_z
_atom_site_occupancy
_atom_site_thermal_displace_type
_atom_site_U_iso_or_equiv
_atom_site_symmetry_multiplicity
_atom_site_Wyckoff_symbol
Co1 Co 0.000000 0.250000 0.875 0.79(2) Uiso 0.71(2) 4 a
Mn1 Mn 0.000000 0.250000 0.875 0.21(4) Uiso 0.71(2) 4 a
Co2 Co 0.000000 0.500000 0.500000 0.105(9) Uiso 0.36(2) 8 d
Mn2 Mn 0.000000 0.500000 0.500000 0.895(9) Uiso 0.36(2) 8 d
O1 O 0.000000 0.4848(4) 0.2599(3) 1.00000 Uiso 0.61(1) 16 h
loop_
_geom_bond_atom_site_label_1
_geom_bond_atom_site_label_2
_geom_bond_distance
Co1 O1 1.996(2)
Co2 O1 2.227(3)
loop_
_pd_proc_point_id
_pd_proc_2theta_corrected
_pd_meas_intensity_total
_pd_proc_intensity_bgk_calc
_pd_calc_intensity_total
1 14.020000 408.0400 415.3459 415.3459
2 14.040000 404.0100 414.6873 414.6873
3 14.060000 404.0100 414.0295 414.0295
4 14.080000 404.0100 413.3727 413.3727
5 14.100000 404.0100 412.7167 412.7167
6 14.120000 404.0100 412.0616 412.0616
7 14.140000 404.0100 411.4074 411.4074
8 14.160000 404.0100 410.7540 410.7540
9 14.180000 400.0000 410.1015 410.1015
10 14.200000 400.0000 409.4499 409.4499
11 14.220000 400.0000 408.7992 408.7992
12 14.240000 400.0000 408.1492 408.1492
13 14.260000 396.0100 407.5003 407.5003
14 14.280000 396.0100 406.8521 406.8521
15 14.300000 396.0100 406.2048 406.2048
16 14.320000 396.0100 405.5584 405.5584
17 14.340000 396.0100 404.9129 404.9129
18 14.360000 396.0100 404.2682 404.2682
19 14.380000 396.0100 403.6244 403.6244
20 14.400000 392.0400 402.9814 402.9814
21 14.420000 396.0100 402.3393 402.3393
22 14.440000 392.0400 401.6980 401.6980
23 14.460000 392.0400 401.0577 401.0577
24 14.480000 392.0400 400.4182 400.4182
25 14.500000 392.0400 399.7795 399.7795
26 14.520000 392.0400 399.1417 399.1417
27 14.540000 392.0400 398.5048 398.5048
28 14.560000 392.0400 397.8687 397.8687
29 14.580000 388.0900 397.2335 397.2335
30 14.600000 392.0400 396.5991 396.5991
31 14.620000 388.0900 395.9656 395.9656
32 14.640000 388.0900 395.3329 395.3329
33 14.660000 384.1600 394.7011 394.7011
34 14.680000 384.1600 394.0701 394.0701
35 14.700000 388.0900 393.4400 393.4400
36 14.720000 384.1600 392.8108 392.8108
37 14.740000 384.1600 392.1824 392.1824
38 14.760000 384.1600 391.5548 391.5548
39 14.780000 384.1600 390.9281 390.9281
40 14.800000 384.1600 390.3022 390.3022
41 14.820000 384.1600 389.6772 389.6772
42 14.840000 384.1600 389.0531 389.0531
43 14.860000 380.2500 388.4297 388.4297
44 14.880000 384.1600 387.8073 387.8073
45 14.900000 384.1600 387.1856 387.1856
46 14.920000 380.2500 386.5649 386.5649
47 14.940000 380.2500 385.9449 385.9449
48 14.960000 380.2500 385.3258 385.3258
49 14.980000 380.2500 384.7076 384.7076
50 15.000000 376.3600 384.0901 384.0901
51 15.020000 376.3600 383.4735 383.4735
52 15.040000 376.3600 382.8578 382.8578
53 15.060000 376.3600 382.2429 382.2429
54 15.080000 376.3600 381.6288 381.6288
55 15.100000 376.3600 381.0156 381.0156
56 15.120000 376.3600 380.4032 380.4032
57 15.140000 372.4900 379.7917 379.7917
58 15.160000 376.3600 379.1809 379.1809
59 15.180000 376.3600 378.5710 378.5710
60 15.200000 372.4900 377.9620 377.9620
61 15.220000 372.4900 377.3538 377.3538
62 15.240000 364.8100 376.7464 376.7464
63 15.260000 364.8100 376.1398 376.1398
64 15.280000 372.4900 375.5341 375.5341
65 15.300000 372.4900 374.9292 374.9292
66 15.320000 372.4900 374.3251 374.3251
67 15.340000 368.6400 373.7219 373.7219
68 15.360000 372.4900 373.1195 373.1195
69 15.380000 368.6400 372.5179 372.5179
70 15.400000 364.8100 371.9171 371.9171
71 15.420000 368.6400 371.3172 371.3172
72 15.440000 368.6400 370.7181 370.7181
73 15.460000 364.8100 370.1198 370.1198
74 15.480000 368.6400 369.5223 369.5223
75 15.500000 364.8100 368.9257 368.9257
76 15.520000 364.8100 368.3299 368.3299
77 15.540000 364.8100 367.7348 367.7348
78 15.560000 364.8100 367.1407 367.1407
79 15.580000 361.0000 366.5474 366.5474
80 15.600000 361.0000 365.9548 365.9548
81 15.620000 361.0000 365.3631 365.3631
82 15.640000 361.0000 364.7722 364.7722
83 15.660000 357.2100 364.1821 364.1821
84 15.680000 357.2100 363.5928 363.5928
85 15.700000 357.2100 363.0043 363.0043
86 15.720000 357.2100 362.4167 362.4167
87 15.740000 361.0000 361.8299 361.8299
88 15.760000 357.2100 361.2439 361.2439
89 15.780000 361.0000 360.6587 360.6587
90 15.800000 353.4400 360.0743 360.7009
91 15.820000 349.6900 359.4907 360.1203
92 15.840000 353.4400 358.9080 359.5406
93 15.860000 357.2100 358.3260 359.2739
94 15.880000 357.2100 357.7448 358.6974
95 15.900000 357.2100 357.1645 358.1220
96 15.920000 357.2100 356.5849 357.5475
97 15.940000 353.4400 356.0062 356.9739
98 15.960000 353.4400 355.4283 356.4012
99 15.980000 349.6900 354.8511 355.8296
100 16.000000 349.6900 354.2748 355.2589
101 16.020000 349.6900 353.6993 354.6891
102 16.040000 349.6900 353.1246 354.1203
103 16.060000 353.4400 352.5507 353.5526
104 16.080000 349.6900 351.9776 352.9857
105 16.100000 349.6900 351.4053 352.4200
106 16.120000 349.6900 350.8338 351.8552
107 16.140000 345.9600 350.2631 351.2914
108 16.160000 349.6900 349.6932 350.7285
109 16.180000 345.9600 349.1241 350.1668
110 16.200000 345.9600 348.5558 349.6061
111 16.220000 345.9600 347.9883 349.0464
112 16.240000 349.6900 347.4215 348.4878
113 16.260000 345.9600 346.8556 347.9302
114 16.280000 342.2500 346.2905 347.3737
115 16.300000 345.9600 345.7261 346.8183
116 16.320000 334.8900 345.1626 346.2640
117 16.340000 342.2500 344.5998 345.7108
118 16.360000 338.5600 344.0379 345.1588
119 16.380000 338.5600 343.4767 344.6078
120 16.400000 338.5600 342.9164 344.0581
121 16.420000 338.5600 342.3567 343.5094
122 16.440000 338.5600 341.7980 342.9621
123 16.460000 338.5600 341.2400 342.4159
124 16.480000 334.8900 340.6827 341.8709
125 16.500000 331.2400 340.1263 341.3272
126 16.520000 338.5600 339.5706 340.7848
127 16.540000 338.5600 339.0158 340.2437
128 16.560000 338.5600 338.4617 339.7039
129 16.580000 334.8900 337.9084 339.1655
130 16.600000 331.2400 337.3558 338.6284
131 16.620000 338.5600 336.8041 338.0929
132 16.640000 331.2400 336.2532 337.5587
133 16.660000 334.8900 335.7030 337.0261
134 16.680000 331.2400 335.1536 336.4949
135 16.700000 334.8900 334.6050 335.9653
136 16.720000 327.6100 334.0572 335.4374
137 16.740000 334.8900 333.5101 334.9111
138 16.760000 331.2400 332.9638 334.3866
139 16.780000 331.2400 332.4184 333.8639
140 16.800000 331.2400 331.8736 333.3429
141 16.820000 331.2400 331.3297 332.8239
142 16.840000 331.2400 330.7865 332.3069
143 16.860000 331.2400 330.2441 331.7919
144 16.880000 331.2400 329.7025 331.2791
145 16.900000 331.2400 329.1616 330.7685
146 16.920000 327.6100 328.6215 330.2603
147 16.940000 327.6100 328.0822 329.7545
148 16.960000 327.6100 327.5437 329.2512
149 16.980000 327.6100 327.0059 328.7506
150 17.000000 327.6100 326.4689 328.2529
151 17.020000 327.6100 325.9326 327.7581
152 17.040000 324.0000 325.3972 327.2665
153 17.060000 324.0000 324.8625 326.7782
154 17.080000 327.6100 324.3286 326.2934
155 17.100000 324.0000 323.7953 325.8124
156 17.120000 327.6100 323.2630 325.3354
157 17.140000 324.0000 322.7314 324.8626
158 17.160000 324.0000 322.2005 324.3944
159 17.180000 324.0000 321.6703 323.9310
160 17.200000 324.0000 321.1410 323.4730
161 17.220000 324.0000 320.6124 323.0205
162 17.240000 324.0000 320.0846 322.5741
163 17.260000 324.0000 319.5575 322.1344
164 17.280000 320.4100 319.0312 321.7019
165 17.300000 320.4100 318.5056 321.2772
166 17.320000 320.4100 317.9808 320.8611
167 17.340000 320.4100 317.4568 320.4546
168 17.360000 320.4100 316.9336 320.0588
169 17.380000 320.4100 316.4110 319.6747
170 17.400000 320.4100 315.8892 319.3043
171 17.420000 320.4100 315.3682 318.9493
172 17.440000 320.4100 314.8480 318.6125
173 17.460000 320.4100 314.3284 318.2967
174 17.480000 320.4100 313.8097 318.0063
175 17.500000 316.8400 313.2916 317.7464
176 17.520000 320.4100 312.7744 317.5237
177 17.540000 316.8400 312.2579 317.3467
178 17.560000 316.8400 311.7421 317.2260
179 17.580000 316.8400 311.2271 317.1747
180 17.600000 316.8400 310.7128 317.2088
181 17.620000 316.8400 310.1993 317.3474
182 17.640000 316.8400 309.6866 317.6130
183 17.660000 316.8400 309.1745 318.0310
184 17.680000 320.4100 308.6632 318.6300
185 17.700000 320.4100 308.1527 319.4403
186 17.720000 320.4100 307.6430 320.4941
187 17.740000 324.0000 307.1339 321.8226
188 17.760000 324.0000 306.6256 323.4555
189 17.780000 327.6100 306.1181 325.4179
190 17.800000 327.6100 305.6112 327.7288
191 17.820000 327.6100 305.1052 330.3975
192 17.840000 334.8900 304.5998 333.4207
193 17.860000 338.5600 304.0952 336.7789
194 17.880000 338.5600 303.5913 340.4334
195 17.900000 342.2500 303.0882 344.3192
196 17.920000 349.6900 302.5858 348.3400
197 17.940000 349.6900 302.0842 352.3615
198 17.960000 357.2100 301.5833 356.2089
199 17.980000 361.0000 301.0831 359.6663
200 18.000000 353.4400 300.5836 362.4912
201 18.020000 357.2100 300.0849 364.4426
202 18.040000 361.0000 299.5869 365.3190
203 18.060000 364.8100 299.0897 364.9785
204 18.080000 364.8100 298.5931 363.3948
205 18.100000 361.0000 298.0974 360.6635
206 18.120000 357.2100 297.6023 356.9635
207 18.140000 353.4400 297.1080 352.5361
208 18.160000 349.6900 296.6144 347.6354
209 18.180000 342.2500 296.1216 342.4956
210 18.200000 338.5600 295.6294 337.3139
211 18.220000 331.2400 295.1380 332.2436
212 18.240000 324.0000 294.6473 327.3981
213 18.260000 320.4100 294.1573 322.8547
214 18.280000 313.2900 293.6681 318.6616
215 18.300000 309.7600 293.1796 314.8422
216 18.320000 306.2500 292.6917 311.4020
217 18.340000 306.2500 292.2047 308.3318
218 18.360000 302.7600 291.7184 305.6117
219 18.380000 299.2900 291.2328 303.2136
220 18.400000 299.2900 290.7479 301.1055
221 18.420000 299.2900 290.2636 299.2530
222 18.440000 299.2900 289.7802 297.6218
223 18.460000 295.8400 289.2975 296.1788
224 18.480000 295.8400 288.8154 294.8935
225 18.500000 295.8400 288.3340 293.7390
226 18.520000 295.8400 287.8535 292.6919
227 18.540000 295.8400 287.3736 291.7318
228 18.560000 295.8400 286.8944 290.8425
229 18.580000 295.8400 286.4160 290.0104
230 18.600000 292.4100 285.9382 289.2247
231 18.620000 292.4100 285.4612 288.4770
232 18.640000 292.4100 284.9849 287.7604
233 18.660000 292.4100 284.5092 287.0697
234 18.680000 292.4100 284.0344 286.4010
235 18.700000 289.0000 283.5602 285.7509
236 18.720000 289.0000 283.0868 285.1169
237 18.740000 289.0000 282.6140 284.4969
238 18.760000 285.6100 282.1419 283.8895
239 18.780000 289.0000 281.6706 283.2933
240 18.800000 285.6100 281.2000 282.7071
241 18.820000 285.6100 280.7300 282.1299
242 18.840000 285.6100 280.2608 281.5611
243 18.860000 285.6100 279.7923 280.9999
244 18.880000 285.6100 279.3245 280.4455
245 18.900000 285.6100 278.8573 279.8976
246 18.920000 285.6100 278.3909 279.3556
247 18.940000 282.2400 277.9252 278.8192
248 18.960000 285.6100 277.4602 278.2878
249 18.980000 282.2400 276.9959 277.7610
250 19.000000 282.2400 276.5323 277.2388
251 19.020000 282.2400 276.0694 276.7207
252 19.040000 282.2400 275.6072 276.2065
253 19.060000 278.8900 275.1456 275.6958
254 19.080000 278.8900 274.6848 275.1886
255 19.100000 275.5600 274.2247 274.6847
256 19.120000 275.5600 273.7654 274.1838
257 19.140000 275.5600 273.3066 273.6857
258 19.160000 275.5600 272.8485 273.1904
259 19.180000 275.5600 272.3912 272.6977
260 19.200000 275.5600 271.9346 272.2075
261 19.220000 275.5600 271.4787 271.7196
262 19.240000 275.5600 271.0233 271.2339
263 19.260000 272.2500 270.5688 270.7504
264 19.280000 272.2500 270.1150 270.2690
265 19.300000 275.5600 269.6617 269.7895
266 19.320000 272.2500 269.2093 269.3120
267 19.340000 272.2500 268.7574 268.8362
268 19.360000 272.2500 268.3063 268.3621
269 19.380000 272.2500 267.8559 267.8899
270 19.400000 272.2500 267.4062 267.4214
271 19.420000 268.9600 266.9571 266.9652
272 19.440000 272.2500 266.5088 266.5101
273 19.460000 268.9600 266.0610 266.0611
274 19.480000 268.9600 265.6140 265.6141
275 19.500000 268.9600 265.1677 265.1678
276 19.520000 268.9600 264.7221 264.7221
277 19.540000 268.9600 264.2771 264.2772
278 19.560000 265.6900 263.8329 263.8329
279 19.580000 265.6900 263.3893 263.3893
280 19.600000 265.6900 262.9463 262.9464
281 19.620000 265.6900 262.5042 262.5042
282 19.640000 265.6900 262.0626 262.0627
283 19.660000 265.6900 261.6217 261.6218
284 19.680000 265.6900 261.1815 261.1815
285 19.700000 265.6900 260.7420 260.7421
286 19.720000 262.4400 260.3032 260.3032
287 19.740000 262.4400 259.8650 259.8650
288 19.760000 262.4400 259.4275 259.4275
289 19.780000 262.4400 258.9907 258.9907
290 19.800000 259.2100 258.5545 258.5546
291 19.820000 259.2100 258.1190 258.1191
292 19.840000 262.4400 257.6842 257.6843
293 19.860000 262.4400 257.2501 257.2502
294 19.880000 259.2100 256.8166 256.8167
295 19.900000 259.2100 256.3839 256.3839
296 19.920000 262.4400 255.9517 255.9517
297 19.940000 262.4400 255.5203 255.5203
298 19.960000 259.2100 255.0895 255.0895
299 19.980000 259.2100 254.6594 254.6594
300 20.000000 259.2100 254.2299 254.2300
301 20.020000 259.2100 253.8012 253.8012
302 20.040000 256.0000 253.3731 253.3731
303 20.060000 256.0000 252.9456 252.9456
304 20.080000 256.0000 252.5188 252.5188
305 20.100000 256.0000 252.0927 252.0927
306 20.120000 256.0000 251.6673 251.6673
307 20.140000 256.0000 251.2424 251.2424
308 20.160000 252.8100 250.8183 250.8183
309 20.180000 256.0000 250.3948 250.3949
310 20.200000 252.8100 249.9720 249.9721
311 20.220000 252.8100 249.5499 249.5499
312 20.240000 252.8100 249.1284 249.1284
313 20.260000 252.8100 248.7076 248.7076
314 20.280000 252.8100 248.2874 248.2874
315 20.300000 252.8100 247.8679 247.8679
316 20.320000 249.6400 247.4489 247.4490
317 20.340000 249.6400 247.0308 247.0308
318 20.360000 249.6400 246.6132 246.6132
319 20.380000 249.6400 246.1963 246.1963
320 20.400000 249.6400 245.7801 245.7801
321 20.420000 249.6400 245.3645 245.3645
322 20.440000 249.6400 244.9496 244.9496
323 20.460000 249.6400 244.5353 244.5353
324 20.480000 246.4900 244.1217 244.1217
325 20.500000 246.4900 243.7086 243.7086
326 20.520000 246.4900 243.2964 243.2964
327 20.540000 246.4900 242.8847 242.8847
328 20.560000 246.4900 242.4736 242.4736
329 20.580000 246.4900 242.0632 242.0632
330 20.600000 246.4900 241.6535 241.6535
331 20.620000 246.4900 241.2444 241.2444
332 20.640000 243.3600 240.8360 240.8360
333 20.660000 243.3600 240.4281 240.4281
334 20.680000 243.3600 240.0210 240.0210
335 20.700000 243.3600 239.6145 239.6145
336 20.720000 243.3600 239.2086 239.2086
337 20.740000 243.3600 238.8033 238.8033
338 20.760000 243.3600 238.3987 238.3987
339 20.780000 240.2500 237.9949 237.9949
340 20.800000 243.3600 237.5915 237.5915
341 20.820000 240.2500 237.1889 237.1889
342 20.840000 240.2500 236.7868 236.7868
343 20.860000 240.2500 236.3855 236.3855
344 20.880000 240.2500 235.9847 235.9847
345 20.900000 240.2500 235.5847 235.5847
346 20.920000 240.2500 235.1852 235.1852
347 20.940000 237.1600 234.7864 234.7864
348 20.960000 240.2500 234.3881 234.3881
349 20.980000 240.2500 233.9906 233.9906
350 21.000000 240.2500 233.5936 233.5936
351 21.020000 237.1600 233.1974 233.1974
352 21.040000 237.1600 232.8017 232.8017
353 21.060000 234.0900 232.4067 232.4067
354 21.080000 234.0900 232.0123 232.0123
355 21.100000 237.1600 231.6185 231.6185
356 21.120000 237.1600 231.2254 231.2254
357 21.140000 234.0900 230.8329 230.8329
358 21.160000 234.0900 230.4410 230.4410
359 21.180000 234.0900 230.0497 230.0497
360 21.200000 234.0900 229.6591 229.6591
361 21.220000 234.0900 229.2691 229.2691
362 21.240000 234.0900 228.8798 228.8798
363 21.260000 231.0400 228.4910 228.4910
364 21.280000 231.0400 228.1030 228.1030
365 21.300000 231.0400 227.7155 227.7155
366 21.320000 231.0400 227.3286 227.3286
367 21.340000 231.0400 226.9424 226.9424
368 21.360000 231.0400 226.5568 226.5568
369 21.380000 231.0400 226.1718 226.1718
370 21.400000 231.0400 225.7874 225.7874
371 21.420000 228.0100 225.4036 225.4036
372 21.440000 228.0100 225.0206 225.0206
373 21.460000 228.0100 224.6380 224.6380
374 21.480000 228.0100 224.2561 224.2561
375 21.500000 228.0100 223.8748 223.8748
376 21.520000 225.0000 223.4942 223.4942
377 21.540000 225.0000 223.1142 223.1142
378 21.560000 225.0000 222.7348 222.7348
379 21.580000 225.0000 222.3560 222.3560
380 21.600000 225.0000 221.9778 221.9778
381 21.620000 225.0000 221.6002 221.6002
382 21.640000 225.0000 221.2233 221.2233
383 21.660000 225.0000 220.8468 220.8468
384 21.680000 225.0000 220.4711 220.4711
385 21.700000 225.0000 220.0961 220.0961
386 21.720000 225.0000 219.7215 219.7215
387 21.740000 225.0000 219.3476 219.3476
388 21.760000 225.0000 218.9744 218.9744
389 21.780000 222.0100 218.6017 218.6017
390 21.800000 222.0100 218.2296 218.2296
391 21.820000 222.0100 217.8582 217.8582
392 21.840000 222.0100 217.4873 217.4873
393 21.860000 219.0400 217.1171 217.1171
394 21.880000 222.0100 216.7475 216.7475
395 21.900000 222.0100 216.3784 216.3784
396 21.920000 219.0400 216.0099 216.0099
397 21.940000 219.0400 215.6421 215.6421
398 21.960000 222.0100 215.2749 215.2749
399 21.980000 219.0400 214.9084 214.9084
400 22.000000 219.0400 214.5423 214.5423
401 22.020000 219.0400 214.1769 214.1769
402 22.040000 219.0400 213.8121 213.8121
403 22.060000 219.0400 213.4479 213.4479
404 22.080000 216.0900 213.0843 213.0843
405 22.100000 216.0900 212.7213 212.7213
406 22.120000 216.0900 212.3589 212.3589
407 22.140000 216.0900 211.9971 211.9971
408 22.160000 216.0900 211.6358 211.6358
409 22.180000 216.0900 211.2753 211.2753
410 22.200000 216.0900 210.9152 210.9152
411 22.220000 219.0400 210.5558 210.5558
412 22.240000 213.1600 210.1970 210.1970
413 22.260000 216.0900 209.8387 209.8387
414 22.280000 213.1600 209.4811 209.4811
415 22.300000 216.0900 209.1241 209.1241
416 22.320000 213.1600 208.7676 208.7676
417 22.340000 210.2500 208.4117 208.4117
418 22.360000 210.2500 208.0565 208.0565
419 22.380000 213.1600 207.7018 207.7018
420 22.400000 210.2500 207.3477 207.3477
421 22.420000 213.1600 206.9942 206.9942
422 22.440000 210.2500 206.6414 206.6414
423 22.460000 210.2500 206.2891 206.2891
424 22.480000 210.2500 205.9373 205.9373
425 22.500000 210.2500 205.5862 205.5862
426 22.520000 210.2500 205.2356 205.2356
427 22.540000 207.3600 204.8857 204.8857
428 22.560000 207.3600 204.5363 204.5363
429 22.580000 210.2500 204.1874 204.1874
430 22.600000 207.3600 203.8392 203.8392
431 22.620000 207.3600 203.4916 203.4916
432 22.640000 207.3600 203.1446 203.1446
433 22.660000 204.4900 202.7981 202.7981
434 22.680000 207.3600 202.4522 202.4522
435 22.700000 204.4900 202.1070 202.1070
436 22.720000 204.4900 201.7622 201.7622
437 22.740000 204.4900 201.4181 201.4181
438 22.760000 204.4900 201.0746 201.0746
439 22.780000 201.6400 200.7315 200.7315
440 22.800000 204.4900 200.3891 200.3891
441 22.820000 204.4900 200.0473 200.0473
442 22.840000 204.4900 199.7060 199.7060
443 22.860000 201.6400 199.3654 199.3654
444 22.880000 201.6400 199.0253 199.0253
445 22.900000 204.4900 198.6857 198.6857
446 22.920000 201.6400 198.3468 198.3468
447 22.940000 201.6400 198.0084 198.0084
448 22.960000 201.6400 197.6706 197.6706
449 22.980000 201.6400 197.3334 197.3334
450 23.000000 201.6400 196.9967 196.9967
451 23.020000 198.8100 196.6607 196.6607
452 23.040000 196.0000 196.3251 196.3251
453 23.060000 198.8100 195.9901 195.9901
454 23.080000 198.8100 195.6558 195.6558
455 23.100000 196.0000 195.3220 195.3220
456 23.120000 198.8100 194.9888 194.9888
457 23.140000 198.8100 194.6561 194.6561
458 23.160000 198.8100 194.3240 194.3240
459 23.180000 196.0000 193.9925 193.9925
460 23.200000 198.8100 193.6615 193.6615
461 23.220000 196.0000 193.3311 193.3311
462 23.240000 196.0000 193.0012 193.0012
463 23.260000 196.0000 192.6719 192.6719
464 23.280000 196.0000 192.3432 192.3432
465 23.300000 196.0000 192.0151 192.0151
466 23.320000 196.0000 191.6875 191.6875
467 23.340000 196.0000 191.3605 191.3605
468 23.360000 193.2100 191.0340 191.0340
469 23.380000 193.2100 190.7081 190.7081
470 23.400000 196.0000 190.3828 190.3828
471 23.420000 193.2100 190.0579 190.0579
472 23.440000 196.0000 189.7337 189.7337
473 23.460000 193.2100 189.4101 189.4101
474 23.480000 196.0000 189.0869 189.0869
475 23.500000 193.2100 188.7644 188.7644
476 23.520000 193.2100 188.4424 188.4424
477 23.540000 190.4400 188.1209 188.1209
478 23.560000 187.6900 187.8000 187.8000
479 23.580000 187.6900 187.4798 187.4798
480 23.600000 187.6900 187.1599 187.1599
481 23.620000 190.4400 186.8407 186.8407
482 23.640000 190.4400 186.5220 186.5220
483 23.660000 187.6900 186.2039 186.2039
484 23.680000 187.6900 185.8864 185.8864
485 23.700000 190.4400 185.5693 185.5693
486 23.720000 190.4400 185.2529 185.2529
487 23.740000 187.6900 184.9369 184.9369
488 23.760000 187.6900 184.6215 184.6215
489 23.780000 187.6900 184.3067 184.3067
490 23.800000 187.6900 183.9924 183.9924
491 23.820000 187.6900 183.6787 183.6787
492 23.840000 184.9600 183.3655 183.3655
493 23.860000 187.6900 183.0529 183.0529
494 23.880000 184.9600 182.7407 182.7407
495 23.900000 184.9600 182.4292 182.4292
496 23.920000 184.9600 182.1182 182.1182
497 23.940000 187.6900 181.8078 181.8078
498 23.960000 184.9600 181.4978 181.4978
499 23.980000 184.9600 181.1885 181.1885
500 24.000000 184.9600 180.8797 180.8797
501 24.020000 184.9600 180.5714 180.5714
502 24.040000 184.9600 180.2637 180.2637
503 24.060000 182.2500 179.9563 179.9563
504 24.080000 182.2500 179.6497 179.6497
505 24.100000 182.2500 179.3436 179.3436
506 24.120000 179.5600 179.0380 179.0380
507 24.140000 179.5600 178.7329 178.7329
508 24.160000 179.5600 178.4284 178.4284
509 24.180000 179.5600 178.1244 178.1244
510 24.200000 179.5600 177.8210 177.8210
511 24.220000 179.5600 177.5180 177.5180
512 24.240000 182.2500 177.2157 177.2157
513 24.260000 182.2500 176.9138 176.9138
514 24.280000 179.5600 176.6125 176.6125
515 24.300000 179.5600 176.3118 176.3118
516 24.320000 179.5600 176.0115 176.0115
517 24.340000 176.8900 175.7118 175.7118
518 24.360000 179.5600 175.4126 175.4126
519 24.380000 179.5600 175.1139 175.1139
520 24.400000 176.8900 174.8159 174.8159
521 24.420000 176.8900 174.5183 174.5183
522 24.440000 176.8900 174.2212 174.2212
523 24.460000 176.8900 173.9247 173.9247
524 24.480000 176.8900 173.6287 173.6287
525 24.500000 176.8900 173.3331 173.3331
526 24.520000 174.2400 173.0383 173.0383
527 24.540000 174.2400 172.7438 172.7438
528 24.560000 171.6100 172.4499 172.4499
529 24.580000 171.6100 172.1565 172.1565
530 24.600000 171.6100 171.8636 171.8636
531 24.620000 171.6100 171.5713 171.5713
532 24.640000 171.6100 171.2795 171.2795
533 24.660000 171.6100 170.9882 170.9882
534 24.680000 171.6100 170.6974 170.6974
535 24.700000 171.6100 170.4072 170.4072
536 24.720000 169.0000 170.1175 170.1175
537 24.740000 171.6100 169.8282 169.8282
538 24.760000 171.6100 169.5396 169.5396
539 24.780000 171.6100 169.2514 169.2514
540 24.800000 169.0000 168.9638 168.9638
541 24.820000 169.0000 168.6767 168.6767
542 24.840000 169.0000 168.3901 168.3901
543 24.860000 169.0000 168.1039 168.1039
544 24.880000 171.6100 167.8183 167.8183
545 24.900000 169.0000 167.5333 167.5333
546 24.920000 169.0000 167.2487 167.2487
547 24.940000 169.0000 166.9647 166.9647
548 24.960000 169.0000 166.6811 166.6811
549 24.980000 171.6100 166.3981 166.3981
550 25.000000 169.0000 166.1156 166.1156
551 25.020000 166.4100 165.8336 165.8336
552 25.040000 163.8400 165.5522 165.5522
553 25.060000 166.4100 165.2713 165.2713
554 25.080000 169.0000 164.9908 164.9908
555 25.100000 166.4100 164.7109 164.7109
556 25.120000 166.4100 164.4314 164.4314
557 25.140000 163.8400 164.1525 164.1525
558 25.160000 166.4100 163.8740 163.8740
559 25.180000 161.2900 163.5962 163.5962
560 25.200000 163.8400 163.3187 163.3187
561 25.220000 163.8400 163.0418 163.0418
562 25.240000 163.8400 162.7655 162.7655
563 25.260000 163.8400 162.4896 162.4896
564 25.280000 163.8400 162.2141 162.2141
565 25.300000 161.2900 161.9393 161.9393
566 25.320000 161.2900 161.6648 161.6648
567 25.340000 163.8400 161.3910 161.3910
568 25.360000 163.8400 161.1176 161.1176
569 25.380000 161.2900 160.8448 160.8448
570 25.400000 163.8400 160.5724 160.5724
571 25.420000 163.8400 160.3005 160.3005
572 25.440000 161.2900 160.0292 160.0292
573 25.460000 163.8400 159.7583 159.7583
574 25.480000 161.2900 159.4878 159.4878
575 25.500000 158.7600 159.2180 159.2180
576 25.520000 158.7600 158.9487 158.9487
577 25.540000 158.7600 158.6798 158.6798
578 25.560000 158.7600 158.4114 158.4114
579 25.580000 158.7600 158.1435 158.1435
580 25.600000 158.7600 157.8761 157.8761
581 25.620000 158.7600 157.6092 157.6092
582 25.640000 156.2500 157.3428 157.3428
583 25.660000 158.7600 157.0769 157.0769
584 25.680000 158.7600 156.8115 156.8115
585 25.700000 158.7600 156.5465 156.5465
586 25.720000 156.2500 156.2821 156.2821
587 25.740000 156.2500 156.0182 156.0182
588 25.760000 156.2500 155.7547 155.7547
589 25.780000 156.2500 155.4917 155.4917
590 25.800000 153.7600 155.2292 155.2292
591 25.820000 156.2500 154.9672 154.9672
592 25.840000 153.7600 154.7058 154.7058
593 25.860000 153.7600 154.4448 154.4448
594 25.880000 156.2500 154.1842 154.1842
595 25.900000 153.7600 153.9242 153.9242
596 25.920000 151.2900 153.6646 153.6646
597 25.940000 153.7600 153.4056 153.4056
598 25.960000 153.7600 153.1470 153.1470
599 25.980000 151.2900 152.8889 152.8889
600 26.000000 153.7600 152.6313 152.6313
601 26.020000 153.7600 152.3742 152.3742
602 26.040000 151.2900 152.1175 152.1175
603 26.060000 151.2900 151.8614 151.8614
604 26.080000 151.2900 151.6056 151.6056
605 26.100000 153.7600 151.3504 151.3504
606 26.120000 153.7600 151.0957 151.0957
607 26.140000 153.7600 150.8414 150.8414
608 26.160000 153.7600 150.5877 150.5877
609 26.180000 151.2900 150.3344 150.3344
610 26.200000 151.2900 150.0816 150.0816
611 26.220000 148.8400 149.8292 149.8292
612 26.240000 148.8400 149.5774 149.5774
613 26.260000 151.2900 149.3260 149.3260
614 26.280000 148.8400 149.0751 149.0751
615 26.300000 148.8400 148.8247 148.8247
616 26.320000 148.8400 148.5748 148.5748
617 26.340000 146.4100 148.3253 148.3253
618 26.360000 148.8400 148.0763 148.0763
619 26.380000 148.8400 147.8277 147.8277
620 26.400000 148.8400 147.5796 147.5796
621 26.420000 146.4100 147.3321 147.3321
622 26.440000 148.8400 147.0850 147.0850
623 26.460000 146.4100 146.8383 146.8383
624 26.480000 146.4100 146.5921 146.5921
625 26.500000 146.4100 146.3465 146.3465
626 26.520000 146.4100 146.1012 146.1012
627 26.540000 146.4100 145.8564 145.8564
628 26.560000 146.4100 145.6122 145.6122
629 26.580000 144.0000 145.3683 145.3683
630 26.600000 146.4100 145.1250 145.1250
631 26.620000 144.0000 144.8820 144.8820
632 26.640000 144.0000 144.6397 144.6397
633 26.660000 144.0000 144.3977 144.3977
634 26.680000 144.0000 144.1562 144.1562
635 26.700000 144.0000 143.9152 143.9152
636 26.720000 144.0000 143.6746 143.6746
637 26.740000 144.0000 143.4344 143.4344
638 26.760000 144.0000 143.1948 143.1948
639 26.780000 144.0000 142.9556 142.9556
640 26.800000 144.0000 142.7168 142.7168
641 26.820000 144.0000 142.4786 142.4786
642 26.840000 144.0000 142.2408 142.2408
643 26.860000 141.6100 142.0035 142.0035
644 26.880000 139.2400 141.7666 141.7666
645 26.900000 141.6100 141.5302 142.5492
646 26.920000 141.6100 141.2942 142.3202
647 26.940000 141.6100 141.0587 142.0919
648 26.960000 141.6100 140.8236 141.8642
649 26.980000 141.6100 140.5890 142.1441
650 27.000000 139.2400 140.3549 141.9213
651 27.020000 139.2400 140.1212 141.6993
652 27.040000 139.2400 139.8880 141.4780
653 27.060000 139.2400 139.6552 141.2576
654 27.080000 139.2400 139.4229 141.0380
655 27.100000 139.2400 139.1910 140.8191
656 27.120000 139.2400 138.9595 140.6011
657 27.140000 139.2400 138.7286 140.3840
658 27.160000 139.2400 138.4981 140.1677
659 27.180000 136.8900 138.2680 139.9524
660 27.200000 136.8900 138.0385 139.7380
661 27.220000 136.8900 137.8092 139.5244
662 27.240000 136.8900 137.5805 139.3118
663 27.260000 139.2400 137.3522 139.1001
664 27.280000 136.8900 137.1244 138.8894
665 27.300000 136.8900 136.8971 138.6799
666 27.320000 134.5600 136.6702 138.4713
667 27.340000 136.8900 136.4436 138.2636
668 27.360000 136.8900 136.2176 138.0572
669 27.380000 139.2400 135.9921 137.8519
670 27.400000 136.8900 135.7669 137.6476
671 27.420000 136.8900 135.5422 137.4445
672 27.440000 134.5600 135.3180 137.2428
673 27.460000 136.8900 135.0942 137.0421
674 27.480000 136.8900 134.8708 136.8427
675 27.500000 134.5600 134.6478 136.6447
676 27.520000 136.8900 134.4254 136.4481
677 27.540000 134.5600 134.2033 136.2528
678 27.560000 136.8900 133.9817 136.0590
679 27.580000 136.8900 133.7605 135.8666
680 27.600000 134.5600 133.5398 135.6758
681 27.620000 134.5600 133.3195 135.4867
682 27.640000 134.5600 133.0996 135.2992
683 27.660000 134.5600 132.8802 135.1135
684 27.680000 134.5600 132.6613 134.9296
685 27.700000 134.5600 132.4428 134.7476
686 27.720000 136.8900 132.2247 134.5676
687 27.740000 136.8900 132.0070 134.3895
688 27.760000 136.8900 131.7898 134.2137
689 27.780000 134.5600 131.5730 134.0401
690 27.800000 134.5600 131.3566 133.8688
691 27.820000 136.8900 131.1407 133.7000
692 27.840000 136.8900 130.9252 133.5337
693 27.860000 134.5600 130.7101 133.3701
694 27.880000 132.2500 130.4956 133.2095
695 27.900000 134.5600 130.2813 133.0518
696 27.920000 132.2500 130.0676 132.8974
697 27.940000 134.5600 129.8542 132.7461
698 27.960000 134.5600 129.6413 132.5986
699 27.980000 132.2500 129.4289 132.4548
700 28.000000 134.5600 129.2168 132.3149
701 28.020000 136.8900 129.0052 132.1792
702 28.040000 134.5600 128.7939 132.0480
703 28.060000 134.5600 128.5833 131.9218
704 28.080000 134.5600 128.3729 131.8005
705 28.100000 136.8900 128.1630 131.6847
706 28.120000 132.2500 127.9535 131.5747
707 28.140000 132.2500 127.7444 131.4710
708 28.160000 134.5600 127.5358 131.3740
709 28.180000 132.2500 127.3276 131.2842
710 28.200000 132.2500 127.1198 131.2022
711 28.220000 134.5600 126.9124 131.1285
712 28.240000 132.2500 126.7054 131.0639
713 28.260000 132.2500 126.4989 131.0092
714 28.280000 132.2500 126.2928 130.9650
715 28.300000 132.2500 126.0872 130.9324
716 28.320000 132.2500 125.8820 130.9125
717 28.340000 132.2500 125.6770 130.9063
718 28.360000 132.2500 125.4727 130.9153
719 28.380000 132.2500 125.2687 130.9409
720 28.400000 132.2500 125.0651 130.9848
721 28.420000 132.2500 124.8619 131.0492
722 28.440000 134.5600 124.6591 131.1364
723 28.460000 132.2500 124.4568 131.2496
724 28.480000 132.2500 124.2548 131.3921
725 28.500000 134.5600 124.0534 131.5686
726 28.520000 132.2500 123.8523 131.7845
727 28.540000 134.5600 123.6517 132.0472
728 28.560000 134.5600 123.4514 132.3657
729 28.580000 134.5600 123.2515 132.7518
730 28.600000 134.5600 123.0521 133.2204
731 28.620000 134.5600 122.8530 133.7908
732 28.640000 136.8900 122.6545 134.4870
733 28.660000 136.8900 122.4562 135.3387
734 28.680000 139.2400 122.2585 136.3822
735 28.700000 141.6100 122.0611 137.6616
736 28.720000 139.2400 121.8641 139.2280
737 28.740000 144.0000 121.6676 141.1404
738 28.760000 146.4100 121.4714 143.4640
739 28.780000 146.4100 121.2757 146.2704
740 28.800000 153.7600 121.0803 149.6335
741 28.820000 153.7600 120.8854 153.6269
742 28.840000 161.2900 120.6909 158.3199
743 28.860000 166.4100 120.4968 164.2159
744 28.880000 171.6100 120.3030 170.4755
745 28.900000 176.8900 120.1097 177.5616
746 28.920000 182.2500 119.9168 185.4666
747 28.940000 190.4400 119.7243 194.3635
748 28.960000 198.8100 119.5322 203.7189
749 28.980000 207.3600 119.3406 213.5920
750 29.000000 216.0900 119.1493 223.7467
751 29.020000 225.0000 118.9584 233.8561
752 29.040000 234.0900 118.7679 243.5010
753 29.060000 243.3600 118.5778 252.1783
754 29.080000 249.6400 118.3882 259.3475
755 29.100000 259.2100 118.1989 264.5012
756 29.120000 262.4400 118.0100 267.2443
757 29.140000 265.6900 117.8215 267.3337
758 29.160000 265.6900 117.6334 264.7791
759 29.180000 265.6900 117.4456 259.7952
760 29.200000 262.4400 117.2584 252.7385
761 29.220000 252.8100 117.0715 244.0552
762 29.240000 246.4900 116.8850 234.2494
763 29.260000 234.0900 116.6989 223.8148
764 29.280000 219.0400 116.5131 213.1882
765 29.300000 207.3600 116.3278 202.7314
766 29.320000 190.4400 116.1429 192.7189
767 29.340000 176.8900 115.9585 183.3440
768 29.360000 163.8400 115.7743 174.7303
769 29.380000 166.4100 115.5905 166.9418
770 29.400000 158.7600 115.4072 159.9993
771 29.420000 153.7600 115.2241 153.8874
772 29.440000 148.8400 115.0416 148.5656
773 29.460000 144.0000 114.8595 143.9740
774 29.480000 136.8900 114.6777 140.0426
775 29.500000 134.5600 114.4963 136.6959
776 29.520000 129.9600 114.3152 133.8575
777 29.540000 129.9600 114.1346 131.4530
778 29.560000 129.9600 113.9544 129.4142
779 29.580000 127.6900 113.7745 127.6795
780 29.600000 125.4400 113.5951 126.1952
781 29.620000 125.4400 113.4161 124.9151
782 29.640000 123.2100 113.2373 123.8007
783 29.660000 121.0000 113.0590 122.8208
784 29.680000 121.0000 112.8811 121.9501
785 29.700000 121.0000 112.7035 121.1681
786 29.720000 121.0000 112.5264 120.4592
787 29.740000 121.0000 112.3496 119.8105
788 29.760000 118.8100 112.1732 119.2127
789 29.780000 118.8100 111.9973 118.6580
790 29.800000 116.6400 111.8217 118.1404
791 29.820000 116.6400 111.6464 117.6551
792 29.840000 116.6400 111.4715 117.1985
793 29.860000 116.6400 111.2971 116.7674
794 29.880000 116.6400 111.1229 116.3593
795 29.900000 114.4900 110.9492 115.9720
796 29.920000 114.4900 110.7759 115.6038
797 29.940000 114.4900 110.6029 115.2530
798 29.960000 114.4900 110.4304 114.9185
799 29.980000 114.4900 110.2581 114.5989
800 30.000000 114.4900 110.0863 114.2935
801 30.020000 112.3600 109.9149 114.0012
802 30.040000 112.3600 109.7438 113.7214
803 30.060000 114.4900 109.5731 113.4533
804 30.080000 110.2500 109.4028 113.1965
805 30.100000 112.3600 109.2328 112.9505
806 30.120000 112.3600 109.0633 112.7149
807 30.140000 112.3600 108.8940 112.4894
808 30.160000 110.2500 108.7252 112.2738
809 30.180000 110.2500 108.5567 112.0678
810 30.200000 112.3600 108.3886 111.8715
811 30.220000 112.3600 108.2209 111.6848
812 30.240000 112.3600 108.0536 111.5077
813 30.260000 110.2500 107.8866 111.3403
814 30.280000 110.2500 107.7199 111.1829
815 30.300000 112.3600 107.5538 111.0357
816 30.320000 112.3600 107.3878 110.8990
817 30.340000 110.2500 107.2224 110.7734
818 30.360000 110.2500 107.0572 110.6594
819 30.380000 110.2500 106.8924 110.5579
820 30.400000 108.1600 106.7281 110.4697
821 30.420000 108.1600 106.5640 110.3961
822 30.440000 108.1600 106.4003 110.3385
823 30.460000 108.1600 106.2370 110.2990
824 30.480000 108.1600 106.0741 110.2800
825 30.500000 108.1600 105.9115 110.2845
826 30.520000 108.1600 105.7494 110.3170
827 30.540000 108.1600 105.5874 112.1723
828 30.560000 108.1600 105.4260 112.2912
829 30.580000 108.1600 105.2649 112.4592
830 30.600000 108.1600 105.1041 112.6873
831 30.620000 108.1600 104.9437 112.9893
832 30.640000 110.2500 104.7837 114.2755
833 30.660000 110.2500 104.6240 114.7853
834 30.680000 112.3600 104.4647 115.4293
835 30.700000 112.3600 104.3057 116.2342
836 30.720000 112.3600 104.1471 117.2301
837 30.740000 114.4900 103.9888 118.4488
838 30.760000 114.4900 103.8310 119.9239
839 30.780000 116.6400 103.6734 121.6887
840 30.800000 121.0000 103.5163 123.7738
841 30.820000 123.2100 103.3594 126.2057
842 30.840000 123.2100 103.2029 129.0037
843 30.860000 125.4400 103.0469 132.1880
844 30.880000 129.9600 102.8911 135.7447
845 30.900000 136.8900 102.7358 139.6482
846 30.920000 141.6100 102.5806 143.8522
847 30.940000 144.0000 102.4260 148.2885
848 30.960000 151.2900 102.2716 152.8404
849 30.980000 156.2500 102.1177 157.3557
850 31.000000 156.2500 101.9640 161.6402
851 31.020000 158.7600 101.8107 165.4656
852 31.040000 163.8400 101.6579 168.5911
853 31.060000 166.4100 101.5053 170.7955
854 31.080000 169.0000 101.3529 171.9108
855 31.100000 169.0000 101.2011 171.8434
856 31.120000 169.0000 101.0496 170.6089
857 31.140000 166.4100 100.8985 168.3069
858 31.160000 163.8400 100.7476 165.0966
859 31.180000 158.7600 100.5971 161.1713
860 31.200000 153.7600 100.4470 156.7494
861 31.220000 148.8400 100.2971 152.0472
862 31.240000 141.6100 100.1477 147.2593
863 31.260000 136.8900 99.9986 142.5475
864 31.280000 129.9600 99.8498 138.0345
865 31.300000 125.4400 99.7014 133.8084
866 31.320000 121.0000 99.5533 129.9253
867 31.340000 123.2100 99.4056 126.4150
868 31.360000 118.8100 99.2582 123.2873
869 31.380000 118.8100 99.1112 120.5352
870 31.400000 114.4900 98.9645 118.1408
871 31.420000 114.4900 98.8182 116.0783
872 31.440000 112.3600 98.6721 114.3164
873 31.460000 112.3600 98.5265 112.8213
874 31.480000 108.1600 98.3811 111.5590
875 31.500000 110.2500 98.2361 110.4969
876 31.520000 108.1600 98.0915 109.6045
877 31.540000 108.1600 97.9472 108.8542
878 31.560000 106.0900 97.8032 108.2223
879 31.580000 106.0900 97.6595 107.6883
880 31.600000 106.0900 97.5162 107.2353
881 31.620000 104.0400 97.3733 106.8495
882 31.640000 104.0400 97.2306 106.5197
883 31.660000 104.0400 97.0883 106.2372
884 31.680000 102.0100 96.9464 105.9953
885 31.700000 104.0400 96.8048 105.7887
886 31.720000 104.0400 96.6635 105.6137
887 31.740000 104.0400 96.5225 105.4673
888 31.760000 104.0400 96.3819 105.3476
889 31.780000 104.0400 96.2416 105.2530
890 31.800000 104.0400 96.1016 105.1828
891 31.820000 104.0400 95.9620 105.1365
892 31.840000 104.0400 95.8227 105.1137
893 31.860000 104.0400 95.6837 105.1147
894 31.880000 104.0400 95.5451 105.1399
895 31.900000 104.0400 95.4068 105.1898
896 31.920000 104.0400 95.2689 105.2655
897 31.940000 104.0400 95.1312 105.3680
898 31.960000 104.0400 94.9938 105.4987
899 31.980000 104.0400 94.8569 105.6595
900 32.000000 104.0400 94.7202 105.8522
901 32.020000 104.0400 94.5838 106.0793
902 32.040000 104.0400 94.4479 106.3439
903 32.060000 104.0400 94.3121 106.6490
904 32.080000 106.0900 94.1768 106.9993
905 32.100000 106.0900 94.0419 107.3997
906 32.120000 106.0900 93.9072 107.8564
907 32.140000 108.1600 93.7729 108.3773
908 32.160000 110.2500 93.6388 108.9724
909 32.180000 108.1600 93.5049 109.6542
910 32.200000 110.2500 93.3716 110.4395
911 32.220000 112.3600 93.2384 111.3484
912 32.240000 112.3600 93.1058 112.4087
913 32.260000 114.4900 92.9733 113.6539
914 32.280000 114.4900 92.8411 115.1270
915 32.300000 114.4900 92.7093 116.8818
916 32.320000 116.6400 92.5779 118.9841
917 32.340000 118.8100 92.4467 121.5124
918 32.360000 121.0000 92.3159 124.5603
919 32.379999 125.4400 92.1853 128.2346
920 32.399999 129.9600 92.0553 132.6550
921 32.419999 134.5600 91.9253 137.9535
922 32.439999 141.6100 91.7957 144.2670
923 32.459999 148.8400 91.6664 151.7335
924 32.479999 158.7600 91.5374 160.4846
925 32.499999 169.0000 91.4089 170.6365
926 32.519999 182.2500 91.2806 182.2786
927 32.539999 196.0000 91.1526 195.4619
928 32.559999 210.2500 91.0249 210.1821
929 32.579999 225.0000 90.8977 226.3743
930 32.599999 243.3600 90.7705 243.8759
931 32.619999 262.4400 90.6438 262.4149
932 32.639999 282.2400 90.5173 281.5790
933 32.659999 299.2900 90.3912 300.7920
934 32.679999 316.8400 90.2655 319.3011
935 32.699999 334.8900 90.1400 336.1984
936 32.719999 349.6900 90.0149 350.4916
937 32.739999 357.2100 89.8900 361.2417
938 32.759999 364.8100 89.7655 367.6935
939 32.779999 368.6400 89.6412 369.3607
940 32.799999 364.8100 89.5172 366.1874
941 32.819999 357.2100 89.3935 358.4807
942 32.839999 345.9600 89.2702 346.8135
943 32.859999 331.2400 89.1473 331.9114
944 32.879999 316.8400 89.0246 314.6240
945 32.899999 299.2900 88.9021 295.8333
946 32.919999 278.8900 88.7802 276.3641
947 32.939999 259.2100 88.6582 256.9377
948 32.959999 243.3600 88.5368 238.1303
949 32.979999 225.0000 88.4157 220.3605
950 32.999999 207.3600 88.2948 203.9107
951 33.019999 193.2100 88.1742 188.9469
952 33.039999 179.5600 88.0538 175.5402
953 33.059999 166.4100 87.9339 163.6909
954 33.079999 156.2500 87.8143 153.3377
955 33.099999 148.8400 87.6949 144.3870
956 33.119999 141.6100 87.5759 136.7174
957 33.139999 134.5600 87.4571 130.1927
958 33.159999 129.9600 87.3387 124.6723
959 33.179999 127.6900 87.2207 120.0174
960 33.199999 123.2100 87.1026 116.0967
961 33.219999 118.8100 86.9851 112.7921
962 33.239999 116.6400 86.8679 109.9959
963 33.259999 112.3600 86.7510 107.6174
964 33.279999 110.2500 86.6343 105.5790
965 33.299999 106.0900 86.5178 103.8163
966 33.319999 104.0400 86.4019 102.2778
967 33.339999 102.0100 86.2862 100.9207
968 33.359999 100.0000 86.1706 99.7119
969 33.379999 100.0000 86.0555 98.6253
970 33.399999 100.0000 85.9405 97.6398
971 33.419999 100.0000 85.8259 96.7395
972 33.439999 98.0100 85.7117 95.9118
973 33.459999 98.0100 85.5977 95.1464
974 33.479999 98.0100 85.4841 94.4355
975 33.499999 98.0100 85.3706 93.7724
976 33.519999 96.0400 85.2576 93.1519
977 33.539999 96.0400 85.1446 92.5692
978 33.559999 94.0900 85.0321 92.0208
979 33.579999 94.0900 84.9198 91.5032
980 33.599999 94.0900 84.8078 91.0137
981 33.619999 92.1600 84.6962 90.5499
982 33.639999 92.1600 84.5848 90.1093
983 33.659999 90.2500 84.4738 89.6902
984 33.679999 88.3600 84.3630 89.2907
985 33.699999 88.3600 84.2526 88.9094
986 33.719999 86.4900 84.1423 88.5446
987 33.739999 88.3600 84.0324 88.1952
988 33.759999 86.4900 83.9226 87.8599
989 33.779999 86.4900 83.8133 87.5379
990 33.799999 86.4900 83.7043 87.2282
991 33.819999 86.4900 83.5955 86.9297
992 33.839999 84.6400 83.4871 86.6419
993 33.859999 86.4900 83.3788 86.3638
994 33.879999 84.6400 83.2710 86.0950
995 33.899999 86.4900 83.1633 85.8346
996 33.919999 84.6400 83.0559 85.5823
997 33.939999 84.6400 82.9488 85.3375
998 33.959999 84.6400 82.8419 85.0996
999 33.979999 84.6400 82.7355 84.8686
1000 33.999999 82.8100 82.6293 84.6436
1001 34.019999 84.6400 82.5234 87.4222
1002 34.039999 82.8100 82.4177 87.2323
1003 34.059999 84.6400 82.3122 87.0483
1004 34.079999 82.8100 82.2072 86.8701
1005 34.099999 84.6400 82.1024 88.1774
1006 34.119999 81.0000 81.9978 88.0211
1007 34.139999 82.8100 81.8935 87.8700
1008 34.159999 82.8100 81.7896 87.7240
1009 34.179999 82.8100 81.6859 87.5829
1010 34.199999 82.8100 81.5823 87.4463
1011 34.219999 81.0000 81.4792 87.3146
1012 34.239999 82.8100 81.3763 87.1873
1013 34.259999 79.2100 81.2737 87.0644
1014 34.279999 81.0000 81.1714 86.9458
1015 34.299999 79.2100 81.0694 86.8316
1016 34.319999 79.2100 80.9676 86.7214
1017 34.339999 81.0000 80.8661 86.6153
1018 34.359999 79.2100 80.7648 86.5134
1019 34.379999 79.2100 80.6640 86.4155
1020 34.399999 79.2100 80.5633 86.3216
1021 34.419999 79.2100 80.4629 86.2316
1022 34.439999 79.2100 80.3627 86.1457
1023 34.459999 77.4400 80.2629 86.0638
1024 34.479999 79.2100 80.1632 85.9857
1025 34.499999 79.2100 80.0639 86.2561
1026 34.519999 79.2100 79.9647 86.1890
1027 34.539999 79.2100 79.8661 86.1262
1028 34.559999 79.2100 79.7675 86.0675
1029 34.579999 79.2100 79.6692 86.0131
1030 34.599999 77.4400 79.5713 86.1382
1031 34.619999 77.4400 79.4736 86.1163
1032 34.639999 77.4400 79.3762 86.0985
1033 34.659999 77.4400 79.2789 86.0846
1034 34.679999 77.4400 79.1820 86.0751
1035 34.699999 79.2100 79.0854 86.0792
1036 34.719999 75.6900 78.9892 86.0894
1037 34.739999 79.2100 78.8928 86.1038
1038 34.759999 77.4400 78.7970 86.1230
1039 34.779999 77.4400 78.7015 86.1471
1040 34.799999 81.0000 78.6061 86.1762
1041 34.819999 79.2100 78.5111 86.2107
1042 34.839999 81.0000 78.4162 86.2507
1043 34.859999 82.8100 78.3217 86.2968
1044 34.879999 84.6400 78.2276 86.3493
1045 34.899999 84.6400 78.1337 86.4082
1046 34.919999 84.6400 78.0398 86.4740
1047 34.939999 84.6400 77.9463 86.5473
1048 34.959999 84.6400 77.8531 86.6284
1049 34.979999 84.6400 77.7601 86.7176
1050 34.999999 84.6400 77.6674 86.8157
1051 35.019999 84.6400 77.5749 86.9230
1052 35.039999 82.8100 77.4827 87.0403
1053 35.059999 84.6400 77.3908 87.1678
1054 35.079999 84.6400 77.2991 87.3068
1055 35.099999 84.6400 77.2078 87.4576
1056 35.119999 86.4900 77.1166 87.6210
1057 35.139999 86.4900 77.0258 87.7981
1058 35.159999 86.4900 76.9352 87.9895
1059 35.179999 84.6400 76.8448 88.1965
1060 35.199999 86.4900 76.7546 88.4200
1061 35.219999 86.4900 76.6649 88.6614
1062 35.239999 86.4900 76.5751 88.9218
1063 35.259999 86.4900 76.4858 89.2029
1064 35.279999 86.4900 76.3968 89.5063
1065 35.299999 86.4900 76.3079 89.8336
1066 35.319999 88.3600 76.2191 90.1865
1067 35.339999 90.2500 76.1310 90.5678
1068 35.359999 90.2500 76.0428 90.9791
1069 35.379999 92.1600 75.9551 91.4237
1070 35.399999 92.1600 75.8673 91.9038
1071 35.419999 94.0900 75.7801 92.4233
1072 35.439999 94.0900 75.6931 92.9856
1073 35.459999 94.0900 75.6061 93.5945
1074 35.479999 94.0900 75.5195 94.2550
1075 35.499999 96.0400 75.4332 94.9725
1076 35.519999 98.0100 75.3471 95.7529
1077 35.539999 100.0000 75.2614 96.6038
1078 35.559999 104.0400 75.1758 97.5334
1079 35.579999 106.0900 75.0905 98.5528
1080 35.599999 110.2500 75.0052 99.6746
1081 35.619999 112.3600 74.9204 100.9151
1082 35.639999 114.4900 74.8359 102.2948
1083 35.659999 116.6400 74.7516 103.8394
1084 35.679999 118.8100 74.6673 105.5819
1085 35.699999 118.8100 74.5836 107.5653
1086 35.719999 121.0000 74.4999 109.8423
1087 35.739999 121.0000 74.4165 112.4823
1088 35.759999 123.2100 74.3333 115.5699
1089 35.779999 127.6900 74.2504 119.2098
1090 35.799999 132.2500 74.1677 123.5290
1091 35.819999 136.8900 74.0854 128.6784
1092 35.839999 144.0000 74.0033 134.8328
1093 35.859999 151.2900 73.9214 142.1910
1094 35.879999 158.7600 73.8396 150.9696
1095 35.899999 169.0000 73.7582 161.4059
1096 35.919999 182.2500 73.6769 173.7376
1097 35.939999 193.2100 73.5961 188.1994
1098 35.959999 210.2500 73.5155 205.0062
1099 35.979999 225.0000 73.4350 224.3368
1100 35.999999 246.4900 73.3547 246.3139
1101 36.019999 268.9600 73.2747 270.9819
1102 36.039999 295.8400 73.1950 298.2798
1103 36.059999 324.0000 73.1153 328.0037
1104 36.079999 353.4400 73.0361 359.7935
1105 36.099999 388.0900 72.9569 393.0515
1106 36.119999 420.2500 72.8782 426.9210
1107 36.139999 453.6900 72.7997 460.2469
1108 36.159999 484.0000 72.7212 491.5846
1109 36.179999 510.7600 72.6432 519.2874
1110 36.199999 533.6100 72.5654 541.6876
1111 36.219999 552.2500 72.4877 557.3513
1112 36.239999 561.6900 72.4102 565.2678
1113 36.259999 566.4400 72.3331 565.0199
1114 36.279999 561.6900 72.2561 556.8741
1115 36.299999 552.2500 72.1795 541.5701
1116 36.319999 533.6100 72.1029 520.1736
1117 36.339999 510.7600 72.0267 493.9235
1118 36.359999 479.6100 71.9508 464.2226
1119 36.379999 445.2100 71.8749 432.5287
1120 36.399999 408.0400 71.7995 400.1957
1121 36.419999 372.4900 71.7241 368.4105
1122 36.439999 338.5600 71.6491 338.5414
1123 36.459999 306.2500 71.5742 310.4273
1124 36.479999 275.5600 71.4997 284.9500
1125 36.499999 249.6400 71.4252 262.3685
1126 36.519999 228.0100 71.3510 242.7796
1127 36.539999 213.1600 71.2769 226.3612
1128 36.559999 198.8100 71.2033 212.5570
1129 36.579999 187.6900 71.1300 201.3542
1130 36.599999 182.2500 71.0567 192.4728
1131 36.619999 176.8900 70.9835 185.5792
1132 36.639999 171.6100 70.9107 180.2995
1133 36.659999 169.0000 70.8382 176.2321
1134 36.679999 169.0000 70.7657 172.9657
1135 36.699999 166.4100 70.6936 170.1075
1136 36.719999 166.4100 70.6217 167.3153
1137 36.739999 163.8400 70.5500 164.3179
1138 36.759999 163.8400 70.4787 160.9388
1139 36.779999 158.7600 70.4074 157.1010
1140 36.799999 156.2500 70.3365 152.8009
1141 36.819999 153.7600 70.2656 148.0883
1142 36.839999 148.8400 70.1951 143.0473
1143 36.859999 141.6100 70.1247 137.7912
1144 36.879999 134.5600 70.0544 132.4509
1145 36.899999 127.6900 69.9847 127.1526
1146 36.919999 121.0000 69.9150 122.0103
1147 36.939999 116.6400 69.8454 117.1140
1148 36.959999 110.2500 69.7761 112.5290
1149 36.979999 106.0900 69.7072 108.2961
1150 36.999999 102.0100 69.6384 104.4353
1151 37.019999 98.0100 69.5698 100.9507
1152 37.039999 94.0900 69.5014 97.8331
1153 37.059999 92.1600 69.4332 95.0647
1154 37.079999 88.3600 69.3654 92.6200
1155 37.099999 86.4900 69.2976 90.4704
1156 37.119999 82.8100 69.2300 88.5851
1157 37.139999 81.0000 69.1627 86.9333
1158 37.159999 79.2100 69.0957 85.4849
1159 37.179999 77.4400 69.0288 84.2114
1160 37.199999 77.4400 68.9622 83.0874
1161 37.219999 77.4400 68.8958 82.0902
1162 37.239999 77.4400 68.8295 81.1996
1163 37.259999 79.2100 68.7635 80.3994
1164 37.279999 79.2100 68.6978 79.6751
1165 37.299999 81.0000 68.6321 79.0149
1166 37.319999 81.0000 68.5668 78.4097
1167 37.339999 81.0000 68.5017 77.8516
1168 37.359999 81.0000 68.4367 77.3342
1169 37.379999 79.2100 68.3719 76.8524
1170 37.399999 77.4400 68.3076 76.4025
1171 37.419999 77.4400 68.2431 75.9805
1172 37.439999 75.6900 68.1791 75.5844
1173 37.459999 73.9600 68.1152 75.2114
1174 37.479999 73.9600 68.0515 74.8597
1175 37.499999 73.9600 67.9880 74.5278
1176 37.519999 72.2500 67.9248 74.2144
1177 37.539999 73.9600 67.8617 73.9180
1178 37.559999 73.9600 67.7988 73.6378
1179 37.579999 72.2500 67.7362 73.3727
1180 37.599999 72.2500 67.6737 73.1221
1181 37.619999 72.2500 67.6114 72.8851
1182 37.639999 70.5600 67.5494 72.6613
1183 37.659999 70.5600 67.4878 72.4502
1184 37.679999 70.5600 67.4261 72.2511
1185 37.699999 68.8900 67.3646 72.0636
1186 37.719999 68.8900 67.3035 71.8878
1187 37.739999 68.8900 67.2426 71.7231
1188 37.759999 70.5600 67.1817 71.5693
1189 37.779999 70.5600 67.1210 71.4263
1190 37.799999 70.5600 67.0607 71.2945
1191 37.819999 70.5600 67.0006 71.1733
1192 37.839999 70.5600 66.9404 71.0629
1193 37.859999 70.5600 66.8807 70.9638
1194 37.879999 70.5600 66.8211 70.8759
1195 37.899999 68.8900 66.7617 70.7996
1196 37.919999 67.2400 66.7026 70.7355
1197 37.939999 65.6100 66.6436 70.6837
1198 37.959999 65.6100 66.5848 70.6452
1199 37.979999 64.0000 66.5262 70.6208
1200 37.999999 64.0000 66.4678 70.6114
1201 38.019999 64.0000 66.4096 70.6183
1202 38.039999 64.0000 66.3516 70.6434
1203 38.059999 64.0000 66.2938 70.6885
1204 38.079999 65.6100 66.2364 70.7568
1205 38.099999 65.6100 66.1789 70.8511
1206 38.119999 65.6100 66.1216 70.9764
1207 38.139999 65.6100 66.0647 71.1385
1208 38.159999 67.2400 66.0078 71.3447
1209 38.179999 67.2400 65.9513 71.6273
1210 38.199999 67.2400 65.8950 71.9861
1211 38.219999 68.8900 65.8386 72.4237
1212 38.239999 70.5600 65.7828 72.9587
1213 38.259999 72.2500 65.7270 73.6118
1214 38.279999 75.6900 65.6712 74.4222
1215 38.299999 79.2100 65.6157 75.4062
1216 38.319999 82.8100 65.5605 76.5923
1217 38.339999 84.6400 65.5054 78.0142
1218 38.359999 88.3600 65.4506 79.7065
1219 38.379999 90.2500 65.3959 81.7033
1220 38.399999 92.1600 65.3415 84.0373
1221 38.419999 94.0900 65.2873 86.7354
1222 38.439999 96.0400 65.2332 89.8172
1223 38.459999 100.0000 65.1791 93.2917
1224 38.479999 102.0100 65.1254 97.1540
1225 38.499999 106.0900 65.0719 101.3800
1226 38.519999 108.1600 65.0185 105.9211
1227 38.539999 112.3600 64.9654 110.6988
1228 38.559999 116.6400 64.9125 115.5961
1229 38.579999 121.0000 64.8597 120.4562
1230 38.599999 125.4400 64.8071 125.0765
1231 38.619999 127.6900 64.7547 129.2224
1232 38.639999 129.9600 64.7025 132.6502
1233 38.659999 132.2500 64.6505 135.1424
1234 38.679999 134.5600 64.5987 136.5403
1235 38.699999 134.5600 64.5470 136.7661
1236 38.719999 132.2500 64.4955 135.8352
1237 38.739999 132.2500 64.4443 133.8354
1238 38.759999 129.9600 64.3933 130.9004
1239 38.779999 127.6900 64.3423 127.1915
1240 38.799999 125.4400 64.2915 122.8892
1241 38.819999 121.0000 64.2411 118.1886
1242 38.839999 116.6400 64.1907 113.2848
1243 38.859999 112.3600 64.1404 108.3549
1244 38.879999 106.0900 64.0905 103.5484
1245 38.899999 102.0100 64.0407 98.9757
1246 38.919999 96.0400 63.9910 94.7166
1247 38.939999 90.2500 63.9416 90.8194
1248 38.959999 86.4900 63.8922 87.3071
1249 38.979999 82.8100 63.8431 84.1840
1250 38.999999 77.4400 63.7943 81.4392
1251 39.019999 75.6900 63.7455 79.0513
1252 39.039999 73.9600 63.6971 76.9920
1253 39.059999 72.2500 63.6485 75.2289
1254 39.079999 72.2500 63.6004 73.7274
1255 39.099999 72.2500 63.5525 72.4536
1256 39.119999 72.2500 63.5045 71.3743
1257 39.139999 72.2500 63.4570 70.4598
1258 39.159999 70.5600 63.4095 69.6824
1259 39.179999 70.5600 63.3621 69.0184
1260 39.199999 70.5600 63.3149 68.4476
1261 39.219999 68.8900 63.2683 67.9530
1262 39.239999 67.2400 63.2214 67.5199
1263 39.259999 67.2400 63.1746 67.1370
1264 39.279999 67.2400 63.1284 66.7957
1265 39.299999 67.2400 63.0822 66.4880
1266 39.319999 67.2400 63.0360 66.2083
1267 39.339999 68.8900 62.9901 65.9522
1268 39.359999 68.8900 62.9442 65.7158
1269 39.379999 65.6100 62.8988 65.4969
1270 39.399999 65.6100 62.8535 65.2927
1271 39.419999 67.2400 62.8083 65.1013
1272 39.439999 64.0000 62.7633 64.9216
1273 39.459999 65.6100 62.7184 64.7519
1274 39.479999 62.4100 62.6737 64.5917
1275 39.499999 64.0000 62.6291 64.4396
1276 39.519999 65.6100 62.5848 64.2952
1277 39.539999 65.6100 62.5405 64.1576
1278 39.559999 64.0000 62.4966 64.0265
1279 39.579999 65.6100 62.4529 63.9011
1280 39.599999 64.0000 62.4092 63.7810
1281 39.619999 60.8400 62.3655 63.6655
1282 39.639999 62.4100 62.3223 63.5549
1283 39.659999 64.0000 62.2790 63.4482
1284 39.679999 62.4100 62.2361 63.3456
1285 39.699999 62.4100 62.1933 63.2465
1286 39.719999 60.8400 62.1507 63.1507
1287 39.739999 62.4100 62.1081 63.0579
1288 39.759999 64.0000 62.0657 62.9680
1289 39.779999 64.0000 62.0235 62.8808
1290 39.799999 62.4100 61.9816 62.7963
1291 39.819999 65.6100 61.9398 62.7141
1292 39.839999 62.4100 61.8981 62.6340
1293 39.859999 62.4100 61.8568 62.5563
1294 39.879999 62.4100 61.8153 62.4801
1295 39.899999 60.8400 61.7741 62.4059
1296 39.919999 62.4100 61.7331 62.3335
1297 39.939999 62.4100 61.6923 62.2627
1298 39.959999 62.4100 61.6516 62.1934
1299 39.979999 62.4100 61.6112 62.1257
1300 39.999999 60.8400 61.5708 62.0593
1301 40.019999 60.8400 61.5306 61.9942
1302 40.039999 62.4100 61.4905 61.9303
1303 40.059999 60.8400 61.4505 61.8675
1304 40.079999 62.4100 61.4110 61.8062
1305 40.099999 59.2900 61.3714 61.7456
1306 40.119999 62.4100 61.3320 61.6861
1307 40.139999 62.4100 61.2929 61.6278
1308 40.159999 59.2900 61.2537 61.5701
1309 40.179999 60.8400 61.2147 61.5134
1310 40.199999 60.8400 61.1760 61.4576
1311 40.219999 60.8400 61.1375 61.4028
1312 40.239999 59.2900 61.0991 61.3486
1313 40.259999 62.4100 61.0607 61.2950
1314 40.279999 60.8400 61.0226 61.2422
1315 40.299999 60.8400 60.9847 61.1903
1316 40.319999 59.2900 60.9469 61.1389
1317 40.339999 59.2900 60.9091 61.0880
1318 40.359999 59.2900 60.8718 61.0381
1319 40.379999 60.8400 60.8345 60.9886
1320 40.399999 60.8400 60.7972 60.9397
1321 40.419999 60.8400 60.7601 60.8912
1322 40.439999 60.8400 60.7232 60.8433
1323 40.459999 60.8400 60.6865 60.7960
1324 40.479999 59.2900 60.6500 60.7493
1325 40.499999 59.2900 60.6136 60.7029
1326 40.519999 57.7600 60.5774 60.6571
1327 40.539999 56.2500 60.5413 60.6117
1328 40.559999 59.2900 60.5053 60.5668
1329 40.579999 57.7600 60.4694 60.5222
1330 40.599999 59.2900 60.4339 60.4782
1331 40.619999 56.2500 60.3983 60.4344
1332 40.639999 56.2500 60.3629 60.3911
1333 40.659999 57.7600 60.3278 60.3483
1334 40.679999 59.2900 60.2928 60.3058
1335 40.699999 59.2900 60.2579 60.2682
1336 40.719999 59.2900 60.2231 60.2308
1337 40.739999 59.2900 60.1885 60.1938
1338 40.759999 60.8400 60.1541 60.1569
1339 40.779999 59.2900 60.1198 60.1203
1340 40.799999 59.2900 60.0856 60.0857
1341 40.819999 59.2900 60.0517 60.0517
1342 40.839999 59.2900 60.0179 60.0179
1343 40.859999 57.7600 59.9842 59.9842
1344 40.879999 56.2500 59.9506 59.9506
1345 40.899999 56.2500 59.9172 59.9172
1346 40.919999 56.2500 59.8840 59.8840
1347 40.939999 57.7600 59.8507 59.8507
1348 40.959999 57.7600 59.8179 59.8179
1349 40.979999 59.2900 59.7849 59.7849
1350 40.999999 59.2900 59.7523 59.7523
1351 41.019999 60.8400 59.7196 59.7196
1352 41.039999 57.7600 59.6874 59.6874
1353 41.059999 62.4100 59.6550 59.6550
1354 41.079999 57.7600 59.6230 59.6230
1355 41.099999 57.7600 59.5909 59.5909
1356 41.119999 57.7600 59.5593 59.5593
1357 41.139999 59.2900 59.5275 59.5275
1358 41.159999 57.7600 59.4961 59.4961
1359 41.179999 56.2500 59.4647 59.4647
1360 41.199999 56.2500 59.4334 59.4334
1361 41.219999 57.7600 59.4021 59.4021
1362 41.239999 57.7600 59.3713 59.3713
1363 41.259999 57.7600 59.3405 59.3405
1364 41.279999 56.2500 59.3099 59.3099
1365 41.299999 56.2500 59.2792 59.2792
1366 41.319999 56.2500 59.2489 59.2489
1367 41.339999 56.2500 59.2186 59.2186
1368 41.359999 56.2500 59.1884 59.1884
1369 41.379999 56.2500 59.1585 59.1585
1370 41.399999 56.2500 59.1287 59.1287
1371 41.419999 57.7600 59.0988 59.0988
1372 41.439999 57.7600 59.0691 59.0691
1373 41.459999 59.2900 59.0398 59.0398
1374 41.479999 59.2900 59.0105 59.0105
1375 41.499999 59.2900 58.9813 58.9813
1376 41.519999 59.2900 58.9522 58.9522
1377 41.539999 59.2900 58.9236 58.9236
1378 41.559999 57.7600 58.8947 58.8947
1379 41.579999 57.7600 58.8661 58.8661
1380 41.599999 56.2500 58.8374 58.8374
1381 41.619999 56.2500 58.8093 58.8093
1382 41.639999 56.2500 58.7810 58.7810
1383 41.659999 57.7600 58.7529 58.7529
1384 41.679999 57.7600 58.7250 58.7250
1385 41.699999 59.2900 58.6970 58.6970
1386 41.719999 57.7600 58.6695 58.6695
1387 41.739999 59.2900 58.6419 58.6419
1388 41.759999 57.7600 58.6145 58.6145
1389 41.779999 59.2900 58.5870 58.5870
1390 41.799999 57.7600 58.5602 58.5602
1391 41.819999 57.7600 58.5330 58.5330
1392 41.839999 56.2500 58.5061 58.5061
1393 41.859999 56.2500 58.4793 58.4793
1394 41.879999 56.2500 58.4528 58.4528
1395 41.899999 54.7600 58.4263 58.4263
1396 41.919999 54.7600 58.3999 58.3999
1397 41.939999 56.2500 58.3736 58.3736
1398 41.959999 56.2500 58.3474 58.3474
1399 41.979999 56.2500 58.3214 58.3214
1400 41.999999 57.7600 58.2957 58.2957
1401 42.019999 57.7600 58.2700 58.2700
1402 42.039999 59.2900 58.2443 58.2443
1403 42.059999 59.2900 58.2188 58.2188
1404 42.079999 57.7600 58.1935 58.1935
1405 42.099999 57.7600 58.1684 58.1684
1406 42.119999 57.7600 58.1433 58.1433
1407 42.139999 56.2500 58.1182 58.1182
1408 42.159999 56.2500 58.0935 58.0935
1409 42.179999 56.2500 58.0688 58.0688
1410 42.199999 56.2500 58.0441 58.0441
1411 42.219999 57.7600 58.0197 58.0197
1412 42.239999 59.2900 57.9952 57.9952
1413 42.259999 59.2900 57.9711 57.9711
1414 42.279999 59.2900 57.9469 57.9469
1415 42.299999 59.2900 57.9231 57.9231
1416 42.319999 57.7600 57.8993 57.8993
1417 42.339999 59.2900 57.8756 58.4901
1418 42.359999 59.2900 57.8518 58.4716
1419 42.379999 56.2500 57.8285 58.4537
1420 42.399999 59.2900 57.8051 58.4358
1421 42.419999 59.2900 57.7819 58.4185
1422 42.439999 59.2900 57.7586 58.4010
1423 42.459999 57.7600 57.7359 58.6898
1424 42.479999 56.2500 57.7130 58.6758
1425 42.499999 56.2500 57.6901 58.6620
1426 42.519999 56.2500 57.6675 58.6488
1427 42.539999 56.2500 57.6450 58.6360
1428 42.559999 56.2500 57.6226 58.6235
1429 42.579999 54.7600 57.6005 58.6116
1430 42.599999 54.7600 57.5783 58.5999
1431 42.619999 56.2500 57.5563 58.5888
1432 42.639999 54.7600 57.5342 58.5779
1433 42.659999 54.7600 57.5125 58.5677
1434 42.679999 56.2500 57.4907 58.5577
1435 42.699999 56.2500 57.4692 58.5485
1436 42.719999 59.2900 57.4478 58.5397
1437 42.739999 59.2900 57.4265 58.5314
1438 42.759999 57.7600 57.4054 58.5237
1439 42.779999 57.7600 57.3842 58.5164
1440 42.799999 57.7600 57.3632 58.5097
1441 42.819999 56.2500 57.3423 58.5036
1442 42.839999 59.2900 57.3216 58.4981
1443 42.859999 59.2900 57.3010 58.4933
1444 42.879999 59.2900 57.2805 58.4892
1445 42.899999 56.2500 57.2600 58.4856
1446 42.919999 56.2500 57.2397 58.4828
1447 42.939999 56.2500 57.2197 58.4809
1448 42.959999 56.2500 57.1995 58.4795
1449 42.979999 56.2500 57.1796 58.4791
1450 42.999999 57.7600 57.1597 58.4793
1451 43.019999 56.2500 57.1401 58.4806
1452 43.039999 57.7600 57.1205 58.4827
1453 43.059999 59.2900 57.1008 58.4855
1454 43.079999 57.7600 57.0815 58.4896
1455 43.099999 57.7600 57.0622 58.4946
1456 43.119999 57.7600 57.0432 58.5008
1457 43.139999 60.8400 57.0241 58.5079
1458 43.159999 59.2900 57.0052 58.5164
1459 43.179999 60.8400 56.9863 58.5259
1460 43.199999 59.2900 56.9677 58.5369
1461 43.219999 59.2900 56.9489 58.5491
1462 43.239999 59.2900 56.9304 58.5628
1463 43.259999 60.8400 56.9122 58.5781
1464 43.279999 60.8400 56.8938 58.5948
1465 43.299999 60.8400 56.8755 58.6132
1466 43.319999 60.8400 56.8574 58.6334
1467 43.339999 60.8400 56.8395 58.6556
1468 43.359999 60.8400 56.8216 58.6796
1469 43.379999 60.8400 56.8041 58.7061
1470 43.399999 60.8400 56.7863 58.7343
1471 43.419999 60.8400 56.7688 58.7651
1472 43.439999 59.2900 56.7512 58.7983
1473 43.459999 60.8400 56.7340 58.8343
1474 43.479999 60.8400 56.7168 58.8731
1475 43.499999 60.8400 56.6997 58.9149
1476 43.519999 62.4100 56.6828 58.9602
1477 43.539999 62.4100 56.6656 59.0084
1478 43.559999 62.4100 56.6489 59.0607
1479 43.579999 62.4100 56.6323 59.1170
1480 43.599999 62.4100 56.6157 59.1873
1481 43.619999 62.4100 56.5993 59.2524
1482 43.639999 62.4100 56.5828 59.3225
1483 43.659999 62.4100 56.5664 59.3978
1484 43.679999 62.4100 56.5503 59.4790
1485 43.699999 62.4100 56.5342 59.5663
1486 43.719999 62.4100 56.5184 59.6654
1487 43.739999 62.4100 56.5024 59.7666
1488 43.759999 62.4100 56.4868 59.8762
1489 43.779999 64.0000 56.4709 59.9940
1490 43.799999 64.0000 56.4555 60.1216
1491 43.819999 65.6100 56.4400 60.2594
1492 43.839999 65.6100 56.4245 60.4084
1493 43.859999 65.6100 56.4094 60.5703
1494 43.879999 67.2400 56.3941 60.7457
1495 43.899999 67.2400 56.3791 60.9370
1496 43.919999 67.2400 56.3640 61.1454
1497 43.939999 67.2400 56.3493 61.3740
1498 43.959999 67.2400 56.3346 61.6250
1499 43.979999 67.2400 56.3197 61.9020
1500 43.999999 67.2400 56.3052 62.2099
1501 44.019999 67.2400 56.2907 62.5542
1502 44.039999 67.2400 56.2763 62.9421
1503 44.059999 67.2400 56.2620 63.3829
1504 44.079999 67.2400 56.2479 63.8884
1505 44.099999 68.8900 56.2337 64.4730
1506 44.119999 68.8900 56.2197 65.1553
1507 44.139999 70.5600 56.2060 65.9576
1508 44.159999 70.5600 56.1920 66.9063
1509 44.179999 72.2500 56.1783 68.0339
1510 44.199999 72.2500 56.1646 69.3770
1511 44.219999 73.9600 56.1513 70.9772
1512 44.239999 75.6900 56.1377 72.8803
1513 44.259999 77.4400 56.1246 75.1355
1514 44.279999 81.0000 56.1112 77.7923
1515 44.299999 84.6400 56.0981 80.9005
1516 44.319999 88.3600 56.0849 84.5051
1517 44.339999 92.1600 56.0721 88.6456
1518 44.359999 96.0400 56.0592 93.3486
1519 44.379999 102.0100 56.0463 98.6256
1520 44.399999 108.1600 56.0337 104.4706
1521 44.419999 114.4900 56.0210 110.8468
1522 44.439999 121.0000 56.0086 117.6842
1523 44.459999 129.9600 55.9962 124.8687
1524 44.479999 136.8900 55.9838 132.2328
1525 44.499999 144.0000 55.9716 139.5483
1526 44.519999 151.2900 55.9593 146.5254
1527 44.539999 158.7600 55.9475 152.8281
1528 44.559999 163.8400 55.9354 158.1112
1529 44.579999 169.0000 55.9237 162.0677
1530 44.599999 171.6100 55.9120 164.4784
1531 44.619999 171.6100 55.9003 165.2356
1532 44.639999 171.6100 55.8884 164.3708
1533 44.659999 169.0000 55.8772 162.0049
1534 44.679999 163.8400 55.8654 158.3051
1535 44.699999 158.7600 55.8544 153.4652
1536 44.719999 153.7600 55.8430 147.6931
1537 44.739999 146.4100 55.8318 141.2126
1538 44.759999 139.2400 55.8207 134.2766
1539 44.779999 129.9600 55.8098 127.1374
1540 44.799999 121.0000 55.7988 120.0262
1541 44.819999 114.4900 55.7881 113.1367
1542 44.839999 106.0900 55.7773 106.6154
1543 44.859999 100.0000 55.7667 100.5630
1544 44.879999 94.0900 55.7562 95.0402
1545 44.899999 90.2500 55.7456 90.0714
1546 44.919999 86.4900 55.7354 85.6586
1547 44.939999 82.8100 55.7250 81.7829
1548 44.959999 79.2100 55.7147 78.4123
1549 44.979999 77.4400 55.7045 75.5061
1550 44.999999 75.6900 55.6945 73.0185
1551 45.019999 75.6900 55.6846 70.9012
1552 45.039999 72.2500 55.6747 69.1071
1553 45.059999 70.5600 55.6648 67.5897
1554 45.079999 70.5600 55.6551 66.3077
1555 45.099999 67.2400 55.6455 65.2230
1556 45.119999 65.6100 55.6361 64.3024
1557 45.139999 64.0000 55.6263 63.5168
1558 45.159999 62.4100 55.6169 62.8426
1559 45.179999 62.4100 55.6077 62.2594
1560 45.199999 59.2900 55.5984 61.7506
1561 45.219999 59.2900 55.5893 61.3032
1562 45.239999 59.2900 55.5803 60.9064
1563 45.259999 59.2900 55.5715 60.5520
1564 45.279999 59.2900 55.5624 60.2327
1565 45.299999 59.2900 55.5534 59.9438
1566 45.319999 59.2900 55.5448 59.6815
1567 45.339999 59.2900 55.5360 59.4420
1568 45.359999 59.2900 55.5273 59.2231
1569 45.379999 59.2900 55.5192 59.0233
1570 45.399999 59.2900 55.5108 58.8403
1571 45.419999 59.2900 55.5024 58.6733
1572 45.439999 59.2900 55.4939 58.5213
1573 45.459999 60.8400 55.4858 58.3844
1574 45.479999 59.2900 55.4777 58.2616
1575 45.499999 59.2900 55.4695 58.1529
1576 45.519999 59.2900 55.4617 58.0587
1577 45.539999 59.2900 55.4537 57.9785
1578 45.559999 59.2900 55.4457 57.9128
1579 45.579999 59.2900 55.4379 57.8617
1580 45.599999 57.7600 55.4304 57.8255
1581 45.619999 57.7600 55.4228 57.8037
1582 45.639999 57.7600 55.4152 57.7961
1583 45.659999 57.7600 55.4080 57.8026
1584 45.679999 59.2900 55.4003 57.8213
1585 45.699999 57.7600 55.3930 57.8517
1586 45.719999 59.2900 55.3858 57.8910
1587 45.739999 57.7600 55.3788 57.9366
1588 45.759999 57.7600 55.3718 57.9841
1589 45.779999 57.7600 55.3648 58.0286
1590 45.799999 57.7600 55.3577 58.0645
1591 45.819999 59.2900 55.3510 58.0866
1592 45.839999 59.2900 55.3442 58.0897
1593 45.859999 59.2900 55.3374 58.0705
1594 45.879999 57.7600 55.3306 58.0275
1595 45.899999 57.7600 55.3242 57.9617
1596 45.919999 57.7600 55.3177 57.8744
1597 45.939999 59.2900 55.3110 57.7684
1598 45.959999 59.2900 55.3048 57.6469
1599 45.979999 57.7600 55.2986 57.5127
1600 45.999999 57.7600 55.2923 57.3689
1601 46.019999 59.2900 55.2860 57.2194
1602 46.039999 57.7600 55.2802 57.0685
1603 46.059999 59.2900 55.2742 56.9192
1604 46.079999 56.2500 55.2681 56.7743
1605 46.099999 56.2500 55.2624 56.6367
1606 46.119999 56.2500 55.2563 56.5072
1607 46.139999 56.2500 55.2510 56.3879
1608 46.159999 56.2500 55.2450 56.2776
1609 46.179999 56.2500 55.2397 56.1777
1610 46.199999 56.2500 55.2341 56.0870
1611 46.219999 56.2500 55.2283 56.0048
1612 46.239999 56.2500 55.2231 55.9315
1613 46.259999 54.7600 55.2180 55.8713
1614 46.279999 56.2500 55.2126 55.8118
1615 46.299999 56.2500 55.2072 55.7583
1616 46.319999 54.7600 55.2022 55.7103
1617 46.339999 56.2500 55.1968 55.6663
1618 46.359999 56.2500 55.1921 55.6267
1619 46.379999 56.2500 55.1873 55.5930
1620 46.399999 56.2500 55.1821 55.5590
1621 46.419999 56.2500 55.1773 55.5276
1622 46.439999 53.2900 55.1728 55.4986
1623 46.459999 56.2500 55.1679 55.4708
1624 46.479999 54.7600 55.1633 55.4449
1625 46.499999 56.2500 55.1588 55.4202
1626 46.519999 56.2500 55.1540 55.3965
1627 46.539999 56.2500 55.1501 55.3745
1628 46.559999 56.2500 55.1452 55.3524
1629 46.579999 56.2500 55.1413 55.3322
1630 46.599999 56.2500 55.1368 55.3121
1631 46.619999 54.7600 55.1328 55.2931
1632 46.639999 54.7600 55.1287 55.2747
1633 46.659999 54.7600 55.1245 55.2567
1634 46.679999 54.7600 55.1207 55.2397
1635 46.699999 56.2500 55.1168 55.2230
1636 46.719999 54.7600 55.1126 55.2066
1637 46.739999 54.7600 55.1091 55.1913
1638 46.759999 53.2900 55.1054 55.1762
1639 46.779999 56.2500 55.1013 55.1656
1640 46.799999 54.7600 55.0981 55.1573
1641 46.819999 54.7600 55.0942 55.1486
1642 46.839999 54.7600 55.0908 55.1406
1643 46.859999 54.7600 55.0873 55.1327
1644 46.879999 54.7600 55.0839 55.1251
1645 46.899999 56.2500 55.0808 55.1201
1646 46.919999 54.7600 55.0776 55.1158
1647 46.939999 54.7600 55.0743 55.1115
1648 46.959999 54.7600 55.0709 55.1071
1649 46.979999 54.7600 55.0679 55.1032
1650 46.999999 56.2500 55.0649 55.0993
1651 47.019999 53.2900 55.0617 55.0954
1652 47.039999 54.7600 55.0587 55.0917
1653 47.059999 54.7600 55.0560 55.0883
1654 47.079999 56.2500 55.0532 55.0849
1655 47.099999 53.2900 55.0506 55.0818
1656 47.119999 54.7600 55.0476 55.0783
1657 47.139999 56.2500 55.0450 55.0753
1658 47.159999 56.2500 55.0427 55.0725
1659 47.179999 56.2500 55.0399 55.0693
1660 47.199999 56.2500 55.0373 55.0664
1661 47.219999 56.2500 55.0353 55.0641
1662 47.239999 56.2500 55.0327 55.0614
1663 47.259999 54.7600 55.0303 55.0587
1664 47.279999 53.2900 55.0280 55.0563
1665 47.299999 53.2900 55.0261 55.0542
1666 47.319999 54.7600 55.0238 55.0518
1667 47.339999 54.7600 55.0217 55.0497
1668 47.359999 56.2500 55.0197 55.0477
1669 47.379999 54.7600 55.0178 55.0459
1670 47.399999 56.2500 55.0157 55.0438
1671 47.419999 54.7600 55.0138 55.0421
1672 47.439999 54.7600 55.0120 55.0404
1673 47.459999 56.2500 55.0100 55.0387
1674 47.479999 56.2500 55.0083 55.0373
1675 47.499999 56.2500 55.0067 55.0359
1676 47.519999 54.7600 55.0049 55.0345
1677 47.539999 54.7600 55.0033 55.0334
1678 47.559999 54.7600 55.0019 55.0324
1679 47.579999 56.2500 55.0004 55.0315
1680 47.599999 54.7600 54.9989 55.0305
1681 47.619999 54.7600 54.9976 55.0299
1682 47.639999 56.2500 54.9964 55.0294
1683 47.659999 56.2500 54.9951 55.0288
1684 47.679999 56.2500 54.9935 55.0282
1685 47.699999 56.2500 54.9927 55.0283
1686 47.719999 56.2500 54.9916 55.0282
1687 47.739999 54.7600 54.9903 55.0281
1688 47.759999 54.7600 54.9891 55.0281
1689 47.779999 53.2900 54.9881 55.0285
1690 47.799999 53.2900 54.9872 55.0291
1691 47.819999 53.2900 54.9865 55.0300
1692 47.839999 53.2900 54.9854 55.0306
1693 47.859999 53.2900 54.9847 55.0319
1694 47.879999 56.2500 54.9841 55.0335
1695 47.899999 53.2900 54.9830 55.0347
1696 47.919999 56.2500 54.9826 55.0369
1697 47.939999 53.2900 54.9819 55.0392
1698 47.959999 56.2500 54.9817 55.0423
1699 47.979999 53.2900 54.9809 55.0452
1700 47.999999 56.2500 54.9804 55.0490
1701 48.019999 54.7600 54.9800 55.0534
1702 48.039999 54.7600 54.9796 55.0587
1703 48.059999 56.2500 54.9795 55.0651
1704 48.079999 54.7600 54.9791 55.0727
1705 48.099999 56.2500 54.9787 55.0815
1706 48.119999 53.2900 54.9783 55.0921
1707 48.139999 56.2500 54.9782 55.1051
1708 48.159999 56.2500 54.9780 55.1204
1709 48.179999 56.2500 54.9782 55.1389
1710 48.199999 56.2500 54.9781 55.3329
1711 48.219999 54.7600 54.9782 55.3600
1712 48.239999 56.2500 54.9782 55.3912
1713 48.259999 53.2900 54.9781 55.4268
1714 48.279999 56.2500 54.9783 55.4678
1715 48.299999 53.2900 54.9785 55.5140
1716 48.319999 56.2500 54.9785 55.6501
1717 48.339999 56.2500 54.9790 55.7077
1718 48.359999 56.2500 54.9794 55.7699
1719 48.379999 56.2500 54.9794 55.8358
1720 48.399999 54.7600 54.9800 55.9055
1721 48.419999 54.7600 54.9807 55.9766
1722 48.439999 56.2500 54.9806 56.0465
1723 48.459999 56.2500 54.9816 56.1141
1724 48.479999 56.2500 54.9818 56.1747
1725 48.499999 56.2500 54.9825 56.2265
1726 48.519999 56.2500 54.9831 56.2663
1727 48.539999 56.2500 54.9838 56.2925
1728 48.559999 56.2500 54.9842 56.3038
1729 48.579999 56.2500 54.9850 56.3014
1730 48.599999 56.2500 54.9862 56.2867
1731 48.619999 56.2500 54.9868 56.2597
1732 48.639999 56.2500 54.9877 56.2233
1733 48.659999 54.7600 54.9887 56.1786
1734 48.679999 56.2500 54.9895 56.1270
1735 48.699999 56.2500 54.9904 56.0711
1736 48.719999 56.2500 54.9916 56.0129
1737 48.739999 54.7600 54.9925 55.9539
1738 48.759999 56.2500 54.9935 55.8964
1739 48.779999 56.2500 54.9946 55.8419
1740 48.799999 56.2500 54.9958 55.7915
1741 48.819999 54.7600 54.9970 55.7456
1742 48.839999 56.2500 54.9984 55.7050
1743 48.859999 56.2500 54.9993 55.6692
1744 48.879999 56.2500 55.0008 55.6389
1745 48.899999 56.2500 55.0019 55.6131
1746 48.919999 56.2500 55.0035 55.5924
1747 48.939999 56.2500 55.0050 55.5758
1748 48.959999 56.2500 55.0064 55.5628
1749 48.979999 56.2500 55.0077 55.5532
1750 48.999999 56.2500 55.0093 55.5469
1751 49.019999 56.2500 55.0107 55.5431
1752 49.039999 54.7600 55.0124 55.5418
1753 49.059999 56.2500 55.0138 55.5421
1754 49.079999 56.2500 55.0156 55.5447
1755 49.099999 56.2500 55.0172 55.5485
1756 49.119999 57.7600 55.0192 55.5540
1757 49.139999 56.2500 55.0207 55.5602
1758 49.159999 56.2500 55.0224 55.5677
1759 49.179999 57.7600 55.0241 55.5762
1760 49.199999 56.2500 55.0260 55.5857
1761 49.219999 56.2500 55.0280 55.5963
1762 49.239999 54.7600 55.0298 55.6075
1763 49.259999 56.2500 55.0317 55.6196
1764 49.279999 56.2500 55.0338 55.6328
1765 49.299999 56.2500 55.0359 55.6468
1766 49.319999 57.7600 55.0377 55.6613
1767 49.339999 56.2500 55.0397 56.2372
1768 49.359999 56.2500 55.0420 56.2590
1769 49.379999 56.2500 55.0439 56.2816
1770 49.399999 56.2500 55.0464 56.3059
1771 49.419999 56.2500 55.0483 56.3308
1772 49.439999 56.2500 55.0506 56.3575
1773 49.459999 56.2500 55.0527 56.6611
1774 49.479999 56.2500 55.0549 56.6928
1775 49.499999 57.7600 55.0573 56.7262
1776 49.519999 59.2900 55.0597 56.7613
1777 49.539999 59.2900 55.0621 56.7982
1778 49.559999 59.2900 55.0643 56.8369
1779 49.579999 59.2900 55.0668 56.8777
1780 49.599999 57.7600 55.0694 56.9209
1781 49.619999 56.2500 55.0717 56.9662
1782 49.639999 56.2500 55.0743 57.0143
1783 49.659999 59.2900 55.0765 57.0647
1784 49.679999 57.7600 55.0794 57.1188
1785 49.699999 56.2500 55.0815 57.1754
1786 49.719999 57.7600 55.0843 57.2361
1787 49.739999 56.2500 55.0869 57.3004
1788 49.759999 57.7600 55.0894 57.3690
1789 49.779999 54.7600 55.0924 57.4426
1790 49.799999 59.2900 55.0952 57.5213
1791 49.819999 57.7600 55.0979 57.6057
1792 49.839999 56.2500 55.1005 57.6966
1793 49.859999 57.7600 55.1034 57.7954
1794 49.879999 57.7600 55.1060 57.9027
1795 49.899999 59.2900 55.1088 58.0203
1796 49.919999 59.2900 55.1115 58.1502
1797 49.939999 59.2900 55.1145 58.2948
1798 49.959999 59.2900 55.1173 58.4569
1799 49.979999 59.2900 55.1202 58.6405
1800 49.999999 59.2900 55.1233 58.8503
1801 50.019999 59.2900 55.1264 59.0918
1802 50.039999 59.2900 55.1291 59.3717
1803 50.059999 60.8400 55.1324 59.6991
1804 50.079999 62.4100 55.1352 60.0824
1805 50.099999 62.4100 55.1382 60.5332
1806 50.119999 62.4100 55.1417 61.0636
1807 50.139999 62.4100 55.1446 61.6856
1808 50.159999 62.4100 55.1478 62.4135
1809 50.179999 62.4100 55.1510 63.2605
1810 50.199999 62.4100 55.1543 64.2393
1811 50.219999 64.0000 55.1572 65.3616
1812 50.239999 65.6100 55.1604 66.6367
1813 50.259999 67.2400 55.1635 68.0704
1814 50.279999 70.5600 55.1671 69.6642
1815 50.299999 72.2500 55.1700 71.4121
1816 50.319999 77.4400 55.1734 73.3025
1817 50.339999 79.2100 55.1770 75.3122
1818 50.359999 82.8100 55.1801 77.4052
1819 50.379999 86.4900 55.1834 79.5314
1820 50.399999 88.3600 55.1868 81.6245
1821 50.419999 90.2500 55.1904 83.6020
1822 50.439999 90.2500 55.1935 85.3710
1823 50.459999 92.1600 55.1971 86.8415
1824 50.479999 92.1600 55.2009 87.9379
1825 50.499999 92.1600 55.2041 88.6101
1826 50.519999 92.1600 55.2078 88.8435
1827 50.539999 92.1600 55.2111 88.6565
1828 50.559999 92.1600 55.2145 88.0880
1829 50.579999 92.1600 55.2182 87.1835
1830 50.599999 90.2500 55.2219 85.9881
1831 50.619999 88.3600 55.2254 84.5475
1832 50.639999 86.4900 55.2288 82.9095
1833 50.659999 84.6400 55.2326 81.1294
1834 50.679999 82.8100 55.2362 79.2684
1835 50.699999 79.2100 55.2400 77.3888
1836 50.719999 77.4400 55.2435 75.5453
1837 50.739999 75.6900 55.2472 73.7846
1838 50.759999 72.2500 55.2510 72.1412
1839 50.779999 70.5600 55.2544 70.6373
1840 50.799999 68.8900 55.2585 69.2871
1841 50.819999 67.2400 55.2622 68.0947
1842 50.839999 67.2400 55.2658 67.0595
1843 50.859999 67.2400 55.2699 66.1771
1844 50.879999 65.6100 55.2738 65.4386
1845 50.899999 65.6100 55.2773 64.8337
1846 50.919999 65.6100 55.2813 64.3528
1847 50.939999 65.6100 55.2852 63.9842
1848 50.959999 65.6100 55.2885 63.7173
1849 50.979999 65.6100 55.2929 63.5440
1850 50.999999 67.2400 55.2966 63.4549
1851 51.019999 67.2400 55.3007 63.4445
1852 51.039999 67.2400 55.3044 63.5081
1853 51.059999 65.6100 55.3081 63.6442
1854 51.079999 65.6100 55.3124 63.8542
1855 51.099999 65.6100 55.3166 64.1411
1856 51.119999 65.6100 55.3203 64.5114
1857 51.139999 65.6100 55.3242 64.9764
1858 51.159999 67.2400 55.3283 65.5507
1859 51.179999 67.2400 55.3322 66.2522
1860 51.199999 70.5600 55.3363 67.1045
1861 51.219999 72.2500 55.3400 68.1350
1862 51.239999 73.9600 55.3443 69.3767
1863 51.259999 75.6900 55.3484 70.8651
1864 51.279999 77.4400 55.3524 72.6401
1865 51.299999 81.0000 55.3567 74.7442
1866 51.319999 82.8100 55.3608 77.2197
1867 51.339999 86.4900 55.3647 80.1084
1868 51.359999 90.2500 55.3689 83.4489
1869 51.379999 94.0900 55.3729 87.2719
1870 51.399999 100.0000 55.3772 91.6015
1871 51.419999 104.0400 55.3810 96.4453
1872 51.439999 110.2500 55.3854 101.7957
1873 51.459999 116.6400 55.3897 107.6201
1874 51.479999 123.2100 55.3939 113.8574
1875 51.499999 129.9600 55.3979 120.4092
1876 51.519999 134.5600 55.4022 127.1322
1877 51.539999 139.2400 55.4063 133.8291
1878 51.559999 144.0000 55.4106 140.2561
1879 51.579999 146.4100 55.4145 146.1233
1880 51.599999 148.8400 55.4190 151.1328
1881 51.619999 151.2900 55.4231 155.0160
1882 51.639999 153.7600 55.4273 157.5818
1883 51.659999 153.7600 55.4319 158.7334
1884 51.679999 153.7600 55.4360 158.4948
1885 51.699999 151.2900 55.4401 156.9726
1886 51.719999 148.8400 55.4447 154.3078
1887 51.739999 144.0000 55.4487 150.6445
1888 51.759999 139.2400 55.4530 146.1234
1889 51.779999 134.5600 55.4573 140.8863
1890 51.799999 127.6900 55.4618 135.0870
1891 51.819999 121.0000 55.4657 128.9070
1892 51.839999 114.4900 55.4699 122.5422
1893 51.859999 108.1600 55.4748 116.1814
1894 51.879999 104.0400 55.4791 110.2824
1895 51.899999 98.0100 55.4834 104.3891
1896 51.919999 94.0900 55.4879 98.8857
1897 51.939999 90.2500 55.4920 93.8293
1898 51.959999 88.3600 55.4964 89.2492
1899 51.979999 84.6400 55.5009 85.1510
1900 51.999999 82.8100 55.5051 81.5227
1901 52.019999 79.2100 55.5096 78.4866
1902 52.039999 77.4400 55.5140 75.7220
1903 52.059999 75.6900 55.5182 73.3347
1904 52.079999 73.9600 55.5227 71.2865
1905 52.099999 72.2500 55.5271 69.5373
1906 52.119999 70.5600 55.5317 68.0487
1907 52.139999 70.5600 55.5359 66.7836
1908 52.159999 68.8900 55.5399 65.7087
1909 52.179999 67.2400 55.5447 64.7949
1910 52.199999 65.6100 55.5488 64.0146
1911 52.219999 65.6100 55.5534 63.3459
1912 52.239999 65.6100 55.5578 62.7690
1913 52.259999 64.0000 55.5622 62.2679
1914 52.279999 64.0000 55.5665 61.8292
1915 52.299999 62.4100 55.5714 61.4431
1916 52.319999 62.4100 55.5754 61.0991
1917 52.339999 62.4100 55.5798 60.7917
1918 52.359999 62.4100 55.5841 60.5146
1919 52.379999 62.4100 55.5886 60.2638
1920 52.399999 62.4100 55.5931 60.0355
1921 52.419999 62.4100 55.5975 59.8268
1922 52.439999 62.4100 55.6018 59.6352
1923 52.459999 62.4100 55.6065 59.4593
1924 52.479999 60.8400 55.6110 59.2970
1925 52.499999 60.8400 55.6154 59.1471
1926 52.519999 60.8400 55.6198 59.0083
1927 52.539999 60.8400 55.6244 58.8801
1928 52.559999 60.8400 55.6285 58.7608
1929 52.579999 60.8400 55.6335 58.6511
1930 52.599999 60.8400 55.6375 58.5484
1931 52.619999 60.8400 55.6419 58.4534
1932 52.639999 60.8400 55.6465 58.3655
1933 52.659999 60.8400 55.6512 58.2841
1934 52.679999 60.8400 55.6554 58.2081
1935 52.699999 59.2900 55.6601 58.1383
1936 52.719999 59.2900 55.6645 58.0733
1937 52.739999 59.2900 55.6688 58.0132
1938 52.759999 59.2900 55.6731 57.9578
1939 52.779999 59.2900 55.6776 57.9069
1940 52.799999 60.8400 55.6818 57.8586
1941 52.819999 60.8400 55.6866 57.8175
1942 52.839999 60.8400 55.6910 57.7798
1943 52.859999 60.8400 55.6953 57.7456
1944 52.879999 59.2900 55.6998 57.7150
1945 52.899999 59.2900 55.7040 57.6874
1946 52.919999 59.2900 55.7085 57.6619
1947 52.939999 57.7600 55.7134 57.6421
1948 52.959999 56.2500 55.7174 57.6243
1949 52.979999 56.2500 55.7221 57.6102
1950 52.999999 56.2500 55.7264 57.5985
1951 53.019999 56.2500 55.7305 57.5896
1952 53.039999 56.2500 55.7350 57.5838
1953 53.059999 56.2500 55.7394 57.5808
1954 53.079999 56.2500 55.7439 57.5806
1955 53.099999 57.7600 55.7484 57.5832
1956 53.119999 59.2900 55.7531 57.5889
1957 53.139999 59.2900 55.7574 57.5971
1958 53.159999 60.8400 55.7616 57.6082
1959 53.179999 60.8400 55.7663 57.6227
1960 53.199999 60.8400 55.7706 57.6400
1961 53.219999 59.2900 55.7748 57.6602
1962 53.239999 59.2900 55.7789 57.6838
1963 53.259999 57.7600 55.7836 57.7113
1964 53.279999 56.2500 55.7880 57.7422
1965 53.299999 57.7600 55.7920 57.7764
1966 53.319999 57.7600 55.7966 57.8153
1967 53.339999 57.7600 55.8008 57.8579
1968 53.359999 57.7600 55.8051 57.9051
1969 53.379999 59.2900 55.8095 57.9572
1970 53.399999 57.7600 55.8140 58.0145
1971 53.419999 59.2900 55.8182 58.0770
1972 53.439999 59.2900 55.8226 58.1457
1973 53.459999 59.2900 55.8266 58.2205
1974 53.479999 59.2900 55.8310 58.3028
1975 53.499999 60.8400 55.8354 58.3927
1976 53.519999 59.2900 55.8396 58.4912
1977 53.539999 59.2900 55.8438 58.5994
1978 53.559999 59.2900 55.8481 58.7185
1979 53.579999 59.2900 55.8524 58.8502
1980 53.599999 59.2900 55.8566 58.9962
1981 53.619999 59.2900 55.8609 59.1593
1982 53.639999 60.8400 55.8654 59.3427
1983 53.659999 62.4100 55.8695 59.5498
1984 53.679999 62.4100 55.8737 59.7859
1985 53.699999 62.4100 55.8780 60.0572
1986 53.719999 60.8400 55.8821 60.3712
1987 53.739999 60.8400 55.8862 60.7374
1988 53.759999 60.8400 55.8906 61.1674
1989 53.779999 62.4100 55.8947 61.6738
1990 53.799999 62.4100 55.8991 62.2727
1991 53.819999 62.4100 55.9031 62.9809
1992 53.839999 65.6100 55.9071 63.8184
1993 53.859999 65.6100 55.9115 64.8064
1994 53.879999 67.2400 55.9157 65.9661
1995 53.899999 68.8900 55.9197 67.3200
1996 53.919999 70.5600 55.9236 68.8896
1997 53.939999 72.2500 55.9280 70.6945
1998 53.959999 73.9600 55.9319 72.7413
1999 53.979999 75.6900 55.9362 75.0633
2000 53.999999 77.4400 55.9402 77.6500
2001 54.019999 79.2100 55.9441 80.4966
2002 54.039999 84.6400 55.9482 83.5854
2003 54.059999 86.4900 55.9526 86.8850
2004 54.079999 90.2500 55.9565 90.3427
2005 54.099999 96.0400 55.9604 93.8799
2006 54.119999 100.0000 55.9647 97.4068
2007 54.139999 104.0400 55.9687 101.0689
2008 54.159999 108.1600 55.9726 104.1616
2009 54.179999 110.2500 55.9765 106.8095
2010 54.199999 112.3600 55.9803 108.8763
2011 54.219999 114.4900 55.9843 110.2660
2012 54.239999 116.6400 55.9882 110.9297
2013 54.259999 114.4900 55.9923 110.8821
2014 54.279999 114.4900 55.9962 110.1794
2015 54.299999 112.3600 56.0002 109.0356
2016 54.319999 110.2500 56.0038 107.2466
2017 54.339999 108.1600 56.0079 105.0188
2018 54.359999 106.0900 56.0117 102.4167
2019 54.379999 102.0100 56.0157 99.5078
2020 54.399999 98.0100 56.0198 96.3737
2021 54.419999 96.0400 56.0231 93.1070
2022 54.439999 92.1600 56.0268 89.8048
2023 54.459999 88.3600 56.0309 86.5551
2024 54.479999 84.6400 56.0347 83.4305
2025 54.499999 81.0000 56.0384 80.4861
2026 54.519999 77.4400 56.0422 77.7591
2027 54.539999 75.6900 56.0459 75.2704
2028 54.559999 72.2500 56.0493 73.0272
2029 54.579999 70.5600 56.0532 71.0285
2030 54.599999 67.2400 56.0572 69.2653
2031 54.619999 65.6100 56.0606 67.7226
2032 54.639999 62.4100 56.0646 66.3843
2033 54.659999 65.6100 56.0682 65.2302
2034 54.679999 62.4100 56.0718 64.2409
2035 54.699999 64.0000 56.0753 63.3965
2036 54.719999 62.4100 56.0789 62.6780
2037 54.739999 62.4100 56.0824 62.0674
2038 54.759999 60.8400 56.0864 61.5493
2039 54.779999 59.2900 56.0895 61.1075
2040 54.799999 60.8400 56.0933 60.7314
2041 54.819999 56.2500 56.0969 60.4090
2042 54.839999 59.2900 56.1003 60.1311
2043 54.859999 59.2900 56.1037 59.8902
2044 54.879999 56.2500 56.1077 59.6806
2045 54.899999 59.2900 56.1111 59.4958
2046 54.919999 59.2900 56.1147 59.3329
2047 54.939999 59.2900 56.1181 59.1876
2048 54.959999 59.2900 56.1215 59.0578
2049 54.979999 59.2900 56.1245 58.9409
2050 54.999999 59.2900 56.1281 58.8361
2051 55.019999 57.7600 56.1316 58.7414
2052 55.039999 59.2900 56.1350 58.6556
2053 55.059999 57.7600 56.1379 58.5774
2054 55.079999 59.2900 56.1416 58.5074
2055 55.099999 57.7600 56.1446 58.4434
2056 55.119999 57.7600 56.1481 58.3860
2057 55.139999 59.2900 56.1511 58.3340
2058 55.159999 59.2900 56.1542 58.2873
2059 55.179999 59.2900 56.1579 58.2462
2060 55.199999 59.2900 56.1609 58.2090
2061 55.219999 56.2500 56.1642 58.1766
2062 55.239999 56.2500 56.1672 58.1481
2063 55.259999 56.2500 56.1707 58.1241
2064 55.279999 56.2500 56.1734 58.1030
2065 55.299999 56.2500 56.1766 58.0862
2066 55.319999 56.2500 56.1798 58.0729
2067 55.339999 56.2500 56.1832 58.0633
2068 55.359999 56.2500 56.1860 58.0566
2069 55.379999 56.2500 56.1891 58.0535
2070 55.399999 56.2500 56.1922 58.0536
2071 55.419999 56.2500 56.1954 58.0573
2072 55.439999 54.7600 56.1983 58.0639
2073 55.459999 54.7600 56.2012 58.0739
2074 55.479999 53.2900 56.2039 58.0869
2075 55.499999 53.2900 56.2070 58.1039
2076 55.519999 53.2900 56.2099 58.1241
2077 55.539999 53.2900 56.2125 58.1477
2078 55.559999 54.7600 56.2159 58.1757
2079 55.579999 54.7600 56.2186 58.2070
2080 55.599999 56.2500 56.2213 58.2424
2081 55.619999 56.2500 56.2241 58.2821
2082 55.639999 56.2500 56.2270 58.3265
2083 55.659999 57.7600 56.2299 58.3757
2084 55.679999 57.7600 56.2326 58.4297
2085 55.699999 59.2900 56.2352 58.4891
2086 55.719999 59.2900 56.2377 58.5542
2087 55.739999 57.7600 56.2406 58.6262
2088 55.759999 59.2900 56.2432 58.7049
2089 55.779999 57.7600 56.2459 58.7912
2090 55.799999 59.2900 56.2484 58.8859
2091 55.819999 57.7600 56.2509 58.9901
2092 55.839999 59.2900 56.2540 59.1055
2093 55.859999 57.7600 56.2564 59.2325
2094 55.879999 59.2900 56.2585 59.3733
2095 55.899999 59.2900 56.2614 59.5317
2096 55.919999 59.2900 56.2636 59.7089
2097 55.939999 59.2900 56.2663 59.9102
2098 55.959999 59.2900 56.2687 60.1395
2099 55.979999 59.2900 56.2709 60.4029
2100 55.999999 62.4100 56.2735 60.7085
2101 56.019999 62.4100 56.2758 61.0645
2102 56.039999 60.8400 56.2781 61.4817
2103 56.059999 62.4100 56.2807 61.9734
2104 56.079999 64.0000 56.2825 62.5529
2105 56.099999 64.0000 56.2849 63.2381
2106 56.119999 62.4100 56.2874 64.0467
2107 56.139999 65.6100 56.2896 64.9976
2108 56.159999 67.2400 56.2919 66.1119
2109 56.179999 68.8900 56.2940 67.4094
2110 56.199999 70.5600 56.2963 68.9100
2111 56.219999 72.2500 56.2981 70.6309
2112 56.239999 72.2500 56.3001 72.5873
2113 56.259999 73.9600 56.3026 74.7888
2114 56.279999 75.6900 56.3045 77.2376
2115 56.299999 77.4400 56.3065 79.9292
2116 56.319999 81.0000 56.3085 82.8475
2117 56.339999 84.6400 56.3104 85.9622
2118 56.359999 86.4900 56.3125 89.2257
2119 56.379999 90.2500 56.3145 92.5704
2120 56.399999 94.0900 56.3163 95.9030
2121 56.419999 98.0100 56.3186 99.1076
2122 56.439999 102.0100 56.3202 102.8744
2123 56.459999 104.0400 56.3220 105.4171
2124 56.479999 106.0900 56.3235 107.4273
2125 56.499999 108.1600 56.3256 108.8138
2126 56.519999 108.1600 56.3274 109.5282
2127 56.539999 108.1600 56.3291 109.5807
2128 56.559999 106.0900 56.3307 109.0132
2129 56.579999 104.0400 56.3325 107.9194
2130 56.599999 102.0100 56.3341 106.7663
2131 56.619999 102.0100 56.3357 104.7983
2132 56.639999 100.0000 56.3376 102.4768
2133 56.659999 98.0100 56.3387 99.8561
2134 56.679999 96.0400 56.3404 97.0005
2135 56.699999 92.1600 56.3420 93.9825
2136 56.719999 90.2500 56.3436 90.8992
2137 56.739999 88.3600 56.3450 87.8276
2138 56.759999 84.6400 56.3466 84.8418
2139 56.779999 82.8100 56.3481 82.0000
2140 56.799999 79.2100 56.3495 79.3438
2141 56.819999 77.4400 56.3507 76.8993
2142 56.839999 75.6900 56.3520 74.6799
2143 56.859999 73.9600 56.3536 72.6890
2144 56.879999 72.2500 56.3544 70.9199
2145 56.899999 72.2500 56.3558 69.3638
2146 56.919999 70.5600 56.3573 68.0063
2147 56.939999 68.8900 56.3582 66.8298
2148 56.959999 67.2400 56.3593 65.8176
2149 56.979999 65.6100 56.3609 64.9517
2150 56.999999 65.6100 56.3618 64.2132
2151 57.019999 62.4100 56.3630 63.5863
2152 57.039999 62.4100 56.3640 63.0547
2153 57.059999 62.4100 56.3650 62.6044
2154 57.079999 60.8400 56.3662 62.2228
2155 57.099999 60.8400 56.3672 61.8987
2156 57.119999 60.8400 56.3680 61.6225
2157 57.139999 60.8400 56.3689 61.3864
2158 57.159999 60.8400 56.3697 61.1838
2159 57.179999 60.8400 56.3706 61.0093
2160 57.199999 60.8400 56.3713 60.8582
2161 57.219999 60.8400 56.3722 60.7272
2162 57.239999 60.8400 56.3728 60.6129
2163 57.259999 60.8400 56.3740 60.5138
2164 57.279999 60.8400 56.3745 60.4271
2165 57.299999 60.8400 56.3749 60.3516
2166 57.319999 60.8400 56.3757 60.2868
2167 57.339999 60.8400 56.3768 60.2315
2168 57.359999 60.8400 56.3771 60.1839
2169 57.379999 60.8400 56.3778 60.1446
2170 57.399999 60.8400 56.3783 60.1124
2171 57.419999 60.8400 56.3788 60.0873
2172 57.439999 62.4100 56.3793 60.0686
2173 57.459999 62.4100 56.3799 60.0563
2174 57.479999 62.4100 56.3803 60.0499
2175 57.499999 62.4100 56.3805 60.0491
2176 57.519999 62.4100 56.3809 60.0542
2177 57.539999 62.4100 56.3812 60.0649
2178 57.559999 62.4100 56.3815 60.0811
2179 57.579999 62.4100 56.3817 60.1025
2180 57.599999 62.4100 56.3820 60.1296
2181 57.619999 62.4100 56.3822 60.1620
2182 57.639999 62.4100 56.3826 60.2002
2183 57.659999 62.4100 56.3824 60.2434
2184 57.679999 62.4100 56.3827 60.2927
2185 57.699999 62.4100 56.3826 60.3476
2186 57.719999 62.4100 56.3830 60.4089
2187 57.739999 64.0000 56.3831 60.4762
2188 57.759999 62.4100 56.3827 60.5494
2189 57.779999 64.0000 56.3829 60.6299
2190 57.799999 62.4100 56.3825 60.7168
2191 57.819999 62.4100 56.3827 60.8118
2192 57.839999 62.4100 56.3823 60.9139
2193 57.859999 62.4100 56.3824 61.0248
2194 57.879999 62.4100 56.3818 61.1438
2195 57.899999 62.4100 56.3818 61.2725
2196 57.919999 62.4100 56.3814 61.4109
2197 57.939999 62.4100 56.3813 61.5602
2198 57.959999 62.4100 56.3811 61.7207
2199 57.979999 65.6100 56.3809 61.8936
2200 57.999999 64.0000 56.3803 62.0793
2201 58.019999 64.0000 56.3798 62.2797
2202 58.039999 64.0000 56.3797 62.4959
2203 58.059999 65.6100 56.3790 62.7289
2204 58.079999 65.6100 56.3783 62.9808
2205 58.099999 65.6100 56.3780 63.2539
2206 58.119999 67.2400 56.3774 63.5501
2207 58.139999 65.6100 56.3767 65.4626
2208 58.159999 67.2400 56.3763 65.8291
2209 58.179999 67.2400 56.3752 66.2294
2210 58.199999 67.2400 56.3746 66.6700
2211 58.219999 67.2400 56.3739 67.1574
2212 58.239999 70.5600 56.3733 67.7001
2213 58.259999 68.8900 56.3719 68.3081
2214 58.279999 68.8900 56.3716 68.9966
2215 58.299999 68.8900 56.3704 70.5679
2216 58.319999 72.2500 56.3698 71.4756
2217 58.339999 72.2500 56.3687 72.5243
2218 58.359999 72.2500 56.3674 73.7437
2219 58.379999 75.6900 56.3667 75.1700
2220 58.399999 77.4400 56.3656 76.8423
2221 58.419999 79.2100 56.3645 78.8069
2222 58.439999 84.6400 56.3633 81.1144
2223 58.459999 88.3600 56.3625 83.8201
2224 58.479999 90.2500 56.3611 86.9803
2225 58.499999 94.0900 56.3598 90.6542
2226 58.519999 100.0000 56.3584 94.8979
2227 58.539999 106.0900 56.3570 99.7628
2228 58.559999 112.3600 56.3557 105.2949
2229 58.579999 118.8100 56.3548 111.5259
2230 58.599999 123.2100 56.3529 118.4701
2231 58.619999 129.9600 56.3515 126.1235
2232 58.639999 136.8900 56.3501 134.4516
2233 58.659999 144.0000 56.3489 143.3855
2234 58.679999 151.2900 56.3476 152.8105
2235 58.699999 158.7600 56.3458 162.5551
2236 58.719999 169.0000 56.3442 172.3896
2237 58.739999 176.8900 56.3425 182.0086
2238 58.759999 184.9600 56.3407 191.0472
2239 58.779999 193.2100 56.3390 199.1056
2240 58.799999 201.6400 56.3373 205.7956
2241 58.819999 207.3600 56.3358 210.8031
2242 58.839999 213.1600 56.3334 213.9318
2243 58.859999 219.0400 56.3321 215.1193
2244 58.879999 222.0100 56.3298 214.5007
2245 58.899999 222.0100 56.3282 212.2502
2246 58.919999 219.0400 56.3261 208.5791
2247 58.939999 213.1600 56.3239 203.6784
2248 58.959999 207.3600 56.3223 197.7045
2249 58.979999 198.8100 56.3202 190.7941
2250 58.999999 190.4400 56.3180 183.0908
2251 59.019999 182.2500 56.3156 174.7583
2252 59.039999 171.6100 56.3137 166.0296
2253 59.059999 158.7600 56.3114 157.1286
2254 59.079999 148.8400 56.3091 148.2880
2255 59.099999 139.2400 56.3067 139.7099
2256 59.119999 129.9600 56.3046 131.5550
2257 59.139999 121.0000 56.3023 123.9636
2258 59.159999 112.3600 56.2999 116.9539
2259 59.179999 104.0400 56.2975 110.5881
2260 59.199999 98.0100 56.2950 104.8744
2261 59.219999 92.1600 56.2924 99.7968
2262 59.239999 90.2500 56.2903 95.3280
2263 59.259999 86.4900 56.2873 91.4273
2264 59.279999 84.6400 56.2847 88.0499
2265 59.299999 82.8100 56.2824 85.1467
2266 59.319999 82.8100 56.2792 82.6794
2267 59.339999 81.0000 56.2767 80.5736
2268 59.359999 79.2100 56.2737 78.7943
2269 59.379999 77.4400 56.2714 77.2980
2270 59.399999 75.6900 56.2681 76.0433
2271 59.419999 73.9600 56.2652 74.9961
2272 59.439999 72.2500 56.2627 74.1249
2273 59.459999 70.5600 56.2595 73.4019
2274 59.479999 68.8900 56.2567 72.8056
2275 59.499999 67.2400 56.2537 72.3162
2276 59.519999 67.2400 56.2507 71.9186
2277 59.539999 65.6100 56.2477 71.6003
2278 59.559999 65.6100 56.2445 71.3511
2279 59.579999 65.6100 56.2412 71.1633
2280 59.599999 65.6100 56.2383 71.0313
2281 59.619999 65.6100 56.2347 70.9496
2282 59.639999 65.6100 56.2313 70.9156
2283 59.659999 65.6100 56.2284 70.9274
2284 59.679999 65.6100 56.2247 70.9822
2285 59.699999 65.6100 56.2214 71.0803
2286 59.719999 64.0000 56.2180 71.2211
2287 59.739999 64.0000 56.2148 71.4054
2288 59.759999 64.0000 56.2108 71.6329
2289 59.779999 64.0000 56.2074 71.9069
2290 59.799999 64.0000 56.2036 72.2283
2291 59.819999 65.6100 56.2003 72.6009
2292 59.839999 65.6100 56.1967 73.0277
2293 59.859999 67.2400 56.1932 73.5136
2294 59.879999 67.2400 56.1891 74.0644
2295 59.899999 68.8900 56.1854 74.6886
2296 59.919999 70.5600 56.1820 75.3957
2297 59.939999 70.5600 56.1778 76.1973
2298 59.959999 72.2500 56.1738 77.1101
2299 59.979999 72.2500 56.1700 78.1540
2300 59.999999 79.2100 56.1661 79.3534
2301 60.019999 81.0000 56.1619 80.7393
2302 60.039999 81.0000 56.1582 82.3501
2303 60.059999 84.6400 56.1540 84.2316
2304 60.079999 84.6400 56.1500 86.4393
2305 60.099999 88.3600 56.1456 89.0378
2306 60.119999 90.2500 56.1416 92.1028
2307 60.139999 94.0900 56.1371 95.7186
2308 60.159999 98.0100 56.1330 99.9803
2309 60.179999 104.0400 56.1284 104.9887
2310 60.199999 110.2500 56.1242 110.8504
2311 60.219999 114.4900 56.1198 117.6756
2312 60.239999 118.8100 56.1156 125.5693
2313 60.259999 121.0000 56.1107 134.6286
2314 60.279999 134.5600 56.1063 144.9383
2315 60.299999 146.4100 56.1017 156.5604
2316 60.319999 161.2900 56.0973 169.5284
2317 60.339999 179.5600 56.0926 183.8365
2318 60.359999 196.0000 56.0877 199.4263
2319 60.379999 216.0900 56.0834 216.1861
2320 60.399999 234.0900 56.0783 233.9126
2321 60.419999 252.8100 56.0736 252.3094
2322 60.439999 275.5600 56.0688 270.9614
2323 60.459999 292.4100 56.0639 289.3264
2324 60.479999 313.2900 56.0591 306.7430
2325 60.499999 327.6100 56.0542 322.4711
2326 60.519999 342.2500 56.0492 335.7720
2327 60.539999 349.6900 56.0444 346.0169
2328 60.559999 357.2100 56.0390 352.7930
2329 60.579999 357.2100 56.0343 355.9361
2330 60.599999 357.2100 56.0289 355.5891
2331 60.619999 349.6900 56.0234 352.0897
2332 60.639999 342.2500 56.0183 345.8460
2333 60.659999 331.2400 56.0131 337.2371
2334 60.679999 320.4100 56.0080 326.5694
2335 60.699999 306.2500 56.0026 314.0911
2336 60.719999 292.4100 55.9969 300.0336
2337 60.739999 278.8900 55.9918 284.6629
2338 60.759999 262.4400 55.9860 268.3227
2339 60.779999 246.4900 55.9808 251.4275
2340 60.799999 231.0400 55.9751 234.4096
2341 60.819999 216.0900 55.9693 217.6747
2342 60.839999 198.8100 55.9638 201.5649
2343 60.859999 184.9600 55.9582 186.3423
2344 60.879999 174.2400 55.9523 172.1782
2345 60.899999 161.2900 55.9471 159.1796
2346 60.919999 151.2900 55.9409 147.3884
2347 60.939999 144.0000 55.9351 136.8028
2348 60.959999 136.8900 55.9294 127.3854
2349 60.979999 132.2500 55.9232 119.0741
2350 60.999999 127.6900 55.9174 111.7922
2351 61.019999 121.0000 55.9112 105.4530
2352 61.039999 116.6400 55.9055 99.9629
2353 61.059999 112.3600 55.8993 95.2296
2354 61.079999 106.0900 55.8931 91.1636
2355 61.099999 102.0100 55.8870 87.6794
2356 61.119999 98.0100 55.8808 84.6978
2357 61.139999 92.1600 55.8746 82.1473
2358 61.159999 88.3600 55.8685 79.9644
2359 61.179999 84.6400 55.8619 78.0934
2360 61.199999 81.0000 55.8557 76.4880
2361 61.219999 79.2100 55.8493 75.0551
2362 61.239999 75.6900 55.8427 73.8727
2363 61.259999 75.6900 55.8361 72.8546
2364 61.279999 73.9600 55.8297 71.9786
2365 61.299999 72.2500 55.8231 71.2263
2366 61.319999 72.2500 55.8166 70.5832
2367 61.339999 72.2500 55.8102 70.0370
2368 61.359999 70.5600 55.8034 69.5769
2369 61.379999 70.5600 55.7966 69.1937
2370 61.399999 70.5600 55.7897 68.8557
2371 61.419999 70.5600 55.7829 68.6037
2372 61.439999 70.5600 55.7762 68.4013
2373 61.459999 68.8900 55.7690 68.2374
2374 61.479999 67.2400 55.7618 68.1001
2375 61.499999 67.2400 55.7551 67.9761
2376 61.519999 67.2400 55.7481 67.8499
2377 61.539999 67.2400 55.7409 67.7074
2378 61.559999 65.6100 55.7341 67.5363
2379 61.579999 65.6100 55.7266 67.3273
2380 61.599999 65.6100 55.7196 67.0767
2381 61.619999 64.0000 55.7122 66.7849
2382 61.639999 64.0000 55.7051 66.4564
2383 61.659999 62.4100 55.6978 66.0967
2384 61.679999 62.4100 55.6901 65.7110
2385 61.699999 62.4100 55.6831 65.3045
2386 61.719999 62.4100 55.6755 64.8791
2387 61.739999 64.0000 55.6681 64.4383
2388 61.759999 64.0000 55.6605 63.9852
2389 61.779999 64.0000 55.6531 63.5246
2390 61.799999 64.0000 55.6455 63.0620
2391 61.819999 62.4100 55.6378 62.6040
2392 61.839999 62.4100 55.6298 62.1568
2393 61.859999 60.8400 55.6222 61.7264
2394 61.879999 59.2900 55.6143 61.3909
2395 61.899999 59.2900 55.6066 61.0050
2396 61.919999 59.2900 55.5988 60.6441
2397 61.939999 59.2900 55.5909 60.3087
2398 61.959999 59.2900 55.5831 59.9989
2399 61.979999 59.2900 55.5749 59.7133
2400 61.999999 59.2900 55.5669 59.4514
2401 62.019999 59.2900 55.5589 59.2115
2402 62.039999 59.2900 55.5506 58.9917
2403 62.059999 59.2900 55.5426 58.8280
2404 62.079999 59.2900 55.5344 58.6442
2405 62.099999 57.7600 55.5262 58.4754
2406 62.119999 57.7600 55.5179 58.3202
2407 62.139999 57.7600 55.5096 58.1769
2408 62.159999 57.7600 55.5007 58.0437
2409 62.179999 57.7600 55.4928 57.9208
2410 62.199999 57.7600 55.4842 57.8054
2411 62.219999 57.7600 55.4760 57.6976
2412 62.239999 56.2500 55.4674 57.5958
2413 62.259999 56.2500 55.4586 57.4994
2414 62.279999 56.2500 55.4502 57.4084
2415 62.299999 56.2500 55.4410 57.3210
2416 62.319999 56.2500 55.4328 57.2387
2417 62.339999 56.2500 55.4239 57.1593
2418 62.359999 56.2500 55.4151 57.0833
2419 62.379999 54.7600 55.4063 57.0103
2420 62.399999 56.2500 55.3976 56.9402
2421 62.419999 56.2500 55.3884 56.8723
2422 62.439999 56.2500 55.3794 56.8070
2423 62.459999 54.7600 55.3703 56.7438
2424 62.479999 56.2500 55.3613 56.6830
2425 62.499999 54.7600 55.3523 57.3057
2426 62.519999 54.7600 55.3433 57.2548
2427 62.539999 54.7600 55.3340 57.2056
2428 62.559999 54.7600 55.3247 57.1583
2429 62.579999 56.2500 55.3156 57.1129
2430 62.599999 56.2500 55.3061 57.0690
2431 62.619999 56.2500 55.2967 57.0268
2432 62.639999 56.2500 55.2874 56.9864
2433 62.659999 56.2500 55.2782 56.9476
2434 62.679999 53.2900 55.2687 57.2484
2435 62.699999 54.7600 55.2590 57.2151
2436 62.719999 54.7600 55.2493 57.1836
2437 62.739999 54.7600 55.2401 57.1537
2438 62.759999 56.2500 55.2302 57.1247
2439 62.779999 56.2500 55.2204 57.0972
2440 62.799999 56.2500 55.2108 57.0712
2441 62.819999 54.7600 55.2008 57.0462
2442 62.839999 56.2500 55.1914 57.0231
2443 62.859999 54.7600 55.1813 57.0008
2444 62.879999 56.2500 55.1716 56.9801
2445 62.899999 56.2500 55.1616 56.9606
2446 62.919999 56.2500 55.1518 56.9424
2447 62.939999 56.2500 55.1413 56.9249
2448 62.959999 56.2500 55.1314 56.9092
2449 62.979999 54.7600 55.1210 56.7905
2450 62.999999 54.7600 55.1113 56.7912
2451 63.019999 54.7600 55.1012 56.7927
2452 63.039999 56.2500 55.0908 56.7947
2453 63.059999 54.7600 55.0803 56.7977
2454 63.079999 53.2900 55.0702 56.8022
2455 63.099999 56.2500 55.0598 56.8074
2456 63.119999 54.7600 55.0496 56.8138
2457 63.139999 54.7600 55.0386 56.7655
2458 63.159999 54.7600 55.0286 56.7814
2459 63.179999 54.7600 55.0179 56.7976
2460 63.199999 54.7600 55.0070 56.8147
2461 63.219999 54.7600 54.9966 56.8334
2462 63.239999 54.7600 54.9862 56.8535
2463 63.259999 54.7600 54.9754 56.8742
2464 63.279999 56.2500 54.9645 56.8963
2465 63.299999 54.7600 54.9538 56.9200
2466 63.319999 56.2500 54.9429 56.9449
2467 63.339999 56.2500 54.9320 56.9713
2468 63.359999 56.2500 54.9213 56.9996
2469 63.379999 56.2500 54.9104 57.0295
2470 63.399999 56.2500 54.8992 57.0608
2471 63.419999 56.2500 54.8883 57.0944
2472 63.439999 54.7600 54.8773 57.1299
2473 63.459999 56.2500 54.8657 57.1867
2474 63.479999 57.7600 54.8547 57.2269
2475 63.499999 56.2500 54.8435 57.2694
2476 63.519999 57.7600 54.8323 57.3146
2477 63.539999 56.2500 54.8210 57.3623
2478 63.559999 56.2500 54.8094 57.4130
2479 63.579999 57.7600 54.7983 57.4673
2480 63.599999 56.2500 54.7866 57.5246
2481 63.619999 57.7600 54.7751 57.5858
2482 63.639999 57.7600 54.7636 57.6611
2483 63.659999 57.7600 54.7519 57.7310
2484 63.679999 59.2900 54.7404 57.8062
2485 63.699999 56.2500 54.7292 57.8873
2486 63.719999 59.2900 54.7171 57.9738
2487 63.739999 56.2500 54.7054 58.0679
2488 63.759999 56.2500 54.6937 58.1702
2489 63.779999 56.2500 54.6818 58.2816
2490 63.799999 59.2900 54.6700 58.4040
2491 63.819999 59.2900 54.6581 58.5390
2492 63.839999 57.7600 54.6463 58.6889
2493 63.859999 62.4100 54.6340 58.8556
2494 63.879999 59.2900 54.6221 59.0430
2495 63.899999 59.2900 54.6101 59.2541
2496 63.919999 59.2900 54.5977 59.4923
2497 63.939999 57.7600 54.5860 59.7631
2498 63.959999 59.2900 54.5737 60.0698
2499 63.979999 59.2900 54.5616 60.4181
2500 63.999999 59.2900 54.5491 60.8128
2501 64.019999 60.8400 54.5372 61.2579
2502 64.039999 62.4100 54.5241 61.7607
2503 64.059999 62.4100 54.5117 62.3254
2504 64.079999 62.4100 54.4996 62.9559
2505 64.099999 62.4100 54.4869 63.6535
2506 64.119999 64.0000 54.4737 64.4205
2507 64.139999 65.6100 54.4614 65.2582
2508 64.159999 65.6100 54.4491 66.1630
2509 64.179999 67.2400 54.4365 67.1292
2510 64.199999 70.5600 54.4241 68.1501
2511 64.219999 70.5600 54.4108 69.2117
2512 64.239999 68.8900 54.3986 70.2975
2513 64.259999 68.8900 54.3851 71.3831
2514 64.279999 68.8900 54.3732 72.4437
2515 64.299999 68.8900 54.3593 73.4464
2516 64.319999 70.5600 54.3471 74.3671
2517 64.339999 70.5600 54.3342 75.1809
2518 64.359999 72.2500 54.3202 75.8766
2519 64.379999 72.2500 54.3077 76.4576
2520 64.399999 73.9600 54.2947 76.9386
2521 64.419999 75.6900 54.2811 77.3457
2522 64.439999 75.6900 54.2677 77.7122
2523 64.459999 77.4400 54.2547 78.0717
2524 64.479999 77.4400 54.2416 78.4564
2525 64.499999 77.4400 54.2281 78.8989
2526 64.519999 77.4400 54.2149 79.4339
2527 64.539999 79.2100 54.2009 80.0999
2528 64.559999 79.2100 54.1878 80.9431
2529 64.579999 81.0000 54.1745 82.0154
2530 64.599999 82.8100 54.1603 83.3733
2531 64.619999 84.6400 54.1473 85.0790
2532 64.639999 86.4900 54.1337 87.1907
2533 64.659999 88.3600 54.1200 89.7619
2534 64.679999 90.2500 54.1062 92.8432
2535 64.699999 94.0900 54.0925 96.4724
2536 64.719999 98.0100 54.0789 100.6812
2537 64.739999 102.0100 54.0647 105.4812
2538 64.759999 108.1600 54.0509 110.8773
2539 64.779999 114.4900 54.0371 116.8452
2540 64.799999 121.0000 54.0236 123.3437
2541 64.819999 127.6900 54.0088 130.3010
2542 64.839999 136.8900 53.9949 137.6048
2543 64.859999 144.0000 53.9813 145.1082
2544 64.879999 151.2900 53.9665 152.6040
2545 64.899999 158.7600 53.9526 159.8523
2546 64.919999 166.4100 53.9381 166.5613
2547 64.939999 171.6100 53.9246 172.4377
2548 64.959999 176.8900 53.9091 177.2066
2549 64.979999 179.5600 53.8952 180.6628
2550 64.999999 182.2500 53.8809 182.6922
2551 65.019999 182.2500 53.8669 183.2951
2552 65.039999 182.2500 53.8521 182.5770
2553 65.059999 179.5600 53.8378 180.7007
2554 65.079999 176.8900 53.8230 177.8336
2555 65.099999 171.6100 53.8083 174.1233
2556 65.119999 166.4100 53.7938 169.6759
2557 65.139999 161.2900 53.7796 164.5670
2558 65.159999 156.2500 53.7647 158.8686
2559 65.179999 148.8400 53.7503 152.6576
2560 65.199999 144.0000 53.7345 146.0448
2561 65.219999 139.2400 53.7196 139.1710
2562 65.239999 132.2500 53.7051 132.2007
2563 65.259999 125.4400 53.6900 125.2858
2564 65.279999 118.8100 53.6750 118.5723
2565 65.299999 112.3600 53.6599 112.1690
2566 65.319999 106.0900 53.6448 106.1552
2567 65.339999 100.0000 53.6299 100.5876
2568 65.359999 94.0900 53.6153 95.4892
2569 65.379999 88.3600 53.5994 90.8702
2570 65.399999 84.6400 53.5845 86.7220
2571 65.419999 79.2100 53.5699 83.0291
2572 65.439999 77.4400 53.5542 79.7629
2573 65.459999 73.9600 53.5392 76.8941
2574 65.479999 72.2500 53.5237 74.3903
2575 65.499999 70.5600 53.5079 72.2154
2576 65.519999 67.2400 53.4929 70.3379
2577 65.539999 65.6100 53.4769 68.7214
2578 65.559999 62.4100 53.4617 67.3576
2579 65.579999 60.8400 53.4463 66.1753
2580 65.599999 59.2900 53.4301 65.1686
2581 65.619999 59.2900 53.4149 64.3153
2582 65.639999 62.4100 53.3986 63.5927
2583 65.659999 60.8400 53.3825 62.9847
2584 65.679999 60.8400 53.3669 62.4762
2585 65.699999 62.4100 53.3519 62.0547
2586 65.719999 62.4100 53.3360 61.7073
2587 65.739999 59.2900 53.3202 61.4260
2588 65.759999 59.2900 53.3040 61.2117
2589 65.779999 59.2900 53.2880 61.0378
2590 65.799999 62.4100 53.2714 60.9063
2591 65.819999 62.4100 53.2561 60.8118
2592 65.839999 62.4100 53.2401 60.7449
2593 65.859999 60.8400 53.2230 60.6968
2594 65.879999 62.4100 53.2068 60.6607
2595 65.899999 62.4100 53.1910 60.6258
2596 65.919999 62.4100 53.1749 60.5816
2597 65.939999 62.4100 53.1587 60.5193
2598 65.959999 60.8400 53.1424 60.4313
2599 65.979999 59.2900 53.1260 60.3135
2600 65.999999 57.7600 53.1093 60.1642
2601 66.019999 59.2900 53.0929 59.9863
2602 66.039999 57.7600 53.0762 59.7825
2603 66.059999 57.7600 53.0602 59.5588
2604 66.079999 56.2500 53.0431 59.3167
2605 66.099999 57.7600 53.0271 59.0613
2606 66.119999 57.7600 53.0099 58.7919
2607 66.139999 57.7600 52.9931 58.5117
2608 66.159999 57.7600 52.9764 58.2220
2609 66.179999 56.2500 52.9600 57.9252
2610 66.199999 56.2500 52.9424 57.6234
2611 66.219999 56.2500 52.9259 57.3227
2612 66.239999 56.2500 52.9089 57.0262
2613 66.259999 56.2500 52.8917 56.7375
2614 66.279999 56.2500 52.8751 56.4610
2615 66.299999 53.2900 52.8585 56.1983
2616 66.319999 54.7600 52.8411 56.0314
2617 66.339999 56.2500 52.8241 55.8006
2618 66.359999 56.2500 52.8075 55.5865
2619 66.379999 54.7600 52.7905 55.3881
2620 66.399999 56.2500 52.7721 55.2040
2621 66.419999 53.2900 52.7556 55.0366
2622 66.439999 54.7600 52.7380 54.8819
2623 66.459999 54.7600 52.7214 54.7410
2624 66.479999 53.2900 52.7035 54.6106
2625 66.499999 54.7600 52.6861 54.5313
2626 66.519999 53.2900 52.6688 54.4220
2627 66.539999 53.2900 52.6513 54.3209
2628 66.559999 51.8400 52.6339 54.2274
2629 66.579999 50.4100 52.6154 54.1396
2630 66.599999 51.8400 52.5979 54.0586
2631 66.619999 53.2900 52.5808 53.9832
2632 66.639999 50.4100 52.5633 53.9119
2633 66.659999 51.8400 52.5454 53.8441
2634 66.679999 50.4100 52.5279 53.7802
2635 66.699999 51.8400 52.5096 53.7186
2636 66.719999 50.4100 52.4920 53.6605
2637 66.739999 50.4100 52.4745 53.6049
2638 66.759999 50.4100 52.4566 53.5512
2639 66.779999 50.4100 52.4383 53.4991
2640 66.799999 50.4100 52.4203 53.4490
2641 66.819999 51.8400 52.4029 53.4013
2642 66.839999 51.8400 52.3839 53.3478
2643 66.859999 53.2900 52.3665 53.3037
2644 66.879999 53.2900 52.3482 53.2603
2645 66.899999 53.2900 52.3298 53.2179
2646 66.919999 51.8400 52.3115 53.1770
2647 66.939999 53.2900 52.2936 53.1376
2648 66.959999 53.2900 52.2754 53.0990
2649 66.979999 51.8400 52.2568 53.0611
2650 66.999999 51.8400 52.2385 53.0246
2651 67.019999 53.2900 52.2205 52.9863
2652 67.039999 53.2900 52.2023 52.9522
2653 67.059999 53.2900 52.1835 52.9185
2654 67.079999 53.2900 52.1650 52.8859
2655 67.099999 53.2900 52.1461 52.8540
2656 67.119999 53.2900 52.1276 52.8232
2657 67.139999 53.2900 52.1087 52.7931
2658 67.159999 51.8400 52.0901 52.7640
2659 67.179999 51.8400 52.0713 52.7356
2660 67.199999 50.4100 52.0526 52.7083
2661 67.219999 50.4100 52.0337 52.6816
2662 67.239999 51.8400 52.0152 52.6562
2663 67.259999 51.8400 51.9961 52.6311
2664 67.279999 51.8400 51.9775 52.6075
2665 67.299999 53.2900 51.9591 52.5849
2666 67.319999 53.2900 51.9398 52.5625
2667 67.339999 53.2900 51.9213 52.5418
2668 67.359999 53.2900 51.9020 52.5214
2669 67.379999 53.2900 51.8828 52.5022
2670 67.399999 53.2900 51.8642 52.4848
2671 67.419999 53.2900 51.8443 52.4674
2672 67.439999 53.2900 51.8254 52.4524
2673 67.459999 53.2900 51.8065 52.4389
2674 67.479999 53.2900 51.7868 52.3715
2675 67.499999 53.2900 51.7679 52.3673
2676 67.519999 53.2900 51.7481 52.3645
2677 67.539999 53.2900 51.7293 52.3650
2678 67.559999 51.8400 51.7095 52.3674
2679 67.579999 53.2900 51.6905 52.3739
2680 67.599999 50.4100 51.6710 52.3838
2681 67.619999 53.2900 51.6518 52.3986
2682 67.639999 50.4100 51.6317 52.4180
2683 67.659999 53.2900 51.6125 52.4165
2684 67.679999 50.4100 51.5932 52.4532
2685 67.699999 53.2900 51.5733 52.4976
2686 67.719999 51.8400 51.5531 52.5512
2687 67.739999 50.4100 51.5341 52.6167
2688 67.759999 51.8400 51.5140 52.6930
2689 67.779999 53.2900 51.4948 52.7832
2690 67.799999 53.2900 51.4746 52.8866
2691 67.819999 54.7600 51.4549 53.0054
2692 67.839999 54.7600 51.4348 53.1395
2693 67.859999 54.7600 51.4145 53.2893
2694 67.879999 53.2900 51.3949 53.4559
2695 67.899999 53.2900 51.3747 53.6373
2696 67.919999 53.2900 51.3545 53.8329
2697 67.939999 53.2900 51.3349 54.0415
2698 67.959999 54.7600 51.3151 54.2591
2699 67.979999 54.7600 51.2947 54.4814
2700 67.999999 54.7600 51.2748 54.7040
2701 68.019999 54.7600 51.2544 54.9192
2702 68.039999 54.7600 51.2347 55.1206
2703 68.059999 56.2500 51.2136 55.4839
2704 68.079999 54.7600 51.1940 55.6346
2705 68.099999 56.2500 51.1737 55.7493
2706 68.119999 56.2500 51.1531 55.8253
2707 68.139999 56.2500 51.1332 55.8639
2708 68.159999 56.2500 51.1127 55.8669
2709 68.179999 56.2500 51.0914 55.8392
2710 68.199999 56.2500 51.0718 55.7887
2711 68.219999 56.2500 51.0513 55.7177
2712 68.239999 56.2500 51.0308 55.6311
2713 68.259999 54.7600 51.0095 55.6235
2714 68.279999 56.2500 50.9894 55.5155
2715 68.299999 56.2500 50.9680 55.3993
2716 68.319999 56.2500 50.9482 55.2814
2717 68.339999 56.2500 50.9269 55.1636
2718 68.359999 56.2500 50.9071 55.0550
2719 68.379999 56.2500 50.8860 54.9599
2720 68.399999 54.7600 50.8647 54.8865
2721 68.419999 54.7600 50.8446 54.8431
2722 68.439999 54.7600 50.8230 54.8337
2723 68.459999 54.7600 50.8023 54.8670
2724 68.479999 56.2500 50.7812 54.9456
2725 68.499999 56.2500 50.7605 55.0790
2726 68.519999 57.7600 50.7393 55.2693
2727 68.539999 56.2500 50.7190 55.5222
2728 68.559999 56.2500 50.6972 55.8386
2729 68.579999 57.7600 50.6769 56.2248
2730 68.599999 59.2900 50.6554 56.6794
2731 68.619999 59.2900 50.6340 57.2045
2732 68.639999 59.2900 50.6129 57.7995
2733 68.659999 59.2900 50.5911 58.4594
2734 68.679999 59.2900 50.5707 59.1831
2735 68.699999 59.2900 50.5490 59.9586
2736 68.719999 60.8400 50.5280 60.7764
2737 68.739999 62.4100 50.5067 61.6188
2738 68.759999 64.0000 50.4850 62.4653
2739 68.779999 65.6100 50.4635 63.2899
2740 68.799999 65.6100 50.4427 64.0628
2741 68.819999 67.2400 50.4210 64.7505
2742 68.839999 67.2400 50.3996 65.3228
2743 68.859999 67.2400 50.3780 65.7547
2744 68.879999 67.2400 50.3566 66.0309
2745 68.899999 65.6100 50.3352 66.1469
2746 68.919999 65.6100 50.3133 66.1111
2747 68.939999 65.6100 50.2909 65.9402
2748 68.959999 65.6100 50.2696 65.6553
2749 68.979999 65.6100 50.2477 65.2736
2750 68.999999 65.6100 50.2262 64.8101
2751 69.019999 65.6100 50.2043 64.2739
2752 69.039999 62.4100 50.1824 63.6714
2753 69.059999 62.4100 50.1608 63.0091
2754 69.079999 64.0000 50.1393 62.2933
2755 69.099999 62.4100 50.1167 61.5335
2756 69.119999 60.8400 50.0950 60.7457
2757 69.139999 62.4100 50.0732 59.9450
2758 69.159999 59.2900 50.0510 59.1485
2759 69.179999 59.2900 50.0296 58.3720
2760 69.199999 59.2900 50.0075 57.6270
2761 69.219999 57.7600 49.9852 56.9230
2762 69.239999 57.7600 49.9632 56.2670
2763 69.259999 57.7600 49.9407 55.6616
2764 69.279999 56.2500 49.9190 55.1099
2765 69.299999 56.2500 49.8962 54.6093
2766 69.319999 56.2500 49.8742 54.1603
2767 69.339999 56.2500 49.8526 53.7604
2768 69.359999 56.2500 49.8299 53.4047
2769 69.379999 56.2500 49.8078 53.0918
2770 69.399999 56.2500 49.7855 52.8171
2771 69.419999 54.7600 49.7629 52.5770
2772 69.439999 53.2900 49.7411 52.3689
2773 69.459999 53.2900 49.7180 52.1870
2774 69.479999 54.7600 49.6953 52.0300
2775 69.499999 56.2500 49.6733 51.8950
2776 69.519999 53.2900 49.6506 51.7780
2777 69.539999 54.7600 49.6281 51.6771
2778 69.559999 53.2900 49.6057 51.5904
2779 69.579999 51.8400 49.5826 51.5151
2780 69.599999 53.2900 49.5606 51.4513
2781 69.619999 53.2900 49.5383 51.3965
2782 69.639999 51.8400 49.5152 51.3489
2783 69.659999 56.2500 49.4925 51.3090
2784 69.679999 54.7600 49.4696 51.2754
2785 69.699999 53.2900 49.4463 51.2474
2786 69.719999 54.7600 49.4238 51.2258
2787 69.739999 53.2900 49.4016 51.2098
2788 69.759999 54.7600 49.3786 51.1981
2789 69.779999 53.2900 49.3557 51.1916
2790 69.799999 53.2900 49.3336 51.1908
2791 69.819999 56.2500 49.3106 51.1943
2792 69.839999 53.2900 49.2871 51.2025
2793 69.859999 54.7600 49.2646 51.2171
2794 69.879999 56.2500 49.2413 51.2365
2795 69.899999 56.2500 49.2183 51.2624
2796 69.919999 53.2900 49.1954 51.2949
2797 69.939999 53.2900 49.1723 51.3345
2798 69.959999 54.7600 49.1491 51.3821
2799 69.979999 56.2500 49.1257 51.4384
2800 69.999999 59.2900 49.1028 51.5057
loop_
_pd_peak_id
_pd_peak_2theta_centroid
_pd_peak_d_spacing
_pd_peak_pk_height
_pd_peak_width_2theta
PK1 18.038 4.914 1110.7 0.3720
PK3 29.109 3.065 2521.4 0.3673
PK5 31.066 2.876 1120.6 0.3673
PK7 32.752 2.732 4792.6 0.3674
PK9 36.221 2.478 8484.1 0.3683
PK11 36.721 2.445 976.5 0.3685
PK13 38.665 2.327 1271.8 0.3695
PK15 44.587 2.031 2035.3 0.3741
PK17 45.844 1.978 32.0 0.3755
PK19 48.526 1.875 18.7 0.3788
PK21 50.482 1.806 611.9 0.3815
PK23 51.630 1.769 1953.5 0.3833
PK25 54.211 1.691 1071.9 0.3878
PK27 56.493 1.628 1013.1 0.3922
PK29 58.823 1.569 3119.9 0.3973
PK31 60.548 1.528 6037.9 0.4014
PK33 61.570 1.505 102.7 0.4039
PK35 64.348 1.447 288.7 0.4114
PK37 64.979 1.434 2675.0 0.4133
PK39 65.207 1.430 1.1 0.4139
PK41 65.962 1.415 78.3 0.4162
PK43 68.101 1.376 83.1 0.4229
PK45 68.422 1.370 0.4 0.4240
PK47 68.866 1.362 338.6 0.4255
loop_
_refln_index_h
_refln_index_k
_refln_index_l
_pd_refln_phase_id
_refln_observed_status
_refln_F_squared_calc
_refln_F_squared_meas
_refln_phase_calc
_pd_refln_i100_meas
_pd_refln_peak_id
0 1 1 PH01 o 1220.797 1217.441 0.00 13.09 PK1
1 1 2 PH01 o 7496.916 7466.750 0.00 29.72 PK3
0 2 0 PH01 o 7814.304 7625.800 180.00 13.21 PK5
0 1 3 PH01 o 18270.303 18267.332 180.00 56.49 PK7
1 2 1 PH01 o 20108.893 20118.871 0.00 100.00 PK9
0 2 2 PH01 o 4833.888 4772.403 0.00 11.51 PK11
0 0 4 PH01 o 27679.205 27847.768 0.00 14.99 PK13
2 2 0 PH01 o 29606.379 30605.928 0.00 23.99 PK15
1 2 3 PH01 o 126.879 128.094 0.00 0.38 PK17
0 3 1 PH01 o 170.631 170.554 180.00 0.22 PK19
0 2 4 PH01 o 5872.355 6091.902 0.00 7.21 PK21
0 1 5 PH01 o 20326.570 20467.104 0.00 23.03 PK23
1 3 2 PH01 o 6148.749 6272.774 180.00 12.63 PK25
0 3 3 PH01 o 13170.455 13017.115 0.00 11.94 PK27
2 3 1 PH01 o 21783.504 21952.752 0.00 36.77 PK29
2 2 4 PH01 o 90961.844 90633.055 0.00 71.17 PK31
1 2 5 PH01 o 803.272 800.169 0.00 1.21 PK33
1 1 6 PH01 o 5063.801 4953.570 180.00 3.40 PK35
0 4 0 PH01 o 94894.508 93733.961 0.00 31.53 PK37
1 3 4 PH01 o 9.709 9.571 180.00 0.01 PK39
2 3 3 PH01 o 716.028 708.461 180.00 0.92 PK41
1 4 1 PH01 o 800.261 804.246 0.00 0.98 PK43
0 4 2 PH01 o 7.220 7.310 0.00 0.00 PK45
0 2 6 PH01 o 6603.673 6702.431 0.00 3.99 PK47
#BEGIN Loops that were not found in dictionaries:
loop_
_xact_pref_orient_vector_h
0.00000000
#END Loops that were not found in dictionaries
