#------------------------------------------------------------------------------
#$Date: 2015-06-05 05:59:40 +0300 (Fri, 05 Jun 2015) $
#$Revision: 138151 $
#$URL: svn://www.crystallography.net/cod/cif/4/34/28/4342855.cif $
#------------------------------------------------------------------------------
#
# This file is available in the Crystallography Open Database (COD),
# http://www.crystallography.net/
#
# All data on this site have been placed in the public domain by the
# contributors.
#
data_4342855
loop_
_publ_author_name
'Morrison, Gregory'
'Ramanantoanina, Harry'
'Urland, Werner'
'Smith, Mark D.'
'Zur Loye, Hans-Conrad'
_publ_section_title
;
 Flux Synthesis, Structure, Properties, and Theoretical Magnetic Study of
 Uranium(IV)-Containing A2USi6O15 (A = K, Rb) with an Intriguing
 Green-to-Purple, Crystal-to-Crystal Structural Transition in the K
 Analogue.
;
_journal_issue                   11
_journal_name_full               'Inorganic chemistry'
_journal_page_first              5504
_journal_page_last               5511
_journal_paper_doi               10.1021/acs.inorgchem.5b00556
_journal_volume                  54
_journal_year                    2015
_chemical_formula_moiety         'K2 O15 Si6 U'
_chemical_formula_sum            'K2 O15 Si6 U'
_chemical_formula_weight         724.77
_space_group_crystal_system      monoclinic
_space_group_IT_number           15
_space_group_name_Hall           '-C 2yc'
_space_group_name_H-M_alt        'C 1 2/c 1'
_symmetry_space_group_name_Hall  '-C 2yc'
_symmetry_space_group_name_H-M   'C 1 2/c 1'
_atom_sites_solution_primary     direct
_audit_creation_date             2015-04-30
_audit_creation_method
;
Olex2 1.2
(compiled 2015.01.26 svn.r3150 for OlexSys, GUI svn.r4998)
;
_cell_angle_alpha                90
_cell_angle_beta                 97.0860(6)
_cell_angle_gamma                90
_cell_formula_units_Z            8
_cell_length_a                   24.2554(8)
_cell_length_b                   7.0916(2)
_cell_length_c                   17.0588(6)
_cell_measurement_reflns_used    5029
_cell_measurement_temperature    295(1)
_cell_measurement_theta_max      28.26
_cell_measurement_theta_min      3.00
_cell_volume                     2911.87(16)
_computing_cell_refinement       'SAINT+, 6.0; Bruker, 2000'
_computing_data_collection       'SMART, 5.625; Bruker, 2001'
_computing_data_reduction        'SAINT+, 6.0; Bruker, 2000'
_computing_molecular_graphics    'Olex2 (Dolomanov et al., 2009)'
_computing_publication_material  'Olex2 (Dolomanov et al., 2009)'
_computing_structure_refinement  'ShelXL (Sheldrick, 2008)'
_computing_structure_solution    'ShelXS (Sheldrick, 2008)'
_diffrn_ambient_temperature      293(2)
_diffrn_measured_fraction_theta_full 1.000
_diffrn_measured_fraction_theta_max 0.999
_diffrn_measurement_device_type  'Bruker P4'
_diffrn_measurement_method       '\w scans'
_diffrn_radiation_monochromator  graphite
_diffrn_radiation_source         'fine-focus sealed tube'
_diffrn_radiation_type           MoK\a
_diffrn_radiation_wavelength     0.71073
_diffrn_reflns_av_R_equivalents  0.0293
_diffrn_reflns_av_unetI/netI     0.0211
_diffrn_reflns_laue_measured_fraction_full 1.000
_diffrn_reflns_laue_measured_fraction_max 0.999
_diffrn_reflns_limit_h_max       32
_diffrn_reflns_limit_h_min       -32
_diffrn_reflns_limit_k_max       9
_diffrn_reflns_limit_k_min       -9
_diffrn_reflns_limit_l_max       22
_diffrn_reflns_limit_l_min       -22
_diffrn_reflns_number            19361
_diffrn_reflns_point_group_measured_fraction_full 1.000
_diffrn_reflns_point_group_measured_fraction_max 0.999
_diffrn_reflns_theta_full        25.242
_diffrn_reflns_theta_max         28.282
_diffrn_reflns_theta_min         1.692
_exptl_absorpt_coefficient_mu    12.294
_exptl_absorpt_correction_T_max  1.0
_exptl_absorpt_correction_T_min  0.6529
_exptl_absorpt_correction_type   multi-scan
_exptl_absorpt_process_details
;
SADABS v.2.03 (Bruker,200?) was used for absorption correction.
R(int) was 0.0935 before and 0.0306 after correction.
The Ratio of minimum to maximum transmission is 0.6529.
The \l/2 correction factor is 0.0015.
;
_exptl_crystal_colour            green
_exptl_crystal_density_diffrn    3.306
_exptl_crystal_description       polyhedra
_exptl_crystal_F_000             2672
_exptl_crystal_size_max          0.2
_exptl_crystal_size_mid          0.1
_exptl_crystal_size_min          0.05
_refine_diff_density_max         0.676
_refine_diff_density_min         -0.634
_refine_diff_density_rms         0.140
_refine_ls_extinction_coef       0.000162(13)
_refine_ls_extinction_expression Fc^*^=kFc[1+0.001xFc^2^\l^3^/sin(2\q)]^-1/4^
_refine_ls_extinction_method     'SHELXL-2014/7 (Sheldrick 2014'
_refine_ls_goodness_of_fit_ref   1.034
_refine_ls_matrix_type           full
_refine_ls_number_parameters     218
_refine_ls_number_reflns         3627
_refine_ls_number_restraints     0
_refine_ls_restrained_S_all      1.034
_refine_ls_R_factor_all          0.0262
_refine_ls_R_factor_gt           0.0259
_refine_ls_shift/su_max          0.002
_refine_ls_shift/su_mean         0.000
_refine_ls_structure_factor_coef Fsqd
_refine_ls_weighting_details
'w=1/[\s^2^(Fo^2^)+80.0000P] where P=(Fo^2^+2Fc^2^)/3'
_refine_ls_weighting_scheme      calc
_refine_ls_wR_factor_gt          0.0572
_refine_ls_wR_factor_ref         0.0574
_reflns_Friedel_coverage         0.000
_reflns_number_gt                3611
_reflns_number_total             3627
_reflns_threshold_expression     'I > 2\s(I)'
_cod_data_source_file            ic5b00556_si_002.cif
_cod_data_source_block           mor1016b
_cod_depositor_comments
'Adding full bibliography for 4342855--4342857.cif.'
_cod_original_cell_volume        2911.86(16)
_cod_database_code               4342855
_shelx_space_group_comment
;
The symmetry employed for this shelxl refinement is uniquely defined
by the following loop, which should always be used as a source of
symmetry information in preference to the above space-group names.
They are only intended as comments.
;
_olex2_refinement_description
;
;
_shelx_res_file
;
    mor1016b.res created by SHELXL-2014/7

TITL MOR1016b in C2/c #15
REM reset to C2/c #15
CELL 0.71073 24.2554 7.0916 17.0588 90 97.086 90
ZERR 8 0.0008 0.0002 0.0006 0 0.0006 0
LATT 7
SYMM -X,+Y,0.5-Z
SFAC K O Si U
UNIT 16 120 48 8

L.S. 16
PLAN  20
BOND
fmap 2 53
acta
REM <olex2.extras>
REM <HklSrc "%.\\MOR1016b.hkl">
REM </olex2.extras>

WGHT    0.000000   80.000000
EXTI    0.000162
FVAR       0.02943
K1    1    0.396780    0.949570    0.741679    11.00000    0.06332    0.03161 =
         0.03357    0.00433   -0.01156   -0.02050
K2    1    0.157555    1.523655    0.495654    11.00000    0.06260    0.03985 =
         0.03716    0.01515   -0.00550   -0.01381
U1    4    0.379263    1.467184    0.627186    11.00000    0.01076    0.01218 =
         0.01282   -0.00005    0.00144    0.00151
SI1   3    0.579185    1.461765    0.661775    11.00000    0.01449    0.00999 =
         0.01428    0.00045   -0.00175    0.00044
SI2   3    0.495145    1.747241    0.571792    11.00000    0.01393    0.00784 =
         0.01085    0.00087    0.00211   -0.00014
SI3   3    0.319997    1.457145    0.420218    11.00000    0.01274    0.00961 =
         0.01237   -0.00018   -0.00081   -0.00035
SI4   3    0.495227    1.159893    0.609407    11.00000    0.01429    0.00872 =
         0.01068    0.00017    0.00159   -0.00036
SI5   3    0.252623    1.145034    0.320273    11.00000    0.01308    0.00949 =
         0.01183    0.00030    0.00174   -0.00234
SI6   3    0.235315    1.735584    0.355587    11.00000    0.01467    0.01042 =
         0.01118    0.00151    0.00286    0.00216
O1    2    0.190677    1.201220    0.331311    11.00000    0.01755    0.02033 =
         0.02723    0.00354    0.00663    0.00151
O2    2    0.269138    0.936085    0.357411    11.00000    0.02073    0.01249 =
         0.02240    0.00331    0.00135   -0.00168
O3    2    0.508689    1.936911    0.624670    11.00000    0.03170    0.00798 =
         0.01325    0.00091    0.00010    0.00459
O4    2    0.267577    1.600688    0.423785    11.00000    0.01958    0.01666 =
         0.01489    0.00307    0.00251    0.00678
O5    2    0.300886    1.277101    0.364953    11.00000    0.01875    0.01395 =
         0.02744   -0.00853   -0.00356   -0.00343
O6    2    0.435754    1.211729    0.633336    11.00000    0.01537    0.01781 =
         0.02910    0.00315    0.00257    0.00563
O7    2    0.546892    1.261392    0.663356    11.00000    0.02019    0.01697 =
         0.02218   -0.00229   -0.00031   -0.00586
O8    2    0.173356    1.765507    0.374100    11.00000    0.01635    0.01530 =
         0.02131    0.00166    0.00485    0.00415
O9    2    0.342688    1.384291    0.505551    11.00000    0.02256    0.01880 =
         0.01742    0.00322   -0.00189    0.00297
O10   2    0.263941    1.133537    0.228994    11.00000    0.02878    0.01958 =
         0.01386    0.00184    0.00386   -0.00074
O11   2    0.408621    1.548236    0.751971    11.00000    0.03159    0.01779 =
         0.01373    0.00115   -0.00282    0.00419
O12   2    0.364548    1.579342    0.377861    11.00000    0.01876    0.01736 =
         0.02953    0.00349    0.00624   -0.00227
O13   2    0.501827    1.795204    0.482002    11.00000    0.05971    0.01584 =
         0.01176    0.00076    0.00815   -0.00357
O14   2    0.435060    1.672998    0.580179    11.00000    0.02756    0.04541 =
         0.05042   -0.01049    0.01784   -0.02239
O15   2    0.542833    1.601454    0.602453    11.00000    0.05306    0.02637 =
         0.02741   -0.00051   -0.01189    0.02324
HKLF 4

REM  MOR1016b in C2/c #15
REM R1 =  0.0259 for    3611 Fo > 4sig(Fo)  and  0.0262 for all    3627 data
REM    218 parameters refined using      0 restraints

END

WGHT      0.0000     26.5580

REM Highest difference peak  0.676,  deepest hole -0.634,  1-sigma level  0.140
Q1    1   0.1598  1.6144  0.4963  11.00000  0.05    0.68
Q2    1   0.3663  1.5560  0.5981  11.00000  0.05    0.64
Q3    1   0.3972  1.5985  0.6420  11.00000  0.05    0.60
Q4    1   0.1805  1.0824  0.3219  11.00000  0.05    0.59
Q5    1   0.2177  1.1444  0.3234  11.00000  0.05    0.57
Q6    1   0.1394  1.5196  0.4629  11.00000  0.05    0.56
Q7    1   0.3818  1.5181  0.7385  11.00000  0.05    0.56
Q8    1   0.3800  0.8954  0.7645  11.00000  0.05    0.53
Q9    1   0.5193  1.5945  0.6201  11.00000  0.05    0.52
Q10   1   0.1372  1.5058  0.5199  11.00000  0.05    0.51
Q11   1   0.4231  1.2833  0.6304  11.00000  0.05    0.51
Q12   1   0.3628  1.3757  0.5975  11.00000  0.05    0.50
Q13   1   0.3830  1.3424  0.6325  11.00000  0.05    0.47
Q14   1   0.2044  1.8024  0.4628  11.00000  0.05    0.47
Q15   1   0.3862  1.0431  0.6345  11.00000  0.05    0.46
Q16   1   0.3409  1.4569  0.6409  11.00000  0.05    0.45
Q17   1   0.2802  1.0448  0.2012  11.00000  0.05    0.44
Q18   1   0.5000  1.7396  0.7500  10.50000  0.05    0.43
Q19   1   0.1620  1.3837  0.5185  11.00000  0.05    0.43
Q20   1   0.4046  1.4488  0.7260  11.00000  0.05    0.42
;
_shelx_res_checksum              11588
_shelx_hkl_file
;
  -2   0   0    0.01    0.02
  -2   0   0    0.23    0.05
  -2   0   0    0.06    0.03
  -4   0   0   84.46    1.63
  -4   0   0   84.38    1.82
  -4   0   0   81.69    1.59
   4   0   0   86.03    1.51
   6   0   0    3.89    0.21
  -6   0   0    3.52    0.22
  -6   0   0    4.23    0.33
  -6   0   0    3.13    0.24
  -8   0   0  374.66    6.48
  -8   0   0  370.67    6.45
  -8   0   0  384.57    7.08
   8   0   0  376.50    6.13
  10   0   0   15.56    0.56
 -10   0   0   15.77    0.82
 -10   0   0   15.96    0.70
 -10   0   0   15.00    0.62
 -12   0   0    4.12    0.33
  12   0   0    3.91    0.28
 -12   0   0    3.72    0.46
 -12   0   0    4.29    0.39
 -14   0   0   16.73    0.77
  14   0   0   18.03    1.05
 -14   0   0   17.07    0.85
  14   0   0   17.50    0.68
 -16   0   0  266.74    5.31
  16   0   0  270.70    4.91
 -16   0   0  275.74    5.49
  16   0   0  278.99    6.17
  18   0   0   58.06    2.28
  18   0   0   59.45    1.59
 -18   0   0   55.96    1.93
 -18   0   0   57.72    1.79
 -20   0   0   35.14    1.38
  20   0   0   35.08    1.83
 -20   0   0   35.84    1.55
  20   0   0   34.72    1.19
  22   0   0    5.94    0.82
 -22   0   0    5.79    0.67
  24   0   0   72.65    3.02
 -24   0   0   66.92    2.47
 -26   0   0   61.99    2.46
  26   0   0   62.05    2.90
 -28   0   0   17.79    1.29
  28   0   0   18.80    1.55
  30   0   0   12.89    1.31
 -30   0   0   15.05    1.22
 -32   0   0   16.26    1.29
  32   0   0   14.99    1.39
   1  -1   0  166.16    2.99
  -1  -1   0  165.41    2.89
   1  -1   0  175.65    2.92
  -1  -1   0  164.05    3.06
  -1   1   0  162.45    3.12
  -1   1   0  179.03    3.11
  -3  -1   0  197.53    3.35
   3  -1   0  200.54    3.43
  -3  -1   0  193.04    3.64
   3   1   0  199.94    3.63
   3   1   0  198.54    3.57
  -3   1   0  207.63    3.56
  -3   1   0  205.26    3.56
  -3   1   0  194.72    3.75
   5  -1   0  243.52    4.15
  -5  -1   0  238.30    4.32
  -5  -1   0  242.35    4.45
  -5  -1   0  247.82    4.05
  -5   1   0  244.45    4.26
  -5   1   0  256.38    4.34
   5   1   0  236.43    4.45
  -5   1   0  239.85    4.67
  -7  -1   0    9.57    0.50
  -7  -1   0   10.57    0.39
   7  -1   0    9.97    0.45
  -7  -1   0    9.00    0.51
  -7   1   0    9.75    0.30
  -7   1   0   10.05    0.51
   7   1   0   10.16    0.51
  -7   1   0    9.59    0.58
  -9  -1   0   36.20    1.19
  -9  -1   0   38.34    1.19
  -9  -1   0   37.42    0.94
   9  -1   0   36.73    1.03
  -9   1   0   38.01    1.17
  -9   1   0   37.24    0.86
   9   1   0   36.28    1.21
 -11  -1   0   36.71    1.26
 -11  -1   0   35.35    1.23
 -11  -1   0   36.52    0.98
  11  -1   0   36.70    1.08
 -11   1   0   37.21    1.24
 -11   1   0   35.26    0.92
 -11   1   0   37.02    1.45
  11   1   0   35.90    1.31
  13  -1   0  217.46    4.02
 -13  -1   0  209.17    4.37
 -13  -1   0  215.35    3.84
 -13  -1   0  209.24    4.41
 -13   1   0  210.05    3.92
 -13   1   0  211.90    4.92
  13   1   0  215.68    4.68
 -13   1   0  217.76    4.37
  13   1   0  208.91    3.68
 -15  -1   0   41.74    1.51
  15  -1   0   38.37    1.25
 -15  -1   0   40.48    1.50
 -15   1   0   40.13    1.17
 -15   1   0   40.21    1.48
  15   1   0   42.09    1.17
  15   1   0   43.58    1.69
 -17  -1   0   76.15    2.32
  17  -1   0   82.14    2.05
 -17  -1   0   78.09    2.32
  17  -1   0   75.98    2.74
  17   1   0   76.97    2.55
 -17   1   0   78.71    2.33
 -17   1   0   77.37    1.93
  17   1   0   78.36    1.86
  19  -1   0   53.22    2.33
 -19  -1   0   56.16    2.00
  19  -1   0   54.43    1.67
 -19  -1   0   56.54    1.97
  19   1   0   60.19    2.29
  19   1   0   57.22    1.55
 -19   1   0   55.60    1.99
 -21  -1   0  112.28    3.13
 -21  -1   0  107.32    3.15
  21  -1   0  108.56    3.75
  21  -1   0  112.87    2.75
 -21   1   0  109.06    3.17
  21   1   0  114.47    3.58
  23  -1   0   14.97    1.30
 -23  -1   0   15.12    0.97
 -23  -1   0   13.91    1.01
  23   1   0   15.17    1.21
 -23   1   0   14.09    1.03
 -25  -1   0   48.47    2.11
  25  -1   0   53.62    2.70
 -25   1   0   51.90    2.22
  25   1   0   52.71    2.45
 -27  -1   0    0.51    0.14
  27  -1   0    0.54    0.22
 -27   1   0    0.78    0.25
  27   1   0    0.44    0.11
 -29  -1   0   57.92    2.54
  29  -1   0   61.11    3.11
 -29   1   0   58.47    2.58
  29   1   0   59.50    2.87
  31  -1   0    2.89    0.67
 -31  -1   0    2.05    0.46
  31   1   0    2.97    0.50
 -31   1   0    2.77    0.56
   0  -2   0  202.26    3.95
   0  -2   0  221.29    3.86
   0   2   0  211.15    3.88
   2  -2   0    1.19    0.21
  -2  -2   0    1.22    0.19
   2  -2   0    1.10    0.17
  -2  -2   0    1.29    0.23
   2   2   0    1.29    0.28
  -2   2   0    1.47    0.27
  -2   2   0    1.18    0.14
  -4  -2   0  662.19   10.95
   4  -2   0  673.75   11.07
   4  -2   0  668.98   11.24
  -4  -2   0  702.25   11.70
  -4   2   0  632.59   11.90
  -4   2   0  737.18   11.52
   4   2   0  695.48   12.08
   4   2   0  704.23   11.59
   6  -2   0   23.61    0.85
  -6  -2   0   22.83    0.74
  -6  -2   0   22.09    0.94
  -6   2   0   22.85    0.90
  -6   2   0   23.74    0.59
   6   2   0   22.08    0.91
  -6   2   0   21.12    0.89
   6   2   0   23.46    0.70
  -8  -2   0  165.36    3.07
   8  -2   0  167.20    3.29
  -8  -2   0  161.06    3.59
  -8   2   0  160.27    3.70
   8   2   0  163.84    3.30
  -8   2   0  166.65    3.47
  -8   2   0  164.04    2.85
  10  -2   0    9.98    0.57
 -10  -2   0   10.01    0.64
 -10  -2   0    9.46    0.66
 -10  -2   0    9.61    0.47
 -10   2   0    9.52    0.63
 -10   2   0   10.13    0.30
 -10   2   0    9.05    0.68
  10   2   0   10.04    0.56
  12  -2   0  118.97    2.66
 -12  -2   0  114.17    2.96
 -12  -2   0  117.86    2.41
 -12  -2   0  117.62    2.89
  12   2   0  116.75    2.82
 -12   2   0  109.54    3.13
 -12   2   0  113.59    2.11
 -12   2   0  118.82    2.87
  14  -2   0   43.08    1.40
 -14  -2   0   45.19    1.62
 -14  -2   0   41.11    1.61
 -14  -2   0   42.22    1.21
 -14   2   0   38.93    1.75
 -14   2   0   40.19    0.95
 -14   2   0   41.82    1.55
  14   2   0   41.45    1.52
 -16  -2   0   15.47    0.94
 -16  -2   0   13.88    0.92
  16  -2   0   14.61    0.78
 -16  -2   0   15.35    0.67
 -16   2   0   15.28    0.95
  16   2   0   15.83    0.93
 -18  -2   0    7.60    0.68
  18  -2   0    7.00    0.85
 -18  -2   0    6.98    0.66
 -18  -2   0    7.03    0.44
  18  -2   0    6.43    0.51
  18   2   0    7.01    0.64
  18   2   0    6.97    0.33
 -18   2   0    6.75    0.66
 -20  -2   0  120.11    3.42
  20  -2   0  116.72    2.95
  20  -2   0  116.00    3.88
 -20  -2   0  113.20    3.28
  20   2   0  112.90    3.38
 -20   2   0  123.68    3.40
  22  -2   0   29.28    1.88
  22  -2   0   29.56    1.27
 -22  -2   0   28.46    1.50
 -22  -2   0   28.60    1.51
  22   2   0   28.17    1.55
 -22   2   0   28.62    1.52
 -24  -2   0   30.25    1.61
 -24  -2   0   28.30    1.56
  24  -2   0   27.95    1.91
 -24   2   0   30.67    1.65
  24   2   0   30.38    1.69
  26  -2   0   14.64    1.42
 -26  -2   0   16.56    1.16
 -26  -2   0   14.74    1.13
  26   2   0   15.52    1.18
 -26   2   0   15.25    1.18
 -28  -2   0   20.08    1.41
  28  -2   0   21.03    1.79
  28   2   0   22.16    1.49
 -28   2   0   21.50    1.47
 -30  -2   0   43.82    2.23
  30  -2   0   38.82    2.58
 -30   2   0   46.46    2.36
  30   2   0   47.95    2.40
  -1  -3   0   90.99    2.17
   1  -3   0   89.40    2.20
   1  -3   0   89.93    2.17
  -1  -3   0   91.28    2.29
   1   3   0   91.28    2.61
  -1   3   0   93.38    1.89
  -1   3   0   87.76    2.52
  -3  -3   0    6.20    0.50
   3  -3   0    5.29    0.37
  -3  -3   0    6.16    0.43
   3  -3   0    4.95    0.41
  -3   3   0    5.78    0.53
  -3   3   0    5.66    0.34
   3   3   0    5.48    0.55
   5  -3   0   70.25    1.87
   5  -3   0   66.83    1.61
  -5  -3   0   71.26    1.79
  -5  -3   0   73.24    2.09
   5   3   0   73.04    1.46
   5   3   0   71.55    2.20
  -5   3   0   69.00    1.85
  -5   3   0   70.08    2.08
  -7  -3   0   29.88    1.03
  -7  -3   0   29.77    1.28
   7  -3   0   31.27    1.16
   7   3   0   31.80    0.86
  -7   3   0   31.39    1.20
   7   3   0   30.52    1.30
  -7   3   0   30.02    0.85
  -7   3   0   29.08    1.22
  -9  -3   0  160.49    3.85
  -9  -3   0  160.30    3.25
   9  -3   0  157.17    3.48
   9   3   0  167.10    3.83
  -9   3   0  161.05    3.69
  -9   3   0  168.93    2.93
   9   3   0  164.41    3.28
  -9   3   0  156.68    3.80
  11  -3   0    3.91    0.44
 -11  -3   0    3.79    0.32
 -11  -3   0    3.35    0.49
 -11   3   0    3.56    0.15
  11   3   0    3.57    0.48
  11   3   0    3.42    0.28
 -11   3   0    4.05    0.49
 -11   3   0    4.28    0.52
 -13  -3   0   31.06    1.08
  13  -3   0   32.10    1.28
 -13  -3   0   31.91    1.48
 -13   3   0   29.54    1.36
  13   3   0   31.32    1.17
  13   3   0   32.02    1.43
 -13   3   0   30.15    1.49
  15  -3   0   25.35    1.17
 -15  -3   0   26.97    1.00
 -15  -3   0   25.82    1.33
 -15  -3   0   24.09    1.33
 -15   3   0   25.78    1.30
  15   3   0   24.70    1.10
  17  -3   0  105.53    2.84
 -17  -3   0  110.02    3.22
 -17  -3   0  110.03    2.56
  17  -3   0  101.24    3.47
 -17  -3   0  103.99    3.22
  17   3   0  111.37    2.95
 -17   3   0  108.83    3.17
  19  -3   0   18.92    1.41
  19  -3   0   24.97    1.20
 -19  -3   0   23.54    1.37
 -19  -3   0   23.71    1.40
 -19   3   0   23.74    1.36
  19   3   0   24.80    1.24
 -21  -3   0   34.90    1.75
  21  -3   0   34.27    1.49
 -21  -3   0   34.59    1.77
  21  -3   0   30.54    1.92
  21   3   0   33.41    1.58
 -21   3   0   33.84    1.71
  23  -3   0    9.03    1.11
  23  -3   0    9.74    0.71
 -23  -3   0    9.56    0.90
 -23  -3   0    8.54    0.85
 -23   3   0    9.32    0.89
  23   3   0    9.00    0.77
  25  -3   0   50.25    2.76
 -25  -3   0   49.13    2.27
 -25  -3   0   51.30    2.35
 -25   3   0   51.40    2.35
  25   3   0   52.64    2.22
 -27  -3   0    0.59    0.18
  27  -3   0    0.16    0.17
 -27  -3   0    0.93    0.14
 -27   3   0    0.61    0.18
 -29  -3   0   16.70    1.32
  29  -3   0   18.49    1.67
 -29   3   0   16.90    1.37
   0  -4   0  202.84    4.27
   0  -4   0  206.30    3.74
   0  -4   0  204.75    4.43
   0   4   0  210.26    4.98
   2  -4   0    4.11    0.46
   2  -4   0    4.30    0.40
  -2  -4   0    4.76    0.48
  -2  -4   0    4.34    0.45
  -2   4   0    3.76    0.55
  -2   4   0    4.59    0.28
   2   4   0    4.60    0.62
  -4  -4   0  120.28    3.13
  -4  -4   0  121.27    2.86
   4  -4   0  118.07    2.78
   4  -4   0  117.65    2.91
   4   4   0  124.05    3.46
  -4   4   0  117.58    3.33
  -4   4   0  120.54    2.68
   6  -4   0    2.48    0.38
  -6  -4   0    2.91    0.44
  -6  -4   0    2.55    0.34
  -6   4   0    2.72    0.28
   6   4   0    2.62    0.49
  -6   4   0    2.67    0.45
  -8  -4   0   23.08    1.23
   8  -4   0   23.12    1.12
  -8  -4   0   22.47    1.00
   8   4   0   22.11    1.27
   8   4   0   23.41    0.69
  -8   4   0   22.15    1.05
  -8   4   0   23.96    1.25
  -8   4   0   23.21    0.84
  10  -4   0   29.54    1.30
 -10  -4   0   30.58    1.18
 -10  -4   0   28.95    1.45
 -10   4   0   26.95    1.28
  10   4   0   28.98    1.48
 -10   4   0   28.60    1.41
 -10   4   0   29.97    0.87
  10   4   0   30.54    0.92
 -12  -4   0   35.16    1.30
  12  -4   0   32.90    1.42
 -12  -4   0   31.90    1.58
 -12   4   0   31.15    1.50
  12   4   0   33.37    1.62
  12   4   0   33.70    1.09
 -14  -4   0    5.57    0.44
  14  -4   0    4.99    0.58
 -14  -4   0    4.48    0.65
  14  -4   0    5.52    0.67
 -14   4   0    3.84    0.57
  14   4   0    5.06    0.36
  14   4   0    4.64    0.67
  16  -4   0   37.45    1.87
  16  -4   0   36.18    1.58
 -16  -4   0   37.26    1.35
 -16  -4   0   35.48    1.79
  16   4   0   36.79    1.81
 -16   4   0   36.12    1.74
  18  -4   0   21.48    1.20
 -18  -4   0   19.80    1.35
  18  -4   0   20.08    1.42
 -18   4   0   20.60    1.31
  18   4   0   21.22    1.39
 -20  -4   0   37.29    1.96
  20  -4   0   38.15    1.70
  20  -4   0   41.20    2.21
  20   4   0   40.55    2.01
 -20   4   0   38.62    1.92
  22  -4   0    2.93    0.65
  22  -4   0    5.98    0.65
 -22  -4   0    4.35    0.68
  22   4   0    6.15    0.83
 -22   4   0    3.21    0.60
 -24  -4   0   14.24    1.21
  24  -4   0   13.61    0.92
  24  -4   0   17.98    1.54
  24   4   0   13.04    1.16
 -24   4   0   14.23    1.18
 -26  -4   0   22.96    1.56
  26  -4   0   20.08    1.71
 -26   4   0   21.34    1.52
  26   4   0   20.86    1.54
  28  -4   0   10.45    1.29
 -28  -4   0   10.20    1.01
 -28   4   0   10.97    1.09
  28   4   0   11.14    1.05
  -1  -5   0    7.94    0.69
   1  -5   0    8.36    0.69
   1  -5   0    8.89    0.68
  -1  -5   0    7.98    0.65
  -1   5   0    8.75    0.95
   1   5   0    8.31    0.93
  -3  -5   0   16.80    0.97
   3  -5   0   16.25    0.99
   3  -5   0   17.55    0.95
   3  -5   0   18.21    0.70
  -3  -5   0   16.94    1.06
   3   5   0   18.02    1.26
  -3   5   0   17.30    1.23
  -5  -5   0   23.61    1.14
   5  -5   0   24.66    1.25
   5  -5   0   24.03    0.95
  -5  -5   0   24.97    1.33
   5  -5   0   22.46    1.05
   5   5   0   24.02    1.48
  -5   5   0   22.53    1.43
   7  -5   0    0.40    0.23
  -7  -5   0    0.55    0.21
   7  -5   0    0.52    0.13
  -7  -5   0    0.68    0.20
   7   5   0    0.55    0.27
  -7   5   0    0.66    0.27
  -9  -5   0   20.16    1.04
  -9  -5   0   20.00    1.27
   9  -5   0   21.31    1.07
   9  -5   0   20.11    1.17
  -9   5   0   19.46    1.29
   9   5   0   20.33    1.39
  11  -5   0    1.08    0.35
 -11  -5   0    0.79    0.19
  11  -5   0    0.70    0.19
 -11  -5   0    0.12    0.16
  11   5   0    0.46    0.26
 -11   5   0    0.24    0.14
  13  -5   0   44.58    1.88
  13  -5   0   44.02    1.88
 -13  -5   0   44.57    2.05
 -13  -5   0   42.63    1.62
  13   5   0   43.25    2.09
 -13   5   0   39.51    1.94
 -15  -5   0    5.97    0.51
 -15  -5   0    6.53    0.81
  15  -5   0    5.93    0.72
  15  -5   0    5.85    0.71
  15   5   0    4.77    0.75
 -15   5   0    5.59    0.75
  17  -5   0   10.91    0.98
  17  -5   0   10.99    0.90
 -17  -5   0   11.47    1.06
 -17   5   0   11.08    1.02
  17   5   0   10.51    1.03
  19  -5   0    5.82    0.81
 -19  -5   0    5.31    0.79
  19  -5   0    5.93    0.69
  19   5   0    5.69    0.81
 -19   5   0    4.52    0.71
  21  -5   0   15.76    1.35
 -21  -5   0   15.98    1.32
  21  -5   0   16.18    1.11
  21   5   0   14.99    1.29
 -21   5   0   15.25    1.25
  23  -5   0    0.66    0.20
 -23  -5   0    0.46    0.19
 -23   5   0    0.59    0.23
  23   5   0    0.74    0.23
 -25  -5   0   11.49    1.08
  25  -5   0   10.88    0.85
  25  -5   0   10.65    1.10
 -25   5   0   11.47    1.11
  25   5   0   10.81    1.19
  27  -5   0    0.37    0.11
 -27   5   0    0.70    0.21
   0  -6   0    0.85    0.31
   0  -6   0    1.19    0.25
   0   6   0    1.13    0.47
  -2  -6   0    0.11    0.11
  -2  -6   0    0.31    0.14
   2  -6   0    0.55    0.24
   2  -6   0    0.57    0.11
   2   6   0    0.14    0.19
  -2   6   0    0.31    0.23
  -4  -6   0   18.14    1.20
  -4  -6   0   15.69    1.02
   4  -6   0   17.16    1.12
   4  -6   0   17.15    1.01
   4   6   0   17.67    1.37
  -4   6   0   19.38    1.47
   6  -6   0    0.29    0.19
  -6  -6   0    0.23    0.14
  -6  -6   0    0.49    0.18
   6   6   0    0.40    0.25
  -6   6   0    0.44    0.28
  -8  -6   0    6.36    0.61
   8  -6   0    6.15    0.74
  -8  -6   0    7.23    0.83
   8   6   0    5.79    0.85
  -8   6   0    6.32    0.89
 -10  -6   0    0.85    0.30
 -10  -6   0    0.52    0.15
  10  -6   0    0.58    0.24
 -10   6   0    0.29    0.21
  10   6   0    0.59    0.31
 -12  -6   0    3.75    0.49
  12  -6   0    5.15    0.70
  12  -6   0    3.45    0.35
 -12  -6   0    4.29    0.68
 -12   6   0    3.04    0.64
  12   6   0    3.68    0.72
 -14  -6   0    1.43    0.42
  14  -6   0    1.60    0.31
 -14  -6   0    1.42    0.30
  14  -6   0    1.49    0.39
  14   6   0    1.78    0.50
 -14   6   0    1.25    0.42
  16  -6   0    9.14    0.94
  16  -6   0    9.97    0.88
 -16  -6   0    8.85    1.01
 -16   6   0   10.85    1.14
  16   6   0   10.43    1.17
  18  -6   0    0.77    0.18
 -18  -6   0    1.40    0.36
  18  -6   0    0.55    0.13
  18   6   0    0.39    0.18
 -18   6   0    0.54    0.15
  20  -6   0    2.50    0.46
 -20  -6   0    2.69    0.62
  20  -6   0    2.37    0.51
 -20   6   0    2.73    0.60
  20   6   0    2.15    0.57
 -22  -6   0   14.41    1.28
  22  -6   0   15.13    1.30
  22  -6   0   13.34    1.02
 -22   6   0   14.15    1.29
  22   6   0   13.47    1.29
  24  -6   0    6.61    0.87
  24  -6   0    5.73    0.49
 -24  -6   0    3.95    0.72
 -24   6   0    5.85    0.90
  24   6   0    7.07    0.95
   1  -7   0    0.11    0.08
  -1  -7   0    0.28    0.16
  -1  -7   0    0.45    0.08
   1  -7   0    0.22    0.15
   1   7   0    0.08    0.17
  -1   7   0    0.71    0.26
  -3  -7   0    0.63    0.18
  -3  -7   0    0.37    0.17
   3  -7   0    0.35    0.17
   3   7   0    0.67    0.29
  -3   7   0    0.41    0.29
  -5  -7   0    7.10    0.78
   5  -7   0    8.39    0.91
  -5  -7   0    7.27    0.83
   5   7   0    6.86    0.99
  -5   7   0    7.64    1.09
  -7  -7   0    0.83    0.20
  -7  -7   0    0.96    0.27
   7  -7   0    0.76    0.26
   7   7   0    1.01    0.36
  -7   7   0    0.79    0.27
  -9  -7   0    3.28    0.60
  -9  -7   0    3.72    0.51
   9  -7   0    2.29    0.52
   9   7   0    3.52    0.75
  -9   7   0    3.45    0.73
 -11  -7   0    2.10    0.41
 -11  -7   0    2.32    0.53
  11  -7   0    1.91    0.47
 -11   7   0    2.05    0.60
  11   7   0    1.42    0.46
  13  -7   0    0.36    0.18
 -13  -7   0    0.77    0.26
 -13  -7   0    0.46    0.07
  13   7   0    0.34    0.20
 -13   7   0    0.42    0.23
  15  -7   0    0.71    0.21
 -15  -7   0    1.32    0.43
  15   7   0    0.72    0.23
 -15   7   0    0.50    0.23
  17  -7   0    1.28    0.30
 -17  -7   0    1.42    0.36
 -17   7   0    1.37    0.38
  17   7   0    1.05    0.27
 -19  -7   0    1.14    0.25
  19  -7   0    1.46    0.13
 -19   7   0    0.51    0.19
  19   7   0    1.14    0.32
  21  -7   0    2.36    0.14
 -21  -7   0    2.67    0.57
  21   7   0    3.28    0.60
 -21   7   0    1.88    0.51
   0  -8   0    0.17    0.14
   0   8   0    0.46    0.21
  -2  -8   0    1.78    0.45
   2  -8   0    2.13    0.50
  -2  -8   0    1.92    0.41
  -2   8   0    2.12    0.61
   2   8   0    2.12    0.62
  -4  -8   0    8.50    0.83
  -4  -8   0    9.98    0.91
   4  -8   0    8.66    0.95
   4   8   0    8.00    1.13
  -4   8   0    8.86    1.21
  -6  -8   0    0.52    0.13
  -6  -8   0    0.51    0.12
   6  -8   0    0.10    0.11
  -6   8   0    0.36    0.21
   6   8   0    0.31    0.16
  -8  -8   0    1.17    0.28
  -8  -8   0    0.88    0.18
   8  -8   0    0.85    0.23
   8   8   0    1.57    0.47
  -8   8   0    1.09    0.37
  10  -8   0    5.02    0.78
 -10  -8   0    5.19    0.64
 -10  -8   0    5.57    0.81
 -10   8   0    6.49    1.03
  10   8   0    5.46    0.92
  12  -8   0    1.96    0.46
 -12  -8   0    2.05    0.49
 -12  -8   0    1.45    0.25
 -12   8   0    0.95    0.31
  12   8   0    1.65    0.41
 -14  -8   0    0.49    0.17
  14  -8   0    0.48    0.12
  14   8   0    0.79    0.16
 -14   8   0    0.48    0.15
 -16  -8   0    0.56    0.13
 -16   8   0    0.84    0.20
  16   8   0    0.46    0.13
   1  -9   0    0.52    0.09
  -1   9   0    0.87    0.31
   1   9   0    1.02    0.26
  -3  -9   0    3.55    0.65
   3  -9   0    5.12    0.78
  -3  -9   0    6.60    0.78
   3   9   0    5.51    0.92
  -3   9   0    5.43    0.99
  -5  -9   0    4.05    0.65
  -5  -9   0    6.82    0.79
   5  -9   0    6.28    0.86
  -5   9   0    5.73    0.98
   5   9   0    6.50    0.99
   7  -9   0    1.22    0.29
  -7  -9   0    0.47    0.08
  -7   9   0    0.80    0.27
   7   9   0    1.75    0.38
   9  -9   0    0.63    0.10
   9   9   0    0.38    0.10
  -9   9   0    0.65    0.24
 -32   0   1   -0.20    0.07
  32   0  -1    0.36    0.08
 -30   0   1    0.87    0.17
  30   0  -1    0.32    0.13
  28   0  -1    0.38    0.21
 -28   0   1    0.56    0.17
  26   0  -1   -0.14    0.09
 -26   0   1    0.24    0.10
 -24   0   1    0.32    0.13
  24   0  -1    0.14    0.24
 -22   0   1    0.49    0.18
  22   0  -1    0.13    0.14
  20   0  -1   -0.02    0.18
 -20   0   1    0.12    0.13
 -18   0   1    0.41    0.07
 -18   0   1    0.17    0.11
 -16   0   1    0.42    0.07
  16   0  -1    0.28    0.08
 -16   0   1    0.52    0.21
 -16   0   1    0.09    0.07
 -14   0   1    0.34    0.14
 -14   0   1    0.22    0.11
  14   0  -1    0.23    0.08
 -14   0   1    0.33    0.05
 -12   0   1    0.29    0.13
 -12   0   1    0.41    0.08
 -12   0   1    0.07    0.10
  12   0  -1    0.18    0.09
 -10   0   1    0.14    0.08
 -10   0   1    0.20    0.07
  10   0  -1    0.16    0.10
 -10   0   1    0.39    0.14
  -8   0   1    0.35    0.08
  -8   0   1    0.17    0.10
   8   0  -1    0.26    0.10
  -8   0   1    0.02    0.07
   6   0  -1    0.08    0.08
  -6   0   1    0.04    0.06
  -6   0   1   -0.01    0.06
  -6   0   1    0.14    0.05
  -4   0   1    0.11    0.04
  -4   0   1    0.12    0.04
  -4   0   1    0.03    0.05
  -4   0   1    0.06    0.03
  -2   0   1    0.16    0.04
  -2   0   1    0.11    0.02
  -2   0   1    0.07    0.02
   0   0   1    0.01    0.00
   0   0  -1    0.00    0.00
  -2   0  -1    0.07    0.03
   2   0   1    0.14    0.05
  -2   0  -1    0.07    0.03
   4   0   1    0.13    0.03
  -4   0  -1   -0.02    0.04
  -4   0  -1   -0.01    0.04
   4   0   1    0.01    0.06
  -6   0  -1    0.13    0.08
   6   0   1    0.06    0.05
   6   0   1   -0.09    0.07
  -6   0  -1    0.05    0.07
  -8   0  -1    0.03    0.07
   8   0   1    0.11    0.04
   8   0   1    0.17    0.13
  -8   0  -1    0.15    0.07
  10   0   1    0.12    0.13
  10   0   1    0.08    0.04
 -10   0  -1    0.10    0.05
 -10   0  -1    0.01    0.07
 -12   0  -1    0.06    0.10
  12   0   1    0.24    0.06
  12   0   1   -0.04    0.13
 -12   0  -1    0.31    0.08
  14   0   1    0.17    0.03
  14   0   1    0.27    0.16
 -14   0  -1    0.41    0.08
 -14   0  -1    0.35    0.15
  16   0   1    0.06    0.17
 -16   0  -1    0.38    0.08
  16   0   1    0.28    0.05
 -16   0  -1    0.05    0.09
  18   0   1   -0.11    0.15
 -18   0  -1    0.22    0.12
 -20   0  -1    0.09    0.11
  20   0   1    0.43    0.27
 -20   0  -1    0.59    0.12
  22   0   1    0.27    0.23
 -22   0  -1    0.16    0.10
  24   0   1    0.19    0.17
 -24   0  -1    0.27    0.19
 -26   0  -1    0.42    0.14
  26   0   1    0.07    0.14
 -28   0  -1    0.64    0.20
  28   0   1    0.37    0.16
  30   0   1    0.06    0.09
 -30   0  -1    0.76    0.20
 -31  -1   1    2.72    0.53
  31  -1  -1    2.97    0.67
  31   1  -1    2.52    0.44
 -31   1   1    3.13    0.57
  29  -1  -1    2.79    0.71
 -29  -1   1    2.87    0.55
  29   1  -1    2.33    0.50
 -29   1   1    2.93    0.55
  27  -1  -1    1.36    0.46
 -27  -1   1    3.19    0.55
 -27   1   1    2.14    0.47
  27   1  -1    2.45    0.53
 -25  -1   1    1.18    0.34
  25  -1  -1    1.19    0.45
  25   1  -1    1.76    0.48
 -25   1   1    1.37    0.38
 -23  -1   1    1.07    0.31
  23  -1  -1    1.39    0.11
 -23  -1   1    1.57    0.29
  23  -1  -1    0.87    0.37
  23   1  -1    0.86    0.31
 -23   1   1    0.90    0.28
 -21  -1   1    2.10    0.34
  21  -1  -1    1.56    0.48
 -21  -1   1    1.78    0.39
  21  -1  -1    2.44    0.31
  21   1  -1    1.48    0.43
 -21   1   1    1.21    0.34
  21   1  -1    1.90    0.24
  19  -1  -1    1.31    0.21
 -19  -1   1    1.26    0.26
 -19  -1   1    0.61    0.24
 -19   1   1    0.58    0.27
 -19   1   1    0.56    0.24
  19   1  -1    0.71    0.13
  19   1  -1    0.53    0.27
  17  -1  -1    3.21    0.31
 -17  -1   1    2.42    0.37
 -17  -1   1    3.76    0.44
 -17   1   1    3.26    0.44
 -17   1   1    3.51    0.57
  17   1  -1    2.35    0.45
  17   1  -1    3.33    0.31
 -17   1   1    3.37    0.26
 -15  -1   1    2.96    0.39
  15  -1  -1    2.71    0.31
 -15  -1   1    3.37    0.45
 -15  -1   1    3.41    0.41
 -15   1   1    2.62    0.46
 -15   1   1    2.83    0.39
 -15   1   1    3.22    0.23
 -13  -1   1   14.72    0.62
  13  -1  -1   14.00    0.67
 -13  -1   1   13.60    0.75
 -13  -1   1   15.38    0.88
 -13  -1   1   13.98    0.76
 -13   1   1   14.71    0.96
 -13   1   1   14.20    0.53
 -13   1   1   13.37    0.74
 -11  -1   1    3.57    0.35
 -11  -1   1    4.24    0.38
 -11  -1   1    3.86    0.38
 -11  -1   1    4.23    0.30
  11  -1  -1    3.66    0.32
 -11   1   1    4.49    0.24
 -11   1   1    4.30    0.38
 -11   1   1    4.09    0.49
  -9  -1   1    3.83    0.35
  -9  -1   1    3.70    0.26
  -9  -1   1    4.12    0.33
  -9  -1   1    3.37    0.32
   9  -1  -1    3.30    0.28
  -9   1   1    3.71    0.43
  -9   1   1    3.19    0.30
  -9   1   1    3.57    0.17
  -7  -1   1   10.11    0.55
   7  -1  -1   10.25    0.47
  -7  -1   1   10.93    0.55
  -7  -1   1   11.17    0.45
  -7  -1   1   10.53    0.51
  -7   1   1   10.66    0.28
  -7   1   1   10.20    0.63
  -7   1   1   10.64    0.52
  -5  -1   1   45.65    1.13
  -5  -1   1   43.29    1.02
  -5  -1   1   46.54    1.16
   5  -1  -1   44.46    1.08
  -5   1   1   43.17    1.30
  -5   1   1   44.49    1.14
  -3  -1   1   10.50    0.37
  -3  -1   1    9.86    0.47
  -3  -1   1    9.84    0.38
   3  -1  -1   10.55    0.29
   3  -1  -1   10.12    0.41
   3   1  -1    9.55    0.42
  -3   1   1    9.07    0.42
  -3   1   1   10.35    0.50
   1  -1  -1    6.08    0.28
  -1  -1   1    6.68    0.23
  -1  -1   1    5.74    0.28
  -1  -1   1    5.78    0.31
   1  -1  -1    6.34    0.25
   1   1  -1    5.87    0.35
  -1   1   1    6.13    0.32
  -1   1   1    5.99    0.35
  -1  -1  -1    1.64    0.15
   1  -1   1    1.90    0.16
   1  -1   1    1.89    0.13
  -1  -1  -1    2.06    0.14
  -1   1  -1    1.66    0.14
   1   1   1    1.92    0.14
  -1   1  -1    2.01    0.17
  -3  -1  -1    1.37    0.18
   3  -1   1    1.36    0.17
  -3  -1  -1    1.25    0.17
  -3  -1  -1    1.34    0.12
   3  -1   1    1.30    0.16
  -3   1  -1    1.53    0.13
   3   1   1    1.57    0.15
  -3   1  -1    1.40    0.18
   5  -1   1   -0.05    0.07
   5  -1   1    0.41    0.14
  -5  -1  -1    0.06    0.08
  -5  -1  -1    0.14    0.04
  -5  -1  -1    0.00    0.08
  -5   1  -1    0.09    0.09
  -5   1  -1    0.17    0.05
   5   1   1    0.27    0.10
   7  -1   1    2.33    0.22
  -7  -1  -1    2.81    0.29
  -7  -1  -1    2.22    0.16
   7  -1   1    2.12    0.31
  -7  -1  -1    2.48    0.28
  -7   1  -1    2.52    0.17
  -7   1  -1    2.45    0.27
   7   1   1    2.13    0.25
   9  -1   1    0.17    0.07
  -9  -1  -1    0.15    0.07
   9  -1   1    0.09    0.08
  -9  -1  -1    0.04    0.06
  -9  -1  -1    0.18    0.04
   9   1   1    0.00    0.07
  -9   1  -1    0.06    0.07
  -9   1  -1    0.31    0.06
  11  -1   1   25.41    0.84
  11  -1   1   23.35    1.13
 -11  -1  -1   23.99    0.69
 -11  -1  -1   23.57    0.98
 -11  -1  -1   24.52    1.01
 -11   1  -1   24.57    0.75
  11   1   1   24.70    0.67
  11   1   1   25.08    1.07
 -11   1  -1   24.91    0.99
 -13  -1  -1    5.63    0.47
  13  -1   1    6.14    0.39
  13  -1   1    6.42    0.61
 -13  -1  -1    6.10    0.51
 -13   1  -1    5.74    0.34
 -13   1  -1    5.60    0.48
  13   1   1    5.61    0.53
  13   1   1    6.28    0.33
  15  -1   1   42.23    1.26
  15  -1   1   38.59    1.74
 -15  -1  -1   41.12    1.51
 -15  -1  -1   41.34    1.53
  15   1   1   39.91    1.63
 -15   1  -1   40.56    1.19
 -15   1  -1   39.68    1.50
  15   1   1   40.37    1.08
 -17  -1  -1    2.20    0.39
 -17  -1  -1    2.42    0.36
  17  -1   1    2.77    0.25
  17  -1   1    2.18    0.47
  17   1   1    2.34    0.45
 -17   1  -1    2.46    0.22
  17   1   1    2.66    0.21
 -17   1  -1    2.45    0.40
 -19  -1  -1    0.54    0.23
  19  -1   1    0.46    0.27
  19  -1   1    0.80    0.13
 -19  -1  -1    0.79    0.18
 -19   1  -1    0.95    0.14
 -19   1  -1    0.71    0.28
  19   1   1    0.46    0.20
 -21  -1  -1   13.19    0.89
  21  -1   1   12.65    0.67
  21  -1   1   11.63    1.11
 -21  -1  -1   11.06    0.87
 -21   1  -1   11.68    0.91
  21   1   1   11.96    1.01
 -23  -1  -1   15.36    0.99
 -23  -1  -1   12.41    0.97
  23  -1   1   13.67    1.24
 -23   1  -1   12.80    1.00
  23   1   1   13.63    1.15
  25  -1   1    0.45    0.18
 -25  -1  -1    0.40    0.17
  25   1   1    0.39    0.18
 -25   1  -1    0.33    0.19
 -27  -1  -1    0.86    0.31
  27  -1   1    1.16    0.39
 -27   1  -1    0.83    0.25
  27   1   1    1.12    0.32
  29  -1   1    7.99    1.11
 -29  -1  -1    6.82    0.84
  29   1   1    7.24    0.94
 -29   1  -1    6.91    0.85
 -31  -1  -1    7.60    0.91
  31  -1   1    7.03    1.08
  31   1   1    6.91    0.73
 -31   1  -1    8.63    0.99
 -30  -2   1   18.95    1.39
  30  -2  -1   17.34    1.67
  30   2  -1   18.55    1.35
 -30   2   1   19.36    1.43
 -28  -2   1    0.60    0.18
 -28   2   1    0.82    0.22
  26  -2  -1    4.42    0.83
 -26  -2   1    4.33    0.64
 -26  -2   1    5.34    0.65
  26   2  -1    3.36    0.56
 -26   2   1    3.87    0.63
 -24  -2   1    0.55    0.16
 -24  -2   1    0.50    0.11
  24  -2  -1    0.49    0.07
  24  -2  -1    0.33    0.24
 -24   2   1    0.47    0.20
 -22  -2   1   26.58    1.44
 -22  -2   1   28.85    1.49
  22  -2  -1   27.85    1.81
  22  -2  -1   25.41    1.22
  22   2  -1   29.86    1.60
 -22   2   1   29.32    1.53
  20  -2  -1    2.42    0.33
 -20  -2   1    1.81    0.39
 -20  -2   1    2.43    0.41
  20   2  -1    1.55    0.37
 -20   2   1    1.40    0.36
 -18  -2   1    1.33    0.21
 -18  -2   1    1.38    0.32
 -18  -2   1    1.93    0.36
  18  -2  -1    1.64    0.28
 -18   2   1    2.08    0.50
  18   2  -1    1.67    0.34
 -18   2   1    1.28    0.33
  16  -2  -1    0.31    0.10
 -16  -2   1    0.41    0.16
 -16  -2   1    0.45    0.16
 -16  -2   1    0.40    0.07
 -16   2   1    0.58    0.24
  16   2  -1    0.19    0.09
 -16   2   1    0.22    0.14
 -14  -2   1   47.71    1.37
 -14  -2   1   46.60    1.66
 -14  -2   1   44.98    1.71
  14  -2  -1   47.53    1.52
 -14   2   1   48.10    1.68
  14   2  -1   47.88    1.64
 -14   2   1   46.82    1.96
 -12  -2   1    0.46    0.18
 -12  -2   1    0.46    0.19
 -12  -2   1    0.50    0.10
  12  -2  -1    0.32    0.15
 -12   2   1    0.21    0.14
  12   2  -1    0.39    0.13
 -12   2   1    0.30    0.17
 -10  -2   1    3.17    0.26
 -10  -2   1    2.60    0.33
  10  -2  -1    3.34    0.33
 -10  -2   1    3.60    0.44
 -10   2   1    2.86    0.36
 -10   2   1    3.10    0.43
  10   2  -1    3.47    0.32
   8  -2  -1   99.36    2.23
  -8  -2   1  101.35    2.10
  -8  -2   1   95.51    2.48
  -8   2   1   98.39    2.35
  -8   2   1   96.21    2.59
  -6  -2   1   93.16    1.99
  -6  -2   1   91.20    2.32
   6  -2  -1   92.51    2.09
  -6   2   1   96.24    2.39
   6   2  -1   94.67    2.24
  -6   2   1   97.65    2.24
  -6   2   1   95.08    1.75
   4  -2  -1   66.70    1.39
  -4  -2   1   63.60    1.74
   4  -2  -1   65.75    1.58
  -4  -2   1   65.15    1.52
  -4   2   1   65.21    1.70
   4   2  -1   68.74    1.33
   4   2  -1   65.35    1.77
  -4   2   1   65.19    1.72
  -2  -2   1    1.47    0.21
   2  -2  -1    1.58    0.21
  -2  -2   1    2.31    0.28
  -2   2   1    1.79    0.28
  -2   2   1    2.03    0.20
   2   2  -1    1.93    0.30
   0  -2  -1   75.72    1.70
   0  -2   1   80.15    1.53
   0  -2  -1   76.63    1.77
   0  -2   1   78.79    1.81
   0   2  -1   80.27    2.03
   0   2   1   75.99    2.07
   0   2   1   75.09    1.68
   2  -2   1  118.37    2.42
   2  -2   1  117.00    2.36
  -2  -2  -1  118.79    2.53
  -2  -2  -1  115.37    2.32
   2  -2   1  118.67    2.35
  -2   2  -1  117.16    2.58
   2   2   1  118.45    2.34
   2   2   1  119.61    2.77
  -4  -2  -1    0.57    0.12
   4  -2   1    0.75    0.15
  -4  -2  -1    0.73    0.18
   4  -2   1    0.53    0.15
   4   2   1    0.87    0.11
  -4   2  -1    0.55    0.16
   4   2   1    0.58    0.19
  -4   2  -1    0.69    0.11
   6  -2   1    1.59    0.23
  -6  -2  -1    1.65    0.26
   6  -2   1    1.74    0.25
  -6  -2  -1    1.63    0.16
   6   2   1    1.47    0.25
   6   2   1    1.79    0.17
  -6   2  -1    1.91    0.15
  -6   2  -1    1.61    0.25
   8  -2   1   46.97    1.57
  -8  -2  -1   49.52    1.18
  -8  -2  -1   51.39    1.57
   8  -2   1   48.99    1.37
  -8  -2  -1   45.99    1.53
  -8   2  -1   50.76    1.51
  -8   2  -1   49.64    1.07
   8   2   1   49.23    1.36
 -10  -2  -1    8.68    0.63
  10  -2   1    9.11    0.54
 -10  -2  -1    8.95    0.62
  10  -2   1    8.88    0.67
 -10  -2  -1    8.75    0.41
 -10   2  -1    8.07    0.57
  10   2   1    9.02    0.54
 -10   2  -1    8.87    0.34
 -12  -2  -1   15.47    0.89
 -12  -2  -1   15.95    0.60
 -12  -2  -1   15.82    0.88
  12  -2   1   15.38    0.75
  12  -2   1   14.48    0.94
 -12   2  -1   15.51    0.51
 -12   2  -1   15.28    0.86
  12   2   1   15.22    0.80
  14  -2   1    0.45    0.13
 -14  -2  -1    0.34    0.15
  14  -2   1    0.35    0.20
 -14  -2  -1    1.07    0.28
 -14  -2  -1    0.67    0.06
 -14   2  -1    0.27    0.15
  14   2   1    0.48    0.17
 -14   2  -1    0.56    0.05
 -16  -2  -1   43.59    1.68
  16  -2   1   42.19    1.93
 -16  -2  -1   40.96    1.69
 -16  -2  -1   41.03    1.16
  16  -2   1   42.83    1.44
  16   2   1   40.75    1.10
 -16   2  -1   43.10    1.67
  16   2   1   40.48    1.62
  18  -2   1    3.84    0.36
 -18  -2  -1    4.12    0.54
  18  -2   1    3.91    0.67
 -18  -2  -1    3.60    0.52
  18   2   1    3.21    0.46
 -18   2  -1    2.58    0.46
 -20  -2  -1    6.80    0.67
 -20  -2  -1    6.97    0.74
  20  -2   1    7.49    0.55
  20  -2   1    6.53    0.89
 -20   2  -1    6.24    0.71
  20   2   1    6.41    0.65
 -22  -2  -1    0.54    0.15
  22  -2   1    0.56    0.33
 -22  -2  -1    0.28    0.15
  22   2   1    0.23    0.12
 -22   2  -1    0.33    0.18
 -24  -2  -1   17.48    1.21
  24  -2   1   16.88    1.46
 -24  -2  -1   16.78    1.17
 -24   2  -1   17.92    1.25
  24   2   1   19.69    1.34
  26  -2   1    0.41    0.19
 -26  -2  -1    0.44    0.16
 -26  -2  -1    0.68    0.13
 -26   2  -1    0.58    0.20
  26   2   1    0.30    0.11
 -28  -2  -1    9.40    1.00
  28  -2   1    8.24    1.16
  28   2   1    8.53    0.84
 -28   2  -1    9.92    0.97
 -30  -2  -1    0.97    0.27
  30  -2   1    0.77    0.36
 -30   2  -1    1.09    0.27
  29  -3  -1    0.74    0.33
 -29  -3   1    1.63    0.32
 -29   3   1    1.48    0.36
 -27  -3   1    8.28    0.80
 -27  -3   1    9.16    0.98
  27  -3  -1    7.71    1.14
 -27   3   1    8.09    0.93
  27   3  -1    8.15    0.71
 -25  -3   1   48.45    2.24
  25  -3  -1   44.27    2.60
 -25  -3   1   50.66    2.30
  25  -3  -1   48.51    1.94
 -25   3   1   50.31    2.28
  25   3  -1   50.48    2.17
 -23  -3   1    2.58    0.48
  23  -3  -1    2.32    0.37
  23  -3  -1    2.39    0.61
 -23  -3   1    2.69    0.51
  23   3  -1    3.06    0.46
 -23   3   1    1.75    0.43
  21  -3  -1   21.68    1.59
 -21  -3   1   22.44    1.40
  21  -3  -1   20.87    1.16
 -21  -3   1   22.21    1.35
  21   3  -1   21.35    1.21
 -21   3   1   22.89    1.37
  19  -3  -1    3.72    0.49
 -19  -3   1    2.89    0.51
 -19  -3   1    3.99    0.59
 -19  -3   1    3.46    0.32
 -19   3   1    4.25    0.69
  19   3  -1    4.02    0.42
 -19   3   1    3.30    0.53
 -17  -3   1   41.19    1.39
 -17  -3   1   39.17    1.79
 -17  -3   1   40.05    1.75
  17  -3  -1   40.58    1.57
 -17   3   1   36.44    1.90
  17   3  -1   40.81    1.55
 -17   3   1   41.26    1.75
 -15  -3   1    7.37    0.71
 -15  -3   1    8.27    0.54
  15  -3  -1    8.42    0.65
  15   3  -1    9.40    0.62
 -15   3   1    8.11    0.70
 -15   3   1    9.27    0.84
  13  -3  -1    1.96    0.35
 -13  -3   1    2.08    0.41
 -13  -3   1    2.93    0.31
  13   3  -1    2.87    0.28
 -13   3   1    2.87    0.43
 -13   3   1    1.84    0.39
  13   3  -1    2.35    0.40
 -11  -3   1    0.36    0.09
 -11  -3   1    0.10    0.12
  11  -3  -1    0.35    0.18
 -11   3   1    0.36    0.15
  11   3  -1    0.34    0.15
 -11   3   1    0.30    0.17
  11   3  -1    0.41    0.08
  -9  -3   1  112.91    2.52
   9  -3  -1  110.77    2.68
  -9  -3   1  106.58    2.93
   9   3  -1  113.81    2.91
  -9   3   1  107.86    2.95
  -9   3   1  112.63    2.02
   9   3  -1  109.90    2.35
  -9   3   1  110.10    2.83
  -7  -3   1    6.63    0.45
  -7  -3   1    6.93    0.59
   7  -3  -1    6.75    0.52
  -7   3   1    6.64    0.32
  -7   3   1    5.61    0.52
   7   3  -1    6.65    0.30
  -7   3   1    6.87    0.53
   7   3  -1    6.27    0.56
  -5  -3   1   23.14    1.08
  -5  -3   1   22.79    0.89
   5  -3  -1   21.01    0.91
   5  -3  -1   22.36    0.76
  -5   3   1   22.16    0.92
  -5   3   1   20.27    1.03
   5   3  -1   20.94    1.09
   3  -3  -1    2.37    0.26
  -3  -3   1    2.77    0.37
   3  -3  -1    1.95    0.29
  -3  -3   1    2.01    0.28
   3   3  -1    1.76    0.34
  -3   3   1    2.63    0.23
  -3   3   1    2.37    0.38
  -1  -3   1   32.69    1.12
  -1  -3   1   31.08    1.18
   1  -3  -1   32.11    1.10
   1  -3  -1   34.26    1.14
  -1   3   1   31.63    1.38
   1   3  -1   32.74    1.40
  -1   3   1   33.00    0.94
  -1  -3  -1    4.86    0.39
   1  -3   1    4.70    0.39
  -1  -3  -1    5.05    0.42
   1  -3   1    5.15    0.25
   1  -3   1    5.32    0.43
  -1   3  -1    4.65    0.53
   1   3   1    5.63    0.60
   1   3   1    5.23    0.26
  -3  -3  -1  103.54    2.34
   3  -3   1  103.34    2.45
   3  -3   1  106.25    2.29
   3  -3   1  103.41    2.35
   3   3   1  104.87    2.89
   3   3   1  110.58    2.19
  -3   3  -1  108.08    2.75
   5  -3   1    2.42    0.25
  -5  -3  -1    2.09    0.25
   5  -3   1    1.86    0.30
  -5  -3  -1    1.53    0.28
   5   3   1    2.36    0.17
  -5   3  -1    1.52    0.29
   5   3   1    2.30    0.38
  -5   3  -1    2.02    0.22
   7  -3   1   26.94    1.08
  -7  -3  -1   26.89    0.93
  -7  -3  -1   25.40    1.17
   7  -3   1   26.98    1.09
   7   3   1   26.47    1.22
  -7   3  -1   26.34    0.82
   7   3   1   25.90    0.82
  -7   3  -1   25.29    1.13
   9  -3   1    4.23    0.48
  -9  -3  -1    4.40    0.33
  -9  -3  -1    4.08    0.50
   9  -3   1    5.17    0.46
   9   3   1    4.64    0.32
  -9   3  -1    4.44    0.25
   9   3   1    4.02    0.49
  -9   3  -1    4.22    0.48
  11  -3   1   77.52    2.14
 -11  -3  -1   81.02    1.90
  11  -3   1   74.52    2.41
 -11   3  -1   76.41    2.32
  11   3   1   81.63    2.05
 -11   3  -1   77.09    1.59
  11   3   1   82.90    2.44
  13  -3   1    2.67    0.46
 -13  -3  -1    3.38    0.27
  13  -3   1    3.25    0.42
 -13  -3  -1    2.07    0.42
  13   3   1    2.76    0.28
  13   3   1    3.06    0.47
 -13   3  -1    1.70    0.36
  15  -3   1   75.73    2.72
 -15  -3  -1   78.62    1.92
 -15  -3  -1   78.95    2.61
 -15  -3  -1   80.15    2.58
  15  -3   1   77.53    2.27
 -15   3  -1   80.47    2.52
  15   3   1   78.69    2.28
  17  -3   1   11.03    1.01
 -17  -3  -1   10.30    0.89
 -17  -3  -1   12.91    0.98
  17  -3   1   12.89    0.80
  17   3   1   11.60    0.77
 -17   3  -1   10.43    0.85
 -19  -3  -1   70.02    2.55
  19  -3   1   72.62    2.24
 -19  -3  -1   69.07    2.59
  19  -3   1   69.12    2.85
  19   3   1   69.44    2.34
 -19   3  -1   66.56    2.47
  21  -3   1   11.17    0.77
 -21  -3  -1   12.32    1.00
 -21  -3  -1   10.24    0.92
  21  -3   1   10.63    1.10
  21   3   1   10.67    0.83
 -21   3  -1   10.15    0.92
  23  -3   1    9.03    0.67
 -23  -3  -1    9.01    0.88
  23  -3   1    8.07    1.07
 -23  -3  -1    9.48    0.88
  23   3   1    9.49    0.79
 -23   3  -1    8.99    0.87
  25  -3   1    9.34    1.19
 -25  -3  -1    8.68    0.85
 -25  -3  -1    8.74    0.95
 -25   3  -1    9.26    0.91
  25   3   1    9.20    0.79
 -27  -3  -1   10.01    0.96
 -27  -3  -1   11.83    1.03
  27  -3   1    9.92    1.25
  27   3   1   10.46    0.88
 -27   3  -1   10.54    1.01
  29  -3   1   14.41    1.47
 -29  -3  -1   12.59    1.13
 -29   3  -1   12.87    1.17
  29   3   1   11.91    0.98
  28  -4  -1    0.59    0.21
 -28   4   1    1.02    0.20
  26  -4  -1   24.73    1.36
  26  -4  -1   23.22    1.84
 -26  -4   1   22.14    1.55
 -26   4   1   22.04    1.54
  26   4  -1   22.87    1.59
  24  -4  -1    5.79    0.94
  24  -4  -1    6.70    0.59
 -24  -4   1    7.42    0.88
 -24   4   1    6.52    0.84
  24   4  -1    5.33    0.79
  22  -4  -1   36.31    1.68
 -22  -4   1   35.82    1.94
  22  -4  -1   36.48    2.16
  22   4  -1   36.17    1.93
 -22   4   1   36.08    1.90
 -20  -4   1    0.35    0.15
  20  -4  -1    0.32    0.23
  20  -4  -1    0.43    0.15
 -20   4   1    0.25    0.19
  20   4  -1    0.98    0.34
  18  -4  -1   62.08    2.22
 -18  -4   1   65.97    2.01
 -18  -4   1   63.42    2.57
  18   4  -1   63.11    2.48
 -18   4   1   63.55    2.43
 -16  -4   1    2.88    0.36
  16  -4  -1    2.61    0.46
 -16  -4   1    2.44    0.50
 -16   4   1    2.39    0.49
 -16   4   1    2.41    0.50
  16   4  -1    2.20    0.49
  14  -4  -1   10.99    0.82
 -14  -4   1   11.70    0.96
 -14  -4   1   12.24    0.74
  14   4  -1   11.78    0.96
 -14   4   1   12.13    0.94
 -14   4   1   10.87    0.89
 -12  -4   1    7.89    0.58
  12  -4  -1    8.23    0.69
 -12  -4   1    8.51    0.79
  12   4  -1    8.17    0.75
 -12   4   1    8.15    0.74
 -12   4   1    8.55    0.73
  12   4  -1    8.66    0.45
 -10  -4   1   75.44    2.55
  10  -4  -1   76.91    2.30
 -10  -4   1   76.31    2.11
  10   4  -1   75.06    2.54
  10   4  -1   75.82    1.72
 -10   4   1   74.82    2.47
 -10   4   1   77.00    2.42
   8  -4  -1   70.39    2.13
  -8  -4   1   70.76    2.38
  -8  -4   1   72.09    2.03
  -8   4   1   69.60    2.35
  -8   4   1   70.06    1.73
   8   4  -1   70.05    2.44
   8   4  -1   73.02    1.48
  -8   4   1   70.96    2.16
   6  -4  -1   39.22    1.46
  -6  -4   1   40.53    1.64
   6  -4  -1   37.97    1.21
  -6  -4   1   39.25    1.40
  -6   4   1   35.37    1.63
  -6   4   1   41.40    1.42
   6   4  -1   39.46    1.76
  -4  -4   1   88.24    2.58
  -4  -4   1   87.00    2.31
   4  -4  -1   86.08    2.23
   4  -4  -1   85.60    2.36
  -4   4   1   89.31    2.20
  -4   4   1   90.70    2.81
   4   4  -1   89.23    2.81
   2  -4  -1  208.64    4.33
  -2  -4   1  198.30    4.50
   2  -4  -1  206.19    4.28
  -2  -4   1  201.74    4.27
   2   4  -1  208.46    4.97
  -2   4   1  213.79    5.00
  -2   4   1  205.58    4.03
   0  -4   1   87.63    2.34
   0  -4   1   89.40    1.72
   0  -4   1   86.56    2.44
   0  -4  -1   93.22    2.44
   0  -4  -1   84.59    2.29
   0   4   1   88.41    1.86
   0   4   1   87.21    2.84
   0   4  -1   85.16    2.76
  -2  -4  -1    8.98    0.62
  -2  -4  -1   10.14    0.71
   2  -4   1    9.63    0.64
   2  -4   1    9.14    0.66
   2  -4   1   10.06    0.43
   2   4   1   10.22    0.87
   2   4   1   10.22    0.34
  -2   4  -1    9.31    0.81
   4  -4   1   90.05    2.11
   4  -4   1   87.47    2.39
  -4  -4  -1   85.66    2.24
   4  -4   1   85.62    2.23
  -4  -4  -1   89.35    2.53
   4   4   1   88.07    1.76
   4   4   1   81.97    2.75
  -4   4  -1   87.28    2.71
   6  -4   1   21.52    1.06
  -6  -4  -1   21.15    1.13
   6  -4   1   20.16    0.90
  -6  -4  -1   20.70    0.93
   6   4   1   19.89    1.22
   6   4   1   22.08    0.67
  -6   4  -1   20.63    0.88
  -6   4  -1   21.34    1.18
   8  -4   1   31.16    1.33
   8  -4   1   31.46    1.28
  -8  -4  -1   31.33    1.17
  -8  -4  -1   30.86    1.45
   8   4   1   31.81    0.95
  -8   4  -1   30.98    1.05
   8   4   1   30.71    1.52
  -8   4  -1   30.72    1.45
  10  -4   1    1.20    0.31
 -10  -4  -1    0.89    0.29
  10  -4   1    1.49    0.31
 -10  -4  -1    1.40    0.23
  10   4   1    1.01    0.31
  10   4   1    1.39    0.11
 -10   4  -1    0.89    0.28
 -10   4  -1    1.38    0.12
 -12  -4  -1   44.69    1.91
 -12  -4  -1   44.90    1.46
  12  -4   1   45.47    1.71
  12  -4   1   43.33    1.81
  12   4   1   42.57    1.89
  12   4   1   46.03    1.39
 -12   4  -1   45.54    1.86
 -14  -4  -1   31.46    1.64
 -14  -4  -1   34.45    1.25
  14  -4   1   34.67    1.48
  14  -4   1   35.54    1.69
 -14   4  -1   33.17    1.61
  14   4   1   33.48    1.70
  14   4   1   33.40    1.22
  16  -4   1   70.66    2.30
  16  -4   1   70.86    2.69
 -16  -4  -1   70.36    1.95
 -16  -4  -1   66.90    2.59
 -16   4  -1   66.28    2.48
  16   4   1   70.46    2.08
  16   4   1   69.59    2.61
  18  -4   1    2.25    0.39
  18  -4   1    2.30    0.53
 -18  -4  -1    1.53    0.41
  18   4   1    2.01    0.50
 -18   4  -1    1.98    0.47
  20  -4   1   45.65    2.35
 -20  -4  -1   44.81    2.18
  20  -4   1   48.24    1.90
  20   4   1   45.87    2.18
 -20   4  -1   46.97    2.15
 -22  -4  -1    0.45    0.17
  22  -4   1    0.43    0.21
  22   4   1    0.34    0.14
 -22   4  -1    0.61    0.23
  24  -4   1   26.00    1.36
  24  -4   1   23.71    1.79
 -24  -4  -1   22.93    1.59
  24   4   1   25.74    1.70
 -24   4  -1   27.05    1.68
 -26  -4  -1    0.77    0.18
  26  -4   1    1.69    0.50
  26   4   1    0.70    0.23
 -26   4  -1    1.00    0.26
  28  -4   1   17.70    1.64
 -28  -4  -1   19.36    1.46
 -28   4  -1   19.12    1.48
  28   4   1   17.71    1.44
 -27  -5   1    2.01    0.47
  27  -5  -1    2.12    0.46
  27  -5  -1    2.16    0.14
 -27   5   1    1.60    0.40
  27   5  -1    2.98    0.22
  25  -5  -1   17.53    1.17
  25  -5  -1   17.93    1.56
 -25  -5   1   19.52    1.50
  25   5  -1   18.79    1.44
 -25   5   1   19.22    1.50
  23  -5  -1   14.02    1.29
 -23  -5   1   14.95    1.27
  23  -5  -1   13.60    0.98
 -23   5   1   13.66    1.21
  23   5  -1   14.24    1.24
  21  -5  -1   73.46    2.68
 -21  -5   1   71.99    3.02
  21  -5  -1   75.16    3.20
 -21   5   1   75.10    3.00
  21   5  -1   71.51    3.02
 -19  -5   1    1.66    0.44
  19  -5  -1    2.97    0.50
  19  -5  -1    3.17    0.58
  19   5  -1    2.59    0.59
 -19   5   1    2.93    0.59
  17  -5  -1   25.39    1.57
  17  -5  -1   22.61    1.34
 -17  -5   1   23.55    1.17
 -17  -5   1   23.79    1.55
 -17   5   1   22.54    1.46
  17   5  -1   23.86    1.56
  15  -5  -1   16.10    1.09
 -15  -5   1   17.68    1.00
 -15  -5   1   16.78    1.25
  15   5  -1   18.24    1.34
 -15   5   1   17.77    1.25
 -13  -5   1   78.07    2.37
 -13  -5   1   76.36    2.80
  13  -5  -1   77.03    2.55
 -13   5   1   77.71    2.65
  13   5  -1   72.89    2.83
 -13   5   1   73.20    2.74
 -11  -5   1    0.68    0.14
 -11  -5   1    0.81    0.31
  11  -5  -1    0.22    0.18
 -11   5   1    0.42    0.23
  11   5  -1    0.87    0.34
 -11   5   1    0.51    0.13
   9  -5  -1    7.01    0.69
  -9  -5   1    7.02    0.79
  -9  -5   1    7.58    0.62
  -9   5   1    8.25    0.62
  -9   5   1    8.41    0.91
   9   5  -1    7.88    0.91
  -7  -5   1    6.68    0.74
   7  -5  -1    5.43    0.63
  -7  -5   1    5.81    0.54
   7  -5  -1    5.25    0.41
  -7   5   1    5.40    0.45
   7   5  -1    5.99    0.77
  -7   5   1    4.42    0.68
   5  -5  -1  171.22    4.09
  -5  -5   1  175.43    4.42
   5  -5  -1  168.59    3.88
  -5  -5   1  176.69    4.05
  -5   5   1  177.55    3.82
   5   5  -1  180.79    4.78
  -5   5   1  181.26    4.77
  -3  -5   1    1.00    0.27
  -3  -5   1    0.90    0.30
   3  -5  -1    1.46    0.25
   3  -5  -1    1.20    0.31
  -3   5   1    1.44    0.42
  -3   5   1    1.23    0.16
   3   5  -1    1.04    0.36
  -1  -5   1   25.35    1.29
  -1  -5   1   25.78    1.23
   1  -5  -1   23.80    1.20
   1  -5  -1   25.04    1.20
  -1   5   1   26.55    1.60
   1   5  -1   27.32    1.57
  -1  -5  -1    0.46    0.17
   1  -5   1    0.58    0.22
  -1  -5  -1    0.28    0.12
   1  -5   1    0.91    0.21
   1   5   1    0.39    0.24
  -1   5  -1    0.98    0.32
  -3  -5  -1   90.63    2.54
   3  -5   1   91.92    2.61
  -3  -5  -1   94.30    2.78
   3  -5   1   87.09    2.62
   3  -5   1   93.26    2.08
   3   5   1   90.75    3.14
   5  -5   1    4.84    0.58
   5  -5   1    5.27    0.38
  -5  -5  -1    5.40    0.63
  -5  -5  -1    5.37    0.51
   5   5   1    5.62    0.76
  -5   5  -1    5.28    0.49
  -5   5  -1    4.79    0.69
   7  -5   1   22.47    1.01
   7  -5   1   23.87    1.26
  -7  -5  -1   23.05    1.31
  -7  -5  -1   22.92    1.10
   7   5   1   19.85    1.38
  -7   5  -1   22.56    1.03
  -7   5  -1   21.72    1.38
   9  -5   1    3.60    0.54
  -9  -5  -1    3.08    0.54
  -9  -5  -1    4.29    0.42
   9  -5   1    4.36    0.43
  -9   5  -1    3.78    0.29
   9   5   1    4.42    0.70
  -9   5  -1    3.40    0.60
  11  -5   1  200.22    4.71
 -11  -5  -1  201.29    5.10
 -11  -5  -1  205.89    4.40
  11  -5   1  201.33    4.81
 -11   5  -1  198.41    5.06
  11   5   1  197.08    5.28
 -13  -5  -1    2.50    0.33
  13  -5   1    2.26    0.45
  13  -5   1    2.76    0.46
 -13  -5  -1    2.25    0.51
 -13   5  -1    2.75    0.55
  13   5   1    2.07    0.54
  15  -5   1  107.20    3.40
 -15  -5  -1  102.16    3.45
 -15  -5  -1   99.53    2.71
  15  -5   1  105.32    3.14
 -15   5  -1  102.25    3.40
  15   5   1   99.47    3.50
  17  -5   1    3.53    0.58
  17  -5   1    4.19    0.59
 -17  -5  -1    4.02    0.68
  17   5   1    3.54    0.67
 -17   5  -1    3.72    0.64
  19  -5   1   62.96    2.40
  19  -5   1   64.15    2.77
 -19  -5  -1   67.26    2.82
  19   5   1   66.49    2.85
 -19   5  -1   56.86    2.54
  21  -5   1   14.81    1.05
 -21  -5  -1   12.17    1.14
  21  -5   1   12.46    1.17
  21   5   1   14.40    1.26
 -21   5  -1   14.36    1.22
  23  -5   1   19.89    1.24
  23  -5   1   18.67    1.50
 -23  -5  -1   18.24    1.45
 -23   5  -1   18.75    1.45
  23   5   1   17.36    1.44
 -25  -5  -1   25.38    1.75
  25  -5   1   24.40    1.81
 -25   5  -1   22.55    1.63
  25   5   1   26.93    1.86
 -27  -5  -1    8.03    0.98
  27  -5   1    7.84    1.07
 -27   5  -1    8.85    1.05
  27   5   1    9.00    1.07
 -24  -6   1    1.41    0.32
  24  -6  -1    1.41    0.35
 -24   6   1    2.00    0.47
 -22  -6   1   25.92    1.79
  22  -6  -1   26.31    1.80
  22  -6  -1   22.51    1.44
 -22   6   1   25.44    1.76
  22   6  -1   26.41    1.79
  20  -6  -1    9.64    0.87
 -20  -6   1    9.00    1.07
  20  -6  -1    8.70    0.91
  20   6  -1   10.25    1.17
 -20   6   1    8.75    1.05
  18  -6  -1   60.16    2.50
 -18  -6   1   60.01    2.76
  18  -6  -1   62.17    2.65
  18   6  -1   60.21    2.85
 -18   6   1   58.86    2.71
  16  -6  -1    0.76    0.29
 -16  -6   1    0.45    0.13
 -16  -6   1    0.98    0.17
  16  -6  -1    0.71    0.16
 -16   6   1    0.62    0.27
  16   6  -1    0.87    0.28
 -14  -6   1   36.87    1.66
 -14  -6   1   34.61    1.94
  14  -6  -1   35.43    1.79
  14  -6  -1   35.27    1.72
 -14   6   1   35.76    2.02
  14   6  -1   36.25    2.10
 -12  -6   1   15.52    1.00
  12  -6  -1   14.71    1.11
 -12  -6   1   13.07    1.13
  12  -6  -1   16.00    1.01
 -12   6   1   16.33    1.31
  12   6  -1   14.46    1.26
  10  -6  -1   92.37    3.00
 -10  -6   1   91.02    3.22
 -10  -6   1   97.31    2.88
 -10   6   1   94.14    3.42
  10   6  -1   89.87    3.39
  -8  -6   1   26.77    1.55
   8  -6  -1   23.90    1.38
  -8  -6   1   24.52    1.30
  -8   6   1   25.19    1.66
   8   6  -1   24.07    1.60
  -6  -6   1   49.92    2.18
  -6  -6   1   51.34    1.96
   6  -6  -1   49.60    1.78
   6  -6  -1   48.91    2.02
   6   6  -1   51.55    2.41
  -6   6   1   51.66    2.48
  -4  -6   1  124.69    3.68
   4  -6  -1  124.42    3.34
   4  -6  -1  124.28    3.47
  -4  -6   1  124.34    3.39
  -4   6   1  123.57    4.11
   4   6  -1  130.05    4.12
  -2  -6   1  112.38    3.34
  -2  -6   1  106.28    3.09
   2  -6  -1  112.50    3.16
   2  -6  -1  107.14    3.14
  -2   6   1  106.49    3.77
   2   6  -1  107.42    3.72
   0  -6   1   49.54    2.01
   0  -6  -1   46.58    1.87
   0  -6   1   48.59    1.94
   0  -6  -1   52.07    2.00
   0   6   1   50.50    2.46
   0   6  -1   48.21    2.37
   2  -6   1   15.84    1.06
  -2  -6  -1   14.72    0.99
   2  -6   1   15.23    0.99
  -2  -6  -1   16.85    1.09
  -2   6  -1   16.18    1.34
   2   6   1   15.63    1.31
  -4  -6  -1   30.03    1.56
   4  -6   1   29.06    1.49
  -4  -6  -1   31.17    1.46
  -4   6  -1   29.84    1.84
   4   6   1   30.33    1.82
   6  -6   1   16.06    1.12
  -6  -6  -1   18.84    1.09
  -6  -6  -1   18.44    1.24
   6   6   1   18.19    1.41
  -6   6  -1   18.28    1.40
  -6   6  -1   19.37    1.09
  -8  -6  -1   53.53    1.95
  -8  -6  -1   54.39    2.32
   8  -6   1   54.40    2.18
  -8   6  -1   53.62    2.50
   8   6   1   54.89    2.54
 -10  -6  -1    9.01    0.96
 -10  -6  -1    8.02    0.66
  10  -6   1    7.71    0.83
 -10   6  -1    9.93    1.08
  10   6   1    7.64    0.99
  12  -6   1   71.07    2.63
  12  -6   1   75.47    2.48
 -12  -6  -1   71.92    2.35
 -12  -6  -1   73.67    2.88
 -12   6  -1   71.61    2.94
  12   6   1   69.55    3.04
 -14  -6  -1   14.96    1.24
  14  -6   1   14.35    1.10
 -14  -6  -1   16.18    0.96
  14  -6   1   15.03    1.03
  14   6   1   14.67    1.32
 -14   6  -1   13.83    1.22
  16  -6   1   57.28    2.39
  16  -6   1   61.34    2.46
 -16  -6  -1   56.13    2.63
  16   6   1   56.22    2.78
 -16   6  -1   62.13    2.77
  18  -6   1    6.40    0.75
  18  -6   1    6.59    0.78
 -18  -6  -1    5.84    0.86
  18   6   1    6.07    0.92
 -18   6  -1    5.42    0.83
 -20  -6  -1   30.69    1.95
  20  -6   1   31.07    1.70
  20  -6   1   32.75    1.89
  20   6   1   30.03    2.02
 -20   6  -1   28.94    1.88
 -22  -6  -1    1.16    0.33
  22  -6   1    0.74    0.19
  22   6   1    1.06    0.31
 -22   6  -1    0.89    0.26
  24  -6   1   32.12    1.75
 -24  -6  -1   32.53    2.11
  24  -6   1   37.56    2.22
 -24   6  -1   32.95    2.10
  24   6   1   33.97    2.22
  21  -7  -1   27.10    1.65
 -21  -7   1   30.07    2.04
 -21   7   1   31.09    2.10
  21   7  -1   28.82    2.00
  19  -7  -1   11.38    1.02
 -19  -7   1   11.45    1.25
  19   7  -1   11.60    1.13
 -19   7   1   12.66    1.27
  17  -7  -1   60.06    2.64
 -17  -7   1   62.43    2.94
 -17   7   1   62.87    3.02
  17   7  -1   63.57    3.11
 -15  -7   1    9.71    0.81
 -15  -7   1    9.74    1.11
  15  -7  -1    8.64    0.98
  15   7  -1    9.36    1.15
 -15   7   1    8.56    1.12
  13  -7  -1   10.23    1.05
 -13  -7   1    8.85    1.04
 -13  -7   1    9.75    0.82
 -13   7   1   11.08    1.24
  13   7  -1   11.04    1.21
 -11  -7   1   14.02    1.00
  11  -7  -1   13.82    1.13
 -11  -7   1   14.23    1.21
 -11   7   1   13.20    1.28
  11   7  -1   13.31    1.25
  -9  -7   1   83.47    2.81
   9  -7  -1   86.51    3.06
  -9  -7   1   81.94    3.16
  -9   7   1   85.01    3.54
   9   7  -1   81.07    3.36
  -7  -7   1    1.65    0.43
   7  -7  -1    1.87    0.45
  -7  -7   1    1.54    0.37
  -7   7   1    1.61    0.52
   7   7  -1    1.74    0.54
  -5  -7   1   36.78    1.91
   5  -7  -1   40.17    1.92
  -5  -7   1   39.02    1.81
   5   7  -1   36.79    2.15
  -5   7   1   35.51    2.22
  -3  -7   1    0.23    0.09
   3  -7  -1    0.22    0.19
   3  -7  -1   -0.05    0.07
  -3  -7   1    0.07    0.12
  -3   7   1    0.26    0.22
   3   7  -1    0.68    0.36
  -1  -7   1  102.91    3.24
  -1  -7   1  107.68    3.44
   1  -7  -1  106.52    3.29
   1  -7  -1  104.69    3.25
   1   7  -1  106.43    3.94
  -1   7   1  109.36    4.03
   1  -7   1    0.38    0.21
  -1  -7  -1    0.47    0.18
   1  -7   1    0.18    0.07
  -1  -7  -1    0.44    0.09
  -1   7  -1    0.56    0.31
   1   7   1    0.21    0.21
  -3  -7  -1   27.81    1.57
   3  -7   1   30.07    1.62
   3  -7   1   29.25    1.52
  -3  -7  -1   28.76    1.52
   3   7   1   27.43    1.85
  -3   7  -1   26.64    1.88
  -5  -7  -1    0.40    0.16
  -5  -7  -1    0.74    0.20
   5  -7   1    0.52    0.18
   5   7   1    0.60    0.33
  -5   7  -1    0.47    0.29
  -7  -7  -1   54.44    2.41
  -7  -7  -1   57.71    2.18
   7  -7   1   49.69    2.22
  -7   7  -1   51.84    2.69
   7   7   1   51.44    2.61
  -9  -7  -1    5.19    0.61
  -9  -7  -1    4.86    0.72
   9  -7   1    5.64    0.76
  -9   7  -1    5.51    0.89
   9   7   1    5.60    0.91
 -11  -7  -1   68.61    2.42
 -11  -7  -1   65.37    2.81
  11  -7   1   65.63    2.67
  11   7   1   65.81    3.04
 -11   7  -1   67.95    3.12
 -13  -7  -1    2.95    0.63
 -13  -7  -1    3.13    0.44
  13  -7   1    2.08    0.48
  13   7   1    2.75    0.66
 -13   7  -1    2.75    0.67
  15  -7   1   83.05    3.12
 -15  -7  -1   80.32    3.30
  15   7   1   78.21    3.54
 -15   7  -1   77.60    3.44
 -17  -7  -1    5.89    0.88
  17  -7   1    6.80    0.84
  17   7   1    6.60    1.04
 -17   7  -1    6.68    0.99
 -19  -7  -1   62.96    3.02
  19  -7   1   62.33    2.70
 -19   7  -1   62.49    3.11
  19   7   1   63.16    3.22
  21  -7   1    7.22    0.66
 -21  -7  -1    5.29    0.86
  21   7   1    5.86    0.90
 -21   7  -1    6.39    0.98
  16  -8  -1    2.22    0.47
 -16  -8   1    1.57    0.43
 -16   8   1    2.64    0.63
  16   8  -1    3.15    0.53
  14  -8  -1   44.38    2.33
 -14  -8   1   45.20    2.10
 -14  -8   1   45.09    2.47
  14   8  -1   45.63    2.62
 -14   8   1   48.22    2.78
 -12  -8   1    8.29    1.02
  12  -8  -1    6.88    0.91
 -12  -8   1    6.77    0.65
  12   8  -1    8.16    1.08
 -12   8   1    9.11    1.23
 -10  -8   1   19.09    1.48
 -10  -8   1   22.62    1.38
  10  -8  -1   20.86    1.51
 -10   8   1   22.70    1.84
  10   8  -1   23.65    1.76
  -8  -8   1   21.59    1.36
   8  -8  -1   22.05    1.52
  -8  -8   1   21.64    1.53
  -8   8   1   23.08    1.85
   8   8  -1   21.44    1.70
   6  -8  -1   70.48    2.81
  -6  -8   1   65.12    2.58
  -6  -8   1   68.15    2.88
   6   8  -1   69.12    3.18
  -6   8   1   68.77    3.38
  -4  -8   1   45.38    2.11
   4  -8  -1   43.76    2.12
  -4  -8   1   44.88    2.22
  -4   8   1   44.43    2.64
   4   8  -1   43.89    2.53
   2  -8  -1   33.84    1.84
  -2  -8   1   34.14    1.87
  -2  -8   1   35.76    1.85
  -2   8   1   37.68    2.35
   2   8  -1   37.27    2.30
   0  -8   1   34.79    1.85
   0  -8  -1   35.84    1.85
   0  -8   1   35.52    1.87
   0  -8  -1   35.11    1.81
   0   8   1   34.02    2.25
   0   8  -1   35.96    2.28
  -2  -8  -1   32.03    1.71
  -2  -8  -1   32.67    1.78
   2  -8   1   31.72    1.79
   2   8   1   32.21    2.13
  -2   8  -1   32.76    2.20
   4  -8   1   24.99    1.59
  -4  -8  -1   26.72    1.53
  -4  -8  -1   27.14    1.64
  -4   8  -1   24.70    1.93
   4   8   1   26.25    1.90
   6  -8   1    7.70    0.93
  -6  -8  -1    7.38    0.86
  -6  -8  -1    7.39    0.79
   6   8   1    6.89    1.02
  -6   8  -1    6.93    1.06
  -8  -8  -1   20.73    1.28
   8  -8   1   22.12    1.51
  -8  -8  -1   19.62    1.43
   8   8   1   21.91    1.73
  -8   8  -1   19.54    1.70
  10  -8   1   10.26    1.08
 -10  -8  -1   10.90    1.04
 -10  -8  -1    9.29    0.82
 -10   8  -1   11.17    1.35
  10   8   1    8.91    1.17
 -12  -8  -1   35.67    2.10
  12  -8   1   32.53    1.92
 -12   8  -1   34.14    2.29
  12   8   1   34.05    2.26
 -14  -8  -1    4.98    0.80
  14  -8   1    5.00    0.78
 -14   8  -1    5.66    0.97
  14   8   1    5.71    0.94
 -16  -8  -1   46.57    2.56
  16  -8   1   45.45    2.34
  16   8   1   47.76    2.76
 -16   8  -1   43.11    2.66
   9  -9  -1   20.30    1.50
  -9  -9   1   20.81    1.39
  -9  -9   1   19.47    1.50
  -9   9   1   23.79    1.97
   9   9  -1   20.83    1.64
   7  -9  -1    2.91    0.58
  -7  -9   1    1.69    0.40
  -7  -9   1    2.52    0.44
  -7   9   1    2.53    0.61
   7   9  -1    2.62    0.56
   5  -9  -1   52.81    2.54
  -5  -9   1   49.44    2.49
  -5  -9   1   54.15    2.42
  -5   9   1   57.48    3.19
   5   9  -1   58.23    3.02
   3  -9  -1    0.60    0.16
  -3  -9   1    0.80    0.19
  -3   9   1    1.68    0.44
   3   9  -1    0.73    0.23
  -1  -9   1   36.25    2.00
   1  -9  -1   39.25    2.08
   1   9  -1   37.27    2.42
  -1   9   1   34.40    2.37
   1  -9   1    0.52    0.15
  -1  -9  -1    0.59    0.15
   1   9   1    0.49    0.16
  -1   9  -1    0.58    0.20
  -3  -9  -1   15.37    1.23
   3  -9   1   18.31    1.39
  -3  -9  -1   18.44    1.31
  -3   9  -1   16.82    1.59
   3   9   1   17.25    1.58
   5  -9   1    2.73    0.57
  -5  -9  -1    2.28    0.40
  -5   9  -1    3.17    0.70
   5   9   1    2.41    0.58
  -7  -9  -1   35.30    1.83
   7  -9   1   31.58    1.94
  -7  -9  -1   32.74    1.97
   7   9   1   29.57    2.11
  -7   9  -1   35.53    2.43
  -9  -9  -1    1.20    0.20
   9  -9   1    1.32    0.28
  -9   9  -1    0.77    0.11
   9   9   1    1.12    0.16
 -32   0   2   14.97    1.20
  32   0  -2   16.23    1.48
  30   0  -2   33.41    2.21
 -30   0   2   33.76    1.88
 -28   0   2   16.23    1.20
  28   0  -2   14.44    1.35
  26   0  -2   33.20    2.06
 -26   0   2   33.94    1.71
  24   0  -2   30.09    1.86
 -24   0   2   28.23    1.47
  22   0  -2   35.95    1.35
 -22   0   2   35.60    1.61
 -20   0   2   78.25    2.92
 -20   0   2   80.37    2.19
 -20   0   2   77.93    2.41
  20   0  -2   78.78    2.13
 -18   0   2   63.58    1.83
 -18   0   2   62.77    2.02
  18   0  -2   63.86    1.81
 -18   0   2   68.93    2.55
 -16   0   2   32.16    1.59
 -16   0   2   31.37    1.25
 -16   0   2   30.57    1.10
  16   0  -2   31.97    1.13
  14   0  -2  256.48    4.74
 -14   0   2  247.57    4.96
 -14   0   2  260.53    4.89
 -14   0   2  266.57    5.84
 -12   0   2    4.21    0.36
 -12   0   2    4.14    0.50
 -12   0   2    4.39    0.32
  12   0  -2    3.92    0.33
 -10   0   2  241.52    5.10
  10   0  -2  246.01    4.29
 -10   0   2  241.13    4.37
 -10   0   2  226.27    4.37
  -8   0   2    2.68    0.26
  -8   0   2    3.69    0.27
  -8   0   2    2.86    0.37
  -6   0   2  853.13   14.66
  -6   0   2  900.35   15.24
  -6   0   2 1000.00   16.07
  -6   0   2  918.86   15.42
  -4   0   2    0.02    0.06
  -4   0   2    0.11    0.09
   4   0  -2    0.00    0.07
  -4   0   2    0.10    0.13
  -2   0   2  149.56    2.72
  -2   0   2  142.93    3.03
   2   0  -2  152.32    2.64
   0   0   2    0.35    0.08
   0   0  -2    0.25    0.06
   0   0  -2    0.13    0.09
   0   0   2    0.09    0.13
  -2   0  -2  324.42    5.24
  -2   0  -2  324.74    5.33
   2   0   2  319.79    5.66
   2   0   2  291.16    5.40
  -4   0  -2   10.92    0.43
   4   0   2   11.50    0.29
  -4   0  -2   10.74    0.41
   4   0   2   10.93    0.51
  -6   0  -2    6.10    0.34
   6   0   2    5.62    0.41
  -6   0  -2    6.28    0.37
   6   0   2    6.82    0.23
   8   0   2   18.21    0.49
  -8   0  -2   16.99    0.70
   8   0   2   17.41    0.81
  -8   0  -2   17.67    0.66
 -10   0  -2  102.29    2.35
  10   0   2  100.55    2.60
  10   0   2  105.86    1.93
 -10   0  -2   99.64    2.23
 -12   0  -2   46.07    1.48
  12   0   2   49.47    1.13
 -12   0  -2   47.63    1.39
  12   0   2   47.45    1.70
  14   0   2   32.95    0.91
  14   0   2   32.68    1.46
 -14   0  -2   31.92    1.15
 -14   0  -2   30.42    1.23
 -16   0  -2   27.47    1.11
  16   0   2   28.43    1.44
 -16   0  -2   28.53    1.26
  16   0   2   29.11    0.89
  18   0   2  216.22    5.37
 -18   0  -2  209.52    4.78
 -18   0  -2  223.99    4.66
  18   0   2  220.94    4.06
  20   0   2   73.53    2.78
 -20   0  -2   78.07    2.29
 -20   0  -2   73.11    2.44
  22   0   2   16.59    1.29
 -22   0  -2   16.53    1.11
 -22   0  -2   18.12    0.99
 -24   0  -2   23.16    1.39
  24   0   2   25.62    1.70
 -26   0  -2   55.47    2.38
  26   0   2   58.90    2.79
 -28   0  -2   23.49    1.54
  28   0   2   23.54    1.77
  30   0   2   17.59    1.53
 -30   0  -2   16.23    1.30
 -31  -1   2   47.06    2.26
  31  -1  -2   45.47    2.77
 -31   1   2   46.71    2.28
  31   1  -2   46.02    2.49
 -29  -1   2    4.00    0.61
  29  -1  -2    3.75    0.81
  29   1  -2    5.01    0.77
 -29   1   2    4.75    0.69
  27  -1  -2   54.45    2.84
 -27  -1   2   50.17    2.20
 -27   1   2   50.21    2.22
  27   1  -2   52.37    2.57
  25  -1  -2    6.46    0.95
 -25  -1   2    6.83    0.75
  25   1  -2    6.85    0.88
 -25   1   2    7.49    0.74
  23  -1  -2   71.90    2.17
 -23  -1   2   71.34    2.35
 -23  -1   2   67.61    2.40
  23   1  -2   72.33    2.82
 -23   1   2   68.04    2.43
  21  -1  -2    0.73    0.16
 -21  -1   2    1.07    0.19
 -21  -1   2    0.62    0.25
  21   1  -2    0.27    0.19
 -21   1   2    0.62    0.23
 -21   1   2    0.87    0.32
  19  -1  -2  103.78    2.63
 -19  -1   2  104.29    2.85
 -19  -1   2  103.20    2.88
 -19  -1   2  108.99    3.34
  19   1  -2  106.64    2.54
 -19   1   2  104.96    2.90
 -19   1   2  105.49    3.54
  17  -1  -2    0.76    0.15
 -17  -1   2    0.65    0.20
 -17  -1   2    0.69    0.21
 -17  -1   2    1.02    0.23
 -17   1   2    0.79    0.08
  17   1  -2    1.27    0.23
 -17   1   2    1.02    0.32
 -17   1   2    0.61    0.20
 -15  -1   2   95.57    2.79
 -15  -1   2   90.49    2.47
 -15  -1   2   93.28    2.45
  15  -1  -2   92.27    2.25
 -15  -1   2   93.49    2.19
 -15   1   2   92.64    1.94
 -15   1   2   91.36    2.42
 -15   1   2   91.76    2.99
 -13  -1   2    9.33    0.69
 -13  -1   2    9.20    0.59
  13  -1  -2   10.75    0.59
 -13  -1   2    9.43    0.52
 -13  -1   2    9.56    0.62
 -13   1   2    9.39    0.78
 -13   1   2    9.75    0.38
 -13   1   2    9.15    0.59
 -11  -1   2  190.04    4.05
  11  -1  -2  200.01    3.77
 -11  -1   2  194.96    3.69
 -11  -1   2  198.82    4.33
 -11  -1   2  198.07    3.93
 -11   1   2  199.63    3.94
 -11   1   2  202.61    3.47
  -9  -1   2   48.60    1.46
  -9  -1   2   51.53    1.57
   9  -1  -2   52.63    1.35
  -9  -1   2   52.68    1.32
  -9  -1   2   52.26    1.39
  -9   1   2   51.55    1.74
  -9   1   2   51.24    1.40
   7  -1  -2  161.69    2.86
  -7  -1   2  156.86    2.90
   7  -1  -2  154.42    2.93
  -7  -1   2  154.57    3.17
  -7  -1   2  153.87    3.25
  -7  -1   2  154.16    2.98
  -7   1   2  154.59    3.01
  -7   1   2  154.11    3.52
   5  -1  -2   76.95    1.67
  -5  -1   2   77.88    1.66
   5  -1  -2   83.66    1.52
  -5  -1   2   82.99    1.87
  -5  -1   2   78.94    1.66
  -5  -1   2   80.45    1.84
  -5   1   2   81.61    2.08
  -5   1   2   79.87    1.71
  -3  -1   2   81.62    1.65
   3  -1  -2   85.55    1.53
  -3  -1   2   81.32    1.81
   3  -1  -2   81.51    1.64
  -3   1   2   81.64    2.00
  -3   1   2   83.79    1.72
   3   1  -2   82.66    1.69
  -1  -1   2   83.32    1.76
  -1  -1   2   83.32    1.64
   1  -1  -2   86.46    1.61
   1  -1  -2   88.18    1.63
   1   1  -2   85.50    1.75
  -1   1   2   85.16    1.83
  -1   1   2   81.33    1.99
   1   1  -2   81.39    1.73
   1  -1   2   65.56    1.44
  -1  -1  -2   66.57    1.27
   1  -1   2   67.74    1.38
  -1  -1  -2   66.77    1.40
   1   1   2   66.83    1.51
   1   1   2   66.66    1.54
  -1   1  -2   67.35    1.41
  -1   1  -2   67.03    1.38
  -3  -1  -2   59.16    1.14
   3  -1   2   59.78    1.43
  -3  -1  -2   57.54    1.37
   3  -1   2   59.58    1.29
  -3  -1  -2   60.73    1.38
  -3   1  -2   61.45    1.28
   3   1   2   61.48    1.41
  -3   1  -2   60.39    1.34
   5  -1   2   75.70    1.86
  -5  -1  -2   77.34    1.37
   5  -1   2   79.23    1.60
  -5  -1  -2   73.29    1.73
  -5   1  -2   75.94    1.70
   5   1   2   78.09    1.79
  -5   1  -2   75.89    1.55
   7  -1   2  299.28    5.05
   7  -1   2  288.22    5.77
  -7  -1  -2  299.62    4.86
  -7  -1  -2  299.23    5.44
  -7  -1  -2  301.07    5.41
  -7   1  -2  314.24    5.38
   7   1   2  290.99    5.64
   7   1   2  300.80    5.10
  -7   1  -2  294.42    5.12
   9  -1   2  155.58    2.90
  -9  -1  -2  158.49    3.27
   9  -1   2  150.98    3.54
  -9  -1  -2  156.48    2.64
  -9  -1  -2  152.13    3.24
  -9   1  -2  153.02    2.92
  -9   1  -2  155.24    3.22
   9   1   2  154.76    3.41
   9   1   2  159.26    2.88
  11  -1   2  129.26    3.28
 -11  -1  -2  131.31    2.94
 -11  -1  -2  133.25    2.99
  11  -1   2  131.74    2.59
  11   1   2  130.37    2.30
 -11   1  -2  128.05    2.59
  11   1   2  126.44    3.09
 -11   1  -2  127.22    2.91
  13  -1   2   60.44    1.50
 -13  -1  -2   57.16    1.80
  13  -1   2   54.95    2.02
 -13  -1  -2   58.40    1.78
  13   1   2   58.21    1.25
 -13   1  -2   58.59    1.49
 -13   1  -2   58.02    1.78
  13   1   2   59.41    1.94
  15  -1   2  193.69    3.72
  15  -1   2  191.54    4.77
 -15  -1  -2  193.22    4.27
 -15  -1  -2  195.49    4.24
  15   1   2  192.32    4.56
  15   1   2  192.18    3.41
 -15   1  -2  190.93    4.22
 -15   1  -2  191.22    3.81
 -17  -1  -2   28.06    1.27
 -17  -1  -2   27.28    1.30
  17  -1   2   30.48    1.59
  17  -1   2   29.53    1.03
 -17   1  -2   28.68    1.05
  17   1   2   27.07    1.41
  17   1   2   27.84    0.83
 -17   1  -2   28.79    1.32
 -19  -1  -2   83.65    2.55
  19  -1   2   76.90    2.91
 -19  -1  -2   76.50    2.50
  19  -1   2   82.12    2.07
  19   1   2   81.19    2.78
 -19   1  -2   81.02    2.15
 -19   1  -2   79.21    2.54
 -21  -1  -2    4.39    0.60
 -21  -1  -2    4.43    0.53
  21  -1   2    2.80    0.60
 -21   1  -2    3.23    0.53
  21   1   2    3.69    0.62
 -23  -1  -2  102.37    3.18
  23  -1   2  101.04    3.72
 -23  -1  -2  104.46    3.17
 -23   1  -2  102.16    3.23
  23   1   2   99.23    3.48
  25  -1   2    0.48    0.17
 -25  -1  -2    0.64    0.23
  25   1   2    0.25    0.16
 -25   1  -2    0.40    0.19
  27  -1   2   51.15    2.72
 -27  -1  -2   49.70    2.27
 -27   1  -2   48.91    2.28
  27   1   2   45.92    2.40
 -29  -1  -2    0.43    0.22
  29  -1   2    0.03    0.14
  29   1   2    0.17    0.07
 -29   1  -2    0.52    0.19
 -31  -1  -2   54.25    2.58
  31  -1   2   52.71    3.03
  31   1   2   59.64    2.94
 -31   1  -2   53.82    2.60
 -30  -2   2   27.28    1.67
  30  -2  -2   27.53    2.14
 -30   2   2   31.01    1.83
  30   2  -2   29.72    1.84
 -28  -2   2   19.54    1.34
  28  -2  -2   17.37    1.64
  28   2  -2   18.58    1.35
 -28   2   2   19.85    1.38
 -26  -2   2   35.91    1.75
  26  -2  -2   34.62    2.23
 -26  -2   2   32.75    1.72
 -26   2   2   34.26    1.81
  26   2  -2   34.24    1.90
  24  -2  -2   20.73    1.11
  24  -2  -2   19.67    1.60
 -24  -2   2   22.05    1.30
 -24  -2   2   19.76    1.25
 -24   2   2   20.24    1.29
  24   2  -2   20.35    1.37
  22  -2  -2   51.28    1.87
 -22  -2   2   53.07    2.07
 -22  -2   2   53.59    2.11
  22   2  -2   53.19    2.22
 -22   2   2   51.50    2.60
 -22   2   2   52.25    2.11
 -20  -2   2   42.55    1.75
  20  -2  -2   43.11    1.61
 -20  -2   2   43.11    1.80
 -20  -2   2   41.90    1.45
  20   2  -2   41.08    0.95
  20   2  -2   43.52    1.86
 -20   2   2   39.17    2.12
 -20   2   2   42.01    1.77
 -18  -2   2   11.07    0.84
  18  -2  -2   11.97    0.75
 -18  -2   2   11.39    0.82
 -18  -2   2   12.51    0.69
 -18   2   2   11.18    1.03
  18   2  -2   12.13    0.87
 -18   2   2   10.68    0.80
  16  -2  -2   10.28    0.69
 -16  -2   2   11.65    0.65
 -16  -2   2   10.72    0.76
 -16  -2   2   11.52    0.82
 -16   2   2   12.78    1.03
 -16   2   2   10.37    0.75
 -14  -2   2  167.84    3.90
  14  -2  -2  170.90    3.62
 -14  -2   2  157.16    3.92
 -14  -2   2  162.80    3.43
 -14  -2   2  169.82    3.81
 -14   2   2  175.55    3.84
 -14   2   2  170.65    4.49
 -12  -2   2   36.98    1.35
 -12  -2   2   37.59    1.18
  12  -2  -2   36.35    1.27
 -12  -2   2   35.22    1.44
 -12  -2   2   37.15    1.33
 -12   2   2   37.25    1.65
 -12   2   2   37.82    1.37
 -10  -2   2  421.29    8.11
  10  -2  -2  435.59    7.60
 -10  -2   2  452.18    8.11
 -10  -2   2  426.65    7.42
 -10  -2   2  438.35    7.85
 -10   2   2  452.43    7.89
 -10   2   2  438.42    8.69
  -8  -2   2    5.17    0.35
   8  -2  -2    5.23    0.41
  -8  -2   2    5.07    0.46
  -8  -2   2    4.88    0.35
  -8   2   2    5.59    0.44
   8   2  -2    5.04    0.41
  -8   2   2    5.67    0.50
  -6  -2   2  475.17    8.10
   6  -2  -2  447.99    7.74
   6  -2  -2  452.28    7.72
  -6  -2   2  454.65    7.64
  -6  -2   2  455.35    8.24
  -6   2   2  436.79    8.55
   6   2  -2  469.19    8.02
  -6   2   2  470.13    8.01
   4  -2  -2    5.36    0.37
  -4  -2   2    5.45    0.36
   4  -2  -2    6.01    0.28
  -4  -2   2    6.13    0.27
  -4  -2   2    5.33    0.43
  -4   2   2    5.37    0.42
  -4   2   2    5.85    0.44
   4   2  -2    6.03    0.46
   2  -2  -2  263.99    4.58
  -2  -2   2  250.54    4.58
  -2  -2   2  258.59    4.83
  -2  -2   2  249.82    4.83
   2   2  -2  257.82    4.99
  -2   2   2  273.02    5.02
  -2   2   2  260.43    5.03
   0  -2   2    1.71    0.24
   0  -2   2    1.98    0.14
   0  -2   2    1.49    0.22
   0  -2  -2    1.82    0.22
   0  -2  -2    1.85    0.22
   0   2   2    1.49    0.29
   0   2  -2    1.89    0.29
   0   2   2    2.00    0.25
   2  -2   2    4.63    0.28
   2  -2   2    4.28    0.34
  -2  -2  -2    3.87    0.27
  -2  -2  -2    3.77    0.32
  -2   2  -2    4.55    0.37
   2   2   2    3.79    0.39
   2   2   2    4.89    0.32
  -2   2  -2    4.45    0.32
  -4  -2  -2    6.82    0.35
   4  -2   2    7.12    0.42
   4  -2   2    6.36    0.42
  -4  -2  -2    6.94    0.46
  -4   2  -2    6.84    0.37
   4   2   2    6.89    0.37
  -4   2  -2    6.88    0.45
   4   2   2    6.38    0.48
  -6  -2  -2  174.28    3.11
   6  -2   2  167.33    3.65
  -6  -2  -2  168.01    3.58
   6  -2   2  171.46    3.36
  -6   2  -2  174.27    3.53
  -6   2  -2  180.37    3.24
   6   2   2  174.96    3.64
   6   2   2  177.88    3.49
  -8  -2  -2   36.96    0.91
   8  -2   2   33.72    1.29
  -8  -2  -2   33.94    1.25
   8  -2   2   36.31    1.13
  -8   2  -2   34.76    0.92
   8   2   2   36.53    1.16
 -10  -2  -2   39.72    1.46
  10  -2   2   44.92    1.32
 -10  -2  -2   42.89    1.51
  10  -2   2   40.16    1.57
 -10  -2  -2   45.16    1.06
 -10   2  -2   43.28    1.07
  10   2   2   44.88    1.41
 -10   2  -2   43.55    1.46
 -12  -2  -2   16.57    0.56
  12  -2   2   16.92    0.77
 -12  -2  -2   16.71    0.93
 -12  -2  -2   15.18    0.88
  12  -2   2   14.73    0.95
  12   2   2   16.78    0.86
 -12   2  -2   15.23    0.57
 -12   2  -2   15.12    0.86
  14  -2   2  250.48    5.92
 -14  -2  -2  260.80    5.46
  14  -2   2  268.36    4.99
 -14  -2  -2  261.85    5.53
 -14  -2  -2  252.53    4.47
  14   2   2  254.71    5.50
  14   2   2  256.71    4.72
 -14   2  -2  267.90    4.72
 -14   2  -2  270.73    5.46
 -16  -2  -2   22.37    1.19
  16  -2   2   23.95    1.41
 -16  -2  -2   23.02    1.23
  16  -2   2   23.88    1.01
 -16  -2  -2   23.64    0.74
 -16   2  -2   23.32    1.20
  16   2   2   23.94    1.19
 -16   2  -2   22.80    0.80
 -18  -2  -2    3.46    0.52
  18  -2   2    3.43    0.63
  18  -2   2    4.27    0.37
 -18  -2  -2    4.61    0.59
 -18   2  -2    3.88    0.56
  18   2   2    4.28    0.54
 -20  -2  -2   25.54    1.40
  20  -2   2   27.99    1.73
  20  -2   2   28.37    1.17
 -20  -2  -2   26.72    1.44
  20   2   2   28.89    1.48
 -20   2  -2   30.48    1.54
 -22  -2  -2   67.54    2.53
 -22  -2  -2   63.52    2.42
  22  -2   2   64.73    2.87
 -22   2  -2   66.10    2.49
  22   2   2   65.34    2.53
 -24  -2  -2   41.33    1.94
  24  -2   2   37.31    2.22
 -24  -2  -2   34.94    1.80
 -24   2  -2   37.95    1.91
  24   2   2   37.73    1.94
 -26  -2  -2   23.69    1.45
  26  -2   2   23.40    1.78
 -26  -2  -2   20.75    1.40
 -26   2  -2   21.41    1.45
  26   2   2   20.05    1.40
  28  -2   2    9.34    1.22
 -28  -2  -2   10.60    1.00
  28   2   2   11.53    1.00
 -28   2  -2   10.04    1.07
  30  -2   2   37.58    2.53
 -30  -2  -2   37.83    2.11
 -30   2  -2   39.90    2.21
  30   2   2   37.12    2.10
 -29  -3   2    2.40    0.46
  29  -3  -2    1.84    0.56
 -29   3   2    2.47    0.52
 -27  -3   2   42.50    2.14
 -27  -3   2   46.96    2.23
  27  -3  -2   39.83    2.55
 -27   3   2   45.59    2.20
  27   3  -2   45.88    2.14
 -25  -3   2    4.33    0.62
  25  -3  -2    3.22    0.72
  25  -3  -2    4.73    0.44
 -25  -3   2    4.63    0.65
 -25   3   2    5.36    0.73
  25   3  -2    5.35    0.53
  23  -3  -2   32.20    1.53
 -23  -3   2   32.18    1.74
 -23  -3   2   37.62    1.84
 -23   3   2   34.83    1.77
  23   3  -2   33.49    1.64
 -21  -3   2    1.07    0.29
 -21  -3   2    2.06    0.44
  21  -3  -2    1.22    0.31
 -21   3   2    0.98    0.32
  21   3  -2    1.40    0.28
 -21   3   2    1.33    0.46
 -19  -3   2   75.97    2.59
 -19  -3   2   74.60    2.66
  19  -3  -2   72.11    2.33
 -19  -3   2   73.94    2.15
  19   3  -2   75.99    2.44
 -19   3   2   72.33    2.52
 -19   3   2   71.95    2.95
 -17  -3   2    0.90    0.26
  17  -3  -2    0.40    0.13
 -17  -3   2    0.91    0.18
 -17  -3   2    0.46    0.19
 -17   3   2    0.53    0.26
 -17   3   2    0.33    0.22
  17   3  -2    0.51    0.09
  15  -3  -2   64.23    2.03
 -15  -3   2   63.40    1.85
 -15  -3   2   62.65    2.27
 -15   3   2   63.73    2.16
  15   3  -2   66.03    1.97
  15   3  -2   65.30    2.18
 -15   3   2   62.99    2.48
  13  -3  -2    4.88    0.52
 -13  -3   2    6.84    0.65
 -13  -3   2    4.45    0.39
 -13   3   2    4.34    0.60
 -13   3   2    4.70    0.55
  13   3  -2    4.52    0.53
  13   3  -2    4.58    0.37
 -11  -3   2   85.27    2.57
 -11  -3   2   84.05    2.14
  11  -3  -2   85.85    2.31
  11   3  -2   86.00    2.45
 -11   3   2   81.32    2.64
 -11   3   2   83.11    2.40
  11   3  -2   87.94    2.08
  -9  -3   2   26.27    1.25
   9  -3  -2   26.72    1.12
  -9  -3   2   26.72    1.04
   9   3  -2   28.53    0.87
   9   3  -2   27.33    1.22
  -9   3   2   28.30    1.22
  -9   3   2   27.79    1.29
  -7  -3   2  101.96    2.37
   7  -3  -2   95.23    1.98
   7  -3  -2  101.93    2.47
  -7  -3   2  107.04    2.78
   7   3  -2  100.37    2.02
  -7   3   2  101.13    2.68
   7   3  -2  100.01    2.68
  -7   3   2   99.45    2.63
  -5  -3   2   47.21    1.66
   5  -3  -2   51.03    1.52
   5  -3  -2   48.19    1.28
  -5  -3   2   48.90    1.47
   5   3  -2   51.00    1.79
  -5   3   2   50.77    1.72
   5   3  -2   51.74    1.03
  -5   3   2   51.26    1.60
   3  -3  -2   32.98    1.15
  -3  -3   2   33.52    1.17
  -3  -3   2   34.95    1.31
   3  -3  -2   33.54    1.07
  -3   3   2   34.62    1.17
   3   3  -2   37.24    1.47
  -3   3   2   30.87    1.35
  -1  -3   2   45.97    1.49
   1  -3  -2   43.52    1.32
  -1  -3   2   45.73    1.42
  -1  -3   2   45.21    0.99
   1  -3  -2   46.48    1.37
  -1   3   2   45.93    1.72
  -1   3   2   46.49    1.33
   1   3  -2   47.47    1.71
  -1  -3  -2   24.66    0.98
   1  -3   2   25.48    1.00
   1  -3   2   25.35    0.72
   1  -3   2   24.90    0.98
  -1  -3  -2   26.07    0.94
   1   3   2   25.05    0.87
   1   3   2   26.08    1.25
  -1   3  -2   25.44    1.16
  -3  -3  -2  123.00    2.64
  -3  -3  -2  124.16    2.90
   3  -3   2  125.14    2.82
   3  -3   2  124.97    2.63
   3   3   2  127.96    2.66
  -3   3  -2  124.21    2.75
  -3   3  -2  120.18    2.99
   5  -3   2   19.01    0.88
   5  -3   2   19.49    0.81
  -5  -3  -2   19.24    0.95
  -5  -3  -2   20.69    0.79
   5   3   2   19.96    1.05
   5   3   2   20.08    0.73
  -5   3  -2   19.36    0.95
  -5   3  -2   18.61    0.76
   7  -3   2   69.04    1.91
  -7  -3  -2   69.65    2.10
   7  -3   2   69.58    1.98
  -7  -3  -2   69.58    1.70
   7   3   2   67.67    2.14
  -7   3  -2   71.22    1.68
  -7   3  -2   67.48    2.02
   7   3   2   69.90    1.72
  -9  -3  -2  109.37    2.94
   9  -3   2  108.95    2.91
  -9  -3  -2  109.11    2.35
   9  -3   2  111.68    2.69
  -9   3  -2  110.74    2.29
   9   3   2  113.54    2.99
  -9   3  -2  112.77    2.87
   9   3   2  112.74    2.56
  11  -3   2  205.15    4.19
 -11  -3  -2  199.53    3.74
  11  -3   2  196.63    4.65
 -11  -3  -2  193.82    4.55
  11   3   2  200.74    4.18
 -11   3  -2  193.63    3.63
 -11   3  -2  197.28    4.40
  11   3   2  200.44    4.54
  13  -3   2   89.09    2.39
 -13  -3  -2   86.28    2.70
 -13  -3  -2   93.91    2.04
  13  -3   2   87.66    2.81
 -13   3  -2   87.99    1.86
 -13   3  -2   90.48    2.64
  13   3   2   87.10    2.37
 -15  -3  -2   28.94    0.94
 -15  -3  -2   29.18    1.48
  15  -3   2   27.16    1.19
  15  -3   2   26.07    1.48
 -15  -3  -2   27.43    1.43
  15   3   2   27.57    1.22
 -15   3  -2   28.12    1.39
 -17  -3  -2    3.42    0.55
  17  -3   2    4.26    0.70
 -17  -3  -2    3.72    0.58
  17  -3   2    4.39    0.41
 -17   3  -2    4.74    0.63
  17   3   2    4.42    0.45
 -19  -3  -2   90.19    3.04
  19  -3   2   84.29    3.23
 -19  -3  -2   87.28    2.95
  19  -3   2   91.56    2.58
  19   3   2   88.76    2.75
 -19   3  -2   86.70    2.88
  21  -3   2    0.69    0.26
 -21  -3  -2    1.46    0.36
 -21  -3  -2    0.48    0.20
 -21   3  -2    0.39    0.21
  21   3   2    0.55    0.14
  23  -3   2   16.12    1.40
 -23  -3  -2   16.95    1.25
 -23  -3  -2   18.13    1.28
  23   3   2   17.63    1.16
 -23   3  -2   16.01    1.21
 -25  -3  -2    1.37    0.32
  25  -3   2    1.46    0.47
 -25  -3  -2    1.19    0.32
 -25   3  -2    1.19    0.32
  25   3   2    1.18    0.20
  27  -3   2   63.87    3.30
 -27  -3  -2   65.72    2.84
 -27  -3  -2   75.04    3.00
 -27   3  -2   70.37    2.94
  27   3   2   68.47    2.77
 -29  -3  -2    0.96    0.20
  29  -3   2    0.84    0.23
 -29  -3  -2    0.52    0.11
 -29   3  -2    1.08    0.32
 -28  -4   2    1.51    0.33
  28  -4  -2    1.09    0.28
 -28   4   2    1.71    0.46
  28   4  -2    1.73    0.28
 -26  -4   2   22.44    1.54
  26  -4  -2   23.55    1.36
  26  -4  -2   25.69    1.95
 -26   4   2   25.04    1.62
  26   4  -2   23.13    1.55
  24  -4  -2   23.14    1.78
 -24  -4   2   23.69    1.55
  24  -4  -2   19.74    1.23
  24   4  -2   24.55    1.57
 -24   4   2   22.49    1.49
  22  -4  -2    8.80    0.77
 -22  -4   2    9.24    0.91
  22  -4  -2    9.93    1.15
 -22   4   2    8.68    0.93
  22   4  -2    9.72    0.92
 -20  -4   2    2.90    0.57
  20  -4  -2    2.37    0.44
 -20   4   2    2.42    0.58
  20   4  -2    2.84    0.55
 -20   4   2    3.01    0.55
 -18  -4   2   53.43    2.30
  18  -4  -2   53.37    2.04
 -18  -4   2   52.23    1.81
 -18   4   2   51.69    2.16
  18   4  -2   55.98    2.28
 -18   4   2   53.66    2.44
  16  -4  -2   41.40    1.72
 -16  -4   2   41.30    1.93
 -16  -4   2   40.94    1.53
 -16   4   2   39.49    1.98
  16   4  -2   41.24    1.89
 -16   4   2   40.10    1.82
  14  -4  -2   22.68    1.20
 -14  -4   2   22.69    1.07
 -14  -4   2   21.98    1.34
 -14   4   2   22.20    1.27
 -14   4   2   21.59    1.33
  14   4  -2   23.08    1.32
 -12  -4   2    6.72    0.54
  12  -4  -2    5.70    0.62
 -12  -4   2    6.84    0.75
  12   4  -2    6.45    0.70
 -12   4   2    7.10    0.68
 -12   4   2    6.22    0.62
 -10  -4   2  114.80    3.31
 -10  -4   2  116.37    2.87
  10  -4  -2  118.46    3.03
 -10   4   2  114.51    3.22
  10   4  -2  116.83    2.37
  10   4  -2  110.42    3.24
 -10   4   2  119.19    3.26
  -8  -4   2   16.41    0.87
  -8  -4   2   15.87    1.03
   8  -4  -2   15.94    0.92
   8  -4  -2   13.71    0.58
  -8   4   2   14.81    0.88
   8   4  -2   15.26    0.42
  -8   4   2   14.94    1.00
   8   4  -2   15.06    1.03
   6  -4  -2  107.27    2.47
  -6  -4   2  107.20    2.70
   6  -4  -2  108.47    2.76
  -6  -4   2  112.80    3.08
  -6   4   2  110.12    3.17
  -6   4   2  110.01    2.79
   6   4  -2  104.86    3.16
  -4  -4   2    8.53    0.71
   4  -4  -2   11.07    0.62
  -4  -4   2    8.72    0.63
   4  -4  -2    9.89    0.67
   4   4  -2    9.12    0.80
  -4   4   2    9.67    0.57
  -4   4   2    9.27    0.81
   2  -4  -2  107.81    2.65
  -2  -4   2  105.80    2.67
  -2  -4   2  107.17    2.89
   2  -4  -2  108.78    2.68
  -2   4   2  108.20    3.23
  -2   4   2  107.02    2.46
   2   4  -2  105.83    3.17
   0  -4   2    1.25    0.07
   0  -4   2    0.85    0.22
   0  -4   2    0.65    0.21
   0  -4  -2    0.48    0.17
   0  -4  -2    1.31    0.25
   0   4   2    1.27    0.12
   0   4   2    0.78    0.30
   0   4  -2    1.48    0.38
   2  -4   2   57.98    1.83
  -2  -4  -2   59.27    1.76
  -2  -4  -2   57.77    1.88
   2  -4   2   56.88    1.80
   2  -4   2   59.34    1.43
  -2   4  -2   58.21    2.13
   2   4   2   59.26    2.24
   2   4   2   58.42    1.46
   4  -4   2    5.38    0.51
   4  -4   2    5.61    0.38
  -4  -4  -2    5.06    0.54
  -4  -4  -2    5.81    0.46
  -4   4  -2    5.71    0.64
  -4   4  -2    5.29    0.45
   4   4   2    6.25    0.35
   4   4   2    4.83    0.64
   6  -4   2   31.78    1.17
  -6  -4  -2   31.89    1.18
  -6  -4  -2   29.94    1.39
   6  -4   2   29.94    1.30
  -6   4  -2   31.18    1.15
   6   4   2   33.05    1.01
  -6   4  -2   31.79    1.46
   6   4   2   31.34    1.57
  -8  -4  -2    0.33    0.16
   8  -4   2    0.13    0.12
   8  -4   2    0.43    0.13
  -8  -4  -2    0.51    0.10
   8   4   2    0.29    0.21
  -8   4  -2    0.34    0.06
  -8   4  -2    0.53    0.23
 -10  -4  -2   88.28    2.80
  10  -4   2   88.86    2.54
  10  -4   2   92.16    2.66
 -10  -4  -2   88.52    2.24
 -10   4  -2   91.30    2.09
  10   4   2   91.48    2.22
 -10   4  -2   89.21    2.73
  10   4   2   87.54    2.85
  12  -4   2   10.75    0.78
 -12  -4  -2   10.64    0.61
  12  -4   2   10.59    0.82
 -12  -4  -2    9.50    0.85
  12   4   2   10.83    0.59
 -12   4  -2    8.99    0.78
  12   4   2    9.33    0.85
 -14  -4  -2   19.73    1.27
  14  -4   2   21.14    1.28
 -14  -4  -2   20.09    0.88
  14  -4   2   20.67    1.12
  14   4   2   20.02    1.31
 -14   4  -2   19.21    1.21
  14   4   2   20.68    0.94
  16  -4   2   16.25    1.20
 -16  -4  -2   14.68    1.13
  16  -4   2   14.54    0.95
  16   4   2   15.26    1.15
  16   4   2   15.38    0.84
 -16   4  -2   11.92    0.97
  18  -4   2   47.42    1.86
  18  -4   2   45.11    2.20
 -18  -4  -2   46.81    2.17
 -18   4  -2   45.56    2.06
  18   4   2   43.99    2.10
  20  -4   2   11.99    1.12
 -20  -4  -2   12.56    1.10
  20  -4   2   13.30    0.90
  20   4   2   13.07    1.12
 -20   4  -2   12.02    1.03
  22  -4   2    9.35    1.11
 -22  -4  -2    7.61    0.92
  22  -4   2    9.22    0.70
 -22   4  -2    7.74    0.90
  22   4   2    8.40    0.99
 -24  -4  -2    9.30    0.94
  24  -4   2    9.03    1.13
  24   4   2    8.30    1.02
 -24   4  -2    8.15    0.96
 -26  -4  -2   11.46    1.06
  26  -4   2   12.70    1.41
 -26   4  -2   10.49    1.04
  26   4   2    9.39    1.10
  28  -4   2    7.98    1.14
 -28  -4  -2    9.28    0.93
  28   4   2    8.82    1.07
 -28   4  -2    7.12    0.95
 -27  -5   2    7.23    0.92
  27  -5  -2    6.96    0.56
  27  -5  -2    5.83    0.90
 -27   5   2    7.20    0.95
  27   5  -2    7.06    0.69
 -25  -5   2    1.66    0.32
  25  -5  -2    2.28    0.16
  25  -5  -2    1.50    0.44
 -25   5   2    1.60    0.39
  25   5  -2    2.69    0.23
  23  -5  -2   13.31    1.01
  23  -5  -2   12.32    1.19
 -23  -5   2   12.31    1.13
 -23   5   2   11.59    1.09
  23   5  -2   13.40    1.16
 -21  -5   2    0.96    0.26
  21  -5  -2    0.80    0.17
  21  -5  -2    1.18    0.34
  21   5  -2    0.77    0.18
 -21   5   2    0.52    0.19
 -19  -5   2   16.94    1.32
  19  -5  -2   14.63    1.09
 -19   5   2   15.70    1.23
  19   5  -2   16.22    1.28
 -17  -5   2    0.64    0.30
  17  -5  -2    0.66    0.23
 -17  -5   2    0.71    0.13
 -17   5   2    1.02    0.25
  17   5  -2    0.87    0.32
 -17   5   2    0.39    0.20
  15  -5  -2   34.36    1.65
 -15  -5   2   32.27    1.79
 -15  -5   2   32.72    1.46
 -15   5   2   34.69    1.80
  15   5  -2   33.27    1.81
 -15   5   2   34.35    1.74
 -13  -5   2    1.58    0.30
  13  -5  -2    0.99    0.33
 -13  -5   2    0.62    0.26
  13   5  -2    0.71    0.31
 -13   5   2    1.07    0.24
 -13   5   2    0.73    0.27
 -11  -5   2   30.80    1.37
  11  -5  -2   27.15    1.40
 -11  -5   2   30.30    1.64
  11   5  -2   27.86    1.62
 -11   5   2   30.73    1.47
 -11   5   2   29.42    1.62
   9  -5  -2    8.89    0.76
  -9  -5   2    8.62    0.82
  -9  -5   2    9.01    0.70
  -9   5   2    8.75    0.67
  -9   5   2    9.16    0.94
   9   5  -2    7.71    0.87
   7  -5  -2    9.55    0.78
   7  -5  -2   10.76    0.62
  -7  -5   2   10.51    0.89
  -7  -5   2    9.77    0.74
  -7   5   2    9.65    0.93
   7   5  -2   10.55    0.93
  -7   5   2   10.35    0.68
   5  -5  -2   12.17    0.72
  -5  -5   2   11.71    0.82
   5  -5  -2   11.87    0.84
  -5  -5   2   13.30    0.96
  -5   5   2   11.68    1.04
  -5   5   2   11.82    0.67
   5   5  -2   10.91    0.97
   3  -5  -2   12.45    0.76
   3  -5  -2   11.23    0.81
  -3  -5   2   12.61    0.92
  -3  -5   2   11.73    0.82
   3   5  -2   11.84    1.02
  -3   5   2   11.30    0.59
  -3   5   2   12.97    1.09
  -1  -5   2   30.75    1.47
   1  -5  -2   35.49    1.44
  -1  -5   2   31.81    1.42
   1  -5  -2   31.40    1.37
  -1   5   2   33.72    1.79
   1   5  -2   33.33    1.76
  -1   5   2   33.00    1.02
  -1  -5  -2    2.01    0.37
   1  -5   2    2.19    0.40
  -1  -5  -2    2.05    0.37
   1  -5   2    2.46    0.38
   1   5   2    1.94    0.50
  -1   5  -2    2.00    0.49
  -3  -5  -2   33.15    1.51
   3  -5   2   34.99    1.05
   3  -5   2   34.31    1.48
  -3  -5  -2   34.05    1.38
  -3   5  -2   34.35    1.78
   3   5   2   34.41    1.83
  -5  -5  -2   35.27    1.59
   5  -5   2   36.61    1.21
   5  -5   2   31.95    1.48
  -5  -5  -2   34.16    1.39
  -5   5  -2   36.85    1.48
   5   5   2   36.36    1.86
  -5   5  -2   32.71    1.73
  -7  -5  -2   25.44    1.14
   7  -5   2   23.62    1.27
   7  -5   2   26.07    1.09
  -7  -5  -2   22.74    1.33
  -7   5  -2   25.44    1.14
   7   5   2   24.07    1.53
  -7   5  -2   23.35    1.42
  -9  -5  -2   11.78    0.74
   9  -5   2   11.47    0.75
  -9  -5  -2   11.13    0.93
   9  -5   2   11.81    0.89
   9   5   2   10.81    1.02
  -9   5  -2   10.45    0.93
  -9   5  -2   11.58    0.66
  11  -5   2   25.07    1.27
 -11  -5  -2   24.54    1.11
  11  -5   2   24.93    1.34
 -11  -5  -2   23.88    1.44
  11   5   2   24.81    1.57
 -11   5  -2   24.45    1.46
 -13  -5  -2   15.32    1.17
  13  -5   2   15.28    1.05
  13  -5   2   16.13    1.06
 -13  -5  -2   16.56    0.87
 -13   5  -2   13.59    1.09
  13   5   2   14.78    1.22
  15  -5   2   19.92    1.27
  15  -5   2   16.41    1.11
 -15  -5  -2   16.26    1.25
 -15   5  -2   19.79    1.34
  15   5   2   17.81    1.35
 -17  -5  -2    1.50    0.44
  17  -5   2    1.64    0.35
  17  -5   2    1.57    0.38
 -17   5  -2    1.14    0.39
  17   5   2    0.97    0.41
  19  -5   2   10.07    0.84
 -19  -5  -2   10.49    1.11
  19  -5   2   10.02    0.98
  19   5   2   10.26    1.13
 -19   5  -2   10.14    0.98
  21  -5   2    3.36    0.48
  21  -5   2    4.35    0.70
 -21  -5  -2    2.82    0.60
 -21   5  -2    3.11    0.61
  21   5   2    2.74    0.61
  23  -5   2   11.20    1.13
  23  -5   2   12.61    0.90
 -23  -5  -2   12.29    1.18
 -23   5  -2   10.39    1.13
  23   5   2   10.66    1.19
 -25  -5  -2    0.60    0.11
  25  -5   2    1.11    0.24
  25   5   2    0.64    0.21
 -25   5  -2    1.64    0.38
  24  -6  -2    0.49    0.16
 -24  -6   2    0.97    0.21
 -24   6   2    0.65    0.18
  22  -6  -2    4.70    0.64
  22  -6  -2    3.57    0.65
 -22  -6   2    3.36    0.68
  22   6  -2    3.87    0.62
 -22   6   2    3.08    0.65
  20  -6  -2    3.41    0.60
  20  -6  -2    4.49    0.70
 -20  -6   2    4.31    0.76
  20   6  -2    4.85    0.78
 -20   6   2    4.37    0.76
  18  -6  -2    1.58    0.41
  18  -6  -2    1.61    0.40
 -18  -6   2    1.68    0.41
 -18   6   2    1.27    0.38
  18   6  -2    1.23    0.30
  16  -6  -2    1.17    0.34
 -16  -6   2    1.77    0.32
 -16  -6   2    2.11    0.50
  16  -6  -2    2.16    0.42
  16   6  -2    1.99    0.50
 -16   6   2    1.13    0.37
  14  -6  -2   13.97    1.11
 -14  -6   2   13.89    0.96
 -14  -6   2   13.20    1.16
 -14   6   2   14.25    1.02
  14   6  -2   14.41    1.26
 -14   6   2   13.28    1.19
 -12  -6   2    2.66    0.58
  12  -6  -2    2.34    0.50
 -12  -6   2    2.87    0.45
 -12   6   2    1.43    0.44
  12   6  -2    2.59    0.58
 -12   6   2    1.66    0.35
  10  -6  -2   12.59    1.01
 -10  -6   2   11.62    0.88
 -10  -6   2   13.37    1.12
 -10   6   2   13.44    1.19
  10   6  -2   11.88    1.09
   8  -6  -2    3.15    0.55
  -8  -6   2    3.87    0.63
  -8  -6   2    3.68    0.53
  -8   6   2    2.53    0.61
   8   6  -2    3.91    0.70
  -6  -6   2    6.66    0.71
  -6  -6   2    7.34    0.84
   6  -6  -2    5.25    0.68
   6   6  -2    5.49    0.82
  -6   6   2    6.09    0.90
  -4  -6   2    6.98    0.68
   4  -6  -2    7.24    0.60
  -4  -6   2    8.63    0.83
   4  -6  -2    6.53    0.74
  -4   6   2    6.66    0.93
   4   6  -2    7.16    0.94
  -2  -6   2   14.45    1.06
   2  -6  -2   15.53    0.96
   2  -6  -2   13.46    0.97
  -2  -6   2   12.99    0.95
  -2   6   2   12.66    1.18
   2   6  -2   13.45    1.20
   0  -6  -2    0.81    0.16
   0  -6   2    0.04    0.13
   0  -6   2    0.32    0.10
   0  -6  -2    0.16    0.13
   0   6   2    0.26    0.25
   0   6  -2    0.15    0.19
  -2  -6  -2   18.90    1.10
   2  -6   2   17.13    1.09
  -2  -6  -2   16.58    1.09
   2  -6   2   17.39    1.13
   2   6   2   18.13    1.42
  -2   6  -2   16.82    1.35
  -4  -6  -2    0.24    0.13
   4  -6   2    0.45    0.25
  -4  -6  -2    0.49    0.20
  -4   6  -2    0.18    0.20
   4   6   2    0.11    0.20
  -4   6  -2    0.50    0.14
   6  -6   2    7.24    0.78
  -6  -6  -2    6.70    0.61
  -6  -6  -2    7.49    0.83
  -6   6  -2    7.16    0.93
   6   6   2    6.91    0.93
  -6   6  -2    6.83    0.60
  -8  -6  -2    1.65    0.43
   8  -6   2    1.25    0.37
  -8  -6  -2    1.73    0.34
   8   6   2    2.25    0.58
  -8   6  -2    1.32    0.47
  10  -6   2   11.12    0.95
 -10  -6  -2   11.45    1.02
 -10  -6  -2   11.68    0.80
  10   6   2   10.86    1.20
 -10   6  -2   10.58    1.12
 -12  -6  -2    1.10    0.36
 -12  -6  -2    1.49    0.28
  12  -6   2    1.29    0.38
 -12   6  -2    1.32    0.42
  12   6   2    1.33    0.46
  14  -6   2   15.07    1.03
 -14  -6  -2   13.48    1.18
  14  -6   2   13.57    1.06
 -14   6  -2   13.10    1.18
  14   6   2   12.28    1.20
  16  -6   2    3.52    0.59
 -16  -6  -2    3.25    0.63
  16  -6   2    3.34    0.52
  16   6   2    2.82    0.67
 -16   6  -2    2.60    0.58
 -18  -6  -2    3.68    0.70
  18  -6   2    3.42    0.52
  18  -6   2    3.53    0.56
  18   6   2    2.98    0.68
 -18   6  -2    3.41    0.68
  20  -6   2    2.75    0.40
  20  -6   2    2.18    0.43
 -20  -6  -2    2.66    0.59
  20   6   2    3.48    0.73
 -20   6  -2    2.12    0.52
 -22  -6  -2    3.35    0.67
  22  -6   2    2.65    0.16
  22  -6   2    1.83    0.40
 -22   6  -2    1.86    0.46
  22   6   2    1.94    0.50
 -24  -6  -2    2.93    0.58
  24  -6   2    2.08    0.11
  24  -6   2    2.18    0.42
  24   6   2    2.53    0.60
 -24   6  -2    1.42    0.29
 -21  -7   2    0.77    0.14
 -21   7   2    0.69    0.20
  19  -7  -2    0.62    0.14
 -19  -7   2    0.51    0.16
 -19   7   2    0.58    0.15
 -17  -7   2    0.79    0.29
  17  -7  -2    0.64    0.16
  17   7  -2    0.43    0.13
 -17   7   2    0.48    0.21
  15  -7  -2    7.40    0.90
 -15  -7   2    9.02    0.77
 -15  -7   2    8.44    1.04
  15   7  -2    9.78    1.10
 -15   7   2    9.68    1.17
  13  -7  -2    0.40    0.15
 -13  -7   2    0.25    0.15
 -13  -7   2    0.47    0.11
  13   7  -2    0.43    0.16
 -13   7   2    0.63    0.23
  11  -7  -2    0.12    0.14
 -11  -7   2    0.61    0.15
 -11  -7   2    0.86    0.25
 -11   7   2    0.33    0.22
  11   7  -2    0.43    0.18
  -9  -7   2    1.42    0.34
   9  -7  -2    1.30    0.37
  -9  -7   2    0.83    0.30
  -9   7   2    1.06    0.40
   9   7  -2    1.17    0.42
   7  -7  -2    3.96    0.64
  -7  -7   2    2.85    0.58
  -7  -7   2    3.91    0.60
  -7   7   2    3.71    0.78
   7   7  -2    5.08    0.83
   5  -7  -2    0.41    0.18
  -5  -7   2    0.38    0.14
  -5  -7   2    0.64    0.21
   5   7  -2    0.55    0.27
  -5   7   2    0.18    0.20
   3  -7  -2    0.58    0.27
  -3  -7   2    0.47    0.15
  -3  -7   2    0.31    0.16
  -3   7   2   -0.19    0.13
   3   7  -2    0.33    0.25
   1  -7  -2    8.00    0.71
  -1  -7   2    7.99    0.85
   1  -7  -2    8.25    0.78
  -1  -7   2    8.16    0.79
  -1   7   2    7.85    1.06
   1   7  -2    9.16    1.12
  -1  -7  -2    5.70    0.66
   1  -7   2    4.76    0.67
   1  -7   2    5.00    0.64
  -1  -7  -2    4.99    0.65
   1   7   2    4.66    0.85
  -1   7  -2    3.58    0.77
   3  -7   2    0.84    0.32
  -3  -7  -2    0.49    0.17
  -3  -7  -2    0.98    0.27
  -3   7  -2    0.66    0.33
   3   7   2    0.73    0.35
  -3   7  -2    1.10    0.21
   5  -7   2    1.87    0.47
  -5  -7  -2    1.76    0.40
  -5  -7  -2    1.50    0.34
   5   7   2    1.39    0.48
  -5   7  -2    2.41    0.39
  -5   7  -2    1.64    0.54
  -7  -7  -2    5.90    0.78
  -7  -7  -2    5.76    0.64
   7  -7   2    5.13    0.72
  -7   7  -2    7.10    1.01
   7   7   2    5.11    0.86
  -9  -7  -2    1.89    0.36
   9  -7   2    0.88    0.27
  -9  -7  -2    1.73    0.45
   9   7   2    1.03    0.41
  -9   7  -2    1.41    0.45
 -11  -7  -2    1.26    0.38
 -11  -7  -2    1.61    0.29
  11  -7   2    1.48    0.41
 -11   7  -2    0.92    0.34
  11   7   2    1.20    0.37
  13  -7   2    0.32    0.13
 -13  -7  -2    0.47    0.15
 -13   7  -2    0.49    0.17
  13   7   2    0.27    0.26
 -15  -7  -2    3.57    0.69
  15  -7   2    2.88    0.58
  15   7   2    2.87    0.68
 -15   7  -2    2.88    0.66
 -17  -7  -2    0.93    0.22
 -17   7  -2    0.94    0.28
  17   7   2    0.63    0.23
  19  -7   2    1.99    0.17
 -19  -7  -2    1.32    0.28
  19   7   2    1.02    0.22
 -19   7  -2    1.39    0.35
 -21  -7  -2    1.06    0.15
  21   7   2    0.83    0.12
 -21   7  -2    1.09    0.23
 -16  -8   2    1.08    0.28
  16  -8  -2    1.00    0.23
 -16   8   2    0.59    0.16
 -14  -8   2    3.52    0.68
 -14  -8   2    4.11    0.56
  14  -8  -2    3.01    0.59
 -14   8   2    2.65    0.65
  14   8  -2    3.59    0.65
 -12  -8   2    0.92    0.25
 -12  -8   2    1.06    0.21
  12  -8  -2    0.69    0.21
  12   8  -2    1.33    0.20
 -12   8   2    1.00    0.33
 -10  -8   2    2.26    0.54
  10  -8  -2    1.63    0.44
 -10  -8   2    2.83    0.47
 -10   8   2    2.78    0.72
  10   8  -2    2.63    0.61
  -8  -8   2    0.58    0.16
  -8  -8   2    0.24    0.16
   8  -8  -2    0.51    0.18
  -8   8   2    0.78    0.25
   8   8  -2    0.41    0.15
  -6  -8   2    1.86    0.41
   6  -8  -2    0.45    0.13
  -6  -8   2    0.41    0.13
   6   8  -2    0.39    0.19
  -6   8   2    0.69    0.31
  -4  -8   2    0.47    0.09
  -4  -8   2    0.62    0.17
   4  -8  -2    0.07    0.13
  -4   8   2    0.47    0.22
   4   8  -2    0.66    0.18
   2  -8  -2    1.27    0.32
  -2  -8   2    0.77    0.28
  -2  -8   2    1.76    0.43
  -2   8   2    1.73    0.57
   2   8  -2    1.39    0.46
   0  -8  -2    1.20    0.29
   0  -8   2    1.04    0.33
   0  -8  -2    1.17    0.28
   0   8   2    2.20    0.63
   0   8  -2    1.24    0.40
   2  -8   2    2.05    0.47
  -2  -8  -2    2.01    0.44
  -2  -8  -2    2.04    0.36
   2   8   2    2.89    0.71
  -2   8  -2    1.82    0.56
  -2   8  -2    1.88    0.34
  -4  -8  -2    4.75    0.63
   4  -8   2    4.31    0.69
  -4  -8  -2    5.01    0.67
   4   8   2    4.36    0.82
  -4   8  -2    3.78    0.80
  -6  -8  -2    2.53    0.42
  -6  -8  -2    1.50    0.34
   6  -8   2    2.07    0.51
  -6   8  -2    1.86    0.50
   6   8   2    2.20    0.56
   8  -8   2    0.20    0.14
  -8  -8  -2    0.72    0.12
  -8  -8  -2    0.52    0.10
   8   8   2   -0.15    0.14
  -8   8  -2    0.39    0.22
 -10  -8  -2    2.38    0.51
 -10  -8  -2    2.82    0.43
  10  -8   2    1.70    0.41
  10   8   2    2.24    0.59
 -10   8  -2    1.64    0.47
 -12  -8  -2    0.56    0.16
  12  -8   2    1.10    0.30
 -12   8  -2    0.94    0.29
  12   8   2    0.60    0.21
 -14  -8  -2    8.67    1.06
  14  -8   2    9.13    1.01
  14   8   2    8.14    1.13
 -14   8  -2    8.25    1.16
  16  -8   2    1.82    0.29
 -16  -8  -2    1.47    0.35
 -16   8  -2    2.56    0.58
  16   8   2    2.19    0.41
  -9  -9   2    7.07    0.81
   9  -9  -2    6.61    0.89
  -9  -9   2    5.33    0.79
  -9   9   2    7.03    1.08
   9   9  -2    7.04    0.89
  -7  -9   2    5.34    0.82
  -7  -9   2    5.36    0.72
   7  -9  -2    5.73    0.81
  -7   9   2    4.82    0.95
   7   9  -2    7.32    0.95
  -5  -9   2    1.29    0.20
   5  -9  -2    0.72    0.20
  -5   9   2    1.11    0.28
  -3  -9   2    0.48    0.16
   3  -9  -2    1.29    0.26
   3   9  -2    0.71    0.24
  -3   9   2    1.01    0.25
  -1  -9   2    4.10    0.68
   1  -9  -2    3.79    0.63
  -1   9   2    3.72    0.77
   1   9  -2    3.73    0.76
   1   9  -2    3.39    0.59
   1  -9   2    3.54    0.63
  -1  -9  -2    4.16    0.62
   1   9   2    4.90    0.89
  -1   9  -2    3.14    0.70
   3  -9   2    0.60    0.15
  -3  -9  -2    0.94    0.18
   3   9   2    0.74    0.11
  -3   9  -2    0.54    0.14
  -5  -9  -2    1.01    0.09
   5  -9   2    0.60    0.20
   5   9   2    0.72    0.14
  -5   9  -2    1.27    0.42
   7  -9   2    6.72    0.91
  -7  -9  -2    6.15    0.73
  -7  -9  -2    4.82    0.77
   7   9   2    4.35    0.81
  -7   9  -2    5.55    0.96
  -9  -9  -2    5.26    0.46
  -9  -9  -2    3.13    0.60
   9  -9   2    5.45    0.79
  -9   9  -2    4.87    0.86
   9   9   2    5.46    0.92
  32   0  -3    0.66    0.10
 -32   0   3    0.54    0.14
  30   0  -3    0.48    0.20
 -30   0   3    0.47    0.11
 -28   0   3    0.55    0.12
  28   0  -3    0.09    0.13
 -26   0   3    0.47    0.15
  26   0  -3    0.25    0.17
 -24   0   3    0.50    0.16
 -24   0   3    0.43    0.17
 -22   0   3    0.37    0.14
  22   0  -3    0.50    0.10
 -22   0   3    0.47    0.17
 -20   0   3    0.31    0.08
 -20   0   3    0.28    0.17
  20   0  -3    0.52    0.08
 -20   0   3    0.39    0.16
 -18   0   3    0.30    0.11
  18   0  -3    0.31    0.08
 -18   0   3    0.34    0.11
 -16   0   3    0.30    0.06
 -16   0   3    0.16    0.13
 -16   0   3    0.31    0.19
  16   0  -3    0.21    0.11
 -14   0   3    0.32    0.07
  14   0  -3   -0.10    0.07
 -14   0   3    0.33    0.13
 -14   0   3    0.16    0.08
 -12   0   3    0.36    0.12
 -12   0   3    0.28    0.07
 -12   0   3    0.20    0.08
  12   0  -3    0.13    0.10
 -10   0   3    0.29    0.13
 -10   0   3    0.20    0.07
 -10   0   3    0.15    0.05
  10   0  -3   -0.11    0.08
  10   0  -3    0.07    0.04
  -8   0   3    0.06    0.06
  -8   0   3   -0.01    0.06
  -8   0   3    0.29    0.08
  -8   0   3    0.00    0.07
  -6   0   3    0.05    0.05
   6   0  -3    0.21    0.07
  -6   0   3    0.01    0.08
  -6   0   3    0.11    0.08
   4   0  -3    0.03    0.05
  -4   0   3    0.17    0.04
  -4   0   3    0.02    0.08
  -4   0   3    0.14    0.07
   2   0  -3    0.03    0.05
  -2   0   3    0.02    0.04
  -2   0   3    0.19    0.02
  -2   0   3    0.15    0.11
   0   0   3    0.05    0.04
   0   0  -3    0.17    0.03
   0   0  -3    0.09    0.06
   0   0   3    0.14    0.09
  -2   0  -3    0.01    0.04
   2   0   3    0.11    0.08
  -2   0  -3    0.11    0.06
   2   0   3    0.04    0.02
  -4   0  -3    0.08    0.07
   4   0   3    0.36    0.14
   4   0   3    0.18    0.03
  -4   0  -3    0.06    0.07
  -6   0  -3    0.18    0.10
  -6   0  -3    0.04    0.05
   6   0   3    0.09    0.11
  -8   0  -3    0.14    0.10
  -8   0  -3    0.20    0.10
 -10   0  -3    0.10    0.08
 -10   0  -3    0.30    0.11
  10   0   3    0.19    0.14
 -12   0  -3    0.07    0.07
  12   0   3    0.05    0.12
 -12   0  -3    0.23    0.09
 -14   0  -3    0.21    0.11
 -14   0  -3    0.08    0.04
  14   0   3    0.41    0.20
 -16   0  -3    0.36    0.09
 -16   0  -3    0.24    0.11
  16   0   3    0.21    0.15
 -18   0  -3    0.14    0.13
  18   0   3   -0.10    0.12
 -18   0  -3    0.65    0.12
 -20   0  -3    0.12    0.10
  20   0   3    0.07    0.19
 -22   0  -3    0.52    0.08
  22   0   3    1.06    0.39
 -22   0  -3    0.20    0.14
  24   0   3    0.19    0.20
 -24   0  -3    0.41    0.19
  26   0   3    0.31    0.17
 -26   0  -3    0.39    0.10
  28   0   3    0.53    0.21
 -28   0  -3    0.55    0.18
 -30   0  -3    0.14    0.09
  30   0   3    0.55    0.12
  31  -1  -3    7.50    1.12
 -31  -1   3    4.94    0.66
  31   1  -3    6.59    0.87
 -31   1   3    5.28    0.71
  29  -1  -3    6.21    0.99
 -29  -1   3    6.30    0.76
  29   1  -3    5.94    0.83
 -29   1   3    6.15    0.77
  27  -1  -3    0.01    0.15
 -27  -1   3    0.65    0.21
  27   1  -3    0.52    0.11
 -27   1   3    0.64    0.20
 -25  -1   3    0.43    0.13
 -25   1   3    0.82    0.29
 -25   1   3    0.34    0.13
  25   1  -3    0.19    0.12
 -23  -1   3    3.93    0.55
  23  -1  -3    4.39    0.50
 -23  -1   3    4.20    0.41
 -23   1   3    3.94    0.56
  23   1  -3    4.14    0.37
 -23   1   3    2.56    0.61
 -21  -1   3   14.75    0.96
 -21  -1   3   17.08    0.96
 -21  -1   3   16.01    1.17
  21  -1  -3   14.13    0.84
 -21   1   3   14.17    1.24
 -21   1   3   15.05    0.99
  21   1  -3   14.30    0.81
  19  -1  -3    1.17    0.23
 -19  -1   3    0.84    0.18
 -19  -1   3    0.93    0.28
 -19  -1   3    1.02    0.26
  19   1  -3    0.74    0.20
 -19   1   3    0.82    0.25
 -19   1   3    0.65    0.31
  17  -1  -3   11.94    0.71
 -17  -1   3   12.93    0.71
 -17  -1   3   11.98    0.75
 -17  -1   3   11.97    0.92
 -17  -1   3   12.05    0.77
 -17   1   3   12.62    0.80
 -17   1   3   12.39    0.50
 -17   1   3   12.89    1.06
 -15  -1   3    4.80    0.45
  15  -1  -3    4.39    0.41
 -15  -1   3    4.40    0.38
 -15  -1   3    5.47    0.56
 -15  -1   3    4.14    0.40
 -15   1   3    4.34    0.42
 -15   1   3    5.28    0.67
 -15   1   3    4.91    0.26
 -13  -1   3    0.65    0.16
 -13  -1   3    0.42    0.17
  13  -1  -3    0.59    0.05
  13  -1  -3    0.46    0.17
 -13  -1   3    0.36    0.13
 -13  -1   3    0.59    0.16
 -13   1   3    0.54    0.17
 -13   1   3    0.30    0.14
 -11  -1   3   39.28    1.48
  11  -1  -3   41.81    0.91
  11  -1  -3   39.64    1.24
 -11  -1   3   42.04    1.28
 -11  -1   3   40.68    1.23
 -11  -1   3   41.48    1.36
 -11   1   3   40.11    1.66
 -11   1   3   42.18    1.29
   9  -1  -3   38.42    0.82
  -9  -1   3   37.09    1.33
   9  -1  -3   36.18    1.12
  -9  -1   3   38.20    1.12
  -9  -1   3   37.42    1.21
  -9  -1   3   37.69    1.11
  -9   1   3   37.71    1.12
  -7  -1   3    3.68    0.29
   7  -1  -3    3.17    0.28
   7  -1  -3    3.83    0.17
  -7  -1   3    3.52    0.31
  -7  -1   3    4.12    0.28
  -7  -1   3    4.19    0.36
  -7   1   3    3.42    0.43
  -7   1   3    3.53    0.28
  -5  -1   3   17.66    0.69
  -5  -1   3   18.13    0.77
   5  -1  -3   17.62    0.64
   5  -1  -3   18.91    0.47
  -5  -1   3   17.49    0.57
  -5  -1   3   17.70    0.63
  -5   1   3   17.89    0.62
  -5   1   3   17.14    0.87
   3  -1  -3    7.38    0.36
   3  -1  -3    8.19    0.31
  -3  -1   3    8.70    0.50
  -3  -1   3    7.32    0.37
  -3   1   3    7.01    0.53
  -3   1   3    7.43    0.38
   3   1  -3    7.65    0.36
   3   1  -3    7.22    0.40
  -1  -1   3    0.13    0.12
   1  -1  -3   -0.04    0.08
   1  -1  -3   -0.08    0.07
  -1  -1   3    0.00    0.09
   1   1  -3    0.13    0.11
  -1   1   3    0.12    0.13
  -1   1   3   -0.06    0.14
   1   1  -3    0.15    0.08
   1  -1   3    3.61    0.24
  -1  -1  -3    3.86    0.26
  -1  -1  -3    3.88    0.20
   1  -1   3    3.94    0.28
  -1   1  -3    3.73    0.23
   1   1   3    3.85    0.32
   1   1   3    3.68    0.28
  -1   1  -3    3.42    0.26
   3  -1   3    0.09    0.14
  -3  -1  -3    0.35    0.07
  -3  -1  -3    0.09    0.13
   3  -1   3    0.19    0.12
  -3  -1  -3    0.25    0.14
   3   1   3    0.10    0.14
  -3   1  -3    0.23    0.12
  -3   1  -3    0.11    0.12
   5  -1   3   41.34    1.29
  -5  -1  -3   44.28    1.22
  -5  -1  -3   42.51    0.83
   5  -1   3   44.84    1.07
  -5  -1  -3   43.60    1.21
  -5   1  -3   43.74    1.16
   5   1   3   43.81    1.28
  -5   1  -3   43.41    1.09
   7  -1   3   -0.26    0.12
   7  -1   3   -0.07    0.10
  -7  -1  -3   -0.31    0.08
  -7  -1  -3   -0.18    0.11
  -7   1  -3   -0.19    0.08
   7   1   3   -0.01    0.14
  -7   1  -3   -0.12    0.12
   9  -1   3   12.53    0.51
  -9  -1  -3   11.10    0.62
  -9  -1  -3   11.57    0.65
   9  -1   3   11.80    0.73
   9   1   3   12.24    0.29
  -9   1  -3   12.83    0.65
   9   1   3   12.12    0.69
  -9   1  -3   12.20    0.53
  11  -1   3    1.00    0.28
  11  -1   3    1.89    0.17
 -11  -1  -3    1.71    0.28
 -11  -1  -3    1.42    0.26
  11   1   3    1.60    0.09
  11   1   3    1.67    0.30
 -11   1  -3    1.83    0.21
 -11   1  -3    1.37    0.26
 -13  -1  -3    2.82    0.38
 -13  -1  -3    2.55    0.36
  13  -1   3    2.49    0.21
  13  -1   3    2.34    0.41
 -13   1  -3    2.43    0.23
  13   1   3    2.31    0.13
 -13   1  -3    2.14    0.33
  13   1   3    2.02    0.36
 -15  -1  -3    6.77    0.56
  15  -1   3    7.34    0.72
 -15  -1  -3    7.33    0.61
  15  -1   3    7.56    0.43
 -15   1  -3    6.49    0.58
 -15   1  -3    7.13    0.46
  15   1   3    7.39    0.66
  15   1   3    7.14    0.29
 -17  -1  -3   17.29    1.04
 -17  -1  -3   19.34    1.04
  17  -1   3   19.87    0.79
  17  -1   3   18.45    1.24
  17   1   3   19.30    1.16
 -17   1  -3   19.78    0.87
 -17   1  -3   20.19    1.10
  19  -1   3    0.18    0.18
 -19  -1  -3    0.28    0.17
 -19  -1  -3    0.55    0.10
  19   1   3    0.10    0.17
 -19   1  -3    0.35    0.18
  21  -1   3    2.24    0.54
 -21  -1  -3    3.41    0.47
 -21  -1  -3    2.46    0.46
 -21   1  -3    2.68    0.47
  21   1   3    2.22    0.50
 -23  -1  -3    5.04    0.67
 -23  -1  -3    5.53    0.63
  23  -1   3    4.79    0.81
 -23   1  -3    4.94    0.68
  23   1   3    6.10    0.81
 -25  -1  -3    3.85    0.53
  25  -1   3    3.69    0.74
 -25  -1  -3    3.90    0.60
  25   1   3    3.47    0.65
 -25   1  -3    3.35    0.58
 -27  -1  -3    0.93    0.25
  27   1   3    0.68    0.20
 -29  -1  -3    0.70    0.15
  29  -1   3    0.22    0.10
 -29   1  -3    0.44    0.16
  31  -1   3    2.19    0.50
 -31  -1  -3    2.62    0.53
 -31   1  -3    2.47    0.53
  31   1   3    2.72    0.45
 -30  -2   3    1.15    0.23
  30  -2  -3    0.66    0.23
  30   2  -3    1.51    0.09
 -30   2   3    1.31    0.30
 -28  -2   3   14.61    1.12
  28  -2  -3   14.87    1.49
  28   2  -3   17.59    1.29
 -28   2   3   17.10    1.25
 -26  -2   3    0.43    0.13
  26   2  -3    0.35    0.06
 -26   2   3    0.24    0.16
 -24  -2   3    9.79    0.81
 -24  -2   3    7.95    0.75
  24  -2  -3    9.39    0.73
 -24   2   3    9.25    0.85
 -24   2   3    9.39    1.17
  24   2  -3   10.51    0.93
 -22  -2   3    0.58    0.15
  22  -2  -3    0.24    0.09
 -22  -2   3    0.12    0.08
 -22   2   3    0.35    0.27
 -22   2   3    0.60    0.21
  22   2  -3    0.12    0.07
  20  -2  -3   16.27    0.95
 -20  -2   3   16.46    0.88
 -20  -2   3   17.35    1.05
 -20  -2   3   16.61    1.05
 -20   2   3   17.24    1.40
 -20   2   3   16.03    1.03
  18  -2  -3   10.43    0.72
 -18  -2   3    9.66    0.76
 -18  -2   3   10.78    0.77
 -18  -2   3   10.93    0.68
 -18  -2   3    9.45    0.76
 -18   2   3    9.54    0.74
 -18   2   3    8.94    0.93
 -16  -2   3   13.32    0.88
  16  -2  -3   13.13    0.79
 -16  -2   3   12.65    0.85
 -16  -2   3   13.18    0.83
 -16  -2   3   12.68    0.72
 -16   2   3   13.28    1.08
 -16   2   3   11.15    0.78
 -14  -2   3   26.02    1.23
 -14  -2   3   26.13    1.04
 -14  -2   3   26.44    1.14
 -14  -2   3   24.98    1.17
  14  -2  -3   25.02    1.08
 -14   2   3   25.95    1.48
 -14   2   3   24.15    1.12
  12  -2  -3   57.94    1.72
 -12  -2   3   61.62    1.86
 -12  -2   3   59.32    1.65
 -12  -2   3   59.65    1.77
 -12  -2   3   58.37    1.92
 -12   2   3   60.99    2.25
 -12   2   3   60.53    1.82
  10  -2  -3   32.30    1.15
 -10  -2   3   34.35    1.20
 -10  -2   3   33.43    1.32
 -10  -2   3   34.17    1.12
 -10  -2   3   33.88    1.20
 -10   2   3   32.30    1.48
 -10   2   3   31.39    1.17
  -8  -2   3   90.01    2.10
  -8  -2   3   83.49    1.98
   8  -2  -3   86.83    2.07
  -8  -2   3   82.89    2.27
  -8   2   3   84.89    2.11
   8   2  -3   82.48    2.05
  -6  -2   3    2.43    0.27
   6  -2  -3    2.02    0.26
  -6  -2   3    2.37    0.21
   6  -2  -3    2.38    0.13
  -6  -2   3    2.14    0.31
   6   2  -3    2.45    0.30
  -6   2   3    2.39    0.35
  -6   2   3    2.46    0.30
  -4  -2   3   39.06    1.14
   4  -2  -3   39.56    0.94
   4  -2  -3   38.63    1.14
  -4  -2   3   38.95    1.28
  -4  -2   3   41.21    1.10
  -4   2   3   37.83    1.38
  -4   2   3   38.98    1.27
   4   2  -3   39.06    1.29
  -2  -2   3   12.54    0.63
   2  -2  -3   12.40    0.49
  -2  -2   3   12.89    0.52
   2  -2  -3   12.97    0.56
  -2  -2   3   11.72    0.56
   2   2  -3   12.27    0.66
  -2   2   3   11.94    0.69
  -2   2   3   12.29    0.69
   0  -2  -3    6.13    0.37
   0  -2  -3    5.83    0.35
   0  -2   3    6.13    0.40
   0  -2   3    6.20    0.33
   0   2   3    5.62    0.48
   0   2   3    5.78    0.44
   0   2  -3    6.46    0.43
   0   2  -3    6.23    0.43
   2  -2   3    0.56    0.11
   2  -2   3    0.58    0.16
  -2  -2  -3    0.58    0.12
  -2  -2  -3    0.81    0.17
   2   2   3    0.81    0.16
   2   2   3    0.61    0.20
  -2   2  -3    0.71    0.16
  -2   2  -3    0.39    0.12
  -4  -2  -3   51.50    1.46
  -4  -2  -3   52.37    1.20
   4  -2   3   52.12    1.40
   4  -2   3   52.28    1.44
  -4   2  -3   52.04    1.34
  -4   2  -3   51.02    1.42
   4   2   3   51.35    1.56
   4   2   3   51.78    1.43
   6  -2   3    6.48    0.43
   6  -2   3    6.87    0.48
  -6  -2  -3    5.99    0.46
  -6  -2  -3    6.38    0.31
   6   2   3    6.38    0.50
   6   2   3    6.29    0.42
  -6   2  -3    7.02    0.39
  -6   2  -3    6.79    0.46
   8  -2   3    0.60    0.20
   8  -2   3    0.58    0.16
  -8  -2  -3    0.80    0.07
  -8  -2  -3    0.83    0.23
  -8  -2  -3    0.53    0.18
  -8   2  -3    0.63    0.17
  -8   2  -3    0.69    0.12
   8   2   3    0.88    0.18
 -10  -2  -3   30.80    0.76
  10  -2   3   28.79    1.03
 -10  -2  -3   28.88    1.20
  10  -2   3   30.61    1.32
 -10  -2  -3   29.03    1.22
 -10   2  -3   29.30    1.17
  10   2   3   30.05    1.16
 -10   2  -3   28.45    0.88
  12  -2   3    7.17    0.47
 -12  -2  -3    7.70    0.62
  12  -2   3    7.10    0.65
 -12  -2  -3    7.53    0.61
 -12  -2  -3    7.22    0.31
  12   2   3    7.74    0.59
  12   2   3    7.47    0.42
 -12   2  -3    6.80    0.56
 -12   2  -3    7.23    0.40
  14  -2   3   21.19    0.89
 -14  -2  -3   20.76    1.10
  14  -2   3   19.15    1.18
 -14  -2  -3   18.57    1.04
 -14  -2  -3   19.53    0.57
 -14   2  -3   20.48    1.07
 -14   2  -3   19.34    0.74
  14   2   3   19.74    1.04
  14   2   3   19.05    0.75
 -16  -2  -3    5.80    0.63
 -16  -2  -3    6.68    0.64
  16  -2   3    6.40    0.76
  16  -2   3    6.67    0.48
 -16   2  -3    7.08    0.65
 -16   2  -3    6.83    0.41
  16   2   3    6.61    0.60
 -18  -2  -3    5.64    0.65
  18  -2   3    4.83    0.72
 -18  -2  -3    4.84    0.61
  18  -2   3    6.85    0.47
 -18   2  -3    4.96    0.62
  18   2   3    6.30    0.61
 -20  -2  -3    9.37    0.82
 -20  -2  -3   10.54    0.88
  20  -2   3    9.09    0.95
  20   2   3    9.58    0.84
 -20   2  -3    9.45    0.83
 -22  -2  -3   14.41    1.07
  22  -2   3   12.40    1.19
 -22  -2  -3   13.70    1.05
 -22   2  -3   14.02    1.07
  22   2   3   14.23    1.09
  24  -2   3    0.37    0.17
 -24  -2  -3    0.62    0.13
 -24  -2  -3    0.46    0.20
  24   2   3    0.71    0.17
 -24   2  -3    0.31    0.16
 -26  -2  -3    4.96    0.71
  26  -2   3    4.99    0.88
 -26  -2  -3    4.96    0.67
 -26   2  -3    4.56    0.69
  26   2   3    6.07    0.75
  28  -2   3    4.11    0.83
 -28  -2  -3    3.50    0.62
  28   2   3    4.58    0.66
 -28   2  -3    2.68    0.57
  30  -2   3   13.50    1.41
 -30  -2  -3   11.39    1.09
 -30   2  -3   12.18    1.15
  30   2   3   12.65    1.04
  29  -3  -3    2.50    0.62
 -29  -3   3    2.19    0.47
 -29   3   3    2.83    0.55
 -27  -3   3   13.48    1.11
  27  -3  -3   13.16    1.38
  27  -3  -3   14.03    0.94
 -27  -3   3   14.30    1.13
 -27   3   3   13.78    1.14
  27   3  -3   14.64    1.05
 -25  -3   3   11.40    0.97
 -25  -3   3   12.61    1.02
  25  -3  -3   11.53    0.84
 -25   3   3   10.59    0.95
  25   3  -3   11.34    0.89
 -23  -3   3   13.34    1.05
 -23  -3   3   13.59    1.05
  23  -3  -3   11.99    0.87
  23   3  -3   11.98    0.92
 -23   3   3   12.66    1.27
 -23   3   3   11.78    0.98
 -21  -3   3    1.36    0.24
  21  -3  -3    0.80    0.21
 -21  -3   3    1.58    0.36
 -21  -3   3    1.22    0.32
  21   3  -3    1.76    0.32
 -21   3   3    1.19    0.37
 -21   3   3    1.16    0.35
 -19  -3   3   19.40    1.25
 -19  -3   3   20.33    1.02
 -19  -3   3   20.80    1.24
  19  -3  -3   20.71    1.15
 -19   3   3   21.25    1.25
  19   3  -3   22.02    1.15
 -19   3   3   17.30    1.39
 -17  -3   3   22.15    1.30
  17  -3  -3   22.53    1.18
 -17  -3   3   23.80    1.09
 -17   3   3   22.38    1.51
 -17   3   3   22.53    1.24
  17   3  -3   23.87    1.15
 -15  -3   3   46.61    1.93
 -15  -3   3   48.49    1.61
  15  -3  -3   49.66    1.76
 -15   3   3   49.71    2.20
 -15   3   3   51.14    1.87
  15   3  -3   48.86    1.83
 -13  -3   3    0.30    0.11
 -13  -3   3    1.01    0.31
 -13  -3   3    0.57    0.09
  13  -3  -3    0.35    0.17
 -13   3   3    0.41    0.15
  13   3  -3    0.64    0.19
 -13   3   3    0.43    0.18
  11  -3  -3   29.63    1.23
 -11  -3   3   30.49    1.06
 -11  -3   3   31.03    1.42
 -11  -3   3   30.70    1.17
  11   3  -3   30.15    1.30
 -11   3   3   27.93    1.26
 -11   3   3   31.92    1.52
  -9  -3   3   11.89    0.53
  -9  -3   3   11.08    0.65
  -9  -3   3   10.16    0.76
   9  -3  -3   10.89    0.69
  -9   3   3   11.52    0.75
   9   3  -3   10.82    0.73
  -9   3   3   11.33    0.81
  -7  -3   3   50.89    1.53
   7  -3  -3   51.08    1.21
  -7  -3   3   49.86    1.77
   7  -3  -3   50.66    1.58
  -7  -3   3   52.91    1.24
  -7   3   3   49.01    1.68
  -7   3   3   52.19    1.80
   7   3  -3   47.45    1.70
   5  -3  -3   10.11    0.63
  -5  -3   3   11.35    0.38
   5  -3  -3   10.99    0.50
  -5  -3   3   10.61    0.73
  -5  -3   3   10.40    0.62
  -5   3   3   10.89    0.75
  -5   3   3   10.49    0.68
   5   3  -3    9.66    0.72
   3  -3  -3   67.50    1.79
  -3  -3   3   67.78    2.00
   3  -3  -3   66.49    1.67
  -3  -3   3   69.22    1.44
  -3  -3   3   68.57    1.82
  -3   3   3   67.64    2.15
   3   3  -3   66.88    2.13
  -3   3   3   65.94    1.93
  -1  -3   3   12.55    0.46
  -1  -3   3   11.21    0.65
   1  -3  -3   12.02    0.63
  -1  -3   3   12.26    0.71
   1  -3  -3   12.83    0.63
   1   3  -3   12.59    0.79
  -1   3   3   12.43    0.85
  -1   3   3   12.05    0.66
  -1  -3  -3  123.82    2.79
  -1  -3  -3  123.64    2.63
   1  -3   3  123.53    2.53
  -1   3  -3  123.48    3.01
   1   3   3  118.74    3.19
  -1   3  -3  126.56    2.88
   1   3   3  129.02    2.94
   3  -3   3   10.14    0.62
  -3  -3  -3   10.24    0.63
  -3  -3  -3   10.50    0.54
   3  -3   3   10.17    0.52
  -3   3  -3   10.50    0.59
   3   3   3    9.56    0.74
  -3   3  -3    9.93    0.66
   3   3   3   10.84    0.57
  -5  -3  -3   49.54    1.35
   5  -3   3   51.09    1.58
  -5  -3  -3   48.00    1.61
   5  -3   3   51.49    1.52
  -5   3  -3   49.60    1.43
   5   3   3   52.15    1.83
  -5   3  -3   47.73    1.59
   5   3   3   49.65    1.45
  -7  -3  -3    3.54    0.27
  -7  -3  -3    3.75    0.45
   7  -3   3    3.35    0.35
   7  -3   3    3.18    0.39
  -7   3  -3    3.55    0.29
   7   3   3    3.59    0.30
   7   3   3    2.89    0.44
  -7   3  -3    3.30    0.42
   9  -3   3  305.07    5.75
  -9  -3  -3  301.56    5.27
  -9  -3  -3  293.89    6.12
   9  -3   3  293.18    6.21
  -9   3  -3  304.00    5.98
   9   3   3  310.71    5.91
   9   3   3  303.39    6.19
  -9   3  -3  305.63    5.47
  11  -3   3    3.84    0.43
  11  -3   3    3.08    0.46
 -11  -3  -3    2.49    0.43
 -11  -3  -3    3.09    0.24
  11   3   3    3.98    0.54
 -11   3  -3    3.26    0.46
  11   3   3    3.07    0.32
 -11   3  -3    2.98    0.24
  13  -3   3    2.55    0.35
 -13  -3  -3    2.03    0.16
 -13  -3  -3    1.63    0.39
  13  -3   3    1.87    0.39
  13   3   3    1.90    0.40
 -13   3  -3    1.95    0.38
  13   3   3    2.31    0.32
 -13   3  -3    2.05    0.17
  15  -3   3   30.73    1.27
 -15  -3  -3   26.35    1.43
 -15  -3  -3   29.01    1.49
  15  -3   3   29.70    1.57
 -15   3  -3   27.82    1.40
  15   3   3   28.50    1.28
 -17  -3  -3   21.20    1.31
  17  -3   3   21.78    1.42
 -17  -3  -3   22.51    1.34
  17  -3   3   21.34    1.06
  17   3   3   21.40    1.14
 -17   3  -3   21.84    1.28
  19  -3   3   10.07    1.00
  19  -3   3   12.09    0.76
 -19  -3  -3    9.99    0.90
 -19  -3  -3   10.59    0.92
 -19   3  -3   10.11    0.88
  19   3   3   10.83    0.82
  21  -3   3    3.68    0.30
 -21  -3  -3    3.39    0.58
 -21  -3  -3    2.50    0.51
  21  -3   3    2.63    0.60
  21   3   3    3.41    0.50
 -21   3  -3    2.89    0.56
  23  -3   3    6.12    0.92
 -23  -3  -3    8.24    0.91
 -23  -3  -3    7.12    0.85
  23   3   3    6.77    0.64
 -23   3  -3    7.69    0.88
 -25  -3  -3   32.57    1.86
  25  -3   3   30.90    2.09
 -25  -3  -3   33.42    1.88
 -25   3  -3   32.03    1.84
  25   3   3   30.51    1.68
  27  -3   3    5.07    0.92
 -27  -3  -3    5.38    0.73
 -27  -3  -3    5.08    0.75
 -27   3  -3    4.64    0.74
  27   3   3    4.27    0.57
  29  -3   3    2.42    0.63
 -29  -3  -3    3.61    0.60
 -29  -3  -3    2.52    0.52
 -29   3  -3    1.96    0.46
  29   3   3    3.54    0.32
  28  -4  -3   19.61    1.19
 -28  -4   3   21.17    1.50
  28  -4  -3   17.39    1.64
 -28   4   3   20.45    1.47
  28   4  -3   19.27    1.36
 -26  -4   3    0.21    0.10
  26  -4  -3    0.68    0.17
 -26   4   3    0.51    0.14
  24  -4  -3   33.51    1.70
 -24  -4   3   35.86    1.98
  24   4  -3   34.54    1.87
 -24   4   3   31.96    1.80
  22  -4  -3    1.10    0.28
 -22  -4   3    1.56    0.38
 -22   4   3    1.17    0.35
  22   4  -3    0.99    0.29
 -22   4   3    1.16    0.34
 -20  -4   3   33.54    1.83
 -20  -4   3   33.96    1.48
  20  -4  -3   34.46    1.65
 -20   4   3   34.10    2.04
  20   4  -3   34.43    1.76
 -20   4   3   32.43    1.72
 -18  -4   3    6.77    0.55
 -18  -4   3    5.66    0.75
  18  -4  -3    5.50    0.66
 -18   4   3    4.72    0.74
  18   4  -3    5.82    0.73
 -18   4   3    6.04    0.74
  16  -4  -3  111.79    3.18
 -16  -4   3  110.24    3.48
 -16  -4   3  117.88    3.01
  16   4  -3  116.57    3.42
 -16   4   3  112.61    3.32
 -16   4   3  108.90    3.66
 -14  -4   3   70.55    2.57
  14  -4  -3   67.78    2.28
 -14  -4   3   74.85    2.19
 -14   4   3   69.56    2.63
  14   4  -3   68.22    2.44
 -14   4   3   67.91    2.40
 -12  -4   3   32.69    1.33
  12  -4  -3   28.87    1.35
 -12  -4   3   30.58    1.56
  12   4  -3   30.89    1.52
 -12   4   3   31.57    1.57
 -12   4   3   29.06    1.45
  10  -4  -3   37.02    1.51
 -10  -4   3   38.19    1.72
 -10  -4   3   37.10    1.43
 -10   4   3   35.37    1.60
 -10   4   3   36.29    1.61
  10   4  -3   36.63    1.66
   8  -4  -3   86.40    1.98
  -8  -4   3   88.81    2.77
  -8  -4   3   88.66    2.42
   8  -4  -3   92.69    2.51
  -8   4   3   86.16    2.69
  -8   4   3   87.35    2.59
   8   4  -3   86.34    2.78
  -6  -4   3   33.21    1.52
   6  -4  -3   35.68    1.39
  -6  -4   3   36.35    1.39
   6  -4  -3   35.06    1.15
  -6   4   3   35.71    1.40
   6   4  -3   37.27    1.67
  -6   4   3   35.54    1.62
  -4  -4   3   31.44    1.43
  -4  -4   3   32.55    1.29
   4  -4  -3   32.15    1.15
   4  -4  -3   33.59    1.30
  -4   4   3   29.88    1.52
   4   4  -3   31.11    1.53
  -4   4   3   31.52    1.23
  -2  -4   3    3.24    0.45
  -2  -4   3    2.57    0.38
   2  -4  -3    1.80    0.30
   2  -4  -3    2.69    0.32
   2   4  -3    2.43    0.46
  -2   4   3    2.68    0.49
  -2   4   3    2.50    0.24
   0  -4  -3   66.86    1.89
   0  -4   3   62.52    1.95
   0  -4   3   67.44    2.08
   0  -4   3   64.35    1.45
   0  -4  -3   67.95    1.97
   0   4  -3   64.52    2.28
   0   4   3   62.78    2.35
   0   4   3   65.15    1.78
  -2  -4  -3   48.42    1.56
  -2  -4  -3   50.90    1.73
   2  -4   3   51.89    1.35
   2  -4   3   52.99    1.75
  -2   4  -3   54.30    2.00
   2   4   3   52.04    2.09
   2   4   3   49.95    1.50
  -2   4  -3   53.14    1.77
  -4  -4  -3    1.67    0.32
   4  -4   3    1.86    0.19
   4  -4   3    1.94    0.35
  -4  -4  -3    2.19    0.30
   4   4   3    2.56    0.20
   4   4   3    2.14    0.47
  -4   4  -3    2.09    0.39
  -4   4  -3    2.16    0.30
  -6  -4  -3   37.73    1.57
   6  -4   3   39.52    1.38
  -6  -4  -3   40.73    1.34
   6  -4   3   40.77    1.55
  -6   4  -3   40.88    1.40
   6   4   3   42.10    1.31
   6   4   3   41.11    1.83
  -6   4  -3   39.98    1.63
   8  -4   3   38.53    1.47
  -8  -4  -3   38.50    1.28
  -8  -4  -3   38.75    1.64
   8  -4   3   37.38    1.51
   8   4   3   39.13    1.30
   8   4   3   38.76    1.77
  -8   4  -3   37.66    1.61
  -8   4  -3   40.21    1.32
 -10  -4  -3   75.53    1.94
 -10  -4  -3   72.13    2.47
  10  -4   3   72.28    2.32
  10  -4   3   72.86    2.26
 -10   4  -3   72.85    2.41
  10   4   3   79.60    2.09
  10   4   3   73.77    2.59
 -10   4  -3   76.94    1.92
  12  -4   3    4.10    0.53
 -12  -4  -3    3.15    0.27
 -12  -4  -3    2.90    0.53
  12  -4   3    3.88    0.51
 -12   4  -3    3.01    0.50
  12   4   3    2.72    0.53
  12   4   3    3.81    0.32
  14  -4   3   12.37    0.94
  14  -4   3   11.57    0.82
 -14  -4  -3   10.84    0.94
 -14   4  -3   10.77    0.90
  14   4   3   11.89    0.70
  14   4   3    9.50    0.91
 -16  -4  -3    3.15    0.58
  16  -4   3    3.59    0.59
  16  -4   3    3.89    0.51
  16   4   3    2.79    0.56
 -16   4  -3    3.51    0.57
  16   4   3    4.03    0.33
 -18  -4  -3   40.44    2.02
  18  -4   3   41.56    1.71
  18  -4   3   39.09    2.04
 -18   4  -3   38.84    1.90
  18   4   3   39.67    1.61
  18   4   3   37.95    1.95
  20  -4   3    0.42    0.21
  20  -4   3    0.67    0.11
 -20  -4  -3    0.70    0.26
 -20   4  -3    0.28    0.18
  20   4   3    0.61    0.28
  22  -4   3   33.03    2.03
 -22  -4  -3   30.88    1.85
  22  -4   3   34.15    1.55
  22   4   3   31.39    1.88
 -22   4  -3   30.60    1.78
 -24  -4  -3    9.00    1.01
  24  -4   3    8.12    1.09
  24   4   3    8.38    1.03
 -24   4  -3    9.85    1.07
 -26  -4  -3   25.27    1.71
  26  -4   3   24.15    1.88
 -26   4  -3   22.21    1.60
  26   4   3   23.64    1.71
  28  -4   3    2.92    0.61
 -28  -4  -3    2.14    0.38
 -28   4  -3    2.47    0.49
  28   4   3    2.59    0.52
  27  -5  -3   28.95    2.11
  27  -5  -3   29.58    1.61
 -27  -5   3   32.45    1.99
  27   5  -3   28.75    1.82
 -27   5   3   28.47    1.84
  25  -5  -3    7.87    0.67
  25  -5  -3    9.41    1.16
 -25  -5   3    7.07    0.91
  25   5  -3    8.31    0.92
 -25   5   3    8.25    0.99
 -23  -5   3   11.98    1.13
  23  -5  -3   11.38    1.15
  23  -5  -3   11.90    0.96
  23   5  -3    9.98    0.91
 -23   5   3   10.59    1.04
 -21  -5   3   38.16    2.10
  21  -5  -3   37.68    1.85
  21   5  -3   36.94    2.00
 -21   5   3   34.89    1.93
 -21   5   3   36.44    2.14
 -19  -5   3   44.03    1.79
 -19  -5   3   41.86    2.17
  19  -5  -3   40.06    1.89
 -19   5   3   39.68    2.03
  19   5  -3   41.05    2.08
 -19   5   3   43.00    2.21
 -17  -5   3    1.15    0.26
 -17  -5   3    1.14    0.37
  17  -5  -3    1.31    0.37
 -17   5   3    0.80    0.31
  17   5  -3    1.33    0.36
 -17   5   3    1.50    0.35
  15  -5  -3   18.65    1.20
 -15  -5   3   18.37    1.33
 -15  -5   3   20.23    1.14
 -15   5   3   19.31    1.31
  15   5  -3   18.14    1.29
 -15   5   3   20.73    1.34
  13  -5  -3    9.08    0.82
 -13  -5   3    9.82    0.76
 -13  -5   3    8.32    0.93
  13   5  -3    9.21    0.97
 -13   5   3   10.62    0.87
 -13   5   3    9.06    0.94
 -11  -5   3  183.42    4.32
 -11  -5   3  187.06    4.89
  11  -5  -3  186.68    4.48
 -11   5   3  183.46    4.64
  11   5  -3  182.54    4.90
 -11   5   3  184.96    4.84
  -9  -5   3    1.44    0.41
   9  -5  -3    1.55    0.39
  -9  -5   3    1.61    0.34
  -9   5   3    1.73    0.30
   9   5  -3    2.08    0.46
  -9   5   3    1.76    0.47
  -7  -5   3    7.37    0.65
   7  -5  -3    7.27    0.48
   7  -5  -3    8.29    0.72
  -7  -5   3    7.64    0.82
   7   5  -3    8.08    0.86
  -7   5   3    7.59    0.59
  -7   5   3    8.26    0.93
   5  -5  -3   15.26    0.96
   5  -5  -3   15.24    0.81
  -5  -5   3   15.77    1.08
  -5  -5   3   16.69    0.99
   5   5  -3   16.22    1.17
  -5   5   3   15.60    0.82
  -5   5   3   13.97    1.14
  -3  -5   3  157.67    3.79
   3  -5  -3  154.36    3.64
   3  -5  -3  154.35    3.71
  -3  -5   3  153.44    4.05
  -3   5   3  151.13    3.44
  -3   5   3  157.89    4.43
   3   5  -3  155.28    4.34
  -1  -5   3    2.55    0.44
  -1  -5   3    2.40    0.40
   1  -5  -3    3.25    0.46
   1  -5  -3    2.10    0.33
  -1   5   3    2.52    0.53
   1   5  -3    2.61    0.54
  -1   5   3    2.30    0.21
  -1  -5  -3   22.86    1.12
   1  -5   3   23.88    1.23
  -1  -5  -3   23.34    1.18
   1   5   3   21.84    1.44
  -1   5  -3   24.50    1.46
   3  -5   3    0.84    0.07
  -3  -5  -3    0.75    0.23
   3  -5   3    0.55    0.25
  -3  -5  -3    0.48    0.20
  -3   5  -3    0.69    0.25
  -3   5  -3    0.89    0.23
   3   5   3    0.65    0.32
  -5  -5  -3  451.20    9.03
   5  -5   3  471.57    8.57
   5  -5   3  440.84    8.62
  -5  -5  -3  447.24    8.31
   5   5   3  474.17    9.63
  -5   5  -3  479.95    8.83
   7  -5   3    4.70    0.41
   7  -5   3    3.55    0.54
  -7  -5  -3    4.19    0.59
  -7  -5  -3    4.33    0.41
   7   5   3    4.64    0.74
  -7   5  -3    4.22    0.41
  -7   5  -3    3.73    0.59
  -9  -5  -3   43.46    1.55
  -9  -5  -3   43.85    1.95
   9  -5   3   42.61    1.79
   9  -5   3   46.90    1.69
   9   5   3   45.78    2.19
  -9   5  -3   45.85    1.56
  -9   5  -3   43.66    1.98
 -11  -5  -3    5.26    0.72
 -11  -5  -3    5.29    0.43
  11  -5   3    5.16    0.53
  11  -5   3    4.42    0.61
 -11   5  -3    3.78    0.63
  11   5   3    4.79    0.77
  13  -5   3  133.79    3.69
 -13  -5  -3  144.11    4.17
  13  -5   3  141.97    3.89
  13   5   3  132.68    4.20
 -13   5  -3  134.62    3.97
  15  -5   3   10.96    0.93
  15  -5   3   12.57    0.93
 -15  -5  -3   11.39    1.05
  15   5   3   11.84    1.09
 -15   5  -3   10.80    1.00
  17  -5   3    3.43    0.57
 -17  -5  -3    2.94    0.60
  17  -5   3    2.66    0.45
  17   5   3    2.31    0.57
 -17   5  -3    3.24    0.60
 -19  -5  -3   20.04    1.46
  19  -5   3   16.70    1.30
  19  -5   3   18.90    1.19
  19   5   3   16.35    1.37
 -19   5  -3   17.55    1.33
 -21  -5  -3   31.09    1.93
  21  -5   3   32.95    1.66
  21  -5   3   33.47    2.00
  21   5   3   31.33    1.99
 -21   5  -3   32.83    1.93
  23  -5   3   22.51    1.67
 -23  -5  -3   20.84    1.58
 -23   5  -3   20.70    1.55
  23   5   3   23.35    1.72
 -25  -5  -3    7.23    0.95
  25  -5   3    6.92    0.93
  25   5   3    7.20    1.01
 -25   5  -3    6.67    0.93
  24  -6  -3   55.63    2.85
 -24  -6   3   58.32    2.86
  24  -6  -3   54.88    2.43
  24   6  -3   55.07    2.71
 -24   6   3   55.02    2.75
  22  -6  -3    0.59    0.18
 -22  -6   3    0.90    0.20
 -22   6   3    0.83    0.23
 -20  -6   3   25.60    1.77
  20  -6  -3   25.38    1.71
  20  -6  -3   25.12    1.57
  20   6  -3   27.59    1.79
 -20   6   3   25.53    1.74
 -18  -6   3   12.48    1.17
 -18  -6   3   12.97    0.94
  18  -6  -3   12.37    1.05
 -18   6   3   12.16    1.04
 -18   6   3   11.00    1.16
  18   6  -3   13.05    1.16
  16  -6  -3   59.77    2.43
 -16  -6   3   59.11    2.68
 -16  -6   3   62.82    2.32
 -16   6   3   58.88    2.47
 -16   6   3   56.25    2.62
  16   6  -3   58.51    2.69
 -14  -6   3   25.93    1.67
 -14  -6   3   25.94    1.40
  14  -6  -3   26.95    1.54
 -14   6   3   26.21    1.46
  14   6  -3   24.78    1.65
 -14   6   3   27.48    1.73
 -12  -6   3   65.84    2.37
  12  -6  -3   61.89    2.41
 -12  -6   3   62.33    2.66
 -12   6   3   65.06    2.37
 -12   6   3   64.70    2.77
  12   6  -3   59.63    2.65
 -10  -6   3   65.51    2.68
 -10  -6   3   71.03    2.45
  10  -6  -3   63.81    2.45
 -10   6   3   66.56    2.30
  10   6  -3   63.25    2.71
 -10   6   3   71.98    2.93
  -8  -6   3   99.56    3.35
  -8  -6   3  101.81    3.03
   8  -6  -3   94.03    3.03
  -8   6   3   99.31    3.57
   8   6  -3   98.86    3.50
   6  -6  -3   14.31    1.03
  -6  -6   3   15.18    1.05
  -6  -6   3   16.06    1.19
   6   6  -3   15.66    1.27
  -6   6   3   14.81    1.27
  -4  -6   3    8.41    0.89
   4  -6  -3    9.66    0.69
   4  -6  -3    8.59    0.78
  -4  -6   3    8.92    0.79
  -4   6   3    9.54    1.08
   4   6  -3   10.34    1.02
   2  -6  -3   19.59    1.17
   2  -6  -3   19.98    1.10
  -2  -6   3   17.55    1.13
  -2  -6   3   19.46    1.27
   2   6  -3   17.35    1.37
  -2   6   3   17.96    1.42
   0  -6  -3   23.03    1.24
   0  -6   3   21.09    1.28
   0  -6   3   22.10    1.27
   0  -6  -3   20.11    1.18
   0   6   3   21.44    1.53
   0   6  -3   18.33    1.42
  -2  -6  -3   45.39    1.90
   2  -6   3   44.36    1.89
  -2  -6  -3   42.60    1.74
   2   6   3   42.02    2.21
  -2   6  -3   48.29    2.03
  -2   6  -3   44.12    2.25
   4  -6   3   34.58    1.66
  -4  -6  -3   36.71    1.56
  -4  -6  -3   33.65    1.68
   4   6   3   36.77    2.04
  -4   6  -3   38.93    1.75
  -4   6  -3   36.33    2.02
   6  -6   3   65.82    2.39
  -6  -6  -3   67.25    2.53
  -6  -6  -3   65.89    2.18
   6   6   3   65.19    2.81
  -6   6  -3   69.18    2.36
  -6   6  -3   58.56    2.64
   8  -6   3   28.41    1.51
  -8  -6  -3   26.65    1.28
  -8  -6  -3   27.23    1.58
   8   6   3   28.36    1.80
  -8   6  -3   26.47    1.68
 -10  -6  -3   62.83    2.60
  10  -6   3   65.76    2.48
 -10  -6  -3   67.36    2.16
  10   6   3   66.77    2.95
 -10   6  -3   63.97    2.74
 -12  -6  -3    7.12    0.88
  12  -6   3    7.48    0.84
 -12   6  -3    6.99    0.92
  12   6   3    8.89    1.09
 -14  -6  -3   34.93    1.99
  14  -6   3   36.68    1.84
  14  -6   3   37.44    1.75
 -14   6  -3   36.55    2.03
  14   6   3   37.07    2.20
  16  -6   3    1.03    0.26
 -16  -6  -3    0.82    0.24
  16  -6   3    0.39    0.10
  16   6   3    0.68    0.29
 -16   6  -3    0.70    0.22
 -18  -6  -3   37.57    2.17
  18  -6   3   38.40    1.97
  18  -6   3   38.19    1.90
 -18   6  -3   34.05    2.05
  18   6   3   36.88    2.25
  20  -6   3    2.09    0.42
 -20  -6  -3    1.19    0.37
 -20   6  -3    0.91    0.28
  20   6   3    0.91    0.32
 -22  -6  -3   22.02    1.70
  22  -6   3   25.15    1.47
  22  -6   3   24.09    1.65
  22   6   3   23.14    1.81
 -22   6  -3   20.92    1.63
  21  -7  -3    8.42    0.93
 -21  -7   3    9.31    1.13
 -21   7   3    9.45    1.15
  21   7  -3    9.80    0.92
  19  -7  -3   13.15    1.15
 -19  -7   3   13.22    1.26
  19   7  -3   15.31    1.30
 -19   7   3   13.86    1.33
 -17  -7   3   16.81    1.43
 -17  -7   3   17.53    1.19
  17  -7  -3   15.98    1.28
 -17   7   3   16.13    1.44
  17   7  -3   16.82    1.38
 -15  -7   3   66.76    2.55
  15  -7  -3   63.67    2.70
 -15  -7   3   66.91    2.99
 -15   7   3   65.55    3.07
  15   7  -3   61.84    2.89
  13  -7  -3    1.77    0.44
 -13  -7   3    1.72    0.36
 -13  -7   3    1.92    0.51
 -13   7   3    1.88    0.55
  13   7  -3    1.74    0.34
 -11  -7   3   29.00    1.82
  11  -7  -3   29.07    1.69
 -11  -7   3   33.31    1.69
  11   7  -3   27.84    1.83
 -11   7   3   29.71    1.96
  -9  -7   3    4.92    0.65
  -9  -7   3    5.23    0.77
   9  -7  -3    5.60    0.76
  -9   7   3    4.51    0.81
   9   7  -3    5.67    0.82
  -7  -7   3   78.48    2.80
   7  -7  -3   84.25    2.95
  -7  -7   3   80.55    3.12
  -7   7   3   82.53    3.49
   7   7  -3   78.08    3.27
  -5  -7   3    0.85    0.27
  -5  -7   3    0.31    0.14
   5  -7  -3    0.33    0.21
   5   7  -3    0.40    0.29
  -5   7   3    0.03    0.18
   3  -7  -3   18.80    1.26
   3  -7  -3   20.21    1.18
  -3  -7   3   19.97    1.38
  -3  -7   3   17.79    1.22
   3   7  -3   18.33    1.48
  -3   7   3   19.77    1.58
   1  -7  -3    1.05    0.23
  -1  -7   3    0.39    0.21
   1  -7  -3    0.97    0.32
  -1  -7   3    0.81    0.26
  -1   7   3    1.08    0.45
   1   7  -3    1.03    0.40
   1  -7   3  155.07    4.24
  -1  -7  -3  148.00    4.03
  -1  -7  -3  156.59    4.26
   1   7   3  159.32    4.99
  -1   7  -3  158.66    4.50
  -1   7  -3  150.32    4.94
  -3  -7  -3    4.30    0.60
  -3  -7  -3    4.32    0.58
   3  -7   3    3.72    0.62
   3   7   3    4.30    0.79
  -3   7  -3    4.56    0.62
  -3   7  -3    5.02    0.88
   5  -7   3   75.49    2.81
  -5  -7  -3   78.90    2.94
  -5  -7  -3   76.50    2.59
   5   7   3   74.33    3.25
  -5   7  -3   81.30    2.85
  -5   7  -3   80.28    3.37
   7  -7   3    0.26    0.14
  -7  -7  -3    0.63    0.15
  -7  -7  -3    1.12    0.31
   7   7   3    1.14    0.45
  -7   7  -3    0.83    0.31
   9  -7   3  159.25    4.49
  -9  -7  -3  163.03    4.12
  -9  -7  -3  159.65    4.74
  -9   7  -3  167.91    5.21
  11  -7   3    8.68    0.95
 -11  -7  -3   10.15    1.09
 -11   7  -3   10.98    1.24
  11   7   3    8.88    1.16
  13  -7   3   28.12    1.66
 -13  -7  -3   27.13    1.78
 -13   7  -3   25.96    1.83
  13   7   3   25.00    1.89
 -15  -7  -3    9.03    1.08
  15  -7   3    8.93    0.96
  15   7   3    7.37    1.10
 -15   7  -3    9.04    1.13
 -17  -7  -3   28.46    1.91
  17  -7   3   28.71    1.68
  17   7   3   31.22    2.19
 -17   7  -3   27.13    1.93
  19  -7   3   31.85    1.78
 -19  -7  -3   31.58    2.07
 -19   7  -3   25.71    1.91
  19   7   3   26.93    2.06
 -16  -8   3   28.99    1.66
 -16  -8   3   27.49    1.93
  16  -8  -3   24.41    1.68
  16   8  -3   25.76    1.80
 -16   8   3   25.61    1.96
 -14  -8   3   22.91    1.72
 -14  -8   3   25.84    1.55
  14  -8  -3   23.11    1.62
  14   8  -3   22.06    1.62
 -14   8   3   23.12    1.85
  12  -8  -3   52.11    2.52
 -12  -8   3   54.48    2.39
 -12  -8   3   54.17    2.71
  12   8  -3   54.01    2.73
 -12   8   3   53.02    2.93
  10  -8  -3   16.30    1.30
 -10  -8   3   17.62    1.25
 -10  -8   3   19.00    1.48
  10   8  -3   18.66    1.48
 -10   8   3   16.97    1.56
  -8  -8   3   13.22    1.20
  -8  -8   3   13.40    1.08
   8  -8  -3   12.28    1.11
  -8   8   3   12.92    1.44
   8   8  -3   12.45    1.15
  -6  -8   3   23.22    1.46
   6  -8  -3   21.50    1.48
  -6  -8   3   21.51    1.53
   6   8  -3   21.82    1.68
  -6   8   3   22.13    1.81
  -4  -8   3   40.95    2.03
   4  -8  -3   43.99    2.14
  -4  -8   3   42.96    2.21
   4   8  -3   44.63    2.50
  -4   8   3   43.63    2.58
   2  -8  -3    9.18    0.88
  -2  -8   3    9.98    0.95
   2   8  -3   10.86    1.25
  -2   8   3   11.17    1.32
   0  -8  -3    8.22    0.88
   0  -8   3    8.41    0.94
   0  -8  -3    7.55    0.82
   0   8  -3    8.48    0.85
   0   8  -3    9.20    1.18
   0   8   3   10.75    1.28
   2  -8   3   24.96    1.56
  -2  -8  -3   27.83    1.60
  -2  -8  -3   26.48    1.54
   2   8   3   26.70    1.97
  -2   8  -3   26.81    1.95
  -2   8  -3   27.34    1.67
  -4  -8  -3   23.22    1.50
  -4  -8  -3   22.85    1.36
   4  -8   3   25.28    1.59
   4   8   3   23.70    1.81
  -4   8  -3   24.59    1.86
  -6  -8  -3   55.36    2.25
   6  -8   3   55.83    2.52
  -6  -8  -3   48.52    2.35
  -6   8  -3   54.22    2.91
   6   8   3   54.34    2.88
   8  -8   3    9.70    1.05
  -8  -8  -3    9.81    0.82
  -8  -8  -3    9.08    0.98
  -8   8  -3    9.52    1.25
   8   8   3    7.96    1.11
  10  -8   3   33.80    1.94
 -10  -8  -3   34.03    2.02
  10   8   3   35.91    2.32
 -10   8  -3   35.51    2.33
 -12  -8  -3   10.97    1.09
  12  -8   3   11.20    1.04
 -12   8  -3   11.72    1.36
  12   8   3   12.51    1.41
  14  -8   3   45.55    2.30
 -14  -8  -3   43.22    2.44
 -14   8  -3   46.18    2.74
  14   8   3   49.16    2.82
 -16  -8  -3    0.25    0.09
  16   8   3    0.43    0.16
 -16   8  -3    0.93    0.16
  -9  -9   3    1.17    0.10
   9  -9  -3    0.63    0.17
  -9   9   3    0.83    0.21
  -7  -9   3   35.03    2.09
   7  -9  -3   32.39    1.94
  -7  -9   3   31.87    1.82
   7   9  -3   31.40    2.06
  -7   9   3   33.84    2.37
   5  -9  -3    1.15    0.25
  -5  -9   3    1.37    0.24
   5   9  -3    1.99    0.39
  -5   9   3    1.63    0.46
   3  -9  -3   23.32    1.55
  -3  -9   3   24.55    1.60
   3   9  -3   22.38    1.57
  -3   9   3   23.59    1.91
   3   9  -3   24.74    1.81
  -1  -9   3    1.06    0.29
   1  -9  -3    0.78    0.15
  -1   9   3    0.96    0.29
   1   9  -3    1.15    0.18
   1  -9   3   28.80    1.79
  -1  -9  -3   28.17    1.67
  -1   9  -3   27.57    2.04
   1   9   3   27.00    2.05
  -3  -9  -3    0.66    0.14
   3  -9   3    0.39    0.12
  -3   9  -3    1.09    0.25
   3   9   3    0.21    0.09
  -5  -9  -3   61.24    2.76
   5  -9   3   63.67    2.81
  -5  -9  -3   60.59    2.53
   5   9   3   57.71    3.13
  -5   9  -3   60.06    3.22
  -7  -9  -3    4.83    0.61
  -7  -9  -3    3.76    0.70
   7  -9   3    5.63    0.82
   7   9   3    5.36    0.91
  -7   9  -3    6.53    1.00
  32   0  -4   19.27    1.58
 -32   0   4   17.05    1.27
  30   0  -4    5.61    0.90
 -30   0   4    6.53    0.77
  28   0  -4   14.26    1.36
 -28   0   4   15.65    1.13
 -26   0   4   67.65    3.13
 -26   0   4   65.58    2.45
  26   0  -4   69.29    2.26
 -24   0   4   62.13    2.26
  24   0  -4   63.27    2.10
 -24   0   4   67.26    2.95
  22   0  -4    4.85    0.44
 -22   0   4    4.23    0.72
 -22   0   4    3.89    0.51
 -20   0   4   70.05    1.93
 -20   0   4   67.99    2.18
  20   0  -4   69.30    2.10
 -20   0   4   75.17    2.90
 -18   0   4   11.81    1.01
  18   0  -4   12.24    0.74
 -18   0   4   12.12    0.63
 -18   0   4   11.32    0.74
 -16   0   4  502.31    9.19
  16   0  -4  517.57    9.06
 -16   0   4  527.29    9.08
 -16   0   4  535.70   10.70
 -14   0   4    0.77    0.14
 -14   0   4    0.90    0.29
  14   0  -4    0.80    0.23
 -14   0   4    0.95    0.20
  12   0  -4  245.68    4.62
 -12   0   4  235.49    4.52
  12   0  -4  243.60    4.17
 -12   0   4  240.84    5.50
 -12   0   4  245.75    4.50
 -10   0   4    3.68    0.48
  10   0  -4    3.94    0.28
 -10   0   4    4.13    0.30
 -10   0   4    3.55    0.32
  -8   0   4  192.23    4.40
   8   0  -4  188.60    3.54
  -8   0   4  194.82    3.62
  -8   0   4  190.88    3.45
   6   0  -4    4.47    0.29
  -6   0   4    4.49    0.33
  -6   0   4    4.21    0.45
  -6   0   4    4.69    0.24
   4   0  -4   11.55    0.48
  -4   0   4   12.10    0.50
  -4   0   4   11.93    0.32
  -4   0   4   11.44    0.75
  -2   0   4    0.52    0.22
  -2   0   4    0.56    0.14
   2   0  -4    0.56    0.15
   0   0  -4  575.06    9.85
   0   0   4  562.26   10.37
   0   0  -4  605.25    9.67
   0   0   4  576.20    9.20
   2   0   4    9.13    0.33
  -2   0  -4    8.83    0.45
  -2   0  -4    9.24    0.38
   2   0   4    8.18    0.52
   4   0   4  136.00    2.33
  -4   0  -4  139.59    2.63
  -4   0  -4  136.35    2.71
   6   0   4    6.13    0.48
  -6   0  -4    6.54    0.41
  -6   0  -4    6.77    0.41
   6   0   4    6.93    0.21
  -8   0  -4  124.26    2.66
   8   0   4  128.89    2.17
  -8   0  -4  126.35    2.69
   8   0   4  124.14    3.03
  10   0   4   25.14    0.59
  10   0   4   23.83    1.11
 -10   0  -4   22.46    0.94
 -10   0  -4   23.29    0.92
 -12   0  -4  119.64    2.75
  12   0   4  122.68    3.23
 -12   0  -4  119.85    2.86
  12   0   4  120.46    2.18
  14   0   4   13.74    0.95
 -14   0  -4   13.50    0.74
 -14   0  -4   13.47    0.80
  14   0   4   14.07    0.47
  16   0   4  162.89    4.30
 -16   0  -4  168.90    3.89
 -16   0  -4  162.92    3.70
 -18   0  -4   30.95    1.31
  18   0   4   30.96    1.64
 -18   0  -4   29.36    1.40
 -20   0  -4  148.43    3.69
 -20   0  -4  150.16    3.91
  20   0   4  152.22    4.42
 -22   0  -4    4.60    0.63
  22   0   4    5.02    0.76
 -22   0  -4    6.49    0.55
 -24   0  -4   51.52    2.23
  24   0   4   56.37    2.64
 -26   0  -4   18.40    1.32
  26   0   4   18.15    1.48
 -28   0  -4   29.42    1.78
  28   0   4   29.06    2.01
  30   0   4   27.51    1.98
 -30   0  -4   24.74    1.69
 -31  -1   4    0.41    0.13
  31  -1  -4    0.29    0.18
 -31   1   4    0.54    0.13
  29  -1  -4   53.89    2.96
 -29  -1   4   54.99    2.33
  29   1  -4   53.43    2.72
 -29   1   4   56.00    2.41
  27  -1  -4    0.80    0.06
 -27  -1   4    1.22    0.28
 -27   1   4    1.17    0.30
 -27   1   4    0.59    0.16
  27   1  -4    0.65    0.16
  25  -1  -4   50.91    1.91
 -25  -1   4   50.60    2.06
  25   1  -4   49.73    1.82
 -25   1   4   52.48    2.75
 -25   1   4   50.92    2.10
  23  -1  -4    0.40    0.13
 -23  -1   4    0.82    0.28
 -23  -1   4    0.82    0.22
 -23  -1   4    0.89    0.17
 -23   1   4    0.33    0.12
  23   1  -4    0.82    0.17
 -23   1   4    0.70    0.30
  21  -1  -4   92.20    2.65
 -21  -1   4  102.51    3.44
 -21  -1   4   97.96    2.84
 -21  -1   4   99.13    2.77
 -21   1   4  101.81    2.91
 -21   1   4  103.61    3.74
  21   1  -4  100.54    2.68
 -19  -1   4   17.52    0.98
 -19  -1   4   16.33    1.16
  19  -1  -4   17.21    0.93
 -19  -1   4   18.60    0.98
 -19   1   4   16.62    0.96
 -19   1   4   17.76    1.36
  19   1  -4   17.66    0.94
  17  -1  -4   83.27    2.28
 -17  -1   4   85.01    2.37
 -17  -1   4   84.30    2.35
 -17  -1   4   83.71    2.25
 -17  -1   4   90.69    2.91
 -17   1   4   85.24    2.37
 -17   1   4   80.42    3.03
  15  -1  -4   46.81    1.53
  15  -1  -4   46.70    1.12
 -15  -1   4   47.75    1.55
 -15  -1   4   47.68    1.51
 -15  -1   4   44.25    1.54
 -15  -1   4   47.48    1.92
 -15   1   4   47.85    1.55
 -15   1   4   46.83    2.08
 -13  -1   4  242.07    4.79
  13  -1  -4  236.48    4.60
  13  -1  -4  239.01    4.16
 -13  -1   4  236.31    4.57
 -13  -1   4  236.71    4.62
 -13  -1   4  245.24    5.38
 -13   1   4  233.17    4.61
 -13   1   4  229.24    5.60
 -11  -1   4   62.36    1.68
 -11  -1   4   61.60    1.75
  11  -1  -4   62.54    1.32
 -11  -1   4   63.02    1.62
 -11  -1   4   62.78    2.03
  11  -1  -4   61.53    1.68
 -11   1   4   63.33    1.66
 -11   1   4   64.60    2.27
  -9  -1   4   42.68    1.16
   9  -1  -4   42.70    0.95
   9  -1  -4   41.19    1.24
  -9  -1   4   41.62    1.51
  -9  -1   4   42.73    1.31
  -9  -1   4   40.44    1.23
  -9   1   4   41.09    1.18
  -9   1   4   39.72    1.65
  -7  -1   4   49.95    1.34
   7  -1  -4   52.61    1.10
  -7  -1   4   50.85    1.22
  -7  -1   4   51.09    1.65
   7  -1  -4   50.65    1.35
  -7  -1   4   50.07    1.41
  -7   1   4   50.50    1.83
  -7   1   4   52.03    1.28
   5  -1  -4  224.88    4.00
   5  -1  -4  232.96    3.89
  -5  -1   4  223.38    4.01
  -5  -1   4  215.00    4.62
   5   1  -4  224.73    3.89
   5   1  -4  217.77    4.19
  -5   1   4  214.21    4.87
  -5   1   4  230.78    3.98
  -3  -1   4  145.78    3.30
   3  -1  -4  152.50    2.73
  -3  -1   4  147.03    2.78
   3  -1  -4  152.53    2.76
   3   1  -4  144.09    2.74
  -3   1   4  141.24    3.51
   3   1  -4  143.61    2.94
  -3   1   4  155.14    2.83
  -1  -1   4  129.18    2.95
  -1  -1   4  135.28    2.57
   1  -1  -4  142.63    2.63
   1  -1  -4  140.25    2.51
  -1   1   4  134.45    3.18
   1   1  -4  138.44    2.76
   1   1  -4  137.42    2.45
  -1   1   4  140.16    2.77
   1  -1   4  366.20    7.17
   1  -1   4  379.55    6.47
  -1  -1  -4  407.12    6.80
  -1  -1  -4  411.89    6.39
   1   1   4  400.52    6.77
   1   1   4  397.63    7.39
  -1   1  -4  404.57    6.54
  -3  -1  -4  498.17    7.67
   3  -1   4  465.16    8.65
  -3  -1  -4  495.83    8.23
  -3  -1  -4  454.09    8.05
   3  -1   4  450.62    7.73
   3   1   4  481.59    8.73
  -3   1  -4  491.57    8.19
  -3   1  -4  503.33    7.97
  -5  -1  -4  264.38    4.57
  -5  -1  -4  266.49    4.95
   5  -1   4  272.97    4.63
   5  -1   4  260.53    5.33
   5   1   4  274.31    5.34
  -5   1  -4  287.79    4.89
  -5   1  -4  285.10    4.94
  -7  -1  -4   83.24    2.01
   7  -1   4   80.93    2.20
   7  -1   4   81.15    1.70
  -7  -1  -4   82.16    2.02
  -7   1  -4   81.99    1.93
   7   1   4   81.31    2.15
  -7   1  -4   79.80    1.84
   9  -1   4  141.14    3.48
  -9  -1  -4  148.16    3.21
   9  -1   4  149.66    2.78
  -9  -1  -4  147.58    3.20
   9   1   4  148.32    3.43
  -9   1  -4  143.03    2.96
  -9   1  -4  148.12    3.12
  11  -1   4   40.40    1.58
  11  -1   4   40.04    1.08
 -11  -1  -4   39.07    1.37
 -11  -1  -4   38.79    1.38
 -11   1  -4   38.33    1.34
 -11   1  -4   38.62    1.19
  11   1   4   38.49    1.49
  13  -1   4  124.93    2.51
  13  -1   4  118.97    3.34
 -13  -1  -4  119.64    2.98
 -13  -1  -4  122.95    3.03
  13   1   4  119.64    3.22
 -13   1  -4  121.52    2.72
 -13   1  -4  126.25    2.99
  15  -1   4    3.00    0.22
 -15  -1  -4    2.64    0.39
  15  -1   4    1.74    0.40
 -15  -1  -4    2.59    0.40
  15   1   4    2.78    0.45
 -15   1  -4    2.69    0.30
 -15   1  -4    1.87    0.34
  17  -1   4   95.63    3.17
 -17  -1  -4   90.76    2.72
  17  -1   4   97.29    2.18
 -17  -1  -4   95.90    2.72
  17   1   4   93.33    2.98
 -17   1  -4   98.08    2.79
 -17   1  -4   93.73    2.41
  19  -1   4    7.97    0.92
 -19  -1  -4    7.92    0.67
 -19  -1  -4    6.67    0.67
 -19   1  -4    8.62    0.58
  19   1   4    7.97    0.80
 -19   1  -4    8.37    0.75
 -21  -1  -4   95.34    2.93
  21  -1   4   93.08    3.41
 -21  -1  -4   93.04    2.94
  21   1   4   94.20    3.27
 -21   1  -4   91.26    2.97
 -23  -1  -4    3.79    0.60
 -23  -1  -4    3.36    0.49
  23  -1   4    2.88    0.65
 -23   1  -4    3.15    0.56
  23   1   4    2.34    0.53
 -25  -1  -4   55.45    2.40
  25  -1   4   62.17    2.95
 -25  -1  -4   64.86    2.46
 -25   1  -4   64.00    2.57
  25   1   4   58.26    2.68
  27  -1   4    1.11    0.33
 -27  -1  -4    0.67    0.21
  27   1   4    0.94    0.28
 -27   1  -4    0.63    0.22
  29  -1   4   34.39    2.32
 -29  -1  -4   34.16    1.96
  29   1   4   35.07    2.15
 -29   1  -4   34.98    1.99
 -30  -2   4   44.54    2.17
  30  -2  -4   46.12    2.85
 -30   2   4   48.24    2.30
  30   2  -4   48.85    2.48
 -28  -2   4   22.24    1.40
  28  -2  -4   21.79    1.24
 -28   2   4   20.44    1.37
  28   2  -4   22.49    1.50
  26  -2  -4   18.18    1.11
 -26  -2   4   17.98    1.20
 -26   2   4   18.34    1.64
 -26   2   4   17.15    1.20
  26   2  -4   16.37    1.25
 -24  -2   4   22.24    1.29
  24  -2  -4   18.99    1.14
 -24  -2   4   22.92    1.31
 -24   2   4   20.80    1.70
  24   2  -4   21.80    1.41
 -24   2   4   21.12    1.28
  24   2  -4   21.60    1.10
  22  -2  -4   17.50    1.06
 -22  -2   4   18.82    1.02
 -22  -2   4   20.33    1.32
 -22  -2   4   19.96    1.17
 -22  -2   4   19.71    1.18
 -22   2   4   18.66    1.16
 -22   2   4   21.06    1.64
 -20  -2   4  147.47    3.71
 -20  -2   4  147.73    3.85
  20  -2  -4  147.23    3.59
 -20  -2   4  142.22    4.01
 -20  -2   4  145.62    3.46
 -20   2   4  138.70    4.62
 -20   2   4  139.36    3.66
 -18  -2   4    2.57    0.36
 -18  -2   4    3.19    0.46
 -18  -2   4    2.91    0.42
  18  -2  -4    2.26    0.36
 -18  -2   4    2.48    0.43
 -18   2   4    2.50    0.41
 -18   2   4    2.78    0.60
 -16  -2   4  132.64    3.42
 -16  -2   4  131.61    3.52
 -16  -2   4  132.74    3.23
 -16  -2   4  128.06    3.07
  16  -2  -4  130.68    3.16
 -16   2   4  131.29    3.25
 -16   2   4  124.02    4.00
 -14  -2   4    0.81    0.25
 -14  -2   4    1.29    0.26
 -14  -2   4    1.41    0.25
  14  -2  -4    0.80    0.23
 -14  -2   4    0.83    0.21
 -14   2   4    1.34    0.37
 -14   2   4    1.17    0.28
  12  -2  -4  241.38    4.77
 -12  -2   4  243.75    5.12
 -12  -2   4  245.77    5.18
 -12  -2   4  241.82    4.69
 -12  -2   4  235.75    4.80
 -12   2   4  248.80    4.88
 -12   2   4  241.66    5.78
  10  -2  -4    8.02    0.55
 -10  -2   4    8.20    0.53
 -10  -2   4    7.04    0.52
 -10  -2   4    8.31    0.61
 -10   2   4    7.54    0.70
 -10   2   4    7.55    0.53
  -8  -2   4  142.86    3.24
  -8  -2   4  133.20    2.87
   8  -2  -4  139.07    2.44
   8  -2  -4  137.46    2.93
  -8  -2   4  138.41    3.10
   8   2  -4  133.48    2.91
  -8   2   4  139.11    2.98
  -8   2   4  131.70    3.56
   6  -2  -4    5.26    0.39
   6  -2  -4    5.34    0.26
  -6  -2   4    5.69    0.47
  -6  -2   4    5.58    0.39
  -6  -2   4    4.41    0.36
  -6   2   4    4.96    0.39
  -6   2   4    4.57    0.49
   6   2  -4    5.15    0.39
  -4  -2   4  124.81    2.84
   4  -2  -4  124.10    2.61
  -4  -2   4  125.18    2.65
   4  -2  -4  131.22    2.45
  -4   2   4  130.49    2.84
  -4   2   4  127.52    3.25
   4   2  -4  125.97    2.83
   2  -2  -4    3.65    0.27
  -2  -2   4    3.97    0.31
  -2  -2   4    3.63    0.32
   2  -2  -4    3.38    0.29
  -2   2   4    4.20    0.47
   2   2  -4    3.60    0.35
   2   2  -4    3.65    0.33
  -2   2   4    3.50    0.39
   0  -2  -4   27.79    0.91
   0  -2  -4   30.03    0.88
   0  -2   4   29.18    0.96
   0  -2   4   27.40    0.93
   0   2  -4   28.39    1.00
   0   2   4   27.61    1.14
   0   2   4   30.21    1.18
   0   2  -4   27.90    0.94
  -2  -2  -4   21.53    0.69
   2  -2   4   21.48    0.81
   2  -2   4   20.93    0.80
  -2  -2  -4   21.56    0.83
   2   2   4   20.79    0.91
   2   2   4   21.60    0.95
  -2   2  -4   21.07    0.78
  -2   2  -4   20.00    0.81
   4  -2   4  111.78    2.60
  -4  -2  -4  109.73    2.14
   4  -2   4  112.94    2.43
   4   2   4  109.67    2.64
  -4   2  -4  114.51    2.46
  -4   2  -4  115.36    2.47
   4   2   4  112.71    2.65
   6  -2   4    2.46    0.28
  -6  -2  -4    2.17    0.31
  -6  -2  -4    2.25    0.16
   6  -2   4    2.29    0.31
  -6   2  -4    2.35    0.26
  -6   2  -4    2.32    0.29
   6   2   4    2.38    0.34
   6   2   4    2.34    0.30
   8  -2   4  275.77    4.99
   8  -2   4  259.71    5.58
  -8  -2  -4  272.67    5.37
  -8  -2  -4  268.72    4.47
  -8  -2  -4  268.60    5.37
  -8   2  -4  272.42    5.21
   8   2   4  279.56    5.48
  -8   2  -4  271.02    4.98
  10  -2   4   22.80    0.89
 -10  -2  -4   22.56    0.56
 -10  -2  -4   23.80    1.09
  10  -2   4   22.22    1.12
 -10  -2  -4   22.11    1.06
 -10   2  -4   21.21    1.00
  10   2   4   23.10    1.04
  10   2   4   22.20    0.82
 -10   2  -4   22.31    0.82
 -12  -2  -4   89.52    2.55
 -12  -2  -4   91.34    2.57
 -12  -2  -4   88.84    1.63
  12  -2   4   93.96    2.22
  12  -2   4   91.91    2.78
 -12   2  -4   90.06    2.10
  12   2   4   92.06    2.14
 -12   2  -4   92.36    2.50
  12   2   4   91.89    2.56
 -14  -2  -4   16.45    0.99
  14  -2   4   16.25    1.10
 -14  -2  -4   16.66    1.00
  14  -2   4   18.28    0.81
 -14   2  -4   17.45    0.74
  14   2   4   16.30    0.98
 -14   2  -4   16.19    0.95
 -16  -2  -4   75.79    2.46
 -16  -2  -4   75.64    2.45
  16  -2   4   71.30    2.67
  16  -2   4   76.29    2.03
 -16   2  -4   74.81    1.93
 -16   2  -4   74.54    2.40
  16   2   4   73.51    2.44
 -18  -2  -4    9.23    0.80
 -18  -2  -4    9.26    0.80
  18  -2   4   10.61    0.59
  18  -2   4    9.98    0.96
  18   2   4    8.83    0.78
 -18   2  -4    8.81    0.79
  20  -2   4   71.21    2.92
 -20  -2  -4   72.15    2.57
 -20  -2  -4   68.42    2.49
 -20   2  -4   72.61    2.55
  20   2   4   68.33    2.56
 -22  -2  -4    9.38    0.87
  22  -2   4   10.00    1.06
 -22  -2  -4   10.59    0.91
 -22   2  -4   10.03    0.92
  22   2   4    9.56    0.87
 -24  -2  -4   73.14    2.79
 -24  -2  -4   76.03    2.85
  24  -2   4   75.96    3.29
 -24   2  -4   72.64    2.82
  24   2   4   73.90    2.92
  26  -2   4   17.76    1.55
 -26  -2  -4   19.36    1.32
 -26  -2  -4   18.53    1.35
 -26   2  -4   16.90    1.31
  26   2   4   16.29    1.28
 -28  -2  -4    9.56    1.05
  28  -2   4   10.10    1.27
  28   2   4   11.36    1.01
 -28   2  -4   10.53    1.03
 -30  -2  -4   23.90    1.65
  30  -2   4   24.70    1.99
 -30   2  -4   22.61    1.63
  30   2   4   23.65    1.62
  29  -3  -4   16.20    1.59
 -29  -3   4   17.14    1.27
 -29   3   4   14.78    1.19
 -27  -3   4    1.47    0.34
  27  -3  -4    2.44    0.21
 -27  -3   4    1.63    0.34
 -27   3   4    1.39    0.42
 -27   3   4    1.21    0.28
  25  -3  -4   65.26    2.42
 -25  -3   4   69.24    2.71
 -25  -3   4   67.50    2.64
  25   3  -4   68.43    2.64
 -25   3   4   66.39    3.31
 -25   3   4   66.67    2.61
  23  -3  -4    0.32    0.08
 -23  -3   4    0.87    0.13
 -23  -3   4    0.25    0.12
 -23  -3   4    0.62    0.16
 -23   3   4    0.57    0.24
 -23   3   4    0.34    0.13
 -21  -3   4   36.87    1.83
 -21  -3   4   39.98    1.60
 -21  -3   4   40.98    1.83
  21  -3  -4   38.55    1.70
 -21   3   4   39.47    2.29
 -21   3   4   41.32    1.85
  21   3  -4   42.13    1.79
 -19  -3   4    8.98    0.67
 -19  -3   4    8.14    0.71
  19  -3  -4    9.32    0.78
 -19  -3   4    9.36    0.84
 -19   3   4    8.18    1.02
 -19   3   4    9.31    0.80
 -17  -3   4  111.52    3.03
 -17  -3   4  103.35    3.22
  17  -3  -4  111.70    3.03
 -17  -3   4  107.42    2.83
 -17   3   4  110.19    3.09
  17   3  -4  113.05    3.10
 -17   3   4  106.36    3.74
 -15  -3   4   13.77    0.98
 -15  -3   4   15.05    0.85
 -15  -3   4   15.48    0.86
  15  -3  -4   14.76    0.91
 -15   3   4   14.38    0.92
  15   3  -4   15.03    0.92
 -15   3   4   15.54    1.19
 -13  -3   4   20.70    0.94
 -13  -3   4   20.24    1.18
 -13  -3   4   20.26    0.98
  13  -3  -4   19.94    1.04
 -13   3   4   19.47    1.28
 -13   3   4   21.53    1.09
  13   3  -4   18.71    1.01
 -11  -3   4   13.92    0.78
  11  -3  -4   14.60    0.85
 -11  -3   4   14.39    0.71
 -11  -3   4   15.24    0.97
 -11   3   4   14.83    1.03
 -11   3   4   13.95    0.85
  11   3  -4   15.28    0.87
   9  -3  -4   75.32    2.10
  -9  -3   4   75.18    2.04
  -9  -3   4   76.02    1.88
   9  -3  -4   74.51    1.52
  -9  -3   4   75.72    2.36
  -9   3   4   74.32    2.18
  -9   3   4   75.52    2.49
   9   3  -4   74.20    2.20
   7  -3  -4   42.39    1.44
  -7  -3   4   43.79    1.44
   7  -3  -4   44.16    1.11
  -7  -3   4   43.77    1.20
  -7  -3   4   42.64    1.64
  -7   3   4   43.15    1.56
  -7   3   4   44.96    1.74
   7   3  -4   43.81    1.60
   5  -3  -4   59.87    1.45
   5  -3  -4   58.15    1.69
  -5  -3   4   61.29    1.46
  -5  -3   4   58.37    1.71
   5   3  -4   55.89    1.90
  -5   3   4   61.21    1.96
  -5   3   4   60.88    2.01
  -3  -3   4  111.18    2.44
  -3  -3   4  112.35    2.61
   3  -3  -4  110.09    2.54
  -3  -3   4  111.12    2.82
   3  -3  -4  114.58    2.42
  -3   3   4  109.84    2.90
   3   3  -4  111.18    2.90
  -3   3   4  110.77    2.97
  -1  -3   4  143.65    3.10
   1  -3  -4  143.07    2.99
  -1  -3   4  139.26    2.90
   1  -3  -4  139.28    2.94
   1   3  -4  138.09    3.24
   1   3  -4  137.84    3.30
  -1   3   4  139.22    3.40
  -1   3   4  140.90    3.52
   1  -3   4  121.60    2.64
  -1  -3  -4  123.58    2.63
  -1  -3  -4  125.29    2.81
   1  -3   4  126.41    2.84
   1   3   4  122.65    3.25
   1   3   4  127.19    3.06
  -1   3  -4  124.84    2.97
  -1   3  -4  122.73    2.89
  -3  -3  -4   65.94    1.66
   3  -3   4   69.70    1.79
   3  -3   4   67.50    1.88
  -3  -3  -4   67.34    1.90
   3   3   4   66.91    1.90
   3   3   4   68.62    2.22
  -3   3  -4   67.58    1.94
  -3   3  -4   68.47    1.88
   5  -3   4  155.31    3.41
  -5  -3  -4  156.55    3.50
   5  -3   4  154.37    3.33
  -5  -3  -4  150.03    3.02
   5   3   4  147.99    3.68
  -5   3  -4  151.63    3.42
   5   3   4  155.36    3.44
  -5   3  -4  151.18    3.28
  -7  -3  -4  125.78    2.58
  -7  -3  -4  128.50    3.15
   7  -3   4  126.06    3.11
   7  -3   4  128.77    2.97
   7   3   4  129.55    3.02
  -7   3  -4  128.76    3.05
  -7   3  -4  128.44    2.81
   7   3   4  124.93    3.26
   9  -3   4   53.88    1.87
  -9  -3  -4   54.83    1.89
   9  -3   4   56.68    1.75
  -9  -3  -4   53.58    1.34
   9   3   4   53.41    1.93
   9   3   4   56.04    1.72
  -9   3  -4   56.00    1.54
  -9   3  -4   55.73    1.83
  11  -3   4    3.69    0.50
  11  -3   4    4.24    0.45
 -11  -3  -4    3.88    0.25
 -11  -3  -4    3.36    0.49
  11   3   4    4.03    0.38
  11   3   4    3.35    0.50
 -11   3  -4    3.45    0.28
 -11   3  -4    4.22    0.51
  13  -3   4   53.54    2.10
  13  -3   4   59.07    1.83
 -13  -3  -4   52.10    2.01
 -13   3  -4   55.11    1.98
  13   3   4   55.54    2.07
 -13   3  -4   53.75    1.47
  13   3   4   54.12    1.84
  15  -3   4    4.47    0.65
 -15  -3  -4    4.32    0.62
  15  -3   4    5.35    0.47
 -15  -3  -4    4.67    0.63
  15   3   4    5.40    0.51
 -15   3  -4    4.02    0.56
  17  -3   4   47.93    1.70
 -17  -3  -4   48.23    2.06
 -17  -3  -4   49.30    2.08
  17  -3   4   45.29    2.15
  17   3   4   48.54    1.87
 -17   3  -4   46.21    1.95
  19  -3   4    2.29    0.55
 -19  -3  -4    2.29    0.51
  19  -3   4    3.14    0.28
 -19  -3  -4    2.10    0.47
  19   3   4    2.59    0.43
 -19   3  -4    2.19    0.46
 -21  -3  -4   69.97    2.70
 -21  -3  -4   70.64    2.75
  21  -3   4   68.15    2.98
  21   3   4   68.15    2.53
 -21   3  -4   67.50    2.61
 -23  -3  -4    5.03    0.72
  23  -3   4    4.55    0.79
 -23  -3  -4    5.45    0.74
 -23   3  -4    4.09    0.67
  23   3   4    4.89    0.61
 -25  -3  -4   41.35    2.11
 -25  -3  -4   33.57    1.92
  25  -3   4   30.21    2.08
  25   3   4   36.07    1.85
 -25   3  -4   35.68    1.97
 -27  -3  -4    1.82    0.35
  27  -3   4    1.37    0.47
 -27  -3  -4    0.68    0.21
 -27   3  -4    0.61    0.24
  27   3   4    1.16    0.11
 -29  -3  -4   34.11    1.98
 -29  -3  -4   29.14    1.90
  29  -3   4   29.12    2.18
  29   3   4   30.75    1.78
 -29   3  -4   29.53    1.90
  28  -4  -4    9.28    0.75
  28  -4  -4    8.68    1.21
 -28  -4   4    8.37    0.95
 -28   4   4    8.71    0.95
  28   4  -4    7.82    0.71
  26  -4  -4   19.56    1.23
 -26  -4   4   20.60    1.46
 -26   4   4   17.12    1.58
 -26   4   4   18.10    1.35
  26   4  -4   19.77    1.36
  24  -4  -4   16.92    1.15
 -24  -4   4   16.92    1.29
 -24   4   4   15.87    1.47
  24   4  -4   16.94    1.24
 -24   4   4   16.04    1.23
 -22  -4   4    9.63    0.74
  22  -4  -4    9.18    0.83
 -22  -4   4    9.27    0.92
 -22   4   4    9.53    0.90
 -22   4   4    8.82    1.11
  22   4  -4   10.33    0.92
  20  -4  -4   33.32    1.64
 -20  -4   4   34.93    1.55
 -20  -4   4   34.44    1.86
 -20   4   4   33.53    2.07
 -20   4   4   36.59    1.81
  20   4  -4   36.13    1.80
  18  -4  -4    1.27    0.37
 -18  -4   4    1.29    0.29
 -18  -4   4    1.80    0.45
  18   4  -4    1.42    0.33
 -18   4   4    1.41    0.37
 -18   4   4    1.14    0.38
 -16  -4   4   60.38    2.44
 -16  -4   4   64.91    2.10
  16  -4  -4   60.71    2.18
 -16   4   4   61.69    2.64
  16   4  -4   62.68    2.32
 -16   4   4   59.46    2.26
  14  -4  -4    6.74    0.71
 -14  -4   4    6.72    0.58
 -14  -4   4    6.94    0.79
 -14   4   4    6.97    0.70
 -14   4   4    6.81    0.80
  14   4  -4    6.37    0.63
 -12  -4   4   46.93    2.01
  12  -4  -4   47.11    1.79
 -12  -4   4   48.96    1.74
 -12   4   4   51.87    2.12
  12   4  -4   46.74    1.89
 -12   4   4   44.95    1.84
  10  -4  -4    2.53    0.42
 -10  -4   4    1.75    0.41
 -10  -4   4    2.03    0.36
 -10   4   4    2.09    0.37
 -10   4   4    1.90    0.39
  10   4  -4    2.02    0.39
  -8  -4   4   32.19    1.33
  -8  -4   4   32.75    0.84
   8  -4  -4   33.31    1.02
  -8  -4   4   32.56    1.56
   8  -4  -4   33.18    1.38
   8   4  -4   30.68    1.51
  -8   4   4   32.65    1.47
  -8   4   4   32.10    1.50
  -6  -4   4    6.08    0.61
   6  -4  -4    4.86    0.52
   6  -4  -4    5.89    0.38
  -6  -4   4    5.35    0.55
  -6   4   4    5.23    0.64
  -6   4   4    7.02    0.58
   6   4  -4    5.72    0.65
   4  -4  -4   22.72    0.93
  -4  -4   4   22.12    1.19
   4  -4  -4   21.73    1.03
  -4  -4   4   22.39    1.08
  -4   4   4   21.84    1.27
  -4   4   4   22.22    1.07
   4   4  -4   23.95    1.30
   2  -4  -4    6.99    0.51
  -2  -4   4    7.19    0.63
   2  -4  -4    7.30    0.55
  -2  -4   4    7.19    0.32
  -2  -4   4    7.02    0.58
   2   4  -4    6.77    0.71
  -2   4   4    7.41    0.78
  -2   4   4    7.88    0.54
   0  -4  -4   97.52    2.44
   0  -4   4   96.93    2.60
   0  -4   4   97.61    2.16
   0  -4  -4   98.49    2.55
   0   4  -4   99.41    2.92
   0   4   4   97.61    3.05
   0   4   4   98.01    2.56
   0   4  -4  101.84    2.78
  -2  -4  -4    7.71    0.54
  -2  -4  -4    7.52    0.60
   2  -4   4    8.19    0.45
   2  -4   4    6.93    0.59
   2   4   4    7.17    0.79
  -2   4  -4    8.46    0.71
   2   4   4    8.31    0.56
  -2   4  -4    8.17    0.63
  -4  -4  -4   77.41    2.33
   4  -4   4   78.38    2.04
  -4  -4  -4   77.30    2.05
   4  -4   4   79.35    2.29
   4   4   4   82.81    2.20
   4   4   4   78.55    2.70
  -4   4  -4   76.45    2.41
  -4   4  -4   77.73    2.23
   6  -4   4   19.83    1.03
  -6  -4  -4   18.79    1.07
   6  -4   4   19.35    0.92
  -6  -4  -4   19.90    0.86
   6   4   4   18.50    0.87
   6   4   4   20.50    1.27
  -6   4  -4   18.08    0.91
  -6   4  -4   20.26    1.11
  -8  -4  -4   26.62    1.00
   8  -4   4   27.52    1.26
  -8  -4  -4   24.57    1.29
   8  -4   4   26.12    1.19
   8   4   4   26.62    1.46
   8   4   4   26.81    1.11
  -8   4  -4   26.22    1.08
  -8   4  -4   25.51    1.29
 -10  -4  -4    1.31    0.35
  10  -4   4    1.87    0.37
 -10  -4  -4    1.84    0.17
  10  -4   4    2.06    0.35
  10   4   4    1.19    0.40
 -10   4  -4    1.48    0.35
 -10   4  -4    1.68    0.23
  10   4   4    2.36    0.23
 -12  -4  -4   33.95    1.10
  12  -4   4   33.92    1.46
 -12  -4  -4   31.62    1.61
  12  -4   4   31.46    1.51
 -12   4  -4   32.16    1.54
 -12   4  -4   32.42    1.12
  12   4   4   30.67    1.64
  12   4   4   33.25    1.32
 -14  -4  -4   15.88    1.15
  14  -4   4   16.40    0.99
  14  -4   4   15.73    1.11
  14   4   4   16.14    1.20
  14   4   4   17.35    0.92
 -14   4  -4   14.91    1.06
 -16  -4  -4   20.96    1.38
  16  -4   4   20.02    1.12
  16  -4   4   19.15    1.31
  16   4   4   17.85    1.28
 -16   4  -4   20.31    1.30
  16   4   4   21.05    1.08
  18  -4   4    8.66    0.91
  18  -4   4    8.32    0.68
 -18  -4  -4    9.73    0.95
  18   4   4    9.01    0.98
 -18   4  -4    9.73    0.90
  18   4   4    9.78    0.70
 -20  -4  -4   45.44    2.27
  20  -4   4   45.32    2.33
  20  -4   4   46.94    1.88
 -20   4  -4   46.29    2.17
  20   4   4   46.88    2.27
 -22  -4  -4    6.38    0.86
  22  -4   4    7.55    0.97
  22   4   4    5.86    0.84
 -22   4  -4    6.76    0.85
 -24  -4  -4    7.45    0.92
  24  -4   4    6.20    0.93
 -24   4  -4    7.54    0.94
  24   4   4    5.22    0.82
  26  -4   4    6.86    1.02
 -26  -4  -4    8.84    1.01
  26   4   4    8.62    1.07
 -26   4  -4    8.80    1.04
  27  -5  -4    1.19    0.07
 -27  -5   4    0.95    0.18
  27  -5  -4    0.56    0.17
 -27   5   4    0.85    0.15
  25  -5  -4   15.38    1.11
 -25  -5   4   14.21    1.24
 -25   5   4   13.83    1.21
  25   5  -4   16.60    1.24
 -23  -5   4    0.57    0.18
  23  -5  -4    0.42    0.09
 -23   5   4    0.44    0.10
 -23   5   4    0.57    0.20
  21  -5  -4   26.75    1.56
 -21  -5   4   26.73    1.40
 -21  -5   4   26.23    1.70
 -21   5   4   26.58    1.80
 -21   5   4   24.02    1.56
  21   5  -4   28.10    1.69
  19  -5  -4    0.22    0.16
 -19  -5   4    0.44    0.22
  19   5  -4    0.00    0.08
 -19   5   4    0.31    0.18
 -17  -5   4   12.32    1.10
 -17  -5   4   12.23    0.89
  17  -5  -4   12.39    0.99
 -17   5   4   13.38    1.13
  17   5  -4   12.78    1.05
 -17   5   4   10.75    0.99
  15  -5  -4    4.85    0.66
 -15  -5   4    4.45    0.69
 -15  -5   4    5.63    0.62
 -15   5   4    4.53    0.67
 -15   5   4    4.16    0.61
  15   5  -4    5.16    0.71
 -13  -5   4   22.86    1.23
 -13  -5   4   24.89    1.53
  13  -5  -4   23.61    1.33
 -13   5   4   23.55    1.40
  13   5  -4   20.74    1.36
 -13   5   4   22.08    1.39
  11  -5  -4    2.19    0.46
 -11  -5   4    2.12    0.41
 -11  -5   4    2.30    0.51
  11   5  -4    2.61    0.50
 -11   5   4    2.26    0.38
 -11   5   4    2.03    0.48
  -9  -5   4   15.08    0.98
  -9  -5   4   15.23    1.14
   9  -5  -4   14.76    1.01
   9   5  -4   16.82    1.16
  -9   5   4   16.64    1.20
  -9   5   4   15.93    1.00
  -7  -5   4   10.71    0.93
  -7  -5   4   10.73    0.81
   7  -5  -4   10.98    0.84
   7  -5  -4   11.45    0.64
  -7   5   4   11.19    0.75
  -7   5   4   10.48    0.98
   7   5  -4   10.70    0.95
   5  -5  -4    1.34    0.22
   5  -5  -4    0.90    0.29
  -5  -5   4    1.13    0.34
  -5  -5   4    1.03    0.31
  -5   5   4    0.55    0.30
  -5   5   4    1.09    0.20
   5   5  -4    0.83    0.31
  -3  -5   4   33.34    1.61
   3  -5  -4   32.08    1.31
   3  -5  -4   29.87    1.36
  -3  -5   4   31.11    1.42
   3   5  -4   32.16    1.69
  -3   5   4   32.31    1.76
  -3   5   4   32.98    1.27
   1  -5  -4   30.96    1.34
  -1  -5   4   31.39    1.44
   1  -5  -4   30.36    1.33
   1   5  -4   29.82    1.64
  -1   5   4   29.52    1.69
  -1   5   4   31.10    1.18
   1  -5   4   18.42    1.08
  -1  -5  -4   19.58    1.02
  -1  -5  -4   18.92    1.06
  -1   5  -4   19.58    1.29
  -1   5  -4   19.57    1.17
   1   5   4   19.69    0.86
   1   5   4   20.13    1.38
  -3  -5  -4   32.28    1.33
   3  -5   4   30.25    1.43
  -3  -5  -4   31.32    1.47
  -3   5  -4   33.29    1.70
   3   5   4   30.63    1.72
  -3   5  -4   31.59    1.46
   5  -5   4   31.35    1.17
   5  -5   4   28.45    1.40
  -5  -5  -4   31.99    1.53
  -5  -5  -4   33.64    1.31
   5   5   4   31.16    1.75
  -5   5  -4   32.27    1.43
  -5   5  -4   31.09    1.61
   7  -5   4   28.01    1.38
  -7  -5  -4   28.93    1.20
   7  -5   4   29.30    1.21
  -7  -5  -4   28.70    1.50
   7   5   4   27.49    1.67
  -7   5  -4   25.06    1.46
  -7   5  -4   28.33    1.28
  -9  -5  -4    7.53    0.83
   9  -5   4    7.47    0.60
  -9  -5  -4    7.83    0.55
   9  -5   4    7.27    0.74
  -9   5  -4    7.22    0.82
   9   5   4    8.17    0.97
  -9   5  -4    8.47    0.58
  11  -5   4    1.48    0.30
 -11  -5  -4    1.52    0.22
 -11  -5  -4    0.69    0.28
  11  -5   4    0.80    0.31
 -11   5  -4    1.43    0.40
  11   5   4    0.58    0.32
  13  -5   4   16.80    1.10
 -13  -5  -4   15.10    1.19
  13  -5   4   15.44    1.04
 -13   5  -4   15.04    1.15
  13   5   4   17.44    1.34
  15  -5   4    1.25    0.29
  15  -5   4    0.97    0.24
 -15  -5  -4    0.77    0.32
  15   5   4    0.91    0.36
 -15   5  -4    1.16    0.40
 -17  -5  -4   12.65    1.12
  17  -5   4   13.95    1.00
  17  -5   4   12.48    1.05
 -17   5  -4   14.57    1.17
  17   5   4   12.02    1.16
  19  -5   4    0.30    0.13
 -19  -5  -4    0.17    0.16
 -19   5  -4    0.58    0.26
  19   5   4    0.61    0.28
  21  -5   4   19.00    1.45
  21  -5   4   19.52    1.19
 -21  -5  -4   19.98    1.53
 -21   5  -4   17.55    1.38
  21   5   4   18.71    1.51
  23  -5   4    0.43    0.10
 -23  -5  -4    0.69    0.21
  23   5   4    0.68    0.30
 -23   5  -4    0.26    0.12
 -25  -5  -4   16.87    1.43
  25  -5   4   18.59    1.53
  25   5   4   16.65    1.47
 -25   5  -4   16.03    1.36
  24  -6  -4    1.62    0.28
 -24  -6   4    1.51    0.33
  24  -6  -4    1.73    0.12
 -24   6   4    1.56    0.34
  22  -6  -4    3.46    0.60
 -22  -6   4    3.04    0.62
 -22   6   4    3.55    0.67
  22   6  -4    2.29    0.39
 -20  -6   4    3.45    0.66
  20  -6  -4    3.71    0.63
 -20  -6   4    3.24    0.49
  20   6  -4    3.05    0.51
 -20   6   4    2.93    0.59
 -20   6   4    3.24    0.63
 -18  -6   4    2.66    0.59
  18  -6  -4    1.91    0.45
 -18  -6   4    2.72    0.43
 -18   6   4    2.35    0.50
 -18   6   4    2.16    0.53
  18   6  -4    2.69    0.53
  16  -6  -4    2.95    0.57
 -16  -6   4    4.60    0.59
 -16  -6   4    3.11    0.62
  16   6  -4    4.40    0.69
 -16   6   4    3.65    0.57
 -16   6   4    3.09    0.63
  14  -6  -4    0.64    0.26
 -14  -6   4    1.15    0.27
 -14  -6   4    0.58    0.27
 -14   6   4    0.55    0.16
  14   6  -4    0.77    0.19
 -14   6   4    0.52    0.24
 -12  -6   4    8.98    0.80
 -12  -6   4    9.95    1.06
  12  -6  -4    8.83    0.85
 -12   6   4    9.59    0.82
 -12   6   4    9.69    1.07
  12   6  -4    9.93    1.03
 -10  -6   4    9.65    0.97
 -10  -6   4    9.51    0.82
  10  -6  -4    8.39    0.81
  10   6  -4    9.06    0.99
 -10   6   4    8.75    1.02
 -10   6   4    9.27    0.74
  -8  -6   4    3.81    0.58
  -8  -6   4    4.95    0.73
   8  -6  -4    4.19    0.61
   8   6  -4    4.11    0.66
  -8   6   4    3.41    0.70
   6  -6  -4    0.29    0.22
  -6  -6   4    0.59    0.25
  -6  -6   4    0.54    0.21
  -6   6   4    0.56    0.33
   6   6  -4    0.32    0.16
  -4  -6   4   13.72    1.00
  -4  -6   4   14.67    1.14
   4  -6  -4   13.67    0.99
   4  -6  -4   15.93    0.92
   4   6  -4   14.78    1.24
  -4   6   4   13.70    1.23
   2  -6  -4   10.59    0.76
   2  -6  -4    9.42    0.80
  -2  -6   4    9.03    0.86
  -2  -6   4    9.84    0.84
  -2   6   4   10.78    1.15
   2   6  -4   10.95    1.13
   0  -6  -4    0.88    0.26
   0  -6  -4    2.04    0.35
   0  -6   4    0.95    0.31
   0   6  -4    1.39    0.37
   0   6  -4    0.72    0.33
   0   6   4    1.07    0.43
  -2  -6  -4    5.48    0.62
  -2  -6  -4    5.82    0.66
   2  -6   4    5.91    0.71
  -2   6  -4    7.04    0.77
  -2   6  -4    7.16    0.94
   2   6   4    6.13    0.89
  -4  -6  -4   11.10    0.91
  -4  -6  -4   11.81    0.82
   4  -6   4   11.21    0.93
   4   6   4   11.51    1.13
  -4   6  -4   12.64    0.94
  -4   6  -4   14.06    1.19
   6  -6   4    1.10    0.37
  -6  -6  -4    1.51    0.31
  -6  -6  -4    1.27    0.37
   6   6   4    1.34    0.42
  -6   6  -4    1.39    0.28
  -6   6  -4    1.51    0.44
   8  -6   4   11.82    0.96
  -8  -6  -4   12.87    1.07
  -8  -6  -4   12.23    0.79
   8   6   4   13.57    1.22
  -8   6  -4   12.63    1.12
 -10  -6  -4   10.53    0.99
  10  -6   4   10.04    0.89
 -10  -6  -4   13.65    0.82
  10   6   4   10.46    1.19
 -10   6  -4   12.40    1.10
 -12  -6  -4    0.92    0.36
  12  -6   4    0.72    0.25
 -12   6  -4    0.72    0.29
  12   6   4    0.87    0.33
  14  -6   4    2.02    0.45
 -14  -6  -4    1.95    0.54
  14  -6   4    2.41    0.39
 -14   6  -4    2.00    0.53
  14   6   4    1.44    0.45
 -16  -6  -4   10.66    1.15
  16  -6   4    7.70    0.76
  16  -6   4   10.07    0.87
  16   6   4    8.27    1.10
 -16   6  -4    9.04    1.06
 -18  -6  -4    1.20    0.34
  18  -6   4    0.98    0.16
  18  -6   4    1.27    0.11
 -18   6  -4    0.90    0.32
  18   6   4    1.00    0.37
 -20  -6  -4    0.79    0.19
  20  -6   4    0.83    0.12
 -20   6  -4    0.51    0.15
  20   6   4    0.26    0.22
  22  -6   4    3.28    0.57
  22  -6   4    3.88    0.32
 -22  -6  -4    2.10    0.49
  22   6   4    3.58    0.76
 -22   6  -4    3.48    0.66
 -21  -7   4    6.50    0.94
  21  -7  -4    6.74    0.85
  21   7  -4    7.94    0.76
 -21   7   4    5.32    0.85
  19  -7  -4    0.19    0.10
 -19  -7   4    0.22    0.12
 -19   7   4    0.61    0.17
 -17  -7   4    1.07    0.31
  17  -7  -4    0.96    0.29
 -17  -7   4    1.05    0.18
 -17   7   4    1.06    0.28
 -15  -7   4    1.50    0.41
 -15  -7   4    1.56    0.33
  15  -7  -4    1.15    0.31
 -15   7   4    0.98    0.30
  15   7  -4    0.96    0.19
 -13  -7   4    1.10    0.24
 -13  -7   4    0.77    0.21
  13  -7  -4    0.49    0.20
  13   7  -4    0.98    0.20
 -13   7   4    0.67    0.27
 -11  -7   4    2.11    0.42
 -11  -7   4    1.76    0.46
  11  -7  -4    1.54    0.43
 -11   7   4    1.14    0.42
  11   7  -4    1.95    0.48
  -9  -7   4    1.00    0.31
  -9  -7   4    1.48    0.37
   9  -7  -4    0.87    0.28
  -9   7   4    0.69    0.31
   9   7  -4    0.55    0.22
   7  -7  -4    0.34    0.19
  -7  -7   4    0.71    0.21
  -7  -7   4    0.56    0.22
  -7   7   4    0.46    0.26
   7   7  -4    0.42    0.20
  -5  -7   4    8.55    0.90
  -5  -7   4    9.31    1.00
   5  -7  -4    7.51    0.85
   5   7  -4    8.64    1.06
  -5   7   4    6.60    0.98
  -3  -7   4    0.47    0.22
   3  -7  -4    0.43    0.22
   3   7  -4    0.83    0.24
  -3   7   4    0.41    0.29
   1  -7  -4    2.06    0.35
  -1  -7   4    1.83    0.46
   1  -7  -4    2.02    0.44
   1   7  -4    2.35    0.60
  -1   7   4    2.02    0.59
   1   7  -4    2.27    0.49
   1  -7   4    0.33    0.15
  -1  -7  -4    0.55    0.16
  -1  -7  -4    0.78    0.15
  -1   7  -4    0.46    0.26
  -1   7  -4    0.46    0.15
   1   7   4    1.00    0.41
   3  -7   4    2.49    0.53
  -3  -7  -4    1.79    0.35
  -3  -7  -4    1.93    0.40
   3   7   4    2.86    0.67
  -3   7  -4    1.52    0.46
  -3   7  -4    2.04    0.44
   5  -7   4    0.04    0.12
  -5  -7  -4    0.43    0.12
  -5  -7  -4    0.32    0.08
   5   7   4    1.86    0.53
  -5   7  -4    0.32    0.18
  -5   7  -4    0.76    0.13
   7  -7   4    4.65    0.70
  -7  -7  -4    6.32    0.80
  -7  -7  -4    5.85    0.56
  -7   7  -4    5.88    0.91
   7   7   4    7.07    1.03
   9  -7   4    3.05    0.57
  -9  -7  -4    3.17    0.44
  -9  -7  -4    2.29    0.51
  -9   7  -4    2.96    0.68
   9   7   4    2.80    0.66
 -11  -7  -4   10.42    1.03
  11  -7   4    9.69    1.00
 -11   7  -4   11.51    1.26
  11   7   4   10.28    1.25
  13  -7   4    1.38    0.35
 -13  -7  -4    0.91    0.28
  13   7   4    2.02    0.60
 -13   7  -4    1.54    0.45
  15  -7   4    2.16    0.42
 -15  -7  -4    1.66    0.43
  15   7   4    1.87    0.52
 -15   7  -4    1.84    0.51
 -17  -7  -4    6.07    0.92
  17  -7   4    5.71    0.69
 -17   7  -4    3.66    0.72
  17   7   4    4.66    0.88
  19  -7   4    2.33    0.18
 -19  -7  -4    2.34    0.50
  19   7   4    3.09    0.68
 -19   7  -4    2.14    0.47
 -16  -8   4    1.07    0.14
 -16  -8   4    1.06    0.29
  16  -8  -4    1.22    0.28
 -16   8   4    0.74    0.17
 -14  -8   4    1.87    0.39
 -14  -8   4    1.99    0.51
  14  -8  -4    1.97    0.47
  14   8  -4    2.21    0.34
 -14   8   4    2.57    0.63
  12  -8  -4    4.08    0.71
 -12  -8   4    3.20    0.52
 -12  -8   4    4.49    0.77
  12   8  -4    4.45    0.68
 -12   8   4    3.95    0.80
 -10  -8   4    0.29    0.10
 -10  -8   4    0.54    0.13
  10  -8  -4    0.37    0.16
 -10   8   4    0.08    0.14
  -8  -8   4    1.68    0.39
   8  -8  -4    1.83    0.46
  -8  -8   4    0.98    0.24
   8   8  -4    0.83    0.12
  -8   8   4    1.11    0.33
  -6  -8   4    1.58    0.35
  -6  -8   4    2.14    0.49
   6  -8  -4    1.55    0.41
  -6   8   4    1.53    0.46
   6   8  -4    1.90    0.44
   4  -8  -4    0.73    0.17
  -4  -8   4    0.69    0.22
  -4   8   4    0.60    0.19
   4   8  -4    0.34    0.09
   4   8  -4    0.78    0.17
   2  -8  -4    0.84    0.25
  -2  -8   4    0.20    0.12
   2   8  -4    0.49    0.14
  -2   8   4    0.54    0.23
   2   8  -4    0.66    0.18
   0  -8   4    0.44    0.18
   0  -8  -4    0.25    0.10
   0   8  -4    0.88    0.19
   0   8  -4    0.78    0.26
   0   8   4    0.25    0.19
   2  -8   4    0.34    0.17
  -2  -8  -4    0.80    0.15
  -2   8  -4    0.78    0.15
  -2   8  -4    0.01    0.16
   2   8   4    0.72    0.30
  -4  -8  -4    1.16    0.22
  -4  -8  -4    2.67    0.43
   4  -8   4    2.12    0.50
   4   8   4    1.35    0.44
  -4   8  -4    1.50    0.43
  -6  -8  -4    2.77    0.45
  -6  -8  -4    3.02    0.55
   6  -8   4    2.55    0.56
   6   8   4    1.84    0.56
  -6   8  -4    2.17    0.60
  -8  -8  -4    2.39    0.36
  -8  -8  -4    2.07    0.46
   8  -8   4    1.97    0.47
  -8   8  -4    1.56    0.42
   8   8   4    1.80    0.46
 -10  -8  -4    1.26    0.34
  10  -8   4    0.46    0.14
  10   8   4    1.47    0.51
 -10   8  -4    0.93    0.25
  12  -8   4    1.22    0.30
 -12  -8  -4    1.30    0.30
 -12   8  -4    0.89    0.27
  12   8   4    1.02    0.33
  14  -8   4    0.98    0.13
 -14  -8  -4    0.53    0.16
 -14   8  -4    1.04    0.18
  14   8   4    0.06    0.12
  -7  -9   4    0.81    0.14
   7  -9  -4    0.74    0.17
  -7   9   4    1.52    0.38
   7   9  -4    0.77    0.16
  -5  -9   4   11.31    1.03
   5  -9  -4   11.14    1.03
   5   9  -4   11.55    1.05
   5   9  -4   10.96    1.08
  -5   9   4   10.16    1.34
  -3  -9   4    2.87    0.54
   3  -9  -4    2.10    0.42
   3   9  -4    2.78    0.56
  -3   9   4    2.36    0.59
   3   9  -4    3.54    0.60
  -1  -9   4    0.65    0.14
  -1   9   4    0.90    0.34
   1   9  -4    0.75    0.10
  -1  -9  -4    2.22    0.39
   1  -9   4    2.41    0.52
   1   9   4    2.01    0.51
  -1   9  -4    2.83    0.50
   3  -9   4   12.37    1.13
  -3  -9  -4    9.62    1.02
  -3  -9  -4   12.38    0.97
  -3   9  -4   11.61    1.17
   3   9   4   12.46    1.41
  -5  -9  -4   10.20    0.83
   5  -9   4   12.01    1.11
  -5  -9  -4    8.98    1.00
   5   9   4   12.47    1.43
  -5   9  -4   11.72    1.17
   7  -9   4    0.42    0.13
  -7   9  -4    1.26    0.24
 -32   0   5    0.25    0.09
 -30   0   5    0.32    0.12
  30   0  -5    0.34    0.09
 -28   0   5    0.21    0.08
 -28   0   5    0.52    0.18
  26   0  -5    0.76    0.07
 -26   0   5    0.51    0.13
 -26   0   5    0.62    0.19
 -24   0   5    0.42    0.18
 -24   0   5    0.22    0.09
  24   0  -5    0.27    0.06
  22   0  -5    0.40    0.14
 -22   0   5    0.29    0.14
 -22   0   5    0.45    0.13
 -20   0   5    0.23    0.21
  20   0  -5    0.38    0.15
 -20   0   5    0.25    0.10
 -18   0   5    0.52    0.26
  18   0  -5    0.34    0.14
 -18   0   5    0.28    0.08
  16   0  -5    0.18    0.14
 -16   0   5    0.71    0.21
 -16   0   5    0.20    0.08
  14   0  -5    0.14    0.15
 -14   0   5    0.15    0.06
  14   0  -5    0.16    0.07
 -14   0   5    0.41    0.16
 -12   0   5    0.26    0.07
  12   0  -5    0.08    0.04
 -12   0   5    0.44    0.18
 -10   0   5    0.15    0.04
 -10   0   5    0.03    0.06
  10   0  -5    0.31    0.08
 -10   0   5    0.67    0.23
  -8   0   5    0.03    0.03
   8   0  -5    0.11    0.07
  -8   0   5    0.18    0.10
  -8   0   5    0.19    0.10
  -6   0   5    0.09    0.08
  -6   0   5    0.21    0.04
  -6   0   5    0.16    0.08
   6   0  -5    0.11    0.07
  -4   0   5    0.17    0.15
   4   0  -5    0.37    0.11
  -4   0   5    0.16    0.02
  -4   0   5    0.00    0.07
   2   0  -5    0.04    0.08
  -2   0   5    0.06    0.06
  -2   0   5    0.04    0.12
   0   0   5    0.00    0.06
   0   0  -5    0.23    0.11
   0   0  -5    0.29    0.04
   0   0   5    0.14    0.14
  -2   0  -5    0.13    0.05
   2   0   5    0.21    0.12
   2   0   5    0.11    0.04
  -2   0  -5   -0.02    0.07
   4   0   5    0.09    0.11
  -4   0  -5    0.10    0.08
   4   0   5    0.20    0.04
  -4   0  -5    0.06    0.06
  -6   0  -5    0.24    0.10
  -6   0  -5    0.14    0.06
   6   0   5    0.14    0.12
  -8   0  -5    0.18    0.09
  -8   0  -5    0.07    0.09
   8   0   5   -0.02    0.11
 -10   0  -5    0.16    0.08
  10   0   5    0.12    0.13
 -10   0  -5    0.16    0.07
 -12   0  -5    0.34    0.12
 -12   0  -5    0.01    0.09
  12   0   5    0.03    0.12
 -14   0  -5    0.29    0.11
 -14   0  -5    0.18    0.11
  14   0   5    0.20    0.16
 -16   0  -5    0.20    0.10
  16   0   5    0.38    0.20
 -16   0  -5    0.53    0.14
 -18   0  -5    0.14    0.14
 -18   0  -5    0.32    0.10
  18   0   5    0.20    0.23
  20   0   5    0.15    0.19
 -20   0  -5    0.11    0.15
 -20   0  -5    0.60    0.12
 -22   0  -5    0.14    0.13
  22   0   5    0.44    0.25
 -22   0  -5    0.45    0.09
 -24   0  -5    0.47    0.14
  24   0   5    0.25    0.15
  26   0   5    0.43    0.15
 -26   0  -5    0.36    0.17
  28   0   5    0.22    0.15
 -28   0  -5    0.23    0.09
  30   0   5    0.74    0.15
 -30   0  -5    0.53    0.12
 -31  -1   5    0.78    0.19
  31  -1  -5    0.32    0.15
 -31   1   5    0.64    0.14
 -29  -1   5    1.77    0.37
 -29   1   5    1.96    0.53
  29   1  -5    2.54    0.54
 -29   1   5    2.03    0.37
  27  -1  -5   12.14    0.84
 -27  -1   5   11.52    0.92
 -27  -1   5   12.23    1.17
 -27   1   5   10.34    0.89
 -27   1   5   13.34    1.36
  25  -1  -5    0.90    0.16
 -25  -1   5    1.03    0.33
 -25  -1   5    0.61    0.17
 -25   1   5    0.63    0.25
  25   1  -5    0.84    0.16
 -25   1   5    0.71    0.21
 -23  -1   5    2.75    0.43
 -23  -1   5    2.66    0.55
  23  -1  -5    2.20    0.37
 -23   1   5    2.90    0.65
 -23   1   5    2.17    0.40
  23   1  -5    1.88    0.35
 -21  -1   5    3.24    0.59
 -21  -1   5    4.30    0.50
  21  -1  -5    3.16    0.44
 -21  -1   5    3.70    0.37
  21   1  -5    3.66    0.48
 -21   1   5    3.30    0.67
 -21   1   5    3.04    0.45
 -19  -1   5    9.61    0.89
 -19  -1   5    9.89    0.68
 -19  -1   5    9.46    0.68
  19  -1  -5   10.15    0.72
 -19   1   5   10.25    0.72
 -19   1   5    9.54    1.00
 -17  -1   5    3.44    0.39
 -17  -1   5    1.79    0.29
 -17  -1   5    2.26    0.35
 -17  -1   5    1.93    0.42
  17  -1  -5    1.72    0.33
 -17   1   5    2.22    0.33
 -17   1   5    1.65    0.47
 -15  -1   5   10.89    0.68
  15  -1  -5   11.15    0.71
  15  -1  -5   11.93    0.47
 -15  -1   5   10.50    0.67
 -15  -1   5   12.23    0.69
 -15  -1   5   11.31    0.89
 -15   1   5   11.83    0.68
 -15   1   5   11.64    1.00
 -13  -1   5   18.27    1.08
  13  -1  -5   17.04    0.58
  13  -1  -5   18.23    0.88
 -13  -1   5   18.01    0.79
 -13  -1   5   18.46    0.87
 -13  -1   5   16.60    0.83
 -13   1   5   15.94    1.13
 -13   1   5   17.96    0.81
  11  -1  -5   24.24    0.99
 -11  -1   5   24.88    1.00
 -11  -1   5   25.19    1.01
  11  -1  -5   25.56    0.73
 -11  -1   5   25.97    1.26
 -11  -1   5   24.78    0.89
 -11   1   5   24.20    0.90
 -11   1   5   24.23    1.37
   9  -1  -5    0.34    0.15
  -9  -1   5    0.59    0.17
  -9  -1   5    0.49    0.11
  -9  -1   5    0.34    0.13
   9  -1  -5    0.57    0.07
  -9   1   5    0.25    0.16
  -9   1   5    0.48    0.13
   9   1  -5    0.43    0.16
   7  -1  -5    1.01    0.13
  -7  -1   5    0.85    0.24
  -7  -1   5    0.78    0.18
   7  -1  -5    0.54    0.16
  -7  -1   5    0.82    0.11
   7   1  -5    0.94    0.20
  -7   1   5    0.71    0.14
  -7   1   5    0.78    0.27
  -5  -1   5   23.98    0.84
   5  -1  -5   24.45    0.72
  -5  -1   5   24.08    1.13
   5  -1  -5   23.17    0.81
   5   1  -5   22.00    0.86
  -5   1   5   21.97    1.17
  -5   1   5   24.04    0.73
   5   1  -5   24.20    0.67
   3  -1  -5   38.88    1.02
   3  -1  -5   36.21    1.03
  -3  -1   5   37.64    1.07
   3  -1  -5   38.20    1.04
  -3  -1   5   37.49    1.38
   3   1  -5   37.59    1.15
  -3   1   5   39.41    1.03
   3   1  -5   36.16    0.85
  -3   1   5   37.88    1.57
  -1  -1   5   36.12    1.01
   1  -1  -5   37.22    1.04
   1  -1  -5   36.37    1.03
   1  -1  -5   36.37    0.96
  -1  -1   5   35.58    1.27
  -1   1   5   35.80    1.40
   1   1  -5   39.04    0.82
   1   1  -5   37.54    1.14
  -1   1   5   39.10    1.13
  -1  -1  -5   75.40    1.50
  -1  -1  -5   74.16    1.70
   1  -1   5   72.44    1.97
  -1  -1  -5   76.61    1.75
   1  -1   5   72.54    1.60
   1   1   5   74.35    1.72
  -1   1  -5   77.65    1.51
  -1   1  -5   74.32    1.79
   3  -1   5    7.26    0.51
  -3  -1  -5    7.26    0.28
  -3  -1  -5    7.61    0.41
  -3  -1  -5    6.66    0.43
  -3  -1  -5    7.28    0.42
   3  -1   5    6.71    0.35
  -3   1  -5    7.56    0.37
  -3   1  -5    7.79    0.46
   3   1   5    6.60    0.52
   5  -1   5   14.50    0.78
  -5  -1  -5   15.81    0.62
  -5  -1  -5   16.77    0.72
  -5  -1  -5   15.14    0.70
  -5  -1  -5   16.57    0.40
   5  -1   5   16.89    0.57
  -5   1  -5   16.35    0.69
  -5   1  -5   17.36    0.66
   5   1   5   15.14    0.80
   7  -1   5    1.05    0.25
  -7  -1  -5    0.49    0.18
  -7  -1  -5    0.89    0.20
  -7   1  -5    1.02    0.19
   7   1   5    0.52    0.19
  -7   1  -5    0.77    0.17
   9  -1   5    1.64    0.15
  -9  -1  -5    1.29    0.26
  -9  -1  -5    1.42    0.26
   9  -1   5    1.33    0.30
  -9   1  -5    1.51    0.25
  -9   1  -5    1.35    0.21
   9   1   5    1.03    0.26
  11  -1   5    6.58    0.62
  11  -1   5    6.86    0.36
 -11  -1  -5    6.79    0.54
 -11  -1  -5    6.15    0.51
 -11   1  -5    6.17    0.44
  11   1   5    5.99    0.57
 -11   1  -5    6.24    0.49
  13  -1   5    0.35    0.21
 -13  -1  -5    0.40    0.15
 -13  -1  -5    0.32    0.16
  13   1   5    0.12    0.15
 -13   1  -5    0.27    0.07
 -13   1  -5    0.12    0.11
  15  -1   5   18.95    0.71
 -15  -1  -5   18.43    1.01
  15  -1   5   19.30    1.22
 -15  -1  -5   19.31    1.05
 -15   1  -5   18.44    0.87
  15   1   5   19.00    1.14
 -15   1  -5   18.72    1.03
 -17  -1  -5    4.96    0.55
 -17  -1  -5    3.79    0.53
  17  -1   5    4.42    0.66
  17   1   5    4.75    0.65
 -17   1  -5    4.48    0.57
 -17   1  -5    5.33    0.44
 -19  -1  -5    0.50    0.14
 -19  -1  -5    0.11    0.11
  19  -1   5    0.48    0.28
  19   1   5    0.18    0.18
 -19   1  -5    0.38    0.08
 -19   1  -5    0.18    0.15
 -21  -1  -5    0.47    0.19
 -21  -1  -5    0.73    0.15
  21  -1   5    0.40    0.25
 -21   1  -5    0.45    0.19
  21   1   5    0.61    0.25
 -23  -1  -5    7.16    0.69
 -23  -1  -5    5.45    0.72
  23  -1   5    5.60    0.87
  23   1   5    4.88    0.74
 -23   1  -5    5.39    0.71
 -25  -1  -5    0.76    0.11
  25  -1   5    0.55    0.24
 -25  -1  -5    0.75    0.24
  25   1   5    0.62    0.21
 -25   1  -5    0.61    0.22
 -27  -1  -5    0.21    0.08
  27  -1   5    0.08    0.11
 -27   1  -5    0.26    0.09
  27   1   5    0.55    0.19
  29  -1   5    1.82    0.46
 -29  -1  -5    2.06    0.46
 -29   1  -5    2.31    0.55
  29   1   5    2.48    0.49
 -30  -2   5   13.87    1.09
 -30   2   5   12.96    1.06
  30   2  -5   11.40    1.01
 -28  -2   5    0.62    0.13
 -28   2   5    0.63    0.22
 -28   2   5    0.56    0.15
  26  -2  -5    4.30    0.53
 -26  -2   5    3.82    0.57
  26   2  -5    2.73    0.50
 -26   2   5    4.50    0.62
 -26   2   5    3.65    0.78
 -24  -2   5    3.47    0.51
 -24  -2   5    3.79    0.52
 -24  -2   5    3.97    0.62
  24  -2  -5    3.25    0.48
  24   2  -5    3.46    0.46
 -24   2   5    3.19    0.50
 -24   2   5    2.84    0.69
 -22  -2   5   27.81    1.60
 -22  -2   5   29.87    1.45
 -22  -2   5   27.99    1.32
 -22  -2   5   29.42    1.47
  22  -2  -5   26.67    1.35
 -22   2   5   27.56    1.41
 -22   2   5   28.24    1.96
  20  -2  -5    9.28    0.76
 -20  -2   5   10.51    0.89
 -20  -2   5   10.60    0.82
 -20  -2   5    9.61    0.71
 -20  -2   5   11.84    0.82
 -20   2   5   10.32    0.79
 -20   2   5   10.79    1.21
 -18  -2   5    1.94    0.32
 -18  -2   5    2.73    0.46
 -18  -2   5    1.46    0.28
 -18  -2   5    2.19    0.37
  18  -2  -5    1.03    0.31
 -18   2   5    1.62    0.50
 -18   2   5    1.87    0.35
 -16  -2   5    6.88    0.63
 -16  -2   5    6.69    0.61
 -16  -2   5    7.19    0.56
  16  -2  -5    5.88    0.55
 -16  -2   5    5.61    0.51
 -16   2   5    6.80    0.58
 -16   2   5    6.57    0.85
 -14  -2   5   37.62    1.36
 -14  -2   5   38.90    1.55
  14  -2  -5   39.53    1.45
 -14  -2   5   37.63    1.56
 -14  -2   5   34.60    1.34
 -14   2   5   37.76    1.39
 -14   2   5   36.11    1.87
 -12  -2   5    0.63    0.17
 -12  -2   5    0.99    0.19
 -12  -2   5    0.56    0.20
 -12  -2   5    0.40    0.13
  12  -2  -5    0.81    0.04
  12  -2  -5    0.95    0.24
 -12   2   5    0.78    0.19
 -12   2   5    0.82    0.28
 -10  -2   5    8.01    0.55
  10  -2  -5    9.13    0.31
 -10  -2   5    8.62    0.61
  10  -2  -5    7.76    0.55
 -10  -2   5    8.61    0.63
 -10   2   5    8.06    0.76
  10   2  -5    8.60    0.52
 -10   2   5    8.64    0.55
  -8  -2   5    2.03    0.32
   8  -2  -5    2.39    0.15
  -8  -2   5    2.26    0.30
   8  -2  -5    2.12    0.30
  -8  -2   5    2.81    0.34
  -8   2   5    2.63    0.30
  -8   2   5    1.78    0.38
   8   2  -5    2.26    0.23
   6  -2  -5    3.71    0.35
  -6  -2   5    3.91    0.35
  -6  -2   5    4.28    0.39
   6  -2  -5    4.36    0.25
   6   2  -5    3.51    0.41
   6   2  -5    4.42    0.35
  -6   2   5    4.17    0.36
  -6   2   5    3.18    0.47
  -4  -2   5   10.89    0.59
   4  -2  -5   12.20    0.51
  -4  -2   5   12.33    0.71
   4  -2  -5   12.75    0.61
  -4   2   5   11.36    0.63
  -4   2   5   11.24    0.81
   4   2  -5   10.92    0.65
   4   2  -5   10.91    0.60
   2  -2  -5    7.07    0.42
  -2  -2   5    7.25    0.49
  -2  -2   5    6.86    0.45
   2  -2  -5    6.69    0.40
  -2   2   5    7.28    0.53
   2   2  -5    6.64    0.49
  -2   2   5    8.10    0.67
   2   2  -5    6.80    0.42
   0  -2  -5   28.38    0.96
   0  -2  -5   27.60    0.87
   0  -2   5   26.20    1.01
   0  -2   5   28.63    0.98
   0   2  -5   29.00    1.05
   0   2   5   28.33    1.16
   0   2   5   27.53    1.21
   0   2  -5   27.26    0.88
   2  -2   5    1.44    0.22
   2  -2   5    1.29    0.21
  -2  -2  -5    1.42    0.23
  -2  -2  -5    1.46    0.17
  -2   2  -5    1.76    0.21
  -2   2  -5    1.54    0.24
   2   2   5    1.71    0.29
   2   2   5    1.67    0.28
  -4  -2  -5   40.90    1.01
   4  -2   5   44.80    1.42
   4  -2   5   42.22    1.25
   4   2   5   40.26    1.39
  -4   2  -5   42.99    1.30
  -4   2  -5   42.06    1.24
   4   2   5   42.92    1.48
  -6  -2  -5    8.05    0.56
   6  -2   5    7.54    0.56
   6  -2   5    7.41    0.47
  -6  -2  -5    7.94    0.33
   6   2   5    7.32    0.56
  -6   2  -5    7.92    0.51
  -6   2  -5    7.67    0.48
   6   2   5    8.25    0.58
   8  -2   5   18.37    0.98
   8  -2   5   20.14    0.81
  -8  -2  -5   17.11    0.89
  -8  -2  -5   19.05    0.50
  -8  -2  -5   18.98    0.96
  -8   2  -5   19.07    0.88
  -8   2  -5   18.89    0.79
   8   2   5   18.98    0.95
  10  -2   5    3.87    0.50
 -10  -2  -5    4.78    0.50
 -10  -2  -5    3.89    0.47
  10  -2   5    4.12    0.33
 -10   2  -5    3.90    0.43
  10   2   5    4.40    0.49
 -10   2  -5    3.95    0.33
 -12  -2  -5   20.76    1.09
  12  -2   5   20.20    0.86
 -12  -2  -5   18.65    1.04
  12  -2   5   19.59    1.16
 -12   2  -5   21.01    1.03
  12   2   5   19.36    1.06
 -12   2  -5   20.27    0.84
 -14  -2  -5   12.11    0.85
 -14  -2  -5   13.10    0.89
  14  -2   5   12.66    0.66
  14  -2   5   11.14    0.92
 -14   2  -5   12.56    0.83
  14   2   5   11.97    0.86
 -14   2  -5   12.05    0.64
  16  -2   5   49.06    1.52
  16  -2   5   47.36    2.12
 -16  -2  -5   47.54    1.89
 -16  -2  -5   49.59    1.92
 -16   2  -5   50.10    1.53
 -16   2  -5   47.59    1.85
  16   2   5   49.05    1.95
  18  -2   5   10.04    0.96
 -18  -2  -5    9.00    0.81
 -18  -2  -5    9.02    0.79
  18   2   5    9.40    0.82
 -18   2  -5    8.92    0.78
 -20  -2  -5    4.76    0.63
  20  -2   5    4.06    0.71
 -20  -2  -5    4.80    0.65
  20   2   5    5.18    0.67
 -20   2  -5    5.24    0.68
 -22  -2  -5    3.13    0.56
 -22  -2  -5    3.61    0.56
  22  -2   5    3.33    0.67
  22   2   5    3.60    0.59
 -22   2  -5    2.97    0.56
  24  -2   5   20.59    1.63
 -24  -2  -5   22.76    1.45
 -24  -2  -5   19.05    1.34
 -24   2  -5   19.88    1.37
  24   2   5   20.82    1.42
 -26  -2  -5    0.45    0.11
  26  -2   5    0.97    0.29
 -26  -2  -5    0.86    0.13
  26   2   5    0.59    0.12
 -26   2  -5    0.73    0.24
  28  -2   5    2.88    0.72
 -28  -2  -5    3.29    0.61
  28   2   5    2.60    0.45
 -28   2  -5    3.58    0.65
  29  -3  -5    2.22    0.15
 -29  -3   5    2.51    0.49
 -29   3   5    2.67    0.46
 -29   3   5    2.08    0.54
 -27  -3   5    5.86    0.73
 -27  -3   5    5.31    0.70
  27  -3  -5    5.81    0.64
 -27   3   5    4.95    0.95
 -27   3   5    5.42    0.70
 -25  -3   5   15.40    1.16
  25  -3  -5   15.57    1.07
 -25  -3   5   16.18    1.15
 -25   3   5   17.00    1.19
 -25   3   5   17.42    1.61
  25   3  -5   15.55    1.10
 -23  -3   5    3.81    0.47
 -23  -3   5    3.44    0.54
  23  -3  -5    3.34    0.53
 -23  -3   5    3.76    0.55
 -23   3   5    3.23    0.53
 -23   3   5    3.70    0.78
  23   3  -5    3.84    0.51
 -21  -3   5   23.92    1.32
 -21  -3   5   22.21    1.37
  21  -3  -5   22.07    1.28
 -21  -3   5   24.17    1.34
 -21  -3   5   22.82    1.19
 -21   3   5   22.75    1.32
 -21   3   5   22.27    1.73
 -19  -3   5    1.10    0.24
  19  -3  -5    0.53    0.24
 -19  -3   5    0.52    0.15
 -19  -3   5    0.81    0.24
  19   3  -5    0.47    0.16
 -19   3   5    0.64    0.28
 -19   3   5    0.10    0.11
  17  -3  -5   30.01    1.42
 -17  -3   5   31.13    1.36
 -17  -3   5   31.88    1.60
 -17  -3   5   34.11    1.47
 -17   3   5   33.52    1.49
  17   3  -5   33.03    1.47
 -17   3   5   29.02    1.82
 -15  -3   5   29.20    1.27
 -15  -3   5   28.09    1.45
  15  -3  -5   26.18    1.28
 -15  -3   5   26.49    1.20
 -15   3   5   26.80    1.28
 -15   3   5   26.82    1.63
  15   3  -5   27.14    1.26
 -13  -3   5    8.27    0.73
 -13  -3   5    7.87    0.61
 -13  -3   5    9.21    0.62
  13  -3  -5    8.91    0.69
 -13   3   5    8.85    0.68
  13   3  -5    8.54    0.64
 -13   3   5    8.98    0.86
  11  -3  -5    7.53    0.62
 -11  -3   5    7.41    0.67
 -11  -3   5    6.88    0.55
 -11  -3   5    7.06    0.49
  11   3  -5    7.26    0.57
 -11   3   5    6.98    0.59
 -11   3   5    7.22    0.74
   9  -3  -5   59.37    1.30
  -9  -3   5   57.34    2.02
   9  -3  -5   60.64    1.85
  -9  -3   5   59.78    1.81
  -9  -3   5   61.90    1.70
   9   3  -5   56.56    1.86
  -9   3   5   57.97    1.86
  -9   3   5   59.86    2.26
  -7  -3   5    2.70    0.24
   7  -3  -5    2.89    0.20
  -7  -3   5    2.59    0.40
   7  -3  -5    2.82    0.38
  -7  -3   5    2.24    0.33
   7   3  -5    3.04    0.39
  -7   3   5    2.43    0.37
  -7   3   5    2.25    0.41
   5  -3  -5  124.66    2.81
   5  -3  -5  120.59    2.51
  -5  -3   5  122.54    2.83
  -5  -3   5  118.66    2.73
   5   3  -5  119.22    3.06
  -5   3   5  122.94    3.07
  -5   3   5  119.05    3.30
  -3  -3   5   21.39    0.86
   3  -3  -5   19.41    0.78
   3  -3  -5   21.91    0.91
  -3  -3   5   21.88    0.96
   3   3  -5   21.42    1.05
   3   3  -5   20.18    1.00
  -3   3   5   19.28    1.06
  -3   3   5   20.86    1.11
  -1  -3   5   96.19    2.32
   1  -3  -5   99.41    2.30
   1  -3  -5   98.85    2.32
  -1  -3   5  101.81    2.46
  -1   3   5   97.46    2.78
  -1   3   5   98.62    2.81
   1   3  -5   94.75    2.53
   1   3  -5   98.44    2.53
   1  -3   5    1.02    0.24
  -1  -3  -5    1.26    0.20
  -1  -3  -5    1.04    0.22
  -1   3  -5    1.24    0.26
   1   3   5    1.47    0.33
   1   3   5    1.47    0.26
  -1   3  -5    1.59    0.27
   3  -3   5  223.63    4.60
   3  -3   5  230.96    4.52
  -3  -3  -5  216.30    4.15
  -3  -3  -5  228.03    4.63
  -3   3  -5  232.55    4.64
   3   3   5  236.26    4.91
   3   3   5  227.68    5.03
  -3   3  -5  222.18    4.53
   5  -3   5   11.60    0.70
  -5  -3  -5   11.17    0.73
  -5  -3  -5   12.66    0.57
   5  -3   5   12.56    0.72
   5   3   5   11.90    0.72
   5   3   5   11.40    0.82
  -5   3  -5   11.94    0.68
  -5   3  -5   12.40    0.72
  -7  -3  -5    1.82    0.33
   7  -3   5    1.68    0.30
   7  -3   5    3.42    0.42
  -7  -3  -5    2.54    0.20
  -7   3  -5    1.92    0.31
  -7   3  -5    2.32    0.30
   7   3   5    1.61    0.36
   7   3   5    2.23    0.31
   9  -3   5   28.09    1.30
  -9  -3  -5   26.04    0.81
   9  -3   5   27.04    1.13
  -9  -3  -5   27.63    1.29
   9   3   5   26.53    1.17
  -9   3  -5   28.42    1.23
  -9   3  -5   27.02    1.04
   9   3   5   25.79    1.30
  11  -3   5   44.85    1.53
 -11  -3  -5   42.75    1.06
 -11  -3  -5   42.77    1.73
  11  -3   5   42.40    1.75
 -11   3  -5   42.72    1.63
  11   3   5   43.57    1.61
 -11   3  -5   41.47    1.33
  11   3   5   45.42    1.82
 -13  -3  -5   16.30    1.07
  13  -3   5   21.19    1.00
  13  -3   5   17.66    1.14
 -13   3  -5   16.20    0.75
 -13   3  -5   16.14    1.01
  13   3   5   16.81    1.10
  13   3   5   18.33    1.00
  15  -3   5    3.30    0.39
 -15  -3  -5    3.07    0.53
 -15  -3  -5    3.03    0.53
  15  -3   5    2.84    0.53
 -15   3  -5    3.31    0.27
  15   3   5    3.30    0.44
 -15   3  -5    2.57    0.47
  17  -3   5    5.12    0.42
  17  -3   5    5.84    0.78
 -17  -3  -5    4.99    0.67
 -17  -3  -5    5.10    0.70
 -17   3  -5    5.04    0.65
  17   3   5    5.60    0.54
 -19  -3  -5   78.33    2.84
 -19  -3  -5   75.21    2.78
  19  -3   5   73.02    2.99
 -19   3  -5   74.91    2.69
  19   3   5   75.45    2.64
  21  -3   5    3.15    0.66
 -21  -3  -5    3.43    0.61
 -21  -3  -5    4.22    0.67
 -21   3  -5    4.09    0.64
  21   3   5    3.78    0.54
 -23  -3  -5    3.87    0.65
 -23  -3  -5    4.80    0.69
  23  -3   5    4.48    0.80
  23   3   5    4.69    0.61
 -23   3  -5    5.90    0.79
  25  -3   5    5.67    0.92
 -25  -3  -5    5.40    0.74
 -25  -3  -5    5.62    0.79
 -25   3  -5    4.34    0.72
  25   3   5    4.84    0.61
  27  -3   5   16.57    1.54
 -27  -3  -5   14.64    1.27
 -27  -3  -5   15.49    1.26
 -27   3  -5   15.56    1.30
  27   3   5   14.17    1.11
 -28  -4   5    1.31    0.25
  28  -4  -5    0.66    0.07
 -28   4   5    0.57    0.20
 -28   4   5    0.80    0.13
  26  -4  -5   15.26    1.10
 -26  -4   5   14.64    1.21
 -26   4   5   13.85    1.43
 -26   4   5   16.26    1.23
  26   4  -5   17.52    1.22
  24  -4  -5   10.90    0.92
 -24  -4   5   12.80    1.10
 -24   4   5   11.01    1.32
  24   4  -5   11.94    0.98
 -24   4   5   11.08    0.99
  22  -4  -5   31.01    1.64
 -22  -4   5   33.01    1.85
 -22  -4   5   33.34    1.56
 -22   4   5   32.08    1.72
 -22   4   5   31.62    2.12
  22   4  -5   35.16    1.78
  20  -4  -5   12.18    0.97
 -20  -4   5   12.96    1.10
 -20  -4   5   13.43    0.93
 -20   4   5   14.01    1.31
  20   4  -5   12.74    0.99
 -20   4   5   12.82    1.01
 -18  -4   5   52.51    2.29
  18  -4  -5   49.31    2.02
 -18  -4   5   54.01    1.98
 -18   4   5   50.73    2.09
 -18   4   5   47.44    2.46
  18   4  -5   52.83    2.13
 -16  -4   5   12.57    1.03
 -16  -4   5   12.97    0.87
  16  -4  -5   12.27    0.92
 -16   4   5   13.44    0.99
 -16   4   5   12.31    1.12
  16   4  -5   12.64    0.92
 -14  -4   5   28.41    1.31
  14  -4  -5   27.53    1.38
 -14  -4   5   27.60    1.55
  14   4  -5   27.22    1.40
 -14   4   5   29.25    1.69
 -14   4   5   26.69    1.38
 -12  -4   5    2.17    0.47
 -12  -4   5    2.69    0.41
  12  -4  -5    1.97    0.41
 -12   4   5    2.44    0.43
 -12   4   5    3.44    0.55
  12   4  -5    2.71    0.43
 -10  -4   5   27.20    1.47
  10  -4  -5   26.70    1.28
 -10  -4   5   29.34    1.30
 -10   4   5   27.60    1.38
  10   4  -5   27.85    1.41
 -10   4   5   30.25    1.52
   8  -4  -5    4.49    0.55
  -8  -4   5    5.18    0.56
  -8  -4   5    4.50    0.61
  -8  -4   5    4.26    0.28
   8  -4  -5    5.04    0.32
   8   4  -5    5.40    0.54
  -8   4   5    5.02    0.58
  -8   4   5    5.77    0.66
  -6  -4   5    5.16    0.55
   6  -4  -5    4.49    0.33
  -6  -4   5    4.07    0.55
  -6  -4   5    4.05    0.25
   6  -4  -5    4.89    0.53
  -6   4   5    3.74    0.56
   6   4  -5    5.35    0.62
  -6   4   5    4.82    0.50
  -4  -4   5   50.90    1.28
   4  -4  -5   51.49    1.54
   4  -4  -5   50.69    1.69
  -4  -4   5   52.19    1.78
   4   4  -5   48.44    1.95
  -4   4   5   51.79    2.05
  -4   4   5   50.65    1.85
  -2  -4   5   76.15    1.84
   2  -4  -5   76.64    2.12
  -2  -4   5   73.74    2.20
   2  -4  -5   74.13    2.05
   2   4  -5   76.97    2.43
  -2   4   5   77.16    2.63
   2   4  -5   72.75    2.43
  -2   4   5   77.10    2.36
   0  -4   5   45.43    1.34
   0  -4   5   46.25    1.66
   0  -4  -5   43.92    1.48
   0  -4  -5   47.71    1.59
   0   4  -5   45.33    1.78
   0   4   5   47.26    1.99
   0   4   5   47.04    1.71
   0   4  -5   46.52    1.75
  -2  -4  -5   11.51    0.76
  -2  -4  -5   12.15    0.69
   2  -4   5   12.99    0.82
   2  -4   5   13.03    0.63
  -2   4  -5   12.25    0.85
   2   4   5   13.48    0.80
   2   4   5   13.90    1.02
  -2   4  -5   12.56    0.82
   4  -4   5   88.01    2.49
   4  -4   5   89.79    2.32
  -4  -4  -5   84.71    2.19
  -4  -4  -5   88.54    2.55
  -4   4  -5   90.03    2.52
   4   4   5   90.56    2.94
   4   4   5   93.49    2.52
  -4   4  -5   87.13    2.58
   6  -4   5   16.46    0.87
  -6  -4  -5   15.79    0.98
  -6  -4  -5   16.00    0.76
   6  -4   5   16.78    0.97
  -6   4  -5   16.85    0.99
   6   4   5   16.21    1.14
  -6   4  -5   16.65    0.90
   6   4   5   17.48    0.90
   8  -4   5   21.36    1.08
  -8  -4  -5   20.71    1.18
  -8  -4  -5   21.14    0.87
   8  -4   5   21.16    1.09
  -8   4  -5   20.83    0.98
  -8   4  -5   20.87    1.13
   8   4   5   20.39    1.29
   8   4   5   21.28    1.03
  10  -4   5    1.00    0.27
 -10  -4  -5    1.27    0.18
 -10  -4  -5    0.55    0.27
  10  -4   5    1.10    0.26
  10   4   5    0.54    0.26
  10   4   5    1.88    0.27
 -10   4  -5    0.72    0.15
 -10   4  -5    0.85    0.27
  12  -4   5   52.41    1.88
  12  -4   5   53.17    2.06
 -12  -4  -5   49.16    2.08
 -12   4  -5   49.76    1.57
 -12   4  -5   49.07    1.99
  12   4   5   53.50    1.86
  12   4   5   50.20    2.17
  14  -4   5   30.18    1.39
 -14  -4  -5   28.03    1.57
  14  -4   5   28.73    1.56
  14   4   5   29.99    1.35
  14   4   5   29.05    1.65
 -14   4  -5   28.98    1.50
  16  -4   5   55.60    2.03
 -16  -4  -5   55.55    2.37
  16  -4   5   54.89    2.37
  16   4   5   56.86    2.41
 -16   4  -5   53.88    2.23
  16   4   5   52.97    1.98
 -18  -4  -5   22.91    1.51
  18  -4   5   20.77    1.47
  18  -4   5   22.90    1.22
 -18   4  -5   20.87    1.38
  18   4   5   22.88    1.52
  18   4   5   22.83    1.23
 -20  -4  -5   48.43    2.35
  20  -4   5   50.20    2.49
  20   4   5   50.40    2.03
 -20   4  -5   49.11    2.25
  20   4   5   48.60    2.34
  22  -4   5    3.17    0.67
 -22  -4  -5    4.16    0.69
  22   4   5    4.91    0.80
 -22   4  -5    4.90    0.73
  24  -4   5   31.01    2.10
 -24  -4  -5   33.46    1.98
 -24   4  -5   29.45    1.82
  24   4   5   30.53    1.95
 -26  -4  -5    0.52    0.10
  26  -4   5    1.03    0.20
 -26   4  -5    0.39    0.15
  26   4   5    0.40    0.12
  27  -5  -5    9.94    0.81
 -27  -5   5    9.50    1.08
 -27   5   5    9.49    0.94
  27   5  -5   10.26    0.86
 -25  -5   5   18.80    1.45
  25  -5  -5   15.62    1.15
 -25   5   5   15.32    1.43
 -25   5   5   16.67    1.30
  25   5  -5   18.16    1.28
 -23  -5   5    7.99    0.98
  23  -5  -5    9.25    0.95
 -23   5   5    8.81    0.97
  23   5  -5    9.00    0.78
 -23   5   5    7.58    1.04
  21  -5  -5   29.59    1.67
 -21  -5   5   30.72    1.56
 -21  -5   5   30.53    1.87
 -21   5   5   30.07    1.98
 -21   5   5   29.79    1.73
  21   5  -5   31.10    1.76
 -19  -5   5    2.45    0.55
  19  -5  -5    2.90    0.55
 -19  -5   5    2.78    0.45
 -19   5   5    3.33    0.60
  19   5  -5    2.60    0.49
 -19   5   5    4.07    0.69
 -17  -5   5   40.05    2.09
  17  -5  -5   38.84    1.86
 -17  -5   5   38.80    1.73
 -17   5   5   39.12    1.94
 -17   5   5   37.24    2.05
  17   5  -5   42.20    2.03
  15  -5  -5   12.01    0.98
 -15  -5   5   11.04    0.86
 -15  -5   5   13.47    1.14
 -15   5   5   11.72    1.00
  15   5  -5   12.22    0.98
 -15   5   5   10.84    0.99
 -13  -5   5   45.66    2.17
 -13  -5   5   49.62    1.94
  13  -5  -5   45.29    1.93
  13   5  -5   46.11    2.11
 -13   5   5   47.02    2.13
 -13   5   5   48.25    2.11
 -11  -5   5    4.99    0.63
  11  -5  -5    3.08    0.53
 -11  -5   5    5.36    0.76
  11   5  -5    6.81    0.76
 -11   5   5    5.79    0.59
 -11   5   5    5.06    0.70
   9  -5  -5   62.28    2.21
  -9  -5   5   59.42    2.43
  -9  -5   5   58.78    2.14
  -9   5   5   62.40    2.47
  -9   5   5   63.80    2.29
   9   5  -5   62.09    2.41
   7  -5  -5    2.13    0.44
   7  -5  -5    1.94    0.20
  -7  -5   5    1.94    0.41
  -7  -5   5    1.79    0.44
   7   5  -5    1.98    0.41
  -7   5   5    1.98    0.49
  -7   5   5    2.02    0.32
   5  -5  -5  151.33    3.49
  -5  -5   5  150.07    3.81
   5  -5  -5  156.91    3.77
  -5  -5   5  155.84    4.21
  -5   5   5  150.71    3.81
   5   5  -5  151.41    4.25
  -5   5   5  151.26    4.30
  -3  -5   5    0.30    0.19
   3  -5  -5    0.26    0.17
   3  -5  -5    0.56    0.10
   3   5  -5    0.31    0.18
   3   5  -5    0.67    0.19
  -3   5   5    0.61    0.31
   1  -5  -5  256.98    5.49
   1  -5  -5  255.55    5.38
  -1  -5   5  263.86    5.58
  -1   5   5  254.57    5.47
   1   5  -5  262.83    5.96
   1   5  -5  261.81    6.11
  -1   5   5  268.54    6.34
  -1  -5  -5    3.60    0.46
  -1  -5  -5    3.45    0.44
   1  -5   5    3.66    0.53
  -1   5  -5    4.67    0.65
   1   5   5    3.14    0.61
   1   5   5    3.90    0.34
  -1   5  -5    3.76    0.55
   3  -5   5   89.15    2.70
  -3  -5  -5   90.44    2.48
  -3  -5  -5   92.68    2.78
  -3   5  -5   95.40    2.85
   3   5   5   89.34    3.16
  -3   5  -5   84.45    2.88
   3   5   5   92.14    2.54
  -5  -5  -5   17.48    1.12
   5  -5   5   20.14    0.92
  -5  -5  -5   19.01    0.96
   5  -5   5   17.94    1.11
  -5   5  -5   20.46    1.13
  -5   5  -5   18.82    1.21
   5   5   5   20.13    1.40
   7  -5   5   53.97    1.81
  -7  -5  -5   51.09    2.11
   7  -5   5   53.85    2.02
  -7  -5  -5   53.97    1.72
  -7   5  -5   55.62    1.95
   7   5   5   53.11    2.40
  -7   5  -5   50.43    2.10
   9  -5   5   10.37    0.75
  -9  -5  -5    8.74    0.85
   9  -5   5   11.51    0.88
  -9  -5  -5   11.04    0.65
  -9   5  -5   11.41    0.74
   9   5   5   10.02    1.00
  -9   5  -5   11.21    0.94
  11  -5   5    7.33    0.76
 -11  -5  -5    8.42    0.91
  11  -5   5    8.96    0.73
  11   5   5    8.23    0.98
 -11   5  -5    7.01    0.81
 -13  -5  -5   18.51    1.32
  13  -5   5   17.30    1.10
  13  -5   5   18.38    1.18
  13   5   5   16.18    1.33
 -13   5  -5   15.62    1.17
  15  -5   5   71.57    2.50
  15  -5   5   70.17    2.66
 -15  -5  -5   67.49    2.80
 -15   5  -5   66.90    2.66
  15   5   5   66.13    2.86
  17  -5   5    7.76    0.70
 -17  -5  -5    8.32    0.99
  17  -5   5    8.21    0.83
  17   5   5    7.59    1.00
 -17   5  -5    7.87    0.92
 -19  -5  -5   15.65    1.32
  19  -5   5   14.55    0.98
  19  -5   5   15.29    1.23
 -19   5  -5   13.70    1.17
  19   5   5   12.81    1.23
  21  -5   5   10.35    1.02
 -21  -5  -5   10.63    1.08
 -21   5  -5   10.43    1.11
  21   5   5   12.17    1.29
  23  -5   5   52.53    2.71
 -23  -5  -5   55.51    2.76
 -23   5  -5   52.17    2.58
  23   5   5   52.58    2.74
  25  -5   5   13.48    1.26
 -25  -5  -5   15.66    1.37
  25   5   5   14.09    1.35
 -25   5  -5   12.67    1.20
 -24  -6   5    4.23    0.72
  24  -6  -5    5.35    0.47
 -24   6   5    4.66    0.75
  24   6  -5    6.17    0.78
 -24   6   5    2.23    0.64
 -22  -6   5   21.15    1.62
  22  -6  -5   22.65    1.53
 -22   6   5   21.38    1.63
  22   6  -5   22.99    1.54
 -22   6   5   25.26    1.71
 -20  -6   5   20.40    1.28
  20  -6  -5   20.15    1.42
 -20  -6   5   20.85    1.57
 -20   6   5   18.51    1.45
 -20   6   5   19.95    1.50
  20   6  -5   22.12    1.51
 -18  -6   5   48.11    2.09
 -18  -6   5   44.49    2.37
  18  -6  -5   46.06    2.20
  18   6  -5   47.57    2.34
 -18   6   5   45.77    2.32
 -18   6   5   44.56    2.28
  16  -6  -5    9.26    0.98
 -16  -6   5    9.67    1.08
 -16  -6   5   10.17    0.87
  16   6  -5    9.20    0.89
 -16   6   5    8.86    0.85
 -16   6   5   10.01    1.00
  14  -6  -5   29.41    1.64
 -14  -6   5   29.47    1.81
 -14  -6   5   26.99    1.50
 -14   6   5   26.48    1.55
  14   6  -5   28.34    1.70
 -14   6   5   28.42    1.76
  12  -6  -5    2.41    0.52
 -12  -6   5    3.87    0.59
 -12  -6   5    2.95    0.61
 -12   6   5    3.65    0.69
  12   6  -5    2.98    0.57
 -12   6   5    3.13    0.48
  10  -6  -5   50.81    2.11
 -10  -6   5   48.36    2.04
 -10  -6   5   47.00    2.28
 -10   6   5   48.51    1.98
 -10   6   5   46.72    2.32
  10   6  -5   46.39    2.24
   8  -6  -5   13.73    1.02
  -8  -6   5   14.12    1.03
  -8  -6   5   13.58    1.15
  -8   6   5   12.73    1.18
   8   6  -5   13.41    1.11
  -6  -6   5   30.49    1.73
  -6  -6   5   30.07    1.55
   6  -6  -5   31.03    1.55
  -6   6   5   31.07    1.88
   6   6  -5   29.82    1.75
  -4  -6   5   38.80    1.77
   4  -6  -5   36.53    1.67
   4  -6  -5   37.48    1.53
   4   6  -5   34.71    1.94
  -4   6   5   36.72    2.07
  -2  -6   5   45.34    1.92
   2  -6  -5   46.23    1.80
   2  -6  -5   46.71    1.87
  -2   6   5   43.51    2.28
   2   6  -5   48.61    2.18
   2   6  -5   45.71    2.25
   0  -6  -5   80.47    2.57
   0  -6  -5   82.42    2.67
   0  -6   5   83.84    2.78
   0   6   5   83.13    3.24
   0   6  -5   82.10    3.15
   0   6  -5   87.96    3.03
   2  -6   5   24.73    1.40
  -2  -6  -5   24.60    1.37
  -2  -6  -5   27.82    1.34
   2   6   5   26.81    1.73
  -2   6  -5   28.52    1.55
  -2   6  -5   23.00    1.57
  -4  -6  -5   27.53    1.51
  -4  -6  -5   29.25    1.35
   4  -6   5   25.90    1.45
  -4   6  -5   30.08    1.76
  -4   6  -5   30.55    1.57
   4   6   5   30.04    1.86
  -6  -6  -5   17.53    1.21
  -6  -6  -5   17.83    1.00
   6  -6   5   16.17    1.14
  -6   6  -5   18.29    1.14
  -6   6  -5   14.87    1.21
   6   6   5   17.12    1.38
   8  -6   5   49.82    2.10
  -8  -6  -5   46.79    2.17
  -8  -6  -5   47.97    1.75
  -8   6  -5   51.10    1.98
  -8   6  -5   48.34    2.29
   8   6   5   50.52    2.52
  10  -6   5    5.67    0.72
 -10  -6  -5    6.47    0.83
  10   6   5    7.49    1.03
 -10   6  -5    7.21    0.89
  12  -6   5   34.04    1.73
 -12  -6  -5   34.54    1.93
  12   6   5   34.09    2.10
 -12   6  -5   32.36    1.86
 -14  -6  -5   12.11    1.13
  14  -6   5   12.48    0.97
  14   6   5   12.59    1.33
 -14   6  -5   10.80    1.04
 -16  -6  -5   52.48    2.59
  16  -6   5   54.12    2.34
  16  -6   5   51.65    2.22
  16   6   5   51.78    2.73
 -16   6  -5   51.56    2.50
 -18  -6  -5   13.46    1.23
  18  -6   5   11.38    1.01
  18  -6   5   13.14    0.95
 -18   6  -5   12.01    1.14
  18   6   5   12.05    1.34
  20  -6   5   52.48    2.25
 -20  -6  -5   55.07    2.76
  20  -6   5   51.90    2.55
 -20   6  -5   51.38    2.63
  20   6   5   50.17    2.79
 -22  -6  -5   10.74    1.23
  22  -6   5   10.90    1.03
  22   6   5    9.19    1.20
 -22   6  -5   11.17    1.21
  21  -7  -5   31.75    1.88
 -21  -7   5   31.25    2.07
 -21   7   5   28.43    1.95
  21   7  -5   29.39    1.88
  19  -7  -5    2.84    0.57
 -19  -7   5    4.20    0.58
 -19  -7   5    3.29    0.64
 -19   7   5    3.60    0.70
  19   7  -5    4.09    0.60
 -17  -7   5   49.50    2.61
  17  -7  -5   51.57    2.43
 -17  -7   5   54.65    2.37
 -17   7   5   48.23    2.59
  17   7  -5   50.98    2.50
  15  -7  -5    9.46    1.02
 -15  -7   5    7.99    1.03
 -15  -7   5    8.36    0.88
  15   7  -5    8.04    0.77
 -15   7   5    8.16    1.04
 -13  -7   5   24.15    1.49
 -13  -7   5   22.84    1.65
  13  -7  -5   21.54    1.48
  13   7  -5   22.13    1.53
 -13   7   5   24.04    1.73
 -11  -7   5    3.49    0.58
  11  -7  -5    2.62    0.54
 -11  -7   5    4.61    0.77
  11   7  -5    3.04    0.54
 -11   7   5    4.32    0.78
  -9  -7   5   62.55    2.51
  -9  -7   5   60.14    2.76
   9  -7  -5   62.10    2.54
   9   7  -5   62.65    2.80
  -9   7   5   60.22    2.90
  -7  -7   5    8.00    0.88
   7  -7  -5    8.12    0.88
  -7  -7   5    6.98    0.92
  -7   7   5    8.03    1.10
   7   7  -5    8.20    0.95
  -5  -7   5  117.45    3.63
   5  -7  -5  119.53    3.62
   5   7  -5  118.42    4.09
  -5   7   5  120.70    4.32
   5   7  -5  117.05    3.96
  -3  -7   5    6.00    0.76
   3  -7  -5    6.26    0.76
  -3   7   5    7.09    1.02
   3   7  -5    6.56    0.87
   3   7  -5    5.49    0.85
  -1  -7   5  137.71    3.98
   1  -7  -5  135.37    3.82
   1  -7  -5  137.70    3.86
   1   7  -5  134.23    4.52
   1   7  -5  144.17    4.39
  -1   7   5  135.33    4.61
  -1  -7  -5    0.28    0.13
   1  -7   5    0.56    0.21
  -1  -7  -5    0.80    0.18
  -1   7  -5    0.77    0.21
  -1   7  -5    0.36    0.14
   1   7   5    0.49    0.21
   3  -7   5  116.22    3.65
  -3  -7  -5  118.34    3.69
  -3  -7  -5  116.81    3.37
  -3   7  -5  127.13    3.93
   3   7   5  123.66    4.32
  -3   7  -5  117.03    4.17
  -5  -7  -5    2.92    0.53
  -5  -7  -5    2.31    0.39
   5  -7   5    1.60    0.44
  -5   7  -5    2.65    0.46
  -5   7  -5    1.38    0.43
   5   7   5    1.58    0.47
  -7  -7  -5   16.68    1.03
  -7  -7  -5   16.01    1.25
   7  -7   5   18.16    1.28
   7   7   5   15.38    1.41
  -7   7  -5   16.52    1.41
  -9  -7  -5    4.59    0.72
   9  -7   5    5.36    0.74
  -9   7  -5    5.59    0.85
   9   7   5    6.11    0.96
  11  -7   5   30.30    1.73
 -11  -7  -5   31.10    1.89
 -11   7  -5   28.50    1.89
  11   7   5   29.81    2.06
  13  -7   5   14.60    1.14
 -13  -7  -5   17.18    1.41
  13   7   5   14.08    1.41
 -13   7  -5   13.08    1.24
  15  -7   5   12.13    1.01
 -15  -7  -5   11.68    1.18
 -15   7  -5   11.73    1.17
  15   7   5   13.33    1.47
  17  -7   5   10.43    0.88
 -17  -7  -5   10.03    1.17
  17   7   5    9.34    1.24
 -17   7  -5   10.78    1.21
 -19  -7  -5   71.58    3.33
  19  -7   5   70.28    2.86
  19   7   5   74.04    3.64
 -19   7  -5   69.75    3.29
 -16  -8   5    6.58    0.95
 -16  -8   5    6.54    0.80
  16  -8  -5    5.42    0.81
 -16   8   5    5.97    0.95
  16   8  -5    6.06    0.76
  14  -8  -5   34.43    2.01
 -14  -8   5   33.12    2.15
 -14  -8   5   35.48    1.93
  14   8  -5   35.63    2.05
 -14   8   5   34.53    2.28
 -12  -8   5    5.79    0.87
 -12  -8   5    5.43    0.73
  12  -8  -5    3.96    0.68
 -12   8   5    3.84    0.78
  12   8  -5    5.84    0.76
 -10  -8   5   17.14    1.26
  10  -8  -5   16.51    1.31
 -10  -8   5   18.57    1.50
 -10   8   5   16.15    1.50
  10   8  -5   17.42    1.34
  -8  -8   5    2.81    0.56
   8  -8  -5    2.71    0.56
   8   8  -5    3.10    0.54
  -8   8   5    2.76    0.69
  -6  -8   5   38.28    2.01
   6  -8  -5   39.87    2.06
   6   8  -5   39.81    2.23
  -6   8   5   38.76    2.45
   6   8  -5   39.32    2.24
  -4  -8   5   36.54    1.96
   4  -8  -5   35.62    1.92
   4   8  -5   37.38    2.13
  -4   8   5   36.19    2.34
   4   8  -5   35.62    2.13
   2  -8  -5   26.46    1.58
  -2  -8   5   24.80    1.58
  -2   8   5   24.33    1.87
   2   8  -5   24.48    1.68
   2   8  -5   27.63    1.89
   0  -8  -5   37.30    1.85
   0  -8   5   36.86    1.98
   0  -8  -5   40.47    1.93
   0   8   5   40.71    2.43
   0   8  -5   40.99    2.17
   0   8  -5   36.85    2.28
  -2  -8  -5   26.62    1.57
  -2  -8  -5   26.38    1.49
   2  -8   5   25.15    1.62
  -2   8  -5   26.70    1.89
   2   8   5   28.05    2.00
  -2   8  -5   30.88    1.84
   4  -8   5   34.00    1.92
  -4  -8  -5   34.00    1.88
  -4  -8  -5   35.89    1.75
   4   8   5   31.30    2.13
  -4   8  -5   31.15    2.09
   6  -8   5    4.95    0.74
  -6  -8  -5    6.17    0.80
  -6  -8  -5    7.58    0.65
   6   8   5    7.07    1.06
  -6   8  -5    7.44    1.03
   8  -8   5   20.31    1.44
  -8  -8  -5   20.39    1.47
  -8   8  -5   17.49    1.54
   8   8   5   20.16    1.68
  10  -8   5    4.44    0.70
 -10  -8  -5    4.27    0.71
 -10   8  -5    3.44    0.71
  10   8   5    5.12    0.90
  12  -8   5   23.22    1.59
 -12  -8  -5   24.59    1.75
 -12   8  -5   23.49    1.82
  12   8   5   22.97    1.88
  14  -8   5    4.46    0.62
 -14  -8  -5    4.87    0.78
  14   8   5    4.35    0.85
 -14   8  -5    4.75    0.79
   7  -9  -5    1.54    0.31
  -7  -9   5    0.84    0.17
   7   9  -5    1.46    0.28
   7   9  -5    0.74    0.16
  -7   9   5    1.15    0.31
   5  -9  -5   45.52    2.32
  -5  -9   5   45.02    2.30
   5   9  -5   43.08    2.48
   5   9  -5   47.43    2.52
  -5   9   5   50.31    2.92
   3  -9  -5    3.62    0.58
  -3  -9   5    3.73    0.65
   3   9  -5    3.33    0.58
   3   9  -5    3.52    0.57
  -3   9   5    3.07    0.72
  -1  -9   5   66.84    2.91
   1  -9  -5   66.04    2.75
   1   9  -5   68.75    3.05
   1   9  -5   65.42    3.20
  -1   9   5   65.12    3.33
   1  -9   5    3.78    0.66
  -1  -9  -5    3.46    0.54
   1   9   5    2.97    0.65
  -1   9  -5    3.32    0.65
  -3  -9  -5   28.71    1.65
  -3  -9  -5   29.74    1.79
   3  -9   5   27.95    1.79
  -3   9  -5   29.29    2.06
   3   9   5   28.08    2.09
   5  -9   5    0.52    0.12
  -5   9  -5    0.20    0.09
   5   9   5    0.68    0.15
 -32   0   6   32.13    1.77
  32   0  -6   30.83    2.16
 -30   0   6   34.74    1.82
 -30   0   6   37.27    2.45
  28   0  -6    3.72    0.45
 -28   0   6    3.94    0.56
 -28   0   6    3.88    0.78
 -26   0   6   54.61    2.85
 -26   0   6   56.70    2.18
  26   0  -6   55.35    2.10
  24   0  -6   11.33    0.84
 -24   0   6   12.52    1.22
 -24   0   6   12.48    0.88
 -22   0   6  139.30    3.56
 -22   0   6  149.20    4.75
  22   0  -6  139.54    3.61
 -20   0   6   21.50    1.54
 -20   0   6   21.92    1.09
  20   0  -6   21.38    1.13
  18   0  -6   63.18    1.75
  18   0  -6   62.40    2.02
 -18   0   6   63.33    1.91
 -18   0   6   63.37    2.68
  16   0  -6   64.25    1.73
  16   0  -6   65.97    2.02
 -16   0   6   65.29    1.84
 -16   0   6   61.24    2.55
  14   0  -6  106.93    2.12
 -14   0   6  104.43    3.36
 -14   0   6  106.37    2.44
  14   0  -6  110.08    2.71
  14   0  -6  103.18    2.39
 -12   0   6   11.12    0.92
 -12   0   6   11.28    0.55
  12   0  -6   10.67    0.55
 -12   0   6   11.20    0.68
 -10   0   6   11.81    0.50
 -10   0   6   11.09    0.64
  10   0  -6   12.62    0.59
 -10   0   6    9.78    0.84
   8   0  -6   16.69    0.69
  -8   0   6   15.28    1.03
  -8   0   6   16.47    0.53
  -8   0   6   17.03    0.76
   6   0  -6  215.02    4.04
  -6   0   6  203.53    4.98
  -6   0   6  212.91    3.99
  -6   0   6  214.76    3.60
  -4   0   6    0.07    0.12
  -4   0   6    0.67    0.29
   4   0  -6   -0.03    0.12
  -2   0   6   47.25    0.98
   2   0  -6   49.48    1.33
  -2   0   6   47.90    1.74
  -2   0   6   48.55    1.23
   0   0  -6    5.01    0.37
   0   0  -6    5.95    0.25
   0   0   6    6.63    0.56
   0   0   6    5.71    0.33
  -2   0  -6  376.81    6.56
   2   0   6  344.71    7.11
  -2   0  -6  382.52    6.20
   2   0   6  364.90    6.01
  -4   0  -6    6.44    0.37
   4   0   6    6.17    0.27
  -4   0  -6    5.77    0.42
   4   0   6    4.91    0.47
   6   0   6  180.88    4.12
   6   0   6  184.73    3.08
  -6   0  -6  184.97    3.56
  -6   0  -6  180.02    3.69
  -8   0  -6    4.83    0.39
   8   0   6    4.97    0.19
   8   0   6    4.87    0.51
  -8   0  -6    4.97    0.42
 -10   0  -6  330.80    6.23
  10   0   6  333.31    6.89
 -10   0  -6  328.39    6.18
  10   0   6  331.80    5.38
 -12   0  -6    8.62    0.62
 -12   0  -6    9.55    0.64
  12   0   6   10.11    0.79
 -14   0  -6  114.25    2.93
  14   0   6  114.81    3.36
 -14   0  -6  112.48    2.87
  16   0   6   27.70    1.53
 -16   0  -6   30.63    1.30
 -16   0  -6   30.27    1.37
  18   0   6  209.53    5.40
 -18   0  -6  197.89    4.70
 -18   0  -6  205.05    4.61
 -20   0  -6   29.07    1.37
  20   0   6   28.49    1.71
 -20   0  -6   29.78    1.51
 -22   0  -6    8.09    0.69
  22   0   6    8.10    0.99
 -22   0  -6    8.16    0.80
 -24   0  -6   46.05    2.13
  24   0   6   42.82    2.34
  26   0   6   16.50    1.43
 -26   0  -6   15.85    1.26
 -28   0  -6   35.57    2.02
  28   0   6   34.51    2.23
 -31  -1   6   39.65    1.97
 -31   1   6   41.36    2.02
  31   1  -6   37.82    2.24
  29  -1  -6    2.22    0.16
 -29  -1   6    2.10    0.39
 -29   1   6    1.93    0.50
 -29   1   6    1.55    0.32
  27  -1  -6   67.30    2.47
 -27  -1   6   75.98    2.64
 -27  -1   6   70.99    3.19
  27   1  -6   71.98    2.46
 -27   1   6   68.63    3.45
 -27   1   6   72.14    2.61
  25  -1  -6    5.16    0.60
 -25  -1   6    5.51    0.63
 -25  -1   6    5.01    0.78
 -25   1   6    5.74    0.94
 -25   1   6    6.04    0.66
  25   1  -6    5.70    0.54
 -23  -1   6   60.16    2.71
  23  -1  -6   58.21    2.12
 -23  -1   6   58.95    2.11
 -23   1   6   58.94    2.95
  23   1  -6   59.10    2.10
 -23   1   6   61.34    2.16
  21  -1  -6   16.28    1.00
 -21  -1   6   15.41    0.93
 -21  -1   6   14.44    1.19
 -21  -1   6   16.52    0.93
 -21   1   6   15.95    1.39
 -21   1   6   14.97    0.94
  21   1  -6   15.47    0.97
 -19  -1   6  134.09    3.30
 -19  -1   6  138.37    3.39
 -19  -1   6  131.80    3.24
  19  -1  -6  132.39    3.37
 -19  -1   6  130.82    4.09
 -19   1   6  130.16    4.39
 -19   1   6  137.03    3.31
 -17  -1   6    1.24    0.32
 -17  -1   6    1.55    0.26
  17  -1  -6    1.58    0.33
 -17  -1   6    1.08    0.26
 -17   1   6    1.26    0.24
 -17   1   6    1.28    0.41
 -15  -1   6   65.96    1.82
 -15  -1   6   63.81    1.94
  15  -1  -6   66.43    1.52
 -15  -1   6   61.16    2.36
  15  -1  -6   62.43    1.95
 -15   1   6   65.10    2.67
  15   1  -6   64.39    1.93
 -15   1   6   65.37    1.83
  13  -1  -6   24.79    1.09
  13  -1  -6   26.05    0.79
 -13  -1   6   26.62    0.97
 -13  -1   6   23.21    1.31
 -13  -1   6   26.03    1.09
 -13   1   6   24.97    1.50
 -13   1   6   25.72    0.97
  13   1  -6   24.44    1.05
  11  -1  -6  190.02    3.51
 -11  -1   6  192.66    3.64
 -11  -1   6  191.41    4.64
  11  -1  -6  189.56    3.89
 -11  -1   6  189.15    3.90
 -11   1   6  190.54    3.70
 -11   1   6  183.88    4.91
  11   1  -6  188.67    3.96
  -9  -1   6  115.50    2.33
   9  -1  -6  120.54    2.65
   9  -1  -6  118.17    2.34
  -9  -1   6  113.31    3.22
  -9  -1   6  116.15    2.65
  -9   1   6  115.24    3.46
   9   1  -6  115.52    2.68
  -9   1   6  116.62    2.41
   7  -1  -6  163.82    3.20
   7  -1  -6  166.71    3.31
  -7  -1   6  161.85    3.32
  -7  -1   6  161.15    4.03
   7  -1  -6  166.88    3.12
  -7   1   6  157.12    4.27
   7   1  -6  162.57    3.41
  -7   1   6  170.15    3.09
  -5  -1   6  195.79    3.82
   5  -1  -6  210.11    3.86
   5  -1  -6  208.84    3.84
  -5  -1   6  194.90    4.69
   5  -1  -6  204.85    3.77
   5   1  -6  196.42    3.61
   5   1  -6  201.41    4.03
  -5   1   6  206.86    3.65
  -5   1   6  211.18    5.01
  -3  -1   6  135.56    3.44
   3  -1  -6  140.16    2.76
  -3  -1   6  137.42    2.80
   3  -1  -6  144.69    2.87
   3  -1  -6  145.50    2.83
  -3   1   6  140.46    2.74
   3   1  -6  144.63    2.49
   3   1  -6  144.05    3.02
  -3   1   6  139.52    3.67
   1  -1  -6  143.15    2.69
   1  -1  -6  141.46    2.87
   1  -1  -6  146.25    2.89
  -1  -1   6  131.60    3.31
  -1  -1   6  143.38    2.78
   1   1  -6  148.00    2.50
  -1   1   6  140.63    3.54
   1   1  -6  145.37    3.04
  -1   1   6  140.74    2.90
   1  -1   6  101.11    2.11
  -1  -1  -6  106.58    2.28
  -1  -1  -6  105.11    2.01
   1  -1   6   98.30    2.61
  -1  -1  -6  104.73    2.31
  -1   1  -6  107.80    1.99
   1   1   6  100.21    2.74
   1   1   6  103.97    2.24
  -1   1  -6  110.01    2.42
  -3  -1  -6   56.43    1.53
  -3  -1  -6   55.74    1.15
   3  -1   6   53.60    1.29
   3  -1   6   52.60    1.69
  -3  -1  -6   53.95    1.42
  -3   1  -6   53.78    1.27
   3   1   6   52.52    1.76
   5  -1   6    7.75    0.39
  -5  -1  -6    7.69    0.52
  -5  -1  -6    8.03    0.45
  -5  -1  -6    8.34    0.50
   5  -1   6    8.61    0.62
  -5  -1  -6    8.72    0.29
  -5   1  -6    8.07    0.44
  -5   1  -6   10.05    0.56
   5   1   6    8.11    0.62
  -7  -1  -6  136.58    2.88
  -7  -1  -6  145.48    3.10
  -7  -1  -6  141.32    3.15
   7  -1   6  137.58    2.63
   7  -1   6  138.45    3.46
  -7   1  -6  143.58    2.96
  -7   1  -6  142.30    3.06
   7   1   6  142.92    3.46
  -9  -1  -6    3.40    0.40
   9  -1   6    4.98    0.52
   9  -1   6    3.34    0.23
  -9  -1  -6    3.65    0.40
  -9   1  -6    3.13    0.34
   9   1   6    4.49    0.52
  -9   1  -6    3.19    0.36
  11  -1   6   93.99    2.86
 -11  -1  -6   99.06    2.57
  11  -1   6   99.20    2.00
 -11  -1  -6   97.11    2.56
  11   1   6   98.82    2.84
 -11   1  -6   95.55    2.39
 -11   1  -6   96.00    2.46
  13  -1   6    5.16    0.63
 -13  -1  -6    5.32    0.51
  13  -1   6    6.12    0.33
 -13  -1  -6    5.45    0.52
 -13   1  -6    5.50    0.51
 -13   1  -6    5.13    0.43
  13   1   6    5.56    0.59
  15  -1   6  145.23    4.06
 -15  -1  -6  137.59    3.53
 -15  -1  -6  148.28    3.60
 -15   1  -6  143.16    3.54
  15   1   6  145.59    3.93
 -15   1  -6  140.78    3.31
 -17  -1  -6    8.77    0.72
 -17  -1  -6    7.67    0.70
  17  -1   6    7.09    0.85
 -17   1  -6    8.10    0.59
 -17   1  -6    7.78    0.70
  17   1   6    6.95    0.74
  19  -1   6   86.04    3.17
 -19  -1  -6   84.71    2.69
 -19  -1  -6   84.29    2.74
 -19   1  -6   84.91    2.44
 -19   1  -6   83.70    2.72
  19   1   6   82.39    2.98
 -21  -1  -6    0.59    0.23
  21  -1   6    0.61    0.30
 -21  -1  -6    0.77    0.22
  21   1   6    0.60    0.26
 -21   1  -6    0.38    0.18
 -21   1  -6    0.70    0.09
 -23  -1  -6   54.16    2.19
  23  -1   6   49.71    2.55
 -23  -1  -6   47.87    2.15
  23   1   6   50.72    2.44
 -23   1  -6   50.57    2.21
 -25  -1  -6    3.38    0.60
 -25  -1  -6    3.48    0.51
  25  -1   6    3.71    0.77
  25   1   6    2.75    0.60
 -25   1  -6    3.07    0.58
 -27  -1  -6   36.84    2.01
  27  -1   6   40.48    2.46
 -27   1  -6   39.85    2.09
  27   1   6   39.64    2.29
  29  -1   6    0.85    0.22
 -29  -1  -6    0.64    0.14
 -29   1  -6    0.55    0.15
 -30  -2   6   20.91    1.36
  30  -2  -6   20.09    1.21
 -30   2   6   21.15    1.41
  30   2  -6   20.77    1.48
 -30   2   6   20.81    1.90
  28  -2  -6   25.09    1.42
 -28  -2   6   28.46    1.57
 -28   2   6   24.87    2.06
  28   2  -6   26.09    1.69
 -28   2   6   27.05    1.55
 -26  -2   6   56.38    2.58
  26  -2  -6   50.98    2.10
 -26  -2   6   53.88    2.18
  26   2  -6   52.22    2.03
 -26   2   6   48.84    2.13
 -26   2   6   50.46    2.96
 -24  -2   6    2.67    0.43
  24  -2  -6    3.03    0.48
 -24  -2   6    3.62    0.60
 -24  -2   6    2.92    0.46
 -24   2   6    2.76    0.71
  24   2  -6    3.44    0.50
 -24   2   6    3.08    0.48
  22  -2  -6   76.08    2.55
 -22  -2   6   79.02    2.98
 -22  -2   6   79.30    2.56
 -22  -2   6   84.33    2.71
 -22  -2   6   79.27    2.51
 -22   2   6   80.19    2.59
 -22   2   6   77.92    3.51
 -20  -2   6   18.72    1.06
 -20  -2   6   19.64    1.28
  20  -2  -6   18.45    1.11
 -20  -2   6   18.82    1.12
 -20  -2   6   20.15    1.08
 -20   2   6   18.11    1.05
 -20   2   6   17.35    1.50
 -18  -2   6   57.91    2.07
 -18  -2   6   57.34    1.91
 -18  -2   6   57.94    2.27
  18  -2  -6   52.91    1.93
 -18  -2   6   56.91    1.94
 -18   2   6   53.47    2.63
 -18   2   6   57.20    1.94
 -16  -2   6    7.86    0.71
 -16  -2   6    7.48    0.55
 -16  -2   6    6.65    0.58
  16  -2  -6    7.20    0.62
 -16  -2   6    7.84    0.66
 -16   2   6    6.64    0.89
 -16   2   6    8.12    0.61
 -14  -2   6   38.89    1.65
  14  -2  -6   38.41    1.46
 -14  -2   6   38.10    1.54
 -14  -2   6   37.47    1.35
 -14  -2   6   36.15    1.41
 -14   2   6   39.26    2.01
 -14   2   6   37.70    1.37
  12  -2  -6   69.45    2.01
  12  -2  -6   69.32    1.39
 -12  -2   6   69.06    2.14
 -12  -2   6   67.10    2.22
 -12  -2   6   67.07    1.97
 -12   2   6   63.42    2.59
 -12   2   6   67.79    1.90
 -10  -2   6   93.55    2.40
  10  -2  -6   99.98    2.47
  10  -2  -6  104.63    1.96
 -10  -2   6   97.49    2.75
 -10   2   6   95.34    3.20
 -10   2   6  100.80    2.37
  10   2  -6   94.69    2.27
  10   2  -6   97.42    2.63
   8  -2  -6    0.34    0.17
   8  -2  -6    0.68    0.07
  -8  -2   6    0.68    0.17
  -8  -2   6    0.23    0.11
  -8   2   6    0.50    0.20
   8   2  -6    1.00    0.10
   8   2  -6    0.27    0.14
  -8   2   6    0.52    0.14
   6  -2  -6   97.63    2.26
  -6  -2   6   93.40    2.26
  -6  -2   6   96.70    2.65
   6  -2  -6   98.37    2.02
   6   2  -6   95.74    2.47
  -6   2   6   88.79    2.93
   6   2  -6   89.91    2.23
  -6   2   6   97.18    2.28
   4  -2  -6    0.38    0.14
   4  -2  -6    0.66    0.13
  -4  -2   6    0.45    0.15
  -4  -2   6    0.40    0.15
  -4   2   6    0.97    0.31
   4   2  -6    0.29    0.14
  -4   2   6    0.71    0.17
   4   2  -6    0.79    0.13
   2  -2  -6  185.41    3.48
  -2  -2   6  173.23    3.98
  -2  -2   6  185.19    3.61
   2  -2  -6  189.10    3.58
   2   2  -6  178.32    3.42
  -2   2   6  180.69    4.43
   2   2  -6  175.69    3.80
  -2   2   6  182.01    3.86
   0  -2   6    3.66    0.33
   0  -2  -6    3.60    0.28
   0  -2   6    3.85    0.38
   0  -2  -6    3.32    0.32
   0   2  -6    4.14    0.29
   0   2  -6    3.63    0.37
   0   2   6    4.05    0.49
   0   2   6    4.28    0.45
  -2  -2  -6   49.87    1.21
   2  -2   6   46.46    1.54
   2  -2   6   48.82    1.37
  -2  -2  -6   49.24    1.46
  -2   2  -6   47.88    1.27
   2   2   6   46.60    1.54
  -2   2  -6   45.54    1.46
   2   2   6   43.56    1.65
   4  -2   6    5.16    0.39
  -4  -2  -6    6.04    0.48
   4  -2   6    5.72    0.48
  -4  -2  -6    5.31    0.29
   4   2   6    5.31    0.47
   4   2   6    5.24    0.51
  -4   2  -6    5.54    0.45
  -4   2  -6    5.69    0.39
   6  -2   6  247.27    4.53
   6  -2   6  237.48    5.16
  -6  -2  -6  227.97    4.08
  -6  -2  -6  244.34    4.91
  -6   2  -6  250.03    4.80
   6   2   6  245.72    5.22
  -6   2  -6  248.36    4.67
   6   2   6  240.67    4.91
  -8  -2  -6   22.28    1.06
   8  -2   6   19.94    1.08
  -8  -2  -6   20.82    1.02
  -8  -2  -6   21.26    0.53
   8  -2   6   22.45    0.87
   8   2   6   21.26    1.08
  -8   2  -6   23.14    0.94
  -8   2  -6   23.13    0.98
  10  -2   6  123.09    3.37
  10  -2   6  124.44    2.70
 -10  -2  -6  120.08    3.11
 -10  -2  -6  125.11    3.14
 -10   2  -6  121.94    2.83
 -10   2  -6  126.55    3.00
  10   2   6  124.28    3.26
  12  -2   6    9.08    0.80
  12  -2   6   10.06    0.56
 -12  -2  -6   11.16    0.79
 -12  -2  -6    9.35    0.74
  12   2   6    9.34    0.74
 -12   2  -6   10.42    0.72
 -12   2  -6   11.66    0.64
  14  -2   6  289.76    6.93
  14  -2   6  316.40    5.73
 -14  -2  -6  315.57    6.50
 -14  -2  -6  321.79    6.55
 -14   2  -6  306.10    5.95
 -14   2  -6  323.93    6.39
  14   2   6  312.70    6.76
 -16  -2  -6    5.84    0.66
 -16  -2  -6    4.41    0.60
  16  -2   6    5.93    0.77
 -16   2  -6    4.28    0.58
  16   2   6    6.00    0.69
 -16   2  -6    4.36    0.37
 -18  -2  -6   27.74    1.45
 -18  -2  -6   26.30    1.44
  18  -2   6   27.63    1.66
  18   2   6   24.54    1.43
 -18   2  -6   25.36    1.38
 -18   2  -6   26.11    1.11
 -20  -2  -6   26.71    1.50
 -20  -2  -6   28.02    1.53
  20  -2   6   27.49    1.75
 -20   2  -6   27.26    1.51
  20   2   6   27.21    1.56
  22  -2   6   24.76    1.73
 -22  -2  -6   26.42    1.54
 -22  -2  -6   26.45    1.55
 -22   2  -6   26.06    1.54
  22   2   6   27.36    1.61
 -24  -2  -6   42.70    2.12
 -24  -2  -6   45.54    2.16
  24  -2   6   44.78    2.51
 -24   2  -6   48.14    2.24
  24   2   6   45.55    2.25
  26  -2   6    8.12    1.11
 -26  -2  -6    7.04    0.88
 -26  -2  -6    8.37    0.83
 -26   2  -6    7.48    0.92
  26   2   6    8.40    0.83
 -28  -2  -6   19.78    1.49
  28  -2   6   21.41    1.81
 -28   2  -6   23.91    1.64
  28   2   6   22.05    1.54
 -29  -3   6    0.91    0.18
 -29   3   6    1.08    0.31
 -29   3   6    0.87    0.15
 -27  -3   6   31.15    1.70
 -27  -3   6   34.77    1.83
  27  -3  -6   32.16    1.67
 -27   3   6   31.47    1.71
 -27   3   6   26.78    2.17
  25  -3  -6    4.18    0.57
 -25  -3   6    5.81    0.71
 -25  -3   6    5.40    0.65
 -25  -3   6    5.25    0.60
 -25   3   6    4.08    0.59
 -25   3   6    5.64    0.99
  23  -3  -6   46.27    2.02
 -23  -3   6   51.05    2.19
 -23  -3   6   48.67    1.95
 -23  -3   6   51.86    2.23
 -23   3   6   45.60    2.71
 -23   3   6   48.41    2.06
  21  -3  -6    1.56    0.39
 -21  -3   6    1.51    0.37
 -21  -3   6    1.48    0.32
 -21  -3   6    2.27    0.40
 -21   3   6    1.60    0.54
 -21   3   6    1.85    0.39
  21   3  -6    2.45    0.41
 -19  -3   6   42.38    1.81
  19  -3  -6   40.52    1.77
 -19  -3   6   42.86    1.93
 -19  -3   6   42.06    1.70
  19   3  -6   43.83    1.78
 -19   3   6   42.88    2.39
 -19   3   6   43.17    1.79
  17  -3  -6   15.94    1.03
 -17  -3   6   15.94    0.99
 -17  -3   6   17.62    1.15
 -17  -3   6   16.49    0.98
 -17   3   6   14.27    0.94
  17   3  -6   16.72    0.96
 -17   3   6   15.19    1.30
  15  -3  -6   53.91    1.94
 -15  -3   6   52.89    1.85
 -15  -3   6   56.15    1.95
 -15  -3   6   56.29    2.14
 -15   3   6   49.54    2.41
 -15   3   6   53.11    1.89
  15   3  -6   52.86    1.84
  13  -3  -6    8.96    0.71
 -13  -3   6   10.81    0.70
 -13  -3   6    9.52    0.79
 -13  -3   6    8.96    0.67
  13   3  -6    9.97    0.67
 -13   3   6    9.69    0.71
 -13   3   6    9.30    0.92
 -11  -3   6   40.73    1.71
 -11  -3   6   40.78    1.49
  11  -3  -6   42.71    1.57
 -11  -3   6   42.96    1.50
  11   3  -6   39.21    1.49
 -11   3   6   40.70    1.51
 -11   3   6   40.67    1.97
   9  -3  -6   74.18    2.15
  -9  -3   6   77.49    2.13
  -9  -3   6   75.93    2.41
  -9  -3   6   75.16    2.14
   9  -3  -6   77.28    1.64
  -9   3   6   72.92    2.68
  -9   3   6   73.96    2.17
   9   3  -6   72.87    2.20
   7  -3  -6  131.27    2.61
  -7  -3   6  126.81    3.03
   7  -3  -6  128.43    3.00
  -7  -3   6  127.51    3.01
   7   3  -6  123.52    3.14
   7   3  -6  126.41    3.30
  -7   3   6  132.73    3.19
  -7   3   6  123.94    3.65
   5  -3  -6  113.34    2.68
  -5  -3   6  109.82    2.72
   5  -3  -6  113.90    2.44
  -5  -3   6  113.77    2.82
  -5   3   6  110.94    3.32
   5   3  -6  115.06    3.02
   5   3  -6  111.09    2.87
  -5   3   6  111.77    2.93
  -3  -3   6  132.34    3.09
   3  -3  -6  139.32    2.94
   3  -3  -6  140.62    3.02
  -3  -3   6  136.28    3.19
   3   3  -6  136.20    3.34
  -3   3   6  141.76    3.77
  -3   3   6  137.12    3.43
   3   3  -6  133.34    3.19
   1  -3  -6  107.24    2.43
   1  -3  -6  108.86    2.51
  -1  -3   6  105.59    2.58
  -1  -3   6  101.35    2.58
  -1   3   6  106.13    3.11
  -1   3   6  103.14    2.92
   1   3  -6  103.27    2.73
   1   3  -6  105.54    2.57
  -1  -3  -6   79.60    2.10
   1  -3   6   78.81    2.10
   1  -3   6   74.59    2.09
  -1  -3  -6   78.39    1.90
  -1   3  -6   75.92    2.20
   1   3   6   80.19    2.48
  -1   3  -6   78.59    2.06
   1   3   6   74.52    2.38
   3  -3   6   24.39    1.04
   3  -3   6   24.34    1.03
  -3  -3  -6   24.26    1.06
  -3  -3  -6   23.69    0.86
  -3   3  -6   23.45    0.99
   3   3   6   23.63    1.23
  -3   3  -6   23.15    1.06
   3   3   6   22.74    1.12
  -5  -3  -6    1.68    0.15
   5  -3   6    1.24    0.25
  -5  -3  -6    1.29    0.28
   5  -3   6    1.38    0.26
  -5   3  -6    1.46    0.27
   5   3   6    1.66    0.29
   5   3   6    1.31    0.31
  -5   3  -6    1.69    0.28
  -7  -3  -6   26.74    0.86
  -7  -3  -6   28.67    1.27
   7  -3   6   27.60    1.25
   7  -3   6   27.46    1.12
   7   3   6   28.87    1.28
   7   3   6   24.55    1.26
  -7   3  -6   27.38    1.16
  -7   3  -6   27.30    1.12
  -9  -3  -6    8.72    0.40
   9  -3   6   10.19    0.66
   9  -3   6    9.65    0.75
  -9  -3  -6    8.73    0.71
   9   3   6    8.92    0.75
   9   3   6    8.54    0.66
  -9   3  -6    8.42    0.64
  -9   3  -6   10.20    0.63
 -11  -3  -6   94.73    2.83
  11  -3   6   94.11    2.90
  11  -3   6   93.64    2.47
  11   3   6   95.32    2.88
 -11   3  -6   94.86    2.39
 -11   3  -6   93.99    2.68
  11   3   6   97.45    2.78
  13  -3   6    6.19    0.72
  13  -3   6    5.92    0.48
 -13  -3  -6    6.39    0.72
  13   3   6    5.75    0.55
  13   3   6    5.92    0.70
 -13   3  -6    5.37    0.62
 -13   3  -6    5.13    0.41
 -15  -3  -6   71.90    2.55
  15  -3   6   73.47    2.14
  15  -3   6   72.15    2.71
 -15  -3  -6   72.65    2.57
  15   3   6   73.49    2.46
 -15   3  -6   69.70    1.98
 -15   3  -6   70.75    2.43
  17  -3   6    9.25    0.61
 -17  -3  -6    8.88    0.85
 -17  -3  -6    7.86    0.80
  17  -3   6    7.81    0.91
 -17   3  -6    8.77    0.80
  17   3   6    8.21    0.74
 -19  -3  -6   70.64    2.70
  19  -3   6   66.34    2.84
 -19  -3  -6   70.36    2.69
  19   3   6   67.16    2.53
 -19   3  -6   64.61    2.50
  21  -3   6    3.22    0.68
 -21  -3  -6    3.06    0.61
 -21  -3  -6    2.98    0.55
 -21   3  -6    3.69    0.62
  21   3   6    2.95    0.49
 -23  -3  -6   23.61    1.57
  23  -3   6   22.51    1.71
 -23  -3  -6   23.32    1.56
 -23   3  -6   24.15    1.55
  23   3   6   23.47    1.46
  25  -3   6    0.21    0.15
 -25  -3  -6    0.74    0.13
 -25  -3  -6    0.40    0.15
 -25   3  -6    0.46    0.17
  27  -3   6   33.57    2.32
 -27  -3  -6   33.80    2.04
 -27  -3  -6   32.77    1.96
 -27   3  -6   35.51    2.06
  27   3   6   33.90    1.92
  28  -4  -6    1.99    0.12
 -28   4   6    1.34    0.30
  26  -4  -6   21.60    1.37
 -26  -4   6   20.80    1.46
 -26   4   6   21.56    1.42
  26   4  -6   20.76    1.32
 -26   4   6   18.41    1.72
  24  -4  -6   15.98    1.16
 -24  -4   6   16.35    1.08
 -24  -4   6   15.69    1.22
  24   4  -6   17.19    1.17
 -24   4   6   16.40    1.55
 -24   4   6   14.99    1.15
 -22  -4   6   18.05    1.31
  22  -4  -6   17.23    1.19
 -22  -4   6   16.35    1.07
 -22   4   6   16.06    1.16
 -22   4   6   15.64    1.46
  22   4  -6   17.36    1.18
 -20  -4   6    0.67    0.17
  20  -4  -6    0.93    0.29
 -20  -4   6    0.73    0.19
  20   4  -6    0.69    0.14
 -20   4   6    0.64    0.25
 -20   4   6    0.60    0.19
 -18  -4   6   42.19    2.03
 -18  -4   6   40.84    1.74
  18  -4  -6   40.29    1.83
 -18   4   6   41.86    2.32
 -18   4   6   41.39    1.85
  18   4  -6   40.81    1.82
  16  -4  -6   37.76    1.71
 -16  -4   6   38.74    1.64
 -16  -4   6   39.10    1.91
 -16   4   6   38.26    2.11
 -16   4   6   38.48    1.73
  16   4  -6   37.42    1.68
 -14  -4   6   21.14    1.35
  14  -4  -6   20.21    1.19
 -14  -4   6   20.68    1.14
 -14   4   6   20.93    1.44
  14   4  -6   22.34    1.21
 -14   4   6   19.72    1.17
 -12  -4   6    1.72    0.35
 -12  -4   6    1.57    0.42
  12  -4  -6    1.90    0.41
 -12   4   6    1.31    0.35
  12   4  -6    2.69    0.40
 -12   4   6    2.79    0.53
 -10  -4   6   26.10    1.45
 -10  -4   6   25.49    1.24
  10  -4  -6   27.29    1.29
 -10   4   6   26.42    1.49
  10   4  -6   28.31    1.40
 -10   4   6   26.05    1.34
  -8  -4   6   12.95    0.97
  -8  -4   6   12.29    0.84
   8  -4  -6   12.42    0.57
   8  -4  -6   11.81    0.82
  -8  -4   6   12.78    0.59
   8   4  -6   12.39    0.87
  -8   4   6   12.67    0.92
  -8   4   6   12.21    0.92
  -6  -4   6   84.88    2.44
   6  -4  -6   83.12    2.37
  -6  -4   6   83.13    2.01
   6  -4  -6   83.56    2.07
   6   4  -6   79.27    2.60
  -6   4   6   84.54    2.69
  -6   4   6   83.77    2.75
   6   4  -6   85.22    2.73
  -4  -4   6    0.30    0.16
   4  -4  -6    0.50    0.09
   4  -4  -6    0.20    0.13
  -4   4   6    0.48    0.21
   4   4  -6    0.59    0.13
  -4   4   6    0.87    0.20
   4   4  -6    0.32    0.20
  -2  -4   6   77.65    2.31
   2  -4  -6   78.66    2.17
  -2  -4   6   75.76    2.01
   2  -4  -6   81.45    2.16
  -2   4   6   77.50    2.51
   2   4  -6   78.00    2.47
  -2   4   6   76.05    2.64
   2   4  -6   76.99    2.49
   0  -4  -6    7.34    0.57
   0  -4  -6    7.65    0.56
   0  -4   6    7.85    0.50
   0  -4   6    7.82    0.64
   0   4   6    8.70    0.69
   0   4  -6    7.99    0.68
   0   4  -6    7.88    0.64
   0   4   6    7.71    0.77
  -2  -4  -6   77.38    2.27
  -2  -4  -6   74.57    2.02
   2  -4   6   78.51    2.32
   2  -4   6   75.67    2.09
  -2   4  -6   78.81    2.40
  -2   4  -6   75.09    2.33
   2   4   6   80.44    2.48
   2   4   6   78.50    2.69
  -4  -4  -6    0.60    0.22
  -4  -4  -6    0.81    0.17
   4  -4   6    0.98    0.28
   4  -4   6    0.84    0.18
   4   4   6    0.66    0.31
  -4   4  -6    0.74    0.23
   4   4   6    1.35    0.25
  -4   4  -6    0.86    0.24
  -6  -4  -6   27.06    1.03
   6  -4   6   30.09    1.31
   6  -4   6   29.48    1.25
  -6  -4  -6   27.65    1.34
  -6   4  -6   26.91    1.28
   6   4   6   28.56    1.28
   6   4   6   26.06    1.48
  -6   4  -6   27.64    1.24
  -8  -4  -6    1.06    0.09
   8  -4   6    0.58    0.20
  -8  -4  -6    0.84    0.30
   8  -4   6    0.82    0.18
   8   4   6    0.42    0.27
   8   4   6    0.98    0.17
  -8   4  -6    0.31    0.16
  -8   4  -6    0.90    0.21
  10  -4   6   79.14    2.39
  10  -4   6   78.42    2.56
 -10  -4  -6   75.36    2.61
  10   4   6   76.68    2.76
 -10   4  -6   79.56    2.25
 -10   4  -6   79.66    2.52
  10   4   6   82.26    2.51
 -12  -4  -6    4.63    0.66
  12  -4   6    5.47    0.50
  12  -4   6    5.48    0.64
 -12   4  -6    4.51    0.38
 -12   4  -6    4.64    0.61
  12   4   6    5.63    0.50
  12   4   6    5.44    0.74
  14  -4   6   45.16    2.04
  14  -4   6   46.22    1.76
 -14  -4  -6   46.54    2.09
 -14   4  -6   46.71    1.99
  14   4   6   47.63    1.85
  14   4   6   46.35    2.15
  16  -4   6   12.54    1.06
  16  -4   6   11.45    0.79
 -16  -4  -6   12.21    1.06
  16   4   6   11.10    1.03
  16   4   6   12.95    0.87
 -16   4  -6   11.72    0.97
  18  -4   6   28.88    1.75
 -18  -4  -6   29.19    1.72
  18  -4   6   29.06    1.36
  18   4   6   27.68    1.71
  18   4   6   28.52    1.45
 -18   4  -6   28.24    1.62
 -20  -4  -6   11.07    1.06
  20  -4   6    9.84    1.04
  20   4   6   11.09    1.05
 -20   4  -6    8.99    0.97
  20   4   6   10.21    0.78
  22  -4   6   20.62    1.61
 -22  -4  -6   22.26    1.58
 -22   4  -6   23.50    1.55
  22   4   6   22.71    1.62
 -24  -4  -6   10.29    1.02
  24  -4   6    9.37    1.16
  24   4   6    8.05    1.02
 -24   4  -6    9.16    1.03
  26  -4   6    1.93    0.39
 -26  -4  -6    3.01    0.56
 -26   4  -6    1.46    0.37
  26   4   6    2.26    0.56
 -25  -5   6    2.15    0.45
  25  -5  -6    2.49    0.44
  25   5  -6    3.48    0.27
 -25   5   6    2.07    0.49
 -23  -5   6   14.18    1.23
 -23  -5   6   13.54    1.01
  23  -5  -6   12.80    1.08
 -23   5   6   15.34    1.40
 -23   5   6   14.04    1.15
  23   5  -6   13.91    1.07
 -21  -5   6    0.67    0.19
 -21  -5   6    1.24    0.27
  21  -5  -6    0.99    0.30
 -21   5   6    0.95    0.23
 -21   5   6    1.11    0.29
  21   5  -6    1.37    0.09
 -19  -5   6    6.15    0.69
  19  -5  -6    6.01    0.77
 -19  -5   6    6.70    0.87
 -19   5   6    6.54    0.88
  19   5  -6    6.68    0.64
 -19   5   6    5.95    0.77
 -17  -5   6    0.48    0.09
 -17  -5   6    0.76    0.28
  17  -5  -6    0.75    0.32
 -17   5   6    0.75    0.28
 -17   5   6    0.87    0.26
  17   5  -6    0.99    0.17
  15  -5  -6   14.19    1.07
 -15  -5   6   15.34    1.22
 -15  -5   6   14.56    1.03
  15   5  -6   14.10    1.08
 -15   5   6   14.50    1.11
 -15   5   6   16.06    1.24
 -13  -5   6   14.96    1.02
  13  -5  -6   13.65    1.01
 -13  -5   6   13.17    1.12
 -13   5   6   14.90    1.13
  13   5  -6   14.03    1.07
 -13   5   6   14.63    1.10
 -11  -5   6   12.95    1.09
  11  -5  -6   12.48    0.96
 -11  -5   6   12.78    0.94
  11   5  -6   14.68    1.05
 -11   5   6   15.11    1.07
 -11   5   6   13.11    1.05
  -9  -5   6   22.20    1.25
   9  -5  -6   20.44    1.20
  -9  -5   6   21.10    1.39
   9   5  -6   22.40    1.35
  -9   5   6   19.74    1.31
  -9   5   6   22.07    1.28
   7  -5  -6   25.57    1.05
   7  -5  -6   24.73    1.30
  -7  -5   6   26.41    1.35
  -7   5   6   25.28    1.51
  -7   5   6   24.30    1.31
   7   5  -6   26.29    1.47
   5  -5  -6   32.95    1.29
   5  -5  -6   32.46    1.47
  -5  -5   6   33.03    1.54
   5   5  -6   33.58    1.72
   5   5  -6   34.36    1.70
  -5   5   6   33.07    1.78
  -5   5   6   34.98    1.56
  -3  -5   6   32.53    1.51
   3  -5  -6   28.31    1.32
   3  -5  -6   30.80    1.30
  -3   5   6   32.73    1.44
  -3   5   6   31.96    1.78
   3   5  -6   31.82    1.65
   3   5  -6   31.35    1.63
   1  -5  -6   11.04    0.75
   1  -5  -6   10.78    0.75
  -1  -5   6   10.62    0.83
   1   5  -6    9.69    0.83
  -1   5   6    9.70    0.94
  -1   5   6   10.45    0.73
   1   5  -6    9.32    0.84
  -1  -5  -6    9.91    0.74
   1  -5   6    8.48    0.75
  -1  -5  -6    9.55    0.69
  -1   5  -6    9.33    0.81
   1   5   6    9.62    1.02
  -1   5  -6    9.82    0.84
   1   5   6   10.00    0.68
  -3  -5  -6   17.45    0.93
   3  -5   6   18.56    1.12
  -3  -5  -6   16.80    1.05
  -3   5  -6   17.19    1.10
   3   5   6   16.90    1.27
  -3   5  -6   19.34    1.19
   3   5   6   18.59    1.01
   5  -5   6   22.86    1.02
  -5  -5  -6   21.84    1.27
  -5  -5  -6   20.85    1.00
   5  -5   6   20.46    1.18
  -5   5  -6   19.95    1.24
  -5   5  -6   19.58    1.14
   5   5   6   19.30    1.40
   7  -5   6    5.13    0.62
  -7  -5  -6    5.25    0.42
   7  -5   6    4.21    0.40
  -7  -5  -6    4.44    0.63
  -7   5  -6    4.21    0.61
  -7   5  -6    4.34    0.53
   7   5   6    5.19    0.79
   9  -5   6    4.07    0.48
  -9  -5  -6    3.44    0.59
  -9  -5  -6    3.96    0.31
   9  -5   6    3.18    0.51
  -9   5  -6    3.78    0.45
  -9   5  -6    3.36    0.57
   9   5   6    3.03    0.63
 -11  -5  -6   23.23    1.46
  11  -5   6   23.76    1.30
  11  -5   6   22.35    1.26
  11   5   6   22.83    1.54
 -11   5  -6   22.02    1.37
 -13  -5  -6    0.76    0.32
  13  -5   6    0.49    0.11
  13  -5   6    0.33    0.14
  13   5   6    0.06    0.15
 -13   5  -6    0.54    0.25
  15  -5   6   26.65    1.55
  15  -5   6   26.37    1.40
 -15  -5  -6   27.25    1.69
  15   5   6   25.38    1.70
 -15   5  -6   25.57    1.55
 -17  -5  -6    1.02    0.32
  17  -5   6    0.82    0.19
 -17   5  -6    0.55    0.21
  17   5   6    0.46    0.16
 -19  -5  -6   19.06    1.48
  19  -5   6   16.81    1.08
  19  -5   6   17.57    1.34
  19   5   6   17.03    1.43
 -19   5  -6   17.21    1.33
  21  -5   6    1.51    0.32
 -21  -5  -6    2.06    0.50
 -21   5  -6    1.60    0.39
  21   5   6    1.56    0.39
 -23  -5  -6   16.24    1.41
  23  -5   6   16.67    1.42
 -23   5  -6   16.64    1.36
  23   5   6   16.84    1.48
 -24  -6   6    1.73    0.31
  24  -6  -6    1.80    0.31
 -24   6   6    1.53    0.32
 -22  -6   6    2.05    0.45
  22  -6  -6    2.07    0.48
 -22  -6   6    2.03    0.41
 -22   6   6    1.53    0.32
  20  -6  -6    7.77    0.91
 -20  -6   6    9.43    0.84
 -20  -6   6    7.43    0.97
 -20   6   6    6.40    0.90
 -20   6   6    7.09    0.90
  20   6  -6    8.33    0.77
  18  -6  -6    2.38    0.54
 -18  -6   6    1.79    0.44
 -18  -6   6    3.32    0.52
 -18   6   6    1.42    0.36
 -18   6   6    2.09    0.48
  18   6  -6    2.98    0.49
 -16  -6   6    1.29    0.28
  16  -6  -6    0.62    0.24
 -16  -6   6    1.06    0.30
  16   6  -6    1.44    0.14
 -16   6   6    1.70    0.40
 -16   6   6    0.91    0.28
  14  -6  -6    8.80    0.93
 -14  -6   6   10.35    1.11
 -14  -6   6   10.54    0.90
  14   6  -6    8.02    0.77
 -14   6   6    8.87    0.84
 -14   6   6   10.03    0.99
 -12  -6   6   12.63    1.17
  12  -6  -6   13.43    1.07
 -12  -6   6   14.01    1.06
  12   6  -6   13.83    1.12
 -12   6   6   14.89    1.08
 -12   6   6   12.78    1.14
 -10  -6   6   18.48    1.40
 -10  -6   6   20.64    1.30
  10  -6  -6   19.23    1.26
 -10   6   6   19.71    1.20
 -10   6   6   18.11    1.39
  10   6  -6   17.57    1.27
  -8  -6   6    1.34    0.35
   8  -6  -6    1.01    0.34
  -8  -6   6    1.56    0.45
  -8   6   6    0.63    0.29
   8   6  -6    1.16    0.26
  -8   6   6    0.93    0.22
   6  -6  -6    7.17    0.76
  -6  -6   6    6.23    0.75
   6   6  -6    5.49    0.80
  -6   6   6    6.60    0.92
   6   6  -6    5.55    0.75
   4  -6  -6    0.93    0.30
  -4  -6   6    1.36    0.36
   4  -6  -6    1.64    0.15
  -4   6   6    0.92    0.36
   4   6  -6    1.29    0.39
   4   6  -6    1.33    0.38
   2  -6  -6   11.28    0.86
  -2  -6   6   11.20    0.93
   2  -6  -6   11.75    0.83
   2   6  -6   11.83    1.04
  -2   6   6   11.37    1.11
   2   6  -6   11.64    1.03
   0  -6   6    2.60    0.51
   0  -6  -6    3.88    0.50
   0  -6  -6    3.12    0.47
   0   6  -6    3.47    0.59
   0   6   6    3.29    0.67
   0   6  -6    3.48    0.63
   2  -6   6    9.63    0.87
  -2  -6  -6    9.20    0.80
  -2  -6  -6   10.42    0.78
  -2   6  -6    9.57    0.89
  -2   6  -6   10.46    0.97
   2   6   6   10.55    1.14
  -4  -6  -6    3.29    0.53
   4  -6   6    3.49    0.57
  -4  -6  -6    2.70    0.40
  -4   6  -6    2.65    0.56
   4   6   6    2.76    0.64
  -4   6  -6    3.68    0.56
   6  -6   6   10.79    0.91
  -6  -6  -6    9.55    0.91
  -6  -6  -6   11.34    0.75
   6   6   6   10.89    1.18
  -6   6  -6   11.38    0.90
  -6   6  -6   10.10    0.96
  -8  -6  -6    2.05    0.19
  -8  -6  -6    2.04    0.48
   8  -6   6    0.81    0.29
  -8   6  -6    1.55    0.43
  -8   6  -6    1.59    0.31
   8   6   6    1.36    0.46
 -10  -6  -6    8.23    0.95
  10  -6   6    8.75    0.84
  10   6   6    8.72    1.10
 -10   6  -6    7.30    0.90
  12  -6   6    0.50    0.15
 -12  -6  -6    0.41    0.18
 -12   6  -6    0.83    0.30
  12   6   6    1.11    0.34
  14  -6   6    4.95    0.63
 -14  -6  -6    4.50    0.76
 -14   6  -6    3.87    0.68
  14   6   6    4.77    0.87
 -16  -6  -6    0.41    0.19
  16   6   6    0.15    0.14
 -16   6  -6    0.42    0.17
  18  -6   6    6.12    0.75
  18  -6   6    6.05    0.56
 -18  -6  -6    6.14    0.90
  18   6   6    6.15    0.96
 -18   6  -6    4.93    0.78
 -20  -6  -6    2.03    0.51
  20  -6   6    2.18    0.42
 -20   6  -6    1.77    0.46
  20   6   6    1.59    0.39
 -22  -6  -6    1.20    0.32
 -22   6  -6    0.71    0.12
  22   6   6    0.71    0.24
 -19  -7   6    0.91    0.17
  19  -7  -6    0.45    0.13
 -19  -7   6    0.60    0.23
 -19   7   6    0.96    0.19
  19   7  -6    0.32    0.08
 -17  -7   6    1.83    0.29
 -17  -7   6    2.00    0.48
  17  -7  -6    1.05    0.36
  17   7  -6    1.63    0.25
 -17   7   6    1.44    0.34
  15  -7  -6    1.01    0.30
 -15  -7   6    1.18    0.23
 -15  -7   6    0.78    0.25
  15   7  -6    1.32    0.08
 -15   7   6    1.25    0.34
 -13  -7   6    0.32    0.11
 -13  -7   6    0.06    0.11
  13  -7  -6    0.18    0.12
 -13   7   6    0.95    0.22
 -11  -7   6    0.72    0.28
  11  -7  -6    0.79    0.23
 -11  -7   6    0.90    0.26
  11   7  -6    0.52    0.10
 -11   7   6    0.55    0.21
  -9  -7   6    1.69    0.41
   9  -7  -6    2.63    0.55
  -9   7   6    1.77    0.53
   9   7  -6    1.62    0.32
  -7  -7   6    0.40    0.17
   7  -7  -6    0.14    0.14
   7   7  -6    0.43    0.17
   7   7  -6    0.37    0.13
  -7   7   6    0.52    0.27
   5  -7  -6    0.69    0.23
  -5  -7   6    0.88    0.30
  -5   7   6    0.63    0.29
   5   7  -6    0.61    0.23
   5   7  -6    0.44    0.15
  -3  -7   6    2.82    0.54
   3  -7  -6    3.46    0.57
   3   7  -6    3.69    0.67
  -3   7   6    4.29    0.81
   3   7  -6    4.84    0.77
  -1  -7   6    1.70    0.42
   1  -7  -6    2.46    0.41
   1  -7  -6    2.23    0.45
   1   7  -6    1.93    0.45
   1   7  -6    2.35    0.51
  -1   7   6    2.43    0.59
   1  -7   6    0.27    0.14
  -1  -7  -6    0.88    0.16
  -1  -7  -6    0.74    0.19
  -1   7  -6    0.41    0.19
  -1   7  -6    0.54    0.20
   1   7   6    0.43    0.27
  -3  -7  -6    0.61    0.13
  -3  -7  -6    0.31    0.07
   3  -7   6    0.27    0.15
  -3   7  -6    0.57    0.14
  -3   7  -6    0.77    0.19
   3   7   6    0.39    0.22
  -5  -7  -6    5.41    0.59
  -5  -7  -6    4.27    0.63
   5  -7   6    4.31    0.67
  -5   7  -6    4.49    0.75
  -5   7  -6    4.75    0.65
   5   7   6    4.79    0.83
  -7  -7  -6    2.01    0.46
   7  -7   6    2.44    0.52
  -7  -7  -6    2.28    0.35
  -7   7  -6    2.05    0.51
   7   7   6    1.64    0.50
   9  -7   6    1.13    0.32
  -9  -7  -6    1.41    0.39
   9   7   6    1.30    0.34
  -9   7  -6    1.47    0.40
 -11  -7  -6    1.41    0.41
  11  -7   6    0.95    0.25
 -11   7  -6    1.23    0.33
  11   7   6    1.28    0.40
 -13  -7  -6    9.17    1.08
  13  -7   6    8.70    0.83
 -13   7  -6    8.70    1.07
  13   7   6    9.83    1.24
 -15  -7  -6    1.98    0.49
  15  -7   6    1.88    0.30
 -15   7  -6    1.29    0.27
  15   7   6    0.95    0.36
 -17  -7  -6    2.22    0.57
  17  -7   6    2.07    0.18
 -17   7  -6    2.18    0.47
  17   7   6    3.08    0.68
  14  -8  -6    1.58    0.36
 -14  -8   6    1.15    0.26
 -14  -8   6    1.28    0.29
  14   8  -6    0.90    0.09
 -14   8   6    1.42    0.39
  12  -8  -6    0.54    0.16
 -12  -8   6    0.52    0.08
 -12   8   6    0.41    0.20
  10  -8  -6    2.40    0.52
 -10  -8   6    1.09    0.26
  10   8  -6    1.74    0.49
 -10   8   6    1.74    0.42
  10   8  -6    1.54    0.26
   8  -8  -6    2.19    0.48
  -8  -8   6    2.06    0.49
  -8   8   6    2.13    0.63
   8   8  -6    2.21    0.52
   8   8  -6    2.40    0.19
   6  -8  -6    0.56    0.18
  -6  -8   6    0.47    0.14
  -6   8   6    0.42    0.21
   6   8  -6    0.41    0.15
   6   8  -6    0.61    0.09
   4  -8  -6    2.23    0.48
  -4  -8   6    2.53    0.55
   4   8  -6    3.03    0.57
  -4   8   6    1.77    0.49
   4   8  -6    1.86    0.42
   2  -8  -6    3.71    0.60
  -2  -8   6    2.75    0.55
   2   8  -6    2.97    0.58
   2   8  -6    3.35    0.55
  -2   8   6    3.11    0.71
   0  -8   6    1.26    0.41
   0  -8  -6    2.09    0.42
   0   8   6    1.09    0.40
   0   8  -6    1.74    0.36
   0   8  -6    1.19    0.21
  -2  -8  -6    1.97    0.37
   2  -8   6    2.39    0.54
   2   8   6    2.01    0.58
  -2   8  -6    2.25    0.48
  -2   8  -6    2.19    0.43
  -4  -8  -6    1.27    0.22
   4  -8   6    1.31    0.37
   4   8   6    0.89    0.32
  -4   8  -6    1.36    0.23
  -6  -8  -6    2.49    0.43
   6  -8   6    3.63    0.66
   6   8   6    2.96    0.66
  -6   8  -6    2.53    0.50
  -8  -8  -6    0.11    0.08
   8  -8   6    0.40    0.14
   8   8   6    0.19    0.13
  -8   8  -6    0.17    0.08
  10  -8   6    2.32    0.46
 -10  -8  -6    1.88    0.36
 -10   8  -6    1.79    0.40
  10   8   6    2.11    0.54
 -12  -8  -6    0.86    0.17
  12   8   6    1.36    0.36
 -12   8  -6    0.66    0.08
  -5  -9   6    1.35    0.28
   5  -9  -6    1.30    0.22
   5   9  -6    1.20    0.20
  -5   9   6    0.83    0.19
   5   9  -6    0.98    0.09
   3  -9  -6    5.67    0.73
  -3  -9   6    5.50    0.80
   3   9  -6    4.77    0.71
  -3   9   6    4.77    0.85
   3   9  -6    5.59    0.79
  -1  -9   6    7.71    0.94
   1  -9  -6    8.27    0.76
  -1   9   6    8.47    1.15
   1   9  -6    7.44    0.91
   1   9  -6    7.77    1.00
   1  -9   6    1.36    0.30
  -1  -9  -6    1.85    0.14
   1   9   6    1.17    0.33
  -3  -9  -6    0.81    0.09
   3   9   6    0.85    0.23
 -30   0   7    0.63    0.12
 -30   0   7    0.94    0.19
 -28   0   7    0.35    0.22
 -28   0   7    0.60    0.12
  28   0  -7    0.43    0.05
 -26   0   7    0.89    0.27
  26   0  -7    0.64    0.10
 -26   0   7    0.41    0.11
 -24   0   7    0.71    0.32
 -24   0   7    0.54    0.12
 -22   0   7    0.33    0.14
 -22   0   7    0.23    0.08
  22   0  -7    0.37    0.15
 -20   0   7    0.39    0.15
 -20   0   7    0.33    0.08
  20   0  -7    0.31    0.19
  18   0  -7    0.09    0.15
 -18   0   7    0.36    0.09
 -18   0   7    0.11    0.12
 -16   0   7    0.36    0.15
  16   0  -7    0.61    0.06
  16   0  -7    0.07    0.09
 -16   0   7    0.35    0.07
  16   0  -7    0.22    0.15
  14   0  -7    0.13    0.09
  14   0  -7    0.35    0.06
 -14   0   7    0.34    0.21
  14   0  -7   -0.02    0.15
  12   0  -7    0.33    0.08
 -12   0   7    0.13    0.11
 -12   0   7    0.34    0.17
 -10   0   7    0.23    0.10
  10   0  -7    0.15    0.05
 -10   0   7    0.22    0.10
 -10   0   7    0.27    0.04
  -8   0   7    0.01    0.12
  -8   0   7    0.26    0.12
   8   0  -7    0.28    0.12
  -8   0   7    0.27    0.03
  -6   0   7    0.33    0.02
  -6   0   7    0.44    0.17
  -6   0   7    0.16    0.08
   6   0  -7    0.15    0.07
  -4   0   7    0.21    0.08
   4   0  -7    0.05    0.07
  -4   0   7    0.26    0.14
   2   0  -7    0.20    0.09
  -2   0   7    0.09    0.10
  -2   0   7    0.13    0.09
   0   0  -7    0.09    0.02
   0   0   7    0.17    0.07
   0   0   7    0.14    0.11
   0   0  -7   -0.03    0.07
   2   0   7    0.17    0.07
   2   0   7    0.15    0.09
  -2   0  -7    0.19    0.04
  -2   0  -7    0.19    0.09
   4   0   7    0.22    0.04
   4   0   7    0.27    0.14
  -4   0  -7    0.26    0.06
  -4   0  -7    0.00    0.09
   6   0   7    0.03    0.13
   6   0   7    0.30    0.03
  -6   0  -7    0.24    0.08
  -6   0  -7    0.22    0.12
  -8   0  -7    0.23    0.12
  -8   0  -7    0.15    0.07
   8   0   7    0.02    0.09
 -10   0  -7    0.28    0.15
 -10   0  -7    0.16    0.09
  10   0   7    0.12    0.14
 -12   0  -7    0.25    0.13
 -12   0  -7    0.13    0.11
  12   0   7    0.21    0.17
 -14   0  -7    0.07    0.12
 -14   0  -7    0.44    0.15
  14   0   7    0.46    0.20
 -16   0  -7    0.29    0.14
 -16   0  -7    0.23    0.11
  16   0   7    0.35    0.22
 -18   0  -7    0.50    0.11
 -18   0  -7    0.14    0.11
  18   0   7    0.28    0.18
 -20   0  -7    0.45    0.11
  20   0   7    0.29    0.21
 -20   0  -7    0.40    0.17
 -22   0  -7    0.27    0.05
 -22   0  -7    0.45    0.18
  22   0   7    0.01    0.11
  24   0   7    0.30    0.16
 -24   0  -7    0.27    0.15
 -26   0  -7    0.35    0.15
  26   0   7    0.47    0.15
 -28   0  -7    0.56    0.14
  28   0   7   -0.01    0.16
 -31   1   7    2.01    0.32
 -31   1   7    1.78    0.33
 -29  -1   7    0.70    0.12
 -29   1   7    0.72    0.23
 -29   1   7    0.85    0.14
 -27  -1   7    2.77    0.60
  27  -1  -7    2.99    0.44
 -27  -1   7    2.55    0.40
  27   1  -7    2.23    0.37
 -27   1   7    2.85    0.70
 -27   1   7    2.92    0.48
 -25  -1   7    2.77    0.59
  25  -1  -7    1.52    0.33
 -25  -1   7    1.58    0.31
 -25   1   7    1.44    0.30
  25   1  -7    1.05    0.24
 -25   1   7    1.50    0.45
  23  -1  -7    2.33    0.43
 -23  -1   7    2.32    0.54
 -23  -1   7    2.00    0.35
 -23   1   7    1.49    0.47
  23   1  -7    2.13    0.43
 -23   1   7    2.55    0.40
 -21  -1   7   12.45    1.14
  21  -1  -7   13.99    0.96
 -21  -1   7   15.31    0.90
  21   1  -7   12.54    0.91
 -21   1   7   13.65    1.31
  21   1  -7   13.21    0.79
 -21   1   7   13.08    0.85
  21   1  -7   12.78    0.46
 -19  -1   7    5.52    0.48
  19  -1  -7    5.94    0.64
 -19  -1   7    6.57    0.83
 -19  -1   7    5.94    0.58
  19   1  -7    6.33    0.51
 -19   1   7    5.87    0.51
 -19   1   7    6.15    0.91
  17  -1  -7    0.39    0.18
 -17  -1   7    0.47    0.17
 -17  -1   7    0.47    0.18
 -17  -1   7    0.39    0.08
 -17   1   7    0.38    0.12
  17   1  -7    0.55    0.12
 -17   1   7    0.67    0.29
  15  -1  -7    4.43    0.52
 -15  -1   7    4.53    0.65
 -15  -1   7    4.21    0.35
 -15  -1   7    4.54    0.50
  15  -1  -7    4.41    0.28
  15   1  -7    4.06    0.39
 -15   1   7    2.84    0.58
 -15   1   7    3.66    0.35
 -13  -1   7    8.60    0.62
 -13  -1   7    8.47    0.48
  13  -1  -7    8.56    0.43
 -13  -1   7    8.10    0.78
  13  -1  -7    8.27    0.62
  13   1  -7    7.89    0.57
 -13   1   7    8.08    0.92
 -13   1   7    8.68    0.51
 -11  -1   7   24.45    1.08
  11  -1  -7   26.47    0.86
  11  -1  -7   25.82    1.09
 -11  -1   7   26.43    0.86
 -11  -1   7   24.65    1.39
 -11   1   7   26.11    0.90
  11   1  -7   25.38    1.05
 -11   1   7   23.58    1.49
   9  -1  -7   19.69    0.90
   9  -1  -7   20.62    0.74
  -9  -1   7   18.88    1.16
   9  -1  -7   19.33    0.77
  -9  -1   7   20.11    0.91
  -9  -1   7   18.68    0.62
  -9   1   7   17.66    1.23
  -9   1   7   19.84    0.71
   9   1  -7   18.58    0.88
   7  -1  -7   17.18    0.73
  -7  -1   7   16.14    0.77
   7  -1  -7   16.81    0.78
   7  -1  -7   17.41    0.68
  -7  -1   7   16.43    1.07
   7   1  -7   16.67    0.53
   7   1  -7   17.42    0.82
  -7   1   7   17.77    0.61
  -7   1   7   16.79    1.17
   5  -1  -7    1.83    0.26
   5  -1  -7    2.29    0.25
  -5  -1   7    1.92    0.27
  -5  -1   7    2.55    0.43
   5  -1  -7    2.38    0.28
  -5   1   7    2.28    0.17
  -5   1   7    3.08    0.53
   5   1  -7    1.84    0.29
  -3  -1   7    8.91    0.51
   3  -1  -7    8.13    0.46
  -3  -1   7    8.62    0.69
   3  -1  -7    8.17    0.48
   3  -1  -7    8.74    0.49
  -3   1   7    9.16    0.79
  -3   1   7    8.21    0.41
   3   1  -7    8.45    0.56
   1  -1  -7    8.20    0.48
   1  -1  -7    8.22    0.44
  -1  -1   7    8.57    0.47
   1  -1  -7    8.09    0.49
  -1  -1   7    7.98    0.64
   1   1  -7    8.48    0.55
  -1   1   7    7.87    0.69
   1   1  -7    9.25    0.29
  -1   1   7    8.75    0.48
  -1  -1  -7    0.23    0.10
  -1  -1  -7    0.36    0.13
   1  -1   7    0.45    0.21
   1  -1   7    0.33    0.13
  -1  -1  -7    0.24    0.14
  -1   1  -7    0.23    0.15
   1   1   7    0.46    0.13
   1   1   7    0.18    0.17
  -1   1  -7    0.70    0.08
  -3  -1  -7   15.75    0.67
  -3  -1  -7   15.83    0.76
  -3  -1  -7   15.51    0.52
   3  -1   7   14.84    0.87
  -3  -1  -7   15.24    0.69
   3  -1   7   15.03    0.60
  -3   1  -7   16.18    0.59
  -3   1  -7   14.26    0.74
   3   1   7   14.80    0.92
   5  -1   7    6.57    0.36
   5  -1   7    6.54    0.58
  -5  -1  -7    7.11    0.28
  -5  -1  -7    7.23    0.45
  -5  -1  -7    6.28    0.49
  -5  -1  -7    6.47    0.45
  -5   1  -7    6.65    0.40
  -5   1  -7    7.12    0.52
   5   1   7    6.94    0.62
   7  -1   7    8.48    0.68
  -7  -1  -7    8.03    0.48
  -7  -1  -7    8.56    0.60
  -7  -1  -7    8.64    0.56
   7  -1   7    8.14    0.39
  -7  -1  -7    8.75    0.24
   7   1   7    8.18    0.68
  -7   1  -7    8.50    0.50
  -7   1  -7    7.37    0.53
   9  -1   7    8.47    0.72
   9  -1   7    8.70    0.40
  -9  -1  -7    8.88    0.64
  -9  -1  -7    8.59    0.60
   9   1   7    7.32    0.67
  -9   1  -7    7.71    0.53
  -9   1  -7    7.51    0.55
 -11  -1  -7    3.80    0.44
 -11  -1  -7    3.17    0.43
  11  -1   7    3.07    0.51
  11  -1   7    3.58    0.22
 -11   1  -7    3.80    0.42
  11   1   7    3.26    0.50
 -11   1  -7    3.21    0.38
 -13  -1  -7    1.25    0.29
 -13  -1  -7    0.88    0.27
  13  -1   7    1.21    0.08
  13  -1   7    0.55    0.26
 -13   1  -7    0.86    0.21
 -13   1  -7    0.92    0.23
  13   1   7    0.89    0.29
 -15  -1  -7    3.49    0.48
  15  -1   7    3.69    0.62
 -15  -1  -7    3.62    0.51
  15   1   7    4.13    0.62
 -15   1  -7    3.59    0.42
 -15   1  -7    3.54    0.49
 -17  -1  -7   15.61    1.03
 -17  -1  -7   16.16    1.02
  17  -1   7   14.89    1.17
  17   1   7   15.84    1.17
 -17   1  -7   15.04    1.00
 -17   1  -7   15.91    0.90
  19  -1   7    2.86    0.61
 -19  -1  -7    3.84    0.53
 -19  -1  -7    3.13    0.51
 -19   1  -7    2.73    0.49
  19   1   7    3.46    0.63
 -19   1  -7    4.58    0.44
 -21  -1  -7    3.00    0.53
 -21  -1  -7    2.40    0.43
  21  -1   7    2.61    0.59
 -21   1  -7    3.52    0.42
 -21   1  -7    1.73    0.42
  21   1   7    2.84    0.59
  23  -1   7    1.49    0.47
 -23  -1  -7    1.25    0.37
 -23  -1  -7    1.03    0.25
  23   1   7    1.16    0.36
 -23   1  -7    1.32    0.33
  25  -1   7    4.20    0.82
 -25  -1  -7    3.84    0.57
 -25  -1  -7    3.80    0.63
 -25   1  -7    4.74    0.70
  25   1   7    3.78    0.70
 -27  -1  -7    1.68    0.36
  27  -1   7    2.01    0.54
 -27   1  -7    2.34    0.54
  27   1   7    1.90    0.46
  29  -1   7    0.70    0.16
 -29  -1  -7    0.71    0.14
 -29   1  -7    0.84    0.14
  30  -2  -7    5.22    0.48
 -30   2   7    4.84    0.65
 -30   2   7    4.31    0.90
  30   2  -7    5.72    0.55
 -28  -2   7   16.00    1.12
 -28  -2   7   16.48    1.36
  28  -2  -7   15.23    1.05
 -28   2   7   15.36    1.60
 -28   2   7   15.06    1.09
 -26  -2   7    1.86    0.39
 -26  -2   7    1.34    0.25
  26  -2  -7    1.80    0.36
 -26   2   7    2.03    0.59
  26   2  -7    2.51    0.40
 -26   2   7    1.96    0.39
 -24  -2   7    6.89    0.86
  24  -2  -7    8.51    0.76
 -24  -2   7    7.64    0.66
 -24   2   7    7.09    1.11
  24   2  -7    7.91    0.65
 -24   2   7    6.54    0.64
  22  -2  -7    1.08    0.30
 -22  -2   7    0.65    0.09
 -22  -2   7    0.66    0.16
 -22  -2   7    0.79    0.25
 -22   2   7    0.72    0.36
 -22   2   7    0.91    0.23
 -20  -2   7   31.32    1.45
 -20  -2   7   31.01    1.38
 -20  -2   7   31.08    1.71
  20  -2  -7   31.86    1.52
 -20   2   7   29.77    2.02
 -20   2   7   32.88    1.43
 -18  -2   7    0.66    0.16
  18  -2  -7    0.00    0.15
 -18  -2   7    0.64    0.13
 -18  -2   7    0.35    0.14
 -18   2   7    0.49    0.28
 -18   2   7    0.37    0.13
  16  -2  -7    3.74    0.52
 -16  -2   7    4.80    0.54
 -16  -2   7    4.20    0.39
 -16  -2   7    4.24    0.58
  16   2  -7    3.69    0.48
 -16   2   7    3.73    0.71
 -16   2   7    4.44    0.43
  14  -2  -7    3.40    0.47
 -14  -2   7    3.56    0.45
 -14  -2   7    3.74    0.34
 -14  -2   7    4.57    0.55
 -14   2   7    2.95    0.61
 -14   2   7    3.86    0.41
  14   2  -7    3.95    0.49
  12  -2  -7   19.32    0.98
 -12  -2   7   18.70    1.10
  12  -2  -7   18.86    0.60
 -12  -2   7   17.14    0.92
  12   2  -7   17.69    0.78
 -12   2   7   17.93    1.31
  12   2  -7   18.32    1.01
 -12   2   7   17.86    0.84
 -10  -2   7    8.43    0.61
  10  -2  -7    9.49    0.64
 -10  -2   7    8.83    0.71
  10  -2  -7    9.57    0.42
  10   2  -7    9.07    0.50
 -10   2   7    7.69    0.82
  10   2  -7    8.25    0.65
 -10   2   7    8.41    0.53
   8  -2  -7   25.49    1.04
  -8  -2   7   25.40    1.06
   8  -2  -7   26.15    0.82
  -8  -2   7   26.38    1.30
  -8   2   7   26.25    0.97
   8   2  -7   25.56    0.94
  -8   2   7   24.88    1.48
   8   2  -7   24.71    1.13
  -6  -2   7   10.04    0.63
   6  -2  -7   10.47    0.51
  -6  -2   7   10.95    0.79
   6  -2  -7   10.47    0.62
  -6   2   7   10.08    0.89
  -6   2   7   11.05    0.60
   6   2  -7   10.78    0.55
   6   2  -7   11.36    0.72
  -4  -2   7   25.35    1.00
   4  -2  -7   25.16    0.89
  -4  -2   7   25.59    1.23
   4  -2  -7   24.66    0.94
  -4   2   7   22.77    1.37
   4   2  -7   23.69    0.80
  -4   2   7   24.81    0.99
   4   2  -7   24.63    1.08
  -2  -2   7   19.12    0.84
   2  -2  -7   19.25    0.80
  -2  -2   7   19.08    0.99
   2  -2  -7   18.69    0.76
   2   2  -7   19.18    0.93
  -2   2   7   18.31    1.15
  -2   2   7   19.54    0.92
   2   2  -7   19.52    0.65
   0  -2  -7    0.80    0.19
   0  -2   7    1.42    0.27
   0  -2  -7    0.72    0.14
   0  -2   7    0.77    0.19
   0   2   7    0.74    0.27
   0   2  -7    0.97    0.13
   0   2  -7    0.52    0.21
   0   2   7    0.83    0.21
   2  -2   7   14.63    0.84
   2  -2   7   14.39    0.69
  -2  -2  -7   13.88    0.57
  -2  -2  -7   15.18    0.77
  -2   2  -7   13.89    0.77
   2   2   7   13.03    0.76
   2   2   7   14.90    0.93
  -2   2  -7   16.03    0.63
   4  -2   7   70.29    2.18
  -4  -2  -7   73.03    1.56
   4  -2   7   71.22    1.81
  -4  -2  -7   73.61    2.04
  -4   2  -7   73.55    1.79
   4   2   7   69.94    2.29
   4   2   7   73.07    2.07
  -4   2  -7   73.59    2.04
  -6  -2  -7   15.32    0.85
   6  -2   7   14.24    0.88
  -6  -2  -7   14.95    0.50
   6  -2   7   14.74    0.68
  -6   2  -7   16.77    0.84
   6   2   7   14.84    0.83
   6   2   7   14.55    0.92
  -6   2  -7   15.36    0.73
   8  -2   7   12.09    0.85
   8  -2   7   11.54    0.60
  -8  -2  -7   12.49    0.36
  -8  -2  -7   11.21    0.74
  -8  -2  -7   10.96    0.74
  -8   2  -7   12.45    0.71
  -8   2  -7   11.64    0.68
   8   2   7   11.39    0.82
  10  -2   7   42.46    1.79
 -10  -2  -7   44.93    1.67
 -10  -2  -7   41.76    1.62
  10  -2   7   45.68    1.34
 -10   2  -7   41.39    1.48
 -10   2  -7   40.60    1.44
  10   2   7   44.65    1.76
  12  -2   7   46.91    1.37
  12  -2   7   41.99    1.87
 -12  -2  -7   43.88    1.74
 -12  -2  -7   46.64    1.76
 -12   2  -7   45.22    1.64
 -12   2  -7   45.65    1.53
  12   2   7   45.04    1.84
 -14  -2  -7    7.33    0.69
  14  -2   7    7.55    0.79
 -14  -2  -7    7.51    0.70
  14  -2   7    8.83    0.49
 -14   2  -7    7.88    0.66
  14   2   7    7.00    0.69
 -14   2  -7    7.50    0.55
 -16  -2  -7    3.50    0.53
 -16  -2  -7    3.34    0.52
  16  -2   7    3.83    0.63
  16   2   7    4.11    0.60
 -16   2  -7    3.18    0.37
 -16   2  -7    3.56    0.52
 -18  -2  -7   11.33    0.92
 -18  -2  -7   12.83    0.99
  18  -2   7   13.07    1.13
  18   2   7   12.52    1.01
 -18   2  -7   11.34    0.91
 -18   2  -7   13.61    0.78
  20  -2   7    2.13    0.56
 -20  -2  -7    2.06    0.48
 -20  -2  -7    2.12    0.44
 -20   2  -7    1.42    0.39
  20   2   7    2.41    0.51
 -22  -2  -7    5.31    0.70
  22  -2   7    4.82    0.82
 -22  -2  -7    4.92    0.71
  22   2   7    5.40    0.74
 -22   2  -7    4.91    0.70
  24  -2   7   10.79    1.24
 -24  -2  -7   10.08    0.96
 -24  -2  -7   10.59    0.93
  24   2   7    9.06    0.92
 -24   2  -7   10.03    0.96
 -26  -2  -7    9.11    1.01
 -26  -2  -7    8.51    0.81
  26  -2   7    9.62    1.22
  26   2   7    9.18    0.89
 -26   2  -7    9.72    1.03
  28  -2   7    1.83    0.44
 -28  -2  -7    1.71    0.39
 -28   2  -7    1.56    0.36
  28   2   7    2.25    0.18
  29  -3  -7    0.40    0.07
 -29   3   7    1.01    0.20
 -29   3   7    0.30    0.16
  27  -3  -7   16.90    1.17
 -27   3   7   18.42    1.26
 -27   3   7   17.27    1.71
  25  -3  -7   10.39    0.89
 -25  -3   7    9.69    0.87
 -25  -3   7    9.25    0.85
 -25  -3   7    9.44    0.78
 -25   3   7    6.87    1.11
  25   3  -7    9.32    0.74
 -25   3   7    8.84    0.79
 -23  -3   7   19.50    1.18
  23  -3  -7   18.81    1.25
 -23  -3   7   19.52    1.29
 -23  -3   7   18.62    1.27
 -23   3   7   20.65    1.25
  23   3  -7   19.62    1.17
 -23   3   7   19.17    1.71
 -21  -3   7    1.95    0.37
 -21  -3   7    2.53    0.47
 -21  -3   7    2.26    0.40
  21  -3  -7    2.06    0.45
  21   3  -7    2.58    0.37
 -21   3   7    2.06    0.39
 -21   3   7    2.27    0.67
  19  -3  -7   21.63    1.27
 -19  -3   7   19.34    1.14
 -19  -3   7   21.88    1.27
 -19  -3   7   21.73    1.32
  19   3  -7   22.78    1.17
 -19   3   7   20.53    1.17
 -19   3   7   20.19    1.63
 -17  -3   7   28.53    1.41
  17  -3  -7   28.04    1.40
 -17  -3   7   25.75    1.44
 -17  -3   7   25.89    1.31
  17   3  -7   27.21    1.26
 -17   3   7   26.13    1.79
 -17   3   7   27.85    1.32
  15  -3  -7   68.66    2.25
 -15  -3   7   72.16    2.31
 -15  -3   7   65.84    2.17
 -15  -3   7   64.14    2.37
  15   3  -7   65.82    2.09
 -15   3   7   66.53    2.13
 -15   3   7   62.02    2.79
 -13  -3   7    9.73    0.69
 -13  -3   7    9.05    0.69
  13  -3  -7    9.05    0.72
 -13   3   7    8.46    0.65
 -13   3   7    9.05    1.01
  13   3  -7    8.58    0.61
 -11  -3   7   57.03    1.92
 -11  -3   7   56.92    1.88
  11  -3  -7   58.47    1.91
 -11   3   7   56.82    1.84
  11   3  -7   59.47    2.14
 -11   3   7   54.08    2.40
  11   3  -7   55.71    1.82
  -9  -3   7    6.28    0.55
  -9  -3   7    7.46    0.57
   9  -3  -7    7.24    0.59
   9  -3  -7    6.77    0.36
   9   3  -7    6.34    0.51
  -9   3   7    7.02    0.83
   9   3  -7    4.94    0.60
  -9   3   7    6.10    0.52
  -7  -3   7  143.29    3.33
   7  -3  -7  147.62    2.93
  -7  -3   7  142.14    3.48
   7  -3  -7  147.44    3.30
  -7   3   7  142.14    3.40
  -7   3   7  135.03    4.04
   7   3  -7  139.19    3.59
   7   3  -7  141.04    3.38
  -5  -3   7    1.35    0.22
  -5  -3   7    0.82    0.23
   5  -3  -7    0.86    0.22
   5  -3  -7    1.01    0.16
   5   3  -7    0.88    0.28
   5   3  -7    0.95    0.17
  -5   3   7    0.92    0.25
  -5   3   7    0.93    0.30
   3  -3  -7   32.60    1.19
  -3  -3   7   32.43    1.27
  -3  -3   7   32.36    1.31
   3  -3  -7   33.11    1.14
  -3   3   7   32.14    1.41
   3   3  -7   31.77    1.37
   3   3  -7   34.28    1.22
  -3   3   7   31.77    1.61
  -1  -3   7    7.15    0.56
   1  -3  -7    6.44    0.47
   1  -3  -7    6.84    0.51
  -1  -3   7    7.76    0.56
   1   3  -7    7.69    0.50
  -1   3   7    7.24    0.68
   1   3  -7    7.08    0.60
  -1   3   7    8.02    0.69
   1  -3   7   25.10    1.12
  -1  -3  -7   26.58    1.10
  -1  -3  -7   25.98    0.95
   1  -3   7   23.94    1.06
  -1   3  -7   25.26    0.99
   1   3   7   26.12    1.33
  -1   3  -7   24.14    1.14
   1   3   7   25.45    1.30
  -3  -3  -7    2.72    0.25
   3  -3   7    3.15    0.39
   3  -3   7    3.25    0.40
  -3  -3  -7    3.76    0.44
  -3   3  -7    2.93    0.41
   3   3   7    3.62    0.47
  -3   3  -7    3.44    0.33
   3   3   7    3.75    0.52
   5  -3   7    5.11    0.48
   5  -3   7    4.67    0.44
  -5  -3  -7    5.23    0.33
  -5  -3  -7    4.89    0.49
   5   3   7    5.20    0.61
  -5   3  -7    4.53    0.45
  -5   3  -7    4.49    0.41
   5   3   7    4.87    0.50
  -7  -3  -7    9.17    0.43
   7  -3   7    8.41    0.68
   7  -3   7    9.33    0.63
  -7  -3  -7    7.92    0.66
  -7   3  -7    8.50    0.62
  -7   3  -7    8.36    0.61
   7   3   7    9.31    0.76
   7   3   7    9.33    0.73
  -9  -3  -7   67.77    2.25
   9  -3   7   68.15    1.96
   9  -3   7   65.91    2.28
   9   3   7   66.66    2.28
  -9   3  -7   66.15    2.05
   9   3   7   65.68    2.28
  -9   3  -7   65.99    1.98
 -11  -3  -7    0.15    0.16
  11  -3   7    0.49    0.09
  11  -3   7    0.60    0.20
  11   3   7    0.52    0.26
 -11   3  -7    0.42    0.13
  11   3   7    0.73    0.16
 -11   3  -7    0.46    0.18
  13  -3   7   25.03    1.46
 -13  -3  -7   27.19    1.43
  13  -3   7   27.77    1.17
 -13   3  -7   26.63    1.33
 -13   3  -7   26.18    1.13
  13   3   7   26.19    1.44
  13   3   7   27.64    1.40
  15  -3   7    3.54    0.61
  15  -3   7    4.34    0.38
 -15  -3  -7    4.81    0.66
  15   3   7    3.70    0.54
 -15   3  -7    4.25    0.58
 -15   3  -7    3.96    0.35
  17  -3   7    8.46    0.95
 -17  -3  -7    8.16    0.82
 -17  -3  -7    8.29    0.83
  17   3   7    7.58    0.73
 -17   3  -7    7.39    0.79
  19  -3   7    6.21    0.87
 -19  -3  -7    5.99    0.79
 -19  -3  -7    5.71    0.76
 -19   3  -7    6.23    0.75
  19   3   7    6.36    0.65
  21  -3   7   12.69    1.22
 -21  -3  -7   12.95    1.11
 -21  -3  -7   11.66    1.06
 -21   3  -7   13.19    1.07
  21   3   7   13.42    1.04
  23  -3   7    8.48    1.10
 -23  -3  -7    6.30    0.85
 -23  -3  -7    8.22    0.93
  23   3   7    7.89    0.72
 -23   3  -7    8.16    0.92
 -25  -3  -7    6.74    0.89
  25  -3   7    7.79    1.10
 -25  -3  -7    7.47    0.90
  25   3   7    6.16    0.62
 -25   3  -7    7.50    0.92
 -27  -3  -7    6.73    0.86
  27  -3   7    6.74    1.01
 -27  -3  -7    5.48    0.81
 -27   3  -7    5.68    0.80
  27   3   7    7.08    0.65
 -28  -4   7   13.67    1.14
  28  -4  -7   13.85    1.03
 -28   4   7   15.36    1.71
 -28   4   7   15.54    1.17
  26  -4  -7    3.07    0.50
 -26  -4   7    4.14    0.64
 -26   4   7    3.67    0.56
 -26   4   7    3.09    0.74
 -24  -4   7   34.55    1.70
  24  -4  -7   34.30    1.81
 -24  -4   7   32.46    1.86
 -24   4   7   28.97    1.65
 -24   4   7   31.33    2.27
  22  -4  -7    1.95    0.45
 -22  -4   7    1.16    0.35
 -22  -4   7    1.85    0.37
 -22   4   7    2.51    0.45
 -22   4   7    2.69    0.67
  22   4  -7    2.58    0.24
 -20  -4   7   20.85    1.44
 -20  -4   7   22.78    1.31
  20  -4  -7   22.49    1.38
  20   4  -7   23.12    1.31
 -20   4   7   22.89    1.34
 -20   4   7   18.31    1.59
  18  -4  -7    0.44    0.24
 -18  -4   7    0.82    0.26
 -18  -4   7    0.61    0.20
 -18   4   7    0.74    0.19
 -18   4   7    0.55    0.23
 -16  -4   7   80.08    2.56
  16  -4  -7   74.85    2.57
 -16  -4   7   83.24    2.95
 -16   4   7   76.82    2.58
 -16   4   7   75.89    3.17
  16   4  -7   76.29    2.56
  14  -4  -7    6.31    0.71
 -14  -4   7    6.74    0.70
 -14  -4   7    6.15    0.77
 -14   4   7    6.60    0.64
  14   4  -7    6.82    0.59
 -14   4   7    5.99    0.84
 -12  -4   7   13.80    1.06
 -12  -4   7   12.92    0.91
  12  -4  -7   13.33    0.93
  12   4  -7   14.01    0.92
 -12   4   7   13.17    1.11
 -12   4   7   12.61    0.90
  10  -4  -7   29.84    1.39
 -10  -4   7   29.18    1.38
 -10   4   7   29.17    1.42
  10   4  -7   30.14    1.42
 -10   4   7   30.09    1.67
  10   4  -7   29.38    1.58
  -8  -4   7   68.04    2.17
   8  -4  -7   62.03    2.06
   8  -4  -7   63.38    1.66
  -8  -4   7   65.43    1.83
   8   4  -7   66.68    2.27
   8   4  -7   59.00    2.30
  -8   4   7   64.05    2.26
  -8   4   7   58.50    2.41
   6  -4  -7   50.33    1.75
   6  -4  -7   51.47    1.50
  -6  -4   7   51.16    1.58
  -6  -4   7   52.18    1.85
   6   4  -7   46.80    1.85
  -6   4   7   46.77    1.93
  -6   4   7   47.63    2.04
   6   4  -7   46.23    1.96
  -4  -4   7   19.50    1.07
   4  -4  -7   20.89    1.03
   4  -4  -7   20.95    0.92
  -4  -4   7   20.48    0.95
  -4   4   7   18.37    1.17
  -4   4   7   20.48    1.24
   4   4  -7   21.25    1.23
   4   4  -7   20.13    1.10
  -2  -4   7   21.94    1.13
  -2  -4   7   20.59    0.95
   2  -4  -7   21.48    0.99
   2  -4  -7   21.07    1.01
  -2   4   7   22.76    1.28
   2   4  -7   20.99    1.20
  -2   4   7   20.06    1.26
   2   4  -7   20.39    1.09
   0  -4  -7   70.71    2.03
   0  -4   7   74.88    2.27
   0  -4  -7   75.17    2.19
   0  -4   7   71.10    2.09
   0   4  -7   72.74    2.40
   0   4   7   75.64    2.64
   0   4  -7   73.25    2.26
   0   4   7   76.52    2.60
  -2  -4  -7   24.39    1.17
   2  -4   7   23.57    1.06
  -2  -4  -7   23.22    0.98
   2  -4   7   22.94    1.15
  -2   4  -7   23.46    1.12
  -2   4  -7   23.18    1.22
   2   4   7   23.31    1.26
   2   4   7   21.52    1.32
   4  -4   7   13.61    0.80
   4  -4   7   13.04    0.86
  -4  -4  -7   14.74    0.92
  -4  -4  -7   14.22    0.72
   4   4   7   13.77    1.06
   4   4   7   13.88    0.91
  -4   4  -7   12.23    0.84
  -4   4  -7   13.77    0.85
  -6  -4  -7   47.87    1.86
   6  -4   7   45.86    1.72
  -6  -4  -7   45.25    1.40
   6  -4   7   47.19    1.75
  -6   4  -7   48.44    1.75
   6   4   7   45.58    2.03
  -6   4  -7   47.17    1.75
   6   4   7   48.40    1.85
   8  -4   7   62.20    2.05
   8  -4   7   61.58    2.15
  -8  -4  -7   61.60    1.64
  -8  -4  -7   61.80    2.24
   8   4   7   62.99    2.44
  -8   4  -7   60.76    2.02
  -8   4  -7   62.01    2.12
   8   4   7   61.67    2.19
  10  -4   7   88.91    2.81
  10  -4   7   87.31    2.55
 -10  -4  -7   84.81    2.82
  10   4   7   83.78    2.95
  10   4   7   89.78    2.79
 -10   4  -7   87.27    2.69
 -10   4  -7   90.25    2.53
  12  -4   7   22.41    1.16
  12  -4   7   21.86    1.32
 -12  -4  -7   23.65    1.40
 -12   4  -7   21.50    1.25
  12   4   7   22.88    1.44
  12   4   7   23.87    1.28
 -12   4  -7   23.85    1.09
  14  -4   7   37.28    1.57
  14  -4   7   39.13    1.91
 -14  -4  -7   38.64    1.90
  14   4   7   40.17    1.75
  14   4   7   37.27    1.93
 -14   4  -7   36.37    1.74
  16  -4   7    8.19    0.92
 -16  -4  -7    7.33    0.87
  16  -4   7    7.38    0.59
 -16   4  -7    7.20    0.80
  16   4   7    7.44    0.66
  16   4   7    8.04    0.94
 -18  -4  -7   32.32    1.85
  18  -4   7   29.86    1.80
 -18   4  -7   29.59    1.66
  18   4   7   31.34    1.83
  18   4   7   30.36    1.56
  20  -4   7    5.93    0.84
 -20  -4  -7    5.68    0.81
  20   4   7    4.64    0.75
  20   4   7    6.59    0.58
 -20   4  -7    4.46    0.68
  22  -4   7   24.70    1.79
 -22  -4  -7   27.25    1.79
  22   4   7   27.06    1.79
 -22   4  -7   27.21    1.69
  24  -4   7    0.47    0.15
 -24  -4  -7    0.99    0.18
 -24   4  -7    0.68    0.19
  24   4   7    0.77    0.20
 -26  -4  -7   20.52    1.55
  26  -4   7   19.45    1.65
 -26   4  -7   19.44    1.49
  26   4   7   16.70    1.42
  25  -5  -7    0.73    0.16
 -25  -5   7    1.35    0.29
 -25   5   7    0.85    0.27
 -25   5   7    0.67    0.17
  23  -5  -7   17.67    1.31
 -23  -5   7   18.52    1.42
 -23  -5   7   16.50    1.16
 -23   5   7   17.45    1.56
 -23   5   7   17.40    1.26
 -21  -5   7   39.92    1.90
 -21  -5   7   41.82    2.24
  21  -5  -7   41.41    2.06
 -21   5   7   40.96    2.02
  21   5  -7   42.05    2.00
 -21   5   7   41.27    2.44
 -19  -5   7   39.34    1.85
 -19  -5   7   38.86    2.14
  19  -5  -7   40.00    1.97
  19   5  -7   40.72    1.97
 -19   5   7   41.42    2.35
 -19   5   7   39.05    1.95
 -17  -5   7    1.13    0.34
 -17  -5   7    1.05    0.24
  17  -5  -7    0.88    0.33
 -17   5   7    0.99    0.31
 -17   5   7    1.13    0.31
  17   5  -7    1.99    0.33
 -15  -5   7   43.09    1.86
 -15  -5   7   39.55    2.08
  15  -5  -7   41.28    1.90
  15   5  -7   41.31    1.93
 -15   5   7   39.04    2.09
 -15   5   7   41.21    1.93
 -13  -5   7    5.08    0.75
  13  -5  -7    4.74    0.65
 -13  -5   7    4.25    0.60
  13   5  -7    6.22    0.68
 -13   5   7    5.68    0.75
 -13   5   7    5.41    0.72
 -11  -5   7  247.11    5.51
  11  -5  -7  244.08    5.51
  11   5  -7  239.92    5.71
 -11   5   7  240.54    5.76
 -11   5   7  228.89    5.98
   9  -5  -7    0.17    0.18
  -9  -5   7    0.76    0.27
   9   5  -7    0.65    0.29
   9   5  -7    0.63    0.13
  -9   5   7    0.48    0.20
  -9   5   7    0.95    0.17
   7  -5  -7   78.95    2.50
  -7  -5   7   76.49    2.55
  -7   5   7   74.99    2.68
   7   5  -7   74.63    2.80
  -7   5   7   73.58    2.76
   7   5  -7   79.04    2.74
   5  -5  -7    0.32    0.17
   5  -5  -7    0.85    0.08
  -5  -5   7    0.41    0.23
   5   5  -7    0.12    0.17
  -5   5   7    0.50    0.09
   5   5  -7    1.05    0.22
  -5   5   7    0.23    0.18
  -3  -5   7  121.15    3.36
   3  -5  -7  116.17    3.16
   3  -5  -7  122.07    3.13
  -3   5   7  123.63    3.51
   3   5  -7  128.24    3.63
   3   5  -7  128.03    3.71
  -3   5   7  119.96    3.82
  -1  -5   7    0.60    0.24
   1  -5  -7    0.55    0.15
   1  -5  -7    0.71    0.19
  -1   5   7    0.79    0.14
  -1   5   7    0.68    0.31
   1   5  -7    0.64    0.31
   1   5  -7    1.11    0.28
  -1  -5  -7    3.35    0.43
  -1  -5  -7    3.44    0.47
   1  -5   7    3.45    0.54
  -1   5  -7    3.66    0.57
  -1   5  -7    3.09    0.47
   1   5   7    3.89    0.39
   1   5   7    3.08    0.61
   3  -5   7    2.77    0.48
  -3  -5  -7    3.72    0.54
  -3  -5  -7    2.88    0.38
   3   5   7    5.05    0.46
  -3   5  -7    4.85    0.60
   3   5   7    3.67    0.68
  -3   5  -7    3.45    0.52
   5  -5   7   75.41    2.50
  -5  -5  -7   71.99    2.54
   5  -5   7   74.40    2.27
  -5  -5  -7   76.40    2.16
   5   5   7   77.91    2.53
  -5   5  -7   75.00    2.54
  -5   5  -7   78.93    2.60
   5   5   7   71.57    2.87
   7  -5   7    7.20    0.75
   7  -5   7    7.69    0.61
  -7  -5  -7    7.39    0.50
  -7  -5  -7    6.86    0.78
  -7   5  -7    7.00    0.70
  -7   5  -7    7.45    0.67
   7   5   7    6.41    0.87
   9  -5   7   31.65    1.49
   9  -5   7   33.35    1.57
  -9  -5  -7   31.45    1.69
  -9   5  -7   33.00    1.48
  -9   5  -7   31.76    1.60
   9   5   7   34.32    1.93
  11  -5   7    7.33    0.69
  11  -5   7    6.92    0.72
 -11  -5  -7    6.87    0.84
 -11   5  -7    6.96    0.78
 -11   5  -7    7.99    0.61
  11   5   7    7.49    0.95
 -13  -5  -7   72.45    2.86
  13  -5   7   72.08    2.51
  13  -5   7   70.67    2.65
 -13   5  -7   69.40    2.66
  13   5   7   75.07    3.06
  15  -5   7    6.62    0.62
  15  -5   7    7.13    0.73
 -15  -5  -7    6.57    0.86
 -15   5  -7    6.97    0.84
  15   5   7    4.09    0.74
 -17  -5  -7   30.77    1.88
  17  -5   7   29.93    1.52
  17  -5   7   30.37    1.78
 -17   5  -7   28.99    1.71
  17   5   7   26.90    1.83
  19  -5   7    8.06    0.95
 -19  -5  -7    8.66    1.04
  19   5   7    6.98    0.97
 -19   5  -7    7.24    0.90
  21  -5   7   11.01    1.06
 -21  -5  -7   11.92    1.17
 -21   5  -7   10.17    1.01
  21   5   7   11.76    1.18
 -23  -5  -7   17.97    1.50
  23  -5   7   18.95    1.53
  23   5   7   19.45    1.62
 -23   5  -7   19.56    1.49
 -22  -6   7    0.92    0.21
  22  -6  -7    0.63    0.20
 -22   6   7    0.49    0.14
 -20  -6   7   16.00    1.16
  20  -6  -7   13.89    1.17
 -20  -6   7   15.59    1.35
 -20   6   7   14.87    1.32
 -20   6   7   13.94    1.17
 -18  -6   7    1.55    0.31
 -18  -6   7    1.56    0.43
  18  -6  -7    0.86    0.27
  18   6  -7    1.44    0.14
 -18   6   7    0.94    0.28
 -16  -6   7   48.54    2.18
  16  -6  -7   51.05    2.30
 -16  -6   7   51.58    2.57
 -16   6   7   50.85    2.46
 -16   6   7   48.43    2.35
  16   6  -7   50.42    2.30
 -14  -6   7    6.47    0.89
  14  -6  -7    7.24    0.84
 -14  -6   7    7.41    0.83
 -14   6   7    6.91    0.86
  14   6  -7    7.98    0.72
 -14   6   7    7.12    0.74
  12  -6  -7   24.32    1.46
 -12  -6   7   24.87    1.47
  12   6  -7   26.98    1.56
 -12   6   7   24.55    1.59
 -12   6   7   24.21    1.45
  10  -6  -7   54.65    2.25
 -10  -6   7   56.31    2.30
  10   6  -7   51.89    2.47
 -10   6   7   51.90    2.19
 -10   6   7   54.37    2.48
  10   6  -7   50.94    2.29
   8  -6  -7  103.80    3.21
  -8  -6   7  106.99    3.33
  -8   6   7  103.24    3.66
   8   6  -7  101.53    3.45
   8   6  -7  100.85    3.60
  -8   6   7  102.63    3.22
   6  -6  -7   34.48    1.65
  -6  -6   7   34.50    1.73
   6   6  -7   34.32    1.85
   6   6  -7   32.85    1.88
  -6   6   7   34.39    1.97
   4  -6  -7   14.52    1.00
  -4  -6   7   13.91    1.06
   4  -6  -7   14.64    0.88
   4   6  -7   14.96    1.21
  -4   6   7   14.63    1.26
   4   6  -7   12.60    1.07
   2  -6  -7   18.07    1.13
   2  -6  -7   19.93    1.12
  -2  -6   7   18.93    1.24
   2   6  -7   19.35    1.35
  -2   6   7   20.59    1.53
   2   6  -7   20.07    1.38
   0  -6  -7   31.92    1.54
   0  -6   7   32.72    1.65
   0  -6  -7   30.97    1.46
   0   6  -7   31.11    1.76
   0   6  -7   33.40    1.79
   0   6   7   28.33    1.81
  -2  -6  -7   33.98    1.66
   2  -6   7   32.08    1.65
  -2  -6  -7   36.54    1.56
  -2   6  -7   36.79    1.86
  -2   6  -7   35.95    1.88
   2   6   7   33.52    1.97
  -4  -6  -7   18.80    1.06
   4  -6   7   19.29    1.26
  -4  -6  -7   21.65    1.33
  -4   6  -7   18.83    1.28
  -4   6  -7   19.41    1.34
   4   6   7   21.59    1.57
  -6  -6  -7   47.40    2.15
   6  -6   7   46.11    2.04
  -6  -6  -7   49.43    1.76
  -6   6  -7   46.05    2.17
   6   6   7   48.40    2.43
  -6   6  -7   50.06    2.13
  -8  -6  -7   45.00    2.15
   8  -6   7   44.63    1.99
   8   6   7   45.59    2.42
  -8   6  -7   46.22    1.96
  -8   6  -7   42.99    2.10
 -10  -6  -7   82.33    3.14
  10  -6   7   85.13    2.91
  10   6   7   86.59    3.53
 -10   6  -7   83.87    3.09
 -12  -6  -7   16.19    1.32
  12  -6   7   17.19    1.17
  12   6   7   17.15    1.48
 -12   6  -7   15.76    1.24
  14  -6   7   53.80    2.27
 -14  -6  -7   54.98    2.63
  14   6   7   51.20    2.72
 -14   6  -7   51.71    2.45
 -16  -6  -7    4.40    0.78
  16  -6   7    5.42    0.51
  16   6   7    5.29    0.89
 -16   6  -7    4.82    0.74
 -18  -6  -7   43.78    2.45
  18  -6   7   42.92    2.22
  18  -6   7   43.51    2.02
 -18   6  -7   41.95    2.28
  18   6   7   46.33    2.62
 -20  -6  -7    1.36    0.35
  20  -6   7    1.30    0.23
 -20   6  -7    0.92    0.21
  20   6   7    1.08    0.30
 -19  -7   7   19.03    1.57
  19  -7  -7   16.28    1.32
 -19  -7   7   16.92    1.23
 -19   7   7   15.98    1.35
 -17  -7   7   12.67    1.25
 -17  -7   7   11.85    1.00
  17  -7  -7   11.44    1.08
 -17   7   7   12.96    1.17
 -15  -7   7   68.82    2.77
  15  -7  -7   66.35    2.79
  15   7  -7   60.62    2.67
 -15   7   7   66.90    3.03
  13  -7  -7    0.83    0.28
 -13  -7   7    1.88    0.44
  13   7  -7    0.63    0.28
 -13   7   7    0.82    0.24
 -11  -7   7   75.91    2.94
  11  -7  -7   74.40    2.88
 -11   7   7   78.79    3.33
  11   7  -7   74.81    3.22
  11   7  -7   81.16    3.13
   9  -7  -7    0.18    0.14
  -9  -7   7    0.72    0.19
   9   7  -7    0.47    0.23
  -9   7   7    0.22    0.14
  -7  -7   7  108.01    3.59
   7  -7  -7  118.21    3.67
   7   7  -7  111.63    3.88
   7   7  -7  114.70    4.05
  -7   7   7  118.75    4.26
   5  -7  -7    0.37    0.19
  -5  -7   7    0.85    0.25
  -5   7   7    0.58    0.15
   5   7  -7    0.55    0.23
   5   7  -7    0.76    0.15
   3  -7  -7   37.85    1.81
  -3  -7   7   37.13    1.90
   3   7  -7   34.46    2.00
   3   7  -7   37.06    2.07
  -3   7   7   35.74    2.17
  -1  -7   7   -0.01    0.10
   1  -7  -7    0.50    0.16
   1   7  -7    0.45    0.08
   1   7  -7    0.35    0.21
  -1   7   7    0.40    0.26
  -1  -7  -7   36.93    1.73
  -1  -7  -7   35.56    1.78
   1  -7   7   35.75    1.86
   1   7   7   36.11    2.16
  -1   7  -7   37.63    2.10
  -1   7  -7   42.65    2.18
  -3  -7  -7    5.55    0.63
  -3  -7  -7    5.32    0.67
   3  -7   7    5.63    0.76
  -3   7  -7    5.93    0.82
  -3   7  -7    5.71    0.78
   3   7   7    5.32    0.88
  -5  -7  -7   17.74    1.06
   5  -7   7   16.58    1.25
  -5  -7  -7   17.46    1.28
  -5   7  -7   18.22    1.40
  -5   7  -7   19.66    1.36
   5   7   7   19.72    1.58
  -7  -7  -7    4.94    0.70
   7  -7   7    4.28    0.67
  -7   7  -7    5.02    0.74
   7   7   7    5.16    0.89
   9  -7   7   58.29    2.47
  -9  -7  -7   55.48    2.60
   9   7   7   51.48    2.76
  -9   7  -7   53.40    2.61
  11  -7   7    5.89    0.71
 -11  -7  -7    4.48    0.74
  11   7   7    6.01    0.98
 -11   7  -7    5.31    0.76
  13  -7   7   46.85    2.21
 -13  -7  -7   47.38    2.52
  13   7   7   51.29    2.87
 -13   7  -7   48.15    2.50
  15  -7   7   12.16    0.96
 -15  -7  -7   14.13    1.31
 -15   7  -7   13.80    1.24
  15   7   7   15.54    1.52
  17  -7   7   24.60    1.46
 -17  -7  -7   25.35    1.87
 -17   7  -7   22.71    1.67
  17   7   7   26.27    2.04
  14  -8  -7    6.84    0.91
 -14  -8   7    8.82    0.95
  14   8  -7    8.25    1.08
 -14   8   7    7.96    1.09
 -12  -8   7   55.44    2.56
  12  -8  -7   54.88    2.60
  12   8  -7   59.07    2.67
  12   8  -7   52.80    2.79
 -12   8   7   56.85    2.94
  10  -8  -7   16.67    1.32
 -10  -8   7   16.54    1.32
  10   8  -7   16.51    1.28
 -10   8   7   16.92    1.52
  10   8  -7   16.54    1.44
   8  -8  -7    6.48    0.84
  -8  -8   7    5.00    0.74
   8   8  -7    5.42    0.53
   8   8  -7    5.20    0.86
  -8   8   7    4.93    0.88
  -6  -8   7   32.36    1.89
   6  -8  -7   34.08    1.89
  -6   8   7   33.62    2.22
   6   8  -7   31.29    1.88
   6   8  -7   32.61    2.08
   4  -8  -7   49.23    2.27
  -4  -8   7   48.15    2.35
   4   8  -7   53.34    2.65
   4   8  -7   46.96    2.48
  -4   8   7   50.01    2.74
  -2  -8   7   21.69    1.52
   2  -8  -7   26.85    1.56
   2   8  -7   23.79    1.68
  -2   8   7   24.53    1.87
   2   8  -7   23.40    1.65
   0  -8  -7    7.05    0.69
   0  -8   7    5.78    0.80
   0   8   7    5.86    0.96
   0   8  -7    6.31    0.83
   0   8  -7    5.39    0.81
  -2  -8  -7   18.55    1.20
  -2  -8  -7   17.37    1.26
   2  -8   7   17.55    1.34
  -2   8  -7   18.43    1.42
   2   8   7   19.90    1.65
  -2   8  -7   19.21    1.47
  -4  -8  -7   19.49    1.37
   4  -8   7   17.86    1.35
  -4  -8  -7   19.95    1.23
   4   8   7   20.36    1.68
  -4   8  -7   16.95    1.41
  -6  -8  -7   44.54    2.26
   6  -8   7   43.07    2.22
   6   8   7   43.91    2.60
  -6   8  -7   44.12    2.48
   8  -8   7   10.53    1.02
  -8  -8  -7    9.46    0.94
  -8   8  -7    9.75    1.10
   8   8   7   11.25    1.32
  10  -8   7   27.99    1.74
 -10  -8  -7   33.84    2.03
 -10   8  -7   26.28    1.87
  10   8   7   30.69    2.20
 -12  -8  -7   25.12    1.79
  12  -8   7   24.68    1.59
 -12   8  -7   25.95    1.87
  12   8   7   27.08    2.06
  30   0  -8    1.80    0.29
 -30   0   8    2.33    0.50
 -28   0   8   38.70    2.53
  28   0  -8   41.95    1.89
  26   0  -8   41.16    1.87
 -26   0   8   43.35    2.60
 -26   0   8   43.50    1.83
  24   0  -8   40.23    1.80
 -24   0   8   35.88    2.30
 -24   0   8   39.38    1.64
 -22   0   8   19.18    1.57
  22   0  -8   17.36    1.11
 -22   0   8   21.38    1.08
 -20   0   8   39.67    2.24
 -20   0   8   44.26    1.57
  20   0  -8   44.82    1.81
 -18   0   8   33.18    1.25
 -18   0   8   34.22    1.99
  18   0  -8   32.51    1.48
  18   0  -8   33.00    1.19
 -16   0   8   98.78    2.38
  16   0  -8  100.22    2.19
 -16   0   8  100.63    3.61
  16   0  -8  100.24    2.76
  16   0  -8   98.95    2.44
  14   0  -8    0.66    0.12
 -14   0   8    0.59    0.11
 -14   0   8    0.47    0.19
 -12   0   8  131.99    4.16
  12   0  -8  139.16    3.05
 -12   0   8  138.55    3.23
 -12   0   8  141.51    2.77
 -10   0   8    9.53    0.41
  10   0  -8   10.15    0.59
 -10   0   8    9.00    0.62
 -10   0   8    9.19    0.89
  -8   0   8  170.66    3.58
  -8   0   8  174.71    2.99
   8   0  -8  171.14    3.54
  -8   0   8  162.53    4.61
  -6   0   8    3.81    0.37
   6   0  -8    3.92    0.36
  -6   0   8    4.17    0.62
  -4   0   8  172.04    4.56
  -4   0   8  178.66    3.49
   4   0  -8  176.78    3.64
  -2   0   8    0.87    0.20
   2   0  -8    1.20    0.25
  -2   0   8    2.16    0.43
  -2   0   8    1.72    0.11
   0   0   8  547.25    8.54
   0   0  -8  480.96    8.41
   0   0   8  519.59   10.10
  -2   0  -8    9.64    0.61
   2   0   8    8.52    0.72
   2   0   8   10.70    0.48
  -2   0  -8   10.95    0.46
   4   0   8  499.98   10.27
  -4   0  -8  540.94    9.47
  -4   0  -8  546.52    9.01
   4   0   8  546.63    8.63
  -6   0  -8    0.58    0.20
  -6   0  -8    0.66    0.15
   6   0   8    0.49    0.20
   6   0   8    0.61    0.07
   8   0   8  285.45    4.57
  -8   0  -8  273.50    5.49
   8   0   8  273.82    6.11
  -8   0  -8  273.74    5.26
 -10   0  -8   24.96    1.06
 -10   0  -8   23.57    1.10
  10   0   8   25.84    1.36
 -12   0  -8   93.53    2.52
 -12   0  -8   92.30    2.56
  12   0   8   93.55    3.01
 -14   0  -8   18.17    1.00
 -14   0  -8   17.99    1.00
  14   0   8   16.39    1.17
 -16   0  -8    8.01    0.69
  16   0   8    5.74    0.77
 -16   0  -8    5.27    0.53
  18   0   8   67.02    2.73
 -18   0  -8   65.43    2.24
 -18   0  -8   63.28    2.29
  20   0   8   56.57    2.56
 -20   0  -8   52.62    2.16
 -20   0  -8   53.52    2.06
 -22   0  -8   25.95    1.40
  22   0   8   26.07    1.75
 -22   0  -8   26.14    1.53
  24   0   8   17.36    1.46
 -24   0  -8   16.77    1.26
 -26   0  -8   18.60    1.36
  26   0   8   18.43    1.56
  28   0   8   45.74    2.67
 -28   0  -8   49.25    2.44
 -31  -1   8    0.91    0.34
 -31   1   8    0.22    0.15
  29  -1  -8   46.58    2.08
 -29  -1   8   48.24    2.71
 -29   1   8   44.75    2.90
  29   1  -8   45.46    2.02
 -29   1   8   45.14    2.03
  27  -1  -8    5.25    0.61
 -27  -1   8    3.79    0.73
 -27   1   8    4.73    0.91
 -27   1   8    4.34    0.54
  27   1  -8    3.82    0.51
 -25  -1   8   56.63    2.08
 -25  -1   8   56.37    2.82
  25  -1  -8   53.68    2.19
 -25   1   8   55.92    3.08
 -25   1   8   55.99    2.11
  25   1  -8   54.50    2.17
 -23  -1   8    0.84    0.15
 -23  -1   8    0.93    0.25
  23  -1  -8    0.34    0.14
 -23   1   8    1.01    0.34
 -23   1   8    0.39    0.11
  23   1  -8    0.33    0.16
 -21  -1   8   80.39    2.35
 -21  -1   8   80.87    3.24
  21  -1  -8   76.73    2.57
  21   1  -8   77.09    2.57
 -21   1   8   81.46    2.39
 -21   1   8   76.92    3.44
  21   1  -8   80.09    2.38
  21   1  -8   77.86    1.70
 -19  -1   8   19.95    1.43
  19  -1  -8   20.79    1.17
 -19  -1   8   20.56    1.15
 -19  -1   8   19.75    0.96
 -19   1   8   20.27    1.00
 -19   1   8   19.25    1.56
  19   1  -8   19.67    1.01
  17  -1  -8   52.16    1.93
 -17  -1   8   59.92    2.51
 -17  -1   8   52.62    1.90
 -17  -1   8   56.34    1.68
 -17   1   8   55.30    1.70
  17   1  -8   54.98    1.82
 -17   1   8   54.85    2.66
 -15  -1   8   77.86    2.94
  15  -1  -8   82.08    2.42
 -15  -1   8   83.28    2.41
 -15  -1   8   82.55    2.05
  15  -1  -8   81.36    1.93
  15   1  -8   81.69    2.30
 -15   1   8   81.70    2.09
 -15   1   8   80.74    3.23
  13  -1  -8  204.61    3.89
 -13  -1   8  203.08    3.86
 -13  -1   8  201.96    4.32
  13  -1  -8  209.18    4.36
 -13  -1   8  195.17    5.20
 -13   1   8  202.10    3.92
 -13   1   8  191.05    5.50
  13   1  -8  192.51    4.25
 -11  -1   8  115.89    2.86
  11  -1  -8  117.49    2.52
 -11  -1   8  118.83    3.62
  11  -1  -8  117.08    2.86
 -11  -1   8  114.95    2.36
  11   1  -8  116.75    2.85
 -11   1   8  118.24    2.47
 -11   1   8  113.46    3.80
   9  -1  -8   43.48    1.46
   9  -1  -8   45.56    1.30
  -9  -1   8   45.40    2.01
  -9  -1   8   45.45    1.50
   9  -1  -8   45.21    1.34
   9   1  -8   42.72    1.05
  -9   1   8   44.92    1.16
   9   1  -8   43.15    1.48
  -9   1   8   41.98    2.08
  -7  -1   8   68.58    1.88
   7  -1  -8   66.67    1.76
   7  -1  -8   67.86    1.84
  -7  -1   8   68.64    2.53
   7  -1  -8   69.66    1.73
  -7   1   8   66.40    2.63
   7   1  -8   66.89    1.39
   7   1  -8   67.84    1.93
  -7   1   8   68.27    1.50
   5  -1  -8  158.15    3.30
   5  -1  -8  164.57    3.31
  -5  -1   8  162.98    4.30
  -5  -1   8  163.56    3.36
   5  -1  -8  163.16    3.35
  -5   1   8  163.49    3.00
   5   1  -8  161.85    3.53
  -5   1   8  153.66    4.45
   3  -1  -8   32.44    1.10
   3  -1  -8   30.31    1.06
  -3  -1   8   31.25    1.48
  -3  -1   8   31.96    1.08
   3  -1  -8   30.37    1.03
   3   1  -8   33.16    1.21
  -3   1   8   30.92    0.93
  -3   1   8   30.35    1.58
  -1  -1   8    3.49    0.49
  -1  -1   8    2.88    0.30
   1  -1  -8    2.78    0.26
   1  -1  -8    3.13    0.30
   1  -1  -8    3.09    0.34
  -1   1   8    3.08    0.26
  -1   1   8    2.60    0.45
   1   1  -8    2.77    0.14
   1   1  -8    2.37    0.33
  -1  -1  -8   97.83    2.38
  -1  -1  -8   96.48    2.32
  -1  -1  -8  101.00    2.06
   1  -1   8   99.32    2.17
   1  -1   8   94.97    2.81
   1   1   8  101.30    2.98
   1   1   8   99.93    2.25
  -1   1  -8  102.27    2.50
  -1   1  -8  101.47    1.94
  -3  -1  -8   89.07    2.20
   3  -1   8   90.46    2.71
  -3  -1  -8   94.31    2.34
  -3  -1  -8   91.08    1.84
   3  -1   8   90.81    2.00
  -3   1  -8   93.51    2.38
   3   1   8   92.33    2.15
  -3   1  -8   91.92    1.94
   3   1   8   93.99    2.80
  -5  -1  -8  170.03    3.59
  -5  -1  -8  173.86    3.58
   5  -1   8  170.27    4.21
  -5  -1  -8  176.03    3.78
   5  -1   8  174.02    3.25
  -5  -1  -8  175.46    3.03
  -5   1  -8  176.84    3.79
  -5   1  -8  179.41    3.42
   5   1   8  173.77    4.30
   7  -1   8   27.78    0.84
   7  -1   8   27.49    1.37
  -7  -1  -8   26.65    1.16
  -7  -1  -8   28.34    1.04
  -7  -1  -8   28.19    1.11
  -7  -1  -8   28.55    0.64
  -7   1  -8   28.19    1.02
  -7   1  -8   28.40    1.17
   7   1   8   28.42    1.40
  -9  -1  -8  133.33    3.13
   9  -1   8  130.42    2.54
   9  -1   8  131.20    3.63
  -9  -1  -8  132.42    3.24
  -9   1  -8  131.12    3.13
   9   1   8  133.11    3.63
  -9   1  -8  136.31    3.02
  11  -1   8   28.80    0.82
 -11  -1  -8   26.59    1.25
 -11  -1  -8   28.84    1.24
  11  -1   8   28.08    1.48
 -11   1  -8   28.75    1.18
  11   1   8   28.01    1.45
 -11   1  -8   28.15    1.21
  13  -1   8   98.90    3.20
 -13  -1  -8   98.80    2.80
 -13  -1  -8   98.95    2.74
  13   1   8  103.82    3.19
 -13   1  -8   96.31    2.66
 -13   1  -8   97.14    2.64
  15  -1   8    1.31    0.42
 -15  -1  -8    1.31    0.32
 -15  -1  -8    1.19    0.32
 -15   1  -8    1.21    0.30
  15   1   8    1.91    0.47
 -15   1  -8    1.49    0.29
  17  -1   8   37.85    1.98
 -17  -1  -8   36.08    1.64
 -17  -1  -8   35.46    1.62
 -17   1  -8   37.01    1.65
  17   1   8   38.13    1.91
 -17   1  -8   37.74    1.53
 -19  -1  -8    3.67    0.53
  19  -1   8    2.91    0.63
 -19  -1  -8    3.74    0.57
 -19   1  -8    4.98    0.63
  19   1   8    2.75    0.58
 -19   1  -8    3.86    0.47
 -21  -1  -8   63.01    2.47
  21  -1   8   68.23    2.99
 -21  -1  -8   66.59    2.50
  21   1   8   69.51    2.89
 -21   1  -8   67.34    2.30
 -21   1  -8   68.90    2.57
  23  -1   8    8.20    1.06
 -23  -1  -8    7.21    0.84
 -23  -1  -8    8.23    0.77
  23   1   8    7.78    0.98
 -23   1  -8    8.39    0.91
  25  -1   8   50.34    2.74
 -25  -1  -8   56.53    2.37
 -25  -1  -8   46.88    2.27
  25   1   8   50.52    2.60
 -25   1  -8   50.31    2.34
 -27  -1  -8    2.68    0.55
  27  -1   8    3.36    0.76
  27   1   8    2.78    0.57
 -27   1  -8    2.59    0.54
 -30  -2   8   16.33    1.42
  30  -2  -8   18.25    1.20
 -30   2   8   16.41    1.73
 -30   2   8   18.56    1.26
  28  -2  -8   27.45    1.55
 -28  -2   8   28.23    1.86
 -28   2   8   29.59    1.57
  28   2  -8   24.31    1.38
 -28   2   8   27.07    2.20
 -26  -2   8   19.10    1.48
  26  -2  -8   19.90    1.29
  26   2  -8   19.55    1.20
 -26   2   8   20.66    1.25
 -26   2   8   16.49    1.66
 -24  -2   8   22.25    1.33
  24  -2  -8   22.12    1.36
 -24  -2   8   24.07    1.64
 -24  -2   8   24.93    1.29
 -24   2   8   23.33    1.27
  24   2  -8   24.15    1.31
 -24   2   8   25.48    2.02
 -22  -2   8   15.87    1.07
 -22  -2   8   20.59    1.42
  22  -2  -8   17.83    1.18
 -22  -2   8   17.78    1.02
 -22   2   8   17.41    1.04
 -22   2   8   16.66    1.56
  22   2  -8   17.67    1.10
 -20  -2   8   42.63    1.77
  20  -2  -8   41.88    1.80
 -20  -2   8   40.58    1.58
 -20  -2   8   40.06    2.03
 -20   2   8   38.91    2.38
  20   2  -8   40.39    1.76
 -20   2   8   43.62    1.66
 -18  -2   8   25.70    1.30
 -18  -2   8   25.32    1.14
  18  -2  -8   23.44    1.28
 -18  -2   8   26.78    1.52
  18   2  -8   25.48    1.31
 -18   2   8   24.92    1.16
 -18   2   8   22.40    1.71
 -16  -2   8   63.05    2.13
 -16  -2   8   63.71    2.45
 -16  -2   8   64.25    1.89
  16  -2  -8   63.51    2.15
 -16   2   8   59.12    2.82
  16   2  -8   67.09    2.24
 -16   2   8   65.66    1.97
  14  -2  -8    0.21    0.17
 -14  -2   8    0.60    0.20
 -14  -2   8    0.76    0.21
  14   2  -8    0.67    0.22
 -14   2   8    0.55    0.14
 -14   2   8    0.68    0.27
 -12  -2   8  132.41    3.24
 -12  -2   8  138.27    3.83
  12  -2  -8  138.30    2.70
  12  -2  -8  134.73    3.25
  12   2  -8  134.06    3.40
  12   2  -8  134.20    2.93
 -12   2   8  138.50    3.03
 -12   2   8  128.37    4.26
  10  -2  -8    8.30    0.42
  10  -2  -8    7.38    0.59
 -10  -2   8    8.41    0.72
 -10  -2   8    7.90    0.60
  10   2  -8    8.35    0.47
 -10   2   8    8.86    0.53
 -10   2   8    7.24    0.90
  10   2  -8    8.72    0.66
  -8  -2   8  119.02    3.44
  -8  -2   8  118.53    2.87
   8  -2  -8  118.68    2.83
   8  -2  -8  125.27    2.58
   8   2  -8  121.84    3.07
  -8   2   8  124.17    2.68
   8   2  -8  121.16    2.67
  -8   2   8  118.66    3.87
   6  -2  -8    0.41    0.09
   6  -2  -8    0.28    0.14
  -6  -2   8    0.28    0.16
  -6  -2   8    0.60    0.21
  -6   2   8    1.15    0.19
  -6   2   8    0.59    0.26
   6   2  -8    0.79    0.24
   4  -2  -8  177.11    3.53
  -4  -2   8  166.02    3.57
  -4  -2   8  169.46    4.28
   4  -2  -8  170.54    3.48
  -4   2   8  175.22    3.63
   4   2  -8  173.38    3.88
  -4   2   8  166.47    4.68
   4   2  -8  175.68    3.18
  -2  -2   8    6.16    0.48
   2  -2  -8    6.27    0.46
   2  -2  -8    5.92    0.42
  -2  -2   8    7.20    0.62
  -2   2   8    6.49    0.50
   2   2  -8    6.94    0.33
  -2   2   8    6.87    0.72
   2   2  -8    6.39    0.55
   0  -2  -8  240.36    4.70
   0  -2  -8  245.37    4.36
   0  -2   8  230.35    5.23
   0  -2   8  237.37    4.54
   0   2   8  236.97    5.58
   0   2  -8  229.72    4.87
   0   2  -8  241.37    4.24
   0   2   8  231.53    4.87
   2  -2   8   19.53    1.07
  -2  -2  -8   20.08    0.93
  -2  -2  -8   21.31    0.74
   2  -2   8   20.53    0.86
  -2   2  -8   20.51    1.00
   2   2   8   17.97    0.92
  -2   2  -8   21.59    0.75
   2   2   8   18.01    1.11
   4  -2   8  226.05    4.37
   4  -2   8  221.11    5.14
  -4  -2  -8  241.33    4.84
  -4  -2  -8  232.09    4.08
  -4   2  -8  238.30    4.40
   4   2   8  231.96    5.37
   4   2   8  225.88    4.75
  -4   2  -8  233.74    4.82
  -6  -2  -8    2.61    0.40
  -6  -2  -8    3.02    0.19
   6  -2   8    2.79    0.44
   6  -2   8    3.04    0.28
  -6   2  -8    2.57    0.36
  -6   2  -8    2.86    0.28
   6   2   8    2.57    0.45
   6   2   8    3.07    0.40
  -8  -2  -8  322.06    5.44
  -8  -2  -8  340.76    6.71
   8  -2   8  337.09    5.98
   8  -2   8  326.51    7.11
  -8   2  -8  337.18    6.51
  -8   2  -8  346.50    6.31
   8   2   8  342.37    7.22
  10  -2   8   18.15    0.76
  10  -2   8   17.07    1.11
 -10  -2  -8   18.44    1.05
 -10  -2  -8   18.17    1.03
 -10   2  -8   17.84    0.92
  10   2   8   16.33    1.08
 -10   2  -8   18.00    0.94
 -12  -2  -8   40.75    1.69
 -12  -2  -8   40.39    1.65
  12  -2   8   42.12    1.26
  12  -2   8   37.86    1.82
 -12   2  -8   40.25    1.54
 -12   2  -8   39.84    1.48
  12   2   8   39.52    1.78
 -14  -2  -8   30.70    1.48
  14  -2   8   30.19    1.66
 -14  -2  -8   30.04    1.48
  14   2   8   29.90    1.57
 -14   2  -8   29.60    1.26
 -14   2  -8   28.68    1.35
  16  -2   8   33.85    1.85
 -16  -2  -8   34.62    1.66
 -16  -2  -8   33.68    1.61
 -16   2  -8   32.21    1.35
  16   2   8   33.70    1.73
 -16   2  -8   33.61    1.56
 -18  -2  -8   22.66    1.35
  18  -2   8   23.06    1.57
 -18  -2  -8   22.84    1.37
 -18   2  -8   22.69    1.12
  18   2   8   23.92    1.49
 -18   2  -8   22.19    1.31
 -20  -2  -8    6.06    0.72
 -20  -2  -8    5.61    0.73
  20  -2   8    5.12    0.82
 -20   2  -8    6.77    0.77
  20   2   8    7.13    0.85
  22  -2   8   25.27    1.80
 -22  -2  -8   26.46    1.57
 -22  -2  -8   21.58    1.43
  22   2   8   24.11    1.59
 -22   2  -8   25.03    1.53
 -24  -2  -8   51.47    2.37
 -24  -2  -8   52.89    2.38
  24  -2   8   53.79    2.84
 -24   2  -8   51.23    2.39
  24   2   8   51.77    2.53
  26  -2   8   20.36    1.72
 -26  -2  -8   22.24    1.49
 -26  -2  -8   19.45    1.44
 -26   2  -8   19.97    1.46
  26   2   8   20.24    1.49
  29  -3  -8   17.20    1.20
 -29   3   8   17.49    1.80
 -29   3   8   18.70    1.28
  27  -3  -8    1.34    0.11
 -27  -3   8    1.20    0.24
 -27   3   8    1.67    0.47
 -27   3   8    0.77    0.20
  25  -3  -8   44.90    2.10
 -25  -3   8   45.39    2.03
 -25  -3   8   49.60    2.32
 -25   3   8   45.63    1.99
 -25   3   8   39.48    2.68
  25   3  -8   47.19    2.13
 -23  -3   8    1.50    0.30
  23  -3  -8    1.87    0.44
 -23  -3   8    2.34    0.44
 -23   3   8    2.20    0.62
  23   3  -8    2.24    0.40
 -23   3   8    1.75    0.35
 -21  -3   8   25.10    1.37
 -21  -3   8   26.33    1.50
  21  -3  -8   25.23    1.44
 -21   3   8   22.28    1.84
  21   3  -8   25.09    1.27
  21   3  -8   28.72    1.58
 -21   3   8   24.96    1.33
 -19  -3   8    8.67    0.76
  19  -3  -8    9.02    0.83
 -19  -3   8   10.66    0.87
  19   3  -8   11.12    0.72
 -19   3   8    9.95    0.78
 -19   3   8    9.52    1.19
  19   3  -8    9.64    0.87
  17  -3  -8   84.78    2.70
 -17  -3   8   83.93    2.66
 -17  -3   8   90.57    2.87
 -17   3   8   87.69    2.58
 -17   3   8   83.56    3.52
  17   3  -8   89.02    2.93
  17   3  -8   84.99    2.51
 -15  -3   8   62.87    2.16
  15  -3  -8   66.95    2.24
 -15  -3   8   66.74    2.31
 -15   3   8   57.55    2.77
  15   3  -8   65.09    2.39
 -15   3   8   64.30    2.07
  15   3  -8   64.19    2.02
 -13  -3   8   29.68    1.37
 -13  -3   8   32.32    1.46
  13  -3  -8   29.28    1.37
  13   3  -8   31.81    1.27
 -13   3   8   27.49    1.79
 -13   3   8   30.61    1.30
  13   3  -8   33.64    1.60
  11  -3  -8   36.31    1.48
 -11  -3   8   35.70    1.47
 -11  -3   8   37.13    1.56
 -11   3   8   37.04    1.41
  11   3  -8   35.74    1.38
  11   3  -8   36.18    1.64
 -11   3   8   33.73    1.93
  -9  -3   8  113.78    2.94
   9  -3  -8  117.36    2.47
   9  -3  -8  114.46    2.89
  -9  -3   8  113.83    3.14
   9   3  -8  118.44    3.25
   9   3  -8  112.52    2.87
  -9   3   8  110.56    3.74
  -9   3   8  112.18    2.86
  -7  -3   8   20.39    1.03
   7  -3  -8   20.98    1.01
   7  -3  -8   21.43    0.83
  -7  -3   8   20.85    1.10
   7   3  -8   20.00    0.94
  -7   3   8   20.72    1.40
  -7   3   8   20.18    1.02
   7   3  -8   20.14    1.13
  -5  -3   8   33.05    1.47
  -5  -3   8   28.86    1.24
   5  -3  -8   30.46    1.21
   5  -3  -8   31.39    1.10
   5   3  -8   31.29    1.16
   5   3  -8   32.73    1.45
  -5   3   8   30.41    1.32
  -5   3   8   33.25    1.74
   3  -3  -8    8.47    0.58
  -3  -3   8    8.49    0.64
  -3  -3   8    7.64    0.61
   3  -3  -8    8.64    0.55
   3   3  -8    8.89    0.52
  -3   3   8    7.90    0.66
   3   3  -8    8.35    0.69
  -3   3   8    8.10    0.81
   1  -3  -8   55.03    1.59
  -1  -3   8   52.42    1.84
  -1  -3   8   53.41    1.71
   1  -3  -8   53.40    1.67
  -1   3   8   51.72    1.93
  -1   3   8   53.68    2.17
   1   3  -8   51.54    1.84
   1   3  -8   53.19    1.52
   1  -3   8   50.24    1.82
  -1  -3  -8   52.94    1.50
  -1  -3  -8   52.74    1.70
   1  -3   8   53.56    1.70
   1   3   8   53.60    1.98
  -1   3  -8   53.92    1.53
  -1   3  -8   50.01    1.80
   1   3   8   52.82    2.10
   3  -3   8    1.62    0.31
  -3  -3  -8    1.29    0.29
  -3  -3  -8    1.77    0.22
   3  -3   8    1.41    0.28
   3   3   8    1.44    0.34
  -3   3  -8    1.65    0.24
   3   3   8    1.54    0.35
  -3   3  -8    1.06    0.29
  -5  -3  -8   76.61    2.31
   5  -3   8   77.55    2.13
   5  -3   8   74.21    2.38
  -5  -3  -8   71.75    1.74
   5   3   8   75.70    2.45
  -5   3  -8   78.21    2.10
   5   3   8   75.26    2.54
  -5   3  -8   76.02    2.27
  -7  -3  -8   21.00    1.13
   7  -3   8   20.67    1.16
  -7  -3  -8   20.30    0.71
   7  -3   8   20.76    0.97
   7   3   8   20.69    1.20
  -7   3  -8   20.03    1.04
  -7   3  -8   20.93    0.99
   7   3   8   21.09    1.18
   9  -3   8   97.04    2.48
   9  -3   8   92.51    2.94
  -9  -3  -8   94.99    2.83
   9   3   8   93.57    2.88
   9   3   8   98.65    3.02
  -9   3  -8   94.47    2.60
  -9   3  -8   93.95    2.60
  11  -3   8    4.37    0.40
 -11  -3  -8    3.91    0.58
  11  -3   8    4.07    0.60
 -11   3  -8    4.65    0.45
  11   3   8    3.59    0.55
  11   3   8    4.70    0.59
 -11   3  -8    4.40    0.51
  13  -3   8   59.73    1.82
  13  -3   8   53.77    2.29
 -13  -3  -8   57.50    2.21
  13   3   8   58.98    2.25
  13   3   8   57.40    2.25
 -13   3  -8   52.89    1.83
 -13   3  -8   54.74    2.02
  15  -3   8    8.02    0.91
 -15  -3  -8    7.79    0.78
 -15   3  -8    8.05    0.73
 -15   3  -8    8.28    0.60
  15   3   8    6.97    0.81
  15   3   8    7.87    0.75
  17  -3   8   42.80    2.17
 -17  -3  -8   40.23    1.95
 -17  -3  -8   42.35    1.99
  17   3   8   43.20    1.98
 -17   3  -8   42.92    1.90
  19  -3   8    0.31    0.18
 -19  -3  -8    0.61    0.24
 -19  -3  -8    0.73    0.23
 -19   3  -8    0.67    0.22
  19   3   8    0.58    0.17
 -21  -3  -8   34.45    1.91
 -21  -3  -8   33.93    1.88
  21  -3   8   32.47    2.06
 -21   3  -8   35.48    1.85
  21   3   8   34.04    1.85
 -23  -3  -8    4.98    0.72
 -23  -3  -8    3.48    0.65
  23  -3   8    3.78    0.74
  23   3   8    3.93    0.40
 -23   3  -8    4.19    0.67
 -25  -3  -8   20.68    1.53
  25  -3   8   21.81    1.79
 -25  -3  -8   23.84    1.59
  25   3   8   22.97    1.52
 -25   3  -8   23.34    1.59
  28  -4  -8    8.75    0.78
  28   4  -8    9.62    0.80
 -28   4   8    8.01    0.78
 -28   4   8    8.91    1.29
  26  -4  -8    2.56    0.38
 -26  -4   8    3.34    0.50
  26   4  -8    2.68    0.24
 -26   4   8    2.40    0.44
 -26   4   8    3.07    0.71
 -24  -4   8   14.65    1.06
  24  -4  -8   13.66    1.12
 -24   4   8   14.56    1.48
 -24   4   8   12.33    0.98
  24   4  -8   14.97    1.18
 -22  -4   8   40.31    1.88
  22  -4  -8   39.55    1.96
 -22   4   8   37.47    1.82
  22   4  -8   41.06    2.11
 -22   4   8   36.30    2.44
 -20  -4   8   21.57    1.30
  20  -4  -8   20.84    1.35
 -20   4   8   21.85    1.76
 -20   4   8   18.48    1.18
 -18  -4   8    0.89    0.25
  18  -4  -8    0.55    0.25
  18   4  -8    0.48    0.23
 -18   4   8    1.22    0.37
 -18   4   8    1.44    0.32
 -16  -4   8   41.95    1.82
  16  -4  -8   43.53    1.90
 -16   4   8   43.18    1.82
  16   4  -8   43.30    2.08
  16   4  -8   44.69    1.80
 -16   4   8   44.45    2.39
 -14  -4   8   37.15    1.66
  14  -4  -8   35.40    1.65
 -14   4   8   33.53    1.99
 -14   4   8   36.13    1.60
  14   4  -8   40.64    1.67
  14   4  -8   36.40    1.85
  12  -4  -8   32.86    1.54
 -12  -4   8   34.44    1.56
 -12   4   8   32.64    1.51
  12   4  -8   33.74    1.74
 -12   4   8   34.37    1.95
  12   4  -8   35.74    1.55
  10  -4  -8    6.17    0.68
 -10  -4   8    5.99    0.66
 -10   4   8    6.15    0.65
  10   4  -8    6.76    0.57
  10   4  -8    5.75    0.75
 -10   4   8    8.74    0.87
   8  -4  -8   52.35    1.89
   8  -4  -8   58.48    1.60
  -8  -4   8   55.90    1.79
  -8  -4   8   56.63    2.00
  -8   4   8   54.81    2.07
  -8   4   8   55.36    2.39
   8   4  -8   57.13    2.03
   8   4  -8   51.91    2.16
  -6  -4   8   20.17    0.98
  -6  -4   8   22.00    1.17
   6  -4  -8   20.95    0.90
   6  -4  -8   19.24    1.04
  -6   4   8   18.02    1.14
   6   4  -8   20.88    1.11
  -6   4   8   21.13    1.35
   6   4  -8   20.00    1.24
   4  -4  -8   30.76    1.21
   4  -4  -8   31.41    1.32
  -4  -4   8   33.26    1.36
  -4  -4   8   31.90    1.43
  -4   4   8   31.85    1.58
  -4   4   8   32.13    1.67
   4   4  -8   30.52    1.53
   4   4  -8   33.00    1.40
  -2  -4   8   23.00    1.09
   2  -4  -8   24.41    1.10
  -2  -4   8   25.96    1.26
   2  -4  -8   25.23    1.13
  -2   4   8   25.82    1.45
   2   4  -8   25.80    1.19
   2   4  -8   24.27    1.33
  -2   4   8   22.95    1.36
   0  -4   8   78.68    2.35
   0  -4  -8   83.86    2.39
   0  -4  -8   81.81    2.21
   0  -4   8   81.74    2.44
   0   4   8   78.33    2.75
   0   4  -8   82.05    2.62
   0   4   8   79.67    2.84
   0   4  -8   82.04    2.35
  -2  -4  -8   14.20    0.90
   2  -4   8   14.45    0.91
  -2  -4  -8   14.43    0.76
   2  -4   8   13.37    0.83
   2   4   8   14.76    1.01
  -2   4  -8   14.25    0.83
   2   4   8   12.27    0.99
  -2   4  -8   14.26    0.96
  -4  -4  -8  109.67    3.05
   4  -4   8  109.28    3.03
  -4  -4  -8  107.90    2.56
   4  -4   8  112.61    2.97
   4   4   8  110.47    3.30
  -4   4  -8  112.11    2.91
   4   4   8  111.01    3.43
  -4   4  -8  110.68    3.10
  -6  -4  -8   26.11    1.36
   6  -4   8   27.10    1.27
   6  -4   8   26.25    1.29
  -6  -4  -8   27.02    1.00
   6   4   8   27.61    1.40
   6   4   8   25.93    1.50
  -6   4  -8   26.90    1.24
  -6   4  -8   26.45    1.29
  -8  -4  -8   39.93    1.76
   8  -4   8   34.69    1.50
   8  -4   8   35.37    1.62
  -8   4  -8   39.16    1.58
   8   4   8   37.93    1.72
  -8   4  -8   39.33    1.60
   8   4   8   39.47    1.89
 -10  -4  -8    0.56    0.25
  10  -4   8    0.54    0.17
  10  -4   8    0.56    0.10
  10   4   8    1.16    0.23
 -10   4  -8    0.39    0.13
  10   4   8    0.31    0.21
 -10   4  -8    0.50    0.18
 -12  -4  -8   37.47    1.83
  12  -4   8   39.82    1.59
  12  -4   8   38.10    1.85
  12   4   8   39.71    1.96
 -12   4  -8   38.39    1.54
 -12   4  -8   39.23    1.73
  12   4   8   39.57    1.80
 -14  -4  -8   19.62    1.34
  14  -4   8   18.30    1.02
  14  -4   8   18.47    1.28
  14   4   8   20.38    1.25
 -14   4  -8   18.06    1.18
  14   4   8   19.56    1.37
 -14   4  -8   17.99    0.96
 -16  -4  -8    7.90    0.92
  16  -4   8    8.27    0.93
  16  -4   8    7.74    0.58
  16   4   8    7.51    0.70
  16   4   8    7.06    0.89
 -16   4  -8    8.06    0.79
 -18  -4  -8   14.44    1.20
  18  -4   8   13.97    1.22
  18   4   8   15.40    1.07
  18   4   8   14.64    1.22
 -18   4  -8   13.97    1.09
 -20  -4  -8   23.46    1.62
  20  -4   8   22.05    1.62
  20   4   8   23.79    1.43
 -20   4  -8   22.99    1.50
  20   4   8   22.56    1.61
  22  -4   8   16.19    1.43
 -22  -4  -8   16.02    1.34
  22   4   8   16.43    1.37
 -22   4  -8   17.01    1.31
  24  -4   8    5.14    0.84
 -24  -4  -8    4.27    0.72
  24   4   8    4.77    0.78
 -24   4  -8    5.41    0.78
 -25  -5   8    5.76    0.69
  25  -5  -8    7.27    0.86
 -25   5   8    6.66    0.80
 -25   5   8    6.83    1.03
  25   5  -8    7.02    0.86
  23  -5  -8    0.78    0.22
 -23  -5   8    1.27    0.17
 -23   5   8    0.88    0.18
 -23   5   8    0.65    0.14
 -21  -5   8   15.62    1.13
  21  -5  -8   13.68    1.13
 -21   5   8   15.15    1.43
 -21   5   8   13.44    1.06
 -19  -5   8    3.36    0.55
  19  -5  -8    2.24    0.52
 -19   5   8    2.41    0.47
 -19   5   8    3.06    0.61
  17  -5  -8    7.58    0.87
 -17  -5   8    8.29    0.77
 -17   5   8    9.21    1.07
 -17   5   8    8.01    0.78
  17   5  -8    7.00    0.92
 -15  -5   8    3.78    0.59
  15  -5  -8    2.48    0.51
  15   5  -8    3.89    0.51
  15   5  -8    4.07    0.74
 -15   5   8    3.64    0.57
 -15   5   8    3.73    0.66
  13  -5  -8   22.26    1.36
 -13  -5   8   28.07    1.50
  13   5  -8   25.65    1.62
 -13   5   8   26.34    1.66
 -13   5   8   25.53    1.47
  13   5  -8   29.11    1.47
  11  -5  -8   17.65    1.15
 -11  -5   8   17.09    1.15
  11   5  -8   15.87    1.26
 -11   5   8   17.06    1.27
  11   5  -8   18.90    1.15
 -11   5   8   17.78    1.21
   9  -5  -8   35.61    1.65
  -9  -5   8   36.83    1.71
   9   5  -8   35.25    1.90
   9   5  -8   39.69    1.78
  -9   5   8   32.34    1.72
  -9   5   8   35.06    1.82
   7  -5  -8    1.02    0.32
  -7  -5   8    1.22    0.35
   7   5  -8    0.53    0.29
   7   5  -8    1.66    0.30
  -7   5   8    1.63    0.33
  -7   5   8    1.47    0.41
  -5  -5   8    3.79    0.57
   5  -5  -8    4.66    0.59
   5  -5  -8    4.49    0.39
  -5   5   8    5.74    0.57
  -5   5   8    4.02    0.66
   5   5  -8    4.38    0.56
   5   5  -8    4.26    0.69
   3  -5  -8    9.08    0.65
  -3  -5   8    7.73    0.74
   3  -5  -8    7.32    0.65
   3   5  -8    8.95    0.87
   3   5  -8    8.42    0.73
  -3   5   8    9.35    0.78
  -3   5   8    8.10    0.93
   1  -5  -8    9.37    0.71
  -1  -5   8    8.75    0.78
   1  -5  -8    8.59    0.67
  -1   5   8   10.30    0.80
   1   5  -8    8.78    0.85
   1   5  -8    9.96    0.78
  -1   5   8    8.43    0.95
   1  -5   8    0.89    0.30
  -1  -5  -8    1.17    0.26
  -1  -5  -8    1.57    0.32
  -1   5  -8    1.52    0.28
   1   5   8    0.48    0.29
  -1   5  -8    0.81    0.28
   1   5   8    1.04    0.18
   3  -5   8    5.74    0.68
  -3  -5  -8    6.66    0.53
  -3  -5  -8    6.94    0.73
  -3   5  -8    6.77    0.63
   3   5   8    7.26    0.90
   3   5   8    7.34    0.65
  -3   5  -8    6.98    0.76
   5  -5   8   39.32    1.60
   5  -5   8   39.45    1.73
  -5  -5  -8   40.61    1.46
  -5  -5  -8   39.42    1.80
  -5   5  -8   40.61    1.81
   5   5   8   42.59    1.81
   5   5   8   39.44    2.07
  -5   5  -8   39.36    1.73
   7  -5   8    3.37    0.43
  -7  -5  -8    2.41    0.49
   7  -5   8    3.21    0.51
  -7   5  -8    3.26    0.47
   7   5   8    3.27    0.34
  -7   5  -8    3.27    0.49
   7   5   8    3.12    0.66
  -9  -5  -8   21.59    1.38
   9  -5   8   21.68    1.22
   9  -5   8   20.13    1.20
  -9   5  -8   21.92    1.22
   9   5   8   18.91    1.43
  -9   5  -8   20.01    1.24
 -11  -5  -8    0.64    0.29
  11  -5   8    0.14    0.10
  11   5   8    0.58    0.27
 -11   5  -8    0.49    0.14
  13  -5   8   23.72    1.45
  13  -5   8   22.16    1.26
 -13  -5  -8   24.59    1.59
 -13   5  -8   23.16    1.41
  13   5   8   25.39    1.71
 -15  -5  -8    0.46    0.18
  15  -5   8    0.12    0.05
  15  -5   8    0.20    0.09
  15   5   8    0.44    0.21
 -15   5  -8    0.29    0.10
  17  -5   8   13.14    1.13
  17  -5   8   15.55    0.99
 -17  -5  -8   13.97    1.23
 -17   5  -8   12.30    1.07
  17   5   8   14.37    1.30
 -19  -5  -8    0.49    0.14
  19  -5   8    0.54    0.17
  19   5   8    0.64    0.21
 -19   5  -8    0.75    0.21
  21  -5   8    8.66    0.90
 -21  -5  -8    8.48    1.06
  21   5   8    7.52    1.02
 -21   5  -8    8.03    0.94
  23  -5   8    0.22    0.08
 -23  -5  -8    0.37    0.10
 -23   5  -8    0.39    0.08
  23   5   8    0.53    0.23
  22  -6  -8    0.32    0.10
 -22   6   8    0.59    0.14
  22   6  -8    0.48    0.11
  20  -6  -8    2.81    0.57
 -20  -6   8    3.68    0.57
  20   6  -8    2.64    0.62
 -20   6   8    2.73    0.65
 -20   6   8    2.49    0.44
 -18  -6   8   23.44    1.44
  18  -6  -8   21.45    1.48
 -18   6   8   19.83    1.53
  18   6  -8   20.02    1.59
 -18   6   8   20.62    1.43
 -16  -6   8    4.87    0.66
  16  -6  -8    5.72    0.78
 -16   6   8    5.54    0.77
  16   6  -8    5.46    0.87
 -16   6   8    4.74    0.70
 -14  -6   8    3.80    0.61
  14  -6  -8    4.30    0.66
 -14   6   8    4.88    0.71
  14   6  -8    4.64    0.40
  14   6  -8    3.27    0.68
 -14   6   8    3.43    0.58
  12  -6  -8    6.10    0.78
 -12  -6   8    6.12    0.77
  12   6  -8    7.78    0.67
 -12   6   8    8.51    0.94
 -12   6   8    6.97    0.70
  12   6  -8    5.90    0.86
  10  -6  -8   11.66    0.97
 -10  -6   8   11.65    0.99
  10   6  -8   10.18    1.12
  10   6  -8   13.30    1.00
 -10   6   8   11.88    1.07
 -10   6   8   11.60    0.96
   8  -6  -8    8.64    0.88
  -8  -6   8    8.52    0.91
  -8   6   8    7.56    0.73
  -8   6   8    8.66    1.01
   8   6  -8    9.92    1.09
   8   6  -8    8.61    0.79
   6  -6  -8   11.76    0.94
  -6  -6   8   10.01    0.90
  -6   6   8   12.61    1.13
   6   6  -8   12.86    1.01
   6   6  -8   10.76    1.06
   4  -6  -8    4.56    0.60
  -4  -6   8    3.78    0.61
   4  -6  -8    4.57    0.43
  -4   6   8    3.98    0.70
   4   6  -8    4.53    0.63
   4   6  -8    4.45    0.71
   2  -6  -8    8.13    0.67
   2  -6  -8    7.47    0.68
  -2  -6   8    7.65    0.85
   2   6  -8    9.03    0.86
  -2   6   8    7.94    1.00
   2   6  -8    7.81    0.92
   0  -6   8    4.24    0.64
   0  -6  -8    5.39    0.63
   0  -6  -8    4.84    0.57
   0   6   8    5.47    0.82
   0   6  -8    5.33    0.77
   0   6  -8    5.14    0.69
  -2  -6  -8   10.85    0.88
  -2  -6  -8   12.29    0.84
   2  -6   8   11.82    0.98
   2   6   8   11.23    1.10
  -2   6  -8   11.49    0.97
  -2   6  -8   10.80    0.98
   4  -6   8    2.91    0.55
  -4  -6  -8    3.83    0.61
  -4  -6  -8    4.62    0.45
   4   6   8    4.24    0.77
  -4   6  -8    4.66    0.65
  -4   6  -8    4.77    0.67
  -6  -6  -8    3.13    0.58
   6  -6   8    3.27    0.57
  -6   6  -8    2.81    0.51
   6   6   8    3.06    0.66
  -6   6  -8    3.66    0.57
   8  -6   8   13.38    1.05
  -8  -6  -8   14.06    1.16
   8   6   8   13.42    1.26
  -8   6  -8   13.91    1.02
  -8   6  -8   14.15    1.11
 -10  -6  -8    4.41    0.72
  10  -6   8    5.32    0.67
  10   6   8    4.98    0.84
 -10   6  -8    5.93    0.75
  12  -6   8    1.46    0.27
 -12  -6  -8    1.18    0.38
  12   6   8    1.13    0.42
 -12   6  -8    1.02    0.21
 -14  -6  -8    0.32    0.17
  14   6   8    0.48    0.18
 -14   6  -8    0.13    0.09
  16  -6   8    7.52    0.62
 -16  -6  -8    7.61    1.01
  16   6   8    8.11    1.10
 -16   6  -8    7.21    0.87
 -18  -6  -8    5.57    0.87
 -18   6  -8    4.11    0.66
  18   6   8    5.30    0.90
  20  -6   8    0.61    0.14
 -20  -6  -8    0.70    0.23
  20   6   8    0.90    0.28
 -20   6  -8    0.49    0.11
 -19  -7   8    0.74    0.13
  19  -7  -8    0.31    0.09
  19   7  -8    0.41    0.14
  17  -7  -8    1.89    0.44
 -17  -7   8    1.33    0.13
  17   7  -8    1.06    0.31
 -17   7   8    1.06    0.29
 -15  -7   8    0.64    0.15
  15  -7  -8    0.34    0.18
  15   7  -8    0.66    0.27
 -15   7   8    0.94    0.16
 -13  -7   8    0.89    0.23
  13  -7  -8    0.59    0.16
 -13   7   8    0.35    0.19
  13   7  -8    0.94    0.32
 -11  -7   8    0.29    0.12
  11  -7  -8    0.49    0.16
 -11   7   8    0.27    0.19
   9  -7  -8    0.44    0.17
  -9  -7   8    0.21    0.16
   9   7  -8    0.71    0.29
   9   7  -8    1.15    0.11
  -9   7   8    0.71    0.19
  -7  -7   8    0.38    0.15
   7  -7  -8    0.29    0.11
  -7   7   8    0.60    0.26
   7   7  -8    0.42    0.24
  -5  -7   8    6.04    0.80
   5  -7  -8    5.96    0.75
  -5   7   8    5.86    0.90
   5   7  -8    6.27    0.90
   5   7  -8    6.04    0.78
   3  -7  -8    0.57    0.15
  -3  -7   8    0.44    0.19
  -3   7   8    0.49    0.21
   3   7  -8    0.58    0.22
  -1  -7   8    1.32    0.36
   1  -7  -8    0.69    0.21
  -1   7   8    0.77    0.32
   1   7  -8    0.74    0.20
   1   7  -8    1.14    0.25
  -1  -7  -8    2.09    0.36
   1  -7   8    1.49    0.38
  -1  -7  -8    2.63    0.43
  -1   7  -8    2.44    0.56
   1   7   8    1.96    0.48
  -1   7  -8    3.12    0.55
  -3  -7  -8    1.08    0.22
  -3  -7  -8    1.28    0.28
   3  -7   8    1.06    0.30
   3   7   8    1.33    0.40
  -3   7  -8    1.38    0.30
  -3   7  -8    1.09    0.19
   5  -7   8    0.39    0.21
  -5  -7  -8    0.27    0.14
  -5   7  -8    0.61    0.17
   5   7   8    0.62    0.25
  -7  -7  -8    3.35    0.59
   7  -7   8    2.62    0.54
   7   7   8    1.99    0.50
  -7   7  -8    1.80    0.34
   9  -7   8    5.91    0.79
  -9  -7  -8    6.61    0.89
   9   7   8    5.56    0.95
  -9   7  -8    5.68    0.78
  11  -7   8    0.82    0.15
 -11  -7  -8    1.11    0.27
 -11   7  -8    1.48    0.26
  11   7   8    1.49    0.43
 -13  -7  -8    0.66    0.18
  13   7   8    0.88    0.27
 -15  -7  -8    1.41    0.37
  15  -7   8    1.54    0.13
  15   7   8    0.86    0.21
 -14  -8   8    4.32    0.67
  14  -8  -8    4.06    0.69
  14   8  -8    5.10    0.84
 -14   8   8    5.00    0.79
 -12  -8   8    0.92    0.16
  12  -8  -8    0.47    0.15
  12   8  -8    1.28    0.33
 -12   8   8    1.67    0.45
 -10  -8   8    2.31    0.50
  10  -8  -8    2.04    0.47
  10   8  -8    2.95    0.66
 -10   8   8    3.15    0.66
  -8  -8   8    5.78    0.82
   8  -8  -8    4.50    0.69
   8   8  -8    5.30    0.69
  -8   8   8    4.64    0.84
   8   8  -8    4.22    0.77
   6  -8  -8    0.81    0.18
  -6  -8   8    0.37    0.17
  -6   8   8    0.76    0.34
   6   8  -8    0.55    0.16
  -4  -8   8    1.97    0.48
   4  -8  -8    1.89    0.38
   4   8  -8    2.28    0.40
   4   8  -8    1.31    0.31
  -4   8   8    1.79    0.42
   2  -8  -8    6.20    0.73
  -2  -8   8    5.01    0.75
  -2   8   8    5.75    0.94
   2   8  -8    5.17    0.77
   2   8  -8    6.73    0.92
   0  -8  -8    3.77    0.54
   0  -8   8    3.44    0.64
   0   8  -8    4.25    0.72
   0   8   8    4.67    0.83
   0   8  -8    3.39    0.55
  -2  -8  -8    2.70    0.51
   2  -8   8    3.19    0.61
  -2  -8  -8    3.28    0.49
  -2   8  -8    3.69    0.63
  -2   8  -8    3.82    0.64
   2   8   8    1.96    0.54
   4  -8   8    0.57    0.17
  -4   8  -8    0.44    0.08
   4   8   8    0.77    0.21
   6  -8   8    0.15    0.12
  -6   8  -8   -0.03    0.08
   6   8   8    0.50    0.18
   8  -8   8   13.86    1.15
  -8  -8  -8   13.72    1.19
  -8   8  -8   14.63    1.30
   8   8   8   13.71    1.47
 -10  -8  -8    1.48    0.23
  10  -8   8    1.92    0.34
 -10   8  -8    1.93    0.29
  10   8   8    2.44    0.55
 -30   0   9    0.08    0.11
 -26   0   9    0.27    0.10
 -24   0   9    0.51    0.15
  24   0  -9    0.64    0.16
  22   0  -9    0.53    0.22
 -22   0   9    0.34    0.15
 -22   0   9    0.46    0.07
 -20   0   9    0.88    0.30
 -20   0   9    0.38    0.06
  20   0  -9    0.06    0.14
  18   0  -9    0.13    0.19
 -18   0   9    0.34    0.06
 -18   0   9    0.37    0.16
  18   0  -9    0.10    0.08
 -16   0   9    0.63    0.27
  16   0  -9    0.22    0.12
  16   0  -9    0.02    0.18
  14   0  -9    0.58    0.10
 -14   0   9    0.40    0.21
 -12   0   9    0.52    0.26
  12   0  -9    0.28    0.08
 -12   0   9    0.20    0.12
  10   0  -9    0.32    0.09
 -10   0   9    0.06    0.11
 -10   0   9    0.19    0.11
   8   0  -9    0.22    0.11
  -8   0   9    0.45    0.23
  -8   0   9    0.19    0.11
  -8   0   9    0.38    0.03
  -6   0   9    0.24    0.19
   6   0  -9    0.22    0.11
  -6   0   9    0.09    0.09
  -4   0   9    0.25    0.12
  -4   0   9    0.03    0.11
   4   0  -9    0.00    0.07
  -2   0   9    0.33    0.14
   2   0  -9    0.01    0.10
  -2   0   9    0.36    0.12
   0   0   9    0.21    0.08
   0   0  -9    0.55    0.19
   0   0   9    0.39    0.04
   0   0   9    0.24    0.16
  -2   0  -9    0.03    0.08
  -2   0  -9    0.40    0.06
   2   0   9    0.17    0.06
   2   0   9    0.29    0.16
   4   0   9    0.30    0.19
  -4   0  -9    0.29    0.13
   6   0   9    0.08    0.17
  -6   0  -9    0.29    0.15
  -6   0  -9    0.20    0.05
  -8   0  -9    0.36    0.07
   8   0   9    0.18    0.16
  -8   0  -9    0.06    0.12
 -10   0  -9    0.29    0.09
 -10   0  -9    0.24    0.13
  10   0   9    0.01    0.12
 -12   0  -9    0.29    0.13
  12   0   9    0.08    0.18
 -12   0  -9    0.30    0.09
 -14   0  -9    0.28    0.16
 -14   0  -9    0.24    0.15
  14   0   9    0.09    0.20
  16   0   9    0.17    0.15
 -16   0  -9    0.36    0.13
 -16   0  -9    0.32    0.16
 -18   0  -9    0.17    0.11
  18   0   9    0.63    0.33
 -18   0  -9    0.38    0.14
  20   0   9    0.56    0.24
 -20   0  -9    0.50    0.16
 -20   0  -9    0.31    0.14
 -22   0  -9    0.45    0.18
  22   0   9    0.28    0.23
 -24   0  -9    0.48    0.13
  24   0   9    0.44    0.16
 -26   0  -9    0.24    0.08
  26   0   9    0.06    0.13
 -29  -1   9    0.90    0.19
  29  -1  -9    0.62    0.09
 -29   1   9    0.36    0.18
  27  -1  -9   17.98    1.23
 -27  -1   9   19.95    1.66
  27   1  -9   16.43    1.11
 -27   1   9   18.27    1.74
 -25  -1   9    2.30    0.54
  25  -1  -9    2.73    0.49
 -25   1   9    2.53    0.68
  25   1  -9    2.16    0.43
 -23  -1   9    3.75    0.70
  23  -1  -9    3.44    0.55
  23   1  -9    4.18    0.61
 -23   1   9    3.73    0.81
 -23   1   9    3.45    0.44
 -21  -1   9    2.83    0.63
  21  -1  -9    3.24    0.53
 -21   1   9    3.20    0.39
  21   1  -9    2.93    0.55
  21   1  -9    3.28    0.27
  21   1  -9    2.52    0.24
 -21   1   9    2.62    0.69
 -19  -1   9   19.03    1.43
  19  -1  -9   18.30    1.14
 -19  -1   9   20.53    0.95
 -19  -1   9   18.25    1.12
  19   1  -9   19.04    1.00
 -19   1   9   17.46    1.52
 -19   1   9   20.41    0.97
  17  -1  -9    5.67    0.65
 -17  -1   9    5.29    0.78
 -17  -1   9    5.24    0.40
 -17  -1   9    5.58    0.63
 -17   1   9    4.32    0.82
 -17   1   9    5.14    0.41
  17   1  -9    5.25    0.46
 -15  -1   9   30.73    1.38
 -15  -1   9   32.49    1.08
  15  -1  -9   31.79    1.07
  15  -1  -9   29.47    1.37
 -15  -1   9   31.54    1.80
 -15   1   9   30.25    1.93
 -15   1   9   31.59    1.11
  15   1  -9   30.38    1.29
 -13  -1   9    6.41    0.37
 -13  -1   9    5.37    0.58
  13  -1  -9    6.14    0.41
  13  -1  -9    5.92    0.60
 -13  -1   9    7.03    0.85
  13   1  -9    5.68    0.49
 -13   1   9    7.50    0.98
 -13   1   9    6.17    0.39
 -11  -1   9    7.76    0.61
 -11  -1   9    7.35    0.36
  11  -1  -9    7.11    0.51
 -11  -1   9    7.73    0.88
  11  -1  -9    7.54    0.62
  11  -1  -9    8.26    0.49
  11   1  -9    8.05    0.60
 -11   1   9    7.57    0.41
 -11   1   9    8.26    0.99
  -9  -1   9    2.14    0.34
   9  -1  -9    2.19    0.26
   9  -1  -9    2.56    0.34
  -9  -1   9    2.32    0.49
   9  -1  -9    2.19    0.35
   9   1  -9    2.89    0.15
  -9   1   9    2.51    0.19
  -9   1   9    2.33    0.55
   9   1  -9    2.30    0.34
   7  -1  -9   19.55    0.86
   7  -1  -9   18.61    0.82
   7  -1  -9   18.53    0.89
  -7  -1   9   18.40    0.90
  -7  -1   9   19.21    1.30
  -7   1   9   18.98    0.62
  -7   1   9   18.88    1.37
   7   1  -9   18.20    0.93
   5  -1  -9    0.42    0.17
  -5  -1   9    0.20    0.16
   5  -1  -9    0.35    0.14
  -5  -1   9    0.39    0.19
   5  -1  -9    0.24    0.16
  -5   1   9    0.61    0.30
   5   1  -9    0.33    0.18
  -5   1   9    0.70    0.07
   3  -1  -9   50.19    1.44
   3  -1  -9   50.38    1.52
   3  -1  -9   53.25    1.55
  -3  -1   9   50.83    1.49
  -3  -1   9   48.81    2.01
   3   1  -9   52.06    1.66
  -3   1   9   48.76    1.28
  -3   1   9   45.73    2.09
   1  -1  -9   15.25    0.76
  -1  -1   9   16.06    1.04
   1  -1  -9   16.63    0.71
   1  -1  -9   17.36    0.83
  -1  -1   9   16.07    0.74
  -1   1   9   15.44    0.69
  -1   1   9   15.12    1.07
   1   1  -9   16.24    0.87
   1   1  -9   16.88    0.45
  -1  -1  -9   21.53    0.96
   1  -1   9   20.12    1.18
   1  -1   9   21.60    0.83
  -1  -1  -9   21.24    0.76
  -1  -1  -9   20.77    0.90
   1   1   9   20.98    1.24
  -1   1  -9   21.60    1.02
  -1   1  -9   21.99    0.65
   1   1   9   21.50    0.84
   3  -1   9    2.20    0.44
  -3  -1  -9    2.12    0.29
  -3  -1  -9    2.32    0.20
  -3  -1  -9    2.54    0.37
   3  -1   9    2.34    0.22
   3   1   9    2.83    0.50
   3   1   9    2.59    0.27
  -3   1  -9    2.44    0.37
  -3   1  -9    2.56    0.21
   5  -1   9    7.83    0.72
   5  -1   9    7.02    0.40
  -5  -1  -9    6.65    0.47
  -5  -1  -9    6.98    0.33
  -5  -1  -9    6.49    0.47
  -5  -1  -9    7.08    0.57
  -5   1  -9    7.42    0.58
   5   1   9    5.85    0.69
  -5   1  -9    7.98    0.45
   7  -1   9    7.24    0.71
   7  -1   9    8.25    0.42
  -7  -1  -9    7.62    0.54
  -7  -1  -9    7.48    0.50
  -7  -1  -9    7.64    0.62
  -7  -1  -9    7.61    0.29
   7   1   9    9.46    0.82
  -7   1  -9    8.30    0.51
  -7   1  -9    7.45    0.61
  -9  -1  -9    1.61    0.34
  -9  -1  -9    2.31    0.34
   9  -1   9    1.63    0.40
   9  -1   9    2.18    0.16
  -9   1  -9    1.74    0.33
  -9   1  -9    2.55    0.31
   9   1   9    2.32    0.47
  11  -1   9    2.96    0.53
 -11  -1  -9    3.29    0.43
 -11  -1  -9    2.92    0.46
 -11   1  -9    3.24    0.44
 -11   1  -9    3.01    0.38
  11   1   9    3.11    0.54
 -13  -1  -9    0.75    0.21
  13  -1   9    0.51    0.26
 -13  -1  -9    0.15    0.15
  13   1   9    0.63    0.30
 -13   1  -9    0.55    0.19
 -13   1  -9    0.63    0.18
 -15  -1  -9    6.99    0.66
 -15  -1  -9    7.14    0.69
  15  -1   9    7.88    0.90
 -15   1  -9    7.54    0.63
  15   1   9    7.74    0.88
 -15   1  -9    7.22    0.65
 -17  -1  -9    3.76    0.55
 -17  -1  -9    4.34    0.59
  17  -1   9    2.94    0.62
 -17   1  -9    4.32    0.56
  17   1   9    2.94    0.59
 -17   1  -9    4.32    0.52
 -19  -1  -9    2.87    0.48
  19  -1   9    3.21    0.65
 -19  -1  -9    3.02    0.51
 -19   1  -9    2.74    0.42
  19   1   9    2.63    0.56
 -19   1  -9    2.51    0.47
  21  -1   9    3.37    0.70
 -21  -1  -9    3.13    0.53
 -21  -1  -9    3.93    0.57
 -21   1  -9    3.41    0.57
  21   1   9    4.17    0.73
 -21   1  -9    3.86    0.49
  23  -1   9    1.92    0.54
 -23  -1  -9    1.64    0.38
 -23  -1  -9    1.92    0.39
  23   1   9    0.98    0.28
 -23   1  -9    1.63    0.37
  25  -1   9    0.23    0.15
 -25  -1  -9    0.40    0.15
 -25   1  -9    0.25    0.07
  25   1   9    0.32    0.10
  27  -1   9    2.92    0.64
 -27  -1  -9    2.86    0.56
 -27   1  -9    2.78    0.54
  27   1   9    5.03    0.79
 -30  -2   9    7.37    1.02
  30  -2  -9    7.11    0.66
 -30   2   9    7.37    1.23
  28  -2  -9    1.09    0.10
 -28  -2   9    0.85    0.18
 -28   2   9    1.03    0.29
  28   2  -9    1.38    0.13
 -26  -2   9    9.98    1.03
  26  -2  -9    9.76    0.89
 -26   2   9    9.80    0.81
  26   2  -9   10.54    0.88
 -26   2   9   11.04    1.46
 -24  -2   9    3.95    0.66
 -24  -2   9    3.93    0.57
  24  -2  -9    3.67    0.58
 -24   2   9    3.01    0.44
 -24   2   9    3.53    0.81
 -22  -2   9    8.37    0.95
 -22  -2   9    7.48    0.73
  22  -2  -9    8.44    0.86
 -22   2   9    6.33    1.05
  22   2  -9    7.23    0.63
 -22   2   9    6.85    0.60
 -20  -2   9    9.51    0.80
 -20  -2   9    9.68    0.93
  20  -2  -9    8.56    0.80
  20   2  -9    8.20    0.72
 -20   2   9    9.52    0.70
 -20   2   9    8.11    1.16
  18  -2  -9    8.39    0.77
 -18  -2   9    9.63    0.79
 -18  -2   9    9.06    0.87
  18   2  -9    8.18    0.71
 -18   2   9    9.00    1.18
 -18   2   9    8.95    0.64
 -16  -2   9    0.30    0.12
 -16  -2   9    0.27    0.18
  16  -2  -9    0.37    0.25
  16   2  -9    0.41    0.16
 -16   2   9    0.29    0.07
 -16   2   9    0.36    0.25
 -14  -2   9    3.27    0.48
  14  -2  -9    3.94    0.53
 -14  -2   9    4.48    0.62
 -14   2   9    3.81    0.35
  14   2  -9    3.84    0.50
  14   2  -9    4.43    0.30
 -14   2   9    3.23    0.69
  12  -2  -9   29.25    0.95
  12  -2  -9   27.72    1.27
 -12  -2   9   27.90    1.54
 -12  -2   9   29.03    1.30
 -12   2   9   26.29    1.76
 -12   2   9   28.50    1.07
  12   2  -9   29.62    1.35
  12   2  -9   29.04    1.01
  10  -2  -9   16.51    0.70
  10  -2  -9   16.61    0.92
 -10  -2   9   16.61    0.93
 -10  -2   9   17.45    1.15
 -10   2   9   16.58    0.75
  10   2  -9   17.11    0.99
 -10   2   9   16.36    1.33
  10   2  -9   17.77    0.72
  -8  -2   9    0.99    0.26
   8  -2  -9    0.88    0.24
   8  -2  -9    1.00    0.16
  -8  -2   9    0.79    0.23
  -8   2   9    1.34    0.19
   8   2  -9    0.83    0.25
  -8   2   9    1.30    0.42
  -6  -2   9    2.91    0.49
   6  -2  -9    2.00    0.25
   6  -2  -9    2.52    0.35
  -6  -2   9    2.44    0.35
  -6   2   9    2.54    0.25
  -6   2   9    1.86    0.49
   6   2  -9    3.01    0.17
   6   2  -9    2.40    0.39
  -4  -2   9   31.14    1.52
  -4  -2   9   29.48    1.17
   4  -2  -9   31.53    1.13
   4  -2  -9   31.32    1.13
   4   2  -9   30.47    0.77
  -4   2   9   31.27    1.14
  -4   2   9   27.54    1.67
   4   2  -9   29.48    1.29
  -2  -2   9   55.84    2.11
  -2  -2   9   59.93    1.74
   2  -2  -9   61.55    1.76
   2  -2  -9   59.93    1.62
   2   2  -9   58.08    1.92
   2   2  -9   61.88    1.32
  -2   2   9   60.06    1.82
  -2   2   9   58.66    2.40
   0  -2  -9   22.20    0.84
   0  -2   9   21.98    0.95
   0  -2  -9   24.80    1.05
   0  -2   9   22.42    1.22
   0   2  -9   22.69    0.71
   0   2  -9   24.40    1.12
   0   2   9   19.76    1.27
   0   2   9   22.43    1.06
  -2  -2  -9    5.45    0.49
   2  -2   9    6.05    0.46
  -2  -2  -9    5.69    0.36
   2  -2   9    6.05    0.61
   2   2   9    6.34    0.51
  -2   2  -9    6.07    0.36
  -2   2  -9    5.92    0.55
   2   2   9    6.59    0.67
  -4  -2  -9   62.24    1.46
  -4  -2  -9   60.89    1.92
   4  -2   9   60.29    1.67
   4  -2   9   55.81    2.11
   4   2   9   59.87    1.90
   4   2   9   61.57    2.31
  -4   2  -9   64.01    1.62
  -4   2  -9   61.63    1.97
   6  -2   9   16.68    0.75
  -6  -2  -9   17.41    0.58
  -6  -2  -9   17.35    0.97
   6  -2   9   17.37    1.09
   6   2   9   16.98    0.93
  -6   2  -9   17.09    0.95
  -6   2  -9   16.05    0.76
   6   2   9   17.29    1.15
  -8  -2  -9   12.27    0.84
   8  -2   9   11.52    0.92
   8  -2   9   12.78    0.63
   8   2   9   12.08    0.81
   8   2   9   13.87    1.03
  -8   2  -9   11.96    0.69
  -8   2  -9   12.82    0.81
  10  -2   9    0.41    0.17
 -10  -2  -9    0.73    0.20
 -10  -2  -9    0.14    0.14
 -10   2  -9    0.54    0.21
 -10   2  -9    0.48    0.13
  10   2   9    0.30    0.18
 -12  -2  -9    5.93    0.68
 -12  -2  -9    6.26    0.63
  12  -2   9    7.71    0.44
  12  -2   9    6.97    0.82
 -12   2  -9    7.03    0.59
  12   2   9    6.03    0.75
 -12   2  -9    6.54    0.55
  14  -2   9    0.24    0.18
 -14  -2  -9    0.47    0.23
 -14  -2  -9    0.58    0.23
 -14   2  -9    0.55    0.16
 -14   2  -9    0.32    0.15
  14   2   9    0.37    0.26
 -16  -2  -9   18.75    1.20
 -16  -2  -9   22.11    1.31
  16  -2   9   17.96    1.35
  16   2   9   20.45    1.37
 -16   2  -9   18.90    1.15
 -16   2  -9   20.19    1.08
 -18  -2  -9    2.49    0.49
  18  -2   9    2.59    0.60
 -18  -2  -9    2.29    0.48
 -18   2  -9    2.74    0.37
  18   2   9    2.49    0.53
 -18   2  -9    2.32    0.46
 -20  -2  -9    8.27    0.88
  20  -2   9    8.72    1.07
 -20  -2  -9    8.77    0.84
  20   2   9    7.64    0.89
 -20   2  -9    8.64    0.82
 -22  -2  -9    3.07    0.55
  22  -2   9    3.04    0.67
 -22  -2  -9    3.39    0.55
 -22   2  -9    2.65    0.52
  22   2   9    3.60    0.61
 -24  -2  -9   14.76    1.16
 -24  -2  -9   14.76    1.20
  24  -2   9   15.81    1.45
  24   2   9   13.20    1.16
 -24   2  -9   15.18    1.20
  26  -2   9    0.35    0.19
 -26   2  -9    0.25    0.12
  29  -3  -9    8.24    0.73
 -29   3   9    8.85    1.34
 -27  -3   9    4.52    0.60
  27  -3  -9    4.67    0.62
 -27   3   9    3.61    0.52
 -27   3   9    2.89    0.66
  25  -3  -9    9.10    0.96
 -25  -3   9    9.64    0.83
 -25   3   9   10.00    1.38
 -25   3   9    9.80    0.81
  25   3  -9    8.89    0.78
 -23  -3   9   12.23    1.04
  23  -3  -9   12.63    1.04
 -23  -3   9   12.71    0.99
  23   3  -9   12.23    0.99
 -23   3   9   11.89    1.47
 -23   3   9   12.55    0.90
 -21  -3   9   32.41    1.74
  21  -3  -9   29.34    1.60
 -21  -3   9   30.05    1.55
 -21   3   9   27.88    2.10
 -21   3   9   32.85    1.53
  21   3  -9   29.70    1.64
  19  -3  -9    1.54    0.41
 -19  -3   9    1.92    0.38
 -19  -3   9    2.35    0.44
  19   3  -9    1.98    0.43
 -19   3   9    2.06    0.35
 -19   3   9    1.67    0.58
 -17  -3   9   35.15    1.62
 -17  -3   9   37.62    1.76
  17  -3  -9   34.19    1.63
 -17   3   9   30.95    2.09
  17   3  -9   35.04    1.74
 -17   3   9   36.53    1.50
  15  -3  -9    6.02    0.69
 -15  -3   9    5.47    0.63
 -15  -3   9    5.97    0.59
 -15   3   9    6.43    0.54
 -15   3   9    5.80    0.94
  15   3  -9    5.98    0.74
  13  -3  -9   43.25    1.74
 -13  -3   9   43.39    1.73
 -13  -3   9   47.18    1.91
 -13   3   9   44.75    1.60
  13   3  -9   45.54    1.58
 -13   3   9   41.67    2.32
  13   3  -9   43.75    1.90
 -11  -3   9    2.44    0.39
  11  -3  -9    1.95    0.39
 -11  -3   9    2.08    0.40
  11   3  -9    2.69    0.50
 -11   3   9    2.55    0.35
  11   3  -9    3.49    0.27
 -11   3   9    2.13    0.53
  -9  -3   9    2.21    0.38
   9  -3  -9    3.46    0.27
  -9  -3   9    3.16    0.45
   9  -3  -9    2.74    0.44
  -9   3   9    3.77    0.42
   9   3  -9    3.51    0.29
  -9   3   9    3.09    0.61
   9   3  -9    3.37    0.52
  -7  -3   9    1.09    0.24
   7  -3  -9    1.39    0.20
  -7  -3   9    1.07    0.28
   7  -3  -9    0.84    0.24
  -7   3   9    1.99    0.49
  -7   3   9    1.20    0.24
   7   3  -9    0.82    0.26
   7   3  -9    1.64    0.14
  -5  -3   9   23.63    1.14
   5  -3  -9   24.63    1.09
   5  -3  -9   26.20    1.03
  -5  -3   9   25.52    1.33
   5   3  -9   25.93    1.31
  -5   3   9   25.02    1.18
  -5   3   9   25.12    1.58
   5   3  -9   27.37    0.99
  -3  -3   9   21.85    1.19
   3  -3  -9   22.35    0.99
  -3  -3   9   22.18    1.07
   3  -3  -9   22.35    0.99
   3   3  -9   20.86    1.15
  -3   3   9   23.42    1.50
   3   3  -9   20.77    0.82
  -3   3   9   23.23    1.17
  -1  -3   9   11.00    0.74
   1  -3  -9   12.22    0.67
  -1  -3   9   10.99    0.79
   1  -3  -9   11.20    0.71
  -1   3   9   10.88    0.81
   1   3  -9   11.76    0.58
  -1   3   9   11.26    0.97
   1   3  -9   11.04    0.81
   1  -3   9    0.21    0.08
   1  -3   9    0.16    0.11
  -1  -3  -9    0.05    0.11
  -1  -3  -9    0.44    0.11
   1   3   9    0.60    0.18
  -1   3  -9    0.38    0.19
   1   3   9    0.32    0.17
  -1   3  -9    0.35    0.06
   3  -3   9  141.97    3.29
  -3  -3  -9  149.01    3.52
  -3  -3  -9  144.53    2.97
   3  -3   9  140.13    3.73
   3   3   9  137.21    3.69
  -3   3  -9  147.24    3.14
   3   3   9  140.86    3.98
  -3   3  -9  140.00    3.54
  -5  -3  -9    0.58    0.24
  -5  -3  -9    0.75    0.07
   5  -3   9    0.71    0.23
   5  -3   9    0.36    0.11
   5   3   9    0.65    0.23
  -5   3  -9    0.75    0.23
  -5   3  -9    0.86    0.17
   5   3   9    0.73    0.23
   7  -3   9    8.59    0.60
  -7  -3  -9    8.44    0.73
   7  -3   9    7.31    0.70
  -7   3  -9    8.34    0.69
  -7   3  -9    8.22    0.59
   7   3   9    8.08    0.73
   7   3   9    8.29    0.76
   9  -3   9    2.72    0.34
  -9  -3  -9    2.12    0.44
   9  -3   9    2.14    0.43
   9   3   9    2.25    0.44
   9   3   9    2.50    0.46
  -9   3  -9    2.86    0.38
  -9   3  -9    2.37    0.39
 -11  -3  -9   60.36    2.25
  11  -3   9   63.37    1.88
  11  -3   9   58.67    2.39
 -11   3  -9   60.39    2.03
  11   3   9   64.59    2.47
 -11   3  -9   62.44    2.07
  11   3   9   59.55    2.28
  13  -3   9   11.14    1.00
  13  -3   9   11.07    0.65
 -13  -3  -9    9.85    0.88
  13   3   9    9.95    0.89
  13   3   9    9.39    0.86
 -13   3  -9   10.37    0.79
 -13   3  -9   10.78    0.75
  15  -3   9    3.18    0.61
 -15  -3  -9    4.87    0.67
  15   3   9    4.46    0.66
 -15   3  -9    4.34    0.43
  15   3   9    4.29    0.63
 -15   3  -9    4.46    0.57
  17  -3   9    8.23    0.99
 -17  -3  -9    8.12    0.90
  17   3   9    8.70    0.85
 -17   3  -9    9.63    0.83
 -19  -3  -9   55.83    2.44
  19  -3   9   54.03    2.65
 -19  -3  -9   55.36    2.42
  19   3   9   53.10    2.41
 -19   3  -9   60.77    2.40
 -21  -3  -9    4.02    0.66
  21  -3   9    3.18    0.68
 -21  -3  -9    2.87    0.57
  21   3   9    2.50    0.45
 -21   3  -9    2.78    0.54
  23  -3   9   11.90    1.22
 -23  -3  -9   12.43    1.14
 -23  -3  -9   12.48    1.10
  23   3   9   12.70    1.07
 -23   3  -9   13.66    1.14
 -25  -3  -9    9.44    1.06
 -25  -3  -9   10.23    0.94
  25  -3   9    9.36    1.20
  25   3   9    9.25    0.82
 -25   3  -9   10.17    0.98
  26  -4  -9   16.67    1.28
 -26  -4   9   16.31    1.17
 -26   4   9   17.03    1.71
  26   4  -9   16.09    1.17
 -26   4   9   17.47    1.22
 -24  -4   9    1.68    0.32
  24  -4  -9    1.44    0.35
 -24   4   9    2.14    0.40
  24   4  -9    2.47    0.45
 -24   4   9    2.23    0.55
  22  -4  -9   26.83    1.62
 -22  -4   9   25.54    1.50
 -22   4   9   26.41    1.46
  22   4  -9   29.17    1.73
 -22   4   9   23.03    1.91
  20  -4  -9    2.71    0.53
 -20  -4   9    2.94    0.51
 -20   4   9    2.93    0.47
 -20   4   9    2.53    0.66
  20   4  -9    3.02    0.55
 -18  -4   9   24.12    1.39
  18  -4  -9   23.82    1.43
 -18   4   9   24.53    1.86
 -18   4   9   24.19    1.33
  18   4  -9   25.19    1.58
  16  -4  -9   30.99    1.60
 -16  -4   9   31.18    1.56
 -16   4   9   30.20    2.00
  16   4  -9   32.08    1.78
 -16   4   9   29.04    1.45
 -14  -4   9   33.22    1.58
  14  -4  -9   32.27    1.57
  14   4  -9   29.06    1.67
 -14   4   9   28.99    1.91
 -14   4   9   30.58    1.45
  12  -4  -9    7.81    0.73
 -12  -4   9    8.81    0.77
  12   4  -9   10.94    0.71
 -12   4   9    9.54    1.08
  12   4  -9    9.02    0.88
 -12   4   9    9.22    0.73
  10  -4  -9   35.71    1.58
 -10  -4   9   37.61    1.64
  10   4  -9   36.46    1.81
 -10   4   9   36.23    1.58
 -10   4   9   35.04    2.01
  10   4  -9   37.34    1.54
   8  -4  -9   11.84    0.63
  -8  -4   9   12.30    0.77
  -8  -4   9   11.38    0.86
   8  -4  -9   11.41    0.84
   8   4  -9   10.73    0.93
  -8   4   9   13.49    1.10
   8   4  -9   13.45    0.81
  -8   4   9   11.68    0.87
   6  -4  -9   11.27    0.79
   6  -4  -9   12.50    0.68
  -6  -4   9   10.41    0.81
  -6  -4   9   10.59    0.73
  -6   4   9   11.79    0.89
  -6   4   9   12.53    1.05
   6   4  -9   10.04    0.89
   6   4  -9   11.86    0.75
  -4  -4   9   39.03    1.59
  -4  -4   9   39.04    1.65
   4  -4  -9   41.82    1.47
   4  -4  -9   40.35    1.53
   4   4  -9   39.08    1.81
   4   4  -9   41.72    1.53
  -4   4   9   38.52    1.76
  -4   4   9   43.43    2.05
  -2  -4   9   68.82    2.26
   2  -4  -9   70.49    2.13
  -2  -4   9   70.75    2.28
   2  -4  -9   74.63    2.13
  -2   4   9   69.70    2.73
  -2   4   9   68.68    2.51
   2   4  -9   71.50    2.10
   2   4  -9   68.14    2.46
   0  -4   9   90.62    2.67
   0  -4   9   89.24    2.63
   0  -4  -9   92.44    2.59
   0  -4  -9   89.42    2.38
   0   4   9   84.90    2.92
   0   4  -9   88.56    2.82
   0   4  -9   91.82    2.47
   0   4   9   92.18    3.17
  -2  -4  -9   39.12    1.37
   2  -4   9   40.39    1.62
  -2  -4  -9   40.03    1.62
   2  -4   9   38.22    1.62
   2   4   9   40.00    1.87
  -2   4  -9   41.12    1.76
   2   4   9   38.98    1.85
  -2   4  -9   38.69    1.45
  -4  -4  -9   73.30    1.98
  -4  -4  -9   75.39    2.46
   4  -4   9   76.88    2.51
   4  -4   9   78.70    2.38
   4   4   9   77.68    2.75
  -4   4  -9   75.51    2.50
   4   4   9   76.65    2.77
  -4   4  -9   78.69    2.27
   6  -4   9   29.71    1.46
  -6  -4  -9   28.26    1.45
  -6  -4  -9   28.54    1.03
   6  -4   9   29.89    1.35
  -6   4  -9   29.47    1.30
  -6   4  -9   28.06    1.40
   6   4   9   28.89    1.52
   6   4   9   26.69    1.55
  -8  -4  -9   37.77    1.74
   8  -4   9   38.76    1.56
   8  -4   9   35.48    1.69
   8   4   9   36.81    1.86
   8   4   9   40.60    1.85
  -8   4  -9   37.85    1.57
  -8   4  -9   38.40    1.63
  10  -4   9    0.73    0.23
  10  -4   9    1.02    0.22
 -10  -4  -9    0.33    0.23
 -10   4  -9    0.33    0.16
  10   4   9    1.13    0.22
  10   4   9    0.69    0.32
 -10   4  -9    0.71    0.18
  12  -4   9   34.03    1.76
  12  -4   9   31.33    1.40
 -12  -4  -9   30.64    1.67
  12   4   9   31.15    1.75
 -12   4  -9   31.96    1.44
  12   4   9   32.30    1.68
 -12   4  -9   30.85    1.52
  14  -4   9    1.99    0.16
  14  -4   9    1.32    0.35
 -14  -4  -9    1.21    0.38
 -14   4  -9    1.34    0.33
  14   4   9    1.37    0.44
 -14   4  -9    2.29    0.23
  14   4   9    1.63    0.36
  16  -4   9   40.68    2.14
 -16  -4  -9   43.53    2.14
  16   4   9   41.24    1.98
 -16   4  -9   39.07    1.87
  16   4   9   38.54    2.08
 -18  -4  -9    1.63    0.45
  18  -4   9    1.67    0.42
  18   4   9    1.57    0.24
  18   4   9    1.28    0.44
 -18   4  -9    2.04    0.40
 -20  -4  -9   24.92    1.69
  20  -4   9   25.37    1.77
 -20   4  -9   26.04    1.58
  20   4   9   24.26    1.67
  20   4   9   23.25    1.46
 -22  -4  -9    0.55    0.15
  22  -4   9    0.68    0.19
 -22   4  -9    0.69    0.16
  22   4   9    0.08    0.13
  24  -4   9   28.66    2.05
 -24  -4  -9   30.95    1.97
  24   4   9   27.68    1.90
 -24   4  -9   30.87    1.86
  25  -5  -9   19.94    1.44
 -25  -5   9   18.78    1.32
  25   5  -9   18.42    1.41
 -25   5   9   22.24    1.90
 -25   5   9   20.72    1.39
  23  -5  -9    2.55    0.54
 -23  -5   9    2.21    0.44
  23   5  -9    2.32    0.21
 -23   5   9    1.93    0.40
 -23   5   9    2.75    0.67
 -21  -5   9   38.07    1.91
  21  -5  -9   38.16    2.02
 -21   5   9   35.65    2.35
  21   5  -9   38.21    2.16
 -21   5   9   35.67    1.85
 -19  -5   9    1.86    0.41
  19  -5  -9    1.71    0.44
 -19   5   9    1.44    0.40
  19   5  -9    2.07    0.53
 -19   5   9    1.43    0.31
 -17  -5   9   82.35    2.88
  17  -5  -9   78.54    2.88
  17   5  -9   77.38    3.15
 -17   5   9   78.69    2.80
 -17   5   9   84.59    3.51
  15  -5  -9    0.30    0.18
 -15  -5   9    0.35    0.19
 -15   5   9    1.01    0.26
 -15   5   9    0.51    0.14
  15   5  -9    0.34    0.22
 -13  -5   9   43.75    1.96
  13  -5  -9   42.56    1.93
 -13   5   9   45.78    2.32
  13   5  -9   41.28    2.16
 -13   5   9   41.89    1.92
  11  -5  -9    2.60    0.50
 -11  -5   9    2.25    0.47
  11   5  -9    1.94    0.52
 -11   5   9    1.77    0.42
 -11   5   9    1.74    0.41
   9  -5  -9   52.37    2.04
  -9  -5   9   50.93    2.09
   9   5  -9   53.82    2.07
  -9   5   9   50.84    2.36
  -9   5   9   48.24    2.13
   9   5  -9   50.50    2.33
   7  -5  -9    0.75    0.27
  -7  -5   9    0.70    0.29
  -7   5   9    0.92    0.14
   7   5  -9    1.10    0.36
  -7   5   9    0.77    0.30
  -5  -5   9    4.60    0.64
   5  -5  -9    4.85    0.43
   5  -5  -9    4.18    0.55
  -5   5   9    4.93    0.64
   5   5  -9    4.18    0.66
  -5   5   9    4.67    0.67
   5   5  -9    5.21    0.45
  -3  -5   9    0.32    0.18
   3  -5  -9    0.82    0.14
   3  -5  -9    0.41    0.16
   3   5  -9    0.99    0.16
  -3   5   9    0.57    0.09
  -3   5   9    0.37    0.16
   3   5  -9    0.37    0.21
   1  -5  -9   91.10    2.70
  -1  -5   9   88.82    2.83
   1  -5  -9   86.50    2.56
   1   5  -9   91.52    2.79
   1   5  -9   90.07    3.10
  -1   5   9   91.47    3.23
  -1   5   9   92.06    3.13
  -1  -5  -9    0.94    0.23
  -1  -5  -9    0.74    0.18
   1  -5   9    0.41    0.22
   1   5   9    0.56    0.26
  -1   5  -9    0.55    0.24
  -1   5  -9    1.06    0.20
   1   5   9    1.32    0.26
  -3  -5  -9   38.89    1.75
   3  -5   9   36.96    1.70
  -3  -5  -9   39.73    1.49
   3   5   9   43.71    1.94
  -3   5  -9   40.25    1.69
   3   5   9   39.80    2.03
  -3   5  -9   39.30    1.85
   5  -5   9   15.61    0.96
  -5  -5  -9   15.56    1.09
   5  -5   9   14.56    1.02
  -5  -5  -9   14.63    0.80
   5   5   9   14.75    1.22
   5   5   9   14.72    1.02
  -5   5  -9   15.87    1.01
  -5   5  -9   14.89    1.07
   7  -5   9  117.12    3.35
   7  -5   9  121.41    3.47
  -7  -5  -9  119.11    3.61
  -7   5  -9  116.71    3.48
   7   5   9  117.58    3.96
   7   5   9  125.07    3.70
  -7   5  -9  119.53    3.44
  -9  -5  -9    1.38    0.41
   9  -5   9    2.36    0.41
   9  -5   9    1.44    0.34
  -9   5  -9    2.20    0.41
  -9   5  -9    1.98    0.39
   9   5   9    1.55    0.47
 -11  -5  -9   16.67    1.26
  11  -5   9   18.56    1.22
  11  -5   9   17.23    1.11
 -11   5  -9   16.32    1.04
  11   5   9   17.71    1.40
 -11   5  -9   17.39    1.16
  13  -5   9    9.88    0.78
  13  -5   9   10.96    0.96
 -13  -5  -9    9.90    0.99
 -13   5  -9   11.09    0.92
  13   5   9   11.08    1.11
  15  -5   9   64.57    2.35
  15  -5   9   62.41    2.68
 -15  -5  -9   66.22    2.84
 -15   5  -9   62.62    2.56
  15   5   9   65.53    2.94
 -17  -5  -9    5.96    0.86
  17  -5   9    7.67    0.80
 -17   5  -9    5.90    0.74
  17   5   9    4.61    0.79
  19  -5   9   18.92    1.46
 -19  -5  -9   19.82    1.54
  19   5   9   17.64    1.47
 -19   5  -9   19.15    1.37
 -21  -5  -9   12.25    1.20
  21  -5   9   11.61    1.12
  21   5   9   11.40    1.29
 -21   5  -9   10.95    1.00
  22  -6  -9   36.21    2.08
 -22  -6   9   38.98    2.04
 -22   6   9   39.40    2.11
 -22   6   9   34.46    2.29
  22   6  -9   38.26    2.28
  20  -6  -9    5.18    0.78
 -20  -6   9    6.08    0.74
  20   6  -9    5.77    0.87
 -20   6   9    3.94    0.74
 -20   6   9    6.89    0.82
 -18  -6   9   20.28    1.40
  18  -6  -9   21.06    1.48
  18   6  -9   21.98    1.65
 -18   6   9   22.68    1.48
 -18   6   9   20.86    1.60
 -16  -6   9   30.91    1.75
  16  -6  -9   29.14    1.73
  16   6  -9   29.37    1.93
 -16   6   9   31.26    1.91
 -16   6   9   29.89    1.75
 -14  -6   9   53.60    2.39
  14  -6  -9   55.79    2.41
 -14   6   9   62.05    2.61
  14   6  -9   53.99    2.68
 -14   6   9   56.01    2.63
  12  -6  -9    8.82    0.92
 -12  -6   9    9.22    0.96
 -12   6   9    8.52    0.95
 -12   6   9    8.98    0.87
  12   6  -9    6.97    0.94
 -10  -6   9   24.53    1.50
  10  -6  -9   24.90    1.47
  10   6  -9   23.30    1.64
 -10   6   9   25.11    1.54
 -10   6   9   25.39    1.61
   8  -6  -9   28.56    1.54
  -8  -6   9   26.37    1.57
  -8   6   9   28.75    1.76
   8   6  -9   29.24    1.58
  -8   6   9   29.36    1.63
   8   6  -9   29.01    1.81
  -6  -6   9   54.37    2.32
   6  -6  -9   56.93    2.24
   6   6  -9   59.88    2.41
  -6   6   9   56.58    2.57
  -6   6   9   56.73    2.35
   6   6  -9   57.77    2.61
  -4  -6   9   14.28    1.11
   4  -6  -9   15.27    0.95
   4  -6  -9   15.54    1.05
  -4   6   9   15.09    1.27
   4   6  -9   15.26    1.27
   4   6  -9   16.25    1.13
  -2  -6   9   22.60    1.41
   2  -6  -9   23.69    1.29
   2  -6  -9   24.41    1.30
   2   6  -9   24.22    1.61
  -2   6   9   24.35    1.66
   2   6  -9   24.51    1.45
   0  -6   9   69.80    2.63
   0  -6  -9   74.75    2.59
   0  -6  -9   73.60    2.43
   0   6  -9   71.13    2.68
   0   6   9   70.95    2.99
   0   6  -9   70.11    2.88
   2  -6   9   47.61    2.10
  -2  -6  -9   46.98    2.06
  -2  -6  -9   48.20    1.84
   2   6   9   49.35    2.45
  -2   6  -9   50.00    2.31
  -2   6  -9   50.36    2.18
  -4  -6  -9   74.87    2.35
  -4  -6  -9   75.62    2.79
   4  -6   9   70.46    2.65
  -4   6  -9   75.66    2.88
   4   6   9   71.69    3.09
  -4   6  -9   77.85    2.80
   6  -6   9   18.35    1.24
  -6  -6  -9   19.25    1.34
  -6   6  -9   18.73    1.26
  -6   6  -9   17.54    1.24
   6   6   9   17.03    1.40
   8  -6   9   60.74    2.42
  -8  -6  -9   63.59    2.67
  -8   6  -9   65.87    2.55
  -8   6  -9   65.09    2.58
   8   6   9   61.31    2.91
  10  -6   9    3.03    0.50
 -10  -6  -9    3.54    0.66
 -10   6  -9    4.19    0.60
  10   6   9    3.20    0.72
  12  -6   9   29.99    1.62
 -12  -6  -9   28.05    1.81
  12   6   9   27.52    1.94
 -12   6  -9   30.26    1.73
 -14  -6  -9    0.99    0.29
  14   6   9    0.64    0.22
 -14   6  -9    0.50    0.09
  16  -6   9   29.41    1.56
 -16  -6  -9   31.84    2.04
 -16   6  -9   28.25    1.75
  16   6   9   33.04    2.19
 -18  -6  -9    0.65    0.17
 -18   6  -9    0.25    0.07
  18   6   9    0.45    0.22
 -19  -7   9    0.42    0.10
 -19   7   9    0.60    0.15
  19   7  -9    1.27    0.28
 -17  -7   9   71.58    2.95
  17  -7  -9   72.08    3.03
 -17   7   9   71.53    3.11
  17   7  -9   69.92    3.30
  15  -7  -9    4.64    0.74
 -15  -7   9    3.72    0.64
  15   7  -9    3.30    0.71
 -15   7   9    4.02    0.66
  13  -7  -9   38.44    2.05
 -13  -7   9   40.27    2.11
 -13   7   9   41.18    2.26
  13   7  -9   38.54    2.30
  11  -7  -9    0.59    0.19
 -11  -7   9    0.35    0.13
  11   7  -9    0.71    0.27
 -11   7   9    0.65    0.21
  -9  -7   9   20.78    1.47
   9  -7  -9   21.82    1.42
  -9   7   9   21.21    1.59
   9   7  -9   21.30    1.64
   7  -7  -9   11.31    0.97
  -7  -7   9   10.22    0.99
  -7   7   9   12.02    1.18
   7   7  -9   11.03    1.12
  -5  -7   9   31.42    1.80
   5  -7  -9   35.74    1.81
   5   7  -9   32.74    2.04
  -5   7   9   33.63    2.08
   5   7  -9   33.63    1.86
   3  -7  -9    2.25    0.44
  -3  -7   9    3.17    0.60
  -3   7   9    2.25    0.56
   3   7  -9    2.90    0.63
   3   7  -9    3.32    0.50
  -1  -7   9   31.71    1.81
   1  -7  -9   33.66    1.67
   1  -7  -9   32.94    1.69
   1   7  -9   37.66    1.98
   1   7  -9   33.60    2.03
  -1   7   9   33.84    2.12
   1  -7   9    1.68    0.43
  -1  -7  -9    1.92    0.32
  -1  -7  -9    1.68    0.30
   1   7   9    1.95    0.51
  -1   7  -9    1.93    0.19
  -1   7  -9    1.69    0.40
  -3  -7  -9  101.68    3.48
   3  -7   9   97.37    3.41
  -3  -7  -9  100.51    3.08
  -3   7  -9  103.80    3.75
  -3   7  -9  103.57    3.64
   3   7   9   98.08    3.87
  -5  -7  -9    2.84    0.51
   5  -7   9    2.59    0.53
  -5   7  -9    3.27    0.56
  -5   7  -9    1.87    0.34
   5   7   9    2.66    0.64
   7  -7   9   31.71    1.78
  -7  -7  -9   33.64    1.92
   7   7   9   30.46    2.07
  -7   7  -9   33.11    1.89
   9  -7   9    6.58    0.77
  -9  -7  -9    6.06    0.85
  -9   7  -9    5.47    0.73
   9   7   9    5.56    0.91
 -11  -7  -9   46.25    2.46
  11  -7   9   45.24    2.15
  11   7   9   42.55    2.56
 -11   7  -9   44.80    2.30
  13  -7   9    7.75    0.70
 -13  -7  -9    6.70    0.94
  13   7   9    5.58    0.97
 -13   7  -9    6.26    0.84
  15  -7   9   11.01    0.88
 -15  -7  -9   11.41    1.27
  15   7   9   10.97    1.36
 -15   7  -9    9.86    0.96
  12  -8  -9   19.73    1.49
 -12  -8   9   17.72    1.39
  12   8  -9   18.42    1.56
 -12   8   9   17.47    1.47
 -10  -8   9   27.91    1.79
  10  -8  -9   29.21    1.79
  10   8  -9   28.02    1.97
 -10   8   9   29.01    1.98
  -8  -8   9    3.56    0.66
   8  -8  -9    3.13    0.56
   8   8  -9    3.20    0.70
  -8   8   9    2.61    0.52
  -6  -8   9   18.44    1.42
   6  -8  -9   19.34    1.34
  -6   8   9   16.37    1.48
   6   8  -9   16.51    1.44
  -4  -8   9   30.48    1.86
   4  -8  -9   35.37    1.86
   4   8  -9   31.60    2.06
  -4   8   9   33.66    2.20
  -2  -8   9   32.57    1.94
   2  -8  -9   35.86    1.85
   2   8  -9   36.68    2.06
  -2   8   9   32.42    2.18
   2   8  -9   37.59    2.22
   0  -8   9   34.90    2.02
   0  -8  -9   37.14    1.86
   0   8   9   37.98    2.35
   0   8  -9   42.20    2.38
   0   8  -9   35.97    2.10
   2  -8   9   21.66    1.54
  -2  -8  -9   20.93    1.28
  -2  -8  -9   21.45    1.45
  -2   8  -9   23.44    1.67
   2   8   9   19.92    1.64
  -2   8  -9   20.18    1.50
   4  -8   9   39.75    2.14
  -4  -8  -9   35.01    1.99
   4   8   9   41.06    2.48
  -4   8  -9   39.69    2.23
   6  -8   9   21.91    1.54
  -6  -8  -9   20.54    1.48
  -6   8  -9   21.69    1.59
   6   8   9   21.70    1.77
   8  -8   9   24.23    1.57
  -8  -8  -9   21.99    1.59
   8   8   9   22.66    1.81
  -8   8  -9   21.12    1.54
 -30   0  10    8.47    1.21
  30   0 -10    9.05    0.76
  28   0 -10    5.92    0.68
 -28   0  10    5.53    0.96
 -26   0  10   53.03    3.03
  26   0 -10   51.29    2.23
 -24   0  10   37.13    2.39
  24   0 -10   35.08    1.77
 -22   0  10   59.14    3.02
  22   0 -10   60.10    2.32
 -20   0  10    1.48    0.44
  20   0 -10    0.53    0.28
  18   0 -10   95.95    2.91
  18   0 -10   92.30    2.27
  18   0 -10   96.42    2.50
 -18   0  10   90.11    3.70
  16   0 -10   69.31    2.32
  16   0 -10   69.20    2.01
 -16   0  10   64.56    2.98
  16   0 -10   72.77    1.87
  14   0 -10   73.12    2.05
 -14   0  10   66.64    3.01
 -14   0  10   74.12    1.73
 -12   0  10    1.34    0.41
 -12   0  10    0.43    0.08
 -12   0  10    0.48    0.20
  12   0 -10    0.92    0.18
 -10   0  10  141.36    2.55
  10   0 -10  138.32    3.22
 -10   0  10  140.71    4.46
 -10   0  10  146.95    3.38
  -8   0  10    8.61    0.62
   8   0 -10    9.02    0.62
  -8   0  10    9.35    0.99
  -6   0  10  398.18    9.12
  -6   0  10  409.75    7.28
   6   0 -10  401.95    7.49
  -4   0  10    0.87    0.34
   4   0 -10    1.10    0.27
  -4   0  10    1.03    0.23
   2   0 -10  225.34    4.62
  -2   0  10  210.41    5.46
  -2   0  10  229.25    4.29
  -2   0  10  220.18    3.85
   0   0  10   13.06    0.50
   0   0  10   13.96    0.66
   0   0 -10   12.28    0.76
   0   0  10   12.27    0.98
  -2   0 -10  290.52    5.19
   2   0  10  285.98    6.66
   2   0  10  307.18    5.24
  -2   0 -10  294.36    5.87
   4   0  10    8.37    0.80
  -4   0 -10    6.72    0.58
   4   0  10    8.35    0.42
  -4   0 -10    7.42    0.44
  -8   0 -10   21.90    0.96
  -8   0 -10   19.40    1.06
   8   0  10   20.21    1.30
   8   0  10   22.02    0.65
 -10   0 -10   27.02    1.28
  10   0  10   27.83    1.57
 -10   0 -10   28.16    1.19
  12   0  10   18.72    1.31
 -12   0 -10   18.62    1.08
 -12   0 -10   18.93    1.01
  14   0  10   23.27    1.51
 -14   0 -10   24.53    1.23
 -14   0 -10   22.96    1.24
 -16   0 -10   62.11    2.24
 -16   0 -10   64.34    2.25
  16   0  10   59.11    2.59
  18   0  10  100.19    3.64
 -18   0 -10   95.25    3.00
 -18   0 -10   98.78    3.07
 -20   0 -10   23.42    1.40
  20   0  10   22.01    1.62
 -20   0 -10   24.77    1.38
 -22   0 -10   47.19    2.05
 -22   0 -10   45.55    2.09
  22   0  10   42.51    2.42
 -24   0 -10   17.06    1.27
  24   0  10   17.93    1.54
 -24   0 -10   18.41    1.21
 -26   0 -10   12.57    1.10
  26   0  10   10.90    1.29
 -29  -1  10    0.40    0.12
 -29   1  10    1.00    0.29
  27  -1 -10   58.52    2.45
 -27  -1  10   60.07    3.10
  27   1 -10   55.15    2.32
 -27   1  10   54.48    3.25
  25  -1 -10    6.28    0.76
 -25  -1  10    7.21    1.01
  25   1 -10    7.72    0.82
 -25   1  10    6.48    1.08
  23  -1 -10   37.10    1.82
 -23  -1  10   37.82    2.27
  23   1 -10   38.45    1.82
 -23   1  10   37.34    2.47
  23   1 -10   37.85    1.15
 -21  -1  10   35.42    2.13
  21  -1 -10   36.15    1.72
  21   1 -10   33.65    1.71
 -21   1  10   37.46    2.39
  21   1 -10   34.16    1.08
  21   1 -10   34.66    1.46
 -19  -1  10  106.54    3.11
  19  -1 -10  105.47    3.14
 -19  -1  10  101.81    3.80
 -19   1  10   97.02    4.02
  19   1 -10  102.48    2.85
 -17  -1  10    8.82    0.75
 -17  -1  10    7.64    0.96
  17  -1 -10    8.05    0.74
 -17   1  10    8.37    0.53
  17   1 -10    7.73    0.61
 -17   1  10    9.14    1.17
  15  -1 -10   42.46    1.71
  15  -1 -10   41.83    1.33
 -15  -1  10   40.38    2.15
 -15  -1  10   42.23    1.69
 -15   1  10   40.41    2.35
 -15   1  10   42.07    1.30
  15   1 -10   41.28    1.57
  13  -1 -10    6.44    0.67
 -13  -1  10    6.83    0.61
  13  -1 -10    6.35    0.44
 -13  -1  10    6.06    0.81
 -13   1  10    4.23    0.78
  13   1 -10    6.27    0.54
 -13   1  10    6.23    0.38
 -11  -1  10  130.15    4.14
  11  -1 -10  132.26    3.03
  11  -1 -10  130.05    2.94
 -11  -1  10  130.92    3.23
  11  -1 -10  130.90    3.23
 -11   1  10  130.26    4.38
 -11   1  10  135.61    2.65
  11   1 -10  128.48    3.21
   9  -1 -10   14.28    0.72
  -9  -1  10   14.76    1.17
   9  -1 -10   13.59    0.81
  -9  -1  10   14.32    0.84
   9  -1 -10   12.95    0.73
  -9   1  10   13.97    1.23
  -9   1  10   14.15    0.53
   9   1 -10   13.70    0.83
   7  -1 -10   26.18    1.12
  -7  -1  10   24.87    1.58
   7  -1 -10   25.66    1.03
   7  -1 -10   26.95    1.09
  -7  -1  10   27.88    1.16
  -7   1  10   27.22    1.73
   7   1 -10   26.77    1.18
  -7   1  10   28.02    0.76
   5  -1 -10   77.16    2.08
  -5  -1  10   79.86    2.12
   5  -1 -10   79.28    2.11
  -5  -1  10   72.87    2.79
   5  -1 -10   79.75    2.08
  -5   1  10   77.16    1.63
   5   1 -10   80.13    2.26
  -5   1  10   74.83    3.02
   3  -1 -10   75.60    2.05
  -3  -1  10   72.78    1.95
   3  -1 -10   71.26    1.88
   3  -1 -10   71.21    1.99
   3   1 -10   73.81    2.16
  -3   1  10   68.56    2.72
  -3   1  10   71.98    1.67
   1  -1 -10  105.08    2.37
   1  -1 -10  104.57    2.60
   1  -1 -10  105.08    2.64
  -1  -1  10  107.24    2.46
  -1  -1  10  104.67    3.25
  -1   1  10  103.86    2.41
  -1   1  10  101.11    3.33
   1   1 -10  110.67    1.95
   1   1 -10  111.36    2.81
  -1  -1 -10   33.97    1.31
  -1  -1 -10   32.25    1.23
   1  -1  10   33.81    1.65
   1  -1  10   33.22    1.11
  -1  -1 -10   32.43    1.03
   1   1  10   32.30    1.66
   1   1  10   34.49    1.14
  -1   1 -10   30.71    1.31
  -1   1 -10   34.25    0.89
   3  -1  10   86.59    2.88
   3  -1  10   86.46    2.03
  -3  -1 -10   85.21    2.28
  -3  -1 -10   86.60    1.90
  -3  -1 -10   87.31    2.41
  -3   1 -10   90.77    1.94
   3   1  10   87.54    2.95
   3   1  10   89.85    2.18
  -5  -1 -10   41.03    1.42
  -5  -1 -10   41.41    1.56
   5  -1  10   41.80    1.20
  -5  -1 -10   41.68    1.06
   5  -1  10   41.43    1.88
  -5  -1 -10   43.02    1.40
  -5   1 -10   41.73    1.58
  -5   1 -10   42.05    1.25
   5   1  10   40.71    1.90
  -7  -1 -10   73.02    2.07
   7  -1  10   76.21    2.69
  -7  -1 -10   76.78    2.12
  -7  -1 -10   74.35    2.28
   7  -1  10   73.48    1.72
  -7  -1 -10   75.61    1.50
  -7   1 -10   74.45    2.27
   7   1  10   75.34    2.72
  -7   1 -10   76.23    1.97
  -9  -1 -10    8.44    0.61
   9  -1  10    8.72    0.85
   9  -1  10    9.54    0.44
  -9  -1 -10    7.83    0.68
  -9   1 -10    9.26    0.71
  -9   1 -10    9.12    0.60
   9   1  10    9.75    0.91
  11  -1  10   58.91    2.43
 -11  -1 -10   56.15    2.07
 -11  -1 -10   62.06    2.01
  11   1  10   61.08    2.46
 -11   1 -10   57.71    2.01
 -11   1 -10   61.29    1.90
 -13  -1 -10   26.44    1.36
  13  -1  10   25.51    1.57
 -13  -1 -10   26.70    1.29
 -13   1 -10   28.56    1.28
 -13   1 -10   24.78    1.26
  13   1  10   28.04    1.63
 -15  -1 -10  100.33    2.97
 -15  -1 -10  100.63    3.06
  15  -1  10   98.66    3.51
 -15   1 -10  101.07    2.90
  15   1  10  102.12    3.50
 -15   1 -10  102.81    2.95
 -17  -1 -10   12.64    0.94
  17  -1  10   11.49    1.10
 -17  -1 -10   11.11    0.90
 -17   1 -10   10.91    0.84
 -17   1 -10   11.67    0.89
  17   1  10   10.89    1.05
 -19  -1 -10   91.65    3.05
  19  -1  10   89.64    3.51
 -19  -1 -10   91.61    3.02
  19   1  10   90.15    3.43
 -19   1 -10   91.41    2.87
 -19   1 -10   93.50    3.00
 -21  -1 -10    6.85    0.79
 -21  -1 -10    7.09    0.78
  21  -1  10    6.56    0.95
 -21   1 -10    7.76    0.67
 -21   1 -10    6.78    0.78
  21   1  10    6.61    0.91
 -23  -1 -10   52.24    2.32
  23  -1  10   51.41    2.76
 -23  -1 -10   49.89    2.29
 -23   1 -10   55.26    2.39
  23   1  10   50.50    2.62
 -25  -1 -10    5.45    0.75
 -25  -1 -10    5.36    0.67
  25  -1  10    5.68    0.94
 -25   1 -10    5.40    0.74
  25   1  10    4.74    0.80
 -28  -2  10   35.66    2.20
  28  -2 -10   31.65    1.78
 -28   2  10   32.64    2.55
  28   2 -10   32.74    1.72
 -26  -2  10   24.44    1.72
  26  -2 -10   22.79    1.46
  26   2 -10   21.96    0.72
  26   2 -10   23.24    1.40
 -26   2  10   21.40    1.97
 -24  -2  10    6.84    0.78
  24  -2 -10    8.48    0.90
 -24  -2  10    8.09    0.97
 -24   2  10    6.90    1.13
  22  -2 -10   46.23    2.07
 -22  -2  10   46.08    2.02
 -22  -2  10   52.49    2.51
  22   2 -10   44.78    1.91
 -22   2  10   44.81    2.77
 -20  -2  10    8.04    0.76
 -20  -2  10    7.62    0.91
  20  -2 -10    8.31    0.86
  20   2 -10    8.93    0.75
 -20   2  10    8.79    0.63
 -20   2  10    7.69    1.17
 -18  -2  10   63.88    2.69
  18  -2 -10   62.32    2.28
 -18  -2  10   60.13    2.22
 -18   2  10   63.82    1.96
 -18   2  10   58.45    3.06
  18   2 -10   60.62    2.20
 -16  -2  10    2.85    0.55
 -16  -2  10    2.66    0.46
  16  -2 -10    2.02    0.44
  16   2 -10    2.30    0.41
 -16   2  10    2.54    0.67
 -16   2  10    2.33    0.30
  14  -2 -10   67.57    2.26
 -14  -2  10   68.87    2.26
 -14  -2  10   70.44    2.75
 -14   2  10   73.44    1.95
  14   2 -10   65.20    2.25
 -14   2  10   63.65    3.07
 -12  -2  10   26.03    1.27
  12  -2 -10   25.74    1.25
 -12  -2  10   25.63    1.53
  12  -2 -10   27.43    0.97
 -12   2  10   27.47    1.02
  12   2 -10   26.86    1.32
 -12   2  10   23.49    1.73
  10  -2 -10  131.69    2.89
 -10  -2  10  133.01    3.29
 -10  -2  10  135.10    4.04
  10  -2 -10  133.57    3.26
 -10   2  10  135.84    2.88
 -10   2  10  127.61    4.36
  10   2 -10  130.64    3.43
  -8  -2  10    1.37    0.35
   8  -2 -10    0.99    0.26
  -8  -2  10    0.76    0.24
   8  -2 -10    1.03    0.18
  -8   2  10    0.96    0.37
  -8   2  10    1.46    0.20
   8   2 -10    0.57    0.22
  -6  -2  10  181.21    4.96
  -6  -2  10  181.79    3.97
   6  -2 -10  192.93    3.88
   6  -2 -10  180.72    3.88
  -6   2  10  182.98    3.71
  -6   2  10  177.81    5.27
   6   2 -10  190.04    4.30
   4  -2 -10   10.12    0.63
   4  -2 -10   10.67    0.65
  -4  -2  10    9.65    0.85
  -4  -2  10   10.45    0.68
  -4   2  10    8.97    0.96
   4   2 -10    9.61    0.74
  -4   2  10   11.19    0.62
   4   2 -10    9.64    0.32
  -2  -2  10  259.33    6.21
  -2  -2  10  274.17    5.29
   2  -2 -10  275.30    5.11
   2  -2 -10  273.78    5.44
   2   2 -10  278.22    5.74
  -2   2  10  273.87    5.43
  -2   2  10  282.14    6.75
   2   2 -10  278.38    4.67
   0  -2 -10    0.51    0.11
   0  -2  10    0.68    0.21
   0  -2  10    0.32    0.14
   0  -2 -10    0.41    0.16
   0   2  10    0.32    0.18
   0   2 -10    0.20    0.16
   0   2  10    0.60    0.14
   2  -2  10   84.02    2.84
  -2  -2 -10   90.21    2.04
  -2  -2 -10   92.54    2.48
   2  -2  10   91.49    2.26
   2   2  10   89.69    2.47
  -2   2 -10   89.90    2.57
  -2   2 -10   89.96    1.98
   2   2  10   87.20    3.00
  -4  -2 -10    8.70    0.68
   4  -2  10    8.52    0.54
  -4  -2 -10    8.64    0.44
   4  -2  10    8.12    0.76
  -4   2 -10    8.67    0.48
   4   2  10    9.21    0.86
   4   2  10    8.83    0.64
  -4   2 -10    8.74    0.70
  -6  -2 -10   47.52    1.16
  -6  -2 -10   46.68    1.76
   6  -2  10   47.56    2.03
   6  -2  10   47.78    1.45
   6   2  10   49.06    2.12
   6   2  10   47.54    1.70
  -6   2 -10   48.50    1.45
  -6   2 -10   45.73    1.73
  -8  -2 -10   27.98    1.36
   8  -2  10   27.92    1.03
   8  -2  10   28.14    1.55
  -8   2 -10   30.64    1.37
   8   2  10   29.68    1.61
   8   2  10   29.89    1.34
  -8   2 -10   28.57    1.14
 -10  -2 -10    8.95    0.71
 -10  -2 -10    8.74    0.76
  10  -2  10    9.13    0.88
  10  -2  10    9.76    0.52
 -10   2 -10    9.27    0.73
 -10   2 -10    9.03    0.62
  10   2  10    9.61    0.91
 -12  -2 -10   32.90    1.58
 -12  -2 -10   35.65    1.60
  12  -2  10   31.35    1.75
 -12   2 -10   34.50    1.48
 -12   2 -10   33.04    1.40
  12   2  10   33.71    1.80
 -14  -2 -10   63.57    2.36
  14  -2  10   61.05    2.62
 -14  -2 -10   65.96    2.34
  14   2  10   62.18    2.58
 -14   2 -10   60.89    2.13
 -14   2 -10   61.96    2.14
 -16  -2 -10    9.32    0.82
  16  -2  10    7.75    0.95
 -16  -2 -10    8.52    0.82
 -16   2 -10    8.22    0.68
  16   2  10    9.20    0.93
 -16   2 -10    7.99    0.71
  18  -2  10   48.45    2.46
 -18  -2 -10   51.04    2.20
 -18  -2 -10   49.40    2.15
 -18   2 -10   48.31    1.90
  18   2  10   51.40    2.40
 -18   2 -10   50.15    2.07
 -20  -2 -10   18.19    1.29
  20  -2  10   19.80    1.56
 -20  -2 -10   19.42    1.32
 -20   2 -10   20.01    1.29
  20   2  10   20.88    1.49
 -22  -2 -10   25.48    1.59
  22  -2  10   24.67    1.85
 -22  -2 -10   27.26    1.65
 -22   2 -10   27.94    1.62
  22   2  10   26.52    1.74
  24  -2  10   24.68    1.91
 -24  -2 -10   25.56    1.61
 -24  -2 -10   23.99    1.59
 -24   2 -10   24.37    1.56
  24   2  10   24.54    1.70
  26  -2  10   12.97    1.33
 -26  -2 -10   13.03    1.15
 -26  -2 -10   14.97    1.20
 -26   2 -10   11.46    1.05
  26   2  10   12.84    1.10
  27  -3 -10   17.68    1.29
 -27  -3  10   19.03    1.31
 -27   3  10   16.24    1.73
  25  -3 -10    4.46    0.70
 -25  -3  10    4.80    0.63
 -25   3  10    3.84    0.90
  25   3 -10    5.09    0.44
  23  -3 -10   44.45    2.09
 -23  -3  10   42.89    2.16
 -23  -3  10   43.91    2.01
 -23   3  10   42.57    1.80
 -23   3  10   37.49    2.63
  23   3 -10   43.97    2.04
 -21  -3  10   10.25    0.90
 -21  -3  10    8.52    0.80
  21  -3 -10    8.93    0.92
 -21   3  10    8.67    0.70
  21   3 -10    8.75    0.82
 -21   3  10    7.93    1.16
 -19  -3  10   29.71    1.57
  19  -3 -10   29.76    1.60
 -19  -3  10   32.77    1.72
  19   3 -10   30.16    1.62
 -19   3  10   29.46    1.37
 -19   3  10   27.78    2.09
 -17  -3  10   24.91    1.38
 -17  -3  10   28.43    1.55
  17  -3 -10   25.78    1.43
 -17   3  10   25.72    1.22
 -17   3  10   22.47    1.81
  17   3 -10   25.74    1.47
 -15  -3  10   89.96    2.77
 -15  -3  10   89.06    3.01
  15  -3 -10   85.15    2.75
 -15   3  10   88.67    2.51
  15   3 -10   91.65    2.97
 -15   3  10   83.35    3.62
 -13  -3  10    1.92    0.37
  13  -3 -10    1.58    0.39
 -13  -3  10    1.47    0.37
 -13   3  10    1.71    0.28
 -13   3  10    1.43    0.47
  13   3 -10    0.90    0.34
 -11  -3  10   13.65    0.97
  11  -3 -10   12.93    0.89
 -11  -3  10   12.27    0.86
 -11   3  10   11.81    0.72
  11   3 -10   10.96    0.91
 -11   3  10   11.13    1.15
   9  -3 -10    4.51    0.34
  -9  -3  10    3.54    0.49
  -9  -3  10    4.44    0.56
   9  -3 -10    3.71    0.51
  -9   3  10    3.87    0.39
   9   3 -10    3.38    0.54
  -9   3  10    4.05    0.73
   7  -3 -10   68.19    2.09
  -7  -3  10   70.06    2.56
  -7  -3  10   65.83    2.15
   7  -3 -10   73.20    1.94
  -7   3  10   66.83    2.06
   7   3 -10   69.47    2.39
  -7   3  10   71.34    2.96
  -5  -3  10   27.30    1.45
  -5  -3  10   26.95    1.25
   5  -3 -10   28.55    1.20
   5  -3 -10   29.16    1.15
  -5   3  10   27.78    1.25
   5   3 -10   29.45    1.43
  -5   3  10   28.21    1.76
   5   3 -10   29.50    0.95
  -3  -3  10    7.72    0.64
  -3  -3  10    8.27    0.72
   3  -3 -10    7.03    0.55
   3  -3 -10    7.97    0.58
  -3   3  10    8.87    0.93
   3   3 -10    8.09    0.43
  -3   3  10    8.22    0.66
   3   3 -10    7.39    0.69
  -1  -3  10  108.16    2.79
  -1  -3  10  107.62    3.18
   1  -3 -10  109.05    2.82
   1  -3 -10  110.26    2.61
   1   3 -10  111.99    2.40
   1   3 -10  108.40    3.08
  -1   3  10  102.81    3.54
  -1   3  10  104.29    3.02
  -1  -3 -10   75.62    1.97
   1  -3  10   70.99    2.49
   1  -3  10   75.08    2.20
  -1  -3 -10   74.70    2.25
   1   3  10   72.22    2.77
  -1   3 -10   75.57    2.43
  -1   3 -10   76.58    1.88
   1   3  10   75.18    2.47
   3  -3  10   67.38    2.44
   3  -3  10   69.43    2.07
  -3  -3 -10   70.38    1.79
  -3  -3 -10   68.57    2.21
   3   3  10   68.00    2.36
   3   3  10   69.34    2.63
  -3   3 -10   70.35    1.87
  -3   3 -10   69.83    2.32
   5  -3  10    1.50    0.36
  -5  -3 -10    1.54    0.35
  -5  -3 -10    1.58    0.15
   5  -3  10    1.67    0.28
   5   3  10    1.68    0.37
  -5   3 -10    1.75    0.25
  -5   3 -10    1.45    0.34
   5   3  10    1.52    0.39
   7  -3  10   40.95    1.87
   7  -3  10   43.12    1.50
  -7  -3 -10   40.34    1.73
   7   3  10   38.72    1.73
  -7   3 -10   40.41    1.66
  -7   3 -10   43.02    1.50
   7   3  10   40.34    1.93
   9  -3  10   35.61    1.34
   9  -3  10   33.66    1.73
  -9  -3 -10   35.61    1.65
   9   3  10   35.55    1.81
  -9   3 -10   36.68    1.43
   9   3  10   33.20    1.62
  -9   3 -10   35.96    1.54
  11  -3  10   51.58    2.29
 -11  -3 -10   55.39    2.18
  11  -3  10   54.11    1.73
 -11   3 -10   55.27    1.93
 -11   3 -10   54.89    2.00
  11   3  10   56.64    2.38
  11   3  10   54.99    2.18
  13  -3  10    5.52    0.76
 -13  -3 -10    4.90    0.68
 -13   3 -10    5.07    0.56
 -13   3 -10    4.99    0.57
  13   3  10    6.66    0.80
  13   3  10    4.95    0.67
 -15  -3 -10   44.73    2.07
  15  -3  10   46.50    2.30
 -15   3 -10   48.09    1.95
  15   3  10   44.47    2.15
  15   3  10   42.90    2.04
 -15   3 -10   44.81    1.78
 -17  -3 -10   35.47    1.87
  17  -3  10   34.62    2.02
  17   3  10   35.93    1.93
  17   3  10   33.68    1.82
 -17   3 -10   35.64    1.72
 -17   3 -10   34.04    1.52
 -19  -3 -10   44.85    2.21
  19  -3  10   49.86    2.57
 -19   3 -10   49.31    2.15
  19   3  10   48.58    2.33
 -21  -3 -10    1.50    0.40
  21  -3  10    1.03    0.35
  21   3  10    1.68    0.15
 -21   3 -10    1.03    0.23
 -23  -3 -10   25.83    1.70
  23  -3  10   23.64    1.85
 -23  -3 -10   24.45    1.63
  23   3  10   23.55    1.57
 -23   3 -10   24.47    1.57
  25  -3  10    0.77    0.14
 -25  -3 -10    0.33    0.16
 -25   3 -10    0.12    0.08
  26  -4 -10   10.06    0.96
 -26  -4  10   11.58    0.99
 -26   4  10   11.00    1.49
  26   4 -10   10.72    0.88
  24  -4 -10    3.15    0.60
 -24  -4  10    3.88    0.58
 -24   4  10    3.52    0.50
  24   4 -10    3.55    0.51
 -24   4  10    2.48    0.66
  22  -4 -10   28.97    1.71
 -22  -4  10   31.81    1.72
  22   4 -10   29.13    1.75
 -22   4  10   29.38    1.54
 -22   4  10   26.92    2.14
  20  -4 -10    8.47    0.92
 -20  -4  10    8.15    0.86
 -20   4  10    6.98    0.65
  20   4 -10    7.74    0.89
 -20   4  10    7.90    1.15
 -18  -4  10   26.26    1.48
  18  -4 -10   25.35    1.51
 -18   4  10   25.64    1.35
 -18   4  10   24.63    1.90
  18   4 -10   25.81    1.62
  16  -4 -10    1.41    0.40
 -16  -4  10    2.96    0.52
  16   4 -10    2.43    0.54
 -16   4  10    1.61    0.51
 -16   4  10    3.01    0.43
 -14  -4  10   44.50    1.90
  14  -4 -10   45.27    1.94
  14   4 -10   42.87    2.07
 -14   4  10   43.94    1.76
 -14   4  10   39.01    2.33
 -12  -4  10    4.55    0.61
  12  -4 -10    3.63    0.57
  12   4 -10    3.91    0.66
 -12   4  10    4.41    0.79
 -12   4  10    5.18    0.56
 -10  -4  10   18.21    1.13
  10  -4 -10   19.79    1.16
  10   4 -10   16.70    1.22
 -10   4  10   18.08    1.06
 -10   4  10   16.59    1.38
  -8  -4  10    2.80    0.48
   8  -4 -10    3.62    0.31
   8  -4 -10    2.70    0.45
  -8  -4  10    3.97    0.38
   8   4 -10    2.35    0.52
  -8   4  10    4.07    0.71
  -8   4  10    3.14    0.45
   6  -4 -10   85.33    2.55
  -6  -4  10   84.02    2.65
  -6  -4  10   87.09    2.77
   6  -4 -10   89.17    2.38
   6   4 -10   86.42    2.94
  -6   4  10   90.86    3.34
  -6   4  10   85.92    2.75
   4  -4 -10    7.24    0.62
   4  -4 -10    7.44    0.57
  -4  -4  10    7.18    0.72
  -4  -4  10    7.32    0.62
  -4   4  10    6.97    0.68
   4   4 -10    6.92    0.81
  -4   4  10    8.48    0.83
   4   4 -10    7.62    0.52
  -2  -4  10   97.70    2.84
  -2  -4  10   94.86    2.91
   2  -4 -10   97.82    2.58
   2  -4 -10   94.44    2.65
  -2   4  10   91.32    3.01
   2   4 -10   95.85    2.47
   2   4 -10   92.27    3.01
  -2   4  10  101.57    3.52
   0  -4  10   27.79    1.35
   0  -4 -10   31.19    1.37
   0  -4 -10   27.98    1.18
   0  -4  10   27.90    1.37
   0   4  10   29.63    1.57
   0   4  10   27.44    1.63
   0   4 -10   29.89    1.18
   0   4 -10   27.35    1.47
   2  -4  10   61.34    2.25
  -2  -4 -10   63.60    1.86
  -2  -4 -10   61.88    2.16
   2  -4  10   64.78    2.15
   2   4  10   63.74    2.45
   2   4  10   61.77    2.51
  -2   4 -10   63.03    1.92
  -2   4 -10   58.90    2.25
  -4  -4 -10    0.39    0.05
   4  -4  10    0.58    0.13
   4  -4  10    0.50    0.19
  -4  -4 -10    0.28    0.18
  -4   4 -10    0.43    0.08
   4   4  10    0.23    0.18
  -4   4 -10    0.52    0.21
   6  -4  10   23.23    1.19
  -6  -4 -10   19.81    1.23
   6  -4  10   22.86    1.32
  -6   4 -10   22.41    1.28
   6   4  10   21.08    1.38
  -6   4 -10   23.99    1.15
   6   4  10   22.66    1.38
   8  -4  10    9.41    0.83
  -8  -4 -10    8.10    0.85
   8  -4  10    8.50    0.67
  -8   4 -10    7.62    0.70
   8   4  10    9.27    0.82
   8   4  10    9.03    0.94
  -8   4 -10    8.38    0.65
 -10  -4 -10   10.86    0.94
  10  -4  10   10.53    0.92
  10  -4  10   10.66    0.75
 -10   4 -10   10.30    0.78
  10   4  10   12.44    0.99
  10   4  10   10.89    0.99
 -10   4 -10   10.02    0.80
 -12  -4 -10    2.09    0.49
  12  -4  10    2.53    0.35
  12  -4  10    2.78    0.52
  12   4  10    2.18    0.43
  12   4  10    2.80    0.57
 -12   4 -10    2.96    0.45
 -12   4 -10    2.51    0.41
  14  -4  10   33.38    1.88
 -14  -4 -10   34.27    1.85
  14   4  10   34.41    1.90
 -14   4 -10   34.82    1.56
 -14   4 -10   34.36    1.66
  14   4  10   33.76    1.82
  16  -4  10   25.24    1.67
 -16  -4 -10   26.72    1.65
  16   4  10   26.25    1.57
 -16   4 -10   25.44    1.46
  16   4  10   24.43    1.63
  18  -4  10   11.58    1.11
 -18  -4 -10   13.74    1.19
  18   4  10   13.09    1.17
 -18   4 -10   12.88    1.02
  18   4  10   11.69    0.98
 -20  -4 -10    4.20    0.71
  20  -4  10    3.56    0.67
  20   4  10    3.49    0.37
 -20   4 -10    3.63    0.59
  20   4  10    5.05    0.79
 -22  -4 -10   27.49    1.83
  22  -4  10   26.87    1.92
 -22   4 -10   25.73    1.62
  22   4  10   30.81    1.96
 -25  -5  10    5.81    0.72
  25  -5 -10    4.44    0.68
  25   5 -10    5.39    0.48
 -25   5  10    3.52    0.76
 -25   5  10    5.21    0.52
  23  -5 -10    9.01    1.01
 -23  -5  10    8.47    0.91
 -23   5  10    7.14    1.13
 -23   5  10    7.99    0.77
  23   5 -10   10.09    0.94
  21  -5 -10    3.80    0.67
 -21  -5  10    3.42    0.57
 -21   5  10    3.46    0.75
 -21   5  10    3.74    0.53
  21   5 -10    4.91    0.77
 -19  -5  10   13.89    1.11
  19  -5 -10   12.81    1.10
 -19   5  10   11.52    1.19
 -19   5  10   13.85    1.03
  19   5 -10   11.08    1.11
 -17  -5  10    0.90    0.23
  17  -5 -10    0.96    0.34
 -17   5  10    1.52    0.36
 -17   5  10    0.91    0.18
  17   5 -10    0.87    0.31
 -15  -5  10   15.15    1.13
  15  -5 -10   12.61    1.04
  15   5 -10   14.13    1.23
 -15   5  10   13.92    1.03
 -15   5  10   16.00    1.37
  13  -5 -10    1.83    0.45
 -13  -5  10    1.69    0.43
 -13   5  10    1.46    0.33
 -13   5  10    1.52    0.40
  13   5 -10    1.97    0.52
 -11  -5  10   18.79    1.25
  11  -5 -10   18.69    1.20
 -11   5  10   19.26    1.24
 -11   5  10   17.57    1.37
  11   5 -10   18.31    1.38
  -9  -5  10    5.54    0.72
   9  -5 -10    4.77    0.63
  -9   5  10    4.88    0.73
  -9   5  10    5.54    0.70
   9   5 -10    4.76    0.75
  -7  -5  10   10.60    0.90
   7  -5 -10    9.81    0.81
  -7   5  10   10.19    0.96
  -7   5  10   10.90    0.94
   7   5 -10    9.42    0.94
  -5  -5  10    7.56    0.82
   5  -5 -10    8.79    0.62
   5  -5 -10    7.40    0.70
   5   5 -10    7.85    0.92
  -5   5  10    8.32    0.83
  -5   5  10    8.08    0.80
  -3  -5  10   12.37    0.97
   3  -5 -10   12.19    0.80
   3  -5 -10   10.63    0.80
  -3   5  10    9.48    0.92
   3   5 -10   11.29    1.01
  -3   5  10   12.06    0.98
   3   5 -10   11.77    0.78
   1  -5 -10   25.01    1.29
  -1  -5  10   23.39    1.34
   1  -5 -10   25.12    1.23
  -1   5  10   25.28    1.54
  -1   5  10   24.69    1.55
   1   5 -10   25.54    1.54
   1   5 -10   26.50    1.26
   1  -5  10    0.43    0.20
  -1  -5 -10    0.63    0.21
  -1  -5 -10    0.68    0.19
   1   5  10    1.34    0.40
  -1   5 -10    0.81    0.28
  -1   5 -10    1.03    0.18
   3  -5  10   21.83    1.29
  -3  -5 -10   21.91    1.30
  -3  -5 -10   23.09    1.08
  -3   5 -10   23.40    1.21
  -3   5 -10   21.97    1.39
   3   5  10   26.02    1.49
   3   5  10   23.59    1.53
   5  -5  10   10.26    0.86
  -5  -5 -10   11.07    0.93
   5  -5  10   12.31    0.87
  -5   5 -10   10.58    0.90
   5   5  10   11.88    0.94
   5   5  10   11.80    1.09
  -5   5 -10   11.53    0.83
   7  -5  10   29.74    1.52
   7  -5  10   27.07    1.42
  -7  -5 -10   27.73    1.57
  -7   5 -10   27.04    1.50
  -7   5 -10   27.47    1.41
   7   5  10   28.95    1.78
   7   5  10   28.10    1.57
   9  -5  10    5.53    0.66
  -9  -5 -10    4.58    0.70
   9  -5  10    6.22    0.66
  -9   5 -10    5.88    0.66
  -9   5 -10    6.42    0.71
   9   5  10    6.11    0.88
   9   5  10    6.53    0.63
  11  -5  10   10.24    0.80
 -11  -5 -10    9.69    1.03
  11  -5  10   10.38    0.91
 -11   5 -10    9.57    0.82
  11   5  10   10.68    1.15
 -11   5 -10   11.23    0.87
  13  -5  10    2.14    0.45
 -13  -5 -10    1.18    0.38
  13  -5  10    1.89    0.31
  13   5  10    2.42    0.56
 -13   5 -10    1.91    0.37
  15  -5  10   16.56    1.27
 -15  -5 -10   18.30    1.41
 -15   5 -10   17.45    1.23
  15   5  10   15.94    1.37
 -17  -5 -10    1.36    0.38
  17  -5  10    2.04    0.46
 -17   5 -10    2.18    0.39
  17   5  10    1.97    0.55
  19  -5  10    4.44    0.73
 -19  -5 -10    5.93    0.87
  19   5  10    3.75    0.72
 -19   5 -10    3.65    0.57
 -21  -5 -10    1.93    0.43
  21  -5  10    2.45    0.42
 -21   5 -10    1.53    0.27
  21   5  10    2.51    0.51
  22  -6 -10    3.51    0.64
 -22  -6  10    4.51    0.64
  22   6 -10    4.40    0.75
 -22   6  10    2.37    0.58
 -22   6  10    3.85    0.60
  20  -6 -10    0.86    0.26
 -20  -6  10    0.82    0.22
  20   6 -10    0.97    0.27
  18  -6 -10    1.96    0.48
 -18  -6  10    3.20    0.55
 -18   6  10    2.61    0.48
  18   6 -10    2.10    0.52
 -18   6  10    2.28    0.55
  16  -6 -10    0.49    0.20
 -16  -6  10    0.59    0.19
 -16   6  10    0.31    0.10
  16   6 -10    0.39    0.20
 -16   6  10    0.16    0.07
 -14  -6  10    5.24    0.74
  14  -6 -10    5.20    0.73
 -14   6  10    5.38    0.72
 -14   6  10    5.09    0.73
  14   6 -10    5.65    0.88
 -12  -6  10    0.69    0.26
  12  -6 -10    0.93    0.32
 -12   6  10    0.59    0.12
  12   6 -10    0.74    0.31
 -12   6  10    0.70    0.25
  10  -6 -10   10.51    0.92
 -10  -6  10    9.94    0.94
 -10   6  10    9.35    0.89
 -10   6  10   10.00    0.96
  10   6 -10    9.12    1.07
  -8  -6  10    1.67    0.43
   8  -6 -10    1.25    0.35
  -8   6  10    1.17    0.24
  -8   6  10    1.46    0.39
   8   6 -10    1.76    0.52
   6  -6 -10   10.09    0.86
  -6  -6  10    9.40    0.91
  -6   6  10    9.61    0.89
   6   6 -10   10.57    1.14
  -6   6  10    8.92    0.99
  -4  -6  10    5.86    0.77
   4  -6 -10    5.16    0.64
   4   6 -10    4.86    0.78
  -4   6  10    5.03    0.77
   2  -6 -10    9.52    0.78
  -2  -6  10    8.66    0.92
   2  -6 -10    9.44    0.75
   2   6 -10    8.50    0.72
   2   6 -10    9.32    1.05
  -2   6  10    9.25    1.05
   0  -6 -10    9.18    0.79
   0  -6  10    7.71    0.86
   0  -6 -10    8.38    0.71
   0   6 -10    9.23    1.03
   0   6 -10    8.09    0.71
   0   6  10    7.43    0.95
  -2  -6 -10    6.66    0.59
  -2  -6 -10    7.03    0.71
   2  -6  10    6.45    0.79
   2   6  10    5.57    0.83
  -2   6 -10    6.72    0.63
  -2   6 -10    6.63    0.85
   4  -6  10    6.41    0.79
  -4  -6 -10    6.58    0.77
  -4   6 -10    7.21    0.66
  -4   6 -10    8.74    0.94
   4   6  10    7.12    0.98
   6  -6  10    8.52    0.82
  -6  -6 -10    7.76    0.89
  -6   6 -10    6.36    0.77
  -6   6 -10    7.34    0.68
   6   6  10    7.17    0.96
  -8  -6 -10    2.48    0.54
   8  -6  10    2.42    0.44
  -8   6 -10    3.10    0.48
  -8   6 -10    2.78    0.48
   8   6  10    2.04    0.53
  10  -6  10   11.49    0.91
 -10  -6 -10   10.55    1.04
 -10   6 -10   12.92    1.01
  10   6  10   11.32    1.27
 -12  -6 -10   13.55    1.22
  12  -6  10   14.31    1.00
  12   6  10   14.92    1.39
 -12   6 -10   14.56    1.10
 -14  -6 -10    2.05    0.50
  14  -6  10    1.83    0.16
  14   6  10    1.31    0.33
 -14   6 -10    1.11    0.10
 -16  -6 -10    1.25    0.37
  16   6  10    2.57    0.62
 -16   6 -10    1.08    0.19
 -18  -6 -10    9.16    1.12
 -18   6 -10    7.05    0.86
  18   6  10   12.03    1.35
 -17  -7  10    1.12    0.17
  17  -7 -10    1.18    0.28
 -17   7  10    0.88    0.13
  17   7 -10    0.87    0.24
  15  -7 -10    1.09    0.35
 -15  -7  10    1.08    0.23
  15   7 -10    0.59    0.26
 -15   7  10    1.62    0.27
  13  -7 -10    0.80    0.29
 -13  -7  10    1.14    0.28
 -13   7  10    0.69    0.14
  13   7 -10    1.07    0.30
  11  -7 -10    2.70    0.57
 -11  -7  10    4.35    0.72
 -11   7  10    5.21    0.78
  11   7 -10    4.28    0.80
   9  -7 -10    0.48    0.13
  -9  -7  10    0.19    0.13
  -9   7  10    0.37    0.12
   9   7 -10    0.24    0.16
   7  -7 -10    0.23    0.13
  -7  -7  10    0.60    0.22
   7   7 -10    0.26    0.17
  -7   7  10    0.76    0.21
  -5  -7  10    1.54    0.41
   5  -7 -10    1.21    0.28
  -5   7  10    1.17    0.32
   5   7 -10    1.58    0.41
   3  -7 -10    5.44    0.66
  -3  -7  10    4.98    0.75
  -3   7  10    6.11    0.90
   3   7 -10    5.80    0.89
  -1  -7  10    0.36    0.19
   1  -7 -10    0.87    0.16
  -1   7  10    0.69    0.16
  -1  -7 -10    2.20    0.38
   1  -7  10    1.95    0.45
  -1  -7 -10    1.99    0.37
  -1   7 -10    2.50    0.52
  -1   7 -10    1.95    0.31
   1   7  10    2.31    0.56
   3  -7  10    4.58    0.70
  -3  -7 -10    5.43    0.68
  -3   7 -10    4.45    0.71
   3   7  10    4.90    0.82
  -3   7 -10    5.37    0.70
  -5  -7 -10    3.19    0.56
   5  -7  10    4.09    0.65
  -5   7 -10    2.33    0.40
  -5   7 -10    3.22    0.61
   5   7  10    3.28    0.69
   7  -7  10    1.03    0.16
  -7  -7 -10    0.74    0.11
  -7   7 -10    1.07    0.14
   7   7  10    1.28    0.37
   9  -7  10    5.48    0.68
  -9  -7 -10    4.68    0.74
   9   7  10    5.35    0.90
  -9   7 -10    3.71    0.56
 -11  -7 -10    4.41    0.73
  11  -7  10    4.99    0.48
 -11   7 -10    4.61    0.65
  11   7  10    5.16    0.93
 -13  -7 -10    7.58    1.00
  13  -7  10    7.78    0.65
 -13   7 -10    6.78    0.84
  13   7  10    6.46    1.01
 -10  -8  10    0.37    0.15
  10  -8 -10    0.15    0.08
  10   8 -10    0.48    0.23
 -10   8  10    0.38    0.14
   8  -8 -10    1.08    0.23
  -8  -8  10    0.75    0.26
   8   8 -10    1.45    0.29
  -8   8  10    0.97    0.20
  -6  -8  10    2.75    0.57
   6  -8 -10    2.05    0.38
   6   8 -10    1.75    0.40
  -6   8  10    2.11    0.42
  -4  -8  10    1.24    0.31
   4  -8 -10    1.11    0.21
  -4   8  10    1.29    0.19
   4   8 -10    1.61    0.30
   2  -8 -10    1.27    0.12
  -2   8  10    0.88    0.16
   0  -8  10    0.43    0.12
   0   8  10    0.50    0.14
   0   8 -10    0.65    0.13
   2  -8  10    0.41    0.12
   2   8  10    0.39    0.17
   4  -8  10    5.46    0.78
  -4  -8 -10    3.41    0.59
   4   8  10    4.08    0.77
  -4   8 -10    3.51    0.53
  -4   8 -10    5.12    0.71
   6  -8  10    0.68    0.06
   6   8  10    0.46    0.17
 -30   0  11    0.59    0.22
 -28   0  11    0.51    0.19
  28   0 -11    0.42    0.09
 -26   0  11    0.49    0.17
  26   0 -11    0.53    0.10
  24   0 -11    0.76    0.21
 -24   0  11    0.64    0.25
  22   0 -11    0.42    0.18
 -22   0  11    0.82    0.28
 -20   0  11    0.89    0.31
  20   0 -11    0.42    0.22
  18   0 -11    0.04    0.19
  18   0 -11    0.15    0.10
 -18   0  11    0.64    0.22
 -16   0  11    0.38    0.24
  16   0 -11    0.12    0.12
  16   0 -11    0.05    0.21
  14   0 -11    0.50    0.10
 -14   0  11    0.49    0.26
 -12   0  11    0.74    0.26
 -12   0  11    0.21    0.16
  12   0 -11    0.75    0.17
 -10   0  11    0.62    0.25
 -10   0  11   -0.09    0.11
  10   0 -11    0.37    0.10
  -8   0  11    0.18    0.21
   8   0 -11    0.39    0.15
  -8   0  11    0.00    0.10
  -6   0  11    0.62    0.28
   6   0 -11    0.46    0.19
  -4   0  11    0.31    0.17
  -4   0  11    0.24    0.12
   4   0 -11    0.15    0.10
  -2   0  11    0.24    0.15
  -2   0  11    0.13    0.07
   2   0 -11    0.33    0.16
   0   0 -11    0.28    0.13
   0   0  11    0.16    0.16
   0   0  11    0.34    0.07
   2   0  11    0.38    0.08
  -2   0 -11    0.18    0.03
  -2   0 -11    0.14    0.15
   2   0  11    0.20    0.20
   4   0  11    0.43    0.27
   4   0  11    0.62    0.06
  -4   0 -11    0.09    0.11
   6   0  11    0.47    0.29
  -6   0 -11    0.03    0.15
   6   0  11    0.41    0.04
  -6   0 -11    0.50    0.09
  -8   0 -11    0.34    0.06
  -8   0 -11    0.08    0.12
   8   0  11    0.17    0.23
 -10   0 -11    0.20    0.17
 -10   0 -11    0.59    0.11
  10   0  11    0.30    0.21
  12   0  11    0.39    0.27
 -12   0 -11    0.40    0.08
 -12   0 -11    0.10    0.11
  14   0  11    0.13    0.18
 -14   0 -11    0.36    0.10
 -14   0 -11    0.24    0.15
 -16   0 -11    0.57    0.14
  16   0  11    0.30    0.21
 -16   0 -11    0.50    0.15
 -18   0 -11    0.27    0.09
  18   0  11    0.30    0.13
 -18   0 -11    0.35    0.13
 -20   0 -11    0.32    0.08
 -20   0 -11    0.49    0.14
  20   0  11    0.40    0.22
 -22   0 -11    0.40    0.06
 -22   0 -11    0.79    0.13
  22   0  11    0.67    0.25
 -24   0 -11    0.27    0.10
  24   0  11    0.44    0.11
  26   0  11    0.26    0.09
 -26   0 -11    0.24    0.09
 -29  -1  11    1.23    0.33
  29  -1 -11    1.83    0.12
 -29   1  11    2.04    0.53
  29   1 -11    1.97    0.15
  27  -1 -11    0.66    0.13
 -27  -1  11    1.30    0.28
 -27   1  11    1.14    0.34
  27   1 -11    1.27    0.21
 -25  -1  11    4.12    0.78
  25  -1 -11    3.83    0.61
 -25   1  11    4.94    0.98
  25   1 -11    4.43    0.64
 -23  -1  11    5.78    0.91
  23  -1 -11    5.74    0.73
 -23   1  11    6.47    1.07
  23   1 -11    5.36    0.71
  23   1 -11    4.25    0.35
  21  -1 -11    0.89    0.28
 -21  -1  11    0.86    0.24
  21   1 -11    0.76    0.37
  21   1 -11    0.50    0.14
 -21   1  11    0.68    0.28
 -19  -1  11    1.03    0.38
  19  -1 -11    1.36    0.38
 -19  -1  11    1.46    0.38
  19   1 -11    1.05    0.20
 -19   1  11    1.30    0.44
 -17  -1  11   12.54    0.94
 -17  -1  11   13.92    1.26
  17  -1 -11   13.08    0.97
  17   1 -11   12.71    0.83
 -17   1  11   12.16    1.38
 -15  -1  11    5.55    0.63
  15  -1 -11    6.35    0.44
 -15  -1  11    5.89    0.87
  15  -1 -11    5.83    0.67
  15   1 -11    5.48    0.51
 -15   1  11    6.08    0.97
  13  -1 -11   48.79    1.85
 -13  -1  11   48.75    2.42
  13  -1 -11   50.14    1.65
  13  -1 -11   51.20    1.58
 -13  -1  11   47.06    1.81
 -13   1  11   48.68    2.61
  13   1 -11   49.66    1.78
  11  -1 -11    2.56    0.31
  11  -1 -11    1.81    0.37
 -11  -1  11    2.46    0.41
 -11  -1  11    4.24    0.74
  11  -1 -11    1.97    0.35
 -11   1  11    1.37    0.44
  11   1 -11    2.18    0.37
  -9  -1  11   55.79    2.56
   9  -1 -11   57.35    1.73
   9  -1 -11   57.17    1.77
   9  -1 -11   53.56    1.82
  -9  -1  11   56.82    1.89
  -9   1  11   57.69    2.73
   9   1 -11   55.61    1.89
   7  -1 -11   12.78    0.79
  -7  -1  11   14.18    1.20
  -7  -1  11   12.49    0.79
   7  -1 -11   13.50    0.75
   7  -1 -11   12.98    0.76
   7   1 -11   13.42    0.84
  -7   1  11   13.28    0.46
  -7   1  11   14.39    1.27
  -5  -1  11   10.78    1.00
  -5  -1  11   12.29    0.74
   5  -1 -11   10.92    0.70
   5  -1 -11   12.30    0.73
   5  -1 -11   12.78    0.75
  -5   1  11   10.05    1.04
   5   1 -11   11.42    0.78
  -5   1  11   11.69    0.43
  -3  -1  11   10.58    0.96
   3  -1 -11    9.72    0.61
   3  -1 -11   10.69    0.70
  -3  -1  11   11.37    0.68
   3  -1 -11   10.29    0.67
  -3   1  11    9.39    0.96
   3   1 -11   10.05    0.74
  -3   1  11   10.50    0.47
   1  -1 -11   46.36    1.40
  -1  -1  11   45.24    2.04
   1  -1 -11   48.71    1.64
   1  -1 -11   45.30    1.56
  -1  -1  11   44.87    1.45
  -1   1  11   44.39    2.13
  -1   1  11   48.43    1.41
   1   1 -11   46.91    1.72
   1   1 -11   46.57    0.98
   1  -1  11    3.31    0.57
   1  -1  11    3.32    0.32
  -1  -1 -11    2.92    0.28
  -1  -1 -11    3.71    0.47
  -1  -1 -11    3.46    0.41
   1   1  11    3.46    0.28
  -1   1 -11    3.41    0.47
  -1   1 -11    3.53    0.23
   1   1  11    3.18    0.59
   3  -1  11   46.94    1.39
  -3  -1 -11   47.40    1.61
   3  -1  11   48.64    2.13
  -3  -1 -11   48.01    1.29
  -3  -1 -11   47.70    1.71
  -3   1 -11   47.92    1.75
   3   1  11   48.47    2.18
   3   1  11   48.05    1.49
  -3   1 -11   49.15    1.28
   5  -1  11    2.23    0.21
  -5  -1 -11    1.93    0.16
  -5  -1 -11    1.99    0.28
   5  -1  11    2.78    0.55
  -5  -1 -11    2.17    0.39
   5   1  11    1.85    0.47
  -5   1 -11    1.93    0.22
  -5   1 -11    2.02    0.40
   7  -1  11   25.93    1.53
  -7  -1 -11   23.64    1.23
  -7  -1 -11   26.87    1.13
   7  -1  11   25.65    0.88
   7   1  11   28.68    1.64
  -7   1 -11   26.42    1.29
  -7   1 -11   25.62    1.01
  -9  -1 -11   12.03    0.76
  -9  -1 -11    9.72    0.79
   9  -1  11   11.60    1.03
  -9   1 -11   11.02    0.67
   9   1  11   11.83    1.06
  -9   1 -11   10.87    0.82
 -11  -1 -11   24.61    1.32
 -11  -1 -11   26.88    1.26
  11  -1  11   26.67    1.63
  11   1  11   25.96    1.61
 -11   1 -11   24.49    1.28
 -11   1 -11   27.73    1.20
  13  -1  11    1.86    0.48
 -13  -1 -11    1.98    0.42
 -13  -1 -11    2.45    0.41
  13   1  11    1.78    0.52
 -13   1 -11    2.31    0.41
 -13   1 -11    2.08    0.35
 -15  -1 -11    5.74    0.69
 -15  -1 -11    5.41    0.62
  15  -1  11    5.06    0.80
  15   1  11    6.64    0.89
 -15   1 -11    4.93    0.56
 -15   1 -11    5.76    0.64
  17  -1  11   11.77    1.14
 -17  -1 -11   11.66    0.96
 -17  -1 -11   11.53    0.90
 -17   1 -11   11.84    0.89
  17   1  11   11.56    1.11
 -17   1 -11   11.79    0.88
 -19  -1 -11    7.30    0.74
 -19  -1 -11    7.67    0.75
  19  -1  11    8.51    1.05
  19   1  11    9.16    1.07
 -19   1 -11    7.93    0.70
 -19   1 -11    7.06    0.68
 -21  -1 -11    1.52    0.31
 -21  -1 -11    2.01    0.44
  21  -1  11    0.84    0.32
  21   1  11    0.89    0.33
 -21   1 -11    1.12    0.25
 -21   1 -11    1.63    0.29
  23  -1  11    0.52    0.22
 -23  -1 -11    0.80    0.18
 -23  -1 -11    0.79    0.19
 -23   1 -11    0.76    0.11
  23   1  11    0.82    0.29
  25  -1  11    1.69    0.52
 -25  -1 -11    2.31    0.42
 -25  -1 -11    2.76    0.48
  25   1  11    1.96    0.43
 -25   1 -11    1.79    0.36
  28  -2 -11    4.72    0.64
 -28  -2  11    3.78    0.72
  28   2 -11    6.17    0.70
 -28   2  11    5.40    1.09
  26  -2 -11    8.73    0.95
 -26  -2  11    9.52    1.11
  26   2 -11   10.20    0.92
 -26   2  11   10.57    1.47
  26   2 -11    9.02    0.44
  24  -2 -11    8.87    0.94
 -24  -2  11    9.53    0.88
 -24  -2  11    9.16    0.97
 -24   2  11    7.24    1.19
 -22  -2  11    0.84    0.19
  22  -2 -11    0.41    0.16
 -22  -2  11    0.68    0.21
 -22   2  11    0.96    0.29
  20  -2 -11    9.42    0.87
 -20  -2  11   11.36    0.93
 -20  -2  11   11.79    1.07
  20   2 -11   10.09    0.81
 -20   2  11    9.33    1.29
  18  -2 -11   10.71    0.89
 -18  -2  11   12.09    1.09
 -18  -2  11   12.68    0.95
  18   2 -11   10.53    0.84
 -18   2  11   11.76    1.42
 -16  -2  11   12.78    1.10
 -16  -2  11   11.37    0.89
  16  -2 -11   14.22    1.00
  16   2 -11   13.15    0.94
 -16   2  11   13.85    1.40
 -14  -2  11    0.39    0.17
  14  -2 -11    0.26    0.19
 -14  -2  11    0.72    0.22
  14   2 -11    0.44    0.20
 -14   2  11    0.33    0.26
 -12  -2  11   14.18    1.16
 -12  -2  11   14.21    0.94
  12  -2 -11   13.98    0.93
  12  -2 -11   14.63    0.70
 -12   2  11   13.54    1.33
 -12   2  11   14.73    0.70
  12   2 -11   14.93    0.99
 -10  -2  11   38.35    1.98
  10  -2 -11   36.15    1.50
 -10  -2  11   36.53    1.52
  10  -2 -11   39.34    1.31
  10   2 -11   39.19    1.65
 -10   2  11   39.04    1.21
 -10   2  11   40.58    2.34
  -8  -2  11   29.23    1.70
   8  -2 -11   29.70    1.13
  -8  -2  11   28.15    1.28
   8  -2 -11   28.04    1.23
  -8   2  11   29.20    1.89
   8   2 -11   28.21    1.36
  -8   2  11   27.46    0.97
   6  -2 -11    8.85    0.64
   6  -2 -11    9.27    0.60
  -6  -2  11    9.54    0.92
  -6  -2  11    8.76    0.67
   6   2 -11    8.85    0.74
  -6   2  11    9.93    1.13
  -6   2  11    9.64    0.53
  -4  -2  11   39.45    1.92
   4  -2 -11   42.19    1.43
   4  -2 -11   41.89    1.47
  -4  -2  11   40.73    1.48
  -4   2  11   37.73    2.13
   4   2 -11   41.07    1.66
  -4   2  11   41.48    1.35
   2  -2 -11   16.39    0.80
  -2  -2  11   17.17    1.17
  -2  -2  11   16.36    0.87
   2  -2 -11   16.63    0.89
   2   2 -11   18.39    1.05
  -2   2  11   15.56    1.25
  -2   2  11   16.90    0.85
   0  -2 -11    0.52    0.11
   0  -2  11    0.64    0.23
   0  -2 -11    0.41    0.18
   0  -2  11    0.28    0.12
   0   2  11    0.26    0.19
   0   2  11    0.94    0.16
   0   2 -11    0.39    0.25
   0   2 -11    0.58    0.04
   2  -2  11    2.14    0.46
  -2  -2 -11    2.65    0.23
   2  -2  11    2.44    0.32
  -2  -2 -11    1.65    0.35
  -2   2 -11    1.38    0.34
  -2   2 -11    2.38    0.19
   2   2  11    1.04    0.38
   2   2  11    3.14    0.38
  -4  -2 -11   10.60    0.78
  -4  -2 -11   12.67    0.56
   4  -2  11   12.20    0.67
   4  -2  11   12.23    1.00
   4   2  11   12.49    0.80
   4   2  11   12.85    1.06
  -4   2 -11   11.60    0.58
  -4   2 -11   12.99    0.89
   6  -2  11    6.44    0.78
  -6  -2 -11    5.12    0.61
   6  -2  11    5.98    0.43
  -6   2 -11    6.57    0.44
   6   2  11    6.91    0.85
  -6   2 -11    5.90    0.59
   6   2  11    6.01    0.55
  -8  -2 -11    8.31    0.74
   8  -2  11   10.03    0.56
   8  -2  11    9.22    0.90
   8   2  11   10.35    0.76
  -8   2 -11   10.35    0.63
  -8   2 -11    8.95    0.75
   8   2  11    9.17    0.94
  10  -2  11   16.20    1.24
 -10  -2 -11   17.89    1.14
  10  -2  11   18.38    0.78
  10   2  11   18.21    1.33
 -10   2 -11   19.10    0.96
 -10   2 -11   19.30    1.12
 -12  -2 -11   10.64    0.89
 -12  -2 -11   11.40    0.87
  12  -2  11    9.66    0.97
 -12   2 -11   11.25    0.84
 -12   2 -11   11.10    0.75
  12   2  11    9.69    0.97
  14  -2  11    8.33    0.98
 -14  -2 -11    8.28    0.79
 -14  -2 -11    8.49    0.75
  14   2  11    7.17    0.92
 -14   2 -11    7.54    0.68
 -14   2 -11    7.74    0.66
 -16  -2 -11    0.73    0.19
  16  -2  11    0.68    0.27
 -16  -2 -11    0.65    0.22
 -16   2 -11    0.53    0.14
  16   2  11    0.48    0.24
 -16   2 -11    0.71    0.14
 -18  -2 -11   11.61    0.96
 -18  -2 -11   11.37    0.99
  18  -2  11    9.85    1.14
  18   2  11   11.54    1.11
 -18   2 -11   10.79    0.88
 -18   2 -11   10.88    0.82
 -20  -2 -11    3.89    0.59
 -20  -2 -11    4.38    0.66
  20  -2  11    4.68    0.83
 -20   2 -11    4.79    0.63
  20   2  11    4.45    0.73
 -22  -2 -11    5.75    0.76
 -22  -2 -11    6.43    0.80
  22  -2  11    5.93    0.94
  22   2  11    5.68    0.80
 -22   2 -11    5.47    0.70
 -24  -2 -11    1.46    0.31
 -24  -2 -11    2.21    0.39
  24  -2  11    1.71    0.44
 -24   2 -11    1.17    0.28
  24   2  11    1.64    0.34
 -27  -3  11   24.26    1.52
  27  -3 -11   21.98    1.51
 -27   3  11   20.93    2.03
 -25  -3  11    0.58    0.11
  25  -3 -11    0.29    0.13
 -25   3  11    1.00    0.32
 -23  -3  11   17.84    1.34
  23  -3 -11   14.72    1.18
 -23  -3  11   16.44    1.18
 -23   3  11   16.29    1.66
  23   3 -11   17.49    1.19
  21  -3 -11    2.88    0.57
 -21  -3  11    2.23    0.45
 -21  -3  11    2.99    0.50
  21   3 -11    2.74    0.49
 -21   3  11    2.83    0.73
 -19  -3  11   26.20    1.57
  19  -3 -11   24.51    1.46
 -19  -3  11   25.33    1.46
  19   3 -11   23.85    1.43
 -19   3  11   21.50    1.85
 -17  -3  11    0.91    0.21
 -17  -3  11    0.55    0.21
  17  -3 -11    0.30    0.17
 -17   3  11    1.19    0.11
 -17   3  11    0.90    0.36
  17   3 -11    0.63    0.23
 -15  -3  11    7.30    0.76
 -15  -3  11    8.54    0.78
  15  -3 -11    8.21    0.77
  15   3 -11    7.48    0.82
 -15   3  11    7.96    1.13
 -15   3  11    7.50    0.56
  13  -3 -11   28.85    1.44
 -13  -3  11   28.03    1.57
 -13  -3  11   27.17    1.41
 -13   3  11   28.37    2.00
 -13   3  11   29.66    1.21
  13   3 -11   26.35    1.48
  11  -3 -11   24.94    1.29
 -11  -3  11   24.94    1.46
 -11  -3  11   22.76    1.24
  11   3 -11   25.90    1.43
 -11   3  11   26.26    1.84
 -11   3  11   24.01    1.07
  -9  -3  11    9.11    0.81
  -9  -3  11    7.99    0.71
   9  -3 -11   10.21    0.58
   9  -3 -11    8.16    0.69
   9   3 -11    8.22    0.79
  -9   3  11    9.46    1.15
  -9   3  11    8.70    0.60
   7  -3 -11   38.89    1.52
   7  -3 -11   38.16    1.36
  -7  -3  11   36.98    1.56
  -7  -3  11   39.08    1.90
   7   3 -11   38.01    1.72
  -7   3  11   38.21    1.44
  -7   3  11   36.25    2.13
  -5  -3  11    2.96    0.45
   5  -3 -11    3.07    0.41
   5  -3 -11    3.16    0.37
  -5  -3  11    2.99    0.50
  -5   3  11    3.25    0.41
  -5   3  11    3.50    0.66
   5   3 -11    2.22    0.45
   3  -3 -11   87.25    2.41
  -3  -3  11   86.54    2.48
   3  -3 -11   84.75    2.29
  -3  -3  11   82.27    2.87
  -3   3  11   85.06    3.35
  -3   3  11   87.48    2.56
   3   3 -11   82.33    2.70
   1  -3 -11    0.68    0.21
   1  -3 -11    0.98    0.21
  -1  -3  11    0.58    0.21
  -1  -3  11    1.00    0.25
   1   3 -11    0.65    0.06
   1   3 -11    0.38    0.25
  -1   3  11    0.85    0.19
  -1   3  11    0.59    0.24
  -1  -3 -11   17.41    1.00
   1  -3  11   17.86    1.18
   1  -3  11   18.07    0.97
  -1  -3 -11   17.18    0.82
  -1   3 -11   17.52    1.10
   1   3  11   18.44    1.10
  -1   3 -11   18.91    0.76
   1   3  11   16.22    1.24
  -3  -3 -11   13.73    0.67
   3  -3  11   13.25    1.02
  -3  -3 -11   11.82    0.86
   3  -3  11   12.49    0.78
  -3   3 -11   14.38    0.69
   3   3  11   13.42    0.95
   3   3  11   13.55    1.10
  -3   3 -11   11.37    0.89
  -5  -3 -11   65.09    2.29
   5  -3  11   71.06    2.09
   5  -3  11   70.04    2.61
   5   3  11   68.25    2.39
   5   3  11   67.97    2.70
  -5   3 -11   68.44    2.36
  -5   3 -11   69.75    1.94
  -7  -3 -11    6.18    0.69
   7  -3  11    7.04    0.81
   7  -3  11    6.30    0.50
   7   3  11    6.55    0.83
   7   3  11    6.29    0.63
  -7   3 -11    6.07    0.48
  -7   3 -11    6.29    0.63
  -9  -3 -11    9.97    0.87
   9  -3  11   11.98    0.70
   9  -3  11   11.36    1.00
  -9   3 -11   10.42    0.83
   9   3  11   10.10    0.95
  -9   3 -11   11.97    0.75
   9   3  11    9.97    0.86
  11  -3  11    4.39    0.69
 -11  -3 -11    3.19    0.55
  11  -3  11    4.73    0.37
 -11   3 -11    4.65    0.51
  11   3  11    4.87    0.72
 -11   3 -11    5.52    0.62
  11   3  11    3.79    0.58
  13  -3  11   64.93    2.78
 -13  -3 -11   68.08    2.60
 -13   3 -11   69.83    2.34
  13   3  11   70.36    2.85
  13   3  11   67.72    2.58
 -13   3 -11   68.35    2.36
 -15  -3 -11    7.05    0.83
  15  -3  11    6.85    0.92
  15   3  11    7.17    0.87
 -15   3 -11    6.69    0.63
 -15   3 -11    6.20    0.59
  15   3  11    6.43    0.81
 -17  -3 -11    6.41    0.80
  17  -3  11    6.04    0.88
 -17   3 -11    6.82    0.61
  17   3  11    5.80    0.80
  17   3  11    5.54    0.77
 -17   3 -11    6.68    0.72
 -19  -3 -11   11.48    1.06
  19  -3  11   14.23    1.32
  19   3  11   14.70    1.20
 -19   3 -11   14.09    1.06
  19   3  11   10.67    1.01
  21  -3  11   13.19    1.29
 -21  -3 -11   12.66    1.13
  21   3  11   13.49    1.13
  21   3  11   13.94    1.21
 -21   3 -11   13.21    1.04
 -23  -3 -11    6.29    0.83
  23  -3  11    7.80    1.10
 -23   3 -11    5.84    0.75
  23   3  11    7.22    0.72
  26  -4 -11    0.99    0.18
 -26  -4  11    1.37    0.29
 -26   4  11    1.08    0.42
 -24  -4  11   23.97    1.51
  24  -4 -11   24.03    1.61
  24   4 -11   22.16    1.47
 -24   4  11   21.81    1.98
 -22  -4  11   15.49    1.18
  22  -4 -11   17.76    1.33
  22   4 -11   16.51    1.26
 -22   4  11   16.12    1.62
  20  -4 -11   18.25    1.33
 -20  -4  11   19.35    1.30
 -20   4  11   18.73    1.71
  20   4 -11   18.55    1.35
 -18  -4  11    2.11    0.45
  18  -4 -11    1.50    0.40
 -18   4  11    2.00    0.55
  18   4 -11    1.41    0.43
 -18   4  11    2.14    0.34
 -16  -4  11   55.26    2.25
  16  -4 -11   53.18    2.23
  16   4 -11   53.33    2.39
 -16   4  11   52.21    1.98
 -16   4  11   51.39    2.85
  14  -4 -11   14.07    1.05
 -14  -4  11   14.15    1.06
 -14   4  11   15.54    1.44
 -14   4  11   14.79    0.94
  14   4 -11   13.75    1.14
  12  -4 -11   19.90    1.23
 -12  -4  11   19.24    1.22
 -12   4  11   24.41    1.77
  12   4 -11   21.30    1.41
 -12   4  11   20.33    1.12
  10  -4 -11   12.06    0.90
 -10  -4  11   11.77    0.92
  10   4 -11   11.76    1.02
 -10   4  11   11.36    0.81
 -10   4  11   11.81    1.19
   8  -4 -11   74.55    2.42
   8  -4 -11   77.33    2.16
  -8  -4  11   74.27    2.53
  -8  -4  11   81.17    2.68
  -8   4  11   71.89    2.42
  -8   4  11   75.57    3.19
   8   4 -11   71.54    2.72
  -6  -4  11   92.33    3.00
   6  -4 -11   88.07    2.62
   6  -4 -11   95.55    2.54
  -6  -4  11   92.28    2.81
   6   4 -11   88.00    3.03
  -6   4  11   84.36    2.75
  -6   4  11   89.64    3.48
   4  -4 -11   18.82    0.98
  -4  -4  11   17.79    1.10
  -4  -4  11   16.28    1.07
   4  -4 -11   17.82    1.00
   4   4 -11   17.27    1.21
  -4   4  11   17.36    1.36
  -4   4  11   17.23    1.10
   2  -4 -11   28.50    1.25
  -2  -4  11   26.92    1.40
  -2  -4  11   26.76    1.36
   2  -4 -11   27.88    1.28
  -2   4  11   29.70    1.54
   2   4 -11   28.18    1.55
  -2   4  11   29.74    1.80
   0  -4  11   40.59    1.71
   0  -4  11   39.73    1.77
   0  -4 -11   40.86    1.48
   0  -4 -11   40.14    1.65
   0   4 -11   37.17    1.80
   0   4 -11   40.37    1.38
   0   4  11   40.21    1.87
   0   4  11   39.73    2.06
  -2  -4 -11   26.58    1.11
   2  -4  11   24.69    1.28
   2  -4  11   26.36    1.43
  -2  -4 -11   24.97    1.31
   2   4  11   26.70    1.49
  -2   4 -11   23.97    1.39
   2   4  11   24.05    1.52
  -2   4 -11   25.24    1.08
   4  -4  11    1.05    0.24
  -4  -4 -11    1.30    0.11
   4  -4  11    0.84    0.23
  -4  -4 -11    0.74    0.29
   4   4  11    1.08    0.25
   4   4  11    0.73    0.25
  -4   4 -11    0.96    0.34
  -4   4 -11    1.11    0.19
  -6  -4 -11    7.55    0.75
   6  -4  11    7.98    0.67
   6  -4  11    8.43    0.80
  -6   4 -11    8.60    0.62
   6   4  11    9.00    0.86
  -6   4 -11    8.09    0.77
   6   4  11    8.94    0.86
   8  -4  11    3.41    0.58
  -8  -4 -11    3.28    0.56
   8  -4  11    3.41    0.45
  -8   4 -11    4.01    0.46
  -8   4 -11    4.78    0.60
   8   4  11    3.85    0.63
   8   4  11    4.37    0.64
 -10  -4 -11   44.23    2.04
  10  -4  11   43.34    2.10
  10  -4  11   46.01    1.74
  10   4  11   44.17    2.17
  10   4  11   45.48    2.16
 -10   4 -11   43.69    1.90
 -10   4 -11   42.65    1.75
  12  -4  11    1.53    0.39
 -12  -4 -11    1.47    0.41
  12  -4  11    1.32    0.12
  12   4  11    1.71    0.39
  12   4  11    1.75    0.42
 -12   4 -11    1.91    0.35
 -12   4 -11    1.38    0.32
  14  -4  11   32.02    1.88
 -14  -4 -11   30.57    1.76
  14   4  11   30.74    1.82
 -14   4 -11   31.21    1.53
  14   4  11   32.27    1.84
 -14   4 -11   29.32    1.51
 -16  -4 -11    7.63    0.91
  16  -4  11    8.09    0.98
  16   4  11    9.06    0.86
  16   4  11    8.86    1.01
 -16   4 -11    7.82    0.72
  18  -4  11   30.81    1.96
 -18  -4 -11   30.85    1.88
  18   4  11   32.22    1.84
  18   4  11   29.07    1.85
 -18   4 -11   29.91    1.65
 -20  -4 -11    0.54    0.15
  20  -4  11    0.78    0.17
 -20   4 -11    0.09    0.06
  20   4  11    0.16    0.11
  20   4  11    0.24    0.07
 -22  -4 -11   10.84    1.18
  22  -4  11   10.93    1.11
  22   4  11   11.31    1.21
 -22   4 -11   10.53    0.96
 -23  -5  11   40.09    2.05
  23  -5 -11   37.11    2.09
  23   5 -11   39.14    2.19
 -23   5  11   39.20    2.64
 -21  -5  11   13.20    1.10
  21  -5 -11   12.14    1.11
 -21   5  11   12.95    1.32
  21   5 -11   13.27    1.20
  19  -5 -11   17.72    1.34
 -19  -5  11   19.54    1.35
  19   5 -11   18.08    1.44
 -19   5  11   18.00    1.58
 -19   5  11   19.54    1.24
 -17  -5  11    3.13    0.57
  17  -5 -11    3.26    0.61
 -17   5  11    2.37    0.39
  17   5 -11    2.90    0.61
 -17   5  11    2.00    0.51
 -15  -5  11   20.70    1.37
  15  -5 -11   20.50    1.36
 -15   5  11   18.02    1.53
  15   5 -11   19.47    1.47
 -15   5  11   21.15    1.28
  13  -5 -11    5.69    0.73
 -13  -5  11    5.82    0.76
 -13   5  11    5.80    0.66
  13   5 -11    6.73    0.91
 -13   5  11    6.64    0.92
  11  -5 -11   31.28    1.60
 -11  -5  11   30.25    1.64
 -11   5  11   27.60    1.50
  11   5 -11   30.22    1.82
 -11   5  11   28.92    1.89
  -9  -5  11    0.29    0.18
   9  -5 -11    0.52    0.20
  -9   5  11    0.49    0.12
  -9   5  11    0.74    0.18
   9   5 -11    0.47    0.22
  -7  -5  11   68.94    2.57
   7  -5 -11   72.39    2.45
  -7   5  11   69.92    2.98
  -7   5  11   68.43    2.61
   7   5 -11   69.69    2.84
  -5  -5  11    0.45    0.18
   5  -5 -11    0.60    0.20
   5   5 -11    0.74    0.35
  -5   5  11    0.71    0.24
  -5   5  11    0.84    0.25
   3  -5 -11   83.64    2.57
  -3  -5  11   81.56    2.80
   3  -5 -11   84.16    2.60
  -3   5  11   76.38    2.94
  -3   5  11   85.31    3.24
   3   5 -11   84.22    3.08
   1  -5 -11    1.62    0.33
   1  -5 -11    1.94    0.36
  -1  -5  11    2.06    0.46
  -1   5  11    1.34    0.37
  -1   5  11    1.71    0.39
   1   5 -11    1.41    0.40
  -1  -5 -11   54.52    2.13
   1  -5  11   54.56    2.16
  -1  -5 -11   55.53    1.90
  -1   5 -11   56.77    1.97
   1   5  11   54.46    2.51
  -1   5 -11   53.70    2.36
   1   5  11   52.92    2.38
   3  -5  11    0.49    0.23
  -3  -5 -11    0.50    0.15
   3   5  11    0.44    0.17
  -3   5 -11    0.37    0.20
  -3   5 -11    0.46    0.07
   3   5  11    0.66    0.11
   5  -5  11   42.13    1.84
   5  -5  11   40.34    1.86
  -5  -5 -11   40.55    1.91
  -5   5 -11   38.53    1.91
  -5   5 -11   41.70    1.69
   5   5  11   40.08    2.01
   5   5  11   41.18    2.12
  -7  -5 -11    3.46    0.60
   7  -5  11    5.09    0.63
   7  -5  11    4.41    0.58
  -7   5 -11    4.85    0.55
   7   5  11    4.01    0.71
  -7   5 -11    5.71    0.71
   7   5  11    4.44    0.60
   9  -5  11   86.06    2.82
   9  -5  11   85.41    3.11
  -9  -5 -11   85.47    3.11
  -9   5 -11   90.86    3.07
  -9   5 -11   87.98    2.83
   9   5  11   88.20    3.21
   9   5  11   84.01    3.34
 -11  -5 -11    5.09    0.76
  11  -5  11    5.14    0.50
  11  -5  11    5.51    0.70
  11   5  11    5.56    0.85
 -11   5 -11    4.66    0.57
 -11   5 -11    5.65    0.64
 -13  -5 -11   47.15    2.34
  13  -5  11   46.59    1.91
  13  -5  11   47.29    2.29
 -13   5 -11   45.50    2.04
  13   5  11   46.95    2.44
  15  -5  11   14.18    1.20
 -15  -5 -11   13.06    1.19
 -15   5 -11   13.66    1.03
  15   5  11   13.31    1.26
  17  -5  11   43.67    2.36
 -17  -5 -11   47.55    2.47
 -17   5 -11   46.60    2.17
  17   5  11   46.37    2.52
 -19  -5 -11    6.16    0.88
  19  -5  11    6.62    0.90
  19   5  11    5.59    0.86
 -19   5 -11    4.80    0.68
  20  -6 -11   26.91    1.78
 -20  -6  11   30.45    1.82
 -20   6  11   24.19    1.90
 -20   6  11   30.75    1.74
  20   6 -11   30.17    2.01
  18  -6 -11    2.14    0.46
 -18  -6  11    1.79    0.40
 -18   6  11    2.01    0.39
  18   6 -11    2.00    0.48
 -18   6  11    1.06    0.32
 -16  -6  11   34.01    1.89
  16  -6 -11   34.19    1.92
  16   6 -11   30.66    2.02
 -16   6  11   34.66    1.86
 -16   6  11   33.24    2.09
 -14  -6  11   10.55    1.00
  14  -6 -11    9.83    1.02
 -14   6  11    9.89    1.02
  14   6 -11   10.63    1.22
 -14   6  11    9.59    0.88
  12  -6 -11   31.19    1.73
 -12  -6  11   31.06    1.80
 -12   6  11   31.60    1.77
  12   6 -11   29.70    1.96
 -12   6  11   30.25    1.90
  10  -6 -11   31.81    1.70
 -10  -6  11   29.52    1.73
 -10   6  11   30.52    1.83
  10   6 -11   31.03    1.96
 -10   6  11   30.55    1.75
   8  -6 -11   50.27    2.15
  -8  -6  11   51.82    2.32
   8   6 -11   53.67    2.61
  -8   6  11   49.47    2.40
  -8   6  11   51.11    2.40
   6  -6 -11   50.97    2.12
  -6  -6  11   48.44    2.23
   6   6 -11   51.66    2.55
  -6   6  11   51.10    2.38
  -6   6  11   51.90    2.42
  -4  -6  11   28.31    1.66
   4  -6 -11   28.21    1.49
  -4   6  11   27.04    1.71
   4   6 -11   26.45    1.78
   2  -6 -11   36.92    1.66
  -2  -6  11   34.58    1.83
   2  -6 -11   35.12    1.66
  -2   6  11   35.13    2.02
   2   6 -11   36.21    2.05
   0  -6  11   14.77    1.13
   0  -6 -11   13.99    1.02
   0  -6 -11   14.14    0.94
   0   6  11   13.00    1.18
   0   6 -11   14.41    1.24
  -2  -6 -11   25.89    1.29
  -2  -6 -11   27.95    1.57
   2  -6  11   27.13    1.58
  -2   6 -11   30.02    1.80
   2   6  11   25.68    1.71
  -4  -6 -11    3.39    0.57
   4  -6  11    3.17    0.56
  -4   6 -11    2.89    0.28
  -4   6 -11    3.55    0.62
   4   6  11    3.29    0.65
  -6  -6 -11   28.21    1.67
   6  -6  11   27.78    1.56
  -6   6 -11   26.98    1.48
  -6   6 -11   27.58    1.67
   6   6  11   25.97    1.76
  -8  -6 -11    3.24    0.61
   8  -6  11    3.82    0.55
  -8   6 -11    4.12    0.54
   8   6  11    3.56    0.69
  -8   6 -11    4.29    0.62
  10  -6  11   48.52    2.13
 -10  -6 -11   49.46    2.43
 -10   6 -11   47.91    2.16
  10   6  11   47.39    2.60
  12  -6  11    6.11    0.53
 -12  -6 -11    5.77    0.84
  12   6  11    5.42    0.91
 -12   6 -11    4.90    0.63
 -14  -6 -11   43.78    2.39
  14   6  11   41.47    2.49
 -14   6 -11   35.60    1.93
 -16  -6 -11    3.81    0.72
 -16   6 -11    2.86    0.54
  16   6  11    4.92    0.85
  15  -7 -11   15.31    1.26
 -15  -7  11   16.08    1.30
 -15   7  11   16.87    1.32
  15   7 -11   15.39    1.43
 -13  -7  11    8.75    1.02
  13  -7 -11    7.03    0.86
  13   7 -11    7.35    1.04
 -13   7  11    8.53    0.98
  11  -7 -11   24.27    1.57
 -11  -7  11   24.96    1.66
  11   7 -11   23.42    1.78
 -11   7  11   24.65    1.68
   9  -7 -11    1.07    0.29
  -9  -7  11    1.13    0.30
  -9   7  11    1.05    0.22
   9   7 -11    1.06    0.29
  -7  -7  11   53.84    2.51
   7  -7 -11   52.76    2.31
  -7   7  11   53.07    2.63
   7   7 -11   55.87    2.84
   5  -7 -11    0.48    0.14
  -5  -7  11    0.82    0.28
  -5   7  11    0.59    0.13
   5   7 -11    1.03    0.32
  -3  -7  11   58.89    2.65
   3  -7 -11   65.94    2.53
   3   7 -11   64.68    3.05
  -3   7  11   63.14    2.94
   1  -7 -11    1.93    0.37
  -1  -7  11    1.45    0.39
  -1   7  11    1.13    0.32
   1   7 -11    1.55    0.34
   1  -7  11   55.58    2.52
  -1  -7 -11   55.96    2.44
   1   7  11   56.96    2.78
  -1   7 -11   57.39    2.78
   3  -7  11    1.05    0.29
  -3  -7 -11    0.83    0.13
   3   7  11    0.85    0.22
  -3   7 -11    1.58    0.37
  -5  -7 -11   36.90    2.02
   5  -7  11   36.40    1.97
  -5   7 -11   39.05    2.15
   5   7  11   37.42    2.26
  -7  -7 -11    5.67    0.78
   7  -7  11    7.29    0.81
  -7   7 -11    6.21    0.74
   7   7  11    6.54    0.97
  -7   7 -11    7.72    0.78
  -9  -7 -11   44.87    2.40
   9  -7  11   45.11    2.15
  -9   7 -11   44.38    2.21
   9   7  11   40.54    2.47
 -11  -7 -11    3.09    0.60
  11  -7  11    2.57    0.17
  11   7  11    2.14    0.50
 -11   7 -11    1.78    0.24
  13  -7  11   55.85    2.43
 -13  -7 -11   58.80    2.91
  13   7  11   54.44    3.03
 -13   7 -11   53.06    2.60
  -8  -8  11   11.58    1.10
   8  -8 -11   12.69    1.07
  -8   8  11   14.45    1.27
   8   8 -11   11.19    1.30
   6  -8 -11   25.27    1.58
  -6  -8  11   23.56    1.65
   6   8 -11   23.99    1.83
  -6   8  11   22.37    1.70
  -4  -8  11   26.01    1.77
   4  -8 -11   28.06    1.63
  -4   8  11   29.80    1.98
   4   8 -11   30.36    2.08
   2  -8 -11   38.28    1.93
  -2  -8  11   37.81    2.15
  -2   8  11   41.67    2.46
   2   8 -11   39.54    2.39
   0  -8  11   10.81    1.04
   0   8 -11   10.17    1.15
   0   8  11   11.80    1.29
   2  -8  11   10.11    0.99
   2   8  11   11.51    1.13
  -2   8 -11   12.77    1.17
  -4  -8 -11    2.40    0.51
   4  -8  11    2.77    0.47
   4   8  11    3.27    0.62
  -4   8 -11    2.84    0.44
 -28   0  12   20.17    1.87
  28   0 -12   21.07    1.40
 -26   0  12    3.53    0.78
  26   0 -12    5.44    0.74
  24   0 -12   52.35    2.30
 -24   0  12   50.29    2.93
 -22   0  12   25.75    1.99
  22   0 -12   24.59    1.48
 -20   0  12   56.22    3.04
  20   0 -12   57.60    2.30
  18   0 -12    6.26    0.77
  18   0 -12    5.44    0.42
  18   0 -12    4.85    0.45
 -18   0  12    6.19    1.01
  16   0 -12  136.12    3.20
  16   0 -12  135.17    3.69
  16   0 -12  135.54    3.32
 -16   0  12  140.70    4.92
  14   0 -12    0.90    0.20
 -14   0  12    1.12    0.42
 -12   0  12  161.42    5.24
  12   0 -12  163.41    3.80
 -12   0  12  164.61    3.95
  10   0 -12    1.07    0.24
 -10   0  12    0.30    0.17
 -10   0  12    0.87    0.33
  -8   0  12  201.21    5.90
  -8   0  12  206.72    4.43
   8   0 -12  204.40    4.49
  -6   0  12    3.19    0.41
  -6   0  12    2.56    0.63
   6   0 -12    2.02    0.36
  -4   0  12  127.06    2.98
  -4   0  12  122.92    4.12
   4   0 -12  128.77    3.22
  -2   0  12    0.44    0.24
  -2   0  12    0.47    0.13
   2   0 -12    0.25    0.17
   0   0  12   13.00    1.11
   0   0  12   15.36    0.75
   0   0  12   14.62    0.56
   0   0 -12   15.56    0.94
   2   0  12   10.53    1.00
  -2   0 -12    9.81    0.75
   2   0  12   10.65    0.58
  -2   0 -12   10.80    0.51
  -4   0 -12   52.31    1.49
  -4   0 -12   53.14    1.92
   4   0  12   56.05    1.48
   4   0  12   52.55    2.37
   6   0  12    3.98    0.69
   6   0  12    4.19    0.28
  -6   0 -12    4.21    0.35
  -6   0 -12    3.41    0.51
  -8   0 -12   95.96    2.47
   8   0  12   93.85    3.40
  -8   0 -12   95.81    2.86
 -10   0 -12   41.92    1.76
 -10   0 -12   40.79    1.51
  10   0  12   38.81    2.08
  12   0  12  171.45    5.01
 -12   0 -12  165.35    3.95
 -12   0 -12  166.49    4.26
  14   0  12    4.25    0.76
 -14   0 -12    4.83    0.63
 -14   0 -12    5.36    0.57
 -16   0 -12   29.92    1.48
 -16   0 -12   30.88    1.59
  16   0  12   27.57    1.82
  18   0  12   33.23    2.05
 -18   0 -12   33.06    1.70
 -18   0 -12   31.43    1.60
 -20   0 -12   47.04    2.10
 -20   0 -12   49.29    2.16
  20   0  12   45.94    2.55
 -22   0 -12   13.74    1.05
  22   0  12   13.57    1.33
 -22   0 -12   13.45    1.05
 -24   0 -12   10.20    0.91
  24   0  12   13.20    1.35
 -24   0 -12   11.22    0.92
 -29  -1  12   28.87    2.17
  29  -1 -12   30.00    1.74
  29   1 -12   27.54    1.62
 -29   1  12   29.16    2.41
  27  -1 -12   11.56    1.00
 -27  -1  12   10.55    1.31
 -27   1  12   11.10    1.50
  27   1 -12    9.86    0.90
 -25  -1  12   43.41    2.62
  25  -1 -12   42.74    2.11
  25   1 -12   45.11    2.11
 -25   1  12   42.07    2.81
  23  -1 -12    0.69    0.23
 -23  -1  12    1.09    0.31
  23   1 -12    0.89    0.32
  23   1 -12    0.78    0.17
 -23   1  12    1.05    0.31
 -21  -1  12   60.54    3.02
  21  -1 -12   59.63    2.41
 -21   1  12   60.87    3.28
  21   1 -12   60.62    2.46
  21   1 -12   58.42    1.71
 -19  -1  12    5.11    0.67
  19  -1 -12    6.36    0.77
 -19  -1  12    5.91    0.93
  19   1 -12    6.89    0.56
 -19   1  12    6.81    1.11
  17  -1 -12   56.92    2.19
 -17  -1  12   57.52    2.83
 -17  -1  12   55.41    2.15
 -17   1  12   55.19    3.01
  17   1 -12   53.51    1.96
 -15  -1  12    9.69    1.15
  15  -1 -12    8.36    0.77
  15  -1 -12    9.88    0.60
 -15  -1  12    8.49    0.76
  15   1 -12    9.37    0.71
 -15   1  12    8.89    1.22
  13  -1 -12   67.53    1.97
  13  -1 -12   67.11    2.06
  13  -1 -12   66.08    2.26
 -13  -1  12   65.04    2.24
 -13  -1  12   68.98    3.04
 -13   1  12   63.00    3.12
  13   1 -12   67.10    2.20
  11  -1 -12  102.36    2.69
 -11  -1  12   98.67    2.81
  11  -1 -12  101.72    2.61
  11  -1 -12  106.22    2.88
 -11  -1  12   99.15    3.73
  11   1 -12  100.62    2.85
 -11   1  12  101.66    4.02
   9  -1 -12   59.32    1.89
   9  -1 -12   59.70    1.97
  -9  -1  12   61.70    2.00
  -9  -1  12   58.87    2.74
   9  -1 -12   58.16    1.83
   9   1 -12   59.15    2.01
  -9   1  12   56.55    2.81
   7  -1 -12   61.73    1.95
  -7  -1  12   61.42    2.79
   7  -1 -12   62.56    1.95
   7  -1 -12   64.73    1.95
  -7  -1  12   59.45    1.93
   7   1 -12   61.47    2.07
  -7   1  12   61.69    2.92
  -5  -1  12   67.48    2.83
  -5  -1  12   70.06    2.06
   5  -1 -12   70.71    2.10
   5  -1 -12   67.02    2.05
   5  -1 -12   66.73    1.98
  -5   1  12   65.14    2.94
   5   1 -12   68.05    2.22
   3  -1 -12   97.89    2.63
   3  -1 -12   98.47    2.46
  -3  -1  12   96.80    3.43
  -3  -1  12  103.72    2.57
   3  -1 -12  102.83    2.71
   3   1 -12  100.65    2.81
  -3   1  12   93.33    3.51
   1  -1 -12   46.50    1.62
   1  -1 -12   44.43    1.42
   1  -1 -12   45.46    1.65
  -1  -1  12   45.19    1.48
  -1  -1  12   42.08    2.07
  -1   1  12   43.24    2.18
   1   1 -12   43.94    1.72
  -1   1  12   46.56    1.38
  -1  -1 -12   27.30    1.20
  -1  -1 -12   29.24    1.03
   1  -1  12   27.74    1.63
   1  -1  12   29.52    1.11
  -1  -1 -12   28.33    1.29
   1   1  12   29.39    1.09
   1   1  12   27.80    1.67
  -1   1 -12   29.38    1.37
  -3  -1 -12   44.40    1.71
  -3  -1 -12   44.09    1.27
  -3  -1 -12   43.68    1.59
   3  -1  12   44.05    1.38
   3  -1  12   45.28    2.15
   3   1  12   45.88    1.49
  -3   1 -12   46.96    1.27
   3   1  12   44.94    2.17
  -3   1 -12   45.38    1.77
  -5  -1 -12  144.51    2.83
   5  -1  12  145.00    4.35
  -5  -1 -12  144.53    3.68
   5  -1  12  140.70    3.00
  -5  -1 -12  143.08    3.46
   5   1  12  143.50    4.39
   5   1  12  145.31    3.31
  -5   1 -12  144.64    3.72
  -5   1 -12  147.05    3.06
  -7  -1 -12   80.69    2.56
   7  -1  12   78.61    3.03
  -7  -1 -12   82.41    2.31
   7  -1  12   82.14    1.93
  -7   1 -12   80.22    2.56
   7   1  12   77.09    3.03
  -7   1 -12   81.76    2.11
  -9  -1 -12  112.84    3.21
  -9  -1 -12  113.65    2.94
   9  -1  12  110.90    3.76
  -9   1 -12  111.28    2.75
  -9   1 -12  111.27    3.18
   9   1  12  109.25    3.77
 -11  -1 -12   21.93    1.13
 -11  -1 -12   20.45    1.22
  11  -1  12   20.21    1.47
 -11   1 -12   21.23    1.23
 -11   1 -12   22.29    1.06
  11   1  12   21.01    1.52
 -13  -1 -12  127.86    3.45
 -13  -1 -12  128.92    3.67
  13  -1  12  125.25    4.20
 -13   1 -12  127.50    3.57
 -13   1 -12  124.98    3.27
  13   1  12  129.07    4.25
 -15  -1 -12    2.47    0.50
  15  -1  12    2.83    0.64
 -15  -1 -12    3.18    0.47
 -15   1 -12    3.66    0.49
 -15   1 -12    2.78    0.46
  15   1  12    3.47    0.68
  17  -1  12   35.50    2.14
 -17  -1 -12   37.55    1.84
 -17  -1 -12   35.33    1.71
 -17   1 -12   37.61    1.75
 -17   1 -12   37.47    1.70
  17   1  12   37.78    2.15
 -19  -1 -12    4.63    0.62
 -19  -1 -12    5.25    0.69
  19  -1  12    4.30    0.79
 -19   1 -12    4.90    0.62
 -19   1 -12    5.29    0.63
  19   1  12    5.27    0.84
 -21  -1 -12   49.75    2.24
 -21  -1 -12   49.57    2.27
  21  -1  12   50.26    2.73
 -21   1 -12   49.55    2.21
  21   1  12   47.01    2.57
 -21   1 -12   52.21    2.20
  23  -1  12    0.69    0.25
 -23  -1 -12    1.03    0.18
 -23  -1 -12    0.98    0.22
 -23   1 -12    0.81    0.19
  23   1  12    1.16    0.32
  28  -2 -12   26.79    1.68
 -28  -2  12   24.74    1.88
 -28   2  12   24.83    2.27
  28   2 -12   28.62    1.64
 -26  -2  12   15.16    1.37
  26  -2 -12   16.77    1.28
 -26   2  12   13.78    1.71
  26   2 -12   16.72    1.24
  26   2 -12   14.91    0.66
  24  -2 -12   28.74    1.71
 -24  -2  12   28.41    1.66
 -24  -2  12   28.75    1.93
 -24   2  12   27.41    2.26
  22  -2 -12    3.81    0.63
 -22  -2  12    4.49    0.66
 -22  -2  12    3.71    0.67
 -22   2  12    4.44    0.93
  22   2 -12    4.33    0.41
  20  -2 -12   35.44    1.79
 -20  -2  12   35.48    2.09
 -20  -2  12   34.02    1.73
  20   2 -12   36.76    1.71
 -20   2  12   35.25    2.48
 -18  -2  12   28.21    1.80
 -18  -2  12   26.76    1.48
  18  -2 -12   29.04    1.56
  18   2 -12   24.97    1.38
 -18   2  12   26.95    2.11
  16  -2 -12   71.47    2.51
 -16  -2  12   73.28    3.06
 -16  -2  12   71.29    2.48
 -16   2  12   67.28    3.42
  16   2 -12   70.24    2.46
 -14  -2  12    5.66    0.81
  14  -2 -12    4.94    0.61
 -14  -2  12    4.92    0.64
  14   2 -12    5.13    0.63
 -14   2  12    5.65    1.00
 -12  -2  12  196.67    5.46
  12  -2 -12  190.61    4.42
 -12  -2  12  185.66    4.41
  12  -2 -12  185.24    3.96
  12   2 -12  182.99    4.53
 -12   2  12  182.91    5.87
  10  -2 -12    0.90    0.30
 -10  -2  12    1.48    0.38
 -10  -2  12    0.98    0.30
  10  -2 -12    1.42    0.23
 -10   2  12    1.26    0.53
  10   2 -12    0.81    0.31
  -8  -2  12  142.17    4.46
   8  -2 -12  132.67    3.36
   8  -2 -12  145.17    3.31
  -8  -2  12  145.53    3.53
   8   2 -12  143.81    3.74
  -8   2  12  141.48    4.80
   6  -2 -12    6.19    0.54
  -6  -2  12    5.80    0.80
   6  -2 -12    5.29    0.47
  -6  -2  12    5.20    0.56
  -6   2  12    5.56    0.92
   6   2 -12    5.15    0.63
  -6   2  12    5.35    0.36
  -4  -2  12   42.39    1.57
   4  -2 -12   44.29    1.59
   4  -2 -12   44.47    1.52
  -4  -2  12   42.98    2.09
   4   2 -12   44.17    1.77
  -4   2  12   44.20    1.40
  -4   2  12   45.11    2.39
   2  -2 -12    3.88    0.48
  -2  -2  12    4.50    0.65
  -2  -2  12    4.23    0.48
   2  -2 -12    4.10    0.38
  -2   2  12    4.37    0.75
  -2   2  12    3.94    0.36
   2   2 -12    3.51    0.53
   0  -2 -12   35.43    1.20
   0  -2 -12   33.90    1.43
   0  -2  12   34.65    1.80
   0  -2  12   35.06    1.32
   0   2  12   37.44    1.44
   0   2 -12   34.26    1.55
   0   2  12   32.62    1.87
   2  -2  12   12.35    1.04
  -2  -2 -12   10.75    0.80
   2  -2  12   10.61    0.66
  -2  -2 -12   11.62    0.60
   2   2  12   12.70    0.80
   2   2  12   10.80    1.03
  -2   2 -12   10.84    0.86
   4  -2  12   20.34    1.39
   4  -2  12   19.85    0.92
  -4  -2 -12   19.77    1.12
  -4  -2 -12   21.90    0.80
  -4   2 -12   21.04    0.82
  -4   2 -12   20.04    1.17
   4   2  12   20.74    1.46
   4   2  12   21.94    1.10
  -6  -2 -12   10.91    0.85
   6  -2  12   12.11    0.66
   6  -2  12    9.96    0.97
  -6   2 -12   11.65    0.63
   6   2  12   11.98    0.80
   6   2  12   10.94    1.05
  -6   2 -12   10.64    0.86
   8  -2  12  139.53    4.32
  -8  -2 -12  139.03    3.78
   8  -2  12  141.21    3.08
   8   2  12  143.41    3.66
  -8   2 -12  143.57    3.80
  -8   2 -12  144.12    3.27
   8   2  12  144.01    4.44
  10  -2  12   10.01    1.00
 -10  -2 -12    9.46    0.84
 -10   2 -12   10.11    0.83
  10   2  12   10.93    0.83
  10   2  12   10.31    1.04
 -10   2 -12    9.26    0.64
 -12  -2 -12   51.79    2.15
  12  -2  12   55.52    2.54
 -12  -2 -12   53.80    2.07
 -12   2 -12   50.14    2.02
  12   2  12   54.11    2.53
 -12   2 -12   49.51    1.82
 -14  -2 -12   21.96    1.39
  14  -2  12   24.37    1.66
 -14  -2 -12   24.45    1.38
 -14   2 -12   25.03    1.27
 -14   2 -12   24.19    1.34
  14   2  12   24.67    1.67
 -16  -2 -12   68.65    2.66
  16  -2  12   63.97    2.95
 -16  -2 -12   66.72    2.55
 -16   2 -12   68.68    2.45
 -16   2 -12   69.36    2.43
  16   2  12   66.07    2.94
 -18  -2 -12    7.23    0.79
 -18  -2 -12    6.32    0.80
  18  -2  12    6.52    0.96
  18   2  12    6.37    0.91
 -18   2 -12    6.17    0.61
 -18   2 -12    6.18    0.68
 -20  -2 -12    7.80    0.90
  20  -2  12    7.20    1.03
 -20  -2 -12    8.25    0.80
 -20   2 -12    8.16    0.76
  20   2  12    8.52    1.04
 -22  -2 -12   18.24    1.36
  22  -2  12   18.53    1.62
 -22  -2 -12   18.95    1.34
 -22   2 -12   17.72    1.26
  22   2  12   17.72    1.43
 -24  -2 -12   21.32    1.51
  24  -2  12   23.01    1.87
 -24  -2 -12   24.20    1.60
 -24   2 -12   19.87    1.39
  24   2  12   20.14    1.53
  27  -3 -12    1.00    0.18
 -27   3  12    0.66    0.22
 -25  -3  12   34.36    1.86
  25  -3 -12   35.80    1.98
 -25   3  12   31.14    2.51
  25   3 -12   35.28    1.82
  23  -3 -12    2.44    0.56
 -23  -3  12    2.65    0.50
  23   3 -12    3.19    0.31
 -23   3  12    3.14    0.79
  21  -3 -12   35.18    1.88
 -21  -3  12   38.75    2.05
 -21  -3  12   34.99    1.82
  21   3 -12   35.11    1.82
 -21   3  12   31.06    2.38
 -19  -3  12    1.60    0.41
  19  -3 -12    1.31    0.39
 -19  -3  12    1.68    0.29
  19   3 -12    1.59    0.35
 -19   3  12    1.55    0.46
 -17  -3  12   44.36    2.17
  17  -3 -12   44.32    1.99
 -17  -3  12   41.83    1.91
  17   3 -12   41.72    1.97
 -17   3  12   38.79    2.57
 -15  -3  12   29.66    1.70
  15  -3 -12   25.75    1.44
 -15  -3  12   26.10    1.44
 -15   3  12   26.13    2.02
  15   3 -12   25.41    1.50
 -13  -3  12   38.63    1.73
  13  -3 -12   36.78    1.67
 -13  -3  12   38.15    1.95
 -13   3  12   35.54    2.31
  13   3 -12   39.09    1.86
 -11  -3  12   13.32    0.96
 -11  -3  12   15.00    1.13
  11  -3 -12   14.36    0.97
 -11   3  12   14.29    0.77
 -11   3  12   14.72    1.41
  11   3 -12   14.52    1.08
   9  -3 -12   18.49    0.87
  -9  -3  12   16.54    1.04
   9  -3 -12   17.17    1.03
  -9  -3  12   15.86    1.18
  -9   3  12   17.39    0.86
  -9   3  12   16.42    1.48
   9   3 -12   17.45    1.18
   7  -3 -12   80.46    2.20
  -7  -3  12   74.68    2.90
  -7  -3  12   70.71    2.34
   7  -3 -12   74.88    2.29
   7   3 -12   71.49    2.57
  -7   3  12   72.75    3.22
  -7   3  12   74.77    2.16
  -5  -3  12   46.75    2.13
   5  -3 -12   47.05    1.67
   5  -3 -12   45.53    1.61
  -5  -3  12   44.84    1.73
   5   3 -12   41.99    1.88
  -5   3  12   42.04    2.36
  -5   3  12   44.16    1.63
   3  -3 -12   13.03    0.78
  -3  -3  12   11.67    0.98
   3  -3 -12   13.15    0.82
  -3  -3  12   11.76    0.83
   3   3 -12   12.39    0.96
  -3   3  12   11.99    0.79
  -3   3  12   12.84    1.25
   1  -3 -12   13.50    0.76
  -1  -3  12   13.61    0.87
  -1  -3  12   14.07    1.06
   1  -3 -12   13.48    0.88
  -1   3  12   12.84    0.87
  -1   3  12   11.61    1.14
   1   3 -12   12.46    0.96
  -1  -3 -12   96.97    2.40
   1  -3  12   94.27    2.62
  -1  -3 -12   95.73    2.78
   1  -3  12   94.10    3.20
   1   3  12   90.05    3.40
  -1   3 -12   95.79    2.97
   1   3  12   94.64    2.89
   3  -3  12   53.22    1.80
   3  -3  12   53.27    2.30
  -3  -3 -12   53.52    1.56
  -3  -3 -12   52.75    1.99
   3   3  12   54.23    2.10
   3   3  12   53.82    2.44
  -3   3 -12   49.92    2.04
   5  -3  12   34.03    1.36
   5  -3  12   33.45    1.81
  -5  -3 -12   30.87    1.53
   5   3  12   34.45    1.63
   5   3  12   33.98    1.89
  -5   3 -12   35.10    1.24
  -5   3 -12   32.63    1.60
  -7  -3 -12   12.85    0.98
   7  -3  12   14.19    0.81
   7  -3  12   14.45    1.16
  -7   3 -12   12.97    0.97
  -7   3 -12   14.42    0.78
   7   3  12   14.40    1.01
   7   3  12   12.53    1.12
   9  -3  12   75.94    2.20
   9  -3  12   78.05    3.05
  -9  -3 -12   75.06    2.68
  -9   3 -12   78.29    2.30
   9   3  12   79.35    2.73
   9   3  12   79.04    3.10
  -9   3 -12   79.31    2.65
 -11  -3 -12   27.55    1.56
  11  -3  12   31.38    1.83
 -11   3 -12   29.13    1.50
  11   3  12   30.47    1.62
 -11   3 -12   30.88    1.37
  11   3  12   29.51    1.82
 -13  -3 -12   35.92    1.85
  13  -3  12   37.94    2.11
  13   3  12   37.14    1.85
 -13   3 -12   34.94    1.56
 -13   3 -12   36.52    1.71
  13   3  12   37.95    2.10
 -15  -3 -12    0.44    0.19
  15  -3  12    0.93    0.33
  15   3  12    0.60    0.19
 -15   3 -12    0.63    0.15
 -15   3 -12    0.34    0.10
  15   3  12    0.56    0.14
  17  -3  12   38.16    2.24
 -17  -3 -12   38.05    2.01
  17   3  12   37.45    1.98
  17   3  12   37.89    2.16
 -17   3 -12   39.00    1.79
 -17   3 -12   39.11    1.81
  19  -3  12    0.57    0.26
 -19  -3 -12    1.54    0.38
  19   3  12    0.88    0.26
 -21  -3 -12   24.10    1.63
  21  -3  12   22.52    1.79
  21   3  12   23.60    1.65
 -21   3 -12   24.23    1.49
  21   3  12   22.86    1.59
  23  -3  12    4.08    0.81
 -23  -3 -12    4.06    0.68
  23   3  12    5.08    0.76
 -23   3 -12    3.57    0.63
  23   3  12    4.73    0.70
  24  -4 -12    8.24    0.97
 -24  -4  12    9.54    0.99
 -24   4  12    8.17    1.27
  24   4 -12    8.02    0.71
  22  -4 -12   23.98    1.59
 -22  -4  12   22.50    1.47
  22   4 -12   22.74    1.51
 -22   4  12   23.09    2.00
 -20  -4  12   27.30    1.61
  20  -4 -12   24.83    1.60
 -20   4  12   27.88    2.17
  20   4 -12   27.06    1.68
 -18  -4  12    0.86    0.21
  18  -4 -12    0.25    0.16
 -18   4  12    0.52    0.17
  18   4 -12    0.56    0.22
  16  -4 -12   24.12    1.47
 -16  -4  12   24.27    1.46
  16   4 -12   24.68    1.60
 -16   4  12   25.74    1.99
 -14  -4  12   14.10    1.07
  14  -4 -12   12.50    1.01
 -14   4  12   13.96    0.88
  14   4 -12   14.44    1.19
 -14   4  12   13.86    1.39
  12  -4 -12   41.78    1.87
 -12  -4  12   45.80    1.98
  12   4 -12   43.40    2.12
 -12   4  12   43.16    1.70
 -12   4  12   46.62    2.62
 -10  -4  12    8.53    0.80
  10  -4 -12    7.51    0.72
 -10   4  12   10.14    1.20
 -10   4  12    8.44    0.68
  10   4 -12    8.72    0.95
   8  -4 -12   44.40    1.80
  -8  -4  12   43.72    1.86
  -8  -4  12   46.38    2.02
   8  -4 -12   46.17    1.60
  -8   4  12   46.28    1.82
  -8   4  12   44.91    2.48
   8   4 -12   42.25    2.05
  -6  -4  12    4.75    0.62
   6  -4 -12    5.61    0.46
  -6  -4  12    5.00    0.52
   6  -4 -12    4.40    0.55
  -6   4  12    5.75    0.88
   6   4 -12    4.63    0.70
  -6   4  12    4.26    0.51
  -4  -4  12   32.65    1.65
   4  -4 -12   30.18    1.37
  -4  -4  12   31.65    1.52
   4  -4 -12   30.31    1.34
   4   4 -12   30.04    1.65
  -4   4  12   30.89    1.51
  -4   4  12   29.36    1.90
   2  -4 -12    8.20    0.64
   2  -4 -12    8.76    0.70
  -2  -4  12    9.38    0.79
  -2  -4  12    8.04    0.74
  -2   4  12    9.08    1.08
   2   4 -12    8.40    0.85
  -2   4  12   10.25    0.84
   0  -4  12   18.48    1.19
   0  -4 -12   17.65    1.08
   0  -4  12   17.16    1.07
   0  -4 -12   18.57    0.95
   0   4 -12   16.65    1.18
   0   4  12   19.85    1.24
   0   4  12   17.22    1.35
   2  -4  12    3.42    0.53
  -2  -4 -12    3.59    0.33
   2  -4  12    2.97    0.46
  -2  -4 -12    2.72    0.48
   2   4  12    3.18    0.59
   2   4  12    3.45    0.54
  -2   4 -12    3.12    0.57
   4  -4  12   26.66    1.33
  -4  -4 -12   24.83    1.39
   4  -4  12   28.59    1.60
  -4   4 -12   26.73    1.51
   4   4  12   28.74    1.73
   4   4  12   27.68    1.61
   6  -4  12   13.86    0.89
  -6  -4 -12   12.51    1.00
   6  -4  12   12.45    1.04
   6   4  12   14.38    1.12
  -6   4 -12   13.69    0.81
  -6   4 -12   12.67    1.00
   6   4  12   11.79    1.06
   8  -4  12   25.55    1.59
  -8  -4 -12   24.80    1.47
   8  -4  12   23.80    1.21
  -8   4 -12   25.30    1.44
   8   4  12   25.37    1.56
  -8   4 -12   25.52    1.22
   8   4  12   26.20    1.63
  10  -4  12    4.49    0.69
 -10  -4 -12    4.63    0.69
  10  -4  12    4.68    0.42
  10   4  12    3.68    0.62
 -10   4 -12    4.20    0.49
 -10   4 -12    4.14    0.58
  10   4  12    4.57    0.70
  12  -4  12   31.15    1.86
 -12  -4 -12   29.35    1.71
  12   4  12   33.97    1.93
 -12   4 -12   34.11    1.69
 -12   4 -12   33.20    1.54
  12   4  12   32.99    1.85
 -14  -4 -12    6.73    0.85
  14  -4  12    8.36    0.98
  14   4  12    6.63    0.87
 -14   4 -12    6.44    0.63
 -14   4 -12    6.65    0.62
  14   4  12    6.20    0.80
 -16  -4 -12   13.02    1.17
  16  -4  12   11.92    1.13
  16   4  12   13.83    1.14
 -16   4 -12   12.68    0.96
  16   4  12   11.89    1.09
 -18  -4 -12   12.24    1.14
  18  -4  12   11.94    1.18
 -18   4 -12   11.32    0.92
  18   4  12   12.58    1.06
  18   4  12   13.14    1.17
  20  -4  12    7.37    0.99
 -20  -4 -12    7.46    0.96
  20   4  12    7.97    0.79
 -20   4 -12    6.83    0.79
  20   4  12    7.64    0.97
  23  -5 -12    0.72    0.21
 -23  -5  12    0.60    0.11
  21  -5 -12   16.44    1.32
 -21  -5  12   17.56    1.32
  21   5 -12   17.02    1.37
 -21   5  12   12.75    1.33
 -19  -5  12    0.80    0.26
  19  -5 -12    0.55    0.17
  19   5 -12    0.45    0.16
 -19   5  12    0.76    0.14
  17  -5 -12   11.19    1.03
 -17  -5  12   13.94    1.14
 -17   5  12   12.42    1.27
  17   5 -12   12.22    1.17
  15  -5 -12    0.88    0.28
 -15  -5  12    0.89    0.29
 -15   5  12    0.56    0.15
  15   5 -12    0.24    0.11
 -15   5  12    1.02    0.16
  13  -5 -12   13.89    1.08
 -13  -5  12   11.87    1.02
 -13   5  12   12.61    0.93
  13   5 -12   13.34    1.21
 -13   5  12   13.82    1.28
  11  -5 -12    5.72    0.73
 -11  -5  12    5.99    0.76
  11   5 -12    7.11    0.95
 -11   5  12    7.03    0.96
 -11   5  12    6.68    0.65
   9  -5 -12    9.71    0.86
  -9  -5  12    9.27    0.88
  -9   5  12    9.41    0.80
  -9   5  12   10.44    1.04
   9   5 -12    9.43    1.07
  -7  -5  12   14.13    1.10
   7  -5 -12   16.61    1.09
  -7   5  12   17.42    1.18
  -7   5  12   17.58    1.39
   7   5 -12   17.56    1.37
  -5  -5  12    2.87    0.55
   5  -5 -12    2.19    0.42
   5  -5 -12    2.63    0.36
  -5   5  12    2.48    0.53
   5   5 -12    2.03    0.52
  -5   5  12    2.94    0.52
   3  -5 -12   16.41    1.03
  -3  -5  12   15.56    1.12
   3  -5 -12   15.74    0.99
  -3   5  12   15.31    1.15
   3   5 -12   15.55    1.25
  -3   5  12   17.19    1.34
  -1  -5  12    7.08    0.80
   1  -5 -12    6.07    0.57
   1  -5 -12    5.89    0.65
  -1   5  12    5.35    0.72
  -1   5  12    6.39    0.84
   1   5 -12    4.37    0.70
  -1  -5 -12    9.18    0.80
  -1  -5 -12    9.51    0.67
   1  -5  12   10.00    0.87
   1   5  12    9.68    0.93
  -1   5 -12    9.54    0.94
   1   5  12    9.33    0.91
   3  -5  12    8.41    0.77
  -3  -5 -12    8.92    0.81
  -3   5 -12    8.65    0.87
   3   5  12    8.12    0.83
   3   5  12    8.77    0.95
  -5  -5 -12   14.77    1.13
   5  -5  12   16.05    1.08
   5   5  12   16.08    1.22
  -5   5 -12   12.94    1.09
   5   5  12   15.32    1.24
  -7  -5 -12    6.36    0.80
   7  -5  12    7.22    0.67
   7  -5  12    6.56    0.68
   7   5  12    6.39    0.87
   7   5  12    6.49    0.65
  -7   5 -12    7.25    0.82
  -7   5 -12    6.57    0.58
   9  -5  12   19.21    1.16
  -9  -5 -12   18.44    1.34
   9  -5  12   16.36    1.22
   9   5  12   18.22    1.30
  -9   5 -12   18.03    1.25
   9   5  12   16.82    1.38
  -9   5 -12   18.38    1.12
  11  -5  12    5.38    0.47
 -11  -5 -12    3.45    0.64
  11  -5  12    4.76    0.68
  11   5  12    4.49    0.75
 -11   5 -12    5.51    0.68
 -11   5 -12    4.23    0.53
  13  -5  12    6.82    0.85
 -13  -5 -12    5.54    0.82
 -13   5 -12    6.48    0.64
  13   5  12    7.46    0.96
 -15  -5 -12    0.60    0.17
  15  -5  12    0.77    0.13
  15   5  12    0.56    0.11
 -17  -5 -12   10.39    1.15
  17  -5  12   10.07    1.02
 -17   5 -12   11.06    0.95
  17   5  12   11.91    1.17
  19  -5  12    1.05    0.20
 -19  -5 -12    1.26    0.33
  19   5  12    1.07    0.27
 -19   5 -12    0.49    0.14
  20  -6 -12    1.08    0.16
 -20  -6  12    1.08    0.18
  18  -6 -12    6.51    0.88
 -18  -6  12    7.88    0.91
 -18   6  12    7.37    1.02
  18   6 -12    6.32    0.93
 -16  -6  12    5.28    0.77
  16  -6 -12    4.96    0.74
 -16   6  12    3.85    0.72
 -16   6  12    5.41    0.66
  16   6 -12    6.43    0.96
 -14  -6  12    1.59    0.40
  14  -6 -12    1.85    0.41
  14   6 -12    1.33    0.44
 -14   6  12    1.96    0.35
 -14   6  12    1.59    0.46
 -12  -6  12    3.37    0.61
  12  -6 -12    4.57    0.69
 -12   6  12    4.36    0.63
  12   6 -12    3.01    0.69
  10  -6 -12    5.18    0.70
 -10  -6  12    5.59    0.77
 -10   6  12    5.72    0.82
 -10   6  12    6.40    0.77
  10   6 -12    7.27    1.01
   8  -6 -12   13.05    1.03
  -8  -6  12   11.72    1.06
   8   6 -12   12.82    1.22
  -8   6  12   13.03    1.09
  -8   6  12   13.45    1.16
  -6  -6  12    0.66    0.30
   6  -6 -12    0.92    0.26
   6   6 -12    0.90    0.34
  -6   6  12    0.61    0.08
  -6   6  12    0.94    0.23
  -4  -6  12    1.87    0.47
   4  -6 -12    1.84    0.38
  -4   6  12    2.15    0.48
  -4   6  12    1.13    0.30
   4   6 -12    2.43    0.59
  -2  -6  12    4.83    0.72
   2  -6 -12    5.64    0.64
   2  -6 -12    5.17    0.51
  -2   6  12    5.59    0.78
   2   6 -12    5.02    0.80
   0  -6  12    5.87    0.77
   0  -6 -12    5.48    0.66
   0  -6 -12    5.06    0.49
   0   6 -12    5.37    0.83
   0   6  12    5.36    0.79
  -2  -6 -12    2.87    0.49
   2  -6  12    2.33    0.48
   2   6  12    2.28    0.55
  -2   6 -12    2.45    0.53
  -4  -6 -12    2.94    0.52
   4  -6  12    3.09    0.52
   4   6  12    4.26    0.71
  -4   6 -12    2.92    0.59
  -6  -6 -12    1.11    0.27
   6  -6  12    1.38    0.28
   6   6  12    0.96    0.23
  -6   6 -12    1.24    0.29
   8  -6  12    5.22    0.65
  -8  -6 -12    5.39    0.78
   8   6  12    5.05    0.79
  -8   6 -12    5.97    0.75
 -10  -6 -12    2.96    0.58
  10  -6  12    3.28    0.47
 -10   6 -12    1.96    0.37
  10   6  12    2.90    0.63
  12  -6  12    3.57    0.50
 -12  -6 -12    4.64    0.74
 -12   6 -12    3.98    0.58
  12   6  12    5.07    0.83
 -14  -6 -12    3.01    0.62
 -14   6 -12    3.31    0.56
  14   6  12    3.19    0.60
 -16   6 -12    0.79    0.21
  16   6  12    1.94    0.38
 -15  -7  12    1.26    0.31
  15  -7 -12    1.21    0.28
 -15   7  12    1.26    0.21
  15   7 -12    1.04    0.16
  13  -7 -12    0.78    0.19
 -13  -7  12    0.35    0.14
  13   7 -12    0.39    0.09
  11  -7 -12    0.44    0.16
 -11  -7  12    0.69    0.20
  11   7 -12    0.98    0.39
 -11   7  12    0.99    0.14
  -9  -7  12    1.41    0.42
   9  -7 -12    1.94    0.39
   9   7 -12    2.03    0.55
  -9   7  12    2.88    0.55
   7  -7 -12    1.01    0.21
  -7  -7  12    0.80    0.30
  -7   7  12    1.41    0.21
   7   7 -12    1.94    0.53
   5  -7 -12    0.92    0.17
  -5  -7  12    0.87    0.25
   5   7 -12    0.59    0.16
  -5   7  12    0.72    0.13
  -3  -7  12    3.40    0.63
   3  -7 -12    3.03    0.48
  -3   7  12    4.38    0.70
   3   7 -12    2.67    0.61
  -1  -7  12    0.93    0.26
   1  -7 -12    1.27    0.19
   1   7 -12    1.01    0.23
  -1   7  12    1.42    0.30
   1  -7  12    1.12    0.30
   1   7  12    1.25    0.24
  -1   7 -12    1.72    0.30
  -3  -7 -12    0.44    0.07
   3  -7  12    0.81    0.18
   3   7  12    0.74    0.17
  -3   7 -12    1.07    0.18
  -5  -7 -12    0.77    0.16
   5  -7  12    1.31    0.11
   5   7  12    1.71    0.31
  -5   7 -12    1.69    0.40
   7  -7  12    0.75    0.13
   7   7  12    1.19    0.28
  -9  -7 -12    0.60    0.15
   9   7  12    1.01    0.22
  11  -7  12    0.98    0.08
 -11  -7 -12    0.57    0.09
  11   7  12    0.85    0.13
  -4  -8  12    0.74    0.17
   4   8 -12    1.23    0.18
  -2  -8  12    0.62    0.15
  -2   8  12    1.06    0.18
   0  -8  12    0.68    0.21
   0   8 -12    1.24    0.21
   0   8  12    0.66    0.10
 -28   0  13    0.45    0.13
 -26   0  13   -0.02    0.13
  26   0 -13    0.30    0.15
 -24   0  13    0.15    0.16
  24   0 -13    0.26    0.11
  22   0 -13    0.54    0.18
 -22   0  13    0.86    0.20
 -20   0  13    0.62    0.19
  20   0 -13    0.26    0.12
  20   0 -13    0.10    0.15
  18   0 -13    0.28    0.21
  18   0 -13    0.12    0.10
 -18   0  13    0.45    0.18
  16   0 -13    0.00    0.21
  16   0 -13    0.26    0.16
 -16   0  13    0.91    0.29
 -14   0  13    0.46    0.29
  14   0 -13   -0.04    0.11
  12   0 -13    0.37    0.10
 -12   0  13    0.27    0.16
 -12   0  13    0.16    0.15
 -10   0  13    0.23    0.17
  10   0 -13    0.31    0.12
 -10   0  13    0.16    0.16
  -8   0  13    0.23    0.24
  -8   0  13   -0.01    0.09
   8   0 -13    0.38    0.16
   6   0 -13   -0.04    0.09
  -6   0  13    0.25    0.15
  -6   0  13    0.27    0.22
  -4   0  13    0.29    0.25
  -4   0  13    0.40    0.15
   4   0 -13    0.28    0.18
  -2   0  13    0.32    0.17
  -2   0  13    0.35    0.10
   2   0 -13    0.24    0.17
   0   0  13    0.40    0.09
   0   0  13    0.20    0.23
   0   0 -13    0.12    0.17
  -2   0 -13   -0.04    0.14
   2   0  13    0.24    0.23
   4   0  13    0.21    0.04
  -4   0 -13    0.12    0.16
   4   0  13    0.39    0.25
  -6   0 -13    0.05    0.16
   6   0  13    0.32    0.24
  -6   0 -13    0.26    0.10
  -8   0 -13    0.22    0.07
   8   0  13    0.02    0.21
  -8   0 -13    0.38    0.21
 -10   0 -13    0.34    0.17
  10   0  13    0.40    0.26
 -10   0 -13    0.51    0.09
 -12   0 -13    0.33    0.17
 -12   0 -13    0.30    0.08
  12   0  13    0.03    0.17
 -14   0 -13    0.78    0.14
 -14   0 -13    0.12    0.12
  14   0  13    0.28    0.24
  16   0  13    0.31    0.19
 -16   0 -13    0.37    0.07
 -16   0 -13    0.12    0.10
 -18   0 -13    0.67    0.13
  18   0  13    0.43    0.24
 -20   0 -13    1.00    0.14
  20   0  13    0.46    0.16
  22   0  13    0.77    0.21
  24   0  13    0.31    0.12
  27  -1 -13    4.15    0.64
 -27  -1  13    3.69    0.73
 -27   1  13    4.17    0.88
  27   1 -13    3.97    0.61
 -25  -1  13    0.46    0.16
  25  -1 -13    0.59    0.13
 -25   1  13    1.32    0.34
  25   1 -13    0.23    0.21
  23  -1 -13    0.25    0.16
 -23  -1  13    0.57    0.20
  23   1 -13    0.28    0.25
 -23   1  13    0.72    0.21
  23   1 -13    0.31    0.07
 -21  -1  13    2.54    0.63
  21  -1 -13    3.03    0.56
  21   1 -13    2.60    0.57
 -21   1  13    2.54    0.69
  21   1 -13    3.01    0.37
 -19  -1  13    1.06    0.36
 -19  -1  13    1.06    0.33
  19  -1 -13    1.05    0.36
 -19   1  13    1.67    0.55
  19   1 -13    1.24    0.12
 -17  -1  13    2.09    0.55
 -17  -1  13    2.33    0.48
  17  -1 -13    3.10    0.54
 -17   1  13    3.44    0.82
  17   1 -13    2.14    0.36
 -15  -1  13    0.49    0.24
  15  -1 -13    0.25    0.17
 -15  -1  13    0.86    0.27
  15   1 -13    0.37    0.13
 -15   1  13    0.47    0.29
  13  -1 -13    4.72    0.41
  13  -1 -13    5.32    0.57
  13  -1 -13    4.53    0.61
 -13  -1  13    3.95    0.57
 -13  -1  13    5.24    0.87
 -13   1  13    3.96    0.83
  13   1 -13    4.87    0.57
 -11  -1  13    6.29    0.97
  11  -1 -13    5.82    0.66
 -11  -1  13    5.47    0.63
  11  -1 -13    6.22    0.50
  11  -1 -13    5.50    0.54
  11   1 -13    5.95    0.60
 -11   1  13    7.33    1.11
  -9  -1  13    7.04    0.99
   9  -1 -13    7.28    0.62
   9  -1 -13    6.97    0.64
  -9  -1  13    7.72    0.68
   9  -1 -13    8.13    0.61
  -9   1  13    6.24    0.99
   9   1 -13    6.72    0.65
   7  -1 -13   13.04    0.82
  -7  -1  13   10.51    1.12
   7  -1 -13   12.75    0.82
   7  -1 -13   14.03    0.88
  -7  -1  13   12.71    0.84
   7   1 -13   12.89    0.91
  -7   1  13   13.01    1.31
   5  -1 -13    2.50    0.41
   5  -1 -13    2.39    0.39
  -5  -1  13    2.66    0.40
   5  -1 -13    3.07    0.42
  -5  -1  13    2.25    0.57
   5   1 -13    2.42    0.45
  -5   1  13    2.58    0.66
  -3  -1  13    3.13    0.63
   3  -1 -13    3.10    0.44
   3  -1 -13    2.07    0.34
  -3  -1  13    3.05    0.40
   3  -1 -13    2.80    0.40
   3   1 -13    3.14    0.50
  -3   1  13    2.04    0.59
   1  -1 -13    6.02    0.54
   1  -1 -13    6.66    0.61
  -1  -1  13    6.62    0.52
   1  -1 -13    6.39    0.49
  -1  -1  13    6.70    0.87
   1   1 -13    5.67    0.65
  -1   1  13    5.73    0.86
  -1  -1 -13   13.12    0.68
  -1  -1 -13   13.13    0.83
  -1  -1 -13   12.02    0.87
   1  -1  13   13.88    0.74
   1  -1  13   13.64    1.17
   1   1  13   12.91    1.18
   1   1  13   13.41    0.68
  -1   1 -13   12.26    0.92
  -3  -1 -13    3.34    0.42
  -3  -1 -13    3.40    0.28
   3  -1  13    2.81    0.61
  -3  -1 -13    2.78    0.48
   3  -1  13    3.44    0.31
  -3   1 -13    2.45    0.46
   3   1  13    3.41    0.31
   3   1  13    3.08    0.65
   5  -1  13   71.32    2.98
  -5  -1 -13   72.97    2.46
   5  -1  13   76.64    1.94
  -5   1 -13   75.65    1.93
   5   1  13   72.76    2.12
   5   1  13   76.48    3.09
  -5   1 -13   78.16    2.55
  -7  -1 -13    6.93    0.69
  -7  -1 -13    8.21    0.59
   7  -1  13    8.18    1.00
  -7   1 -13    7.38    0.72
   7   1  13    8.12    1.00
  -7   1 -13    7.41    0.51
   9  -1  13    8.87    1.06
  -9  -1 -13    9.80    0.84
  -9  -1 -13    9.26    0.68
  -9   1 -13    8.59    0.79
   9   1  13    9.86    1.12
  -9   1 -13    9.16    0.61
  11  -1  13    6.73    0.93
 -11  -1 -13    6.13    0.56
 -11  -1 -13    6.11    0.71
 -11   1 -13    6.07    0.71
  11   1  13    6.33    0.91
 -11   1 -13    6.09    0.50
  13  -1  13    9.49    1.12
 -13  -1 -13   10.01    0.78
 -13  -1 -13   10.64    0.92
  13   1  13   10.37    1.10
 -13   1 -13    9.75    0.85
 -13   1 -13    9.77    0.72
  15  -1  13    0.74    0.25
 -15  -1 -13    0.28    0.05
 -15  -1 -13    0.36    0.19
 -15   1 -13    0.32    0.11
  15   1  13    0.45    0.26
 -15   1 -13    0.64    0.14
 -17  -1 -13    1.72    0.43
  17  -1  13    2.16    0.61
 -17  -1 -13    1.22    0.28
 -17   1 -13    1.46    0.27
 -17   1 -13    1.39    0.32
  17   1  13    1.15    0.36
 -19  -1 -13    3.71    0.60
 -19  -1 -13    3.54    0.54
  19  -1  13    4.31    0.81
 -19   1 -13    3.49    0.50
 -19   1 -13    3.39    0.53
  19   1  13    3.41    0.72
 -21  -1 -13    9.50    0.86
  21  -1  13    9.57    1.19
 -21  -1 -13    8.90    0.85
 -21   1 -13    9.52    0.84
  21   1  13   10.98    1.26
 -21   1 -13    9.67    0.86
 -23  -1 -13    1.12    0.11
  23  -1  13    0.87    0.22
 -26  -2  13    7.00    0.98
  26  -2 -13    5.96    0.80
  26   2 -13    4.75    0.33
  26   2 -13    5.53    0.72
 -26   2  13    3.66    0.85
  24  -2 -13    0.55    0.16
 -24  -2  13    0.41    0.13
 -24  -2  13    1.00    0.20
 -24   2  13    0.89    0.17
  22  -2 -13    4.65    0.71
 -22  -2  13    7.14    0.84
 -22  -2  13    6.18    0.88
  22   2 -13    6.22    0.55
 -22   2  13    5.72    1.08
 -20  -2  13    2.57    0.56
  20  -2 -13    2.46    0.52
 -20  -2  13    2.52    0.48
 -20   2  13    3.22    0.80
  20   2 -13    3.86    0.51
 -18  -2  13   12.81    1.18
  18  -2 -13   13.51    1.06
 -18  -2  13    9.98    0.90
 -18   2  13   12.41    1.52
  18   2 -13   13.29    0.97
 -16  -2  13    5.27    0.81
  16  -2 -13    5.25    0.70
 -16  -2  13    4.12    0.60
 -16   2  13    5.89    1.05
  16   2 -13    4.62    0.60
 -14  -2  13    7.57    0.73
 -14  -2  13    8.55    1.01
  14  -2 -13    7.41    0.72
  14   2 -13    7.59    0.72
 -14   2  13    8.10    1.21
 -12  -2  13   13.41    1.20
 -12  -2  13   13.19    0.95
  12  -2 -13   12.57    0.92
  12  -2 -13   14.71    0.77
 -12   2  13   11.77    1.40
  12   2 -13   13.14    0.98
  10  -2 -13   14.09    0.79
 -10  -2  13   14.32    0.96
  10  -2 -13   13.25    0.91
 -10  -2  13   14.22    1.23
 -10   2  13   12.85    1.33
  10   2 -13   12.64    0.96
  -8  -2  13    5.30    0.78
   8  -2 -13    4.25    0.52
   8  -2 -13    4.96    0.45
  -8  -2  13    4.56    0.57
   8   2 -13    4.75    0.63
  -8   2  13    3.39    0.78
  -6  -2  13    0.90    0.31
   6  -2 -13    0.82    0.18
   6  -2 -13    0.90    0.25
  -6  -2  13    0.36    0.17
  -6   2  13    0.37    0.29
   6   2 -13    0.43    0.21
  -4  -2  13    0.74    0.22
  -4  -2  13    0.68    0.26
   4  -2 -13    0.66    0.18
   4  -2 -13    0.74    0.19
   4   2 -13    0.39    0.22
  -4   2  13    0.43    0.31
   2  -2 -13   10.82    0.67
   2  -2 -13   10.82    0.78
  -2  -2  13   11.77    1.05
  -2  -2  13   10.54    0.72
  -2   2  13   10.47    1.11
   2   2 -13   10.46    0.86
   0  -2 -13    5.84    0.64
   0  -2 -13    7.23    0.50
   0  -2  13    7.15    0.88
   0  -2  13    6.18    0.52
   0   2 -13    5.60    0.68
   0   2  13    7.12    0.54
   0   2  13    6.42    0.94
   2  -2  13    5.31    0.46
  -2  -2 -13    5.44    0.40
   2  -2  13    6.35    0.84
  -2  -2 -13    5.46    0.64
   2   2  13    5.59    0.50
   2   2  13    6.58    0.92
  -2   2 -13    6.13    0.70
   4  -2  13   24.86    1.62
   4  -2  13   27.73    1.12
  -4  -2 -13   23.68    1.29
   4   2  13   22.31    1.58
  -4   2 -13   27.42    1.44
   4   2  13   27.03    1.27
   6  -2  13   14.79    0.74
  -6  -2 -13   13.67    0.99
   6  -2  13   14.11    1.22
   6   2  13   14.74    0.93
   6   2  13   14.40    1.27
  -6   2 -13   13.90    1.01
  -8  -2 -13   20.19    1.25
   8  -2  13   21.18    1.53
  -8   2 -13   20.44    1.25
   8   2  13   21.10    1.16
   8   2  13   18.65    1.47
  -8   2 -13   19.93    0.94
 -10  -2 -13    0.31    0.22
  10  -2  13    0.60    0.27
  10   2  13    0.63    0.30
 -10   2 -13    0.27    0.15
  10   2  13    0.37    0.18
 -12  -2 -13   10.41    0.93
  12  -2  13   10.40    1.08
 -12   2 -13   10.01    0.72
  12   2  13   10.14    0.84
 -12   2 -13   11.11    0.90
  12   2  13   10.20    1.08
 -14  -2 -13   10.57    0.85
  14  -2  13   11.88    1.18
 -14  -2 -13   13.17    1.06
  14   2  13   10.49    1.18
 -14   2 -13   11.25    0.80
 -14   2 -13   10.36    0.88
  16  -2  13    5.26    0.85
 -16  -2 -13    6.58    0.82
 -16  -2 -13    6.80    0.76
  16   2  13    5.82    0.89
 -16   2 -13    5.50    0.66
 -16   2 -13    5.71    0.57
 -18  -2 -13    1.80    0.43
 -18  -2 -13    1.41    0.36
  18  -2  13    2.26    0.59
  18   2  13    1.78    0.49
 -18   2 -13    2.14    0.42
 -18   2 -13    1.93    0.36
 -20  -2 -13    8.13    0.80
 -20  -2 -13    9.36    0.94
  20  -2  13    8.89    1.17
  20   2  13    7.27    1.00
 -20   2 -13    7.81    0.73
 -20   2 -13    9.02    0.78
 -22  -2 -13    7.25    0.87
  22  -2  13    9.08    1.21
 -22  -2 -13    8.95    0.90
 -22   2 -13    7.42    0.75
  22   2  13   10.39    1.03
 -25  -3  13   12.72    1.06
  25  -3 -13   11.48    1.07
 -25   3  13   12.19    1.61
  23  -3 -13    6.72    0.86
 -23  -3  13    7.46    0.87
 -23   3  13    6.83    1.18
  23   3 -13    7.90    0.70
 -21  -3  13    2.77    0.54
  21  -3 -13    2.77    0.57
 -21  -3  13    3.09    0.54
 -21   3  13    3.72    0.87
  21   3 -13    3.23    0.52
 -19  -3  13    0.20    0.08
  19  -3 -13    0.39    0.20
 -19  -3  13    0.75    0.23
 -19   3  13    0.53    0.29
  19   3 -13    0.43    0.13
 -17  -3  13   29.68    1.79
  17  -3 -13   28.67    1.60
 -17  -3  13   29.81    1.61
 -17   3  13   30.78    2.27
  17   3 -13   27.05    1.59
  15  -3 -13    3.23    0.56
 -15  -3  13    3.50    0.58
 -15  -3  13    2.46    0.49
 -15   3  13    2.81    0.74
  15   3 -13    2.63    0.52
 -13  -3  13   22.08    1.31
 -13  -3  13   23.82    1.54
  13  -3 -13   22.21    1.30
 -13   3  13   24.09    1.92
  13   3 -13   21.75    1.38
 -11  -3  13    0.23    0.16
  11  -3 -13    0.43    0.17
  11   3 -13   -0.07    0.15
 -11   3  13    0.50    0.25
  -9  -3  13   43.89    2.17
   9  -3 -13   42.87    1.74
   9  -3 -13   43.78    1.55
  -9  -3  13   44.53    1.83
  -9   3  13   40.73    2.44
   9   3 -13   43.18    1.97
  -7  -3  13    5.47    0.76
   7  -3 -13    4.19    0.39
   7  -3 -13    4.15    0.53
  -7  -3  13    4.54    0.59
   7   3 -13    3.79    0.61
  -7   3  13    4.82    0.88
   5  -3 -13   10.76    0.72
  -5  -3  13   12.08    1.04
  -5  -3  13    9.68    0.78
   5  -3 -13   10.11    0.73
   5   3 -13    9.34    0.86
  -5   3  13    9.76    0.65
  -5   3  13    9.52    1.19
   3  -3 -13    1.46    0.28
   3  -3 -13    0.98    0.25
  -3  -3  13    1.42    0.35
  -3  -3  13    1.02    0.30
  -3   3  13    2.16    0.21
  -3   3  13    1.32    0.45
   3   3 -13    0.83    0.30
  -1  -3  13   56.86    2.00
   1  -3 -13   64.13    1.89
  -1  -3  13   59.30    2.51
   1  -3 -13   60.36    2.09
  -1   3  13   60.24    2.12
  -1   3  13   58.86    2.81
   1   3 -13   62.60    2.36
  -1  -3 -13    6.60    0.66
  -1  -3 -13    7.81    0.54
   1  -3  13    7.54    0.79
   1  -3  13    8.12    0.65
   1   3  13    7.91    0.67
   1   3  13    8.06    1.01
  -1   3 -13    7.12    0.78
  -3  -3 -13   47.73    1.94
   3  -3  13   47.24    1.71
   3  -3  13   49.75    2.30
   3   3  13   46.85    2.37
  -3   3 -13   45.98    2.00
   3   3  13   49.91    2.02
   5  -3  13    1.53    0.27
  -5  -3 -13    1.62    0.39
   5  -3  13    1.53    0.41
  -5   3 -13    1.18    0.36
   5   3  13    1.10    0.27
   5   3  13    1.13    0.40
   7  -3  13   37.35    2.02
   7  -3  13   35.99    1.40
  -7  -3 -13   34.63    1.71
  -7   3 -13   33.35    1.68
   7   3  13   37.86    1.77
   7   3  13   32.43    1.97
   9  -3  13   17.54    1.37
   9  -3  13   18.07    0.90
  -9  -3 -13   16.26    1.16
   9   3  13   17.14    1.17
  -9   3 -13   15.71    1.12
   9   3  13   16.03    1.34
  -9   3 -13   18.21    0.94
  11  -3  13   17.13    1.40
 -11  -3 -13   15.55    1.17
  11   3  13   16.71    1.19
  11   3  13   16.18    1.32
 -11   3 -13   14.53    0.90
 -11   3 -13   15.87    1.11
  13  -3  13    8.12    1.02
 -13  -3 -13    9.04    0.88
  13   3  13    8.80    1.03
  13   3  13    8.65    0.83
 -13   3 -13    8.11    0.66
 -13   3 -13    8.72    0.78
 -15  -3 -13    2.41    0.53
  15  -3  13    2.23    0.57
  15   3  13    2.56    0.49
  15   3  13    2.81    0.58
 -15   3 -13    2.89    0.47
 -15   3 -13    2.20    0.36
  17  -3  13   16.37    1.44
 -17  -3 -13   16.25    1.30
  17   3  13   15.82    1.22
  17   3  13   16.02    1.34
 -17   3 -13   15.97    1.08
 -17   3 -13   16.36    1.12
 -19  -3 -13    7.59    0.92
  19  -3  13    7.74    1.06
  19   3  13    7.16    0.76
 -19   3 -13    6.21    0.70
  19   3  13    7.26    0.88
 -21  -3 -13    1.34    0.25
  21  -3  13    1.05    0.22
  21   3  13    1.49    0.28
 -24  -4  13    0.80    0.14
  24  -4 -13    1.02    0.33
 -24   4  13    1.01    0.23
  22  -4 -13   24.44    1.64
 -22  -4  13   24.43    1.58
 -22   4  13   22.72    2.03
  22   4 -13   24.38    1.58
  20  -4 -13    4.26    0.70
 -20  -4  13    5.49    0.75
 -20   4  13    3.69    0.85
  20   4 -13    6.17    0.80
 -18  -4  13   13.96    1.13
  18  -4 -13   16.13    1.23
 -18   4  13   17.31    1.66
  18   4 -13   16.25    1.29
 -16  -4  13   21.29    1.39
  16  -4 -13   20.91    1.38
  16   4 -13   22.81    1.54
 -16   4  13   22.24    1.86
  14  -4 -13   24.96    1.48
 -14  -4  13   29.13    1.61
  14   4 -13   27.48    1.70
 -14   4  13   33.27    2.28
 -12  -4  13   25.65    1.48
  12  -4 -13   25.00    1.42
  12   4 -13   27.37    1.66
 -12   4  13   24.94    1.92
  10  -4 -13   20.39    1.24
 -10  -4  13   20.35    1.28
 -10   4  13   23.73    1.82
  10   4 -13   19.97    1.40
  -8  -4  13    3.92    0.59
   8  -4 -13    3.62    0.35
  -8  -4  13    5.09    0.52
   8  -4 -13    5.34    0.63
   8   4 -13    4.61    0.72
  -8   4  13    4.63    0.45
  -8   4  13    4.65    0.85
   6  -4 -13   10.19    0.71
  -6  -4  13   10.89    0.91
   6  -4 -13    8.52    0.73
  -6  -4  13    9.76    0.84
  -6   4  13    9.48    1.16
  -6   4  13   10.66    0.77
   6   4 -13    8.95    0.96
  -4  -4  13   13.47    1.04
  -4  -4  13   14.01    1.00
   4  -4 -13   12.98    0.87
   4  -4 -13   14.26    0.91
  -4   4  13   14.34    0.96
  -4   4  13   13.53    1.29
   4   4 -13   13.45    1.11
  -2  -4  13    2.63    0.48
  -2  -4  13    3.75    0.55
   2  -4 -13    2.68    0.40
   2  -4 -13    1.97    0.37
  -2   4  13    3.55    0.51
  -2   4  13    2.82    0.63
   2   4 -13    1.82    0.47
   0  -4 -13   27.27    1.41
   0  -4 -13   28.71    1.25
   0  -4  13   29.23    1.63
   0  -4  13   28.78    1.45
   0   4  13   30.91    1.60
   0   4 -13   29.80    1.64
   0   4  13   29.09    1.86
  -2  -4 -13    8.66    0.78
   2  -4  13    8.84    0.73
   2  -4  13    9.15    0.85
   2   4  13    8.02    0.78
   2   4  13    8.88    1.05
  -2   4 -13    9.11    0.87
   4  -4  13   44.74    2.17
  -4  -4 -13   45.25    1.98
   4  -4  13   45.12    1.81
   4   4  13   43.45    2.29
   4   4  13   44.42    2.09
  -4   4 -13   46.28    2.09
   6  -4  13    6.08    0.57
   6  -4  13    7.86    0.90
  -6  -4 -13    7.04    0.80
   6   4  13    6.68    0.87
  -6   4 -13    6.09    0.77
   6   4  13    7.58    0.86
   8  -4  13   29.27    1.37
  -8  -4 -13   31.05    1.69
   8  -4  13   32.44    1.87
  -8   4 -13   30.59    1.65
   8   4  13   28.44    1.79
   8   4  13   30.94    1.77
  10  -4  13   10.76    1.03
  10  -4  13   13.11    0.81
 -10  -4 -13   11.29    1.02
 -10   4 -13   11.75    0.97
  10   4  13   11.41    1.05
  10   4  13   13.69    1.13
 -12  -4 -13   23.57    1.55
  12  -4  13   27.87    1.81
 -12   4 -13   26.41    1.50
  12   4  13   26.56    1.72
  12   4  13   25.17    1.61
 -12   4 -13   24.09    1.29
 -14  -4 -13    0.73    0.23
  14   4  13    0.75    0.11
 -14   4 -13    0.58    0.16
  14   4  13    0.51    0.17
 -16  -4 -13   21.67    1.56
  16  -4  13   22.45    1.68
 -16   4 -13   23.47    1.37
  16   4  13   25.52    1.67
  16   4  13   22.07    1.57
  18  -4  13    6.06    0.89
 -18  -4 -13    4.33    0.72
  18   4  13    5.32    0.54
 -18   4 -13    5.40    0.68
  18   4  13    4.98    0.77
 -20  -4 -13   14.86    1.30
  20  -4  13   16.48    1.44
  20   4  13   14.68    1.23
  20   4  13   16.81    1.38
 -20   4 -13   14.15    1.13
  21  -5 -13   23.88    1.64
 -21  -5  13   23.26    1.58
  21   5 -13   24.86    1.70
 -21   5  13   23.73    1.98
 -19  -5  13    6.31    0.83
  19  -5 -13    7.33    0.90
  19   5 -13    6.50    0.89
 -19   5  13    6.42    1.01
 -17  -5  13   18.73    1.37
  17  -5 -13   17.87    1.33
 -17   5  13   19.31    1.68
  17   5 -13   18.50    1.48
  15  -5 -13    1.39    0.35
 -15  -5  13    1.59    0.42
 -15   5  13    1.17    0.27
  15   5 -13    0.72    0.30
 -13  -5  13   64.87    2.62
  13  -5 -13   59.17    2.44
  13   5 -13   60.55    2.80
 -13   5  13   64.29    3.17
  11  -5 -13    1.79    0.44
 -11  -5  13    2.30    0.50
 -11   5  13    1.35    0.33
  11   5 -13    1.41    0.46
  -9  -5  13   49.77    2.21
   9  -5 -13   50.19    2.10
  -9   5  13   50.86    2.66
  -9   5  13   52.50    2.13
   9   5 -13   52.22    2.51
   7  -5 -13    0.46    0.14
  -7  -5  13    0.19    0.13
   7   5 -13    0.68    0.27
  -7   5  13    0.69    0.13
  -7   5  13    0.58    0.18
  -5  -5  13   53.55    2.27
   5  -5 -13   60.24    2.13
   5  -5 -13   54.93    2.10
   5   5 -13   54.92    2.55
  -5   5  13   61.21    2.85
  -5   5  13   51.22    2.24
   3  -5 -13    0.87    0.08
  -3  -5  13    0.28    0.19
  -3   5  13    0.71    0.17
   3   5 -13    0.13    0.14
  -3   5  13    0.81    0.17
   1  -5 -13   47.02    1.98
   1  -5 -13   49.75    1.88
  -1  -5  13   49.14    2.11
   1   5 -13   49.58    2.35
  -1   5  13   53.52    2.65
  -1   5  13   49.13    2.25
  -1  -5 -13    1.14    0.29
   1  -5  13    1.65    0.39
   1   5  13    2.48    0.46
   1   5  13    1.03    0.20
  -1   5 -13    1.24    0.38
  -3  -5 -13   82.89    2.91
   3  -5  13   86.54    2.89
   3   5  13   79.99    3.29
  -3   5 -13   79.93    3.08
   3   5  13   83.42    3.18
   5  -5  13   15.99    1.09
  -5  -5 -13   15.42    1.17
   5   5  13   15.78    1.25
  -5   5 -13   16.58    1.24
   5   5  13   15.65    1.25
   7  -5  13   65.59    2.41
   7  -5  13   65.32    2.75
  -7  -5 -13   64.86    2.66
   7   5  13   63.19    2.85
  -7   5 -13   62.45    2.63
   7   5  13   67.18    2.91
  -9  -5 -13    7.93    0.92
   9  -5  13    7.09    0.73
   9  -5  13    9.04    0.69
  -9   5 -13    6.82    0.80
   9   5  13    8.28    1.00
   9   5  13    7.17    0.74
  11  -5  13   25.54    1.65
 -11  -5 -13   23.21    1.59
 -11   5 -13   22.21    1.41
  11   5  13   23.17    1.65
  13  -5  13   13.28    1.17
 -13  -5 -13   12.44    1.14
  13   5  13   12.88    1.18
 -15  -5 -13    4.94    0.79
  15  -5  13    7.06    0.91
  15   5  13    4.35    0.74
 -15   5 -13    3.50    0.53
 -17  -5 -13   10.67    1.18
  17  -5  13   12.50    1.15
 -17   5 -13   10.39    0.92
  17   5  13   12.10    1.17
  18  -6 -13   21.27    1.53
 -18  -6  13   20.52    1.50
  18   6 -13   20.34    1.63
 -18   6  13   19.62    1.66
  16  -6 -13   22.67    1.56
 -16  -6  13   24.42    1.64
  16   6 -13   23.98    1.80
 -16   6  13   22.11    1.74
  14  -6 -13   31.11    1.80
 -14  -6  13   32.28    1.89
 -14   6  13   31.34    2.08
  14   6 -13   31.33    2.08
  12  -6 -13   14.85    1.17
 -12  -6  13   16.08    1.28
 -12   6  13   17.54    1.22
 -12   6  13   15.50    1.34
  12   6 -13   15.23    1.39
 -10  -6  13   18.08    1.36
  10  -6 -13   17.53    1.27
  10   6 -13   16.33    1.44
 -10   6  13   20.61    1.35
 -10   6  13   18.84    1.48
  -8  -6  13   32.93    1.87
   8  -6 -13   31.32    1.68
  -8   6  13   33.00    2.02
   8   6 -13   34.83    2.13
  -8   6  13   33.98    1.87
   6  -6 -13   19.91    1.26
  -6  -6  13   22.96    1.52
  -6   6  13   21.84    1.55
   6   6 -13   19.56    1.57
  -6   6  13   19.73    1.38
  -4  -6  13    4.54    0.71
   4  -6 -13    5.09    0.63
  -4   6  13    4.70    0.69
   4   6 -13    5.25    0.84
  -4   6  13    5.90    0.78
   2  -6 -13    7.22    0.67
  -2  -6  13    5.51    0.75
   2  -6 -13    7.15    0.63
  -2   6  13    6.67    0.85
   2   6 -13    5.69    0.87
   0  -6 -13   26.31    1.50
   0  -6  13   26.94    1.62
   0   6 -13   26.31    1.76
   0   6  13   25.00    1.65
  -2  -6 -13   12.10    0.97
   2  -6  13   12.09    1.03
  -2   6 -13   12.62    1.15
   2   6  13   12.59    1.14
   4  -6  13   45.57    2.12
  -4  -6 -13   42.01    2.09
   4   6  13   46.21    2.39
  -4   6 -13   42.21    2.25
   6  -6  13   12.71    0.98
  -6  -6 -13   12.54    1.08
  -6   6 -13   13.56    1.12
   6   6  13   13.01    1.19
   8  -6  13   64.80    2.56
  -8  -6 -13   63.94    2.80
   8   6  13   62.25    2.97
  -8   6 -13   61.22    2.73
  10  -6  13    8.37    0.70
 -10  -6 -13   10.07    1.10
 -10   6 -13    9.18    0.87
  10   6  13    8.68    1.07
 -12  -6 -13   16.92    1.38
  12   6  13   15.69    1.41
 -14  -6 -13    0.76    0.18
  14   6  13    2.08    0.32
 -13  -7  13   40.46    2.23
  13  -7 -13   39.65    2.12
  13   7 -13   41.54    2.52
  11  -7 -13    0.36    0.08
 -11  -7  13    0.20    0.11
  11   7 -13    0.56    0.24
 -11   7  13    0.82    0.14
  -9  -7  13   39.57    2.20
   9  -7 -13   41.41    2.09
  -9   7  13   42.42    2.25
   9   7 -13   42.83    2.55
  -7  -7  13    0.51    0.19
   7  -7 -13    0.30    0.09
  -7   7  13    0.93    0.17
   7   7 -13    0.47    0.23
  -5  -7  13   48.41    2.42
   5  -7 -13   50.14    2.21
  -5   7  13   53.39    2.60
   5   7 -13   49.62    2.74
  -3  -7  13    0.61    0.17
   3   7 -13    0.56    0.16
  -3   7  13    0.49    0.16
  -1  -7  13   42.54    2.24
   1   7 -13   43.90    2.51
  -1   7  13   40.77    2.30
  -1  -7 -13    3.26    0.52
   1  -7  13    4.41    0.71
   1   7  13    5.03    0.78
  -1   7 -13    5.39    0.81
   3  -7  13   84.14    3.24
  -3  -7 -13   86.86    3.31
   3   7  13   85.69    3.61
  -3   7 -13   81.57    3.47
   5  -7  13    1.74    0.12
   5   7  13    1.56    0.34
  -5   7 -13    1.73    0.36
  -7  -7 -13   36.99    2.10
   7  -7  13   39.05    2.00
   7   7  13   38.99    2.36
  -7   7 -13   41.72    2.26
   9  -7  13   10.07    0.85
  -9  -7 -13   10.03    0.96
   9   7  13   11.28    1.26
  26   0 -14   49.00    2.37
 -26   0  14   53.12    3.17
  24   0 -14   17.51    1.31
 -24   0  14   16.20    1.62
  22   0 -14   65.41    2.66
 -22   0  14   66.69    3.50
  20   0 -14    0.50    0.26
 -20   0  14    0.89    0.28
  20   0 -14    0.60    0.19
 -18   0  14  126.20    4.94
  18   0 -14  123.33    3.16
  18   0 -14  120.58    3.67
  16   0 -14    8.63    0.68
 -16   0  14    7.84    1.18
  16   0 -14    7.82    0.86
  16   0 -14    7.62    0.60
 -14   0  14   64.06    3.21
  14   0 -14   57.88    2.03
  14   0 -14   60.19    1.97
  14   0 -14   58.12    2.28
 -12   0  14    4.75    0.62
 -12   0  14    3.94    0.84
  12   0 -14    5.18    0.56
  10   0 -14   26.19    1.30
 -10   0  14   28.39    1.37
 -10   0  14   28.40    2.00
   8   0 -14    1.67    0.36
  -8   0  14    2.22    0.39
  -8   0  14    2.54    0.71
  -6   0  14   35.93    2.26
  -6   0  14   38.01    1.51
   6   0 -14   37.64    1.60
  -4   0  14    2.60    0.36
  -4   0  14    2.16    0.60
   4   0 -14    1.94    0.41
   2   0 -14   51.09    1.97
  -2   0  14   55.04    1.74
  -2   0  14   52.27    2.60
   0   0  14   14.89    1.31
   0   0 -14   17.37    1.10
   0   0  14   18.14    0.87
   2   0  14  179.58    3.70
   2   0  14  173.58    5.22
  -2   0 -14  174.69    4.36
  -4   0 -14   13.29    0.98
   4   0  14   12.51    1.21
   4   0  14   13.77    0.68
   6   0  14  100.97    3.79
  -6   0 -14  102.91    3.13
  -8   0 -14    4.71    0.43
   8   0  14    3.69    0.72
  -8   0 -14    4.72    0.66
 -10   0 -14   46.36    2.02
  10   0  14   44.52    2.44
 -10   0 -14   48.85    1.72
  12   0  14   10.09    1.21
 -12   0 -14   10.57    0.92
 -12   0 -14    9.22    0.70
  14   0  14   73.04    3.26
 -14   0 -14   68.27    2.35
 -14   0 -14   71.54    2.67
 -16   0 -14   15.58    1.03
 -16   0 -14   14.43    1.13
  16   0  14   15.34    1.43
 -18   0 -14   24.03    1.39
 -18   0 -14   25.93    1.55
  18   0  14   26.15    1.93
 -20   0 -14   30.54    1.66
  20   0  14   30.92    2.15
 -20   0 -14   31.95    1.76
 -22   0 -14   49.18    2.32
 -22   0 -14   48.28    2.24
  22   0  14   46.47    2.77
 -27  -1  14   50.53    3.00
  27  -1 -14   45.30    2.31
 -27   1  14   51.88    3.32
  27   1 -14   46.66    2.29
 -25  -1  14    3.12    0.62
  25  -1 -14    2.08    0.47
  25   1 -14    2.28    0.53
 -25   1  14    3.54    0.84
  23  -1 -14   40.95    2.08
 -23  -1  14   44.84    2.70
  23   1 -14   39.19    2.03
 -23   1  14   41.60    2.84
  23   1 -14   39.22    1.47
 -21  -1  14   14.30    1.39
  21  -1 -14   10.39    0.96
  21   1 -14   10.99    1.06
  21   1 -14   11.64    0.74
 -21   1  14   11.37    1.50
  19  -1 -14   57.99    2.38
 -19  -1  14   53.15    2.28
 -19  -1  14   56.81    2.98
  19   1 -14   52.39    2.02
 -19   1  14   54.95    3.19
 -17  -1  14   37.86    1.80
 -17  -1  14   39.07    2.41
  17  -1 -14   37.19    1.81
 -17   1  14   37.31    2.54
  17   1 -14   36.89    1.64
  15  -1 -14   42.88    1.57
 -15  -1  14   36.71    1.75
 -15  -1  14   43.82    2.54
  15  -1 -14   41.31    1.86
  15   1 -14   44.39    1.79
 -15   1  14   43.03    2.70
 -13  -1  14   12.23    0.93
  13  -1 -14   13.95    0.91
  13  -1 -14   12.35    0.94
 -13  -1  14   12.72    1.27
  13  -1 -14   13.70    0.81
  13   1 -14   13.47    0.92
 -13   1  14   12.96    1.38
  11  -1 -14   70.68    2.35
 -11  -1  14   68.88    2.34
  11  -1 -14   67.18    2.14
  11  -1 -14   73.48    2.28
 -11  -1  14   66.92    3.16
 -11   1  14   67.53    3.32
  11   1 -14   66.92    2.34
   9  -1 -14   36.71    1.49
  -9  -1  14   34.08    2.16
   9  -1 -14   35.91    1.54
   9  -1 -14   35.40    1.50
  -9  -1  14   36.07    1.55
   9   1 -14   33.64    1.57
  -9   1  14   30.87    2.16
   7  -1 -14   43.36    1.66
  -7  -1  14   40.18    2.38
  -7  -1  14   45.16    1.71
   7  -1 -14   45.34    1.71
   7  -1 -14   44.45    1.70
  -7   1  14   42.46    2.53
   7   1 -14   44.39    1.82
  -5  -1  14   26.98    1.83
  -5  -1  14   28.38    1.29
   5  -1 -14   29.52    1.38
   5  -1 -14   29.64    1.34
   5  -1 -14   29.11    1.27
   5   1 -14   30.39    1.48
  -5   1  14   24.54    1.85
   3  -1 -14   58.81    1.84
  -3  -1  14   55.97    2.66
  -3  -1  14   60.14    1.89
   3  -1 -14   58.43    1.99
   3  -1 -14   57.25    2.04
   3   1 -14   55.74    2.11
  -3   1  14   55.17    2.77
   1  -1 -14  123.40    2.88
   1  -1 -14  120.22    3.30
  -1  -1  14  117.61    4.06
   1  -1 -14  123.81    3.23
  -1  -1  14  126.12    3.00
  -1   1  14  120.03    4.23
   1   1 -14  123.69    3.44
  -1  -1 -14   50.76    1.82
   1  -1  14   51.11    1.64
  -1  -1 -14   49.89    1.53
  -1  -1 -14   47.22    1.88
   1  -1  14   50.25    2.44
   1   1  14   49.29    2.50
  -1   1 -14   48.23    1.96
  -3  -1 -14   89.92    2.63
   3  -1  14   91.51    3.48
  -3  -1 -14   90.53    2.16
   3  -1  14   88.62    2.29
  -3  -1 -14   86.40    2.76
  -3   1 -14   88.21    2.84
   3   1  14   87.39    3.44
   5  -1  14   17.39    0.80
   5  -1  14   15.29    1.33
  -5  -1 -14   15.38    1.07
   5   1  14   17.44    0.89
   5   1  14   17.24    1.43
  -5   1 -14   16.73    1.13
  -7  -1 -14   81.71    2.76
   7  -1  14   82.57    3.37
   7   1  14   83.24    3.41
   7   1  14   84.40    2.44
  -7   1 -14   85.23    2.81
   9  -1  14    0.35    0.27
  -9  -1 -14    0.46    0.23
  -9  -1 -14    0.38    0.11
  -9   1 -14    0.72    0.28
   9   1  14    0.28    0.31
 -11  -1 -14   29.24    1.59
 -11  -1 -14   29.10    1.39
  11  -1  14   29.96    1.98
 -11   1 -14   32.47    1.37
 -11   1 -14   32.32    1.66
  11   1  14   29.38    1.96
 -13  -1 -14    1.46    0.27
  13  -1  14    1.08    0.39
 -13  -1 -14    1.03    0.35
  13   1  14    1.78    0.54
 -13   1 -14    1.41    0.38
 -13   1 -14    1.56    0.29
 -15  -1 -14   57.96    2.43
 -15  -1 -14   57.39    2.22
  15  -1  14   53.63    2.80
 -15   1 -14   55.11    2.31
  15   1  14   57.39    2.89
 -15   1 -14   58.89    2.16
 -17  -1 -14    0.76    0.21
  17  -1  14    0.87    0.28
 -17   1 -14    0.85    0.15
  17   1  14    0.68    0.24
 -19  -1 -14   48.13    2.28
  19  -1  14   47.93    2.73
 -19  -1 -14   45.54    2.09
  19   1  14   44.21    2.61
 -19   1 -14   48.67    2.10
 -19   1 -14   47.83    2.19
 -21  -1 -14    1.33    0.28
 -21  -1 -14    3.18    0.54
  21  -1  14    2.94    0.64
 -21   1 -14    3.04    0.51
  21   1  14    2.13    0.57
 -21   1 -14    2.08    0.41
 -26  -2  14   17.95    1.56
  26  -2 -14   17.16    1.35
  26   2 -14   16.58    0.79
  26   2 -14   17.33    1.31
 -26   2  14   15.44    1.82
 -24  -2  14   12.08    1.18
  24  -2 -14   11.93    1.09
 -24  -2  14   11.04    1.01
 -24   2  14   12.80    1.63
 -22  -2  14   45.32    2.55
 -22  -2  14   46.28    2.19
  22  -2 -14   47.03    2.26
  22   2 -14   49.74    2.10
 -22   2  14   47.90    3.10
  20  -2 -14    0.79    0.30
 -20  -2  14    0.91    0.27
  20   2 -14    1.39    0.11
 -20   2  14    1.56    0.51
  18  -2 -14   56.44    2.37
 -18  -2  14   60.33    2.92
 -18  -2  14   57.31    2.35
  18   2 -14   59.48    2.32
 -18   2  14   58.37    3.34
 -16  -2  14    1.68    0.41
 -16  -2  14    1.45    0.37
  16  -2 -14    0.94    0.29
  16   2 -14    1.20    0.29
 -16   2  14    1.32    0.44
 -14  -2  14   81.27    3.39
 -14  -2  14   75.06    2.62
  14  -2 -14   78.81    2.68
  14   2 -14   77.09    2.69
 -14   2  14   75.55    3.69
 -12  -2  14    1.64    0.40
  12  -2 -14    1.93    0.19
  12  -2 -14    2.21    0.43
 -12  -2  14    2.07    0.51
  12   2 -14    1.98    0.42
 -12   2  14    2.31    0.68
 -10  -2  14   28.37    1.43
  10  -2 -14   30.61    1.29
 -10  -2  14   31.27    1.96
  10  -2 -14   29.15    1.41
  10   2 -14   29.10    1.51
 -10   2  14   27.31    2.05
  -8  -2  14   14.33    1.28
  -8  -2  14   12.12    0.89
   8  -2 -14   14.83    0.86
   8  -2 -14   14.36    0.92
   8   2 -14   12.89    0.97
  -8   2  14   14.16    1.42
  -6  -2  14   28.36    1.34
   6  -2 -14   29.97    1.32
  -6  -2  14   27.14    1.81
   6  -2 -14   27.15    1.27
  -6   2  14   27.57    2.01
   6   2 -14   28.31    1.48
   4  -2 -14    6.37    0.59
  -4  -2  14    6.25    0.87
   4  -2 -14    5.77    0.51
  -4  -2  14    5.97    0.58
   4   2 -14    4.63    0.65
  -4   2  14    5.80    0.96
  -2  -2  14   45.77    1.70
   2  -2 -14   50.06    1.88
   2  -2 -14   49.64    1.64
  -2  -2  14   50.82    2.44
  -2   2  14   47.88    2.57
   2   2 -14   48.21    2.00
   0  -2  14    1.23    0.42
   0  -2  14    0.87    0.19
   0  -2 -14    0.52    0.13
   0  -2 -14    0.32    0.19
   0   2  14    0.32    0.27
   0   2 -14    0.38    0.22
   2  -2  14  108.22    3.79
   2  -2  14  105.54    2.71
  -2  -2 -14  109.10    2.54
  -2  -2 -14  107.03    3.13
  -2   2 -14  105.74    3.24
   2   2  14  103.51    3.84
  -4  -2 -14   10.33    0.87
   4  -2  14   11.31    0.69
   4  -2  14   12.25    1.15
   4   2  14   10.48    1.18
  -4   2 -14   10.69    0.90
   4   2  14   10.32    0.73
   6  -2  14   86.00    3.41
  -6  -2 -14   80.00    2.74
   6  -2  14   81.75    2.22
  -6   2 -14   84.94    2.87
   6   2  14   88.64    2.68
   6   2  14   85.33    3.43
  -8  -2 -14    8.10    0.81
   8  -2  14    8.84    1.07
  -8   2 -14    7.76    0.78
   8   2  14    9.19    0.73
   8   2  14    8.84    1.10
 -10  -2 -14   50.18    2.19
  10  -2  14   54.39    2.71
  10   2  14   52.83    2.09
 -10   2 -14   53.13    2.20
  10   2  14   56.72    2.77
 -12  -2 -14   14.04    1.11
  12  -2  14   14.35    1.33
  12   2  14   15.03    1.05
  12   2  14   14.51    1.34
 -12   2 -14   13.89    0.87
 -12   2 -14   13.47    1.03
 -14  -2 -14   23.95    1.50
  14  -2  14   23.34    1.76
  14   2  14   25.94    1.46
 -14   2 -14   24.17    1.44
 -14   2 -14   24.72    1.27
  14   2  14   24.07    1.78
  16  -2  14    6.78    0.99
 -16  -2 -14    8.06    0.92
  16   2  14    7.33    1.03
 -16   2 -14    6.50    0.61
 -16   2 -14    6.90    0.76
 -18  -2 -14   40.55    2.12
 -18  -2 -14   39.51    1.97
  18  -2  14   38.65    2.42
 -18   2 -14   39.92    1.83
 -18   2 -14   38.99    1.93
  18   2  14   42.43    2.49
 -20  -2 -14    9.40    0.90
 -20  -2 -14    9.51    0.94
  20  -2  14   11.33    1.34
 -20   2 -14    7.93    0.78
 -20   2 -14   10.26    0.85
  20   2  14   11.30    1.12
 -25  -3  14    0.42    0.11
  25  -3 -14    0.27    0.11
 -25   3  14    0.39    0.12
  23  -3 -14   29.28    1.82
 -23  -3  14   30.58    1.78
 -23   3  14   29.28    2.43
  23   3 -14   30.83    1.69
  21  -3 -14    7.53    0.92
 -21  -3  14    7.65    0.89
 -21   3  14    7.92    1.29
  21   3 -14    6.37    0.63
  19  -3 -14   17.96    1.31
 -19  -3  14   20.12    1.36
 -19  -3  14   20.53    1.48
  19   3 -14   20.53    1.35
 -19   3  14   19.81    1.88
 -17  -3  14   13.84    1.10
 -17  -3  14   16.20    1.27
  17  -3 -14   13.48    1.08
 -17   3  14   16.62    1.68
  17   3 -14   12.99    1.06
 -15  -3  14   32.03    1.68
 -15  -3  14   33.91    1.98
  15  -3 -14   32.86    1.69
 -15   3  14   33.85    2.43
  15   3 -14   32.71    1.76
  13  -3 -14   37.62    1.76
 -13  -3  14   40.84    2.17
 -13  -3  14   35.73    1.76
  13   3 -14   39.55    1.94
 -13   3  14   38.78    2.53
 -11  -3  14   19.34    1.41
  11  -3 -14   20.79    1.22
 -11  -3  14   19.58    1.22
 -11   3  14   18.63    1.67
  11   3 -14   18.50    1.29
  -9  -3  14    5.73    0.79
  -9  -3  14    4.35    0.61
   9  -3 -14    5.17    0.43
   9  -3 -14    5.47    0.63
  -9   3  14    4.55    0.89
   9   3 -14    4.82    0.70
   7  -3 -14   35.32    1.53
   7  -3 -14   35.65    1.46
  -7  -3  14   35.96    1.63
  -7  -3  14   36.62    2.06
   7   3 -14   35.78    1.79
  -7   3  14   34.35    2.27
  -5  -3  14   50.50    1.95
   5  -3 -14   53.30    1.91
  -5  -3  14   52.58    2.47
   5  -3 -14   53.75    1.88
   5   3 -14   52.53    2.20
  -5   3  14   53.59    2.86
   3  -3 -14   32.62    1.35
  -3  -3  14   29.80    1.78
  -3  -3  14   30.27    1.43
   3  -3 -14   31.76    1.44
  -3   3  14   31.26    2.11
   3   3 -14   28.74    1.59
   1  -3 -14   36.10    1.38
  -1  -3  14   38.00    2.00
  -1  -3  14   36.20    1.54
   1  -3 -14   35.39    1.58
   1   3 -14   34.97    1.77
  -1   3  14   34.76    2.16
   1  -3  14   46.99    1.76
   1  -3  14   49.32    2.32
  -1  -3 -14   45.31    1.90
  -1  -3 -14   48.84    1.60
   1   3  14   44.36    2.41
  -1   3 -14   42.88    1.98
   1   3  14   47.72    1.90
   3  -3  14   84.35    3.29
   3  -3  14   84.57    2.52
  -3  -3 -14   84.70    2.81
   3   3  14   94.11    2.96
  -3   3 -14   86.01    2.97
   3   3  14   87.69    3.53
   5  -3  14    6.50    0.55
  -5  -3 -14    7.07    0.78
   5  -3  14    7.34    0.93
   5   3  14    6.38    0.92
  -5   3 -14    7.17    0.81
   5   3  14    8.41    0.71
   7  -3  14   16.11    0.88
  -7  -3 -14   15.56    1.14
   7  -3  14   15.34    1.31
  -7   3 -14   15.44    1.14
   7   3  14   17.24    1.15
   7   3  14   16.67    1.40
  -9  -3 -14    1.60    0.41
   9  -3  14    2.06    0.53
   9   3  14    1.75    0.45
  -9   3 -14    1.69    0.40
   9   3  14    1.74    0.37
  11  -3  14   38.82    2.24
 -11  -3 -14   38.15    1.94
 -11   3 -14   38.18    1.88
  11   3  14   41.72    1.97
  11   3  14   37.40    2.21
  13  -3  14    3.31    0.68
 -13  -3 -14    2.85    0.55
 -13   3 -14    3.99    0.58
  13   3  14    2.90    0.58
  13   3  14    3.46    0.58
  15  -3  14   17.98    1.52
 -15  -3 -14   18.74    1.38
 -15   3 -14   19.75    1.29
 -15   3 -14   19.08    1.16
  15   3  14   19.83    1.36
  15   3  14   21.93    1.65
  17  -3  14    1.84    0.48
 -17  -3 -14    1.65    0.39
  17   3  14    1.39    0.12
  17   3  14    1.73    0.31
 -17   3 -14    1.14    0.27
 -17   3 -14    1.42    0.33
  19  -3  14   44.96    2.66
 -19  -3 -14   41.19    2.25
  19   3  14   44.16    2.50
 -19   3 -14   41.85    2.00
  19   3  14   49.27    2.38
  22  -4 -14   14.22    1.24
 -22  -4  14   16.25    1.27
 -22   4  14   14.52    1.72
  22   4 -14   15.78    1.22
 -20  -4  14    7.68    0.91
  20  -4 -14    6.45    0.86
  20   4 -14    7.37    0.75
 -20   4  14    8.58    1.30
  18  -4 -14   32.56    1.83
 -18  -4  14   31.55    1.79
  18   4 -14   32.26    1.91
 -18   4  14   33.25    2.43
  16  -4 -14    2.06    0.50
 -16  -4  14    1.80    0.45
 -16   4  14    1.60    0.51
  16   4 -14    2.54    0.55
  14  -4 -14   20.61    1.33
 -14  -4  14   20.96    1.38
 -14   4  14   21.44    1.85
  14   4 -14   20.43    1.47
 -12  -4  14   12.01    1.01
  12  -4 -14   10.97    0.93
  12   4 -14   11.90    1.09
 -12   4  14   12.16    1.43
 -10  -4  14   17.08    1.19
  10  -4 -14   17.15    1.14
  10   4 -14   18.92    1.38
 -10   4  14   19.05    1.65
  -8  -4  14    5.47    0.71
   8  -4 -14    5.74    0.66
   8   4 -14    4.50    0.72
  -8   4  14    5.79    0.96
   6  -4 -14   17.02    1.00
  -6  -4  14   18.75    1.31
   6  -4 -14   17.00    1.06
  -6  -4  14   17.03    1.15
   6   4 -14   16.87    1.28
  -6   4  14   15.69    1.44
   4  -4 -14   16.81    1.03
   4  -4 -14   15.75    0.98
  -4  -4  14   16.16    1.10
  -4  -4  14   16.42    1.22
   4   4 -14   14.47    1.18
  -4   4  14   15.80    1.44
  -2  -4  14   40.74    1.80
   2  -4 -14   42.13    1.79
  -2  -4  14   41.53    2.07
   2  -4 -14   41.92    1.65
  -2   4  14   42.78    1.85
  -2   4  14   43.00    2.48
   2   4 -14   40.29    2.00
   0  -4  14   32.41    1.80
   0  -4 -14   33.39    1.37
   0  -4 -14   30.15    1.51
   0  -4  14   29.78    1.49
   0   4 -14   29.30    1.70
   0   4  14   28.79    1.94
   0   4  14   32.69    1.63
   2  -4  14   44.79    2.20
  -2  -4 -14   44.46    1.96
   2  -4  14   46.91    1.89
   2   4  14   46.89    2.50
  -2   4 -14   43.64    2.10
   2   4  14   45.80    2.06
   4  -4  14    2.55    0.53
   4  -4  14    1.92    0.35
  -4  -4 -14    2.25    0.47
   4   4  14    1.95    0.34
  -4   4 -14    2.33    0.49
   4   4  14    2.29    0.53
   6  -4  14   36.97    2.05
  -6  -4 -14   32.55    1.73
   6  -4  14   36.25    1.56
  -6   4 -14   31.46    1.75
   6   4  14   32.65    1.83
   6   4  14   35.15    2.07
   8  -4  14   19.08    1.44
   8  -4  14   18.71    1.05
  -8  -4 -14   17.96    1.29
  -8   4 -14   20.18    1.37
   8   4  14   20.24    1.40
   8   4  14   21.14    1.54
 -10  -4 -14   12.40    1.09
  10  -4  14   13.86    1.23
 -10   4 -14   13.99    1.11
  10   4  14   14.57    1.16
  10   4  14   14.36    1.24
 -12  -4 -14    0.90    0.29
  12  -4  14    1.02    0.30
 -12   4 -14    1.31    0.29
  12   4  14    1.76    0.35
 -14  -4 -14   17.42    1.36
  14  -4  14   16.91    1.44
  14   4  14   16.61    1.31
  14   4  14   14.89    1.25
 -14   4 -14   16.88    1.20
  16  -4  14   27.81    1.91
 -16  -4 -14   24.81    1.70
  16   4  14   24.78    1.72
  16   4  14   23.97    1.65
 -18  -4 -14   12.20    1.17
  18  -4  14   12.05    1.21
  18   4  14   13.37    1.14
  18   4  14   12.86    1.15
  21  -5 -14    3.20    0.62
 -21  -5  14    3.18    0.58
  21   5 -14    3.58    0.36
  19  -5 -14   11.53    1.10
 -19  -5  14   11.90    1.09
  19   5 -14   12.42    1.17
 -19   5  14   12.79    1.47
 -17  -5  14    1.47    0.39
  17  -5 -14    1.33    0.40
  17   5 -14    1.05    0.31
 -17   5  14    0.95    0.18
  15  -5 -14    2.69    0.53
 -15  -5  14    2.23    0.49
  15   5 -14    2.59    0.63
 -15   5  14    2.91    0.64
  13  -5 -14    7.91    0.88
 -13  -5  14    7.66    0.90
 -13   5  14    8.30    1.11
  13   5 -14    7.44    0.98
 -11  -5  14   10.05    0.95
  11  -5 -14    8.98    0.85
  11   5 -14    9.78    1.12
 -11   5  14   11.92    1.21
  -9  -5  14   10.85    0.99
   9  -5 -14   11.14    0.92
   9   5 -14   10.86    1.18
  -9   5  14   10.58    1.12
  -7  -5  14    4.60    0.68
   7  -5 -14    5.01    0.63
   7   5 -14    4.73    0.77
  -7   5  14    3.92    0.72
   5  -5 -14   15.37    1.03
   5  -5 -14   16.68    1.02
  -5  -5  14   15.68    1.17
  -5   5  14   14.93    1.33
   5   5 -14   15.43    1.30
   3  -5 -14   16.73    1.05
   3  -5 -14   18.90    1.14
  -3  -5  14   17.89    1.24
  -3   5  14   19.09    1.53
   3   5 -14   19.36    1.44
  -3   5  14   17.51    1.21
  -1  -5  14   14.12    1.09
   1  -5 -14   16.93    1.01
   1  -5 -14   16.88    1.11
  -1   5  14   16.15    1.39
  -1   5  14   16.06    1.17
   1   5 -14   14.94    1.26
  -1  -5 -14    6.14    0.71
   1  -5  14    6.28    0.73
   1   5  14    5.95    0.84
   1   5  14    5.37    0.70
  -1   5 -14    4.49    0.72
  -3  -5 -14    8.45    0.80
   3  -5  14    8.03    0.73
   3   5  14    8.69    1.00
   3   5  14    9.19    0.89
  -3   5 -14    6.85    0.89
  -5  -5 -14    8.42    0.85
   5  -5  14    9.10    0.78
  -5   5 -14    7.79    0.91
   5   5  14    7.62    0.92
   5   5  14    8.86    0.97
  -7  -5 -14   12.46    1.08
   7  -5  14   13.04    0.94
   7  -5  14   13.12    1.10
   7   5  14   13.69    1.17
   7   5  14   13.06    1.13
  -7   5 -14   11.72    1.04
  -9  -5 -14    1.26    0.35
   9  -5  14    2.12    0.39
  -9   5 -14    1.81    0.31
   9   5  14    1.76    0.33
  11  -5  14    5.65    0.78
 -11  -5 -14    6.17    0.85
 -11   5 -14    4.68    0.66
  11   5  14    5.76    0.80
 -13  -5 -14    1.02    0.26
  13   5  14    1.14    0.23
 -15  -5 -14   14.21    1.29
  15  -5  14   14.03    1.28
  15   5  14   16.64    1.38
  16  -6 -14    2.55    0.52
 -16  -6  14    3.77    0.65
 -16   6  14    2.80    0.65
  16   6 -14    3.10    0.70
  14  -6 -14    7.27    0.88
 -14  -6  14    8.04    0.98
 -14   6  14    8.20    1.09
  14   6 -14    6.27    0.96
 -12  -6  14    2.28    0.51
  12  -6 -14    2.11    0.46
 -12   6  14    1.63    0.38
  12   6 -14    3.31    0.68
 -10  -6  14    3.98    0.66
  10  -6 -14    3.60    0.58
  10   6 -14    3.97    0.76
 -10   6  14    2.85    0.59
   8  -6 -14   15.61    1.12
  -8  -6  14   17.13    1.33
  -8   6  14   13.45    1.25
   8   6 -14   14.89    1.38
   6  -6 -14    8.30    0.75
  -6  -6  14    9.69    1.04
  -6   6  14    9.78    0.89
  -6   6  14    8.93    0.93
   6   6 -14   10.16    1.20
  -4  -6  14   12.86    1.12
   4  -6 -14   13.42    0.97
  -4   6  14   14.54    1.27
  -4   6  14   13.51    1.10
   4   6 -14   12.59    1.23
   2  -6 -14    5.28    0.63
  -2  -6  14    6.13    0.81
   2  -6 -14    6.24    0.60
   2   6 -14    5.50    0.86
  -2   6  14    8.18    0.90
   0  -6 -14    7.93    0.74
   0  -6  14    7.84    0.89
   0   6 -14    9.18    1.09
   0   6  14    8.99    0.87
  -2  -6 -14    3.17    0.51
   2  -6  14    3.42    0.56
   2   6  14    5.06    0.71
  -2   6 -14    4.63    0.76
  -4  -6 -14   21.72    1.42
   4  -6  14   22.78    1.42
   4   6  14   22.95    1.59
  -4   6 -14   21.02    1.54
  -6  -6 -14    5.05    0.71
   6  -6  14    6.08    0.68
   6   6  14    4.90    0.74
  -6   6 -14    4.88    0.72
  -8  -6 -14    2.42    0.48
   8  -6  14    2.92    0.46
   8   6  14    2.70    0.54
  -8   6 -14    2.61    0.50
 -10  -6 -14    7.36    0.94
  10  -6  14    7.03    0.60
  10   6  14    9.07    1.08
 -10   6 -14    8.35    0.81
 -12  -6 -14   12.64    1.18
  12   6  14   14.73    1.34
  11  -7 -14    0.93    0.24
 -11  -7  14    0.54    0.11
  11   7 -14    0.81    0.13
   9  -7 -14    3.28    0.51
  -9  -7  14    3.71    0.68
   9   7 -14    2.00    0.52
  -7  -7  14    0.80    0.28
   7  -7 -14    0.72    0.09
   7   7 -14    0.95    0.30
  -5  -7  14    0.18    0.14
   5   7 -14    0.42    0.18
  -3  -7  14    0.99    0.26
   3   7 -14    0.91    0.26
  -3   7  14    1.81    0.37
  -1  -7  14    1.87    0.41
  -1   7  14    2.47    0.52
   1   7 -14    2.66    0.57
   1  -7  14    0.44    0.07
  -1   7 -14    0.72    0.13
   3   7  14    1.34    0.13
  -3   7 -14    1.05    0.18
   5  -7  14    1.62    0.26
   5   7  14    2.57    0.48
  -5   7 -14    2.05    0.38
  26   0 -15    0.36    0.13
 -26   0  15    0.63    0.16
 -24   0  15    0.76    0.22
  24   0 -15    0.62    0.16
  22   0 -15    0.63    0.22
 -22   0  15    1.38    0.27
  20   0 -15    0.10    0.16
 -20   0  15    1.19    0.29
  20   0 -15    0.26    0.09
 -18   0  15    0.26    0.17
  18   0 -15    0.48    0.15
  18   0 -15    0.01    0.16
 -16   0  15    0.53    0.26
  16   0 -15   -0.17    0.16
  16   0 -15    0.08    0.11
 -14   0  15    0.59    0.27
  14   0 -15   -0.02    0.19
  14   0 -15    0.20    0.13
  14   0 -15    0.41    0.09
  12   0 -15    0.51    0.11
 -12   0  15    0.57    0.24
 -10   0  15    0.56    0.21
 -10   0  15    0.16    0.12
  10   0 -15    0.10    0.08
  -8   0  15    0.21    0.15
  -8   0  15    0.35    0.19
   8   0 -15    0.07    0.09
  -6   0  15    0.30    0.19
  -6   0  15    0.16    0.14
   6   0 -15    0.06    0.13
  -4   0  15    0.37    0.23
   4   0 -15    0.02    0.08
  -4   0  15    0.28    0.10
  -2   0  15    0.45    0.11
  -2   0  15    0.52    0.23
   2   0 -15    0.32    0.20
   0   0  15    0.25    0.18
   0   0 -15    0.10    0.19
   0   0  15    0.50    0.09
  -2   0 -15    0.44    0.23
   2   0  15    0.21    0.19
   4   0  15    0.53    0.24
  -4   0 -15    0.16    0.14
  -6   0 -15    0.22    0.20
   6   0  15    0.17    0.20
  -8   0 -15    0.35    0.18
   8   0  15    0.34    0.21
  10   0  15    0.37    0.22
 -10   0 -15    0.22    0.14
  12   0  15    0.18    0.18
 -12   0 -15    0.20    0.15
 -14   0 -15    0.29    0.13
  14   0  15    0.05    0.11
  16   0  15    0.63    0.26
 -16   0 -15    0.72    0.19
  18   0  15    0.64    0.26
  20   0  15   -0.06    0.15
  25  -1 -15    1.95    0.43
 -25  -1  15    2.38    0.49
 -25   1  15    3.57    0.83
  25   1 -15    2.44    0.52
 -23  -1  15    5.64    0.96
  23  -1 -15    6.47    0.85
  23   1 -15    5.49    0.81
  23   1 -15    5.31    0.48
 -23   1  15    6.39    1.15
  21  -1 -15    1.01    0.33
 -21  -1  15    1.45    0.37
 -21   1  15    0.88    0.21
  21   1 -15    1.37    0.28
  21   1 -15    1.53    0.50
  19  -1 -15    1.32    0.38
 -19  -1  15    1.03    0.32
 -19  -1  15    1.72    0.44
  19   1 -15    1.12    0.07
 -19   1  15    1.56    0.51
  17  -1 -15    9.94    0.90
 -17  -1  15   10.10    1.29
 -17  -1  15    7.99    0.86
 -17   1  15    8.34    1.29
  17   1 -15    7.36    0.66
 -15  -1  15    8.04    0.84
  15  -1 -15    7.07    0.54
 -15  -1  15    9.12    1.21
  15  -1 -15    8.33    0.87
  15   1 -15    8.49    0.73
 -15   1  15    7.69    1.20
  13  -1 -15    7.25    0.78
  13  -1 -15    6.64    0.55
  13  -1 -15    6.17    0.68
 -13  -1  15    7.17    1.07
 -13  -1  15    5.58    0.67
 -13   1  15    5.67    1.02
  13   1 -15    6.10    0.62
 -11  -1  15    2.94    0.50
  11  -1 -15    2.99    0.41
  11  -1 -15    2.80    0.48
 -11  -1  15    2.89    0.70
  11  -1 -15    2.39    0.44
  11   1 -15    2.74    0.47
 -11   1  15    3.06    0.80
   9  -1 -15    8.31    0.70
  -9  -1  15    7.69    1.11
   9  -1 -15    8.00    0.72
   9  -1 -15    9.09    0.71
  -9  -1  15    8.37    0.73
   9   1 -15    6.79    0.74
  -9   1  15    7.53    1.14
  -7  -1  15    4.86    0.58
  -7  -1  15    3.47    0.76
   7  -1 -15    5.90    0.65
   7  -1 -15    4.82    0.57
   7  -1 -15    4.50    0.55
  -7   1  15    4.24    0.90
   7   1 -15    4.18    0.59
   5  -1 -15    4.04    0.55
   5  -1 -15    5.44    0.61
  -5  -1  15    5.25    0.91
   5  -1 -15    4.07    0.49
  -5  -1  15    4.14    0.51
   5   1 -15    4.08    0.59
  -5   1  15    3.76    0.81
  -3  -1  15    8.22    0.64
   3  -1 -15    8.93    0.72
  -3  -1  15    9.62    1.14
   3  -1 -15    8.00    0.72
   3  -1 -15    8.54    0.64
   3   1 -15    7.99    0.76
  -3   1  15    7.11    1.07
  -1  -1  15    1.65    0.29
   1  -1 -15    0.48    0.24
   1  -1 -15    1.52    0.32
   1  -1 -15    1.43    0.26
  -1  -1  15    1.38    0.44
   1   1 -15    1.03    0.36
  -1   1  15    1.69    0.55
   1  -1  15    3.89    0.36
  -1  -1 -15    3.73    0.57
  -1  -1 -15    3.48    0.46
  -1  -1 -15    3.27    0.35
   1  -1  15    2.68    0.62
   1   1  15    2.49    0.64
  -1   1 -15    2.98    0.54
  -3  -1 -15    7.32    0.74
   3  -1  15    8.74    0.55
   3  -1  15    8.24    1.06
  -3   1 -15    7.15    0.79
   3   1  15    6.77    0.99
  -5  -1 -15    0.15    0.17
   5  -1  15    0.81    0.28
   5   1  15    0.66    0.28
  -5   1 -15    0.42    0.20
   7  -1  15    0.44    0.27
  -7  -1 -15    0.28    0.20
  -7   1 -15    0.26    0.17
   7   1  15    1.99    0.60
  -9  -1 -15    1.18    0.38
   9  -1  15    1.71    0.56
  -9   1 -15    1.75    0.42
   9   1  15    1.22    0.44
 -11  -1 -15    0.90    0.26
  11  -1  15    0.89    0.34
  11   1  15    0.77    0.33
 -11   1 -15    1.01    0.31
 -13  -1 -15    1.61    0.34
  13  -1  15    3.58    0.75
 -13  -1 -15    2.43    0.50
 -13   1 -15    3.61    0.60
  13   1  15    2.59    0.67
  15  -1  15    0.40    0.20
 -15  -1 -15    0.53    0.19
  15   1  15    0.01    0.14
 -15   1 -15    0.20    0.11
 -17  -1 -15    3.24    0.61
 -17  -1 -15    2.67    0.45
  17  -1  15    3.36    0.76
 -17   1 -15    2.34    0.45
  17   1  15    3.79    0.78
 -17   1 -15    3.21    0.52
 -19  -1 -15    0.78    0.14
  19  -1  15    0.34    0.17
  19   1  15    0.48    0.16
  21  -1  15    0.38    0.11
 -21  -1 -15    0.77    0.12
  21   1  15    0.39    0.10
 -21   1 -15    0.83    0.11
 -24  -2  15    7.11    1.01
  24  -2 -15    6.23    0.85
 -24   2  15    5.52    1.08
 -22  -2  15    1.10    0.17
  22  -2 -15    0.80    0.25
 -22  -2  15    0.97    0.27
 -22   2  15    0.99    0.25
 -20  -2  15    6.72    0.94
  20  -2 -15    7.57    0.89
 -20  -2  15    7.53    0.87
 -20   2  15    8.10    1.31
  20   2 -15    7.51    0.66
 -18  -2  15    7.48    0.84
  18  -2 -15    6.64    0.81
 -18  -2  15    8.09    1.07
  18   2 -15    7.13    0.70
 -18   2  15    8.24    1.30
 -16  -2  15   11.68    1.19
 -16  -2  15   11.84    0.98
  16  -2 -15   11.60    0.99
  16   2 -15   11.23    0.90
 -16   2  15   10.99    1.46
 -14  -2  15    0.88    0.30
  14  -2 -15    0.72    0.22
 -14  -2  15    1.10    0.30
 -14   2  15    0.52    0.27
  14   2 -15    0.83    0.22
  12  -2 -15    6.61    0.51
  12  -2 -15    5.35    0.66
 -12  -2  15    5.87    0.70
 -12  -2  15    6.57    0.95
  12   2 -15    6.16    0.73
 -12   2  15    6.62    1.14
  10  -2 -15    6.26    0.54
  10  -2 -15    7.04    0.67
 -10  -2  15    6.87    0.73
 -10  -2  15    6.75    0.94
  10   2 -15    7.15    0.78
 -10   2  15    6.03    1.04
  -8  -2  15    3.61    0.73
   8  -2 -15    3.51    0.50
   8  -2 -15    3.24    0.43
  -8  -2  15    3.55    0.52
  -8   2  15    3.64    0.84
   8   2 -15    4.11    0.62
   6  -2 -15    5.03    0.56
  -6  -2  15    5.81    0.91
  -6  -2  15    4.80    0.58
   6  -2 -15    5.20    0.53
   6   2 -15    5.01    0.69
  -6   2  15    5.05    0.96
  -4  -2  15    3.03    0.67
   4  -2 -15    3.03    0.46
   4  -2 -15    3.62    0.45
  -4  -2  15    3.00    0.46
   4   2 -15    2.55    0.51
  -4   2  15    3.13    0.77
  -2  -2  15   22.22    1.14
  -2  -2  15   20.82    1.56
   2  -2 -15   20.80    1.20
   2  -2 -15   21.78    1.04
  -2   2  15   21.28    1.72
   2   2 -15   20.98    1.32
   0  -2  15    8.84    0.66
   0  -2 -15    8.94    0.59
   0  -2  15   10.05    1.05
   0  -2 -15    8.61    0.77
   0   2 -15    9.29    0.86
   0   2  15    8.84    1.14
  -2  -2 -15    1.69    0.42
   2  -2  15    3.04    0.38
   2  -2  15    3.21    0.63
   2   2  15    3.53    0.76
  -2   2 -15    3.29    0.56
   4  -2  15    7.63    1.03
  -4  -2 -15    5.23    0.68
   4  -2  15    6.22    0.46
  -4   2 -15    6.00    0.75
   4   2  15    5.01    0.87
   6  -2  15   17.27    1.46
  -6  -2 -15   16.01    1.14
  -6   2 -15   16.29    1.18
   6   2  15   13.27    1.30
   8  -2  15    5.12    0.87
  -8  -2 -15    4.93    0.70
   8   2  15    4.59    0.84
   8   2  15    5.64    0.54
  -8   2 -15    5.17    0.71
  10  -2  15    2.17    0.59
 -10  -2 -15    2.64    0.53
  10   2  15    3.19    0.46
  10   2  15    2.27    0.61
 -10   2 -15    2.83    0.54
 -12  -2 -15    1.78    0.45
  12  -2  15    1.58    0.49
  12   2  15    1.96    0.36
  12   2  15    1.99    0.55
 -12   2 -15    1.30    0.33
 -14  -2 -15   16.10    1.24
  14  -2  15   14.73    1.41
  14   2  15   15.03    1.42
 -14   2 -15   14.83    1.13
  14   2  15   17.57    1.18
  16  -2  15    5.44    0.94
 -16  -2 -15    6.26    0.82
  16   2  15    6.51    0.99
 -16   2 -15    6.43    0.74
  16   2  15    5.86    0.70
  18  -2  15    2.84    0.73
 -18  -2 -15    3.35    0.61
  18   2  15    3.77    0.76
 -18   2 -15    3.11    0.52
  20  -2  15    0.53    0.10
 -20  -2 -15    0.90    0.14
  20   2  15    0.76    0.10
 -20   2 -15    0.63    0.12
  23  -3 -15   18.58    1.43
 -23  -3  15   15.89    1.26
 -23   3  15   19.38    1.95
  23   3 -15   19.88    1.30
 -21  -3  15    4.79    0.72
  21  -3 -15    4.45    0.72
 -21   3  15    5.24    1.08
  21   3 -15    4.25    0.57
 -19  -3  15   22.68    1.62
 -19  -3  15   20.53    1.41
  19  -3 -15   22.00    1.49
  19   3 -15   22.72    1.44
 -19   3  15   22.72    2.07
 -17  -3  15    0.52    0.18
  17  -3 -15    0.74    0.27
 -17  -3  15    0.85    0.16
 -17   3  15    0.76    0.27
  17   3 -15    0.72    0.19
 -15  -3  15   26.33    1.75
  15  -3 -15   23.33    1.43
 -15  -3  15   24.21    1.46
  15   3 -15   24.56    1.53
 -15   3  15   22.38    1.98
  13  -3 -15   24.80    1.42
 -13  -3  15   26.71    1.75
 -13  -3  15   23.38    1.43
  13   3 -15   24.54    1.54
 -13   3  15   25.35    2.05
 -11  -3  15   15.93    1.13
 -11  -3  15   16.56    1.33
  11  -3 -15   16.32    1.09
 -11   3  15   16.83    1.64
  11   3 -15   17.02    1.25
   9  -3 -15    2.43    0.44
  -9  -3  15    3.17    0.60
   9  -3 -15    3.27    0.30
  -9  -3  15    2.09    0.44
  -9   3  15    3.34    0.81
   9   3 -15    2.18    0.51
  -7  -3  15   47.78    1.96
   7  -3 -15   46.06    1.82
   7  -3 -15   48.06    1.81
  -7  -3  15   46.87    2.46
   7   3 -15   50.31    2.19
  -7   3  15   46.27    2.73
   5  -3 -15    1.17    0.28
  -5  -3  15    1.00    0.29
   5  -3 -15    1.22    0.30
  -5  -3  15    1.06    0.34
  -5   3  15    1.55    0.50
   5   3 -15    0.71    0.35
   3  -3 -15   37.59    1.64
  -3  -3  15   34.74    2.01
   3  -3 -15   36.95    1.49
  -3  -3  15   35.46    1.59
  -3   3  15   34.32    2.29
   3   3 -15   35.83    1.83
  -1  -3  15    6.92    0.62
  -1  -3  15    7.89    0.93
   1  -3 -15    7.02    0.54
   1  -3 -15    6.97    0.67
  -1   3  15    6.50    1.00
   1   3 -15    7.45    0.86
   1  -3  15   20.53    1.50
   1  -3  15   18.95    1.06
  -1  -3 -15   21.01    1.27
   1   3  15   20.53    1.64
  -1   3 -15   18.83    1.30
   3  -3  15    1.14    0.23
  -3  -3 -15    1.05    0.32
   3  -3  15    1.34    0.34
  -3   3 -15    0.52    0.24
   3   3  15    0.72    0.28
  -5  -3 -15   16.58    1.17
   5  -3  15   17.76    1.43
   5  -3  15   17.54    0.95
  -5   3 -15   16.55    1.23
   5   3  15   16.19    1.44
  -7  -3 -15    2.13    0.49
   7  -3  15    1.99    0.51
  -7   3 -15    1.52    0.41
   7   3  15    2.05    0.40
   7   3  15    2.10    0.56
   9  -3  15    1.93    0.52
  -9  -3 -15    1.31    0.36
   9   3  15    1.46    0.42
  -9   3 -15    1.18    0.34
   9   3  15    1.81    0.35
 -11  -3 -15    6.59    0.84
  11  -3  15    7.53    1.02
  11   3  15    7.02    0.79
 -11   3 -15    7.21    0.83
  11   3  15    7.19    0.99
 -13  -3 -15   12.96    1.13
  13  -3  15   12.05    1.25
  13   3  15   16.39    1.41
  13   3  15   15.01    1.14
 -13   3 -15   13.32    1.07
  15  -3  15    0.92    0.23
 -15  -3 -15    0.98    0.21
 -15   3 -15    1.05    0.17
  15   3  15    1.13    0.22
  15   3  15    0.84    0.13
  17  -3  15   14.47    1.40
 -17  -3 -15   14.59    1.25
  17   3  15   12.67    1.06
 -17   3 -15   14.14    1.09
  17   3  15   11.69    1.16
  19  -3  15    9.08    1.19
 -19  -3 -15   10.44    1.04
  19   3  15   10.65    0.98
  19   3  15    9.14    0.93
  22  -4 -15   16.61    1.35
 -22  -4  15   18.72    1.39
  22   4 -15   19.47    1.34
 -22   4  15   19.36    1.87
  20  -4 -15   19.96    1.47
 -20  -4  15   20.11    1.45
 -20   4  15   21.23    1.98
  20   4 -15   21.36    1.46
  18  -4 -15    2.67    0.55
 -18  -4  15    3.75    0.63
 -18   4  15    3.78    0.85
  18   4 -15    3.99    0.62
 -16  -4  15   19.66    1.39
  16  -4 -15   18.99    1.34
 -16   4  15   21.14    1.89
  16   4 -15   20.03    1.48
  14  -4 -15    7.20    0.83
 -14  -4  15    5.99    0.80
 -14   4  15    9.53    1.29
  14   4 -15    7.89    0.96
  12  -4 -15   11.87    0.96
 -12  -4  15   11.98    1.02
  12   4 -15   10.56    1.04
 -12   4  15   12.58    1.46
 -10  -4  15    1.45    0.40
  10  -4 -15    1.64    0.39
  10   4 -15    1.07    0.37
 -10   4  15    1.21    0.35
   8  -4 -15   16.14    1.09
  -8  -4  15   17.03    1.18
  -8   4  15   17.43    1.57
   8   4 -15   18.87    1.40
   6  -4 -15   35.24    1.61
  -6  -4  15   35.07    1.73
  -6  -4  15   32.97    1.92
   6  -4 -15   37.62    1.63
   6   4 -15   36.30    1.97
  -6   4  15   35.47    2.31
   4  -4 -15   11.04    0.83
  -4  -4  15   10.98    0.96
  -4  -4  15   10.14    0.87
   4  -4 -15    9.70    0.75
   4   4 -15   10.08    0.98
  -4   4  15   10.53    1.26
   2  -4 -15   34.43    1.50
  -2  -4  15   35.74    1.95
   2  -4 -15   33.23    1.61
  -2  -4  15   34.91    1.65
  -2   4  15   33.10    2.21
   2   4 -15   34.21    1.89
   0  -4 -15   19.01    1.21
   0  -4  15   20.80    1.23
   0  -4  15   21.34    1.44
   0   4 -15   19.57    1.40
   0   4  15   17.77    1.53
   2  -4  15   32.67    1.55
   2  -4  15   33.48    1.91
  -2  -4 -15   31.53    1.64
  -2   4 -15   30.81    1.77
   2   4  15   30.88    2.06
   4  -4  15    9.37    0.95
  -4  -4 -15    9.34    0.88
   4  -4  15    9.89    0.76
   4   4  15    9.66    1.01
  -4   4 -15    9.46    0.94
   4   4  15   11.00    0.92
  -6  -4 -15    8.78    0.94
   6  -4  15    9.32    0.70
   6  -4  15    8.75    0.93
   6   4  15    8.80    1.06
   6   4  15    9.04    0.84
  -6   4 -15    9.00    0.98
  -8  -4 -15    8.01    0.91
   8  -4  15    7.25    0.94
  -8   4 -15    6.88    0.82
   8   4  15    7.50    0.85
   8   4  15    7.14    0.94
  10  -4  15   16.66    1.39
 -10  -4 -15   17.11    1.31
  10   4  15   16.75    1.27
 -10   4 -15   17.03    1.26
  10   4  15   17.22    1.37
 -12  -4 -15    6.29    0.86
  12  -4  15    5.54    0.83
  12   4  15    6.85    0.88
  12   4  15    6.96    0.85
 -12   4 -15    6.41    0.78
  14  -4  15   26.34    1.88
 -14  -4 -15   25.06    1.71
 -14   4 -15   27.48    1.62
  14   4  15   27.88    1.77
  14   4  15   26.27    1.82
 -16  -4 -15    4.11    0.71
  16  -4  15    3.28    0.64
  16   4  15    3.83    0.61
  16   4  15    4.06    0.67
  19  -5 -15   35.12    2.04
 -19  -5  15   36.39    2.06
  19   5 -15   34.69    2.12
 -19   5  15   35.51    2.51
 -17  -5  15    2.61    0.55
  17  -5 -15    1.84    0.45
 -17   5  15    1.31    0.31
  17   5 -15    2.79    0.62
  15  -5 -15   25.04    1.61
 -15  -5  15   27.54    1.72
  15   5 -15   27.24    1.85
 -15   5  15   28.47    2.09
 -13  -5  15    1.32    0.35
  13  -5 -15    1.75    0.46
 -13   5  15    1.71    0.33
  13   5 -15    0.99    0.40
  11  -5 -15   56.80    2.36
 -11  -5  15   55.62    2.48
 -11   5  15   62.56    3.21
  11   5 -15   57.59    2.78
  -9  -5  15    1.74    0.45
   9  -5 -15    1.92    0.41
  -9   5  15    3.16    0.64
   9   5 -15    1.93    0.53
  -7  -5  15   43.88    2.11
   7  -5 -15   42.86    1.90
  -7   5  15   41.76    2.52
   7   5 -15   43.06    2.33
  -5  -5  15    0.63    0.22
   5  -5 -15    0.96    0.23
  -5   5  15    1.94    0.43
   5   5 -15    0.59    0.27
   3  -5 -15   92.24    3.02
  -3  -5  15   91.56    3.15
   3  -5 -15   95.86    2.91
   3   5 -15   89.15    3.48
  -3   5  15   97.64    3.99
   1  -5 -15    5.31    0.63
  -1  -5  15    5.68    0.72
   1   5 -15    6.37    0.88
  -1   5  15    5.37    0.84
  -1  -5 -15   25.41    1.46
   1  -5  15   23.31    1.40
   1   5  15   24.15    1.78
  -1   5 -15   24.72    1.66
   3  -5  15    4.62    0.59
  -3  -5 -15    4.95    0.66
   3   5  15    5.03    0.69
  -3   5 -15    3.51    0.65
   3   5  15    4.81    0.73
   5  -5  15   11.52    0.87
  -5  -5 -15   11.92    1.03
   5   5  15   12.25    1.06
  -5   5 -15   12.42    1.11
   5   5  15   14.08    1.23
  -7  -5 -15    5.14    0.74
   7  -5  15    5.73    0.52
   7   5  15    6.92    0.87
  -7   5 -15    6.56    0.83
   7   5  15    7.57    0.90
   9  -5  15    7.51    0.91
  -9  -5 -15    6.60    0.85
  -9   5 -15    8.95    0.97
   9   5  15    7.09    0.74
   9   5  15    8.59    1.00
  11  -5  15    4.48    0.68
 -11  -5 -15    4.38    0.73
  11   5  15    4.64    0.67
 -11   5 -15    5.76    0.78
  13  -5  15   22.04    1.67
 -13  -5 -15   20.05    1.55
  13   5  15   23.63    1.69
 -14  -6  15    7.55    0.95
  14  -6 -15    6.81    0.83
  14   6 -15    7.90    1.07
 -14   6  15    6.21    0.95
  12  -6 -15   14.85    1.14
 -12  -6  15   13.98    1.22
  12   6 -15   15.03    1.41
 -12   6  15   11.26    1.19
  10  -6 -15    7.56    0.82
 -10  -6  15    5.73    0.80
 -10   6  15    5.35    0.86
  10   6 -15    7.38    1.02
  -8  -6  15   19.78    1.43
   8  -6 -15   17.60    1.23
   8   6 -15   20.26    1.65
  -8   6  15   17.42    1.49
   6  -6 -15   41.15    1.93
  -6  -6  15   40.80    2.15
  -6   6  15   40.10    2.37
   6   6 -15   40.65    2.40
  -4  -6  15   16.78    1.29
   4  -6 -15   15.78    1.07
   4   6 -15   16.58    1.44
  -4   6  15   15.40    1.34
   2  -6 -15   30.20    1.63
  -2  -6  15   26.02    1.64
   2   6 -15   26.79    1.87
   0  -6  15   19.61    1.36
   0  -6 -15   16.54    1.19
   0   6 -15   19.05    1.51
   0   6  15   20.34    1.40
   2  -6  15   44.69    2.11
  -2  -6 -15   40.72    2.06
   2   6  15   42.04    2.26
  -2   6 -15   41.79    2.32
   4  -6  15   12.30    0.94
  -4  -6 -15   11.85    1.01
  -4   6 -15   12.04    1.11
   4   6  15   12.35    1.12
   6  -6  15    6.77    0.59
  -6  -6 -15    6.93    0.81
   6   6  15    8.10    0.98
  -6   6 -15    7.89    0.96
   8  -6  15    2.66    0.23
  -8  -6 -15    2.27    0.50
  -8   6 -15    2.36    0.46
   8   6  15    2.69    0.54
 -10  -6 -15   41.11    2.27
  10   6  15   43.44    2.45
 -10   6 -15   42.69    2.28
   5  -7 -15    0.87    0.11
  -5  -7  15    0.72    0.14
   5   7 -15    0.97    0.26
  -3  -7  15   49.83    2.50
   3   7 -15   52.14    2.85
  -1  -7  15    4.44    0.66
   1   7 -15    3.68    0.69
  -1  -7 -15   35.57    1.97
   1  -7  15   36.89    1.99
  -1   7 -15   32.22    2.12
   1   7  15   36.45    2.15
  24   0 -16   64.08    2.78
 -24   0  16   62.56    3.57
  22   0 -16    9.91    1.05
 -22   0  16   11.30    1.49
 -20   0  16   26.28    2.15
  20   0 -16   29.36    1.72
  20   0 -16   28.59    1.38
 -18   0  16   10.30    1.40
  18   0 -16    9.49    0.99
  18   0 -16    9.79    0.77
  16   0 -16   56.35    2.35
  16   0 -16   57.47    2.13
  16   0 -16   60.77    2.13
 -16   0  16   58.84    3.28
  14   0 -16    5.82    0.65
  14   0 -16    5.98    0.56
  14   0 -16    5.28    0.74
 -14   0  16    5.65    1.00
 -12   0  16   13.79    1.44
  12   0 -16   15.22    0.97
  12   0 -16   13.32    1.06
  12   0 -16   12.93    0.92
 -10   0  16    0.72    0.33
 -10   0  16    0.35    0.20
  10   0 -16    0.70    0.18
   8   0 -16  109.14    3.24
  -8   0  16  115.07    3.17
  -8   0  16  107.81    4.45
   6   0 -16    8.12    0.76
  -6   0  16    8.76    0.70
  -6   0  16    8.25    1.16
  -4   0  16  147.49    3.57
  -4   0  16  142.01    5.05
   4   0 -16  143.03    3.91
  -2   0  16    2.44    0.65
  -2   0  16    3.40    0.41
   2   0 -16    2.07    0.46
   0   0  16  144.59    3.36
   0   0 -16  137.52    3.89
   0   0  16  137.33    4.82
  -2   0 -16    3.39    0.58
   2   0  16    3.36    0.32
   2   0  16    3.92    0.78
   4   0  16   44.25    2.50
  -4   0 -16   40.48    1.91
  -6   0 -16    0.90    0.32
   6   0  16    2.03    0.60
   8   0  16  112.51    4.37
  -8   0 -16  113.67    3.59
 -10   0 -16   17.70    1.27
  10   0  16   18.07    1.61
  12   0  16   55.80    3.01
 -12   0 -16   55.67    2.42
  14   0  16   11.61    1.39
 -14   0 -16   10.48    0.98
  16   0  16   35.42    2.40
 -16   0 -16   34.65    1.94
 -18   0 -16   22.07    1.49
  18   0  16   21.62    1.87
 -25  -1  16   28.65    2.18
  25  -1 -16   28.02    1.78
 -25   1  16   27.08    2.33
  25   1 -16   27.55    1.74
 -23  -1  16    6.80    1.05
  23  -1 -16    6.78    0.88
 -23   1  16    8.81    1.37
  23   1 -16    7.21    0.93
  23   1 -16    6.58    0.57
 -21  -1  16   37.42    2.52
  21  -1 -16   34.31    1.92
  21   1 -16   31.38    1.84
  21   1 -16   34.89    1.49
 -21   1  16   37.18    2.71
  19  -1 -16   12.11    1.07
 -19  -1  16   16.48    1.56
  19   1 -16   12.54    0.87
 -19   1  16   14.98    1.74
 -17  -1  16   41.73    2.01
  17  -1 -16   47.74    2.15
 -17  -1  16   49.39    2.87
  17   1 -16   43.66    1.89
 -17   1  16   45.03    2.94
 -15  -1  16    6.64    0.79
 -15  -1  16    7.22    1.09
  15  -1 -16    5.97    0.74
  15   1 -16    7.03    0.67
 -15   1  16    7.00    1.16
  13  -1 -16   38.34    1.61
  13  -1 -16   39.89    1.84
 -13  -1  16   40.01    2.53
  13  -1 -16   40.25    1.75
 -13  -1  16   39.80    1.83
 -13   1  16   35.76    2.52
  13   1 -16   41.40    1.83
  11  -1 -16   57.21    2.12
 -11  -1  16   57.32    2.17
 -11  -1  16   53.15    2.91
  11  -1 -16   52.51    2.09
  11  -1 -16   52.15    1.98
  11   1 -16   52.88    2.13
 -11   1  16   56.43    3.13
  -9  -1  16   46.05    1.89
  -9  -1  16   46.41    2.70
   9  -1 -16   45.73    1.84
   9  -1 -16   47.17    1.89
   9  -1 -16   49.32    1.92
   9   1 -16   46.05    1.98
  -9   1  16   43.15    2.72
   7  -1 -16   63.39    2.17
  -7  -1  16   64.70    3.24
  -7  -1  16   62.19    2.19
   7  -1 -16   65.37    2.30
   7  -1 -16   63.47    2.24
   7   1 -16   67.38    2.46
  -7   1  16   58.43    3.19
   5  -1 -16   39.18    1.58
  -5  -1  16   40.54    2.41
  -5  -1  16   38.05    1.59
   5  -1 -16   39.47    1.74
   5  -1 -16   39.81    1.70
   5   1 -16   39.36    1.83
  -5   1  16   38.31    2.47
  -3  -1  16   85.32    2.51
   3  -1 -16   83.87    2.76
   3  -1 -16   87.67    2.71
   3  -1 -16   85.33    2.45
  -3  -1  16   88.51    3.65
   3   1 -16   86.33    2.89
  -3   1  16   84.25    3.73
   1  -1 -16   15.18    0.98
  -1  -1  16   14.45    0.86
   1  -1 -16   16.16    0.88
  -1  -1  16   14.36    1.35
   1  -1 -16   16.31    1.11
  -1   1  16   14.44    1.40
   1   1 -16   12.71    1.02
  -1  -1 -16   23.13    1.01
   1  -1  16   21.60    1.67
   1  -1  16   20.79    1.02
  -1  -1 -16   22.29    1.21
  -1  -1 -16   20.54    1.28
  -1   1 -16   20.65    1.33
   1   1  16   24.25    1.82
   3  -1  16    2.86    0.27
  -3  -1 -16    2.42    0.49
   3  -1  16    3.19    0.72
  -3   1 -16    1.68    0.44
   3   1  16    2.89    0.73
  -5  -1 -16   35.42    1.79
   5  -1  16   36.82    2.28
   5   1  16   37.07    2.29
  -5   1 -16   35.57    1.81
  -7  -1 -16    2.76    0.54
   7  -1  16    3.54    0.78
  -7   1 -16    3.55    0.60
   7   1  16    2.94    0.71
   9  -1  16   60.92    3.09
  -9  -1 -16   59.00    2.46
   9   1  16   59.04    3.03
  -9   1 -16   59.89    2.48
  11  -1  16    5.28    0.94
 -11  -1 -16    5.22    0.74
  11   1  16    5.41    0.94
 -11   1 -16    6.81    0.82
 -13  -1 -16   66.48    2.75
  13  -1  16   63.03    3.25
  13   1  16   68.12    3.37
 -13   1 -16   66.16    2.70
  15  -1  16    7.73    1.14
 -15  -1 -16    8.33    0.94
 -15   1 -16    8.52    0.85
  15   1  16   10.12    1.29
 -17  -1 -16   32.79    1.91
  17  -1  16   31.60    2.25
  17   1  16   31.69    2.27
 -17   1 -16   35.93    1.93
  19  -1  16    0.84    0.21
 -19  -1 -16    0.71    0.18
  19   1  16    1.50    0.31
 -19   1 -16    0.87    0.14
  24  -2 -16   24.85    1.68
 -24  -2  16   23.11    1.83
 -24   2  16   23.07    2.13
  24   2 -16   21.54    1.07
  22  -2 -16    1.26    0.41
 -22  -2  16    1.90    0.50
 -22  -2  16    1.57    0.37
 -22   2  16    2.04    0.51
 -20  -2  16   32.44    1.84
 -20  -2  16   37.98    2.37
  20  -2 -16   35.34    1.93
  20   2 -16   34.05    1.73
 -20   2  16   35.37    2.65
 -18  -2  16   18.58    1.58
  18  -2 -16   18.67    1.32
 -18  -2  16   18.19    1.29
  18   2 -16   16.47    1.11
 -18   2  16   16.64    1.87
  16  -2 -16   10.97    0.97
 -16  -2  16   10.42    0.94
 -16  -2  16   12.02    1.24
 -16   2  16   11.38    1.51
  16   2 -16    9.79    0.85
 -14  -2  16    1.19    0.34
 -14  -2  16    1.58    0.34
  14  -2 -16    1.39    0.35
  14   2 -16    0.97    0.27
 -14   2  16    0.66    0.28
  12  -2 -16   76.57    2.66
 -12  -2  16   81.48    3.54
 -12  -2  16   73.72    2.65
  12  -2 -16   79.26    2.43
  12   2 -16   75.17    2.75
 -12   2  16   78.87    3.90
  10  -2 -16    0.68    0.26
  10  -2 -16    0.65    0.09
 -10  -2  16    0.18    0.15
 -10  -2  16    0.81    0.19
  10   2 -16    0.20    0.17
 -10   2  16    0.93    0.30
   8  -2 -16   66.18    2.25
  -8  -2  16   66.81    3.20
  -8  -2  16   65.45    2.32
   8  -2 -16   67.34    2.29
   8   2 -16   63.56    2.50
  -8   2  16   63.29    3.35
  -6  -2  16    2.42    0.43
   6  -2 -16    2.60    0.41
   6  -2 -16    3.15    0.45
  -6  -2  16    3.67    0.74
  -6   2  16    2.91    0.79
   6   2 -16    2.51    0.52
  -4  -2  16   84.18    3.58
   4  -2 -16   86.36    2.51
   4  -2 -16   87.41    2.75
  -4  -2  16   87.48    2.65
  -4   2  16   77.24    3.70
   4   2 -16   83.89    2.94
   2  -2 -16    1.84    0.40
  -2  -2  16    1.52    0.30
  -2  -2  16    2.39    0.60
   2  -2 -16    1.91    0.31
   2   2 -16    1.40    0.43
  -2   2  16    1.18    0.48
   0  -2 -16   60.95    2.34
   0  -2  16   67.00    2.13
   0  -2  16   70.34    3.09
   0  -2 -16   65.13    1.95
   0   2 -16   61.90    2.48
   0   2  16   63.74    3.13
   2  -2  16    1.04    0.39
  -2  -2 -16    1.10    0.35
   2  -2  16    1.08    0.20
  -2   2 -16    0.81    0.27
   2   2  16    1.09    0.42
  -4  -2 -16   59.62    2.38
   4  -2  16   59.54    1.92
   4  -2  16   62.28    2.99
   4   2  16   61.19    3.03
  -4   2 -16   58.04    2.43
   6  -2  16   14.36    1.35
  -6  -2 -16   10.24    0.93
  -6   2 -16   13.61    1.10
   6   2  16   12.49    1.29
   8  -2  16   67.00    3.20
  -8  -2 -16   65.33    2.63
  -8   2 -16   64.33    2.62
   8   2  16   70.45    3.29
 -10  -2 -16    3.15    0.58
  10  -2  16    3.37    0.76
 -10   2 -16    3.04    0.57
  10   2  16    3.46    0.77
 -12  -2 -16   40.09    2.09
  12  -2  16   43.46    2.60
  12   2  16   44.37    2.63
 -12   2 -16   42.11    2.08
  14  -2  16   27.86    2.07
 -14  -2 -16   26.89    1.70
 -14   2 -16   26.78    1.64
  14   2  16   29.15    2.10
 -16  -2 -16   33.44    1.97
  16  -2  16   33.14    2.31
  16   2  16   34.52    2.33
  16   2  16   31.40    1.74
 -16   2 -16   34.27    1.90
  18  -2  16    6.97    1.07
 -18  -2 -16    6.94    0.90
  18   2  16    8.48    0.80
  18   2  16    5.46    0.90
 -18   2 -16    6.81    0.80
  23  -3 -16    8.22    0.99
 -23  -3  16    7.98    0.94
 -23   3  16    8.04    1.33
  23   3 -16    6.74    0.57
 -21  -3  16   21.13    1.47
  21  -3 -16   21.88    1.54
  21   3 -16   19.84    1.31
 -21   3  16   18.89    1.90
 -19  -3  16    1.85    0.43
  19  -3 -16    1.57    0.40
 -19  -3  16    1.74    0.32
  19   3 -16    1.51    0.27
 -19   3  16    2.13    0.53
  17  -3 -16   20.69    1.41
 -17  -3  16   19.33    1.36
 -17  -3  16   20.99    1.58
  17   3 -16   20.62    1.40
 -17   3  16   23.14    2.07
  15  -3 -16   15.49    1.16
 -15  -3  16   15.98    1.22
 -15  -3  16   18.60    1.47
 -15   3  16   16.83    1.73
  15   3 -16   17.02    1.26
 -13  -3  16   34.42    2.08
  13  -3 -16   35.13    1.75
 -13  -3  16   34.29    1.77
 -13   3  16   33.06    2.43
  13   3 -16   33.09    1.83
 -11  -3  16   17.96    1.23
  11  -3 -16   19.00    1.21
 -11  -3  16   22.24    1.62
 -11   3  16   18.37    1.75
  11   3 -16   19.25    1.35
  -9  -3  16   23.09    1.38
  -9  -3  16   25.28    1.78
   9  -3 -16   24.29    1.33
   9  -3 -16   23.05    1.19
   9   3 -16   24.05    1.51
  -9   3  16   23.97    1.96
   7  -3 -16   46.05    1.81
  -7  -3  16   43.43    2.44
  -7  -3  16   43.20    1.90
   7  -3 -16   43.27    1.79
  -7   3  16   43.36    2.71
   7   3 -16   46.34    2.16
  -5  -3  16   34.43    1.64
   5  -3 -16   35.82    1.62
  -5  -3  16   36.80    2.15
   5  -3 -16   37.17    1.58
   5   3 -16   33.94    1.83
  -5   3  16   36.74    2.45
  -3  -3  16   14.06    0.96
  -3  -3  16   16.79    1.37
   3  -3 -16   15.64    1.04
   3  -3 -16   14.50    0.89
  -3   3  16   13.78    1.44
   3   3 -16   13.38    1.11
   1  -3 -16    3.98    0.55
  -1  -3  16    3.38    0.65
  -1  -3  16    4.37    0.54
   1  -3 -16    4.10    0.45
   1   3 -16    3.72    0.63
  -1   3  16    4.33    0.86
   1  -3  16   24.40    1.25
  -1  -3 -16   23.93    1.41
   1  -3  16   24.28    1.70
   1   3  16   21.33    1.75
  -1   3 -16   25.14    1.55
  -3  -3 -16    6.35    0.75
   3  -3  16    6.66    0.54
   3  -3  16    5.65    0.83
   3   3  16    6.10    0.97
  -3   3 -16    5.86    0.78
   5  -3  16   17.18    0.95
   5  -3  16   19.04    1.54
  -5  -3 -16   17.12    1.23
  -5   3 -16   17.07    1.26
   5   3  16   15.94    1.45
   7  -3  16    0.65    0.27
  -7  -3 -16    0.48    0.25
   7   3  16    1.06    0.41
  -7   3 -16    0.46    0.19
  -9  -3 -16   32.81    1.83
   9  -3  16   33.69    2.19
   9   3  16   33.43    2.19
  -9   3 -16   32.21    1.82
 -11  -3 -16    5.34    0.78
  11  -3  16    6.85    1.00
 -11   3 -16    6.14    0.78
  11   3  16    6.92    0.98
  13  -3  16   48.81    2.77
 -13  -3 -16   42.75    2.23
  13   3  16   42.37    2.54
 -13   3 -16   43.45    2.16
  13   3  16   46.42    2.19
 -15  -3 -16    1.23    0.32
  15  -3  16    1.58    0.38
 -15   3 -16    1.73    0.33
  15   3  16    1.46    0.23
  15   3  16    1.58    0.14
 -17  -3 -16   27.47    1.82
  17  -3  16   29.83    2.17
 -17   3 -16   32.51    1.83
  17   3  16   31.36    1.86
  17   3  16   27.59    1.96
  20  -4 -16   15.41    1.29
 -20  -4  16   16.33    1.29
  20   4 -16   15.03    1.19
 -20   4  16   15.59    1.79
  18  -4 -16    2.83    0.57
 -18  -4  16    2.34    0.51
  18   4 -16    2.57    0.48
 -18   4  16    3.18    0.78
  16  -4 -16   16.70    1.27
 -16  -4  16   18.03    1.34
  16   4 -16   18.30    1.42
 -16   4  16   20.10    1.84
  14  -4 -16    5.93    0.76
 -14  -4  16    7.56    0.89
  14   4 -16    6.72    0.89
 -14   4  16    7.16    1.16
 -12  -4  16   12.76    1.07
  12  -4 -16   12.96    1.03
  12   4 -16   12.76    1.17
 -12   4  16   12.66    1.49
 -10  -4  16    0.49    0.17
  10  -4 -16    0.82    0.22
 -10   4  16    0.78    0.15
  10   4 -16    0.25    0.16
   8  -4 -16   29.11    1.51
  -8  -4  16   30.63    1.66
  -8   4  16   30.31    2.20
   8   4 -16   29.97    1.82
  -6  -4  16    2.01    0.36
  -6  -4  16    2.13    0.46
   6  -4 -16    2.36    0.37
   6  -4 -16    1.97    0.39
   6   4 -16    2.50    0.58
  -6   4  16    1.48    0.42
   4  -4 -16   37.38    1.71
  -4  -4  16   36.36    2.05
  -4  -4  16   38.05    1.80
   4  -4 -16   37.59    1.64
  -4   4  16   37.02    2.41
   4   4 -16   37.25    2.03
   2  -4 -16    0.56    0.09
   2  -4 -16    0.25    0.06
  -2  -4  16    0.38    0.08
  -2  -4  16    0.18    0.06
   2   4 -16    0.37    0.17
  -2   4  16    0.70    0.13
   0  -4 -16   25.69    1.46
   0  -4  16   25.26    1.39
   0  -4  16   28.58    1.79
   0   4  16   24.79    1.89
   0   4 -16   28.18    1.73
   2  -4  16    7.03    0.74
   2  -4  16    7.27    0.64
  -2  -4 -16    6.77    0.69
   2   4  16    9.18    1.15
  -2   4 -16    8.03    0.94
  -4  -4 -16   21.36    1.39
   4  -4  16   22.50    1.23
   4  -4  16   23.84    1.67
  -4   4 -16   20.74    1.46
   4   4  16   21.55    1.66
  -6  -4 -16    0.70    0.21
   6  -4  16    1.64    0.32
   6  -4  16    1.07    0.18
  -6   4 -16    1.09    0.35
  -8  -4 -16   12.93    1.12
   8  -4  16   15.14    1.33
   8   4  16   12.39    1.16
  -8   4 -16   13.80    1.15
  10  -4  16   20.96    1.66
 -10  -4 -16   19.58    1.45
  10   4  16   21.57    1.65
  10   4  16   21.12    1.45
 -10   4 -16   19.69    1.42
 -12  -4 -16   28.02    1.79
  12  -4  16   29.23    2.04
  12   4  16   29.18    1.79
 -12   4 -16   28.28    1.72
  12   4  16   28.02    1.89
 -14  -4 -16    1.13    0.27
  14  -4  16    0.86    0.17
  14   4  16    0.65    0.13
  14   4  16    1.44    0.26
 -14   4 -16    0.78    0.13
 -17  -5  16   10.39    1.10
  17  -5 -16    7.54    0.92
  17   5 -16    8.91    1.05
 -17   5  16    8.35    1.26
 -15  -5  16    2.06    0.48
  15  -5 -16    2.05    0.48
  15   5 -16    2.87    0.64
 -15   5  16    1.42    0.30
  13  -5 -16    9.43    0.98
 -13  -5  16   10.11    1.07
 -13   5  16   10.44    1.31
  13   5 -16   10.02    1.16
  11  -5 -16    5.22    0.69
 -11  -5  16    5.66    0.79
  11   5 -16    4.50    0.80
 -11   5  16    5.74    0.92
   9  -5 -16   10.03    0.86
  -9  -5  16    9.45    1.01
  -9   5  16   11.01    1.27
   9   5 -16   10.42    1.19
  -7  -5  16   10.87    1.01
   7  -5 -16   11.37    0.89
  -7   5  16   11.35    1.19
   7   5 -16   11.99    1.18
  -5  -5  16    4.50    0.68
   5  -5 -16    5.22    0.61
   5   5 -16    4.32    0.76
  -5   5  16    5.24    0.83
   3  -5 -16    6.62    0.61
   3  -5 -16    5.23    0.59
  -3  -5  16    5.95    0.75
  -3   5  16    7.32    1.00
   3   5 -16    5.94    0.86
   1  -5 -16    8.94    0.76
  -1  -5  16    7.81    0.74
   1   5 -16    6.88    0.94
  -1   5  16    8.15    0.86
   1  -5  16    3.18    0.48
  -1  -5 -16    2.34    0.40
  -1   5 -16    1.93    0.48
   1   5  16    2.91    0.51
  -3  -5 -16    1.07    0.17
  -3   5 -16    0.47    0.16
   3   5  16    0.38    0.10
   5  -5  16    5.25    0.51
  -5  -5 -16    3.85    0.62
  -5   5 -16    5.51    0.79
   5   5  16    5.92    0.86
  -7  -5 -16    0.76    0.16
   7  -5  16    0.39    0.06
  -7   5 -16    0.60    0.13
   7   5  16    0.22    0.08
  -9  -5 -16   15.07    1.26
   9   5  16   15.43    1.28
   9   5  16   13.49    1.18
  -9   5 -16   14.87    1.23
 -11  -5 -16    0.73    0.17
 -12  -6  16    3.59    0.65
  12  -6 -16    4.07    0.63
  12   6 -16    4.52    0.83
 -12   6  16    2.39    0.63
  10  -6 -16    0.27    0.09
 -10  -6  16   -0.10    0.07
  10   6 -16    0.77    0.17
   8  -6 -16    5.09    0.67
  -8  -6  16    6.02    0.84
  -8   6  16    3.97    0.72
   8   6 -16    6.69    0.99
   6  -6 -16    0.67    0.15
  -6  -6  16    0.85    0.24
   6   6 -16    0.29    0.16
  -4  -6  16    2.48    0.49
   4   6 -16    3.96    0.78
  -2  -6  16    4.08    0.65
   2   6 -16    3.24    0.68
   0  -6  16    3.76    0.59
   0  -6 -16    2.68    0.46
   0   6 -16    2.87    0.61
   2  -6  16    0.14    0.06
  -2  -6 -16    0.10    0.06
  -2   6 -16    0.71    0.13
  -4  -6 -16    3.53    0.57
   4  -6  16    3.46    0.48
  -4   6 -16    4.82    0.75
   6  -6  16    6.75    0.65
  -6  -6 -16    6.60    0.82
  -6   6 -16    6.78    0.89
 -24   0  17    0.18    0.20
  24   0 -17   -0.09    0.08
  22   0 -17    0.53    0.20
 -22   0  17    0.85    0.20
  20   0 -17    0.07    0.17
  20   0 -17    0.38    0.13
 -20   0  17    0.21    0.15
  18   0 -17    0.34    0.11
  18   0 -17    0.15    0.15
 -18   0  17   -0.03    0.22
  16   0 -17    0.19    0.13
 -16   0  17    0.82    0.25
  16   0 -17    0.17    0.18
  14   0 -17    0.49    0.20
 -14   0  17    0.39    0.18
  14   0 -17    0.32    0.08
  14   0 -17    0.53    0.23
  12   0 -17    0.37    0.14
  12   0 -17    0.36    0.07
 -12   0  17    0.28    0.28
  12   0 -17    0.16    0.23
  10   0 -17    0.55    0.13
  10   0 -17    0.19    0.17
 -10   0  17    0.68    0.28
   8   0 -17    0.29    0.12
  -8   0  17    0.13    0.20
  -8   0  17    0.23    0.10
  -6   0  17    0.47    0.12
  -6   0  17    0.36    0.26
   6   0 -17    0.04    0.14
   4   0 -17   -0.03    0.11
  -4   0  17    0.48    0.12
  -4   0  17    0.71    0.31
   2   0 -17    0.17    0.17
  -2   0  17    0.10    0.04
  -2   0  17    0.54    0.21
   0   0 -17    0.50    0.27
   0   0  17    1.19    0.42
  -2   0 -17    0.31    0.21
   2   0  17    0.39    0.20
   4   0  17    0.35    0.24
  -4   0 -17    0.21    0.16
   6   0  17    0.79    0.27
  -6   0 -17    0.14    0.16
  -8   0 -17    0.11    0.13
   8   0  17    0.43    0.23
 -10   0 -17    0.37    0.17
  10   0  17    0.24    0.13
 -12   0 -17    0.22    0.17
  12   0  17    0.12    0.15
  14   0  17    0.12    0.13
 -14   0 -17    0.64    0.17
 -16   0 -17    0.31    0.13
  16   0  17    0.64    0.20
 -18   0 -17    0.59    0.11
  18   0  17    0.24    0.15
 -23  -1  17    2.61    0.57
  23  -1 -17    3.19    0.63
  23   1 -17    2.72    0.40
  23   1 -17    1.56    0.44
 -23   1  17    3.87    0.84
  21  -1 -17    4.48    0.69
 -21  -1  17    2.60    0.63
  21   1 -17    4.01    0.71
 -21   1  17    2.95    0.73
  21   1 -17    3.55    0.48
 -19  -1  17    0.53    0.18
  19  -1 -17    0.62    0.22
  19   1 -17    0.51    0.18
 -19   1  17    1.10    0.33
  19   1 -17    0.35    0.31
 -17  -1  17    1.16    0.29
  17  -1 -17    1.21    0.37
 -17  -1  17    1.95    0.47
 -17   1  17    1.97    0.60
  17   1 -17    1.41    0.27
 -15  -1  17    4.30    0.86
 -15  -1  17    3.79    0.61
  15  -1 -17    3.75    0.62
 -15   1  17    4.00    0.89
  15   1 -17    3.94    0.52
  13  -1 -17    1.83    0.29
  13  -1 -17    1.57    0.39
 -13  -1  17    3.07    0.73
 -13  -1  17    2.55    0.50
  13  -1 -17    2.40    0.45
 -13   1  17    1.91    0.61
  13   1 -17    1.73    0.38
  11  -1 -17   11.98    0.86
 -11  -1  17   12.86    1.49
  11  -1 -17   12.57    0.95
  11  -1 -17   11.86    0.95
 -11  -1  17   11.90    0.93
 -11   1  17   13.19    1.56
  11   1 -17   11.84    0.95
   9  -1 -17    5.33    0.65
   9  -1 -17    4.71    0.57
  -9  -1  17    4.45    0.93
  -9  -1  17    4.55    0.61
   9  -1 -17    4.38    0.59
   9   1 -17    4.96    0.67
  -9   1  17    4.87    0.98
  -7  -1  17    5.84    0.65
  -7  -1  17    5.78    1.01
   7  -1 -17    6.51    0.64
   7  -1 -17    5.81    0.65
   7  -1 -17    6.92    0.66
   7   1 -17    6.89    0.79
  -7   1  17    4.92    0.99
   5  -1 -17    2.65    0.44
   5  -1 -17    2.55    0.46
   5  -1 -17    3.10    0.45
  -5  -1  17    2.25    0.39
  -5  -1  17    3.36    0.77
   5   1 -17    3.28    0.57
  -5   1  17    2.62    0.76
  -3  -1  17   11.50    0.81
   3  -1 -17   11.66    0.79
  -3  -1  17   11.90    1.26
   3  -1 -17    9.70    0.85
   3  -1 -17    9.66    0.79
  -3   1  17    7.75    1.16
   3   1 -17    9.24    0.87
   1  -1 -17    1.42    0.25
  -1  -1  17    1.17    0.20
   1  -1 -17    0.97    0.33
   1  -1 -17    1.15    0.25
  -1  -1  17    1.14    0.42
   1   1 -17    1.03    0.37
  -1   1  17    0.35    0.24
   1  -1  17   12.44    0.76
   1  -1  17   11.90    1.35
  -1  -1 -17   13.14    1.03
   1   1  17   13.32    1.47
  -1   1 -17   10.72    0.98
  -3  -1 -17    0.34    0.19
   3  -1  17    0.33    0.23
  -3   1 -17    0.84    0.29
   3   1  17    0.90    0.38
   5  -1  17   20.70    1.70
  -5  -1 -17   18.52    1.30
  -5   1 -17   18.89    1.32
   5   1  17   18.55    1.64
   7  -1  17    3.18    0.74
  -7  -1 -17    5.00    0.73
   7   1  17    5.38    0.96
  -7   1 -17    4.49    0.69
   9  -1  17    4.77    0.90
  -9  -1 -17    3.90    0.64
  -9   1 -17    4.45    0.67
   9   1  17    4.70    0.92
 -11  -1 -17    6.57    0.83
  11  -1  17    6.52    1.07
  11   1  17    5.91    1.02
 -11   1 -17    6.92    0.85
 -13  -1 -17    5.63    0.79
  13  -1  17    4.11    0.85
  13   1  17    4.95    0.96
 -13   1 -17    4.50    0.71
 -15  -1 -17    0.71    0.16
  15  -1  17    0.51    0.18
  15   1  17    0.43    0.14
 -15   1 -17    0.54    0.10
 -17  -1 -17    1.70    0.41
  17  -1  17    1.74    0.45
 -17   1 -17    1.62    0.31
  17   1  17    1.12    0.33
 -22  -2  17    5.93    0.97
  22  -2 -17    7.13    0.89
 -22  -2  17    5.72    0.80
 -22   2  17    5.71    1.13
 -20  -2  17    0.46    0.13
  20  -2 -17    1.22    0.30
 -20  -2  17    1.06    0.17
 -20   2  17    0.50    0.23
 -18  -2  17    4.24    0.76
 -18  -2  17    3.13    0.57
  18  -2 -17    3.10    0.58
  18   2 -17    4.01    0.53
 -18   2  17    3.58    0.89
  16  -2 -17    2.22    0.49
 -16  -2  17    2.64    0.63
 -16  -2  17    3.19    0.58
 -16   2  17    3.04    0.81
  16   2 -17    3.03    0.50
 -14  -2  17    5.12    0.70
 -14  -2  17    5.31    0.89
  14  -2 -17    4.72    0.66
 -14   2  17    5.74    1.10
  14   2 -17    4.87    0.65
 -12  -2  17    4.21    0.62
  12  -2 -17    5.67    0.70
 -12  -2  17    5.88    0.92
 -12   2  17    5.19    1.04
  12   2 -17    4.52    0.66
  10  -2 -17    2.12    0.43
 -10  -2  17    1.99    0.41
 -10  -2  17    2.10    0.49
  10  -2 -17    2.05    0.32
 -10   2  17    2.12    0.63
  10   2 -17    2.25    0.49
  -8  -2  17   19.56    1.66
   8  -2 -17   18.14    1.12
  -8  -2  17   18.75    1.20
   8  -2 -17   20.25    1.16
  -8   2  17   18.00    1.73
   8   2 -17   17.13    1.24
  -6  -2  17    3.39    0.74
  -6  -2  17    4.32    0.56
   6  -2 -17    4.91    0.55
   6  -2 -17    4.84    0.59
  -6   2  17    3.96    0.93
   6   2 -17    3.54    0.60
   4  -2 -17    1.36    0.33
   4  -2 -17    2.21    0.36
  -4  -2  17    1.89    0.53
  -4  -2  17    1.89    0.35
  -4   2  17    1.13    0.48
   4   2 -17    1.42    0.43
  -2  -2  17    9.37    1.15
  -2  -2  17    7.21    0.62
   2  -2 -17    6.97    0.78
   2  -2 -17    7.49    0.59
   2   2 -17    9.03    0.95
  -2   2  17    8.50    1.20
   0  -2  17    9.61    0.70
   0  -2 -17    9.76    0.88
   0  -2  17    9.23    1.16
   0   2 -17    9.55    0.93
   0   2  17    8.07    1.16
   2  -2  17    2.45    0.33
   2  -2  17    2.14    0.56
  -2  -2 -17    2.48    0.51
   2   2  17    3.09    0.75
  -2   2 -17    2.64    0.54
  -4  -2 -17    3.92    0.62
   4  -2  17    4.31    0.82
  -4   2 -17    3.30    0.60
   4   2  17    4.02    0.83
  -6  -2 -17    6.60    0.82
   6  -2  17    6.48    1.03
   6   2  17    6.41    1.01
  -6   2 -17    6.35    0.82
  -8  -2 -17   25.12    1.58
   8  -2  17   23.05    1.85
  -8   2 -17   24.71    1.58
   8   2  17   25.19    1.94
  10  -2  17    2.56    0.66
 -10  -2 -17    1.05    0.28
  10   2  17    0.65    0.17
 -10   2 -17    0.83    0.24
  12  -2  17    5.88    0.99
 -12  -2 -17    6.27    0.84
  12   2  17    7.23    1.07
 -12   2 -17    5.93    0.78
 -14  -2 -17    0.30    0.19
  14  -2  17    0.98    0.26
  14   2  17    0.62    0.19
 -14   2 -17    0.83    0.15
 -16  -2 -17    7.36    0.93
  16  -2  17    7.71    1.14
 -16   2 -17    7.56    0.86
  16   2  17    8.05    1.11
  21  -3 -17    1.76    0.41
 -21  -3  17    1.93    0.47
  21   3 -17    1.99    0.15
 -21   3  17    2.45    0.65
  19  -3 -17    2.82    0.55
 -19  -3  17    3.02    0.57
  19   3 -17    2.64    0.25
 -19   3  17    2.58    0.65
 -17  -3  17   24.01    1.55
  17  -3 -17   25.58    1.60
 -17  -3  17   26.99    1.85
  17   3 -17   25.26    1.58
 -17   3  17   21.81    2.04
  15  -3 -17    0.28    0.14
 -15  -3  17    0.17    0.13
 -15  -3  17    0.64    0.10
 -15   3  17    0.51    0.23
  15   3 -17    0.58    0.12
 -13  -3  17   12.82    1.07
 -13  -3  17   15.52    1.35
  13  -3 -17   14.03    1.07
  13   3 -17   13.14    1.12
 -13   3  17   15.59    1.75
 -11  -3  17    1.56    0.39
 -11  -3  17    2.87    0.56
  11  -3 -17    1.84    0.40
  11   3 -17    1.68    0.45
 -11   3  17    1.86    0.51
   9  -3 -17   28.66    1.38
  -9  -3  17   26.59    1.52
  -9  -3  17   26.17    1.85
   9  -3 -17   27.66    1.46
   9   3 -17   27.12    1.66
  -9   3  17   24.29    2.03
  -7  -3  17    2.48    0.47
  -7  -3  17    3.33    0.67
   7  -3 -17    3.16    0.48
   7  -3 -17    3.42    0.44
  -7   3  17    3.05    0.77
   7   3 -17    2.74    0.57
  -5  -3  17    3.43    0.52
   5  -3 -17    4.42    0.56
   5  -3 -17    4.78    0.56
  -5  -3  17    5.38    0.84
  -5   3  17    3.93    0.87
   5   3 -17    4.13    0.68
  -3  -3  17    1.30    0.24
   3  -3 -17    0.84    0.17
  -3  -3  17    0.37    0.07
   3  -3 -17    0.52    0.09
   3   3 -17    0.36    0.19
  -3   3  17    0.54    0.26
   1  -3 -17    9.72    0.84
  -1  -3  17   11.50    1.14
  -1  -3  17    9.75    0.78
   1   3 -17    9.76    0.97
  -1   3  17    9.54    1.27
  -1  -3 -17    5.81    0.73
   1  -3  17    5.45    0.86
   1  -3  17    5.88    0.53
  -1   3 -17    5.71    0.79
   1   3  17    5.21    0.93
   3  -3  17   12.76    1.24
   3  -3  17   13.41    0.86
  -3  -3 -17   14.36    1.11
   3   3  17   12.39    1.32
  -3   3 -17   13.38    1.15
  -5  -3 -17    0.26    0.11
   5  -3  17    0.34    0.11
  -5   3 -17    0.71    0.23
   5   3  17    0.85    0.24
  -7  -3 -17   15.47    1.24
   7  -3  17   17.98    1.55
   7   3  17   17.40    1.57
  -7   3 -17   17.64    1.33
   9  -3  17    5.09    0.88
  -9  -3 -17    4.41    0.72
  -9   3 -17    3.91    0.65
   9   3  17    4.62    0.87
 -11  -3 -17   25.60    1.69
  11  -3  17   25.74    1.95
 -11   3 -17   25.61    1.64
  11   3  17   27.13    1.97
 -13  -3 -17    2.21    0.54
  13  -3  17    3.19    0.67
  13   3  17    2.98    0.29
 -13   3 -17    2.51    0.45
 -15  -3 -17    7.19    0.94
  15  -3  17    6.07    0.99
  15   3  17    6.71    0.93
 -15   3 -17    7.10    0.85
 -18  -4  17   14.07    1.20
  18  -4 -17   13.08    1.14
 -18   4  17   14.89    1.71
  18   4 -17   12.16    1.09
 -16  -4  17    5.24    0.76
  16  -4 -17    5.90    0.79
  16   4 -17    5.56    0.81
 -16   4  17    5.95    1.10
  14  -4 -17    8.39    0.91
 -14  -4  17    6.78    0.86
  14   4 -17    8.30    1.01
 -14   4  17    8.34    1.24
  12  -4 -17   23.04    1.43
 -12  -4  17   23.58    1.53
 -12   4  17   24.20    2.04
  12   4 -17   23.41    1.64
 -10  -4  17   13.66    1.11
  10  -4 -17   14.75    1.07
  10   4 -17   15.18    1.29
 -10   4  17   14.99    1.54
  -8  -4  17   15.21    1.16
   8  -4 -17   14.56    1.04
   8   4 -17   15.81    1.30
  -8   4  17   16.22    1.58
   6  -4 -17   13.59    0.93
   6  -4 -17   13.82    0.97
  -6  -4  17   13.46    1.06
   6   4 -17   13.07    1.20
  -6   4  17   14.96    1.49
   4  -4 -17   14.93    0.97
  -4  -4  17   12.73    0.98
  -4  -4  17   14.90    1.23
   4  -4 -17   13.16    0.95
   4   4 -17   14.04    1.22
  -4   4  17   13.48    1.37
  -2  -4  17   13.57    1.16
  -2  -4  17   12.72    0.95
   2  -4 -17   13.17    0.99
  -2   4  17   12.97    1.33
   2   4 -17   14.43    1.23
   0  -4  17   17.36    1.10
   0  -4  17   18.78    1.43
   0  -4 -17   16.81    1.17
   0   4  17   15.57    1.47
   0   4 -17   15.63    1.30
   2  -4  17    8.47    0.87
  -2  -4 -17    7.65    0.74
   2  -4  17    7.17    0.63
  -2   4 -17    6.15    0.87
   2   4  17    9.21    1.16
   4  -4  17   25.90    1.79
   4  -4  17   23.55    1.27
  -4  -4 -17   24.94    1.56
  -4   4 -17   23.10    1.60
   4   4  17   27.70    1.98
   6  -4  17    9.02    0.95
  -6  -4 -17    8.78    0.96
  -6   4 -17    9.36    1.03
   6   4  17    9.46    1.14
  -8  -4 -17   28.11    1.75
   8  -4  17   31.85    2.13
   8   4  17   30.51    2.09
  -8   4 -17   29.66    1.81
  10  -4  17    5.12    0.84
 -10  -4 -17    4.29    0.71
  10   4  17    4.62    0.72
 -10   4 -17    4.62    0.68
 -12  -4 -17   31.12    1.94
  12  -4  17   34.79    2.30
  12   4  17   32.93    2.14
 -12   4 -17   31.55    1.88
  15  -5 -17    0.82    0.18
 -15  -5  17    0.49    0.17
  15   5 -17    0.89    0.21
  13  -5 -17   48.77    2.29
 -13  -5  17   49.49    2.43
 -13   5  17   51.10    3.03
  13   5 -17   47.76    2.60
  11  -5 -17    1.06    0.24
 -11  -5  17    1.35    0.34
  11   5 -17    0.80    0.25
  -9  -5  17   35.42    1.95
   9  -5 -17   32.40    1.72
  -9   5  17   35.95    2.38
   9   5 -17   31.00    2.03
   7  -5 -17    0.77    0.13
  -7  -5  17    0.29    0.08
  -7   5  17    0.09    0.09
   7   5 -17    0.42    0.17
  -5  -5  17   21.55    1.44
   5  -5 -17   24.23    1.35
  -5   5  17   23.41    1.83
   5   5 -17   23.41    1.69
   3  -5 -17    1.26    0.28
  -3  -5  17    1.75    0.29
   3   5 -17    1.30    0.37
  -3   5  17    1.45    0.29
  -1  -5  17    6.84    0.66
   1  -5 -17    5.90    0.58
   1   5 -17    5.64    0.85
  -1   5  17    6.05    0.93
   1  -5  17    0.79    0.06
  -1   5 -17    0.69    0.21
  -3  -5 -17   14.90    1.15
   3  -5  17   14.53    1.01
   3   5  17   13.76    1.30
  -3   5 -17   14.11    1.28
   5  -5  17    9.14    0.76
  -5  -5 -17    9.94    0.90
   5   5  17    8.58    1.10
  -5   5 -17   10.01    0.99
  -7  -5 -17   40.36    2.15
   7   5  17   39.22    2.37
  -7   5 -17   39.80    2.23
  -9  -5 -17    4.93    0.73
  -9   5 -17    5.38    0.77
   9   5  17    3.75    0.70
   8  -6 -17   25.68    1.55
  -8  -6  17   31.72    1.90
  -8   6  17   29.22    2.11
   8   6 -17   32.89    2.19
  -6  -6  17   21.68    1.52
   6  -6 -17   23.29    1.39
   6   6 -17   22.66    1.78
  -6   6  17   19.47    1.64
  -4  -6  17   17.94    1.31
  -4   6  17   12.53    1.25
   4   6 -17   15.75    1.43
  -2  -6  17    9.44    0.85
   2   6 -17   11.29    1.26
   0  -6 -17    5.09    0.65
   0  -6  17    6.56    0.74
   0   6 -17    6.29    0.93
  -2  -6 -17    7.42    0.72
   2  -6  17   10.78    0.87
  -2   6 -17    9.89    1.12
  22   0 -18   30.90    1.88
 -22   0  18   36.23    2.68
  20   0 -18    5.08    0.63
  20   0 -18    5.23    0.79
 -20   0  18    5.76    1.05
  18   0 -18   40.24    1.81
  18   0 -18   39.43    2.05
 -18   0  18   41.87    2.87
  16   0 -18    0.41    0.23
  16   0 -18    0.58    0.14
 -16   0  18    0.79    0.21
  14   0 -18   71.63    2.74
  14   0 -18   77.30    2.63
 -14   0  18   76.52    3.90
  14   0 -18   79.43    2.69
  12   0 -18    0.34    0.15
  12   0 -18    0.77    0.15
 -12   0  18    1.52    0.44
  12   0 -18    0.59    0.30
  10   0 -18   46.59    1.93
 -10   0  18   45.25    2.85
  10   0 -18   43.16    1.95
  10   0 -18   46.42    2.00
   8   0 -18    0.20    0.08
   8   0 -18    0.36    0.27
  -8   0  18    0.66    0.24
   8   0 -18    0.37    0.14
  -6   0  18   87.02    4.12
   6   0 -18   91.46    3.06
  -4   0  18    0.67    0.37
   4   0 -18    0.40    0.17
  -2   0  18   49.74    2.86
   2   0 -18   49.59    2.19
   0   0 -18    5.33    0.73
   0   0  18    4.40    0.91
  -2   0 -18  119.29    3.77
   2   0  18  122.74    4.72
  -4   0 -18   13.25    1.11
   4   0  18   12.94    1.35
   6   0  18   31.12    2.23
  -6   0 -18   31.79    1.81
   8   0  18    7.70    1.16
  -8   0 -18    7.82    0.93
  10   0  18   19.14    1.75
 -10   0 -18   17.32    1.34
 -12   0 -18   19.67    1.46
  12   0  18   24.03    1.99
 -14   0 -18    9.00    1.01
  14   0  18    9.95    1.36
  16   0  18   16.05    1.63
 -16   0 -18   14.97    1.27
 -21  -1  18    2.89    0.65
  21  -1 -18    2.91    0.58
  21   1 -18    2.36    0.59
 -21   1  18    2.38    0.55
  21   1 -18    2.16    0.35
  19  -1 -18   30.02    1.79
 -19  -1  18   31.07    2.30
 -19   1  18   27.99    2.39
  19   1 -18   32.31    1.52
  19   1 -18   31.02    1.86
 -17  -1  18   37.32    2.55
  17  -1 -18   33.57    1.86
 -17   1  18   33.62    2.57
  17   1 -18   33.09    1.64
 -15  -1  18   31.89    1.73
 -15  -1  18   29.64    2.24
  15  -1 -18   32.95    1.76
  15   1 -18   28.14    1.54
 -15   1  18   32.34    2.47
 -13  -1  18   18.33    1.24
  13  -1 -18   17.98    1.07
  13  -1 -18   18.26    1.24
  13  -1 -18   17.94    1.18
 -13  -1  18   19.07    1.74
  13   1 -18   16.83    1.17
 -13   1  18   17.11    1.75
 -11  -1  18   33.57    1.68
 -11  -1  18   30.79    2.25
  11  -1 -18   31.10    1.59
  11  -1 -18   33.73    1.60
  11  -1 -18   31.58    1.62
 -11   1  18   26.91    2.19
  11   1 -18   31.42    1.66
   9  -1 -18   29.03    1.50
  -9  -1  18   29.26    2.21
   9  -1 -18   29.87    1.52
  -9  -1  18   29.37    1.52
   9  -1 -18   27.57    1.50
  -9   1  18   28.61    2.26
   9   1 -18   27.63    1.58
   7  -1 -18   13.70    0.97
   7  -1 -18   15.65    1.07
  -7  -1  18   13.97    0.97
   7  -1 -18   14.32    1.04
  -7  -1  18   15.55    1.55
  -7   1  18   14.65    1.56
   7   1 -18   16.46    1.18
  -5  -1  18    6.96    0.62
  -5  -1  18    8.44    1.21
   5  -1 -18    6.63    0.62
   5  -1 -18    7.08    0.78
   5  -1 -18    7.12    0.69
   5   1 -18    7.20    0.83
  -5   1  18    9.33    1.33
   3  -1 -18   11.65    0.89
  -3  -1  18   12.97    1.37
   3  -1 -18   11.42    0.96
   3  -1 -18   10.60    0.77
  -3  -1  18   11.74    0.83
   3   1 -18   11.98    1.03
  -3   1  18   10.77    1.39
   1  -1 -18   39.07    1.52
  -1  -1  18   40.74    2.53
  -1  -1  18   37.29    1.56
   1  -1 -18   36.75    1.84
  -1   1  18   35.24    2.40
   1   1 -18   39.67    1.97
  -1  -1 -18    9.28    0.89
   1  -1  18   11.38    1.35
   1   1  18    9.15    1.26
  -1   1 -18    9.83    0.94
  -3  -1 -18   49.63    2.26
   3  -1  18   50.58    2.85
   3   1  18   53.03    2.95
  -3   1 -18   52.11    2.34
   5  -1  18   13.16    1.47
  -5  -1 -18   10.91    1.01
  -5   1 -18   12.64    1.09
   5   1  18   13.02    1.37
   7  -1  18   66.56    3.40
  -7  -1 -18   60.13    2.61
  -7   1 -18   62.87    2.66
   7   1  18   61.55    3.28
   9  -1  18    9.20    1.26
  -9  -1 -18    8.59    0.97
   9   1  18    8.59    1.22
  -9   1 -18    7.63    0.92
 -11  -1 -18   23.45    1.58
  11  -1  18   25.05    2.03
 -11   1 -18   25.07    1.65
  11   1  18   24.32    2.01
  13  -1  18    2.06    0.54
 -13  -1 -18    1.45    0.40
 -13   1 -18    2.59    0.53
  13   1  18    2.96    0.73
  15  -1  18   32.71    2.42
 -15  -1 -18   30.93    1.91
 -15   1 -18   30.94    1.87
  15   1  18   31.99    2.35
  20  -2 -18    1.45    0.34
 -20  -2  18    1.70    0.39
 -20  -2  18    2.74    0.62
 -20   2  18    1.73    0.38
  20   2 -18    1.70    0.16
 -18  -2  18   33.69    2.31
  18  -2 -18   29.66    1.78
 -18  -2  18   30.62    1.79
 -18   2  18   28.14    2.39
  18   2 -18   29.54    1.65
 -16  -2  18    1.49    0.25
 -16  -2  18    1.64    0.39
  16  -2 -18    2.53    0.50
  16   2 -18    2.25    0.38
 -16   2  18    2.05    0.56
 -14  -2  18   52.63    2.33
 -14  -2  18   59.03    3.12
  14  -2 -18   58.08    2.41
  14   2 -18   57.31    2.44
 -14   2  18   55.11    3.35
 -12  -2  18    2.03    0.45
 -12  -2  18    2.68    0.59
  12  -2 -18    2.20    0.46
  12   2 -18    2.07    0.45
 -12   2  18    2.26    0.68
  10  -2 -18   67.88    2.49
  10  -2 -18   67.05    2.38
 -10  -2  18   67.12    3.37
 -10  -2  18   68.69    2.54
  10   2 -18   68.04    2.70
 -10   2  18   68.33    3.66
  -8  -2  18    2.87    0.49
  -8  -2  18    3.63    0.76
   8  -2 -18    3.02    0.48
   8  -2 -18    4.59    0.46
   8   2 -18    3.16    0.58
  -8   2  18    3.15    0.83
   6  -2 -18   43.73    1.78
  -6  -2  18   38.76    1.76
   6  -2 -18   39.68    1.83
  -6  -2  18   42.00    2.60
  -6   2  18   36.91    2.61
   6   2 -18   38.25    1.98
  -4  -2  18    1.50    0.31
   4  -2 -18    1.95    0.31
   4  -2 -18    1.36    0.33
  -4  -2  18    1.34    0.38
  -4   2  18    1.84    0.59
   4   2 -18    0.68    0.28
   2  -2 -18   54.86    1.92
  -2  -2  18   54.37    2.02
   2  -2 -18   55.71    2.29
  -2  -2  18   55.48    2.93
  -2   2  18   56.79    3.16
   2   2 -18   53.63    2.40
   0  -2 -18    1.04    0.34
   0  -2  18    1.51    0.27
   0  -2  18    1.36    0.41
   0   2 -18    1.03    0.34
   0   2  18    1.67    0.52
  -2  -2 -18   48.11    2.19
   2  -2  18   49.03    2.77
  -2   2 -18   49.81    2.32
   2   2  18   49.23    2.90
  -4  -2 -18    8.70    0.87
   4  -2  18    9.40    1.22
   4   2  18   11.20    1.38
  -4   2 -18    9.50    1.02
   6  -2  18   56.69    3.04
  -6  -2 -18   54.97    2.44
   6   2  18   51.35    2.97
  -6   2 -18   52.89    2.46
  -8  -2 -18   14.74    1.23
   8  -2  18   17.72    1.64
  -8   2 -18   15.03    1.23
   8   2  18   15.99    1.57
 -10  -2 -18   19.06    1.42
  10  -2  18   20.82    1.81
  10   2  18   18.75    1.73
 -10   2 -18   18.55    1.39
  12  -2  18   10.98    1.40
 -12  -2 -18   11.40    1.09
 -12   2 -18   10.14    0.97
  12   2  18   11.59    1.39
  14  -2  18    6.70    1.08
 -14  -2 -18    7.00    0.91
 -14   2 -18    5.52    0.76
  14   2  18    6.44    1.02
 -19  -3  18   18.85    1.40
  19  -3 -18   20.29    1.46
 -19   3  18   20.82    2.02
  19   3 -18   19.51    1.32
 -17  -3  18    7.94    1.04
  17  -3 -18    5.65    0.78
 -17  -3  18    5.70    0.79
 -17   3  18    6.14    1.16
  17   3 -18    6.17    0.62
  15  -3 -18   19.05    1.34
 -15  -3  18   18.81    1.53
 -15  -3  18   17.81    1.31
  15   3 -18   17.61    1.29
 -15   3  18   17.54    1.80
 -13  -3  18   37.06    2.28
  13  -3 -18   32.49    1.75
 -13  -3  18   34.14    1.84
  13   3 -18   33.55    1.90
 -13   3  18   33.49    2.53
 -11  -3  18   23.88    1.76
  11  -3 -18   22.54    1.36
 -11  -3  18   20.69    1.36
 -11   3  18   21.43    1.97
  11   3 -18   21.26    1.49
  -9  -3  18    1.18    0.33
   9  -3 -18    1.91    0.37
   9  -3 -18    1.93    0.18
  -9  -3  18    2.35    0.51
  -9   3  18    2.04    0.57
   9   3 -18    1.46    0.43
   7  -3 -18   12.43    0.91
  -7  -3  18   12.83    1.25
  -7  -3  18   12.51    0.99
   7  -3 -18   12.47    0.88
  -7   3  18   12.01    1.50
   7   3 -18   12.08    1.09
  -5  -3  18   18.61    1.55
  -5  -3  18   17.73    1.16
   5  -3 -18   19.77    1.20
   5  -3 -18   17.92    1.08
  -5   3  18   14.92    1.57
   5   3 -18   17.36    1.33
  -3  -3  18    5.96    0.58
  -3  -3  18    7.11    0.98
   3  -3 -18    4.78    0.60
   3   3 -18    4.24    0.71
  -3   3  18    6.65    1.12
  -1  -3  18    6.91    0.62
   1  -3 -18    7.04    0.71
  -1  -3  18    8.39    1.09
  -1   3  18    7.87    1.17
   1   3 -18    7.99    0.95
   1  -3  18    4.04    0.48
   1  -3  18    5.12    0.84
  -1  -3 -18    4.07    0.63
  -1   3 -18    4.24    0.70
   1   3  18    4.28    0.88
  -3  -3 -18   61.80    2.59
   3  -3  18   67.65    3.23
   3   3  18   65.04    3.36
  -3   3 -18   62.98    2.74
  -5  -3 -18    5.73    0.78
   5  -3  18    6.77    0.98
  -5   3 -18    6.16    0.85
   5   3  18    6.26    1.01
   7  -3  18   27.42    2.01
  -7  -3 -18   24.82    1.63
   7   3  18   25.76    1.98
  -7   3 -18   23.31    1.60
  -9  -3 -18    6.95    0.89
   9  -3  18    6.63    1.00
   9   3  18    6.76    1.04
  -9   3 -18    7.96    0.95
 -11  -3 -18   36.04    2.07
  11  -3  18   37.23    2.46
  11   3  18   32.93    2.27
 -11   3 -18   36.82    2.06
 -13  -3 -18    1.64    0.38
  13  -3  18    2.18    0.42
  13   3  18    1.57    0.17
 -13   3 -18    2.13    0.34
  16  -4 -18    1.56    0.33
 -16  -4  18    1.67    0.39
  16   4 -18    1.36    0.24
 -16   4  18    1.59    0.34
 -14  -4  18   13.00    1.13
  14  -4 -18   14.17    1.13
  14   4 -18   14.20    1.24
 -14   4  18   15.77    1.63
 -12  -4  18    4.45    0.68
  12  -4 -18    4.48    0.64
 -12   4  18    3.55    0.78
  12   4 -18    4.55    0.74
  10  -4 -18   22.19    1.37
 -10  -4  18   22.87    1.49
 -10   4  18   23.55    2.03
  10   4 -18   24.00    1.66
  -8  -4  18    5.22    0.70
   8  -4 -18    5.51    0.66
  -8   4  18    5.28    0.95
   8   4 -18    5.70    0.84
   6  -4 -18   16.29    1.06
   6  -4 -18   18.97    1.18
  -6  -4  18   16.59    1.20
   6   4 -18   18.16    1.43
  -6   4  18   18.29    1.70
   4  -4 -18    2.30    0.40
  -4  -4  18    2.52    0.41
   4   4 -18    1.72    0.46
  -4   4  18    3.16    0.73
  -2  -4  18   22.77    1.33
   2  -4 -18   21.95    1.34
  -2  -4  18   22.57    1.65
   2   4 -18   23.43    1.64
  -2   4  18   21.10    1.83
   0  -4  18    9.99    0.81
   0  -4  18    9.78    1.02
   0  -4 -18    8.91    0.79
   0   4 -18    7.73    0.98
   0   4  18   10.77    1.32
  -2  -4 -18   26.56    1.59
   2  -4  18   28.68    1.48
   2  -4  18   31.23    2.03
  -2   4 -18   26.39    1.76
   2   4  18   30.22    2.19
  -4  -4 -18    0.56    0.16
  -4   4 -18    0.85    0.26
  -6  -4 -18   22.49    1.54
   6  -4  18   25.07    1.86
  -6   4 -18   23.13    1.63
   6   4  18   25.44    1.89
  -8  -4 -18    9.96    1.08
   8  -4  18   10.22    1.21
  -8   4 -18    7.87    0.94
   8   4  18    9.42    0.97
 -10  -4 -18    6.27    0.86
  10  -4  18    8.40    1.11
 -10   4 -18    8.19    0.93
  10   4  18    7.65    1.00
 -13  -5  18    3.97    0.67
 -13   5  18    3.58    0.75
 -11  -5  18    8.74    1.00
  11  -5 -18    8.52    0.81
  11   5 -18    8.20    1.06
 -11   5  18    8.20    1.15
  -9  -5  18    3.23    0.59
   9  -5 -18    2.81    0.45
   9   5 -18    2.64    0.60
  -9   5  18    1.78    0.42
   7  -5 -18    3.66    0.53
  -7  -5  18    3.32    0.57
  -7   5  18    3.33    0.73
   7   5 -18    3.29    0.67
  -5  -5  18    2.78    0.48
   5   5 -18    2.93    0.65
  -5   5  18    2.30    0.42
   3  -5 -18    1.23    0.21
  -3  -5  18    2.05    0.38
  -3   5  18    2.33    0.43
   3   5 -18    3.01    0.67
   1  -5 -18    8.96    0.81
  -1  -5  18   10.14    0.85
   1   5 -18   10.93    1.23
  -1   5  18   10.28    1.25
   1  -5  18    3.01    0.42
  -1  -5 -18    2.78    0.47
  -1   5 -18    2.49    0.59
   1   5  18    2.00    0.47
  -3  -5 -18    7.53    0.76
   3  -5  18    7.59    0.68
  -3   5 -18    7.95    0.99
   3   5  18    6.85    0.99
  -5  -5 -18    0.80    0.18
   5   5  18    0.43    0.11
  -5   5 -18    1.08    0.19
 -20   0  19    0.80    0.19
  20   0 -19    0.50    0.19
  18   0 -19    0.36    0.18
 -18   0  19    1.09    0.24
  18   0 -19    0.49    0.14
  16   0 -19    0.36    0.11
 -16   0  19    0.49    0.20
  16   0 -19    0.32    0.21
  14   0 -19    0.06    0.19
 -14   0  19    0.11    0.12
  14   0 -19    0.41    0.15
  12   0 -19    0.21    0.13
  12   0 -19    0.43    0.18
 -12   0  19    0.67    0.23
  10   0 -19    0.11    0.10
  10   0 -19    0.31    0.19
 -10   0  19    0.50    0.15
  -8   0  19    0.68    0.21
   8   0 -19    0.10    0.08
   8   0 -19    0.42    0.12
   8   0 -19    0.28    0.20
   6   0 -19    0.30    0.21
  -6   0  19    0.50    0.20
   6   0 -19    0.57    0.16
   6   0 -19    0.40    0.19
  -4   0  19    0.41    0.19
   4   0 -19    0.68    0.18
   4   0 -19    0.27    0.18
   4   0 -19    0.30    0.15
   2   0 -19    0.31    0.15
   2   0 -19    0.72    0.22
  -2   0  19    0.66    0.28
   2   0 -19    0.45    0.10
   0   0  19    0.43    0.17
   0   0 -19    0.55    0.21
   2   0  19    0.39    0.19
  -2   0 -19    0.62    0.22
   4   0  19    0.85    0.33
   6   0  19    0.37    0.18
  -6   0 -19    0.19    0.16
   8   0  19    0.65    0.28
  -8   0 -19    0.53    0.23
 -10   0 -19    0.49    0.16
  10   0  19    0.45    0.18
  12   0  19    0.98    0.18
 -12   0 -19    0.74    0.20
  14   0  19    0.02    0.21
 -14   0 -19    0.86    0.20
  19  -1 -19    0.94    0.30
 -19  -1  19    0.92    0.19
  19   1 -19    0.90    0.37
  19   1 -19    1.14    0.25
 -19   1  19    0.98    0.23
  17  -1 -19    0.23    0.17
 -17  -1  19    0.78    0.14
 -17   1  19    0.74    0.22
  17   1 -19    0.47    0.35
  17   1 -19    0.39    0.05
  17   1 -19    0.72    0.20
  15  -1 -19    4.59    0.67
 -15  -1  19    4.89    0.92
 -15  -1  19    4.19    0.64
 -15   1  19    4.43    0.98
  15   1 -19    4.12    0.54
 -13  -1  19    0.87    0.22
 -13  -1  19    0.62    0.21
  13  -1 -19    0.50    0.15
 -13   1  19    0.36    0.30
 -11  -1  19    1.43    0.31
  11  -1 -19    2.06    0.42
  11  -1 -19    2.01    0.19
  11  -1 -19    2.42    0.47
 -11  -1  19    2.65    0.66
 -11   1  19    1.51    0.41
  11   1 -19    1.73    0.37
  -9  -1  19    0.69    0.13
  -9  -1  19    0.69    0.19
   9  -1 -19    0.99    0.23
   9  -1 -19    0.77    0.20
  -9   1  19    0.97    0.36
   9   1 -19    0.48    0.16
  -7  -1  19    1.26    0.42
   7  -1 -19    1.24    0.26
   7  -1 -19    2.02    0.41
   7  -1 -19    1.45    0.31
  -7  -1  19    1.81    0.33
  -7   1  19    2.13    0.64
   7   1 -19    0.69    0.26
  -5  -1  19    0.38    0.07
  -5  -1  19    1.04    0.29
   5  -1 -19    0.40    0.09
   5  -1 -19    0.54    0.11
   5  -1 -19    0.33    0.08
   5   1 -19    0.23    0.15
  -5   1  19    0.99    0.31
  -3  -1  19    2.84    0.41
  -3  -1  19    3.72    0.82
   3  -1 -19    4.27    0.57
   3  -1 -19    4.07    0.61
   3  -1 -19    4.00    0.48
  -3   1  19    3.84    0.87
   3   1 -19    2.58    0.54
  -1  -1  19    0.60    0.24
   1  -1 -19    0.67    0.19
   1   1 -19    0.65    0.25
  -1   1  19    0.68    0.28
  -1  -1 -19    6.25    0.81
   1  -1  19    5.69    1.00
   1   1  19    6.45    1.10
  -1   1 -19    5.04    0.76
  -3  -1 -19    0.75    0.31
   3  -1  19    0.36    0.19
  -3   1 -19    0.49    0.21
   3   1  19    0.66    0.26
  -5  -1 -19    0.74    0.24
   5  -1  19    0.60    0.19
  -5   1 -19    0.89    0.29
   5   1  19    0.76    0.29
   7  -1  19    2.02    0.52
  -7  -1 -19    2.75    0.58
  -7   1 -19    2.60    0.56
   7   1  19    2.95    0.71
  -9  -1 -19    1.48    0.41
   9  -1  19    2.24    0.58
   9   1  19    1.13    0.29
  -9   1 -19    1.63    0.42
 -11  -1 -19    0.78    0.27
  11  -1  19    0.85    0.24
 -11   1 -19    1.13    0.29
  11   1  19    1.54    0.42
  13  -1  19    1.90    0.47
 -13  -1 -19    1.95    0.44
 -13   1 -19    1.72    0.34
  13   1  19    0.98    0.35
  18  -2 -19    8.16    0.94
 -18  -2  19    7.42    0.90
 -18  -2  19    7.75    1.12
 -18   2  19   10.37    1.50
  18   2 -19    9.52    0.81
 -16  -2  19    3.06    0.54
 -16  -2  19    3.73    0.74
  16  -2 -19    3.58    0.61
 -16   2  19    2.48    0.62
  16   2 -19    3.16    0.48
 -14  -2  19    1.04    0.27
 -14  -2  19    1.20    0.32
  14  -2 -19    1.57    0.34
 -14   2  19    1.15    0.36
  14   2 -19    1.55    0.29
 -12  -2  19   11.12    1.32
  12  -2 -19    9.57    0.87
 -12  -2  19    9.88    0.89
 -12   2  19    9.77    1.43
  12   2 -19    8.77    0.85
  10  -2 -19    7.75    0.64
 -10  -2  19    6.72    1.05
  10  -2 -19    7.31    0.77
 -10  -2  19    7.39    0.81
  10   2 -19    7.09    0.86
 -10   2  19    7.91    1.28
  -8  -2  19    6.54    1.01
  -8  -2  19    6.60    0.64
   8  -2 -19    6.49    0.59
   8  -2 -19    6.59    0.63
  -8   2  19    7.92    1.30
   8   2 -19    5.82    0.80
   6  -2 -19    1.74    0.34
  -6  -2  19    1.58    0.48
  -6  -2  19    1.71    0.33
   6  -2 -19    1.62    0.27
   6   2 -19    1.64    0.47
  -6   2  19    1.93    0.58
   4  -2 -19    4.00    0.48
   4  -2 -19    3.52    0.52
  -4  -2  19    4.01    0.83
  -4  -2  19    3.24    0.46
  -4   2  19    3.06    0.82
   4   2 -19    3.76    0.65
  -2  -2  19   16.50    1.53
  -2  -2  19   16.73    1.02
   2  -2 -19   15.53    1.15
   2   2 -19   15.13    1.23
  -2   2  19   14.43    1.66
   0  -2 -19    7.64    0.87
   0  -2  19    6.62    0.57
   0  -2  19    7.90    1.13
   0   2  19    7.14    1.18
   0   2 -19    8.40    0.97
   2  -2  19    3.46    0.75
  -2  -2 -19    1.83    0.46
   2   2  19    3.58    0.81
  -2   2 -19    2.68    0.58
  -4  -2 -19    1.01    0.34
   4  -2  19    1.42    0.35
   4   2  19    0.99    0.41
  -4   2 -19    1.08    0.29
   6  -2  19   12.04    1.45
  -6  -2 -19   12.65    1.12
  -6   2 -19   11.59    1.10
   6   2  19   12.75    1.51
  -8  -2 -19    0.48    0.16
   8  -2  19    0.58    0.23
  -8   2 -19    0.48    0.14
   8   2  19    0.51    0.16
  10  -2  19    1.04    0.19
 -10  -2 -19    1.45    0.40
  10   2  19    1.37    0.45
 -10   2 -19    0.62    0.17
 -12  -2 -19    1.22    0.32
  12  -2  19    0.96    0.24
 -12   2 -19    2.01    0.39
  12   2  19    2.07    0.43
  17  -3 -19    2.00    0.43
 -17  -3  19    3.02    0.57
 -17   3  19    2.71    0.66
  17   3 -19    2.17    0.32
  15  -3 -19   23.47    1.51
 -15  -3  19   22.19    1.51
 -15  -3  19   21.27    1.70
  15   3 -19   21.64    1.49
 -15   3  19   23.02    2.10
 -13  -3  19    5.45    0.87
  13  -3 -19    4.02    0.59
 -13  -3  19    3.53    0.61
 -13   3  19    3.18    0.77
  13   3 -19    2.62    0.53
 -11  -3  19    2.58    0.50
 -11  -3  19    3.00    0.56
  11  -3 -19    2.81    0.47
 -11   3  19    2.26    0.57
  11   3 -19    1.57    0.42
  -9  -3  19    0.45    0.09
   9  -3 -19    0.71    0.15
   9   3 -19    0.37    0.17
  -9   3  19    0.49    0.15
   7  -3 -19   18.02    1.15
   7  -3 -19   19.42    1.19
  -7  -3  19   18.59    1.59
  -7  -3  19   18.76    1.22
  -7   3  19   18.26    1.79
   7   3 -19   16.12    1.31
  -5  -3  19    0.69    0.15
   5  -3 -19    0.35    0.08
   5   3 -19    0.35    0.18
  -5   3  19    0.79    0.22
   3  -3 -19   11.60    0.91
  -3  -3  19   11.45    1.18
  -3  -3  19   11.00    0.84
   3   3 -19   13.58    1.19
  -3   3  19   12.16    1.55
  -1   3  19    0.75    0.25
   1   3 -19    0.57    0.17
   1  -3  19   27.46    2.01
   1  -3  19   27.70    1.39
  -1  -3 -19   28.42    1.67
  -1   3 -19   29.15    1.82
   1   3  19   28.93    2.24
   3  -3  19    2.95    0.64
  -3  -3 -19    1.13    0.27
  -3   3 -19    2.03    0.52
   3   3  19    1.86    0.50
   5  -3  19   26.51    1.99
  -5  -3 -19   23.58    1.58
   5   3  19   25.84    2.07
  -5   3 -19   25.04    1.70
   7  -3  19    0.64    0.19
  -7  -3 -19    0.87    0.20
   7   3  19    0.82    0.14
  -7   3 -19    0.66    0.13
   9  -3  19    5.28    0.92
  -9  -3 -19    6.11    0.84
   9   3  19    5.87    0.93
  -9   3 -19    4.97    0.75
  11  -3  19    9.89    1.25
 -11  -3 -19    7.27    0.94
 -11   3 -19    6.87    0.89
  11   3  19    7.98    1.08
  14  -4 -19   15.78    1.21
 -14  -4  19   15.92    1.26
 -14   4  19   17.06    1.71
  14   4 -19   16.80    1.35
  12  -4 -19    8.01    0.85
 -12  -4  19    8.97    0.96
  12   4 -19    6.00    0.88
 -12   4  19    6.64    1.11
  10  -4 -19    1.94    0.39
 -10  -4  19    1.40    0.29
  10   4 -19    2.06    0.53
 -10   4  19    2.07    0.52
   8  -4 -19   27.91    1.54
  -8  -4  19   27.03    1.63
  -8   4  19   27.54    2.20
   8   4 -19   26.58    1.82
  -6  -4  19   16.43    1.16
   6  -4 -19   16.00    1.06
  -6   4  19   14.51    1.48
   6   4 -19   16.19    1.36
   4  -4 -19    6.30    0.58
  -4  -4  19    6.51    0.72
  -4   4  19    6.16    1.05
   4   4 -19    6.09    0.86
  -2  -4  19   18.78    1.22
   2  -4 -19   20.08    1.29
  -2  -4  19   21.09    1.63
   2   4 -19   17.21    1.44
  -2   4  19   21.68    1.83
   0  -4 -19   13.85    1.05
   0  -4  19   14.28    1.01
   0  -4  19   16.76    1.43
   0   4  19   15.46    1.48
   0   4 -19   13.33    1.23
   2  -4  19   36.43    1.72
  -2  -4 -19   38.65    1.98
   2  -4  19   38.07    2.35
   2   4  19   36.74    2.48
  -2   4 -19   34.71    2.09
  -4  -4 -19    1.46    0.27
   4  -4  19    1.05    0.23
  -4   4 -19    1.01    0.23
   6  -4  19   15.80    1.40
  -6  -4 -19   11.48    1.07
  -6   4 -19   11.70    1.15
   6   4  19   12.86    1.29
  -7  -5  19    2.56    0.46
   7   5 -19    2.09    0.47
  -7   5  19    2.19    0.48
  -5  -5  19    0.09    0.06
   5   5 -19    0.31    0.16
  -5   5  19    0.09    0.10
   3  -5 -19   54.12    2.37
  -3  -5  19   54.23    2.40
  -3   5  19   52.37    3.08
   3   5 -19   53.50    2.79
  -1  -5  19    3.65    0.54
   1  -5 -19    4.44    0.58
   1   5 -19    4.15    0.72
  -1   5  19    3.62    0.67
   1  -5  19   27.14    1.53
  -1  -5 -19   26.81    1.61
  -1   5 -19   25.94    1.83
   1   5  19   27.23    2.11
  18   0 -20    1.62    0.37
  18   0 -20    1.96    0.46
 -18   0  20    2.40    0.55
 -16   0  20   90.84    4.50
  16   0 -20   93.29    3.12
  16   0 -20   93.54    3.36
 -14   0  20    1.13    0.39
  14   0 -20    1.52    0.41
  14   0 -20    0.95    0.21
 -12   0  20   16.18    1.81
  12   0 -20   17.36    1.17
  12   0 -20   16.25    1.10
  12   0 -20   15.22    1.19
  10   0 -20    0.64    0.21
  10   0 -20    1.16    0.32
 -10   0  20    1.18    0.32
   8   0 -20   87.04    2.97
   8   0 -20   83.21    2.82
  -8   0  20   82.92    4.17
   8   0 -20   81.82    3.01
   6   0 -20    5.51    0.67
  -6   0  20    4.90    1.01
   6   0 -20    4.63    0.69
   6   0 -20    6.83    0.75
   4   0 -20   52.01    2.02
   4   0 -20   53.14    2.37
   4   0 -20   49.73    2.14
  -4   0  20   51.94    3.15
   2   0 -20    5.92    0.80
  -2   0  20    5.51    1.02
   0   0  20   67.74    3.60
   0   0 -20   66.18    2.77
  -2   0 -20    5.76    0.80
   2   0  20    6.44    1.10
   4   0  20    3.90    0.85
  -4   0 -20    4.07    0.69
  -6   0 -20    3.72    0.67
   6   0  20    4.39    0.92
   8   0  20   16.92    1.69
  -8   0 -20   19.10    1.46
 -10   0 -20   14.50    1.27
  10   0  20   14.98    1.57
 -17  -1  20   21.42    1.91
  17  -1 -20   23.63    1.57
  17   1 -20   24.55    1.40
 -17   1  20   21.83    2.07
  17   1 -20   23.13    1.60
  17   1 -20   24.85    1.41
  15  -1 -20    6.97    0.82
 -15  -1  20    5.35    0.97
 -15   1  20    6.53    1.16
  15   1 -20    6.63    0.62
  13  -1 -20   24.17    1.34
  13  -1 -20   21.97    1.42
 -13  -1  20   24.63    2.06
 -13  -1  20   22.73    1.46
  13   1 -20   25.66    1.50
 -13   1  20   21.10    2.02
  11  -1 -20   12.13    0.97
  11  -1 -20   10.99    0.92
 -11  -1  20   11.28    0.93
  11  -1 -20   11.58    0.88
 -11  -1  20   10.19    1.36
 -11   1  20   11.76    1.54
  11   1 -20   10.50    0.90
   9  -1 -20   13.49    0.98
   9  -1 -20   14.28    1.06
   9  -1 -20   14.04    1.02
  -9  -1  20   13.02    0.99
  -9  -1  20   14.07    1.65
   9   1 -20   14.86    1.14
  -9   1  20   12.40    1.60
   7  -1 -20   33.49    1.64
   7  -1 -20   36.01    1.80
   7  -1 -20   34.97    1.78
  -7  -1  20   34.90    1.69
  -7  -1  20   36.04    2.57
  -7   1  20   35.09    2.61
   7   1 -20   34.98    1.89
   5  -1 -20   19.55    1.31
  -5  -1  20   21.41    1.93
   5  -1 -20   19.67    1.16
   5  -1 -20   20.22    1.29
  -5  -1  20   21.15    1.22
   5   1 -20   19.63    1.39
  -5   1  20   18.91    1.87
  -3  -1  20   62.01    3.41
  -3  -1  20   56.71    2.11
   3  -1 -20   51.68    2.35
   3   1 -20   55.99    2.52
  -3   1  20   56.94    3.33
  -1  -1  20   14.97    1.54
   1  -1 -20   14.38    1.16
  -1   1  20   13.99    1.65
   1   1 -20   15.00    1.24
   1  -1  20   41.66    2.69
  -1  -1 -20   38.58    2.04
   1   1  20   35.71    2.56
  -1   1 -20   37.43    2.05
   3  -1  20   17.26    1.66
  -3  -1 -20   17.28    1.34
  -3   1 -20   15.09    1.27
   3   1  20   17.05    1.69
   5  -1  20   19.37    1.79
  -5  -1 -20   19.95    1.47
   5   1  20   18.19    1.75
  -5   1 -20   17.22    1.38
   7  -1  20    4.31    0.91
  -7  -1 -20    4.28    0.71
  -7   1 -20    3.45    0.64
   7   1  20    4.61    0.93
   9  -1  20   36.37    2.60
  -9  -1 -20   35.28    2.05
   9   1  20   34.54    2.53
  -9   1 -20   32.26    1.99
 -11  -1 -20    4.47    0.74
  11  -1  20    4.59    0.91
  11   1  20    4.70    0.96
 -11   1 -20    4.40    0.73
 -16  -2  20   14.41    1.17
 -16  -2  20   13.88    1.36
  16  -2 -20   13.16    1.10
  16   2 -20   13.43    1.02
 -16   2  20   14.62    1.76
  14  -2 -20    2.30    0.39
 -14  -2  20    2.33    0.43
 -14  -2  20    1.68    0.32
  14   2 -20    1.89    0.15
 -14   2  20    1.50    0.44
  12  -2 -20   63.76    2.56
 -12  -2  20   61.35    3.32
 -12  -2  20   64.02    2.60
  12   2 -20   64.26    2.72
 -12   2  20   65.17    3.76
 -10  -2  20    0.43    0.08
 -10  -2  20    1.01    0.23
  10   2 -20    0.68    0.18
 -10   2  20    0.78    0.23
   8  -2 -20   45.57    1.96
  -8  -2  20   42.58    2.71
   8  -2 -20   44.08    1.99
  -8  -2  20   41.40    1.92
  -8   2  20   39.31    2.84
   8   2 -20   43.49    2.19
  -6  -2  20    1.44    0.32
   6  -2 -20    0.46    0.06
   6  -2 -20    0.97    0.17
  -6   2  20    0.87    0.29
   6   2 -20    0.63    0.22
  -4  -2  20   52.27    2.99
   4  -2 -20   48.04    2.18
  -4  -2  20   47.82    1.98
  -4   2  20   46.54    3.10
   4   2 -20   45.33    2.29
  -2  -2  20    8.19    1.16
   2  -2 -20   10.38    0.90
  -2  -2  20    6.93    0.61
   2   2 -20    7.84    0.95
  -2   2  20    8.20    1.27
   0  -2  20   23.33    1.91
   0  -2 -20   23.84    1.53
   0   2 -20   22.61    1.58
   0   2  20   23.27    2.05
   2  -2  20    1.38    0.32
  -2  -2 -20    0.97    0.28
  -2   2 -20    1.09    0.32
   2   2  20    1.21    0.38
   4  -2  20   17.52    1.67
  -4  -2 -20   14.02    1.20
   4   2  20   14.85    1.69
  -4   2 -20   16.18    1.34
  -6  -2 -20   13.24    1.16
   6  -2  20   12.31    1.46
   6   2  20   15.24    1.70
  -6   2 -20   13.25    1.20
   8  -2  20   15.03    1.53
  -8  -2 -20   13.66    1.22
   8   2  20   13.80    1.62
  -8   2 -20   13.98    1.24
 -10  -2 -20    3.88    0.71
  10  -2  20    5.54    0.98
 -10   2 -20    4.49    0.72
  10   2  20    3.27    0.73
  13  -3 -20    9.88    0.90
 -13  -3  20   11.63    1.16
 -13  -3  20   10.39    0.95
 -13   3  20   11.53    1.55
  13   3 -20    9.32    0.90
 -11  -3  20    8.45    0.81
  11  -3 -20    9.99    0.87
 -11  -3  20    9.79    1.18
 -11   3  20   10.39    1.46
  11   3 -20    8.54    1.00
   9  -3 -20   10.91    0.89
  -9  -3  20   11.18    0.94
  -9  -3  20   13.08    1.26
   9   3 -20   12.49    1.13
  -9   3  20   12.95    1.59
   7  -3 -20   15.35    1.06
  -7  -3  20   17.33    1.17
  -7  -3  20   17.35    1.55
   7  -3 -20   15.93    1.09
   7   3 -20   16.67    1.36
  -7   3  20   16.58    1.84
   5  -3 -20    8.98    0.77
  -5  -3  20    8.88    0.75
  -5  -3  20   10.00    1.26
   5   3 -20    8.54    1.01
  -5   3  20   10.12    1.41
   3  -3 -20   33.10    1.76
  -3  -3  20   35.28    2.36
  -3  -3  20   34.03    1.67
  -3   3  20   39.05    2.75
   3   3 -20   35.21    2.05
   1  -3 -20    7.42    0.73
  -1  -3  20    8.07    1.12
  -1  -3  20    6.00    0.57
  -1   3  20    7.35    1.21
   1   3 -20    8.63    1.02
   1  -3  20   25.65    1.96
  -1  -3 -20   23.48    1.53
   1   3  20   25.01    2.09
  -1   3 -20   22.08    1.62
  -3  -3 -20    8.87    0.88
   3  -3  20    8.64    1.15
   3   3  20    9.21    1.29
  -3   3 -20    9.20    1.06
   5  -3  20   21.35    1.75
  -5  -3 -20   20.89    1.48
  -5   3 -20   21.79    1.59
   5   3  20   22.25    1.91
   7  -3  20    3.65    0.74
  -7  -3 -20    4.31    0.70
  -7   3 -20    3.37    0.61
   7   3  20    4.02    0.77
  10  -4 -20    3.60    0.55
 -10  -4  20    3.01    0.49
  10   4 -20    3.94    0.69
 -10   4  20    2.84    0.62
  -8  -4  20   14.23    1.11
   8  -4 -20   15.41    1.09
   8   4 -20   13.53    1.24
  -8   4  20   14.27    1.43
  -6  -4  20    7.99    0.76
   6   4 -20    9.65    1.12
  -6   4  20    9.32    1.30
  -4  -4  20   25.08    1.48
   4  -4 -20   27.90    1.57
  -4   4  20   28.47    2.23
   4   4 -20   25.70    1.80
   2  -4 -20    1.37    0.24
  -2  -4  20    1.58    0.23
   2   4 -20    1.61    0.41
  -2   4  20    2.06    0.34
   0  -4  20   13.13    0.95
   0  -4 -20   13.48    1.07
   0  -4  20   17.24    1.43
   0   4  20   13.69    1.42
   0   4 -20   14.09    1.29
  -2  -4 -20   12.89    1.05
   2  -4  20   15.01    1.32
  -2   4 -20   13.04    1.23
   2   4  20   14.48    1.41
 -16   0  21    0.98    0.19
 -14   0  21    0.43    0.18
  14   0 -21    0.10    0.10
  14   0 -21    0.75    0.16
 -12   0  21    0.87    0.28
  12   0 -21    0.71    0.23
  12   0 -21    0.46    0.08
  10   0 -21    0.62    0.15
 -10   0  21    0.35    0.15
   8   0 -21    0.70    0.19
   8   0 -21    0.34    0.10
  -8   0  21    0.74    0.24
   6   0 -21    0.62    0.14
   6   0 -21    0.53    0.12
   6   0 -21    0.29    0.08
  -4   0  21    1.09    0.27
   4   0 -21    0.48    0.16
   4   0 -21    0.68    0.13
   2   0 -21    0.56    0.13
  -2   0  21    0.50    0.15
   0   0  21    2.07    0.50
  -2   0 -21    0.31    0.11
   2   0  21    0.15    0.10
   4   0  21    0.32    0.22
  -4   0 -21    0.66    0.17
  -6   0 -21    0.73    0.16
   6   0  21    0.85    0.20
   8   0  21    0.73    0.17
  -8   0 -21    0.65    0.17
 -15  -1  21    1.23    0.26
  15  -1 -21    1.70    0.35
  15   1 -21    0.94    0.34
  15   1 -21    1.01    0.07
  15   1 -21    1.59    0.34
 -15   1  21    1.35    0.54
  13  -1 -21    3.90    0.57
 -13  -1  21    3.70    0.77
 -13   1  21    4.53    0.97
  13   1 -21    3.15    0.30
  11  -1 -21    2.27    0.35
  11  -1 -21    1.92    0.37
 -11  -1  21    1.61    0.28
  11  -1 -21    1.91    0.34
 -11  -1  21    2.12    0.53
 -11   1  21    2.28    0.59
  11   1 -21    1.30    0.18
   9  -1 -21    1.14    0.10
  -9  -1  21    1.37    0.41
   9  -1 -21    1.04    0.22
   9  -1 -21    1.47    0.29
   9   1 -21    1.02    0.18
  -9   1  21    0.82    0.28
   7  -1 -21    3.66    0.53
  -7  -1  21    3.18    0.48
   7  -1 -21    3.80    0.58
  -7  -1  21    2.90    0.72
   7  -1 -21    3.11    0.46
  -7   1  21    3.48    0.87
   7   1 -21    3.44    0.60
   5  -1 -21    7.11    0.62
  -5  -1  21    6.48    0.68
  -5  -1  21    8.44    1.32
   5  -1 -21    6.89    0.69
   5   1 -21    7.19    0.87
  -5   1  21    7.31    1.24
  -3  -1  21    4.34    0.86
   3  -1 -21    3.61    0.58
   3   1 -21    5.41    0.78
  -3   1  21    3.37    0.80
   1  -1 -21    0.87    0.24
  -1  -1  21    0.95    0.35
  -1   1  21    0.94    0.22
   1   1 -21    1.25    0.35
  -1  -1 -21    1.98    0.45
   1  -1  21    2.64    0.63
   1   1  21    2.20    0.63
  -1   1 -21    1.30    0.34
  -3  -1 -21    0.51    0.15
   3  -1  21    1.35    0.32
   3   1  21    0.83    0.25
  -3   1 -21    0.61    0.25
   5  -1  21    6.20    1.08
  -5  -1 -21    5.52    0.80
   5   1  21    4.97    1.03
  -5   1 -21    3.85    0.69
   7  -1  21    2.23    0.48
  -7  -1 -21    1.43    0.39
  -7   1 -21    1.57    0.38
   7   1  21    1.08    0.34
  12  -2 -21    1.31    0.20
 -12  -2  21    0.68    0.10
 -12   2  21    1.02    0.32
  10  -2 -21    1.40    0.08
  10  -2 -21    2.19    0.36
 -10  -2  21    1.83    0.37
 -10  -2  21    1.52    0.30
 -10   2  21    2.32    0.57
  10   2 -21    1.39    0.25
  -8  -2  21   23.31    1.40
   8  -2 -21   24.10    1.37
  -8  -2  21   25.45    2.02
   8  -2 -21   23.75    1.40
   8   2 -21   22.60    1.56
  -8   2  21   21.41    2.05
  -6  -2  21    3.62    0.50
   6  -2 -21    4.31    0.56
  -6  -2  21    4.09    0.81
  -6   2  21    4.11    0.98
   6   2 -21    3.90    0.68
   4  -2 -21    0.70    0.07
  -4   2  21    0.68    0.27
   4   2 -21    0.52    0.15
  -2  -2  21    0.82    0.17
  -2   2  21    0.75    0.20
   2   2 -21    0.80    0.24
   0  -2 -21   12.84    1.09
   0  -2  21   12.76    1.35
   0   2  21   15.52    1.64
   0   2 -21   11.11    1.09
  -2  -2 -21    0.45    0.10
   2  -2  21    1.37    0.22
  -2   2 -21    0.32    0.13
   2   2  21    0.67    0.20
  -4  -2 -21    0.93    0.24
  -4   2 -21    0.76    0.26
   4   2  21    1.97    0.52
  -6  -2 -21    0.90    0.20
   6  -2  21    1.22    0.21
  -6   2 -21    0.60    0.16
   6   2  21    0.81    0.16
  -9  -3  21   12.24    1.26
  -9  -3  21   12.11    0.98
   9  -3 -21   11.42    0.91
   9   3 -21   11.39    1.09
  -9   3  21   11.90    1.55
   7  -3 -21    2.32    0.39
  -7  -3  21    4.04    0.75
  -7  -3  21    3.17    0.51
  -7   3  21    3.74    0.85
   7   3 -21    2.61    0.54
  -5  -3  21   23.01    1.91
   5  -3 -21   19.25    1.28
  -5  -3  21   22.37    1.35
  -5   3  21   22.52    2.05
   5   3 -21   21.22    1.58
  -3  -3  21    0.75    0.13
  -3   3  21    0.70    0.19
   3   3 -21    0.57    0.19
  -1  -3  21    7.99    1.09
   1  -3 -21    8.38    0.77
   1   3 -21    8.59    1.03
  -1   3  21    9.75    1.41
   1  -3  21    3.37    0.31
   1   3  21    2.74    0.56
  -1   3 -21    2.33    0.54
   3  -3  21   16.69    1.54
  -3  -3 -21   14.54    1.19
   3   3  21   13.92    1.60
  -3   3 -21   12.79    1.21
 -12   0  22    0.97    0.21
  10   0 -22    7.94    0.75
 -10   0  22    7.10    1.22
  10   0 -22    6.33    0.58
  10   0 -22    7.20    0.69
   8   0 -22    0.65    0.21
   8   0 -22    0.94    0.09
   8   0 -22    1.13    0.17
  -6   0  22   59.72    3.63
   6   0 -22   58.55    2.46
   6   0 -22   62.08    2.37
   6   0 -22   56.72    2.57
   4   0 -22    0.61    0.10
  -4   0  22    1.09    0.30
   2   0 -22    2.11    0.48
  -2   0  22    2.38    0.58
   0   0  22    2.13    0.54
   0   0 -22    1.71    0.41
   2   0  22   64.48    3.69
  -2   0 -22   59.55    2.78
  -4   0 -22    9.99    1.10
   4   0  22    8.51    1.28
 -11  -1  22   25.02    2.08
  11  -1 -22   24.70    1.50
  11  -1 -22   23.70    1.42
 -11   1  22   22.45    2.09
  11   1 -22   23.35    1.55
  11   1 -22   23.62    1.43
  11   1 -22   22.90    1.48
   9  -1 -22   27.97    1.55
  -9  -1  22   30.99    2.41
   9  -1 -22   28.87    1.65
   9  -1 -22   27.62    1.57
  -9   1  22   26.57    2.31
   9   1 -22   26.97    1.65
  -7  -1  22    9.26    0.81
  -7  -1  22   11.10    1.49
   7  -1 -22   10.31    0.83
   7  -1 -22   10.10    0.86
  -7   1  22   11.33    1.55
   7   1 -22    9.93    0.95
  -5  -1  22   17.49    1.75
   5  -1 -22   13.72    1.06
  -5  -1  22   11.15    0.90
   5   1 -22   12.43    1.11
  -5   1  22   14.23    1.78
   3  -1 -22   19.41    1.38
  -3  -1  22   19.41    1.85
   3   1 -22   18.53    1.43
  -3   1  22   20.47    2.00
   1  -1 -22   19.91    1.43
  -1  -1  22   19.82    1.89
   1   1 -22   18.19    1.43
  -1   1  22   17.90    1.83
  -1  -1 -22    6.91    0.86
   1  -1  22    6.19    1.08
   1   1  22    6.81    1.21
  -1   1 -22    5.66    0.83
   3  -1  22   27.18    2.24
  -3  -1 -22   28.84    1.83
   3   1  22   28.91    2.36
  -3   1 -22   25.31    1.76
   8  -2 -22    0.93    0.08
  -8  -2  22    0.97    0.20
  -8   2  22    1.14    0.23
   8   2 -22    0.82    0.19
   6  -2 -22    7.25    0.67
  -6  -2  22    6.10    0.68
  -6  -2  22    6.40    1.06
   6   2 -22    6.48    0.85
  -6   2  22    8.36    1.32
  -4  -2  22    0.22    0.08
  -4  -2  22    1.73    0.30
  -4   2  22    0.60    0.13
   4   2 -22    1.03    0.24
   2  -2 -22   23.72    1.52
  -2  -2  22   29.20    2.27
   2   2 -22   25.07    1.74
  -2   2  22   24.33    2.23
   0  -2  22    4.22    0.81
   0  -2 -22    3.16    0.52
   0   2  22    1.98    0.39
   0   2 -22    3.10    0.63
   0   0   0    0.00    0.00
;
_shelx_hkl_checksum              8018
_shelx_shelxl_version_number     2014/7
_olex2_submission_special_instructions 'No special instructions were received'
loop_
_space_group_symop_operation_xyz
'x, y, z'
'-x, y, -z+1/2'
'x+1/2, y+1/2, z'
'-x+1/2, y+1/2, -z+1/2'
'-x, -y, -z'
'x, -y, z-1/2'
'-x+1/2, -y+1/2, -z'
'x+1/2, -y+1/2, z-1/2'
loop_
_atom_site_label
_atom_site_type_symbol
_atom_site_fract_x
_atom_site_fract_y
_atom_site_fract_z
_atom_site_U_iso_or_equiv
_atom_site_adp_type
_atom_site_occupancy
_atom_site_site_symmetry_order
_atom_site_calc_flag
K1 K 0.39678(8) 0.9496(2) 0.74168(9) 0.0443(4) Uani 1 1 d
K2 K 0.15756(8) 1.5237(3) 0.49565(10) 0.0475(4) Uani 1 1 d
U1 U 0.37926(2) 1.46718(3) 0.62719(2) 0.01192(6) Uani 1 1 d
Si1 Si 0.57919(6) 1.4618(2) 0.66177(8) 0.0132(3) Uani 1 1 d
Si2 Si 0.49514(5) 1.74724(18) 0.57179(8) 0.0108(2) Uani 1 1 d
Si3 Si 0.32000(5) 1.45714(19) 0.42022(8) 0.0118(2) Uani 1 1 d
Si4 Si 0.49523(6) 1.15989(19) 0.60941(8) 0.0112(2) Uani 1 1 d
Si5 Si 0.25262(5) 1.14503(19) 0.32027(8) 0.0114(2) Uani 1 1 d
Si6 Si 0.23531(6) 1.73558(19) 0.35559(8) 0.0120(2) Uani 1 1 d
O1 O 0.19068(16) 1.2012(6) 0.3313(2) 0.0214(8) Uani 1 1 d
O2 O 0.26914(15) 0.9361(5) 0.3574(2) 0.0187(7) Uani 1 1 d
O3 O 0.50869(16) 1.9369(5) 0.6247(2) 0.0179(7) Uani 1 1 d
O4 O 0.26758(15) 1.6007(5) 0.4238(2) 0.0170(7) Uani 1 1 d
O5 O 0.30089(15) 1.2771(5) 0.3650(2) 0.0206(8) Uani 1 1 d
O6 O 0.43575(15) 1.2117(5) 0.6333(2) 0.0208(8) Uani 1 1 d
O7 O 0.54689(15) 1.2614(5) 0.6634(2) 0.0200(8) Uani 1 1 d
O8 O 0.17336(15) 1.7655(5) 0.3741(2) 0.0174(7) Uani 1 1 d
O9 O 0.34269(16) 1.3843(5) 0.5056(2) 0.0200(8) Uani 1 1 d
O10 O 0.26394(17) 1.1335(6) 0.2290(2) 0.0206(8) Uani 1 1 d
O11 O 0.40862(17) 1.5482(6) 0.7520(2) 0.0215(8) Uani 1 1 d
O12 O 0.36455(16) 1.5793(5) 0.3779(2) 0.0216(8) Uani 1 1 d
O13 O 0.5018(2) 1.7952(6) 0.4820(2) 0.0288(10) Uani 1 1 d
O14 O 0.43506(19) 1.6730(7) 0.5802(3) 0.0400(12) Uani 1 1 d
O15 O 0.5428(2) 1.6015(7) 0.6025(3) 0.0370(12) Uani 1 1 d
loop_
_atom_site_aniso_label
_atom_site_aniso_U_11
_atom_site_aniso_U_22
_atom_site_aniso_U_33
_atom_site_aniso_U_23
_atom_site_aniso_U_13
_atom_site_aniso_U_12
K1 0.0633(10) 0.0316(8) 0.0336(8) 0.0043(6) -0.0116(7) -0.0205(7)
K2 0.0626(11) 0.0398(9) 0.0372(8) 0.0152(7) -0.0055(7) -0.0138(8)
U1 0.01076(9) 0.01218(9) 0.01282(9) -0.00005(6) 0.00144(6) 0.00151(6)
Si1 0.0145(6) 0.0100(6) 0.0143(6) 0.0005(5) -0.0017(5) 0.0004(5)
Si2 0.0139(6) 0.0078(6) 0.0109(6) 0.0009(5) 0.0021(5) -0.0001(5)
Si3 0.0127(6) 0.0096(6) 0.0124(6) -0.0002(5) -0.0008(5) -0.0003(5)
Si4 0.0143(6) 0.0087(6) 0.0107(6) 0.0002(5) 0.0016(5) -0.0004(5)
Si5 0.0131(6) 0.0095(6) 0.0118(6) 0.0003(5) 0.0017(5) -0.0023(5)
Si6 0.0147(6) 0.0104(6) 0.0112(6) 0.0015(5) 0.0029(5) 0.0022(5)
O1 0.0176(18) 0.0203(19) 0.027(2) 0.0035(16) 0.0066(15) 0.0015(15)
O2 0.0207(18) 0.0125(18) 0.0224(19) 0.0033(14) 0.0013(15) -0.0017(14)
O3 0.032(2) 0.0080(17) 0.0133(16) 0.0009(13) 0.0001(14) 0.0046(15)
O4 0.0196(18) 0.0167(18) 0.0149(17) 0.0031(14) 0.0025(14) 0.0068(14)
O5 0.0188(18) 0.0139(18) 0.027(2) -0.0085(15) -0.0036(15) -0.0034(15)
O6 0.0154(17) 0.0178(19) 0.029(2) 0.0031(16) 0.0026(15) 0.0056(15)
O7 0.0202(18) 0.0170(19) 0.0222(19) -0.0023(15) -0.0003(15) -0.0059(15)
O8 0.0164(17) 0.0153(18) 0.0213(18) 0.0017(14) 0.0049(14) 0.0041(14)
O9 0.0226(19) 0.0188(19) 0.0174(18) 0.0032(15) -0.0019(14) 0.0030(15)
O10 0.029(2) 0.020(2) 0.0139(17) 0.0018(14) 0.0039(15) -0.0007(16)
O11 0.032(2) 0.0178(19) 0.0137(17) 0.0012(14) -0.0028(15) 0.0042(16)
O12 0.0188(18) 0.0174(19) 0.030(2) 0.0035(16) 0.0062(15) -0.0023(15)
O13 0.060(3) 0.016(2) 0.0118(18) 0.0008(15) 0.0082(18) -0.0036(19)
O14 0.028(2) 0.045(3) 0.050(3) -0.010(2) 0.018(2) -0.022(2)
O15 0.053(3) 0.026(2) 0.027(2) -0.0005(18) -0.012(2) 0.023(2)
loop_
_atom_type_symbol
_atom_type_description
_atom_type_scat_dispersion_real
_atom_type_scat_dispersion_imag
_atom_type_scat_source
K K 0.2009 0.2494 'International Tables Vol C Tables 4.2.6.8 and 6.1.1.4'
O O 0.0106 0.0060 'International Tables Vol C Tables 4.2.6.8 and 6.1.1.4'
Si Si 0.0817 0.0704 'International Tables Vol C Tables 4.2.6.8 and 6.1.1.4'
U U -9.6767 9.6646 'International Tables Vol C Tables 4.2.6.8 and 6.1.1.4'
loop_
_geom_angle_atom_site_label_1
_geom_angle_atom_site_label_2
_geom_angle_atom_site_label_3
_geom_angle
_geom_angle_site_symmetry_1
_geom_angle_site_symmetry_3
Si1 K1 U1 55.39(3) 2_646 1_545
Si4 K1 U1 135.20(6) 2_656 1_545
Si4 K1 U1 94.82(5) . 1_545
Si4 K1 Si1 122.41(6) . 2_646
Si4 K1 Si1 90.65(4) 2_656 2_646
Si4 K1 Si4 78.86(5) 2_656 .
Si6 K1 U1 55.19(3) 7_576 1_545
Si6 K1 Si1 87.10(4) 7_576 2_646
Si6 K1 Si4 162.44(7) 7_576 2_656
Si6 K1 Si4 116.84(5) 7_576 .
O1 K1 U1 115.31(8) 7_576 1_545
O1 K1 Si1 150.24(9) 7_576 2_646
O1 K1 Si4 108.22(8) 7_576 2_656
O1 K1 Si4 84.58(7) 7_576 .
O1 K1 Si6 67.89(8) 7_576 7_576
O3 K1 U1 111.91(8) 2_646 1_545
O3 K1 Si1 65.81(8) 2_646 2_646
O3 K1 Si4 25.30(7) 2_646 2_656
O3 K1 Si4 89.18(8) 2_646 .
O3 K1 Si6 150.29(9) 2_646 7_576
O3 K1 O1 132.71(11) 2_646 7_576
O3 K1 O10 134.08(11) 2_646 6_576
O6 K1 U1 105.55(9) . 1_545
O6 K1 Si1 144.69(10) . 2_646
O6 K1 Si4 85.40(9) . 2_656
O6 K1 Si4 22.65(8) . .
O6 K1 Si6 106.27(9) . 7_576
O6 K1 O1 62.02(10) . 7_576
O6 K1 O3 103.04(11) . 2_646
O6 K1 O7 72.70(12) . 2_656
O6 K1 O8 96.62(12) . 7_576
O6 K1 O10 118.52(11) . 6_576
O6 K1 O11 130.26(13) . 1_545
O7 K1 U1 158.63(10) 2_656 1_545
O7 K1 Si1 113.62(9) 2_656 2_646
O7 K1 Si4 75.56(8) 2_656 .
O7 K1 Si4 25.02(7) 2_656 2_656
O7 K1 Si6 146.17(10) 2_656 7_576
O7 K1 O1 83.20(11) 2_656 7_576
O7 K1 O3 50.01(10) 2_656 2_646
O7 K1 O10 123.74(12) 2_656 6_576
O8 K1 U1 35.00(7) 7_576 1_545
O8 K1 Si1 82.11(8) 7_576 2_646
O8 K1 Si4 99.35(9) 7_576 .
O8 K1 Si4 170.16(10) 7_576 2_656
O8 K1 Si6 24.52(7) 7_576 7_576
O8 K1 O1 81.10(11) 7_576 7_576
O8 K1 O3 145.99(12) 7_576 2_646
O8 K1 O7 163.90(12) 7_576 2_656
O8 K1 O10 50.40(10) 7_576 6_576
O10 K1 U1 76.37(7) 6_576 1_545
O10 K1 Si1 87.83(8) 6_576 2_646
O10 K1 Si4 136.30(8) 6_576 .
O10 K1 Si4 136.39(9) 6_576 2_656
O10 K1 Si6 26.16(7) 6_576 7_576
O10 K1 O1 62.57(10) 6_576 7_576
O11 K1 U1 33.96(7) 1_545 1_545
O11 K1 Si1 21.69(8) 1_545 2_646
O11 K1 Si4 111.22(10) 1_545 .
O11 K1 Si4 107.41(9) 1_545 2_656
O11 K1 Si6 75.35(9) 1_545 7_576
O11 K1 O1 143.19(12) 1_545 7_576
O11 K1 O3 82.16(11) 1_545 2_646
O11 K1 O7 132.07(12) 1_545 2_656
O11 K1 O8 64.02(11) 1_545 7_576
O11 K1 O10 85.13(12) 1_545 6_576
Si3 K2 Si5 49.29(4) 7_576 7_576
Si3 K2 Si6 95.67(5) 7_576 7_586
Si5 K2 Si6 46.63(3) 7_576 7_586
Si6 K2 Si3 125.68(7) . 7_576
Si6 K2 Si5 113.08(6) . 7_576
Si6 K2 Si6 83.30(5) . 7_586
O2 K2 Si3 73.24(8) 7_576 7_576
O2 K2 Si5 24.06(8) 7_576 7_576
O2 K2 Si6 102.68(9) 7_576 .
O2 K2 Si6 23.78(8) 7_576 7_586
O2 K2 O4 81.93(11) 7_576 .
O2 K2 O4 48.49(10) 7_576 7_586
O2 K2 O5 48.18(10) 7_576 7_576
O2 K2 O6 153.71(11) 7_576 7_576
O2 K2 O14 126.61(13) 7_576 7_586
O4 K2 Si3 121.02(8) 7_586 7_576
O4 K2 Si3 102.76(9) . 7_576
O4 K2 Si5 71.94(7) 7_586 7_576
O4 K2 Si5 87.06(8) . 7_576
O4 K2 Si6 25.36(6) 7_586 7_586
O4 K2 Si6 68.69(8) . 7_586
O4 K2 Si6 68.95(7) 7_586 .
O4 K2 Si6 27.28(7) . .
O4 K2 O4 65.38(11) . 7_586
O4 K2 O5 101.46(11) . 7_576
O4 K2 O6 111.45(11) . 7_576
O4 K2 O14 108.03(11) . 7_586
O5 K2 Si3 25.84(7) 7_576 7_576
O5 K2 Si5 25.08(7) 7_576 7_576
O5 K2 Si6 128.67(9) 7_576 .
O5 K2 Si6 71.51(7) 7_576 7_586
O5 K2 O4 96.64(10) 7_576 7_586
O5 K2 O6 105.82(10) 7_576 7_576
O5 K2 O14 148.98(12) 7_576 7_586
O6 K2 Si3 81.56(8) 7_576 7_576
O6 K2 Si5 130.64(8) 7_576 7_576
O6 K2 Si6 177.20(9) 7_576 7_586
O6 K2 Si6 97.98(8) 7_576 .
O6 K2 O4 157.40(10) 7_576 7_586
O8 K2 Si3 146.66(11) . 7_576
O8 K2 Si5 134.55(10) . 7_576
O8 K2 Si6 94.34(9) . 7_586
O8 K2 Si6 25.31(8) . .
O8 K2 O2 117.49(12) . 7_576
O8 K2 O4 72.59(11) . 7_586
O8 K2 O4 52.39(10) . .
O8 K2 O5 153.82(12) . 7_576
O8 K2 O6 87.81(11) . 7_576
O8 K2 O9 128.15(13) . 7_576
O8 K2 O14 56.18(11) . 7_586
O9 K2 Si3 23.74(8) 7_576 7_576
O9 K2 Si5 71.97(8) 7_576 7_576
O9 K2 Si6 114.76(10) 7_576 .
O9 K2 Si6 117.00(9) 7_576 7_586
O9 K2 O2 96.02(11) 7_576 7_576
O9 K2 O4 141.56(12) 7_576 7_586
O9 K2 O4 99.99(12) 7_576 .
O9 K2 O5 49.54(10) 7_576 7_576
O9 K2 O6 60.20(10) 7_576 7_576
O9 K2 O14 131.02(13) 7_576 7_586
O14 K2 Si3 145.10(10) 7_586 7_576
O14 K2 Si5 146.60(11) 7_586 7_576
O14 K2 Si6 81.44(9) 7_586 .
O14 K2 Si6 110.42(10) 7_586 7_586
O14 K2 O4 87.20(11) 7_586 7_586
O14 K2 O6 72.28(11) 7_586 7_576
K1 U1 K1 122.41(4) 1_565 .
K1 U1 K2 60.36(3) 1_565 7_586
K1 U1 K2 173.65(4) 1_565 7_576
K1 U1 K2 173.53(3) . 7_586
K2 U1 K1 59.60(3) 7_576 .
K2 U1 K2 116.96(4) 7_576 7_586
O1 U1 K1 54.74(10) 7_576 .
O1 U1 K1 110.07(11) 7_576 1_565
O1 U1 K2 65.61(10) 7_576 7_576
O1 U1 K2 119.18(10) 7_576 7_586
O1 U1 O6 92.07(14) 7_576 .
O1 U1 O8 90.08(14) 7_576 7_586
O6 U1 K1 130.10(10) . 1_565
O6 U1 K1 41.04(10) . .
O6 U1 K2 55.80(10) . 7_576
O6 U1 K2 142.91(10) . 7_586
O6 U1 O8 176.39(14) . 7_586
O8 U1 K1 139.67(10) 7_586 .
O8 U1 K1 46.32(10) 7_586 1_565
O8 U1 K2 127.80(10) 7_586 7_576
O8 U1 K2 36.90(10) 7_586 7_586
O9 U1 K1 102.13(10) . .
O9 U1 K1 134.13(10) . 1_565
O9 U1 K2 74.21(10) . 7_586
O9 U1 K2 42.74(10) . 7_576
O9 U1 O1 85.67(14) . 7_576
O9 U1 O6 90.07(14) . .
O9 U1 O8 92.99(14) . 7_586
O9 U1 O11 175.13(15) . .
O11 U1 K1 77.14(10) . .
O11 U1 K1 45.70(10) . 1_565
O11 U1 K2 106.04(10) . 7_586
O11 U1 K2 136.73(10) . 7_576
O11 U1 O1 90.04(15) . 7_576
O11 U1 O6 92.39(14) . .
O11 U1 O8 84.70(14) . 7_586
O14 U1 K1 136.32(15) . .
O14 U1 K1 64.67(13) . 1_565
O14 U1 K2 49.82(15) . 7_586
O14 U1 K2 118.68(13) . 7_576
O14 U1 O1 168.91(17) . 7_576
O14 U1 O6 98.69(17) . .
O14 U1 O8 79.32(17) . 7_586
O14 U1 O9 91.58(17) . .
O14 U1 O11 92.20(17) . .
O7 Si1 K1 145.88(15) . 2_666
O11 Si1 K1 41.80(15) 2_656 2_666
O11 Si1 O7 110.9(2) 2_656 .
O11 Si1 O12 112.7(2) 2_656 5_686
O11 Si1 O15 111.8(2) 2_656 .
O12 Si1 K1 104.43(15) 5_686 2_666
O12 Si1 O7 106.4(2) 5_686 .
O15 Si1 K1 75.91(18) . 2_666
O15 Si1 O7 108.8(2) . .
O15 Si1 O12 105.9(2) . 5_686
O13 Si2 O3 108.5(2) . .
O14 Si2 O3 110.6(2) . .
O14 Si2 O13 111.3(3) . .
O14 Si2 O15 113.4(3) . .
O15 Si2 O3 105.4(2) . .
O15 Si2 O13 107.3(3) . .
O4 Si3 K2 129.39(15) . 7_576
O5 Si3 K2 61.26(15) . 7_576
O5 Si3 O4 110.1(2) . .
O5 Si3 O12 108.7(2) . .
O9 Si3 K2 47.56(15) . 7_576
O9 Si3 O4 110.7(2) . .
O9 Si3 O5 108.7(2) . .
O9 Si3 O12 114.2(2) . .
O12 Si3 K2 126.05(15) . 7_576
O12 Si3 O4 104.3(2) . .
K1 Si4 K1 83.00(6) 2_656 .
O3 Si4 K1 52.60(14) 1_545 2_656
O3 Si4 K1 69.59(15) 1_545 .
O6 Si4 K1 120.07(16) . 2_656
O6 Si4 K1 43.90(15) . .
O6 Si4 O3 110.7(2) . 1_545
O6 Si4 O7 114.3(2) . .
O6 Si4 O13 110.8(2) . 5_686
O7 Si4 K1 50.55(14) . 2_656
O7 Si4 K1 109.58(15) . .
O7 Si4 O3 102.3(2) . 1_545
O13 Si4 K1 139.94(19) 5_686 .
O13 Si4 K1 129.12(19) 5_686 2_656
O13 Si4 O3 108.4(2) 5_686 1_545
O13 Si4 O7 109.8(2) 5_686 .
O1 Si5 K2 115.90(16) . 7_576
O1 Si5 O2 111.7(2) . .
O1 Si5 O5 116.1(2) . .
O1 Si5 O10 113.7(2) . .
O2 Si5 K2 46.14(14) . 7_576
O5 Si5 K2 58.85(15) . 7_576
O5 Si5 O2 102.3(2) . .
O5 Si5 O10 106.5(2) . .
O10 Si5 K2 129.35(16) . 7_576
O10 Si5 O2 105.3(2) . .
K1 Si6 K2 161.74(6) 7_576 7_586
K2 Si6 K1 69.28(5) . 7_576
K2 Si6 K2 96.70(5) . 7_586
O2 Si6 K1 136.60(15) 1_565 7_576
O2 Si6 K2 131.26(15) 1_565 .
O2 Si6 K2 45.53(14) 1_565 7_586
O4 Si6 K1 115.39(15) . 7_576
O4 Si6 K2 61.31(14) . .
O4 Si6 K2 63.84(14) . 7_586
O4 Si6 O2 107.5(2) . 1_565
O8 Si6 K1 48.84(14) . 7_576
O8 Si6 K2 47.86(14) . .
O8 Si6 K2 113.12(15) . 7_586
O8 Si6 O2 111.3(2) . 1_565
O8 Si6 O4 108.6(2) . .
O8 Si6 O10 110.6(2) . 4
O10 Si6 K1 62.67(15) 4 7_576
O10 Si6 K2 118.43(16) 4 .
O10 Si6 K2 135.59(16) 4 7_586
O10 Si6 O2 110.1(2) 4 1_565
O10 Si6 O4 108.5(2) 4 .
U1 O1 K1 92.36(12) 7_576 7_576
Si5 O1 K1 134.2(2) . 7_576
Si5 O1 U1 131.5(2) . 7_576
Si5 O2 K2 109.80(18) . 7_576
Si6 O2 K2 110.69(18) 1_545 7_576
Si6 O2 Si5 132.7(2) 1_545 .
Si2 O3 K1 121.54(18) . 2_666
Si4 O3 K1 102.10(17) 1_565 2_666
Si4 O3 Si2 133.6(2) 1_565 .
K2 O4 K2 114.62(11) . 7_586
Si3 O4 K2 97.08(16) . 7_586
Si3 O4 K2 127.75(19) . .
Si6 O4 K2 90.80(16) . 7_586
Si6 O4 K2 91.41(15) . .
Si6 O4 Si3 130.2(2) . .
Si3 O5 K2 92.90(17) . 7_576
Si5 O5 K2 96.07(17) . 7_576
Si5 O5 Si3 150.5(3) . .
K1 O6 K2 81.51(10) . 7_576
U1 O6 K1 107.64(14) . .
U1 O6 K2 90.69(12) . 7_576
Si4 O6 K1 113.45(19) . .
Si4 O6 K2 105.87(19) . 7_576
Si4 O6 U1 137.4(2) . .
Si1 O7 K1 118.01(18) . 2_656
Si1 O7 Si4 135.8(3) . .
Si4 O7 K1 104.43(18) . 2_656
K2 O8 K1 93.51(12) . 7_576
U1 O8 K1 98.68(13) 7_586 7_576
U1 O8 K2 113.24(14) 7_586 .
Si6 O8 K1 106.64(18) . 7_576
Si6 O8 K2 106.83(18) . .
Si6 O8 U1 130.6(2) . 7_586
U1 O9 K2 105.67(14) . 7_576
Si3 O9 K2 108.70(19) . 7_576
Si3 O9 U1 145.5(2) . .
Si5 O10 K1 103.26(18) . 6_575
Si5 O10 Si6 149.3(3) . 4_545
Si6 O10 K1 91.17(16) 4_545 6_575
U1 O11 K1 100.34(13) . 1_565
Si1 O11 K1 116.51(19) 2_656 1_565
Si1 O11 U1 141.7(2) 2_656 .
Si1 O12 Si3 136.9(3) 5_686 .
Si2 O13 Si4 176.6(4) . 5_686
U1 O14 K2 99.04(16) . 7_586
Si2 O14 K2 110.1(3) . 7_586
Si2 O14 U1 150.6(4) . .
Si2 O15 Si1 158.6(4) . .
loop_
_geom_bond_atom_site_label_1
_geom_bond_atom_site_label_2
_geom_bond_distance
_geom_bond_site_symmetry_2
K1 U1 3.9361(16) 1_545
K1 Si1 3.845(2) 2_646
K1 Si4 3.728(2) 2_656
K1 Si4 3.788(2) .
K1 Si6 3.665(2) 7_576
K1 O1 3.396(4) 7_576
K1 O3 3.029(4) 2_646
K1 O6 2.863(4) .
K1 O7 2.972(4) 2_656
K1 O8 2.880(4) 7_576
K1 O10 3.256(4) 6_576
K1 O11 2.864(4) 1_545
K2 Si3 3.713(2) 7_576
K2 Si5 3.788(2) 7_576
K2 Si6 3.555(2) .
K2 Si6 3.805(2) 7_586
K2 O2 2.903(4) 7_576
K2 O4 3.416(4) 7_586
K2 O4 3.119(4) .
K2 O5 3.260(4) 7_576
K2 O6 3.394(4) 7_576
K2 O8 2.754(4) .
K2 O9 2.893(4) 7_576
K2 O14 3.260(6) 7_586
U1 K1 3.9361(16) 1_565
U1 K2 4.1041(19) 7_576
U1 K2 4.2148(17) 7_586
U1 O1 2.259(4) 7_576
U1 O6 2.266(4) .
U1 O8 2.284(4) 7_586
U1 O9 2.232(4) .
U1 O11 2.235(4) .
U1 O14 2.207(4) .
Si1 K1 3.845(2) 2_666
Si1 O7 1.624(4) .
Si1 O11 1.588(4) 2_656
Si1 O12 1.623(4) 5_686
Si1 O15 1.601(4) .
Si2 O3 1.630(4) .
Si2 O13 1.597(4) .
Si2 O14 1.573(4) .
Si2 O15 1.591(4) .
Si3 K2 3.713(2) 7_576
Si3 O4 1.636(4) .
Si3 O5 1.621(4) .
Si3 O9 1.578(4) .
Si3 O12 1.623(4) .
Si4 K1 3.728(2) 2_656
Si4 O3 1.629(4) 1_545
Si4 O6 1.590(4) .
Si4 O7 1.628(4) .
Si4 O13 1.602(4) 5_686
Si5 K2 3.788(2) 7_576
Si5 O1 1.588(4) .
Si5 O2 1.642(4) .
Si5 O5 1.615(4) .
Si5 O10 1.616(4) .
Si6 K1 3.665(2) 7_576
Si6 K2 3.805(2) 7_586
Si6 O2 1.640(4) 1_565
Si6 O4 1.630(4) .
Si6 O8 1.588(4) .
Si6 O10 1.616(4) 4
O1 K1 3.396(4) 7_576
O1 U1 2.259(4) 7_576
O2 K2 2.903(4) 7_576
O2 Si6 1.640(4) 1_545
O3 K1 3.029(4) 2_666
O3 Si4 1.629(4) 1_565
O4 K2 3.416(4) 7_586
O5 K2 3.260(4) 7_576
O6 K2 3.394(4) 7_576
O7 K1 2.972(4) 2_656
O8 K1 2.880(4) 7_576
O8 U1 2.284(4) 7_586
O9 K2 2.893(4) 7_576
O10 K1 3.256(4) 6_575
O10 Si6 1.616(4) 4_545
O11 K1 2.864(4) 1_565
O11 Si1 1.588(4) 2_656
O12 Si1 1.623(4) 5_686
O13 Si4 1.602(4) 5_686
O14 K2 3.261(6) 7_586
