#------------------------------------------------------------------------------
#$Date: 2015-06-05 05:59:40 +0300 (Fri, 05 Jun 2015) $
#$Revision: 138151 $
#$URL: svn://www.crystallography.net/cod/cif/4/34/28/4342857.cif $
#------------------------------------------------------------------------------
#
# This file is available in the Crystallography Open Database (COD),
# http://www.crystallography.net/
#
# All data on this site have been placed in the public domain by the
# contributors.
#
data_4342857
loop_
_publ_author_name
'Morrison, Gregory'
'Ramanantoanina, Harry'
'Urland, Werner'
'Smith, Mark D.'
'Zur Loye, Hans-Conrad'
_publ_section_title
;
 Flux Synthesis, Structure, Properties, and Theoretical Magnetic Study of
 Uranium(IV)-Containing A2USi6O15 (A = K, Rb) with an Intriguing
 Green-to-Purple, Crystal-to-Crystal Structural Transition in the K
 Analogue.
;
_journal_issue                   11
_journal_name_full               'Inorganic chemistry'
_journal_page_first              5504
_journal_page_last               5511
_journal_paper_doi               10.1021/acs.inorgchem.5b00556
_journal_volume                  54
_journal_year                    2015
_chemical_formula_moiety         'O15 Rb2 Si6 U'
_chemical_formula_sum            'O15 Rb2 Si6 U'
_chemical_formula_weight         817.51
_space_group_crystal_system      monoclinic
_space_group_IT_number           15
_space_group_name_Hall           '-C 2yc'
_space_group_name_H-M_alt        'C 1 2/c 1'
_symmetry_space_group_name_Hall  '-C 2yc'
_symmetry_space_group_name_H-M   'C 1 2/c 1'
_atom_sites_solution_primary     direct
_audit_creation_date             2015-05-01
_audit_creation_method
;
Olex2 1.2
(compiled 2015.01.26 svn.r3150 for OlexSys, GUI svn.r4998)
;
_cell_angle_alpha                90
_cell_angle_beta                 96.8600(6)
_cell_angle_gamma                90
_cell_formula_units_Z            8
_cell_length_a                   24.3902(8)
_cell_length_b                   7.1650(2)
_cell_length_c                   17.2715(6)
_cell_measurement_reflns_used    6511
_cell_measurement_temperature    295(1)
_cell_measurement_theta_max      28.30
_cell_measurement_theta_min      2.74
_cell_volume                     2996.69(17)
_computing_cell_refinement       'SAINT+, 6.0; Bruker, 2000'
_computing_data_collection       'SMART, 5.625; Bruker, 2001'
_computing_data_reduction        'SAINT+, 6.0; Bruker, 2000'
_computing_molecular_graphics    'Olex2 (Dolomanov et al., 2009)'
_computing_publication_material  'Olex2 (Dolomanov et al., 2009)'
_computing_structure_refinement  'ShelXL (Sheldrick, 2008)'
_computing_structure_solution    'ShelXS (Sheldrick, 2008)'
_diffrn_ambient_temperature      295(1)
_diffrn_measured_fraction_theta_full 1.000
_diffrn_measured_fraction_theta_max 1.000
_diffrn_measurement_device_type  'Bruker P4'
_diffrn_measurement_method       '\w scans'
_diffrn_radiation_monochromator  graphite
_diffrn_radiation_type           MoK\a
_diffrn_radiation_wavelength     0.71073
_diffrn_reflns_av_R_equivalents  0.0309
_diffrn_reflns_av_unetI/netI     0.0208
_diffrn_reflns_laue_measured_fraction_full 1.000
_diffrn_reflns_laue_measured_fraction_max 1.000
_diffrn_reflns_limit_h_max       32
_diffrn_reflns_limit_h_min       -32
_diffrn_reflns_limit_k_max       9
_diffrn_reflns_limit_k_min       -9
_diffrn_reflns_limit_l_max       22
_diffrn_reflns_limit_l_min       -22
_diffrn_reflns_number            22618
_diffrn_reflns_point_group_measured_fraction_full 1.000
_diffrn_reflns_point_group_measured_fraction_max 1.000
_diffrn_reflns_theta_full        25.242
_diffrn_reflns_theta_max         28.299
_diffrn_reflns_theta_min         1.682
_exptl_absorpt_coefficient_mu    17.846
_exptl_absorpt_correction_T_max  1.0
_exptl_absorpt_correction_T_min  0.7126
_exptl_absorpt_correction_type   multi-scan
_exptl_absorpt_process_details
;
SADABS v.2.03 (Bruker,200?) was used for absorption correction.
R(int) was 0.0780 before and 0.0334 after correction.
The Ratio of minimum to maximum transmission is 0.7126.
The \l/2 correction factor is 0.0015.
;
_exptl_crystal_colour            green
_exptl_crystal_density_diffrn    3.624
_exptl_crystal_description       polyhedron
_exptl_crystal_F_000             2960
_exptl_crystal_size_max          0.16
_exptl_crystal_size_mid          0.14
_exptl_crystal_size_min          0.14
_refine_diff_density_max         1.573
_refine_diff_density_min         -1.372
_refine_diff_density_rms         0.204
_refine_ls_extinction_coef       0.000417(15)
_refine_ls_extinction_expression Fc^*^=kFc[1+0.001xFc^2^\l^3^/sin(2\q)]^-1/4^
_refine_ls_extinction_method     'SHELXL-2014/7 (Sheldrick 2014'
_refine_ls_goodness_of_fit_ref   1.088
_refine_ls_matrix_type           full
_refine_ls_number_parameters     218
_refine_ls_number_reflns         3715
_refine_ls_number_restraints     0
_refine_ls_restrained_S_all      1.088
_refine_ls_R_factor_all          0.0362
_refine_ls_R_factor_gt           0.0355
_refine_ls_shift/su_max          0.001
_refine_ls_shift/su_mean         0.000
_refine_ls_structure_factor_coef Fsqd
_refine_ls_weighting_details
'w=1/[\s^2^(Fo^2^)+165.0000P] where P=(Fo^2^+2Fc^2^)/3'
_refine_ls_weighting_scheme      calc
_refine_ls_wR_factor_gt          0.0748
_refine_ls_wR_factor_ref         0.0751
_reflns_Friedel_coverage         0.000
_reflns_number_gt                3663
_reflns_number_total             3715
_reflns_threshold_expression     'I > 2\s(I)'
_cod_data_source_file            ic5b00556_si_003.cif
_cod_data_source_block           mor1050a
_cod_depositor_comments
'Adding full bibliography for 4342855--4342857.cif.'
_cod_database_code               4342857
_shelx_space_group_comment
;
The symmetry employed for this shelxl refinement is uniquely defined
by the following loop, which should always be used as a source of
symmetry information in preference to the above space-group names.
They are only intended as comments.
;
_olex2_refinement_description
;
;
_shelx_res_file
;
    mor1050a.res created by SHELXL-2014/7

TITL MOR1050a in C2/c #15
REM reset to C2/c #15
CELL 0.71073 24.3902 7.165 17.2715 90 96.86 90
ZERR 8 0.0008 0.0002 0.0006 0 0.0006 0
LATT 7
SYMM -X,+Y,0.5-Z
SFAC Rb U Si O
UNIT 16 8 48 120

L.S. 16
PLAN  20
fmap 2 53
acta
REM <olex2.extras>
REM <HklSrc "%.\\MOR1050a.hkl">
REM </olex2.extras>

WGHT    0.000000  165.000000
EXTI    0.000417
FVAR       0.02890
RB1   1    0.393197    0.045165    1.247230    11.00000    0.04702    0.02865 =
         0.03108   -0.00347   -0.01167    0.01744
RB2   1    0.343744    1.017333    1.007624    11.00000    0.05238    0.02925 =
         0.02863   -0.00929   -0.01105    0.01374
U1    2    0.378291    0.533790    1.125599    11.00000    0.00719    0.00988 =
         0.00947   -0.00090    0.00109   -0.00129
SI1   3    0.422028    0.461353    0.836631    11.00000    0.00890    0.00900 =
         0.01130   -0.00042   -0.00084   -0.00049
SI2   3    0.495885    0.249999    1.074594    11.00000    0.01220    0.00683 =
         0.00511   -0.00108    0.00189   -0.00025
SI3   3    0.320889    0.526421    0.918244    11.00000    0.00780    0.00903 =
         0.00989    0.00019   -0.00103    0.00003
SI4   3    0.492965    0.833969    1.105032    11.00000    0.01045    0.00806 =
         0.00771   -0.00026    0.00076   -0.00036
SI5   3    0.248106    0.663108    1.177808    11.00000    0.00817    0.00865 =
         0.01046   -0.00026    0.00102    0.00130
SI6   3    0.262237    0.253826    1.147068    11.00000    0.01105    0.00815 =
         0.00606   -0.00055    0.00173   -0.00237
O1    4    0.324347    0.278002    1.129820    11.00000    0.00981    0.01693 =
         0.01937   -0.00109    0.00210   -0.00516
O2    4    0.229960    0.453746    1.144208    11.00000    0.01454    0.01020 =
         0.01807   -0.00549   -0.00123    0.00018
O3    4    0.507312    0.053706    1.120757    11.00000    0.02738    0.00701 =
         0.01589    0.00198   -0.00116   -0.00524
O4    4    0.269970    0.378689    0.920179    11.00000    0.01494    0.01222 =
         0.01195   -0.00292   -0.00048   -0.00601
O5    4    0.199564    0.795384    1.135905    11.00000    0.01466    0.01133 =
         0.02405    0.00693   -0.00315    0.00358
O6    4    0.432750    0.789670    1.125782    11.00000    0.01384    0.01588 =
         0.02712    0.00078    0.00274   -0.00228
O7    4    0.541543    0.728739    1.160891    11.00000    0.01487    0.01749 =
         0.01707    0.00063   -0.00121    0.00583
O8    4    0.309103    0.715633    1.162026    11.00000    0.01122    0.01609 =
         0.02463   -0.00098    0.00849   -0.00042
O9    4    0.342586    0.595123    1.003572    11.00000    0.02243    0.01594 =
         0.01155   -0.00359   -0.00151   -0.00246
O10   4    0.259916    0.154690    1.230884    11.00000    0.02936    0.01586 =
         0.01154    0.00122    0.00244    0.00164
O11   4    0.407824    0.468235    1.249997    11.00000    0.02532    0.02224 =
         0.01026   -0.00395   -0.00248   -0.00300
O12   4    0.366803    0.411488    0.876777    11.00000    0.01194    0.01561 =
         0.02618   -0.00204    0.00734    0.00031
O13   4    0.498563    0.786529    1.015743    11.00000    0.04980    0.02243 =
         0.00729   -0.00168    0.00800    0.00125
O14   4    0.436985    0.328609    1.085907    11.00000    0.01931    0.03194 =
         0.04570   -0.00084    0.00642    0.01205
O15   4    0.546082    0.380625    1.109212    11.00000    0.02995    0.02206 =
         0.02716   -0.00570   -0.00635   -0.01556
HKLF 4

REM  MOR1050a in C2/c #15
REM R1 =  0.0355 for    3663 Fo > 4sig(Fo)  and  0.0362 for all    3715 data
REM    218 parameters refined using      0 restraints

END

WGHT      0.0000     72.7926

REM Highest difference peak  1.573,  deepest hole -1.372,  1-sigma level  0.204
Q1    1   0.3765  0.6614  1.1262  11.00000  0.05    1.57
Q2    1   0.4181  0.0604  1.2387  11.00000  0.05    1.41
Q3    1   0.3386  1.1209  1.0041  11.00000  0.05    1.35
Q4    1   0.3601  0.4464  1.1220  11.00000  0.05    1.32
Q5    1   0.3783  0.5458  1.0774  11.00000  0.05    1.31
Q6    1   0.3992  0.4330  1.1347  11.00000  0.05    1.30
Q7    1   0.3621  1.0201  0.9798  11.00000  0.05    1.21
Q8    1   0.3801  0.5321  1.1727  11.00000  0.05    1.02
Q9    1   0.3942 -0.0438  1.2586  11.00000  0.05    1.00
Q10   1   0.4206  0.8646  1.1229  11.00000  0.05    0.86
Q11   1   0.3787  0.0959  1.2619  11.00000  0.05    0.83
Q12   1   0.2592  0.2178  1.2006  11.00000  0.05    0.78
Q13   1   0.3827 -0.0249  1.2380  11.00000  0.05    0.74
Q14   1   0.4112  0.7325  1.1066  11.00000  0.05    0.73
Q15   1   0.3781  0.7985  1.1202  11.00000  0.05    0.72
Q16   1   0.5003 -0.0456  1.1244  11.00000  0.05    0.71
Q17   1   0.3208  0.9763  0.9970  11.00000  0.05    0.69
Q18   1   0.3020  0.2765  1.1464  11.00000  0.05    0.69
Q19   1   0.3611  0.6807  1.0623  11.00000  0.05    0.66
Q20   1   0.3824  0.9543  1.1351  11.00000  0.05    0.65
;
_shelx_res_checksum              13347
_shelx_hkl_file
;
  -2   0   0    1.34    0.10
   2   0   0    1.06    0.11
  -2   0   0    1.22    0.11
   4   0   0  220.37    4.38
  -4   0   0  212.75    4.78
  -4   0   0  228.74    4.73
   4   0   0  228.46    4.55
   6   0   0    0.21    0.12
   6   0   0    0.35    0.08
   6   0   0    0.10    0.08
  -6   0   0    0.09    0.10
  -6   0   0   -0.03    0.08
  -8   0   0  450.07    9.73
   8   0   0  460.64    9.59
  -8   0   0  474.23    9.54
   8   0   0  445.80    8.75
 -10   0   0    8.65    0.51
 -10   0   0    7.55    0.56
  10   0   0    7.92    0.59
  10   0   0    9.43    0.55
  10   0   0    8.49    0.46
 -12   0   0    3.05    0.36
  12   0   0    3.73    0.50
 -12   0   0    2.83    0.42
  12   0   0    3.57    0.30
  12   0   0    4.10    0.34
  14   0   0   27.28    1.02
 -14   0   0   28.96    1.16
  14   0   0   28.10    1.36
 -14   0   0   29.32    1.35
  16   0   0  257.89    6.12
 -16   0   0  256.82    5.84
  16   0   0  238.04    5.27
 -16   0   0  240.79    6.17
  18   0   0   72.12    2.07
 -18   0   0   76.14    2.37
  18   0   0   74.54    2.71
 -18   0   0   72.64    2.67
 -20   0   0   26.80    1.28
  20   0   0   23.16    1.51
 -20   0   0   27.27    1.57
  20   0   0   25.93    1.07
 -22   0   0   19.84    1.10
 -22   0   0   19.74    1.40
  22   0   0   18.38    1.40
 -24   0   0   83.30    3.29
  24   0   0   81.61    3.29
  26   0   0   66.85    3.05
 -26   0   0   64.31    2.94
  28   0   0   19.67    1.65
 -28   0   0   17.29    1.52
 -30   0   0   13.69    1.36
  30   0   0   13.43    1.36
 -32   0   0   29.78    2.09
  32   0   0   30.41    2.12
   1  -1   0   68.21    1.53
   1  -1   0   66.59    1.60
   1  -1   0   66.56    1.58
   1  -1   0   68.41    1.51
  -1  -1   0   66.94    1.62
  -1  -1   0   67.97    1.62
  -1  -1   0   67.90    1.58
   1   1   0   65.97    1.62
   1   1   0   69.25    1.54
   3  -1   0   80.20    2.00
   3  -1   0   85.50    1.91
  -3  -1   0   87.44    2.02
   3  -1   0   83.95    1.89
   3  -1   0   82.87    1.80
  -3  -1   0   85.63    1.90
   3   1   0   80.45    2.06
   3   1   0   83.67    1.96
   3   1   0   82.32    1.93
   5  -1   0  130.17    3.27
  -5  -1   0  145.12    3.26
   5  -1   0  141.77    2.89
  -5  -1   0  148.37    3.18
   5   1   0  138.81    3.16
  -5   1   0  152.13    3.06
   5   1   0  130.00    3.32
  -5   1   0  147.81    3.15
   5   1   0  136.56    3.04
  -7  -1   0    1.01    0.20
   7  -1   0    0.77    0.20
   7  -1   0    0.91    0.15
  -7  -1   0    0.71    0.18
  -7   1   0    0.78    0.16
   7   1   0    0.89    0.22
   7   1   0    0.64    0.17
   7   1   0    0.76    0.23
  -7   1   0    0.87    0.13
  -7   1   0    0.42    0.18
  -9  -1   0   26.69    1.04
   9  -1   0   26.20    1.08
   9  -1   0   26.76    0.85
  -9  -1   0   27.68    1.03
  -9   1   0   26.86    0.95
   9   1   0   25.26    1.09
  -9   1   0   27.51    1.16
   9   1   0   25.26    1.13
  -9   1   0   28.47    0.97
   9   1   0   25.84    0.97
 -11  -1   0   58.02    1.80
  11  -1   0   53.76    1.83
  11  -1   0   59.22    1.53
 -11  -1   0   57.42    1.81
  11   1   0   53.63    1.64
  11   1   0   59.15    1.92
  11   1   0   54.39    1.96
 -11   1   0   58.02    1.67
 -11   1   0   56.57    1.96
  13  -1   0  195.04    4.82
 -13  -1   0  205.18    4.85
  13  -1   0  197.46    4.23
 -13  -1   0  202.05    4.91
  13   1   0  191.49    4.43
  13   1   0  204.78    5.16
 -13   1   0  197.66    5.10
 -13   1   0  203.35    4.66
  13   1   0  206.73    4.96
 -15  -1   0   96.74    2.82
  15  -1   0   97.36    2.99
 -15  -1   0   98.69    2.95
  15  -1   0   98.88    2.42
 -15   1   0  104.04    2.72
  15   1   0   99.02    3.06
  15   1   0   97.04    3.14
  15   1   0   91.88    2.58
 -15   1   0   96.79    3.10
 -17  -1   0   87.68    2.89
 -17  -1   0   90.72    2.78
  17  -1   0   92.14    2.36
  17  -1   0   91.62    3.02
 -17   1   0   92.17    3.12
  17   1   0   87.71    2.53
 -17   1   0   94.35    2.65
  17   1   0   92.02    3.05
 -19  -1   0  146.10    4.06
  19  -1   0  151.93    3.51
 -19  -1   0  146.48    4.29
  19  -1   0  146.71    4.34
  19   1   0  144.70    4.35
  19   1   0  142.79    3.68
 -19   1   0  155.95    3.94
 -19   1   0  146.74    4.48
 -21  -1   0  105.36    3.49
  21  -1   0  103.65    3.60
 -21  -1   0  105.63    3.26
  21   1   0   99.52    2.87
 -21   1   0  105.53    3.70
 -21   1   0  110.60    3.12
  21   1   0   99.19    3.55
  23  -1   0   58.62    2.67
 -23  -1   0   60.75    2.30
 -23  -1   0   58.80    2.57
  23   1   0   58.55    2.69
 -23   1   0   57.29    2.68
 -25  -1   0   52.88    2.16
 -25  -1   0   48.34    2.38
  25  -1   0   49.47    2.52
  25   1   0   50.68    2.57
 -25   1   0   49.90    2.57
 -27  -1   0    6.72    0.91
  27  -1   0    5.91    1.00
 -27   1   0    5.16    0.95
  27   1   0    5.41    0.93
  29  -1   0   59.78    3.04
 -29  -1   0   55.46    2.76
 -29   1   0   55.18    2.96
  29   1   0   58.72    2.98
  31  -1   0    0.89    0.34
 -31  -1   0    1.42    0.29
  31   1   0    0.87    0.21
 -31   1   0    1.19    0.43
   0  -2   0  377.50    7.21
   0  -2   0  362.52    7.62
   0   2   0  348.83    7.55
   0   2   0  349.54    7.16
  -2  -2   0    1.88    0.30
   2  -2   0    1.94    0.27
   2  -2   0    1.79    0.23
  -2  -2   0    1.90    0.18
  -2  -2   0    1.90    0.26
   2  -2   0    1.88    0.23
   2  -2   0    1.95    0.24
   2   2   0    1.95    0.26
   2   2   0    2.35    0.28
   4  -2   0  852.31   16.81
  -4  -2   0  757.30   16.59
  -4  -2   0  826.86   16.33
   4  -2   0  867.59   16.45
   4  -2   0  773.50   17.35
   4  -2   0  788.45   14.96
   4   2   0  788.99   15.48
   4   2   0  715.63   16.23
  -6  -2   0    2.73    0.33
   6  -2   0    2.73    0.26
   6  -2   0    2.78    0.33
   6  -2   0    2.56    0.27
   6  -2   0    2.21    0.31
  -6  -2   0    2.96    0.24
   6   2   0    2.90    0.37
   6   2   0    3.12    0.39
   6   2   0    3.15    0.41
  -8  -2   0  177.16    3.97
   8  -2   0  167.85    4.26
  -8  -2   0  174.08    4.22
   8  -2   0  171.19    3.72
   8  -2   0  177.11    4.02
   8   2   0  165.45    3.99
   8   2   0  172.22    4.13
   8   2   0  166.98    4.37
  -8   2   0  181.00    3.72
  -8   2   0  177.29    3.98
  10  -2   0    5.21    0.51
  10  -2   0    6.31    0.42
 -10  -2   0    5.50    0.44
 -10  -2   0    5.60    0.52
 -10   2   0    6.86    0.45
  10   2   0    6.11    0.54
  10   2   0    5.36    0.56
 -10   2   0    6.38    0.36
  10   2   0    5.49    0.55
 -10   2   0    5.79    0.58
 -12  -2   0  120.65    3.29
  12  -2   0  117.50    2.78
 -12  -2   0  117.22    3.11
  12  -2   0  109.63    3.16
 -12   2   0  118.33    3.48
 -12   2   0  122.68    3.05
  12   2   0  116.55    3.12
  12   2   0  114.12    3.52
 -12   2   0  125.16    2.99
  12   2   0  116.07    3.30
 -14  -2   0   30.56    1.40
  14  -2   0   30.88    1.11
  14  -2   0   29.82    1.42
 -14  -2   0   30.05    1.31
  14   2   0   31.08    1.57
 -14   2   0   31.44    1.21
 -14   2   0   30.81    1.56
 -14   2   0   33.33    1.26
  14   2   0   30.58    1.50
  14   2   0   30.16    1.32
 -16  -2   0    3.79    0.56
  16  -2   0    4.32    0.64
  16  -2   0    5.04    0.38
 -16  -2   0    4.27    0.54
  16   2   0    4.24    0.66
 -16   2   0    3.55    0.62
  16   2   0    3.88    0.47
 -16   2   0    4.87    0.40
  16   2   0    4.17    0.45
  18  -2   0   28.57    1.58
  18  -2   0   31.33    1.17
 -18  -2   0   30.32    1.50
 -18  -2   0   29.79    1.47
  18   2   0   29.39    1.67
 -18   2   0   27.79    1.65
 -18   2   0   32.64    1.30
  18   2   0   30.95    1.40
 -20  -2   0  118.46    3.62
 -20  -2   0  117.08    3.63
  20  -2   0  115.99    3.79
  20   2   0  117.32    3.34
 -20   2   0  117.41    4.02
  20   2   0  112.31    3.82
  22  -2   0   38.15    2.05
 -22  -2   0   37.87    1.86
 -22  -2   0   36.09    1.77
 -22   2   0   38.94    2.18
  22   2   0   37.09    2.07
  24  -2   0   24.70    1.71
 -24  -2   0   24.21    1.51
 -24  -2   0   25.18    1.47
  24   2   0   25.49    1.76
 -24   2   0   23.42    1.77
 -26  -2   0   20.49    1.43
  26  -2   0   16.00    1.47
 -26  -2   0   21.98    1.34
 -26   2   0   19.93    1.71
  26   2   0   20.86    1.60
 -28  -2   0   35.64    2.01
  28  -2   0   32.14    2.16
 -28   2   0   35.75    2.35
  28   2   0   35.63    2.20
  30  -2   0   38.95    2.45
 -30  -2   0   40.76    2.24
 -30   2   0   37.99    2.56
  30   2   0   42.34    2.44
  -1  -3   0   25.85    0.89
  -1  -3   0   24.92    1.07
  -1  -3   0   26.05    1.15
   1  -3   0   25.92    1.12
   1  -3   0   24.42    0.92
   1  -3   0   25.30    1.05
  -1   3   0   25.68    0.77
  -1   3   0   24.88    0.99
   1   3   0   27.84    1.01
   1   3   0   25.97    1.01
  -3  -3   0    1.67    0.31
   3  -3   0    1.33    0.25
   3  -3   0    1.85    0.26
   3  -3   0    1.85    0.33
  -3  -3   0    1.94    0.37
   3  -3   0    2.11    0.30
   3   3   0    1.71    0.30
   3   3   0    1.36    0.28
   5  -3   0   58.42    1.79
  -5  -3   0   62.97    1.64
   5  -3   0   62.78    1.86
  -5  -3   0   62.04    2.00
   5  -3   0   59.45    1.80
   5  -3   0   59.59    1.89
   5   3   0   61.51    2.05
   5   3   0   60.62    1.93
   5   3   0   62.50    2.04
   7  -3   0   18.31    0.91
   7  -3   0   18.48    0.84
   7  -3   0   17.73    0.95
   7  -3   0   17.57    0.86
  -7  -3   0   18.87    0.71
  -7  -3   0   19.19    1.01
   7   3   0   17.14    1.02
   7   3   0   19.91    1.04
   7   3   0   18.12    1.05
   9  -3   0  118.34    2.98
   9  -3   0  117.36    3.33
   9  -3   0  122.34    3.14
  -9  -3   0  121.16    3.33
  -9  -3   0  115.27    2.85
   9  -3   0  115.80    2.92
   9   3   0  114.18    3.25
   9   3   0  113.83    3.45
   9   3   0  110.24    3.21
 -11  -3   0    0.77    0.31
 -11  -3   0    1.45    0.21
  11  -3   0    2.31    0.31
  11  -3   0    0.76    0.30
  11   3   0    1.05    0.36
  11   3   0    0.82    0.33
 -11   3   0    1.16    0.39
  11   3   0    2.00    0.47
 -11   3   0    1.70    0.26
 -11   3   0    1.61    0.14
  13  -3   0   40.92    1.42
 -13  -3   0   40.52    1.46
 -13  -3   0   39.91    1.74
  13  -3   0   37.57    1.64
 -13   3   0   38.58    1.44
  13   3   0   37.63    1.73
 -13   3   0   41.95    1.30
  13   3   0   37.40    1.86
 -13   3   0   38.60    1.83
  13   3   0   37.62    1.69
  15  -3   0   67.93    2.03
  15  -3   0   67.50    2.46
 -15  -3   0   67.41    2.19
 -15  -3   0   68.67    2.49
  15   3   0   66.98    2.42
 -15   3   0   69.81    2.17
 -15   3   0   68.71    2.70
  15   3   0   63.82    2.49
  15   3   0   69.67    2.77
 -17  -3   0   91.54    2.83
  17  -3   0   86.22    3.03
  17  -3   0   91.43    2.53
 -17  -3   0   89.63    3.07
  17   3   0   87.28    2.93
 -17   3   0   94.49    2.72
  17   3   0   89.84    3.13
 -17   3   0   90.34    3.32
  17   3   0   89.59    3.39
 -19  -3   0   65.04    2.35
  19  -3   0   61.15    2.55
 -19  -3   0   64.06    2.54
  19   3   0   63.21    2.40
 -19   3   0   65.05    2.81
  19   3   0   62.55    2.62
 -21  -3   0   39.38    1.80
  21  -3   0   37.50    2.04
 -21  -3   0   39.51    1.96
  21   3   0   38.05    2.08
 -21   3   0   38.18    2.20
  21   3   0   39.07    1.81
  23  -3   0   30.11    1.91
 -23  -3   0   34.42    1.85
 -23  -3   0   34.87    1.75
  23   3   0   34.82    2.02
 -23   3   0   34.81    2.18
 -25  -3   0   38.57    1.94
  25  -3   0   35.41    2.16
 -25  -3   0   38.21    2.01
  25   3   0   37.47    2.20
 -25   3   0   38.47    2.42
  27  -3   0    1.94    0.57
 -27   3   0    1.96    0.71
  27   3   0    2.46    0.45
  29  -3   0   21.41    1.75
 -29   3   0   18.38    1.77
  29   3   0   18.07    1.41
   0  -4   0  384.95    8.51
   0  -4   0  384.84    8.21
   0  -4   0  385.31    8.21
   0   4   0  374.36    7.98
   0   4   0  363.48    8.11
   2  -4   0    0.44    0.08
  -2  -4   0    0.16    0.23
   2  -4   0    0.00    0.20
   2  -4   0    0.02    0.16
  -2  -4   0    0.25    0.22
   2   4   0   -0.22    0.12
  -2   4   0    0.19    0.13
  -2   4   0    0.27    0.21
   2   4   0    0.25    0.22
   4  -4   0  144.43    3.65
  -4  -4   0  149.96    4.02
   4  -4   0  144.69    3.76
  -4  -4   0  156.58    4.08
   4  -4   0  148.47    3.84
  -4  -4   0  145.79    3.52
   4  -4   0  148.89    3.81
   4   4   0  149.08    3.92
   4   4   0  147.24    3.80
   6  -4   0   11.39    0.80
   6  -4   0   12.17    0.76
  -6  -4   0   11.97    0.88
   6  -4   0   12.39    0.80
  -6  -4   0   12.41    0.60
   6  -4   0   13.51    0.81
   6   4   0   11.67    0.94
   6   4   0   13.26    0.87
   6   4   0   12.08    0.90
   8  -4   0   47.37    1.85
   8  -4   0   48.61    1.77
  -8  -4   0   48.38    1.48
   8  -4   0   45.94    1.75
  -8  -4   0   48.37    1.96
   8  -4   0   48.98    1.71
   8   4   0   50.24    2.05
   8   4   0   49.01    1.93
   8   4   0   49.97    2.07
  10  -4   0   14.76    0.97
  10  -4   0   16.04    0.86
  10  -4   0   15.79    0.93
 -10  -4   0   16.21    1.11
 -10  -4   0   15.70    0.71
  10   4   0   14.34    1.10
  10   4   0   16.27    1.08
  10   4   0   15.99    1.16
  12  -4   0    8.42    0.65
 -12  -4   0    8.79    0.52
  12  -4   0    7.74    0.73
 -12  -4   0    7.88    0.82
 -12   4   0    9.02    0.87
  12   4   0    7.46    0.85
  12   4   0    7.91    0.84
  12   4   0    8.43    0.79
 -12   4   0    8.47    0.61
 -12   4   0    8.92    0.40
 -14  -4   0    6.62    0.77
 -14  -4   0    7.53    0.52
  14  -4   0    5.75    0.73
  14  -4   0    8.36    0.64
  14   4   0    7.17    0.81
 -14   4   0    7.52    0.42
 -14   4   0    5.91    0.81
 -14   4   0    7.38    0.54
  14   4   0    7.16    0.86
  14   4   0    7.00    0.77
 -16  -4   0   37.39    1.48
 -16  -4   0   36.33    1.88
  16  -4   0   35.31    1.80
  16  -4   0   36.22    1.50
  16   4   0   36.52    2.04
  16   4   0   37.80    1.90
 -16   4   0   35.18    1.96
  16   4   0   36.40    1.88
  18  -4   0   24.28    1.54
  18  -4   0   25.08    1.19
 -18  -4   0   21.27    1.47
  18   4   0   24.43    1.51
  18   4   0   24.61    1.50
 -18   4   0   24.41    1.68
  18   4   0   24.85    1.67
 -20  -4   0   29.64    1.79
  20  -4   0   28.82    1.77
  20   4   0   31.03    1.75
 -20   4   0   31.27    2.00
  20   4   0   31.74    1.85
 -22  -4   0    7.45    0.86
  22  -4   0    9.03    1.11
  22   4   0    7.85    0.73
 -22   4   0    7.27    1.12
  22   4   0    6.96    0.79
 -24  -4   0   19.32    1.43
  24  -4   0   18.76    1.53
  24   4   0   21.17    1.54
 -24   4   0   17.29    1.63
  26  -4   0   32.26    2.12
 -26  -4   0   30.08    1.85
  26   4   0   32.10    1.97
 -26   4   0   32.93    2.36
 -28  -4   0    8.96    0.81
  28  -4   0    9.94    1.13
  28   4   0    9.64    0.85
 -28   4   0    9.71    1.37
  -1  -5   0    2.19    0.51
   1  -5   0    2.66    0.25
  -1  -5   0    1.44    0.39
   1  -5   0    1.84    0.47
  -1  -5   0    2.48    0.20
   1  -5   0    1.97    0.44
   1   5   0    1.56    0.36
   1   5   0    1.84    0.39
  -1   5   0    1.81    0.37
  -1   5   0    1.88    0.35
   3  -5   0    8.86    0.84
  -3  -5   0    8.20    0.78
  -3  -5   0    8.12    0.85
   3  -5   0    7.14    0.69
  -3  -5   0    8.57    0.46
   3  -5   0    9.30    0.61
   3   5   0    8.03    0.67
   3   5   0    7.19    0.70
  -3   5   0    7.53    0.49
  -3   5   0    7.59    0.69
   5  -5   0   18.79    1.17
  -5  -5   0   16.24    1.15
   5  -5   0   17.85    0.97
   5  -5   0   16.53    1.03
  -5   5   0   16.84    1.07
   5   5   0   17.11    1.11
  -5   5   0   17.11    0.58
   5   5   0   18.20    1.09
   7  -5   0    6.36    0.65
   7  -5   0    6.48    0.75
  -7  -5   0    6.36    0.74
   7  -5   0    6.41    0.59
   7  -5   0    5.39    0.56
   7   5   0    6.87    0.78
   7   5   0    6.00    0.84
   7   5   0    6.81    0.67
   9  -5   0   15.68    1.06
  -9  -5   0   16.05    1.19
   9  -5   0   18.32    1.13
   9  -5   0   16.65    0.99
   9   5   0   17.37    1.31
   9   5   0   18.24    1.18
   9   5   0   17.54    1.25
 -11  -5   0    0.70    0.42
  11  -5   0    1.40    0.25
  11  -5   0    0.67    0.35
  11  -5   0    1.07    0.33
 -11   5   0    0.77    0.36
  11   5   0    1.45    0.35
  11   5   0    0.45    0.41
  11   5   0    0.32    0.36
  13  -5   0   67.25    2.57
  13  -5   0   67.45    2.37
 -13  -5   0   69.81    2.80
  13   5   0   67.78    2.82
 -13   5   0   70.12    1.72
  13   5   0   66.10    2.87
  13   5   0   69.30    2.68
 -13   5   0   65.04    2.71
 -13   5   0   66.91    2.31
 -15  -5   0    6.53    0.91
  15  -5   0    6.34    0.82
  15  -5   0    8.17    0.70
  15   5   0    8.23    0.82
  15   5   0    7.84    0.92
 -15   5   0    6.32    0.90
  15   5   0    7.16    0.95
  17  -5   0   11.91    1.11
  17  -5   0   12.95    0.87
 -17  -5   0   11.57    1.15
  17   5   0   13.83    1.18
  17   5   0   13.87    1.26
  17   5   0   13.13    1.10
 -17   5   0   10.86    1.15
  19  -5   0   20.58    1.49
 -19  -5   0   20.46    1.56
 -19   5   0   21.68    1.66
  19   5   0   23.95    1.54
  19   5   0   23.51    1.71
  19   5   0   20.85    1.51
 -21  -5   0    8.41    1.03
  21  -5   0    9.10    1.02
 -21   5   0    8.98    1.21
  21   5   0   10.15    0.95
  21   5   0    8.62    0.81
 -23  -5   0    5.88    0.82
  23  -5   0    4.07    0.74
  23   5   0    5.64    0.60
  23   5   0    6.32    0.61
 -23   5   0    5.91    1.01
 -25  -5   0    5.11    0.60
  25  -5   0    4.16    0.78
 -25   5   0    3.69    0.80
  25   5   0    5.32    0.46
  27  -5   0    1.43    0.34
 -27   5   0    1.08    0.28
   0  -6   0   22.23    1.50
   0  -6   0   22.16    1.36
   0   6   0   23.09    1.28
   0   6   0   21.50    1.15
  -2  -6   0    3.04    0.66
   2  -6   0    3.50    0.59
  -2  -6   0    4.13    0.67
   2  -6   0    3.32    0.66
  -2   6   0    3.23    0.48
   2   6   0    2.91    0.54
   2   6   0    3.45    0.54
  -2   6   0    3.62    0.55
   4  -6   0   17.28    0.94
   4  -6   0   14.43    1.16
   4  -6   0   16.48    1.12
  -4  -6   0   15.68    1.20
  -4   6   0   15.97    1.09
   4   6   0   15.97    1.10
   4   6   0   17.45    1.11
  -4   6   0   15.60    0.81
   6  -6   0    1.21    0.45
   6  -6   0    1.05    0.33
  -6  -6   0    0.31    0.36
   6   6   0    0.59    0.43
  -6   6   0    0.51    0.36
  -6   6   0    0.63    0.20
   6   6   0    0.65    0.40
   6   6   0    1.37    0.30
  -8  -6   0    3.63    0.72
   8  -6   0    3.90    0.52
   8  -6   0    3.25    0.61
  -8   6   0    4.80    0.51
  -8   6   0    3.81    0.69
   8   6   0    3.70    0.78
   8   6   0    4.49    0.75
   8   6   0    5.37    0.57
 -10  -6   0    2.44    0.64
  10  -6   0    2.92    0.53
  10  -6   0    3.23    0.40
  10  -6   0    3.10    0.53
  10   6   0    4.19    0.45
  10   6   0    2.99    0.70
 -10   6   0    2.38    0.45
  10   6   0    2.55    0.65
  12  -6   0    1.24    0.33
  12  -6   0    1.09    0.37
 -12  -6   0    0.99    0.50
  12   6   0    0.22    0.38
  12   6   0    0.36    0.38
 -12   6   0    0.76    0.26
  14  -6   0    2.92    0.60
  14  -6   0    3.35    0.51
 -14  -6   0    1.98    0.62
  14   6   0    3.04    0.73
  14   6   0    2.76    0.62
  14   6   0    3.85    0.44
 -14   6   0    2.83    0.55
  16  -6   0    8.51    0.73
 -16  -6   0    6.83    1.02
  16  -6   0    6.59    0.87
  16   6   0    8.34    1.01
  16   6   0    9.09    1.10
 -16   6   0    8.27    0.92
  16   6   0    8.08    0.73
 -18  -6   0    0.38    0.44
  18  -6   0    1.18    0.41
  18   6   0    2.24    0.49
  18   6   0    2.40    0.53
 -18   6   0    1.72    0.47
  20  -6   0    4.19    0.74
 -20  -6   0    2.73    0.73
  20   6   0    4.41    0.39
  20   6   0    5.44    0.66
  20   6   0    3.73    0.64
 -20   6   0    4.09    0.70
  22  -6   0   17.30    1.48
 -22  -6   0   14.18    1.38
  22   6   0   18.85    1.48
 -22   6   0   16.86    1.47
 -24  -6   0    6.80    0.79
  24  -6   0    6.05    0.90
 -24   6   0    6.57    0.75
  -1  -7   0   -0.14    0.22
   1  -7   0    0.25    0.33
   1  -7   0    0.10    0.25
  -1  -7   0   -0.22    0.26
  -1   7   0    0.75    0.24
   1   7   0    0.72    0.17
  -1   7   0    0.17    0.28
   1   7   0   -0.12    0.27
  -3  -7   0    3.42    0.68
   3  -7   0    2.74    0.63
   3  -7   0    4.01    0.62
   3   7   0    4.65    0.53
  -3   7   0    3.88    0.59
  -3   7   0    3.75    0.52
   3   7   0    3.88    0.64
   3   7   0    3.26    0.75
  -5  -7   0    7.72    0.95
   5  -7   0    8.65    0.83
   5  -7   0    8.50    1.03
   5   7   0    8.91    0.79
   5   7   0    7.84    1.09
  -5   7   0    7.25    0.60
   5   7   0    7.75    0.87
  -5   7   0    8.34    0.84
   7  -7   0    3.86    0.57
   7  -7   0    3.40    0.67
  -7  -7   0    2.75    0.68
   7   7   0    3.60    0.70
   7   7   0    3.75    0.41
   7   7   0    2.87    0.73
  -7   7   0    2.67    0.58
  -7   7   0    2.84    0.31
   9  -7   0    8.13    0.75
   9  -7   0    8.34    0.87
  -9  -7   0    6.86    1.01
   9   7   0    7.49    0.98
   9   7   0    6.24    1.06
  -9   7   0    6.21    0.86
  -9   7   0    6.67    0.41
   9   7   0    8.04    0.69
  11  -7   0    1.59    0.39
 -11  -7   0    0.82    0.49
 -11   7   0    0.33    0.39
  11   7   0   -0.20    0.34
  11   7   0    0.26    0.36
  13  -7   0    4.05    0.62
 -13  -7   0    2.80    0.74
  13  -7   0    3.97    0.58
  13   7   0    2.28    0.61
  13   7   0    2.00    0.62
 -13   7   0    3.75    0.35
  15  -7   0    0.98    0.26
 -15  -7   0   -0.17    0.33
  15  -7   0    0.62    0.13
  15   7   0    0.90    0.35
  15   7   0    0.95    0.32
  17  -7   0    2.37    0.46
 -17  -7   0    0.99    0.56
  17   7   0    2.68    0.57
  17   7   0    2.68    0.59
 -17   7   0    2.91    0.21
 -19  -7   0    0.60    0.34
  19  -7   0    1.58    0.31
  19   7   0    1.97    0.22
  19   7   0    1.73    0.33
 -21  -7   0    1.27    0.35
   0  -8   0    0.79    0.28
   0   8   0    0.23    0.29
   2  -8   0    2.34    0.63
  -2  -8   0    2.83    0.64
   2  -8   0    3.40    0.61
  -2   8   0    2.84    0.52
   2   8   0    3.30    0.84
  -2   8   0    2.90    0.27
   2   8   0    2.35    0.56
   4  -8   0    5.85    0.70
  -4  -8   0    5.09    0.88
   4  -8   0    6.24    0.95
  -4   8   0    6.50    0.60
   4   8   0    6.53    1.07
  -4   8   0    5.47    0.58
   4   8   0    5.77    0.82
   6  -8   0    6.41    0.92
   6  -8   0    7.02    0.74
  -6  -8   0    5.03    0.86
  -6   8   0    6.42    0.66
   6   8   0    6.60    0.87
   6   8   0    5.30    0.96
  -6   8   0    6.64    0.55
   8  -8   0    1.48    0.34
  -8  -8   0    1.07    0.55
   8  -8   0    2.07    0.38
  -8   8   0    1.79    0.20
  -8   8   0    1.73    0.17
   8   8   0    1.20    0.47
   8   8   0    1.27    0.56
 -10  -8   0    8.29    1.15
  10  -8   0    7.88    0.86
  10   8   0    8.31    1.06
  10   8   0    7.27    1.13
 -10   8   0    8.72    0.49
 -10   8   0    7.62    0.73
  12  -8   0    4.69    0.68
 -12  -8   0    3.04    0.73
 -12   8   0    4.63    0.26
  12   8   0    3.88    0.77
 -12   8   0    5.20    0.55
  12   8   0    4.35    0.83
 -14  -8   0    0.85    0.30
  14   8   0    1.16    0.24
  14   8   0    0.60    0.23
 -16  -8   0    1.75    0.54
 -16   8   0    2.96    0.11
  16   8   0    1.78    0.36
  16   8   0    2.82    0.57
  -1  -9   0    0.61    0.14
  -1   9   0    0.73    0.38
  -1   9   0    0.66    0.20
   1   9   0    0.57    0.33
   1   9   0    0.79    0.30
   3  -9   0    4.77    0.57
  -3  -9   0    3.98    0.67
   3   9   0    4.68    0.93
  -3   9   0    5.44    0.54
   3   9   0    4.39    0.68
  -5  -9   0   11.02    1.16
   5  -9   0   10.15    0.97
   5  -9   0    8.97    1.11
   5   9   0    9.03    1.23
  -5   9   0    9.92    0.71
   5   9   0    7.62    0.83
  -7  -9   0    1.75    0.46
  -7   9   0    2.65    0.18
   7   9   0    2.47    0.64
   7   9   0    2.03    0.51
  -9  -9   0    2.55    0.60
   9  -9   0    3.99    0.44
  -9   9   0    3.54    0.20
   9   9   0    3.36    0.78
   9   9   0    2.96    0.58
  32   0  -1    0.54    0.25
 -32   0   1    0.73    0.17
 -30   0   1    1.21    0.34
  30   0  -1    0.68    0.28
 -28   0   1   -0.20    0.31
  28   0  -1    0.36    0.44
  26   0  -1    0.21    0.37
 -26   0   1    0.01    0.36
 -24   0   1    0.08    0.34
  24   0  -1    0.00    0.35
  22   0  -1   -0.12    0.28
 -22   0   1    0.95    0.21
 -22   0   1    0.19    0.34
 -20   0   1   -0.03    0.29
  20   0  -1   -0.02    0.35
 -20   0   1    0.56    0.19
  18   0  -1    0.13    0.31
 -18   0   1    0.40    0.20
 -18   0   1    0.04    0.25
 -16   0   1    0.15    0.16
 -16   0   1    0.14    0.24
  16   0  -1   -0.07    0.24
 -14   0   1    0.21    0.20
  14   0  -1    0.21    0.24
 -14   0   1    0.11    0.21
 -12   0   1   -0.02    0.13
  12   0  -1   -0.04    0.15
 -12   0   1    0.02    0.17
  10   0  -1    0.30    0.08
 -10   0   1    0.08    0.15
  10   0  -1   -0.01    0.16
 -10   0   1    0.06    0.14
   8   0  -1   -0.07    0.12
  -8   0   1    0.03    0.12
   8   0  -1    0.13    0.07
  -8   0   1    0.03    0.11
   6   0  -1    0.42    0.15
  -6   0   1    0.53    0.15
   6   0  -1    0.23    0.14
   4   0  -1   -0.02    0.06
   4   0  -1    0.05    0.08
  -4   0   1    0.10    0.08
   2   0  -1    0.10    0.04
   2   0  -1    0.07    0.03
  -2   0   1    0.02    0.03
   2   0   1    0.13    0.03
  -2   0  -1    0.09    0.02
   2   0   1    0.03    0.03
  -2   0  -1    0.09    0.05
   2   0   1    0.12    0.05
  -4   0  -1    0.09    0.08
  -4   0  -1    0.50    0.09
   4   0   1    0.20    0.06
   4   0   1    0.20    0.09
   4   0   1    0.09    0.08
   6   0   1   -0.03    0.10
  -6   0  -1    0.08    0.12
   6   0   1    0.05    0.12
   6   0   1    0.21    0.08
  -6   0  -1    0.01    0.09
   8   0   1    0.18    0.13
   8   0   1    0.05    0.15
  -8   0  -1    0.15    0.15
  -8   0  -1    0.13    0.10
  10   0   1   -0.10    0.10
  10   0   1    0.04    0.16
 -10   0  -1    0.15    0.13
 -10   0  -1    0.07    0.16
  12   0   1    0.27    0.12
 -12   0  -1   -0.06    0.15
  12   0   1   -0.04    0.17
 -12   0  -1    0.46    0.12
  14   0   1    0.28    0.09
  14   0   1    0.12    0.23
 -14   0  -1    0.02    0.19
 -14   0  -1    0.42    0.13
 -16   0  -1    0.56    0.15
 -16   0  -1   -0.05    0.22
  16   0   1    0.62    0.12
  16   0   1    0.42    0.32
 -18   0  -1   -0.11    0.27
  18   0   1    0.04    0.28
 -20   0  -1   -0.24    0.24
  20   0   1    0.17    0.32
  22   0   1   -0.04    0.35
 -22   0  -1   -0.21    0.30
 -24   0  -1    0.06    0.37
  24   0   1   -0.08    0.31
  26   0   1    0.10    0.34
 -26   0  -1    0.33    0.39
 -28   0  -1    0.14    0.34
  28   0   1    0.59    0.35
 -30   0  -1    0.81    0.32
 -31  -1   1    1.20    0.30
  31  -1  -1    1.13    0.49
  31   1  -1    1.06    0.32
 -31   1   1    0.64    0.30
 -29  -1   1    6.33    0.85
  29  -1  -1    5.70    0.96
 -29   1   1    6.94    1.10
  29   1  -1    5.40    0.92
 -27  -1   1    5.30    0.82
  27  -1  -1    5.68    0.95
 -27   1   1    4.81    0.91
  27   1  -1    5.23    0.90
  25  -1  -1    2.86    0.73
 -25  -1   1    4.85    0.50
 -25  -1   1    3.43    0.64
 -25   1   1    3.66    0.79
  25   1  -1    3.19    0.73
  23  -1  -1   -0.36    0.32
 -23  -1   1    0.58    0.17
 -23  -1   1    0.02    0.30
  23   1  -1    0.15    0.35
 -23   1   1    0.22    0.37
 -21  -1   1    4.56    0.54
 -21  -1   1    3.39    0.61
  21  -1  -1    3.87    0.73
 -21   1   1    4.96    0.46
 -21   1   1    3.85    0.72
  21   1  -1    3.33    0.71
 -19  -1   1    0.17    0.25
  19  -1  -1    0.27    0.33
 -19  -1   1    0.51    0.26
 -19   1   1    0.08    0.32
  19   1  -1   -0.22    0.24
 -19   1   1    0.76    0.18
 -17  -1   1    2.70    0.46
  17  -1  -1    2.20    0.50
  17  -1  -1    2.88    0.22
 -17  -1   1    1.67    0.41
 -17   1   1    1.94    0.49
  17   1  -1    2.08    0.51
  17   1  -1    2.77    0.27
 -17   1   1    2.66    0.37
 -15  -1   1    4.91    0.56
 -15  -1   1    4.90    0.55
  15  -1  -1    5.26    0.33
  15  -1  -1    4.95    0.64
  15   1  -1    5.09    0.53
  15   1  -1    5.45    0.41
 -15   1   1    4.66    0.64
 -15   1   1    4.95    0.45
  15   1  -1    4.57    0.63
  13  -1  -1   10.64    0.48
 -13  -1   1   10.28    0.72
 -13  -1   1    9.54    0.67
  13  -1  -1    8.63    0.72
 -13   1   1   10.70    0.66
  13   1  -1   10.26    0.75
  13   1  -1    8.70    0.75
 -13   1   1    9.76    0.79
  13   1  -1    9.56    0.55
 -11  -1   1    2.97    0.35
  11  -1  -1    2.59    0.41
  11  -1  -1    3.21    0.23
 -11  -1   1    3.31    0.39
  11   1  -1    3.64    0.50
  11   1  -1    3.33    0.32
  11   1  -1    3.31    0.38
 -11   1   1    3.22    0.46
 -11   1   1    3.25    0.36
 -11   1   1    3.89    0.33
   9  -1  -1    4.09    0.24
   9  -1  -1    4.15    0.43
  -9  -1   1    4.10    0.36
  -9  -1   1    4.11    0.39
   9  -1  -1    3.81    0.40
   9   1  -1    3.61    0.42
   9   1  -1    4.21    0.41
   9   1  -1    4.22    0.34
  -9   1   1    4.73    0.33
  -9   1   1    4.32    0.38
   7  -1  -1    7.87    0.54
  -7  -1   1    8.51    0.53
   7  -1  -1    8.07    0.51
  -7  -1   1    8.38    0.46
   7  -1  -1    8.39    0.36
   7   1  -1    8.76    0.59
  -7   1   1    9.06    0.43
   7   1  -1    8.27    0.47
  -7   1   1    9.18    0.51
   7   1  -1    8.11    0.57
  -5  -1   1   23.67    0.74
   5  -1  -1   22.67    0.81
  -5  -1   1   23.13    0.87
   5  -1  -1   22.61    0.90
   5  -1  -1   23.56    0.67
  -5   1   1   24.53    0.66
   5   1  -1   24.32    0.82
   5   1  -1   21.37    0.89
  -5   1   1   23.18    0.82
   5   1  -1   23.98    0.97
   3  -1  -1   11.41    0.43
  -3  -1   1   11.45    0.36
  -3  -1   1   11.34    0.50
  -3  -1   1   10.88    0.50
   3  -1  -1   11.05    0.45
   3  -1  -1   10.84    0.54
   3  -1  -1   10.79    0.47
   3   1  -1   10.39    0.53
   3   1  -1   10.04    0.55
   1  -1  -1    2.86    0.25
   1  -1  -1    2.78    0.23
   1  -1  -1    2.74    0.22
  -1  -1   1    3.33    0.25
  -1  -1   1    3.02    0.22
   1  -1  -1    2.90    0.17
   1   1  -1    3.19    0.25
   1   1  -1    2.98    0.23
  -1  -1  -1    1.05    0.14
   1  -1   1    0.84    0.10
   1  -1   1    0.85    0.13
  -1  -1  -1    1.01    0.13
   1  -1   1    0.82    0.12
  -1   1  -1    0.89    0.10
   1   1   1    0.87    0.12
   1   1   1    0.88    0.10
   1   1   1    0.95    0.15
   3  -1   1    2.04    0.13
   3  -1   1    2.04    0.19
  -3  -1  -1    1.93    0.20
  -3  -1  -1    2.25    0.19
   3  -1   1    1.85    0.20
   3   1   1    2.08    0.19
   3   1   1    1.71    0.21
  -3   1  -1    2.28    0.21
   3   1   1    2.14    0.23
   5  -1   1    0.50    0.15
  -5  -1  -1    0.44    0.14
   5  -1   1    0.49    0.13
  -5  -1  -1    0.11    0.10
   5   1   1    0.38    0.15
  -5   1  -1    0.39    0.09
   5   1   1    0.28    0.14
  -5   1  -1    0.47    0.15
   5   1   1    0.44    0.17
  -5   1  -1    0.39    0.10
   7  -1   1    4.04    0.32
  -7  -1  -1    4.15    0.35
  -7  -1  -1    4.24    0.36
   7  -1   1    4.46    0.38
  -7   1  -1    3.91    0.39
   7   1   1    4.13    0.41
   7   1   1    4.16    0.38
  -7   1  -1    4.74    0.31
  -7   1  -1    4.37    0.27
   7   1   1    4.37    0.39
  -9  -1  -1    0.14    0.13
   9  -1   1    0.03    0.12
   9  -1   1    0.21    0.11
  -9  -1  -1    0.09    0.13
  -9   1  -1    0.10    0.15
  -9   1  -1    0.34    0.09
   9   1   1    0.34    0.11
   9   1   1    0.37    0.16
   9   1   1    0.22    0.18
 -11  -1  -1   29.72    1.21
 -11  -1  -1   28.36    1.12
  11  -1   1   27.28    1.19
  11  -1   1   28.47    1.01
  11   1   1   27.00    1.10
  11   1   1   28.80    1.30
 -11   1  -1   28.10    0.96
 -11   1  -1   27.88    1.27
  11   1   1   29.81    1.26
 -13  -1  -1    2.30    0.40
  13  -1   1    2.71    0.44
 -13  -1  -1    2.65    0.38
  13  -1   1    3.67    0.33
  13   1   1    2.80    0.37
 -13   1  -1    2.98    0.47
  13   1   1    2.60    0.44
  13   1   1    2.89    0.34
 -13   1  -1    3.07    0.26
  15  -1   1   35.19    1.60
 -15  -1  -1   37.91    1.47
  15  -1   1   36.64    1.29
 -15  -1  -1   36.73    1.60
  15   1   1   35.63    1.62
  15   1   1   35.79    1.42
 -15   1  -1   39.57    1.31
 -15   1  -1   36.75    1.69
  15   1   1   41.02    1.73
  17  -1   1    8.93    0.57
 -17  -1  -1    9.34    0.69
  17  -1   1    8.61    0.82
 -17  -1  -1    8.09    0.78
 -17   1  -1    9.57    0.58
 -17   1  -1    8.37    0.83
  17   1   1    8.22    0.62
  17   1   1    8.47    0.84
 -19  -1  -1    2.05    0.50
  19  -1   1    2.18    0.54
  19  -1   1    3.48    0.31
 -19  -1  -1    2.99    0.43
 -19   1  -1    2.51    0.58
  19   1   1    2.41    0.58
  19   1   1    2.62    0.36
 -19   1  -1    3.02    0.26
  21  -1   1   17.75    1.35
 -21  -1  -1   19.92    1.12
 -21  -1  -1   17.85    1.27
  21   1   1   17.85    1.36
  21   1   1   19.71    1.05
 -21   1  -1   18.81    1.38
 -23  -1  -1   20.51    1.13
  23  -1   1   15.25    1.30
 -23  -1  -1   16.40    1.30
 -23   1  -1   17.05    1.39
  23   1   1   17.23    1.39
  25  -1   1    0.35    0.40
 -25  -1  -1    0.51    0.38
 -25   1  -1    0.25    0.45
  25   1   1    0.12    0.34
  27  -1   1    0.38    0.40
 -27  -1  -1    1.18    0.41
 -27   1  -1    0.50    0.46
  27   1   1    0.87    0.43
 -29  -1  -1   10.72    1.09
  29  -1   1   10.08    1.25
  29   1   1    9.17    1.07
 -29   1  -1    9.91    1.21
 -31  -1  -1    9.32    1.00
  31  -1   1   12.63    1.28
  31   1   1   10.94    1.02
 -31   1  -1   12.20    1.33
 -30  -2   1   20.94    1.52
  30  -2  -1   19.40    1.70
  30   2  -1   21.98    1.67
 -30   2   1   21.37    1.86
  28  -2  -1    0.63    0.47
 -28  -2   1    1.42    0.34
 -28   2   1    0.50    0.41
  28   2  -1    1.03    0.32
 -26  -2   1    6.88    0.76
  26  -2  -1    4.39    0.85
 -26  -2   1    7.28    0.68
  26   2  -1    6.35    0.97
 -26   2   1    6.97    1.09
 -24  -2   1    1.03    0.24
  24  -2  -1    0.05    0.38
 -24  -2   1    0.52    0.26
  24   2  -1    0.08    0.37
 -24   2   1    0.27    0.45
  22  -2  -1   31.27    1.85
 -22  -2   1   31.85    1.67
 -22  -2   1   32.96    1.69
  22   2  -1   30.31    1.89
 -22   2   1   31.70    1.96
  20  -2  -1    0.43    0.39
 -20  -2   1    0.90    0.37
 -20  -2   1    1.26    0.38
  20   2  -1    0.60    0.45
 -20   2   1    0.65    0.44
 -18  -2   1    2.15    0.43
  18  -2  -1    2.66    0.20
 -18  -2   1    1.62    0.44
  18  -2  -1    1.18    0.42
 -18   2   1    2.59    0.29
  18   2  -1    2.31    0.33
 -18   2   1    1.42    0.51
  18   2  -1    1.81    0.54
  16  -2  -1    2.35    0.20
  16  -2  -1    0.61    0.34
 -16  -2   1    1.18    0.32
 -16  -2   1    1.02    0.35
  16   2  -1    0.59    0.37
 -16   2   1    1.66    0.26
  16   2  -1    1.77    0.33
  16   2  -1    2.06    0.30
 -16   2   1    0.89    0.41
 -14  -2   1   69.34    2.18
 -14  -2   1   70.99    2.35
  14  -2  -1   64.57    2.29
  14  -2  -1   68.98    1.82
  14   2  -1   67.62    2.58
  14   2  -1   65.82    2.40
  14   2  -1   70.01    2.16
 -14   2   1   69.09    2.16
 -14   2   1   71.16    2.10
 -14   2   1   70.36    2.57
 -12  -2   1    2.41    0.35
 -12  -2   1    1.90    0.39
  12  -2  -1    1.99    0.39
  12  -2  -1    2.43    0.23
  12   2  -1    2.40    0.46
 -12   2   1    2.37    0.32
  12   2  -1    3.17    0.40
 -12   2   1    2.99    0.25
  12   2  -1    2.64    0.42
 -10  -2   1    9.44    0.55
  10  -2  -1   10.05    0.50
  10  -2  -1    8.48    0.69
 -10  -2   1    8.61    0.66
  10  -2  -1    8.93    0.65
  10   2  -1    8.37    0.70
 -10   2   1    9.55    0.60
 -10   2   1   10.49    0.47
  10   2  -1    9.22    0.65
  10   2  -1    9.78    0.75
  -8  -2   1  138.29    3.52
   8  -2  -1  138.71    3.63
  -8  -2   1  144.29    3.23
   8  -2  -1  138.12    3.04
   8  -2  -1  134.93    3.29
   8   2  -1  134.03    3.50
   8   2  -1  132.96    3.70
   8   2  -1  133.33    3.34
  -8   2   1  145.06    3.01
  -8   2   1  141.74    3.38
   6  -2  -1  126.70    2.82
  -6  -2   1  130.90    2.83
   6  -2  -1  127.85    2.96
   6  -2  -1  124.63    3.24
   6  -2  -1  123.29    3.01
   6   2  -1  120.13    3.31
   6   2  -1  125.90    3.19
  -4  -2   1   94.06    2.17
   4  -2  -1   99.22    2.33
   4  -2  -1   97.52    2.30
   4  -2  -1   97.44    2.57
   4  -2  -1   99.88    2.44
  -4  -2   1  100.95    2.50
   4   2  -1   95.18    2.62
   4   2  -1   95.02    2.50
  -2  -2   1    5.88    0.44
   2  -2  -1    6.06    0.42
   2  -2  -1    5.83    0.42
  -2  -2   1    6.17    0.41
   2  -2  -1    6.57    0.36
   2  -2  -1    5.27    0.38
  -2  -2   1    6.08    0.22
   2   2  -1    5.82    0.42
   2   2  -1    6.26    0.44
   0  -2  -1   94.83    2.42
   0  -2   1   97.19    2.17
   0  -2   1   97.74    2.35
   0  -2  -1   92.40    2.42
   0  -2   1   99.40    2.36
   0   2   1   95.99    2.22
   0   2  -1   93.25    2.21
   0   2   1   96.56    2.18
   0   2  -1   94.13    2.29
  -2  -2  -1   81.60    2.19
  -2  -2  -1   83.37    2.11
   2  -2   1   81.92    2.07
   2  -2   1   85.33    2.07
   2  -2   1   83.54    2.03
   2  -2   1   81.47    2.05
   2   2   1   84.24    2.13
   2   2   1   84.28    2.01
   2   2   1   85.74    2.22
   4  -2   1    7.02    0.46
   4  -2   1    7.27    0.39
  -4  -2  -1    6.82    0.39
   4  -2   1    6.90    0.45
  -4  -2  -1    7.21    0.49
  -4   2  -1    7.06    0.45
   4   2   1    7.15    0.46
   4   2   1    6.46    0.48
   4   2   1    7.58    0.54
   6  -2   1    0.74    0.19
   6  -2   1    0.71    0.13
  -6  -2  -1    0.63    0.15
  -6  -2  -1    0.77    0.22
   6  -2   1    0.65    0.20
   6   2   1    0.83    0.22
   6   2   1    0.75    0.24
  -6   2  -1    0.66    0.20
   6   2   1    0.71    0.22
   8  -2   1   61.15    1.70
  -8  -2  -1   61.77    1.92
   8  -2   1   60.63    1.85
  -8  -2  -1   61.18    1.76
  -8   2  -1   64.78    1.56
   8   2   1   57.46    2.03
  -8   2  -1   65.39    1.67
   8   2   1   59.33    1.92
  -8   2  -1   63.46    1.99
   8   2   1   62.91    1.89
  10  -2   1    2.64    0.30
 -10  -2  -1    3.17    0.43
  10  -2   1    3.08    0.43
 -10  -2  -1    2.94    0.34
  10   2   1    3.38    0.46
 -10   2  -1    3.23    0.25
  10   2   1    2.63    0.42
  10   2   1    2.75    0.42
 -10   2  -1    2.29    0.41
 -10   2  -1    3.36    0.26
 -12  -2  -1   13.12    0.83
  12  -2   1   11.44    0.80
 -12  -2  -1   12.26    0.75
  12  -2   1   12.29    0.66
 -12   2  -1   13.91    0.68
 -12   2  -1   13.32    0.63
  12   2   1   11.89    0.81
  12   2   1   13.15    0.92
 -12   2  -1   11.96    0.88
  12   2   1   12.61    0.85
  14  -2   1    0.62    0.15
 -14  -2  -1    0.44    0.27
  14  -2   1    0.55    0.30
 -14  -2  -1    0.75    0.27
 -14   2  -1    0.27    0.29
  14   2   1    0.92    0.24
  14   2   1    0.54    0.24
  14   2   1    0.81    0.31
 -16  -2  -1   31.41    1.48
 -16  -2  -1   33.02    1.52
  16  -2   1   32.02    1.58
  16  -2   1   33.92    1.27
  16   2   1   34.81    1.68
 -16   2  -1   33.74    1.71
 -16   2  -1   34.97    1.24
  16   2   1   31.95    1.70
  16   2   1   33.56    1.48
  18  -2   1    0.07    0.26
 -18  -2  -1    0.11    0.22
 -18  -2  -1    0.28    0.23
 -18   2  -1    0.12    0.30
  18   2   1    0.38    0.33
  18   2   1    0.34    0.17
 -20  -2  -1    5.73    0.73
  20  -2   1    4.96    0.77
  20  -2   1    5.80    0.44
 -20  -2  -1    4.90    0.57
 -20   2  -1    5.14    0.84
  20   2   1    5.11    0.53
  20   2   1    5.10    0.79
  22  -2   1    0.06    0.37
 -22  -2  -1    0.44    0.19
 -22  -2  -1    0.33    0.25
 -22   2  -1   -0.04    0.36
  22   2   1    0.18    0.23
 -24  -2  -1   22.10    1.33
 -24  -2  -1   21.61    1.43
  24  -2   1   20.48    1.55
  24   2   1   19.51    1.47
 -24   2  -1   21.84    1.67
 -26  -2  -1    1.49    0.39
  26  -2   1    0.48    0.40
 -26   2  -1    0.40    0.46
  26   2   1    1.31    0.37
  28  -2   1    5.60    0.93
 -28  -2  -1    5.80    0.71
  28   2   1    5.67    0.78
 -28   2  -1    4.60    0.95
 -30  -2  -1    2.41    0.46
  30  -2   1    2.30    0.65
  30   2   1    2.63    0.17
  29  -3  -1    6.23    0.96
 -29  -3   1    6.54    0.61
  29   3  -1    6.73    0.70
 -29   3   1    5.98    1.02
 -27  -3   1    3.85    0.36
  27  -3  -1    2.38    0.62
  27   3  -1    2.77    0.54
 -27   3   1    2.67    0.80
 -25  -3   1   66.29    2.68
  25  -3  -1   65.67    3.02
 -25  -3   1   65.06    2.80
 -25   3   1   69.02    3.32
  25   3  -1   66.27    3.07
 -23  -3   1    0.92    0.34
  23  -3  -1    0.32    0.36
 -23  -3   1    1.10    0.23
 -23   3   1    0.37    0.48
  23   3  -1    0.69    0.33
 -21  -3   1   26.04    1.38
  21  -3  -1   25.59    1.66
 -21  -3   1   25.88    1.58
  21   3  -1   26.52    1.39
 -21   3   1   26.15    1.81
  21   3  -1   28.05    1.77
  19  -3  -1   -0.22    0.23
 -19  -3   1   -0.03    0.26
 -19  -3   1    0.74    0.22
  19   3  -1    0.72    0.19
 -19   3   1   -0.04    0.35
  19   3  -1    0.12    0.35
  17  -3  -1   43.57    1.97
 -17  -3   1   42.69    1.94
 -17  -3   1   43.42    1.68
  17  -3  -1   44.64    1.50
 -17   3   1   46.50    1.74
  17   3  -1   42.05    2.15
  17   3  -1   42.54    1.83
  17   3  -1   41.78    2.03
 -17   3   1   44.70    2.20
 -15  -3   1    4.55    0.43
 -15  -3   1    4.04    0.61
  15  -3  -1    3.92    0.61
  15  -3  -1    5.41    0.41
  15   3  -1    5.44    0.57
  15   3  -1    5.68    0.78
 -15   3   1    5.00    0.76
  15   3  -1    5.60    0.65
 -15   3   1    4.55    0.44
 -13  -3   1    5.06    0.41
  13  -3  -1    5.26    0.42
 -13  -3   1    4.64    0.63
  13  -3  -1    4.58    0.60
 -13   3   1    5.95    0.36
 -13   3   1    5.32    0.49
  13   3  -1    4.97    0.70
  13   3  -1    5.69    0.65
  13   3  -1    5.31    0.69
 -11  -3   1    0.71    0.31
  11  -3  -1    1.12    0.20
  11  -3  -1    0.38    0.29
  11  -3  -1    0.35    0.25
 -11   3   1    0.69    0.20
  11   3  -1    0.38    0.25
  11   3  -1    0.16    0.27
  11   3  -1    0.69    0.34
  -9  -3   1   74.19    2.41
   9  -3  -1   72.12    2.15
   9  -3  -1   74.37    2.23
  -9  -3   1   73.02    1.90
   9  -3  -1   72.41    2.43
   9  -3  -1   75.62    2.08
   9   3  -1   76.14    2.48
   9   3  -1   73.69    2.59
   9   3  -1   72.81    2.39
   7  -3  -1    1.81    0.35
  -7  -3   1    1.76    0.36
   7  -3  -1    1.83    0.30
   7  -3  -1    2.33    0.35
  -7  -3   1    2.63    0.18
   7  -3  -1    2.13    0.32
   7   3  -1    1.95    0.40
   7   3  -1    2.24    0.40
   7   3  -1    2.00    0.41
  -5  -3   1    6.63    0.56
   5  -3  -1    6.30    0.52
   5  -3  -1    6.96    0.50
  -5  -3   1    7.27    0.32
   5  -3  -1    7.30    0.57
  -5  -3   1    7.37    0.65
   5  -3  -1    7.45    0.54
   5   3  -1    6.34    0.60
   5   3  -1    6.34    0.58
   3  -3  -1    0.91    0.24
   3  -3  -1    2.08    0.29
   3  -3  -1    1.10    0.26
  -3  -3   1    1.38    0.09
  -3  -3   1    0.76    0.24
   3  -3  -1    1.03    0.21
  -3  -3   1    0.70    0.26
   3   3  -1    1.05    0.27
   3   3  -1    1.34    0.29
  -1  -3   1   14.07    0.50
  -1  -3   1   13.20    0.73
   1  -3  -1   13.20    0.69
   1  -3  -1   13.79    0.75
  -1  -3   1   12.71    0.78
   1  -3  -1   14.25    0.82
  -1   3   1   12.97    0.65
  -1   3   1   13.96    0.52
   1   3  -1   14.14    0.75
   1   3  -1   13.63    0.69
   1  -3   1    7.53    0.58
   1  -3   1    7.53    0.40
  -1  -3  -1    7.44    0.56
  -1  -3  -1    7.51    0.62
   1  -3   1    7.88    0.53
  -1  -3  -1    7.27    0.48
   1   3   1    7.93    0.50
   1   3   1    8.25    0.50
  -1   3  -1    7.47    0.53
  -1   3  -1    7.48    0.39
  -3  -3  -1   72.97    2.04
   3  -3   1   74.78    2.05
   3  -3   1   71.36    2.09
   3  -3   1   71.41    1.97
   3  -3   1   72.89    2.04
  -3  -3  -1   72.86    2.21
   3   3   1   72.86    2.03
   3   3   1   73.00    2.26
   3   3   1   72.40    2.12
   5  -3   1    5.47    0.42
  -5  -3  -1    6.37    0.40
   5  -3   1    5.48    0.48
   5  -3   1    5.67    0.49
  -5  -3  -1    5.53    0.53
   5   3   1    6.14    0.50
   5   3   1    5.20    0.56
   5   3   1    5.77    0.54
   7  -3   1   33.74    1.32
   7  -3   1   33.29    1.14
  -7  -3  -1   32.04    1.10
   7  -3   1   31.50    1.23
  -7  -3  -1   33.27    1.40
   7   3   1   33.25    1.34
   7   3   1   31.35    1.41
  -7   3  -1   33.27    1.35
   7   3   1   31.89    1.43
  -9  -3  -1    0.11    0.22
  -9  -3  -1    0.21    0.07
   9  -3   1    0.40    0.09
   9  -3   1    0.13    0.20
   9  -3   1    0.21    0.16
   9   3   1    0.18    0.18
   9   3   1    0.01    0.20
   9   3   1    0.14    0.24
  -9   3  -1    0.29    0.23
  11  -3   1  113.23    3.16
  11  -3   1  109.03    2.85
 -11  -3  -1  107.16    2.91
 -11  -3  -1  114.33    3.29
  11   3   1  112.81    3.52
 -11   3  -1  110.82    2.63
 -11   3  -1  106.57    3.31
 -11   3  -1  109.74    2.82
  11   3   1  106.87    3.22
  11   3   1  111.33    3.17
  13  -3   1    0.73    0.21
 -13  -3  -1    0.22    0.26
 -13  -3  -1    0.28    0.16
  13  -3   1    0.14    0.25
  13   3   1    0.42    0.32
  13   3   1    0.70    0.24
  13   3   1    0.52    0.25
 -13   3  -1    0.45    0.35
 -15  -3  -1  111.92    3.48
  15  -3   1  112.60    3.00
  15  -3   1  109.11    3.41
 -15  -3  -1  115.45    3.27
  15   3   1  113.74    3.47
 -15   3  -1  114.30    3.70
  15   3   1  113.76    3.83
 -15   3  -1  121.00    3.08
  15   3   1  116.53    3.50
  17  -3   1   11.19    0.71
 -17  -3  -1   10.00    0.92
  17  -3   1    9.88    0.95
 -17  -3  -1   10.54    0.80
  17   3   1   10.43    0.93
  17   3   1   10.76    0.98
 -17   3  -1   10.71    1.04
  17   3   1   11.27    0.93
 -19  -3  -1  102.57    3.43
 -19  -3  -1  107.43    3.34
  19  -3   1  101.44    3.52
  19  -3   1  106.60    2.93
  19   3   1  101.67    3.53
 -19   3  -1  103.81    3.75
  19   3   1  104.50    3.37
 -21  -3  -1    5.26    0.71
 -21  -3  -1    6.72    0.68
  21  -3   1    6.56    0.90
  21   3   1    6.72    0.84
  21   3   1    6.76    0.66
 -21   3  -1    5.14    0.89
 -23  -3  -1   22.33    1.39
  23  -3   1   20.40    1.55
 -23  -3  -1   23.49    1.47
  23   3   1   21.62    1.33
 -23   3  -1   21.87    1.75
  23   3   1   22.02    1.54
 -25  -3  -1    8.27    0.76
  25  -3   1    6.18    1.02
 -25  -3  -1    7.91    0.78
 -25   3  -1    6.61    1.10
  25   3   1    6.56    0.73
 -27  -3  -1   25.33    1.53
 -27  -3  -1   25.60    1.60
  27  -3   1   22.63    1.80
  27   3   1   26.34    1.76
 -27   3  -1   22.77    1.90
  29  -3   1   11.17    1.34
  29   3   1   11.92    0.98
 -29   3  -1   11.06    1.44
  28  -4  -1    0.76    0.30
 -28   4   1    0.81    0.42
  26  -4  -1   35.46    2.21
 -26  -4   1   37.73    2.13
 -26   4   1   36.55    2.49
  26   4  -1   38.65    2.25
 -24  -4   1    2.15    0.46
  24  -4  -1    1.73    0.54
  24   4  -1    2.73    0.51
 -24   4   1    2.21    0.72
  22  -4  -1   34.41    2.00
 -22  -4   1   31.05    1.88
  22   4  -1   32.58    1.74
  22   4  -1   33.20    1.97
 -22   4   1   33.30    2.17
  20  -4  -1    1.42    0.50
 -20  -4   1    1.26    0.50
  20   4  -1    1.91    0.50
  20   4  -1    2.32    0.42
 -20   4   1    1.90    0.65
 -18  -4   1   90.95    3.34
  18  -4  -1   92.64    3.26
  18   4  -1   90.98    3.42
  18   4  -1   93.93    3.73
 -18   4   1   96.55    3.67
  18   4  -1   92.36    3.24
  16  -4  -1    5.41    0.45
  16  -4  -1    3.45    0.61
 -16  -4   1    2.64    0.60
  16   4  -1    4.06    0.64
  16   4  -1    5.17    0.74
  16   4  -1    3.82    0.67
 -16   4   1    4.97    0.42
 -16   4   1    2.72    0.65
  14  -4  -1   10.28    0.90
 -14  -4   1   10.31    0.96
  14  -4  -1   12.14    0.76
 -14   4   1   12.71    0.56
  14   4  -1   12.25    1.08
  14   4  -1   11.33    0.99
 -14   4   1   11.07    0.77
  14   4  -1   11.08    0.99
 -14   4   1   10.97    1.06
 -12  -4   1   36.57    1.75
  12  -4  -1   35.12    1.42
 -12  -4   1   34.74    1.19
  12  -4  -1   33.01    1.55
  12  -4  -1   34.26    1.74
 -12   4   1   34.09    1.46
  12   4  -1   36.16    1.76
 -12   4   1   36.26    0.97
  12   4  -1   35.59    1.88
  12   4  -1   31.64    1.66
  10  -4  -1  142.42    4.15
  10  -4  -1  144.46    3.66
 -10  -4   1  136.61    3.35
  10  -4  -1  141.85    3.80
  10  -4  -1  144.74    3.81
 -10  -4   1  148.54    4.18
  10   4  -1  144.03    4.12
  10   4  -1  144.74    4.13
  10   4  -1  145.49    4.35
  -8  -4   1   91.98    2.98
   8  -4  -1   93.88    2.72
   8  -4  -1   93.38    2.95
  -8  -4   1   93.67    2.32
   8  -4  -1   94.05    2.71
   8  -4  -1   92.70    2.74
   8   4  -1   93.40    3.09
   8   4  -1   95.48    3.05
   8   4  -1   94.27    3.00
  -6  -4   1   56.55    1.48
  -6  -4   1   59.05    2.13
   6  -4  -1   54.27    1.91
   6  -4  -1   58.57    1.99
   6  -4  -1   55.32    2.00
   6  -4  -1   54.48    1.83
  -6  -4   1   56.77    2.16
   6   4  -1   57.61    2.15
   6   4  -1   55.97    2.07
  -4  -4   1  165.22    3.66
   4  -4  -1  161.76    3.93
   4  -4  -1  172.23    4.29
  -4  -4   1  167.10    4.37
   4  -4  -1  163.44    4.25
   4  -4  -1  162.31    4.14
  -4  -4   1  170.79    4.41
   4   4  -1  167.89    4.23
   4   4  -1  167.41    4.36
  -2  -4   1  259.42    6.00
  -2  -4   1  251.50    5.87
  -2  -4   1  249.74    5.36
   2  -4  -1  253.82    5.92
   2  -4  -1  241.31    5.81
   2  -4  -1  247.07    5.76
   2   4  -1  241.30    5.65
  -2   4   1  246.13    5.36
   2   4  -1  249.92    5.84
  -2   4   1  247.51    5.50
   0  -4   1  147.79    3.83
   0  -4  -1  146.40    3.86
   0  -4  -1  144.42    3.68
   0  -4   1  142.38    3.81
   0  -4  -1  146.94    3.90
   0  -4   1  144.07    3.38
   0   4   1  142.36    3.53
   0   4  -1  149.09    3.60
   0   4   1  144.74    3.50
   0   4  -1  146.38    3.68
   2  -4   1   15.94    0.98
   2  -4   1   16.15    0.73
  -2  -4  -1   15.93    0.80
  -2  -4  -1   15.65    0.96
  -2  -4  -1   16.56    1.05
   2  -4   1   16.47    0.91
  -2   4  -1   14.41    0.87
   2   4   1   16.28    0.86
   2   4   1   16.73    0.85
  -2   4  -1   15.77    0.65
   4  -4   1  124.20    3.29
  -4  -4  -1  127.72    3.56
   4  -4   1  123.55    3.33
   4  -4   1  123.84    3.21
  -4  -4  -1  123.67    3.25
   4   4   1  124.77    3.40
   4   4   1  122.85    3.56
   4   4   1  123.20    3.27
   6  -4   1   23.18    1.05
  -6  -4  -1   23.17    0.98
  -6  -4  -1   23.44    1.26
   6  -4   1   22.39    1.13
   6  -4   1   24.06    1.19
   6   4   1   23.93    1.16
  -6   4  -1   23.56    1.13
   6   4   1   23.90    1.35
   6   4   1   23.43    1.24
   8  -4   1   25.18    1.08
   8  -4   1   24.91    1.22
   8  -4   1   24.56    1.23
  -8  -4  -1   24.54    0.99
  -8  -4  -1   25.83    1.36
   8   4   1   23.14    1.31
   8   4   1   24.05    1.39
   8   4   1   24.23    1.22
  -8   4  -1   24.15    1.24
 -10  -4  -1    3.02    0.54
  10  -4   1    3.26    0.48
  10  -4   1    3.20    0.32
 -10  -4  -1    4.32    0.34
  10  -4   1    2.61    0.49
 -10   4  -1    3.34    0.55
  10   4   1    4.20    0.52
  10   4   1    2.59    0.54
  10   4   1    3.07    0.59
 -12  -4  -1   33.53    1.68
 -12  -4  -1   31.66    1.27
  12  -4   1   34.01    1.62
  12  -4   1   32.01    1.41
  12   4   1   31.79    1.71
 -12   4  -1   32.91    1.30
  12   4   1   34.12    1.61
 -12   4  -1   34.79    1.06
 -12   4  -1   34.15    1.71
  12   4   1   33.26    1.79
  14  -4   1   11.92    0.98
 -14  -4  -1   12.57    0.75
  14  -4   1   11.79    0.80
 -14  -4  -1   11.73    1.02
 -14   4  -1   11.01    1.03
 -14   4  -1   13.45    0.72
  14   4   1   11.17    1.05
  14   4   1   13.35    0.99
  14   4   1   12.61    1.10
  16  -4   1   63.58    2.51
  16  -4   1   61.80    2.15
 -16  -4  -1   63.85    2.17
 -16  -4  -1   60.82    2.55
 -16   4  -1   61.60    2.64
  16   4   1   64.70    2.50
  16   4   1   60.71    2.74
  16   4   1   63.12    2.59
  18  -4   1    1.04    0.19
  18  -4   1    0.29    0.36
 -18  -4  -1    0.09    0.36
  18   4   1    0.98    0.22
  18   4   1    1.36    0.31
 -18   4  -1    0.41    0.41
  18   4   1    0.91    0.29
 -20  -4  -1   51.94    2.40
  20  -4   1   49.30    2.38
 -20   4  -1   47.92    2.52
  20   4   1   50.10    2.33
  20   4   1   50.59    2.35
 -22  -4  -1    0.64    0.24
  22  -4   1    1.13    0.47
  22   4   1    0.85    0.17
 -22   4  -1    0.00    0.38
 -24  -4  -1   19.67    1.44
  24  -4   1   17.74    1.51
  24   4   1   20.88    1.44
 -24   4  -1   19.57    1.73
  26  -4   1    1.04    0.36
 -26   4  -1   -0.18    0.37
  28  -4   1   23.00    1.82
 -28  -4  -1   23.08    1.52
  28   4   1   24.29    1.61
 -28   4  -1   22.91    1.95
  27  -5  -1    1.92    0.46
 -27   5   1    1.70    0.41
  25  -5  -1   36.82    2.27
 -25  -5   1   32.92    2.09
  25   5  -1   35.09    2.11
 -25   5   1   35.81    2.42
 -23  -5   1    4.56    0.79
  23  -5  -1    4.87    0.80
  23   5  -1    5.47    0.61
 -23   5   1    5.70    1.01
  21  -5  -1  103.96    3.78
 -21  -5   1   93.99    3.76
  21   5  -1  100.99    3.71
  21   5  -1   96.72    3.76
 -21   5   1   96.04    4.04
  19  -5  -1    0.46    0.34
 -19  -5   1    0.36    0.40
  19   5  -1    1.44    0.32
  19   5  -1    1.48    0.33
 -19   5   1    0.44    0.47
  19   5  -1    1.65    0.33
  17  -5  -1   19.20    1.08
 -17  -5   1   18.72    1.47
  17  -5  -1   17.63    1.30
  17   5  -1   18.73    1.38
 -17   5   1   19.39    1.53
  17   5  -1   18.94    1.39
  17   5  -1   19.72    1.54
  15  -5  -1    6.17    0.81
  15  -5  -1    7.74    0.65
 -15  -5   1    5.98    0.89
  15   5  -1    7.03    0.86
 -15   5   1    6.63    0.94
  15   5  -1    6.54    0.86
 -15   5   1    7.32    0.59
  15   5  -1    7.15    0.95
 -13  -5   1   72.39    2.90
  13  -5  -1   67.27    2.57
  13  -5  -1   72.39    2.45
  13   5  -1   77.16    3.09
 -13   5   1   69.17    2.85
  13   5  -1   73.24    2.90
 -13   5   1   72.22    1.71
 -13   5   1   70.29    2.48
  13   5  -1   71.65    2.80
 -11  -5   1    0.04    0.30
  11  -5  -1    0.67    0.21
  11  -5  -1    0.48    0.25
  11  -5  -1   -0.05    0.25
  11  -5  -1    0.55    0.17
  11   5  -1    0.33    0.36
  11   5  -1    0.33    0.34
  11   5  -1    0.54    0.28
   9  -5  -1    1.84    0.41
   9  -5  -1    1.29    0.32
   9  -5  -1    1.88    0.38
   9  -5  -1    1.40    0.39
  -9  -5   1    1.05    0.42
   9   5  -1    1.16    0.49
   9   5  -1    1.62    0.42
   9   5  -1    1.15    0.46
   7  -5  -1   10.43    0.82
   7  -5  -1   10.26    0.86
   7  -5  -1   10.32    0.79
  -7  -5   1    9.79    0.90
   7  -5  -1   10.21    0.80
   7   5  -1    9.30    0.90
   7   5  -1   10.28    0.87
   7   5  -1    9.18    0.94
  -5  -5   1  107.03    3.46
  -5  -5   1  109.15    3.37
   5  -5  -1  102.41    3.11
   5  -5  -1  102.31    3.20
   5  -5  -1  100.31    3.13
   5   5  -1  103.96    3.28
   5   5  -1  101.28    3.19
  -5   5   1  106.00    3.05
   3  -5  -1    1.28    0.37
  -3  -5   1    1.37    0.41
   3  -5  -1    1.53    0.44
   3  -5  -1    2.17    0.26
  -3  -5   1    1.73    0.51
   3   5  -1    1.98    0.43
  -3   5   1    1.56    0.27
  -3   5   1    1.73    0.37
   3   5  -1    1.59    0.40
   1  -5  -1   15.21    0.82
  -1  -5   1   14.93    1.10
  -1  -5   1   14.04    0.97
   1  -5  -1   14.24    1.07
  -1  -5   1   14.44    0.61
   1  -5  -1   12.77    0.94
  -1   5   1   12.63    0.73
   1   5  -1   13.61    0.93
  -1   5   1   13.20    0.85
   1   5  -1   13.19    0.87
   1  -5   1    0.02    0.26
  -1  -5  -1    0.46    0.33
   1  -5   1    0.54    0.28
  -1  -5  -1    0.36    0.28
  -1   5  -1    0.44    0.24
  -1   5  -1    0.22    0.27
   1   5   1    0.36    0.26
   1   5   1    0.38    0.23
   3  -5   1   74.46    2.50
   3  -5   1   74.18    2.22
  -3  -5  -1   74.33    2.24
   3  -5   1   75.36    2.63
  -3  -5  -1   78.37    2.70
   3   5   1   76.85    2.78
   3   5   1   75.00    2.41
  -3   5  -1   75.37    2.50
  -3   5  -1   74.61    2.04
   3   5   1   81.39    2.51
   5  -5   1    0.21    0.19
   5  -5   1    0.07    0.26
  -5  -5  -1    0.54    0.34
   5   5   1    0.97    0.20
   5   5   1    0.09    0.26
  -5   5  -1    0.13    0.14
  -5   5  -1    0.61    0.16
  -5   5  -1   -0.13    0.26
   5   5   1    0.32    0.33
   7  -5   1   27.94    1.42
   7  -5   1   29.07    1.47
  -7  -5  -1   30.49    1.61
   7  -5   1   27.36    1.29
   7   5   1   27.27    1.63
   7   5   1   30.90    1.57
  -7   5  -1   28.19    1.37
   7   5   1   29.49    1.45
  -9  -5  -1    0.04    0.28
   9  -5   1    0.58    0.17
   9  -5   1    0.27    0.31
   9  -5   1    0.33    0.31
   9   5   1    1.35    0.27
  -9   5  -1    0.33    0.24
   9   5   1    0.23    0.33
   9   5   1   -0.03    0.28
  11  -5   1  215.16    5.28
  11  -5   1  210.65    5.29
 -11  -5  -1  214.39    5.90
  11  -5   1  214.24    5.51
 -11   5  -1  212.11    5.76
  11   5   1  213.13    5.56
  11   5   1  213.09    5.83
  11   5   1  215.04    5.97
  13  -5   1    0.01    0.29
 -13  -5  -1    0.10    0.33
  13  -5   1    0.72    0.17
  13   5   1   -0.08    0.32
 -13   5  -1    0.22    0.30
  13   5   1   -0.13    0.23
  15  -5   1  154.19    4.60
 -15  -5  -1  158.32    4.91
  15  -5   1  157.66    4.26
 -15   5  -1  147.82    4.78
  15   5   1  153.68    4.85
  15   5   1  160.99    4.67
  15   5   1  159.49    5.13
 -17  -5  -1    0.67    0.44
  17  -5   1    0.37    0.33
  17  -5   1    0.81    0.16
  17   5   1    1.18    0.35
  17   5   1    1.24    0.34
  17   5   1    0.76    0.20
 -17   5  -1    0.70    0.39
  19  -5   1  114.98    4.00
 -19  -5  -1  109.26    4.04
 -19   5  -1  112.99    4.23
  19   5   1  119.32    4.54
  19   5   1  117.00    4.14
  19   5   1  113.49    3.90
  21  -5   1    7.85    1.02
 -21  -5  -1    8.20    0.98
  21   5   1    7.80    0.84
  21   5   1    8.58    0.75
 -21   5  -1    7.55    1.09
  23  -5   1   40.64    2.31
 -23  -5  -1   39.39    2.22
 -23   5  -1   40.35    2.49
  23   5   1   43.18    2.31
  23   5   1   39.98    2.13
 -25  -5  -1   22.87    1.62
  25  -5   1   20.39    1.65
 -25   5  -1   23.06    1.89
 -27  -5  -1   15.79    1.23
  27  -5   1   14.21    1.38
 -27   5  -1   14.51    1.46
 -24  -6   1    5.11    0.80
  24  -6  -1    4.90    0.77
 -24   6   1    5.00    0.59
 -22  -6   1   40.01    2.42
  22  -6  -1   40.58    2.34
  22   6  -1   44.15    2.30
 -22   6   1   43.47    2.58
  22   6  -1   45.91    2.45
  20  -6  -1    5.57    0.82
 -20  -6   1    3.74    0.81
  20   6  -1    7.01    0.74
  20   6  -1    6.64    0.74
  20   6  -1    5.68    0.50
 -20   6   1    3.97    0.72
 -18  -6   1   51.69    2.68
  18  -6  -1   50.51    2.46
  18   6  -1   55.81    2.94
 -18   6   1   51.73    2.68
  18   6  -1   54.28    2.60
  18   6  -1   55.35    2.72
  16  -6  -1    6.57    0.60
 -16  -6   1    5.74    0.95
  16  -6  -1    5.14    0.75
  16   6  -1    5.64    0.58
 -16   6   1    6.46    0.80
  16   6  -1    6.47    0.95
  16   6  -1    6.77    0.92
  14  -6  -1   62.00    2.40
 -14  -6   1   55.71    2.71
  14  -6  -1   59.61    2.50
  14   6  -1   61.35    2.89
 -14   6   1   59.49    2.69
  14   6  -1   58.07    2.60
  14   6  -1   61.67    2.84
  12  -6  -1   34.45    1.71
  12  -6  -1   33.65    1.64
 -12  -6   1   33.71    1.97
  12  -6  -1   32.41    1.70
 -12   6   1   32.71    1.82
  12   6  -1   33.95    1.88
  12   6  -1   33.72    2.02
  12   6  -1   35.08    2.04
  10  -6  -1  114.47    3.58
  10  -6  -1  111.96    3.48
  10  -6  -1  108.49    3.49
  10  -6  -1  111.63    3.68
 -10  -6   1  109.29    3.86
  10   6  -1  111.08    3.76
  10   6  -1  110.28    3.90
  10   6  -1  109.87    3.94
   8  -6  -1   56.79    2.29
  -8  -6   1   58.97    2.59
   8  -6  -1   58.24    2.38
   8  -6  -1   55.24    2.26
   8   6  -1   56.11    2.59
   8   6  -1   60.53    2.46
   8   6  -1   60.13    2.56
  -6  -6   1  100.00    3.48
   6  -6  -1   98.52    3.34
   6  -6  -1   94.15    3.19
   6  -6  -1  100.37    3.17
  -6   6   1   98.62    3.13
   6   6  -1  100.12    3.33
   6   6  -1   99.15    3.35
  -6   6   1   95.51    2.34
   4  -6  -1  186.73    4.91
   4  -6  -1  187.99    5.18
  -4  -6   1  187.80    5.38
  -4  -6   1  189.71    5.32
   4  -6  -1  188.25    5.16
  -4   6   1  184.80    4.82
  -4   6   1  183.19    4.34
   4   6  -1  188.07    5.03
   4   6  -1  184.33    5.08
   2  -6  -1  147.73    4.45
   2  -6  -1  152.38    4.39
   2  -6  -1  151.15    4.00
  -2  -6   1  145.22    4.39
  -2  -6   1  146.03    4.51
  -2   6   1  146.82    4.03
  -2   6   1  146.51    3.74
   2   6  -1  147.66    4.18
   2   6  -1  145.51    4.15
   0  -6  -1   83.89    3.11
   0  -6  -1   85.17    3.03
   0  -6   1   86.79    3.17
   0  -6   1   86.13    2.98
   0   6  -1   83.38    2.68
   0   6   1   87.47    2.62
   0   6   1   85.04    2.75
   0   6  -1   84.03    2.84
   2  -6   1   22.00    1.31
   2  -6   1   23.44    1.49
  -2  -6  -1   21.21    1.37
  -2   6  -1   22.24    1.11
   2   6   1   22.09    1.22
   2   6   1   22.22    1.22
  -2   6  -1   22.78    1.33
  -4  -6  -1   40.43    2.01
   4  -6   1   41.22    1.98
   4  -6   1   38.52    1.78
  -4   6  -1   37.90    1.40
  -4   6  -1   39.71    1.84
   4   6   1   40.43    1.81
   4   6   1   42.67    1.81
   4   6   1   39.42    2.07
  -6  -6  -1   22.64    1.48
   6  -6   1   20.61    1.37
   6  -6   1   22.03    1.25
   6   6   1   20.11    1.31
  -6   6  -1   21.84    1.13
  -6   6  -1   22.17    1.37
   6   6   1   21.62    1.54
   6   6   1   22.34    1.27
  -6   6  -1   20.82    0.86
   8  -6   1   55.99    2.19
   8  -6   1   59.50    2.41
  -8  -6  -1   55.75    2.53
   8   6   1   61.91    2.39
   8   6   1   60.43    2.71
  -8   6  -1   58.67    2.41
   8   6   1   58.35    2.46
  -8   6  -1   57.53    2.21
  -8   6  -1   57.45    1.56
  10  -6   1    7.15    0.81
  10  -6   1    8.43    0.68
  10  -6   1    9.07    0.84
 -10  -6  -1    7.80    0.95
  10   6   1    8.06    1.01
  10   6   1    9.58    1.13
 -10   6  -1    8.34    0.74
  10   6   1   10.29    0.78
  12  -6   1   62.18    2.57
  12  -6   1   63.87    2.50
 -12  -6  -1   62.51    2.82
 -12   6  -1   63.16    2.58
  12   6   1   63.95    2.84
  12   6   1   63.01    2.52
  12   6   1   62.33    2.87
 -14  -6  -1    5.34    0.91
  14  -6   1    6.21    0.66
  14  -6   1    5.93    0.85
  14   6   1    5.23    0.95
  14   6   1    7.18    0.96
  14   6   1    6.23    0.59
 -14   6  -1    6.52    0.73
  16  -6   1   52.17    2.22
  16  -6   1   50.29    2.42
 -16  -6  -1   45.49    2.49
 -16   6  -1   51.65    2.49
  16   6   1   55.20    2.76
  16   6   1   46.95    2.57
  18  -6   1    2.97    0.64
 -18  -6  -1    2.81    0.73
  18  -6   1    4.57    0.42
 -18   6  -1    2.78    0.56
  18   6   1    3.69    0.68
  18   6   1    3.29    0.69
 -20  -6  -1   24.12    1.79
  20  -6   1   28.83    1.87
  20   6   1   24.43    1.78
 -20   6  -1   25.91    1.83
  20   6   1   30.44    2.08
  22  -6   1    1.61    0.40
 -22  -6  -1    1.25    0.33
 -22   6  -1    1.41    0.14
  22   6   1    1.17    0.21
  24  -6   1   36.21    2.30
 -24  -6  -1   37.32    2.23
 -24   6  -1   38.39    2.36
  24   6   1   36.15    2.21
 -21  -7   1   34.29    2.30
  21  -7  -1   38.44    2.25
 -21   7   1   35.77    2.23
  21   7  -1   37.07    2.31
 -19  -7   1    7.90    1.11
  19  -7  -1    6.65    0.76
 -19   7   1    8.72    0.79
  19   7  -1    8.59    0.94
  19   7  -1    8.21    0.91
  17  -7  -1   80.72    3.30
 -17  -7   1   77.40    3.58
  17   7  -1   87.20    3.71
 -17   7   1   77.09    3.38
  17   7  -1   89.85    3.92
  15  -7  -1    9.63    0.84
 -15  -7   1    7.74    1.13
  15  -7  -1    8.23    0.84
  15   7  -1    8.90    1.12
 -15   7   1    7.34    0.73
  15   7  -1    8.52    1.10
  15   7  -1    9.50    0.77
  13  -7  -1    4.35    0.62
 -13  -7   1    3.57    0.79
  13  -7  -1    4.97    0.65
  13   7  -1    4.57    0.82
 -13   7   1    4.70    0.50
  13   7  -1    4.17    0.40
  13   7  -1    4.25    0.83
  11  -7  -1   12.65    1.07
  11  -7  -1   12.11    0.96
 -11  -7   1   11.44    1.23
 -11   7   1   12.07    0.93
  11   7  -1   10.95    1.22
 -11   7   1   13.11    1.18
  11   7  -1   12.76    0.99
  11   7  -1   11.71    1.20
  -9  -7   1   63.56    2.96
   9  -7  -1   66.97    2.67
   9  -7  -1   69.60    2.83
   9   7  -1   64.11    3.05
   9   7  -1   66.82    2.91
   9   7  -1   68.76    2.83
  -9   7   1   67.83    2.71
   7  -7  -1    3.96    0.72
  -7  -7   1    4.38    0.79
   7  -7  -1    3.98    0.59
   7   7  -1    4.03    0.75
   7   7  -1    3.74    0.80
  -7   7   1    4.19    0.35
  -7   7   1    3.19    0.60
   7   7  -1    4.55    0.59
  -5  -7   1   16.81    1.38
   5  -7  -1   17.19    1.37
   5  -7  -1   16.56    1.19
   5   7  -1   17.33    1.29
  -5   7   1   18.45    1.21
   5   7  -1   18.71    1.26
  -5   7   1   17.24    0.88
   5   7  -1   17.53    1.48
  -3  -7   1    0.51    0.43
   3  -7  -1    0.86    0.34
  -3  -7   1    0.13    0.35
   3  -7  -1    0.63    0.43
   3   7  -1    0.62    0.22
  -3   7   1    0.58    0.27
   3   7  -1    0.51    0.34
  -3   7   1    1.60    0.33
   1  -7  -1   75.95    3.12
   1  -7  -1   77.46    3.01
  -1  -7   1   77.65    3.01
  -1  -7   1   77.47    3.21
   1   7  -1   77.06    2.71
  -1   7   1   75.47    2.69
   1   7  -1   74.60    2.81
  -1   7   1   74.11    2.46
   1  -7   1    0.43    0.39
   1  -7   1    0.19    0.19
  -1  -7  -1    0.11    0.31
  -1   7  -1    0.80    0.37
   1   7   1    0.54    0.47
   1   7   1    0.55    0.33
  -1   7  -1    0.61    0.28
   3  -7   1   14.44    1.27
  -3  -7  -1   14.96    1.26
   3  -7   1   14.52    1.11
   3   7   1   16.55    1.04
   3   7   1   14.03    1.07
   3   7   1   13.94    1.31
  -3   7  -1   14.20    0.95
  -3   7  -1   13.11    1.07
   5  -7   1    0.64    0.41
  -5  -7  -1    0.11    0.34
   5  -7   1    0.89    0.23
   5   7   1    0.29    0.40
   5   7   1   -0.10    0.28
  -5   7  -1    0.27    0.28
  -5   7  -1    0.03    0.22
   7  -7   1   72.62    2.74
   7  -7   1   74.71    3.00
  -7  -7  -1   71.79    3.10
   7   7   1   71.02    2.84
  -7   7  -1   72.05    2.86
   7   7   1   72.82    3.21
  -7   7  -1   70.29    2.12
  -9  -7  -1    0.28    0.41
   9  -7   1    0.48    0.24
   9   7   1   -0.04    0.36
  -9   7  -1    0.12    0.36
  -9   7  -1    0.80    0.19
   9   7   1    0.50    0.41
 -11  -7  -1  103.09    3.99
  11  -7   1  101.67    3.61
 -11   7  -1  101.23    3.71
 -11   7  -1  106.74    2.63
  11   7   1  103.98    3.88
  11   7   1  103.71    4.05
  13  -7   1    1.04    0.26
 -13  -7  -1    0.24    0.40
  13  -7   1    1.02    0.29
  13   7   1    0.78    0.36
  13   7   1    0.51    0.44
 -15  -7  -1  117.03    4.55
  15  -7   1  118.54    4.02
  15  -7   1  124.36    4.24
 -15   7  -1  118.89    4.20
  15   7   1  129.67    4.69
  15   7   1  120.53    4.59
  17  -7   1    2.01    0.22
 -17  -7  -1    0.53    0.47
  17  -7   1    0.81    0.23
  17   7   1    1.34    0.25
  17   7   1    1.67    0.36
 -19  -7  -1   85.94    3.87
  19  -7   1   89.82    3.69
  19   7   1   87.39    3.87
  19   7   1   96.74    4.22
 -19   7  -1   88.15    3.68
  21  -7   1    5.40    0.79
 -21  -7  -1    4.12    0.75
  21   7   1    4.69    0.52
 -21   7  -1    5.42    0.43
 -16  -8   1    3.69    0.79
  16   8  -1    5.87    0.87
  16   8  -1    6.11    0.90
 -14  -8   1   49.69    2.82
  14  -8  -1   52.31    2.53
  14   8  -1   52.08    2.78
 -14   8   1   51.90    2.53
  14   8  -1   51.40    2.86
 -12  -8   1   14.88    1.46
  12  -8  -1   14.65    1.23
 -12   8   1   16.01    1.20
  12   8  -1   14.46    1.36
  12   8  -1   12.29    1.29
 -10  -8   1   27.00    1.95
  10  -8  -1   27.15    1.63
  10  -8  -1   30.55    1.88
  10   8  -1   24.12    1.75
 -10   8   1   26.47    1.61
 -10   8   1   28.02    0.99
  10   8  -1   27.82    2.04
   8  -8  -1   49.70    2.40
  -8  -8   1   50.34    2.68
   8  -8  -1   55.43    2.66
  -8   8   1   51.59    1.64
  -8   8   1   52.07    2.35
   8   8  -1   50.02    2.77
   8   8  -1   50.57    2.51
   6  -8  -1   97.86    3.78
  -6  -8   1   95.83    3.89
   6  -8  -1   99.38    3.67
   6   8  -1  101.35    3.69
  -6   8   1  100.06    2.79
  -6   8   1  101.99    3.52
   6   8  -1   96.78    3.99
  -4  -8   1   59.66    2.81
   4  -8  -1   58.74    2.82
   4  -8  -1   60.21    2.67
   4   8  -1   60.32    2.58
   4   8  -1   61.20    2.59
  -4   8   1   58.29    2.05
   4   8  -1   58.86    2.96
   2  -8  -1   46.89    2.36
  -2  -8   1   44.69    2.50
  -2  -8   1   45.49    2.32
   2   8  -1   43.63    2.07
  -2   8   1   43.40    1.82
   2   8  -1   45.15    2.15
   0  -8  -1   57.75    2.72
   0  -8   1   58.21    2.87
   0  -8   1   59.44    2.68
   0   8  -1   56.33    2.31
   0   8  -1   57.08    2.49
   0   8   1   58.78    2.27
   0   8   1   55.98    2.81
  -2  -8  -1   54.96    2.69
   2  -8   1   58.18    2.86
   2  -8   1   59.59    2.64
   2   8   1   54.62    2.83
  -2   8  -1   56.04    2.22
  -2   8  -1   56.67    2.49
   2   8   1   56.81    2.34
   4  -8   1   21.04    1.61
   4  -8   1   22.42    1.46
  -4  -8  -1   18.40    1.52
   4   8   1   18.79    1.64
  -4   8  -1   20.53    1.37
   4   8   1   18.91    1.33
  -4   8  -1   19.95    1.15
   6  -8   1    5.02    0.82
   6  -8   1    6.06    0.66
  -6  -8  -1    5.71    0.94
   6   8   1    5.02    0.92
   6   8   1    5.17    0.77
  -6   8  -1    5.92    0.55
  -6   8  -1    6.38    0.67
  -8  -8  -1   33.25    2.15
   8  -8   1   32.16    1.99
  -8   8  -1   34.58    1.38
   8   8   1   32.61    1.94
   8   8   1   30.70    2.14
  -8   8  -1   35.54    1.95
 -10  -8  -1   12.98    1.39
  10  -8   1   15.08    1.27
  10   8   1   15.48    1.50
 -10   8  -1   15.67    0.79
  10   8   1   15.13    1.33
 -10   8  -1   14.97    1.21
 -12  -8  -1   18.82    1.65
  12  -8   1   20.08    1.49
  12   8   1   21.50    1.68
 -12   8  -1   22.13    1.55
  12   8   1   20.65    1.76
 -12   8  -1   20.71    0.88
 -14  -8  -1    3.48    0.81
  14  -8   1    4.59    0.68
 -14   8  -1    4.91    0.29
  14   8   1    4.29    0.72
 -14   8  -1    4.43    0.65
  14   8   1    4.25    0.81
  16  -8   1   70.20    3.02
 -16  -8  -1   64.03    3.34
 -16   8  -1   65.02    1.94
  16   8   1   65.59    3.28
  16   8   1   67.26    3.40
 -16   8  -1   66.48    3.14
   9  -9  -1   14.08    1.22
  -9  -9   1   13.50    1.35
   9   9  -1   13.09    1.38
  -9   9   1   13.88    0.67
   9   9  -1   13.73    1.25
  -7  -9   1    4.07    0.70
   7  -9  -1    3.08    0.30
   7   9  -1    2.65    0.65
   7   9  -1    3.01    0.61
  -7   9   1    3.15    0.23
  -5  -9   1   48.35    2.63
   5  -9  -1   46.33    2.44
  -5   9   1   48.41    2.65
   5   9  -1   48.45    2.79
   5   9  -1   48.57    2.39
  -5   9   1   49.19    1.85
  -3  -9   1    2.17    0.45
  -3   9   1    1.44    0.48
   3   9  -1    1.09    0.52
   3   9  -1    1.69    0.45
  -3   9   1    1.50    0.30
   1  -9  -1   17.04    1.39
  -1  -9   1   17.78    1.41
   1   9  -1   15.28    1.17
  -1   9   1   15.40    1.47
   1   9  -1   15.66    1.53
  -1   9   1   17.05    1.13
   1  -9   1    0.68    0.28
  -1  -9  -1    1.37    0.23
   1   9   1    0.77    0.30
  -1   9  -1    1.27    0.31
   1   9   1    1.19    0.50
   3  -9   1   30.39    1.87
   3  -9   1   30.28    2.06
  -3  -9  -1   31.68    2.07
   3   9   1   29.70    2.15
   3   9   1   30.83    1.75
  -3   9  -1   29.99    1.54
   5  -9   1    1.79    0.36
  -5  -9  -1    1.30    0.41
   5   9   1    1.41    0.30
  -5   9  -1    1.72    0.29
   5   9   1    1.24    0.47
   7  -9   1   23.66    1.78
  -7  -9  -1   20.38    1.71
   7   9   1   24.22    1.63
  -7   9  -1   24.85    1.18
   7   9   1   21.61    1.79
   9  -9   1    2.82    0.49
  -9  -9  -1    2.04    0.49
  -9   9  -1    2.96    0.13
   9   9   1    2.80    0.55
  -9   9  -1    2.80    0.13
   9   9   1    1.65    0.44
 -32   0   2   27.97    2.02
  32   0  -2   28.93    2.13
  30   0  -2   40.08    2.51
 -30   0   2   42.08    2.47
  28   0  -2   21.86    1.78
 -28   0   2   22.93    1.72
 -26   0   2   52.10    2.64
  26   0  -2   56.61    2.83
 -26   0   2   57.88    2.37
 -24   0   2   28.99    1.83
  24   0  -2   31.49    1.96
 -24   0   2   32.46    1.62
 -22   0   2   44.61    1.92
  22   0  -2   41.74    2.20
 -22   0   2   43.40    2.13
 -20   0   2   60.80    2.26
 -20   0   2   59.40    2.47
  20   0  -2   60.86    2.56
 -18   0   2   97.09    2.95
  18   0  -2   90.81    2.23
 -18   0   2   90.48    3.08
  18   0  -2   96.85    3.21
  16   0  -2    4.72    0.30
  16   0  -2    5.18    0.70
 -16   0   2    3.68    0.57
 -16   0   2    3.93    0.52
 -14   0   2  402.72    8.86
 -14   0   2  408.61    9.11
  14   0  -2  385.43    7.67
 -12   0   2    0.67    0.26
 -12   0   2    0.70    0.26
  12   0  -2    0.44    0.26
  10   0  -2  363.11    8.14
  10   0  -2  377.51    7.90
 -10   0   2  372.40    8.07
  10   0  -2  368.30    7.08
   8   0  -2    3.37    0.39
  -8   0   2    3.06    0.38
   8   0  -2    2.53    0.37
   8   0  -2    3.36    0.19
  -6   0   2  963.63   20.74
   6   0  -2 1000.00   20.52
   6   0  -2  930.64   20.53
   6   0  -2  952.32   19.99
   4   0  -2    0.37    0.14
   4   0  -2    0.41    0.14
  -4   0   2    0.41    0.14
   2   0  -2  164.70    3.79
   2   0  -2  159.47    3.72
   2   0  -2  175.23    3.53
  -2   0   2  173.91    3.43
  -2   0   2  177.31    3.74
   0   0  -2    0.30    0.12
   0   0   2    0.39    0.10
   0   0   2    0.23    0.11
   2   0   2  229.10    4.60
   2   0   2  238.88    4.63
  -2   0  -2  229.50    5.15
  -4   0  -2   10.24    0.35
   4   0   2   10.27    0.43
   4   0   2    9.96    0.49
  -4   0  -2   10.29    0.49
   4   0   2   10.86    0.47
   6   0   2   14.08    0.66
  -6   0  -2   16.43    0.53
   6   0   2   14.27    0.62
  -6   0  -2   14.91    0.69
   6   0   2   14.94    0.65
   8   0   2   25.25    0.98
  -8   0  -2   26.93    1.08
   8   0   2   26.93    1.02
   8   0   2   24.39    0.97
  -8   0  -2   27.96    0.85
 -10   0  -2   25.27    0.87
  10   0   2   23.46    1.04
  10   0   2   23.51    1.00
 -10   0  -2   23.75    1.09
  10   0   2   26.10    1.06
  12   0   2   80.15    2.36
  12   0   2   74.94    2.18
 -12   0  -2   76.90    2.44
  12   0   2   78.27    2.35
 -12   0  -2   79.98    2.09
  14   0   2    4.67    0.43
  14   0   2    3.29    0.50
 -14   0  -2    4.59    0.36
  14   0   2    4.56    0.37
 -14   0  -2    3.69    0.54
 -16   0  -2   32.77    1.21
 -16   0  -2   29.32    1.48
  16   0   2   30.43    1.48
  16   0   2   27.73    1.23
  18   0   2  226.21    5.36
  18   0   2  237.26    5.94
 -18   0  -2  241.23    5.57
 -18   0  -2  239.07    6.21
 -20   0  -2   64.06    2.04
  20   0   2   58.87    2.02
 -20   0  -2   58.14    2.49
  20   0   2   56.47    2.42
 -22   0  -2   13.12    1.17
  22   0   2   15.13    1.24
  22   0   2   12.60    0.80
  24   0   2   11.00    1.13
 -24   0  -2   11.52    1.17
 -26   0  -2   92.29    3.68
  26   0   2   91.66    3.63
  28   0   2    5.72    0.90
 -28   0  -2    5.30    0.92
 -30   0  -2   30.62    2.11
  30   0   2   31.09    2.11
 -31  -1   2   49.43    2.64
  31  -1  -2   49.93    2.85
 -31   1   2   50.89    2.90
  31   1  -2   51.06    2.88
  29  -1  -2   20.12    1.72
 -29  -1   2   20.55    1.55
  29   1  -2   20.60    1.72
 -29   1   2   18.65    1.66
  27  -1  -2   45.32    2.55
 -27  -1   2   46.61    2.37
 -27  -1   2   50.11    2.23
  27   1  -2   43.51    2.56
 -27   1   2   45.86    2.59
  25  -1  -2   20.07    1.59
 -25  -1   2   22.08    1.35
 -25  -1   2   18.79    1.39
  25   1  -2   20.27    1.62
 -25   1   2   21.02    1.63
 -23  -1   2   67.13    2.70
 -23  -1   2   68.59    2.61
  23  -1  -2   60.99    2.77
 -23   1   2   68.20    2.47
 -23   1   2   65.59    2.90
  23   1  -2   63.52    2.86
  21  -1  -2    3.03    0.69
 -21  -1   2    3.56    0.55
 -21  -1   2    2.65    0.56
 -21   1   2    4.37    0.47
  21   1  -2    3.11    0.69
 -21   1   2    2.60    0.62
  19  -1  -2   87.37    3.11
 -19  -1   2   84.47    2.92
 -19  -1   2   90.56    2.94
  19   1  -2   83.92    3.13
  19   1  -2   84.53    2.31
 -19   1   2   89.12    3.20
 -19   1   2   93.84    2.87
 -17  -1   2    1.84    0.42
 -17  -1   2    2.25    0.46
  17  -1  -2    2.50    0.17
  17  -1  -2    1.94    0.49
  17   1  -2    2.32    0.21
 -17   1   2    2.28    0.39
 -17   1   2    1.79    0.48
  17   1  -2    1.72    0.51
 -15  -1   2   84.64    2.64
  15  -1  -2   85.46    2.75
  15  -1  -2   84.74    1.93
 -15  -1   2   83.78    2.61
  15   1  -2   82.00    2.77
  15   1  -2   82.13    2.79
 -15   1   2   86.66    2.89
  15   1  -2   80.11    2.15
 -15   1   2   84.08    2.57
  13  -1  -2    2.02    0.14
  13  -1  -2    1.17    0.35
  13  -1  -2    1.68    0.39
 -13  -1   2    2.19    0.39
 -13  -1   2    1.09    0.28
  13   1  -2    1.22    0.37
  13   1  -2    1.27    0.26
 -13   1   2    1.37    0.31
  13   1  -2    1.68    0.17
  11  -1  -2  142.93    2.89
  11  -1  -2  142.96    3.63
 -11  -1   2  141.63    3.55
  11  -1  -2  141.00    3.80
 -11  -1   2  147.67    3.68
  11   1  -2  136.81    3.69
  11   1  -2  143.28    3.85
 -11   1   2  145.34    3.52
 -11   1   2  142.63    3.62
  11   1  -2  140.32    3.16
   9  -1  -2    6.60    0.55
  -9  -1   2    6.55    0.45
   9  -1  -2    6.88    0.53
   9  -1  -2    7.39    0.30
  -9  -1   2    7.42    0.54
   9   1  -2    6.97    0.55
  -9   1   2    7.68    0.44
  -9   1   2    7.29    0.52
   9   1  -2    7.05    0.59
   9   1  -2    7.17    0.41
  -7  -1   2  117.49    2.79
   7  -1  -2  118.27    2.82
   7  -1  -2  119.63    2.41
   7  -1  -2  117.44    3.06
  -7  -1   2  120.12    2.97
   7   1  -2  116.52    2.97
  -7   1   2  116.74    2.71
   7   1  -2  114.71    3.09
   7   1  -2  115.03    2.62
  -7   1   2  121.54    2.95
   5  -1  -2   20.26    0.74
  -5  -1   2   19.89    0.70
   5  -1  -2   19.61    0.86
   5  -1  -2   20.09    0.58
  -5  -1   2   20.10    0.80
  -5   1   2   19.62    0.77
   5   1  -2   19.38    0.85
  -5   1   2   20.35    0.61
   5   1  -2   19.52    0.89
   5   1  -2   19.96    0.64
   3  -1  -2   50.25    1.52
   3  -1  -2   48.77    1.36
   3  -1  -2   48.93    1.21
  -3  -1   2   53.92    1.41
  -3  -1   2   50.74    1.27
   3   1  -2   49.77    1.42
   3   1  -2   50.01    1.21
  -3   1   2   52.63    1.21
   3   1  -2   46.67    1.48
  -3   1   2   50.38    1.22
  -1  -1   2   66.35    1.57
   1  -1  -2   70.16    1.72
   1  -1  -2   61.53    1.82
  -1  -1   2   71.26    1.68
   1  -1  -2   68.34    1.47
   1   1  -2   72.73    1.70
   1   1  -2   69.67    1.61
   1   1  -2   66.19    1.71
  -1   1   2   69.57    1.60
  -1   1   2   71.74    1.59
  -1   1   2   66.27    1.58
   1  -1   2   73.69    1.65
   1  -1   2   70.30    1.66
  -1  -1  -2   73.36    1.79
  -1  -1  -2   71.20    1.83
   1   1   2   73.01    1.74
   1   1   2   69.49    1.72
   1   1   2   70.44    1.67
  -1   1  -2   74.43    1.69
  -3  -1  -2   70.05    1.80
   3  -1   2   73.96    1.73
  -3  -1  -2   70.10    1.81
   3  -1   2   74.39    1.77
   3  -1   2   73.40    1.66
   3   1   2   73.21    1.82
  -3   1  -2   72.15    1.81
   3   1   2   68.67    1.85
   3   1   2   74.08    1.62
   5  -1   2  163.29    3.41
  -5  -1  -2  155.01    3.58
  -5  -1  -2  156.45    3.64
  -5   1  -2  163.05    3.49
  -5   1  -2  163.14    3.61
   5   1   2  157.22    3.50
  -5   1  -2  162.10    3.71
   5   1   2  154.12    3.73
   5   1   2  156.34    3.38
   7  -1   2  339.13    6.80
   7  -1   2  356.57    7.06
  -7  -1  -2  339.79    7.43
  -7  -1  -2  335.91    7.29
   7   1   2  348.77    6.96
  -7   1  -2  336.31    7.52
  -7   1  -2  345.59    7.16
   7   1   2  346.25    7.49
   7   1   2  338.76    6.97
  -9  -1  -2  328.93    7.16
  -9  -1  -2  313.73    6.93
   9  -1   2  316.57    6.48
   9  -1   2  319.85    6.76
  -9   1  -2  328.47    6.68
   9   1   2  322.53    6.66
  -9   1  -2  317.92    7.23
   9   1   2  322.25    7.22
   9   1   2  313.29    6.71
  11  -1   2  161.72    3.78
 -11  -1  -2  169.64    4.22
 -11  -1  -2  172.21    4.03
  11   1   2  167.27    3.96
 -11   1  -2  171.06    3.72
  11   1   2  169.22    4.33
  11   1   2  165.24    4.02
 -11   1  -2  165.22    4.31
  13  -1   2  185.75    4.58
 -13  -1  -2  186.62    4.74
  13  -1   2  185.48    4.24
 -13  -1  -2  187.27    4.49
  13   1   2  190.55    4.86
  13   1   2  178.50    4.40
 -13   1  -2  188.33    4.88
  13   1   2  191.96    4.60
 -13   1  -2  193.26    4.22
 -15  -1  -2  191.56    5.08
  15  -1   2  196.77    4.50
  15  -1   2  199.84    4.97
 -15  -1  -2  197.81    4.79
 -15   1  -2  193.33    5.21
  15   1   2  203.47    4.98
  15   1   2  200.03    5.24
 -15   1  -2  205.04    4.52
  15   1   2  191.11    4.71
  17  -1   2   80.02    2.32
 -17  -1  -2   79.84    2.44
 -17  -1  -2   76.23    2.69
  17  -1   2   79.91    2.72
  17   1   2   78.63    2.72
  17   1   2   74.81    2.44
 -17   1  -2   82.35    2.22
 -17   1  -2   75.79    2.78
 -19  -1  -2   82.13    2.54
  19  -1   2   76.67    2.31
  19  -1   2   72.86    2.76
 -19  -1  -2   78.68    2.82
  19   1   2   74.06    2.77
 -19   1  -2   76.60    2.91
  19   1   2   76.89    2.51
 -21  -1  -2    0.40    0.37
  21  -1   2    0.36    0.39
 -21   1  -2    0.44    0.43
  21   1   2    0.18    0.33
  21   1   2    1.48    0.26
  23  -1   2   97.44    3.58
 -23  -1  -2   96.41    3.53
  23   1   2  100.12    3.59
 -23   1  -2  100.14    3.73
 -25  -1  -2   -0.05    0.28
  25  -1   2   -0.07    0.33
  25   1   2    0.58    0.33
 -25   1  -2    0.09    0.36
  27  -1   2   62.07    2.97
 -27  -1  -2   60.35    2.87
 -27   1  -2   63.45    3.09
  27   1   2   64.18    2.96
 -29  -1  -2    1.39    0.39
  29  -1   2    1.97    0.54
 -29   1  -2    1.15    0.49
  29   1   2    2.02    0.37
 -31  -1  -2   74.56    3.42
  31  -1   2   76.21    3.54
 -31   1  -2   75.77    3.68
  31   1   2   76.54    3.48
  30  -2  -2   47.47    2.73
 -30  -2   2   46.82    2.42
 -30   2   2   46.39    2.85
  30   2  -2   48.20    2.78
  28  -2  -2   22.70    1.77
 -28  -2   2   23.96    1.50
 -28  -2   2   22.39    1.52
  28   2  -2   21.85    1.77
 -28   2   2   20.73    1.81
  26  -2  -2   46.33    2.51
 -26  -2   2   43.73    2.17
 -26  -2   2   46.27    2.20
 -26   2   2   45.88    2.60
  26   2  -2   43.53    2.48
  24  -2  -2   24.90    1.73
 -24  -2   2   26.71    1.56
 -24  -2   2   28.33    1.62
 -24   2   2   25.79    1.85
  24   2  -2   24.73    1.79
 -22  -2   2   62.91    2.53
  22  -2  -2   57.98    2.63
 -22  -2   2   62.83    2.46
 -22   2   2   60.26    2.83
  22   2  -2   57.89    2.73
 -22   2   2   67.23    2.38
 -20  -2   2   23.88    1.42
 -20  -2   2   24.71    1.36
  20  -2  -2   23.24    1.51
 -20   2   2   24.25    1.66
  20   2  -2   23.99    1.13
 -20   2   2   27.49    1.34
  20   2  -2   23.89    1.62
 -18  -2   2   21.70    1.30
 -18  -2   2   20.91    1.17
  18  -2  -2   20.94    1.34
 -18   2   2   20.92    1.46
  18   2  -2   22.24    1.05
 -18   2   2   21.15    1.16
  18   2  -2   20.69    1.43
  16  -2  -2    0.81    0.36
 -16  -2   2    0.90    0.38
 -16  -2   2    1.27    0.31
 -16   2   2    1.10    0.29
  16   2  -2    1.50    0.24
  16   2  -2    2.14    0.39
  16   2  -2    1.22    0.45
 -16   2   2    0.89    0.41
  14  -2  -2  215.86    4.47
 -14  -2   2  218.32    5.17
 -14  -2   2  213.91    5.41
  14  -2  -2  211.09    5.66
  14  -2  -2  214.84    5.28
  14   2  -2  213.26    5.49
 -14   2   2  219.70    5.07
 -14   2   2  226.81    5.33
  14   2  -2  211.95    4.92
  14   2  -2  212.30    5.74
 -12  -2   2    3.62    0.36
  12  -2  -2    3.88    0.27
  12  -2  -2    2.49    0.47
  12  -2  -2    3.05    0.46
 -12  -2   2    3.11    0.47
  12   2  -2    3.09    0.53
  12   2  -2    3.11    0.39
  12   2  -2    3.25    0.47
 -12   2   2    3.26    0.43
 -12   2   2    3.90    0.30
 -10  -2   2  636.94   13.28
  10  -2  -2  624.56   11.81
 -10  -2   2  638.21   12.99
  10  -2  -2  611.70   13.53
  10  -2  -2  662.37   12.57
  10   2  -2  580.15   13.46
  10   2  -2  590.76   12.17
  10   2  -2  600.52   12.79
 -10   2   2  636.42   13.15
 -10   2   2  654.81   12.74
   8  -2  -2   19.91    0.74
  -8  -2   2   20.77    0.72
  -8  -2   2   19.91    0.97
   8  -2  -2   19.82    0.90
   8  -2  -2   18.49    1.01
   8   2  -2   22.01    1.10
  -8   2   2   20.02    0.91
   8   2  -2   18.56    1.06
   8   2  -2   19.03    0.92
  -8   2   2   20.53    0.62
  -6  -2   2  591.76   12.06
   6  -2  -2  552.80   12.27
   6  -2  -2  601.64   11.26
  -6  -2   2  604.16   11.85
   6  -2  -2  601.75   11.97
   6  -2  -2  569.14   10.91
  -6  -2   2  564.67   11.16
   6   2  -2  516.49   12.13
   6   2  -2  549.32   11.57
   4  -2  -2    2.84    0.27
   4  -2  -2    2.88    0.30
  -4  -2   2    3.36    0.35
   4  -2  -2    2.69    0.34
  -4  -2   2    3.56    0.35
   4  -2  -2    2.96    0.31
   4   2  -2    3.03    0.39
   4   2  -2    3.31    0.38
   2  -2  -2  340.11    6.44
   2  -2  -2  318.47    6.53
   2  -2  -2  334.14    7.01
   2  -2  -2  293.84    7.15
  -2  -2   2  352.82    7.00
   2   2  -2  312.81    7.03
   2   2  -2  321.21    6.72
   0  -2   2    0.01    0.10
   0  -2   2    0.09    0.13
   0  -2  -2    0.23    0.14
   0  -2  -2    0.10    0.13
   0   2  -2    0.00    0.13
   0   2  -2    0.25    0.08
   0   2   2    0.09    0.09
   0   2   2    0.13    0.14
   0   2  -2    0.04    0.11
   0   2   2    0.25    0.11
   2  -2   2    6.99    0.46
  -2  -2  -2    6.91    0.48
   2  -2   2    7.51    0.48
  -2  -2  -2    7.04    0.47
   2  -2   2    6.86    0.38
   2   2   2    6.86    0.51
  -2   2  -2    7.59    0.39
   2   2   2    7.86    0.39
   2   2   2    7.38    0.44
  -4  -2  -2    6.34    0.42
   4  -2   2    6.32    0.44
   4  -2   2    6.59    0.35
  -4  -2  -2    6.14    0.47
   4  -2   2    5.98    0.45
   4   2   2    6.64    0.40
   4   2   2    5.89    0.47
  -4   2  -2    6.14    0.42
   4   2   2    6.52    0.51
   6  -2   2   79.60    2.13
   6  -2   2   77.96    1.85
   6  -2   2   78.84    2.05
  -6  -2  -2   75.81    2.07
  -6  -2  -2   78.41    2.21
   6   2   2   77.83    2.02
  -6   2  -2   79.06    2.20
   6   2   2   78.28    2.25
   6   2   2   75.89    2.27
  -8  -2  -2   30.14    1.13
   8  -2   2   30.22    1.21
  -8  -2  -2   29.87    1.22
   8  -2   2   30.24    1.11
  -8   2  -2   31.08    0.97
   8   2   2   29.28    1.31
   8   2   2   29.85    1.28
   8   2   2   31.45    1.17
  -8   2  -2   31.38    0.92
  -8   2  -2   31.85    1.28
 -10  -2  -2    5.48    0.49
  10  -2   2    5.56    0.54
 -10  -2  -2    4.92    0.49
  10  -2   2    5.12    0.46
  10   2   2    5.37    0.50
 -10   2  -2    6.20    0.39
 -10   2  -2    6.09    0.33
  10   2   2    5.89    0.57
  10   2   2    4.98    0.54
 -10   2  -2    4.60    0.53
 -12  -2  -2   32.78    1.36
  12  -2   2   31.42    1.40
  12  -2   2   32.31    1.25
 -12  -2  -2   33.56    1.40
  12   2   2   31.96    1.56
 -12   2  -2   34.04    1.05
 -12   2  -2   35.32    1.25
  12   2   2   33.18    1.40
 -12   2  -2   31.79    1.48
  12   2   2   33.21    1.47
  14  -2   2  189.28    4.36
 -14  -2  -2  189.67    4.78
 -14  -2  -2  191.91    4.83
  14  -2   2  190.60    4.77
  14   2   2  188.58    4.75
  14   2   2  178.78    4.62
  14   2   2  182.64    5.14
 -14   2  -2  188.01    5.07
 -14   2  -2  190.21    4.25
 -16  -2  -2   34.37    1.54
  16  -2   2   35.00    1.38
 -16  -2  -2   34.38    1.58
  16  -2   2   34.28    1.64
  16   2   2   34.20    1.58
  16   2   2   35.52    1.75
  16   2   2   34.27    1.63
 -16   2  -2   34.64    1.76
 -16   2  -2   36.37    1.18
 -18  -2  -2    3.31    0.51
  18  -2   2    3.09    0.60
 -18  -2  -2    3.28    0.55
  18  -2   2    4.47    0.43
 -18   2  -2    3.07    0.65
  18   2   2    3.66    0.51
  18   2   2    3.85    0.58
 -20  -2  -2   20.14    1.32
 -20  -2  -2   21.38    1.23
  20  -2   2   19.11    1.36
  20  -2   2   22.49    1.09
 -20   2  -2   21.43    1.51
  20   2   2   20.62    1.38
  20   2   2   23.03    1.30
 -22  -2  -2   98.09    3.24
  22  -2   2   93.46    3.48
 -22  -2  -2   99.16    3.47
 -22   2  -2   98.10    3.72
  22   2   2  100.09    3.22
  22   2   2   98.22    3.51
 -24  -2  -2   21.20    1.26
 -24  -2  -2   19.69    1.40
  24  -2   2   19.72    1.53
  24   2   2   20.63    1.48
 -24   2  -2   19.36    1.59
 -26  -2  -2   31.46    1.85
  26  -2   2   30.60    2.00
  26   2   2   33.19    1.99
 -26   2  -2   31.62    2.12
 -28  -2  -2    3.60    0.61
  28  -2   2    2.17    0.66
 -28   2  -2    2.24    0.68
  28   2   2    3.33    0.57
 -30  -2  -2   72.30    3.28
  30  -2   2   76.08    3.57
  30   2   2   72.85    3.35
 -30   2  -2   74.25    3.68
  29  -3  -2    9.87    1.15
 -29  -3   2   11.45    0.93
 -29   3   2   10.50    1.37
  29   3  -2    9.52    1.00
  27  -3  -2   50.62    2.69
 -27  -3   2   51.47    2.50
  27   3  -2   50.64    2.74
 -27   3   2   51.39    2.93
  25  -3  -2   13.78    1.32
 -25  -3   2   13.54    1.14
  25   3  -2   14.98    1.39
 -25   3   2   14.22    1.48
  23  -3  -2   29.57    1.85
 -23  -3   2   32.92    1.63
 -23  -3   2   28.54    1.73
  23   3  -2   29.76    1.97
 -23   3   2   32.17    2.12
 -21  -3   2    3.93    0.43
 -21  -3   2    2.28    0.58
  21  -3  -2    2.50    0.63
  21   3  -2    2.89    0.68
 -21   3   2    2.65    0.74
 -19  -3   2   69.80    2.78
 -19  -3   2   73.75    2.51
  19  -3  -2   75.47    2.85
  19   3  -2   76.82    2.60
 -19   3   2   81.09    2.64
  19   3  -2   77.39    3.07
 -19   3   2   75.49    3.17
 -17  -3   2    1.13    0.42
 -17  -3   2    2.52    0.34
  17  -3  -2    1.96    0.16
  17  -3  -2    1.24    0.44
  17   3  -2    2.31    0.39
  17   3  -2    0.97    0.46
 -17   3   2    1.62    0.55
  17   3  -2    2.43    0.45
 -17   3   2    3.28    0.36
 -15  -3   2   45.29    1.60
  15  -3  -2   42.05    1.84
 -15  -3   2   42.79    1.91
  15  -3  -2   45.37    2.11
  15  -3  -2   45.90    1.47
  15   3  -2   44.71    1.82
  15   3  -2   47.81    2.21
  15   3  -2   43.90    2.07
 -15   3   2   45.34    1.79
 -15   3   2   47.65    1.53
  13  -3  -2   -0.05    0.23
 -13  -3   2   -0.10    0.23
  13  -3  -2    0.00    0.19
  13   3  -2    0.77    0.24
  13   3  -2    0.51    0.18
  13   3  -2    0.12    0.31
 -13   3   2    0.34    0.18
  11  -3  -2   94.59    2.75
  11  -3  -2   93.39    2.44
 -11  -3   2   94.20    2.95
  11  -3  -2   98.23    3.13
 -11  -3   2   95.37    2.42
  11   3  -2   90.65    2.83
  11   3  -2   93.69    3.02
  11   3  -2   93.79    3.21
 -11   3   2   98.12    2.22
 -11   3   2   99.60    2.81
  -9  -3   2    4.93    0.28
  -9  -3   2    4.29    0.52
   9  -3  -2    4.85    0.42
   9  -3  -2    4.43    0.59
   9  -3  -2    4.46    0.46
   9   3  -2    4.63    0.63
   9   3  -2    4.72    0.59
   9   3  -2    5.36    0.66
  -7  -3   2   62.61    2.09
  -7  -3   2   59.51    1.45
   7  -3  -2   62.08    1.84
  -7  -3   2   61.33    2.08
   7  -3  -2   61.28    1.94
   7  -3  -2   61.03    1.83
   7  -3  -2   59.62    2.12
   7   3  -2   58.69    2.18
   7   3  -2   65.47    2.19
   5  -3  -2   16.47    0.94
   5  -3  -2   16.26    0.84
  -5  -3   2   16.51    0.90
   5  -3  -2   16.05    0.84
   5  -3  -2   16.40    0.75
  -5  -3   2   17.43    0.97
   5   3  -2   15.89    0.96
   5   3  -2   16.38    0.94
  -3  -3   2   22.16    1.01
   3  -3  -2   22.57    1.04
   3  -3  -2   22.38    1.07
  -3  -3   2   23.94    1.11
   3  -3  -2   21.80    1.00
   3  -3  -2   23.25    0.86
   3   3  -2   22.22    1.07
   3   3  -2   22.66    1.06
   1  -3  -2   37.41    1.44
   1  -3  -2   37.36    1.40
  -1  -3   2   38.60    1.43
   1  -3  -2   38.20    1.44
  -1  -3   2   39.46    1.37
   1   3  -2   40.51    0.99
   1   3  -2   37.97    1.38
   1   3  -2   38.70    1.31
  -1   3   2   39.21    1.09
  -1   3   2   37.45    1.17
  -1  -3  -2   26.79    1.15
  -1  -3  -2   26.20    1.14
   1  -3   2   26.83    1.05
   1  -3   2   25.93    1.12
   1   3   2   28.12    1.00
  -1   3  -2   28.41    1.14
   1   3   2   28.07    0.97
   1   3   2   25.91    1.19
  -1   3  -2   27.53    0.92
  -1   3  -2   27.97    0.88
   3  -3   2  156.77    3.65
  -3  -3  -2  153.76    3.82
   3  -3   2  150.17    3.63
   3  -3   2  151.85    3.65
  -3  -3  -2  154.11    3.89
   3   3   2  152.35    3.52
  -3   3  -2  154.86    3.61
   3   3   2  152.07    3.85
   3   3   2  153.76    3.73
   5  -3   2   38.51    1.24
   5  -3   2   35.58    1.35
   5  -3   2   37.67    1.40
  -5  -3  -2   38.55    1.49
  -5  -3  -2   38.03    1.31
  -5   3  -2   39.05    1.35
   5   3   2   36.77    1.30
   5   3   2   37.80    1.54
   5   3   2   35.86    1.43
   7  -3   2   91.49    2.57
  -7  -3  -2   88.65    2.66
  -7  -3  -2   87.53    2.40
   7  -3   2   87.05    2.24
   7  -3   2   85.93    2.42
   7   3   2   85.26    2.67
   7   3   2   88.69    2.71
   7   3   2   89.52    2.44
  -7   3  -2   90.09    2.58
  -9  -3  -2  199.59    4.80
   9  -3   2  206.49    4.89
   9  -3   2  204.27    4.56
   9  -3   2  202.30    4.64
  -9  -3  -2  209.38    5.13
   9   3   2  204.28    4.77
  -9   3  -2  212.64    5.13
   9   3   2  196.60    5.21
   9   3   2  197.62    4.99
  11  -3   2  249.04    5.87
 -11  -3  -2  243.77    5.84
  11  -3   2  241.90    5.51
 -11  -3  -2  257.54    6.16
 -11   3  -2  253.99    5.54
  11   3   2  247.80    5.99
  11   3   2  255.69    5.83
 -11   3  -2  256.07    6.23
  11   3   2  242.27    6.30
 -11   3  -2  254.83    5.49
 -13  -3  -2  195.39    4.92
  13  -3   2  196.40    4.62
  13  -3   2  202.24    5.03
 -13  -3  -2  203.19    5.20
 -13   3  -2  200.00    4.55
 -13   3  -2  195.11    5.28
 -13   3  -2  203.10    4.61
  13   3   2  186.34    5.40
  13   3   2  189.65    5.02
  13   3   2  198.15    4.92
  15  -3   2   17.70    0.97
 -15  -3  -2   17.56    1.15
  15  -3   2   16.60    1.14
 -15  -3  -2   18.62    1.06
  15   3   2   18.57    1.12
 -15   3  -2   16.41    1.20
  15   3   2   17.33    1.24
  15   3   2   16.41    1.17
  17  -3   2   26.20    1.51
 -17  -3  -2   28.00    1.52
  17  -3   2   27.50    1.27
 -17  -3  -2   29.02    1.45
  17   3   2   28.43    1.70
  17   3   2   28.59    1.52
 -17   3  -2   28.63    1.68
  17   3   2   28.32    1.55
  19  -3   2   72.43    2.83
 -19  -3  -2   74.73    2.79
  19  -3   2   75.88    2.41
 -19  -3  -2   75.67    2.71
 -19   3  -2   79.10    3.16
  19   3   2   72.58    2.79
  19   3   2   75.51    2.79
 -21  -3  -2    1.86    0.41
  21  -3   2    0.61    0.47
 -21  -3  -2    1.61    0.37
  21   3   2    3.20    0.54
 -21   3  -2    1.17    0.58
  21   3   2    2.41    0.45
  23  -3   2   12.67    1.24
 -23  -3  -2   16.77    1.18
 -23  -3  -2   14.69    1.12
  23   3   2   14.74    1.18
  23   3   2   17.04    1.17
 -23   3  -2   14.36    1.42
  25  -3   2   -0.38    0.28
 -25  -3  -2    1.24    0.27
  25   3   2    1.14    0.20
 -25   3  -2    0.35    0.52
  27  -3   2   94.53    3.92
 -27  -3  -2  100.92    3.74
 -27   3  -2   99.03    4.27
  27   3   2   91.96    3.72
  29  -3   2    1.85    0.61
 -29   3  -2    0.91    0.52
 -28  -4   2    2.77    0.25
  28  -4  -2    1.78    0.56
 -28   4   2    1.13    0.55
  28   4  -2    2.77    0.19
 -26  -4   2   33.88    2.02
  26  -4  -2   37.77    2.27
 -26   4   2   33.51    2.40
  26   4  -2   34.49    2.18
  24  -4  -2   25.24    1.79
 -24  -4   2   25.02    1.69
  24   4  -2   24.10    1.71
 -24   4   2   23.19    1.93
 -22  -4   2    8.67    1.00
  22  -4  -2    9.43    1.07
  22   4  -2    9.57    1.03
 -22   4   2    9.39    1.27
  20  -4  -2    0.24    0.32
 -20  -4   2    0.31    0.41
 -20   4   2    0.10    0.40
  20   4  -2    0.59    0.28
  18  -4  -2   43.33    2.08
 -18  -4   2   42.22    2.14
  18   4  -2   45.62    2.07
 -18   4   2   48.41    1.93
  18   4  -2   43.09    2.25
 -18   4   2   44.70    2.40
  18   4  -2   45.07    2.39
  16  -4  -2   17.64    0.90
  16  -4  -2   14.64    1.10
 -16  -4   2   15.92    1.23
  16   4  -2   14.68    1.24
  16   4  -2   15.28    1.13
 -16   4   2   16.94    1.02
  16   4  -2   16.42    1.31
 -14  -4   2   58.34    2.41
  14  -4  -2   59.95    1.96
  14  -4  -2   58.60    2.24
  14  -4  -2   58.95    2.53
  14   4  -2   60.08    2.54
  14   4  -2   55.27    2.31
 -14   4   2   58.24    2.15
  14   4  -2   58.58    2.61
 -14   4   2   62.46    1.65
  12  -4  -2   23.56    1.11
 -12  -4   2   25.35    1.44
  12  -4  -2   23.90    1.28
  12  -4  -2   22.75    1.42
  12   4  -2   23.69    1.42
 -12   4   2   24.36    1.24
  12   4  -2   22.77    1.51
 -12   4   2   25.13    0.72
  12   4  -2   23.43    1.47
  10  -4  -2  170.74    4.49
  10  -4  -2  177.52    4.90
  10  -4  -2  173.68    4.35
  10  -4  -2  170.77    4.21
 -10  -4   2  179.81    4.82
  10   4  -2  178.37    5.04
  10   4  -2  174.88    4.68
  10   4  -2  167.57    4.74
  -8  -4   2    5.26    0.69
   8  -4  -2    6.35    0.57
   8  -4  -2    4.48    0.52
   8  -4  -2    5.10    0.53
  -8  -4   2    5.07    0.63
   8  -4  -2    5.00    0.59
   8   4  -2    5.47    0.70
   8   4  -2    4.72    0.67
   6  -4  -2  210.41    5.37
  -6  -4   2  210.90    5.31
   6  -4  -2  207.73    4.77
   6  -4  -2  202.46    5.12
   6  -4  -2  212.67    4.97
  -6  -4   2  216.40    5.28
   6   4  -2  204.36    5.21
   6   4  -2  208.20    5.42
   4  -4  -2    4.12    0.45
   4  -4  -2    3.90    0.37
  -4  -4   2    3.76    0.57
   4  -4  -2    3.84    0.53
   4  -4  -2    3.94    0.51
  -4  -4   2    4.12    0.53
   4   4  -2    3.47    0.52
   4   4  -2    3.73    0.54
   2  -4  -2  119.14    3.33
   2  -4  -2  115.77    3.30
   2  -4  -2  115.65    3.30
  -2  -4   2  117.85    3.29
  -2  -4   2  121.79    3.36
   2   4  -2  117.92    3.24
  -2   4   2  118.33    2.74
   2   4  -2  119.47    2.61
  -2   4   2  117.42    2.94
   2   4  -2  112.09    3.21
   0  -4  -2    3.07    0.51
   0  -4   2    3.41    0.46
   0  -4  -2    2.73    0.44
   0  -4   2    2.66    0.47
   0  -4  -2    3.37    0.35
   0   4   2    3.01    0.32
   0   4  -2    2.69    0.38
   0   4  -2    3.35    0.48
   0   4   2    3.04    0.34
   0   4  -2    3.44    0.24
   2  -4   2   55.44    1.84
   2  -4   2   55.28    1.96
  -2  -4  -2   54.06    1.87
  -2  -4  -2   52.26    1.96
  -2   4  -2   52.16    1.53
  -2   4  -2   52.10    1.57
   2   4   2   55.31    1.72
  -2   4  -2   52.67    1.88
   2   4   2   52.74    1.75
   2   4   2   57.14    2.08
  -4  -4  -2    0.85    0.33
   4  -4   2    0.55    0.28
   4  -4   2    0.85    0.22
   4   4   2    1.52    0.23
  -4   4  -2    0.59    0.32
  -4   4  -2    1.12    0.21
  -4   4  -2    0.61    0.17
   4   4   2    0.50    0.32
   4   4   2    0.67    0.25
  -6  -4  -2    3.75    0.33
  -6  -4  -2    3.39    0.53
   6  -4   2    2.57    0.45
   6  -4   2    2.75    0.45
   6  -4   2    2.84    0.32
   6   4   2    3.65    0.59
   6   4   2    3.22    0.51
  -6   4  -2    3.32    0.42
   6   4   2    3.74    0.37
   8  -4   2    2.61    0.27
  -8  -4  -2    2.85    0.27
   8  -4   2    1.61    0.37
   8  -4   2    2.23    0.46
  -8  -4  -2    2.26    0.48
   8   4   2    2.04    0.47
   8   4   2    2.49    0.34
  -8   4  -2    2.48    0.42
   8   4   2    2.26    0.53
 -10  -4  -2   44.12    1.91
 -10  -4  -2   43.86    1.57
  10  -4   2   43.75    1.82
  10  -4   2   40.27    1.66
  10  -4   2   42.04    1.45
  10   4   2   44.71    1.75
 -10   4  -2   46.33    1.86
  10   4   2   42.82    1.98
  10   4   2   42.28    1.97
  12  -4   2   15.78    0.99
 -12  -4  -2   16.79    1.17
 -12  -4  -2   16.56    0.89
  12  -4   2   15.69    1.09
  12   4   2   15.04    1.17
 -12   4  -2   16.62    0.69
  12   4   2   17.92    1.06
  12   4   2   15.36    1.19
 -12   4  -2   17.08    0.81
 -12   4  -2   15.63    1.12
  14  -4   2   15.17    1.12
 -14  -4  -2   15.14    1.16
  14  -4   2   14.94    0.95
 -14  -4  -2   14.92    0.88
  14   4   2   15.96    1.04
  14   4   2   13.70    1.16
  14   4   2   15.19    1.20
 -14   4  -2   13.89    1.12
 -16  -4  -2   16.54    1.24
  16  -4   2   20.22    1.11
 -16  -4  -2   20.63    1.10
  16  -4   2   16.17    1.22
  16   4   2   20.26    1.46
  16   4   2   19.73    1.21
 -16   4  -2   18.10    1.34
  16   4   2   17.94    1.35
  18  -4   2   44.94    1.81
  18  -4   2   43.24    2.13
 -18  -4  -2   43.86    2.14
 -18  -4  -2   46.09    1.89
  18   4   2   43.75    2.03
  18   4   2   41.96    2.15
 -18   4  -2   43.58    2.28
  18   4   2   45.53    2.39
 -20  -4  -2   11.82    1.08
  20  -4   2   11.74    0.79
  20  -4   2   11.00    1.11
 -20  -4  -2   12.87    0.90
  20   4   2   11.83    1.05
 -20   4  -2   10.91    1.22
  20   4   2   11.65    0.98
  22  -4   2   10.97    1.13
 -22  -4  -2   12.30    1.08
  22   4   2   11.37    0.95
 -22   4  -2   10.82    1.25
  22   4   2   12.66    1.07
  24  -4   2    5.56    0.90
 -24  -4  -2    5.79    0.67
  24   4   2    6.81    0.68
 -24   4  -2    5.95    1.06
  24   4   2    7.54    0.68
 -26  -4  -2   26.09    1.61
  26  -4   2   21.47    1.71
  26   4   2   24.88    1.58
 -26   4  -2   21.68    1.88
  28  -4   2    4.18    0.76
 -28   4  -2    4.85    0.94
  27  -5  -2    7.55    1.01
 -27  -5   2    7.69    0.78
 -27   5   2    7.61    1.15
  27   5  -2    6.71    0.65
 -25  -5   2    6.56    0.88
  25  -5  -2    6.62    0.92
 -25   5   2    5.65    1.03
  25   5  -2    5.72    0.61
  23  -5  -2   14.37    1.31
 -23  -5   2   14.57    1.36
  23   5  -2   13.66    1.19
 -23   5   2   14.99    1.52
  21  -5  -2    1.27    0.46
 -21  -5   2    1.84    0.58
  21   5  -2    1.56    0.28
 -21   5   2    0.72    0.53
 -19  -5   2   22.11    1.62
  19  -5  -2   22.45    1.55
  19   5  -2   26.29    1.74
 -19   5   2   22.05    1.75
  19   5  -2   24.67    1.80
  19   5  -2   25.80    1.62
 -17  -5   2   -0.07    0.31
  17  -5  -2    0.65    0.34
  17   5  -2    0.71    0.27
  17   5  -2    1.47    0.38
  17   5  -2    0.94    0.32
 -17   5   2   -0.01    0.38
  15  -5  -2   41.55    1.97
 -15  -5   2   42.98    2.20
  15  -5  -2   47.74    1.85
  15   5  -2   45.95    2.22
 -15   5   2   44.98    1.91
  15   5  -2   47.15    2.45
  15   5  -2   46.53    2.30
  13  -5  -2    2.33    0.38
  13  -5  -2    1.68    0.43
 -13  -5   2    1.45    0.50
  13  -5  -2    1.25    0.45
 -13   5   2    1.77    0.34
  13   5  -2    1.49    0.49
  13   5  -2    1.01    0.47
  13   5  -2    1.09    0.44
  11  -5  -2   18.32    1.13
  11  -5  -2   18.27    1.14
  11  -5  -2   21.02    1.37
 -11  -5   2   20.20    1.37
  11  -5  -2   20.07    1.14
  11   5  -2   20.39    1.38
  11   5  -2   18.51    1.42
  11   5  -2   19.80    1.41
   9  -5  -2    7.62    0.78
  -9  -5   2    6.08    0.79
   9  -5  -2    6.60    0.68
   9  -5  -2    6.93    0.68
   9  -5  -2    6.28    0.64
   9   5  -2    6.20    0.81
   9   5  -2    7.23    0.93
   9   5  -2    6.40    0.89
  -7  -5   2   14.81    1.17
   7  -5  -2   14.72    1.04
   7  -5  -2   14.06    0.89
  -7  -5   2   15.16    1.11
   7  -5  -2   13.55    0.98
   7  -5  -2   13.82    0.98
   7   5  -2   15.01    1.10
   7   5  -2   15.19    1.14
   5  -5  -2    1.80    0.45
   5  -5  -2    2.31    0.45
  -5  -5   2    1.89    0.53
  -5  -5   2    1.89    0.46
   5  -5  -2    2.38    0.39
   5   5  -2    1.64    0.45
   5   5  -2    1.87    0.48
   3  -5  -2    0.05    0.23
  -3  -5   2    0.15    0.30
  -3  -5   2    0.80    0.34
   3  -5  -2    0.36    0.31
   3   5  -2    0.33    0.28
  -3   5   2    0.15    0.17
  -3   5   2    0.26    0.21
   3   5  -2    0.35    0.30
  -1  -5   2   59.01    2.29
   1  -5  -2   57.84    2.19
  -1  -5   2   56.76    2.14
   1  -5  -2   56.63    2.03
   1  -5  -2   55.13    2.23
   1   5  -2   56.58    2.12
  -1   5   2   56.23    1.74
   1   5  -2   55.36    2.01
  -1   5   2   57.60    1.91
   1  -5   2    2.61    0.54
  -1  -5  -2    1.32    0.40
   1  -5   2    1.48    0.37
  -1  -5  -2    2.54    0.27
  -1   5  -2    2.10    0.18
  -1   5  -2    1.73    0.37
   1   5   2    1.67    0.48
   1   5   2    1.96    0.38
   1   5   2    1.96    0.30
  -1   5  -2    1.42    0.42
  -3  -5  -2   28.01    1.25
   3  -5   2   27.67    1.32
   3  -5   2   27.80    1.48
  -3  -5  -2   26.47    1.46
   3   5   2   28.63    1.60
  -3   5  -2   26.03    1.04
  -3   5  -2   28.24    1.42
   3   5   2   27.88    1.31
  -3   5  -2   27.51    1.11
   3   5   2   28.96    1.28
   5  -5   2   23.32    1.31
   5  -5   2   19.83    1.08
  -5  -5  -2   20.24    1.29
  -5  -5  -2   22.26    1.08
   5   5   2   21.90    1.12
  -5   5  -2   20.71    0.83
   5   5   2   21.37    1.40
  -5   5  -2   20.65    1.01
  -5   5  -2   20.22    1.24
   5   5   2   20.97    1.20
  -7  -5  -2   71.38    2.70
  -7  -5  -2   73.57    2.36
   7  -5   2   74.91    2.35
   7  -5   2   71.87    2.52
   7  -5   2   73.38    2.53
   7   5   2   69.45    2.75
   7   5   2   75.29    2.47
   7   5   2   69.74    2.59
  -7   5  -2   71.22    2.38
   9  -5   2   48.71    2.03
   9  -5   2   48.58    1.77
  -9  -5  -2   50.07    2.22
   9  -5   2   46.64    1.97
   9   5   2   47.70    2.25
   9   5   2   48.23    2.15
   9   5   2   51.10    1.99
  -9   5  -2   48.97    1.96
 -11  -5  -2   14.34    1.18
  11  -5   2   15.12    0.83
  11  -5   2   14.42    1.09
  11  -5   2   12.35    0.97
 -11   5  -2   15.34    1.08
  11   5   2   12.75    1.15
  11   5   2   14.88    0.98
  11   5   2   13.10    1.19
  13  -5   2   43.96    1.88
  13  -5   2   40.48    1.95
 -13  -5  -2   39.53    2.07
  13   5   2   42.29    2.21
  13   5   2   44.01    1.92
  13   5   2   45.69    2.25
 -13   5  -2   39.23    1.97
  15  -5   2   18.06    1.14
  15  -5   2   15.98    1.25
 -15  -5  -2   16.57    1.32
  15   5   2   20.12    1.21
  15   5   2   17.78    1.41
 -15   5  -2   17.42    1.32
  15   5   2   15.95    1.36
 -17  -5  -2   11.26    1.14
  17  -5   2    9.21    1.01
  17  -5   2   11.86    0.90
  17   5   2   12.03    1.17
  17   5   2   11.86    0.89
  17   5   2   12.20    1.18
 -17   5  -2   10.57    1.08
 -19  -5  -2    1.27    0.51
  19  -5   2    1.95    0.58
  19  -5   2    2.35    0.25
  19   5   2    1.74    0.46
  19   5   2    2.74    0.15
  19   5   2    2.04    0.49
 -19   5  -2    1.84    0.57
  21  -5   2    3.73    0.76
 -21  -5  -2    5.85    0.79
 -21   5  -2    3.49    0.79
  21   5   2    4.40    0.72
 -23  -5  -2    8.77    0.93
  23  -5   2    8.75    1.11
  23   5   2   11.00    1.04
 -23   5  -2    9.80    1.17
  25  -5   2    0.72    0.35
 -25   5  -2    2.07    0.52
 -27  -5  -2   12.30    1.02
  27  -5   2   10.46    1.16
 -27   5  -2   12.06    1.28
 -24  -6   2    2.42    0.57
  24  -6  -2    2.70    0.30
  24   6  -2    3.09    0.17
  22  -6  -2    6.89    0.88
 -22  -6   2    5.24    0.92
 -22   6   2    6.73    0.94
  22   6  -2    6.69    0.72
  22   6  -2    6.50    0.60
  20  -6  -2    8.61    0.93
 -20  -6   2    8.58    1.17
 -20   6   2    9.50    1.06
  20   6  -2    8.06    0.85
  20   6  -2    9.40    0.89
  18  -6  -2    0.85    0.28
 -18  -6   2   -0.03    0.35
  18   6  -2    0.77    0.22
 -18   6   2    0.83    0.35
 -16  -6   2   10.61    1.17
  16  -6  -2   11.89    1.03
  16   6  -2   11.87    1.13
 -16   6   2   12.07    1.17
  16   6  -2   13.86    1.17
  16   6  -2   11.84    1.21
  14  -6  -2   12.04    0.91
  14  -6  -2   13.51    1.05
 -14  -6   2   11.32    1.18
  14   6  -2   12.39    1.22
  14   6  -2   11.42    1.06
 -14   6   2   11.28    0.89
  14   6  -2   12.93    1.22
  12  -6  -2    1.37    0.30
 -12  -6   2    0.06    0.32
  12  -6  -2    1.24    0.39
  12  -6  -2    0.68    0.16
  12  -6  -2    0.87    0.25
  12   6  -2    0.29    0.40
  12   6  -2    0.28    0.41
  12   6  -2    1.10    0.30
  10  -6  -2   19.14    1.19
  10  -6  -2   19.26    1.26
  10  -6  -2   18.10    1.28
 -10  -6   2   17.89    1.39
  10  -6  -2   18.92    1.23
  10   6  -2   19.37    1.51
  10   6  -2   19.41    1.38
  10   6  -2   19.85    1.49
   8  -6  -2   12.82    1.04
   8  -6  -2   10.91    0.93
  -8  -6   2   11.36    1.07
   8  -6  -2   12.52    0.98
   8  -6  -2   12.85    0.91
   8   6  -2   12.12    1.11
   8   6  -2   12.72    1.19
   8   6  -2   11.44    1.03
  -6  -6   2   31.11    1.86
   6  -6  -2   32.88    1.61
   6  -6  -2   30.88    1.71
  -6  -6   2   31.52    1.76
   6  -6  -2   30.80    1.62
  -6   6   2   30.39    1.51
   6   6  -2   30.36    1.70
   6   6  -2   33.35    1.75
   4  -6  -2   25.70    1.32
   4  -6  -2   22.98    1.49
  -4  -6   2   23.53    1.59
   4  -6  -2   22.80    1.38
  -4  -6   2   24.74    1.49
   4   6  -2   21.11    1.35
   4   6  -2   23.13    1.41
  -4   6   2   22.59    1.23
  -4   6   2   23.31    0.95
  -2  -6   2   11.99    1.11
   2  -6  -2   12.83    0.82
  -2  -6   2   10.73    0.96
   2  -6  -2   10.82    1.02
   2  -6  -2   10.16    0.94
   2   6  -2   11.23    0.93
  -2   6   2   11.48    0.72
   2   6  -2   11.12    0.95
  -2   6   2   12.79    0.85
   0  -6  -2    1.24    0.43
   0  -6   2    1.47    0.50
   0  -6   2    1.80    0.46
   0   6   2    1.63    0.54
   0   6  -2    1.96    0.46
   0   6   2    3.36    0.36
   0   6   2    2.09    0.43
   0   6  -2    2.16    0.49
   2  -6   2    6.89    0.73
   2  -6   2    6.58    0.86
  -2  -6  -2    5.83    0.79
   2   6   2    8.05    0.62
  -2   6  -2    5.59    0.61
   2   6   2    5.89    0.86
  -2   6  -2    6.33    0.79
   2   6   2    6.30    0.67
  -4  -6  -2    0.50    0.38
   4  -6   2    0.60    0.42
   4  -6   2    1.02    0.32
  -4   6  -2    0.72    0.39
   4   6   2    0.57    0.34
   4   6   2    0.90    0.46
  -4   6  -2    0.75    0.28
  -6  -6  -2    2.58    0.61
   6  -6   2    2.34    0.55
   6  -6   2    3.22    0.46
   6   6   2    3.26    0.62
  -6   6  -2    2.38    0.56
  -6   6  -2    2.79    0.39
   6   6   2    2.05    0.61
   8  -6   2    2.83    0.40
   8  -6   2    1.35    0.46
  -8  -6  -2    2.13    0.57
  -8   6  -2    2.76    0.28
  -8   6  -2    2.51    0.63
   8   6   2    2.14    0.56
   8   6   2    2.14    0.61
  -8   6  -2    1.91    0.31
  10  -6   2    6.99    0.86
 -10  -6  -2    6.92    0.94
  10  -6   2    8.16    0.62
  10  -6   2    6.21    0.82
  10   6   2    7.29    1.01
 -10   6  -2    8.39    0.71
  10   6   2    8.02    0.60
  10   6   2    6.67    0.93
  12  -6   2    2.10    0.55
  12  -6   2    2.74    0.49
 -12  -6  -2    2.91    0.68
  12   6   2    1.85    0.61
  12   6   2    1.54    0.60
 -12   6  -2    2.46    0.42
 -14  -6  -2   10.94    1.17
  14  -6   2   13.36    1.03
  14  -6   2   10.64    1.05
  14   6   2   13.77    1.23
  14   6   2   10.71    1.27
 -14   6  -2   12.65    1.03
 -16  -6  -2    3.66    0.78
  16  -6   2    3.90    0.72
  16  -6   2    4.88    0.54
 -16   6  -2    5.11    0.72
  16   6   2    4.92    0.82
  16   6   2    3.54    0.76
  18  -6   2    3.24    0.69
 -18  -6  -2    2.98    0.74
  18  -6   2    4.72    0.50
 -18   6  -2    4.37    0.67
  18   6   2    3.72    0.69
  18   6   2    3.87    0.74
 -20  -6  -2    6.08    0.93
  20  -6   2    5.22    0.85
 -20   6  -2    6.25    0.77
  20   6   2    6.29    0.89
 -22  -6  -2    4.66    0.71
  22  -6   2    4.94    0.80
 -22   6  -2    5.36    0.64
  22   6   2    5.36    0.81
 -24  -6  -2    2.23    0.23
  24  -6   2    2.03    0.49
  24   6   2    3.42    0.37
 -21  -7   2    1.00    0.37
  21  -7  -2    2.07    0.19
  19  -7  -2    2.67    0.48
 -19  -7   2    2.55    0.70
 -19   7   2    3.27    0.29
  19   7  -2    2.88    0.53
  19   7  -2    3.25    0.58
  19   7  -2    3.41    0.24
 -17  -7   2    0.30    0.39
  17  -7  -2    1.51    0.29
  17   7  -2    1.27    0.34
  17   7  -2    1.17    0.28
  15  -7  -2    7.08    0.74
 -15  -7   2    7.11    1.07
  15  -7  -2    7.51    0.70
  15   7  -2    7.01    0.98
  15   7  -2    8.04    1.04
  15   7  -2    7.54    0.70
 -15   7   2    6.77    0.70
 -13  -7   2    0.38    0.39
  13  -7  -2    1.24    0.25
  13  -7  -2    1.00    0.23
  13   7  -2    0.84    0.45
  13   7  -2    1.78    0.16
  13   7  -2    1.42    0.47
 -11  -7   2    1.51    0.60
  11  -7  -2    2.32    0.44
  11  -7  -2    2.01    0.39
  11  -7  -2    2.21    0.43
  11   7  -2    2.68    0.29
  11   7  -2    1.49    0.61
  11   7  -2    1.21    0.51
  -9  -7   2    0.10    0.34
   9  -7  -2    0.72    0.20
   9   7  -2    0.13    0.32
   9   7  -2    0.06    0.33
  -9   7   2    0.46    0.25
  -7  -7   2    0.29    0.42
   7  -7  -2    0.86    0.32
   7  -7  -2    0.57    0.28
   7   7  -2    0.47    0.42
   7   7  -2    0.37    0.44
   7   7  -2    1.23    0.24
  -7   7   2    1.09    0.33
   5  -7  -2    0.94    0.34
   5  -7  -2    0.70    0.40
  -5  -7   2    0.64    0.41
  -5  -7   2    0.73    0.47
   5   7  -2    0.69    0.42
  -5   7   2    1.46    0.27
  -5   7   2    0.72    0.25
   5   7  -2    1.48    0.39
   3  -7  -2    0.17    0.30
  -3  -7   2    0.83    0.49
  -3  -7   2    0.45    0.35
   3   7  -2    0.22    0.35
  -3   7   2    0.33    0.25
   3   7  -2    0.69    0.24
  -1  -7   2    1.86    0.60
   1  -7  -2    1.86    0.55
  -1  -7   2    1.46    0.42
  -1   7   2    1.77    0.41
   1   7  -2    1.62    0.49
  -1   7   2    1.05    0.55
   1   7  -2    2.07    0.49
   1  -7   2    1.63    0.57
  -1  -7  -2    1.58    0.51
   1  -7   2    2.21    0.45
  -1   7  -2    0.91    0.39
   1   7   2    2.25    0.49
  -1   7  -2    1.79    0.48
   1   7   2    1.39    0.57
   3  -7   2   12.32    1.00
  -3  -7  -2   10.35    1.07
   3  -7   2   10.99    1.11
   3   7   2   10.71    0.93
  -3   7  -2   10.38    0.84
   3   7   2   10.20    1.15
  -3   7  -2   10.49    0.99
   5  -7   2    4.23    0.52
  -5  -7  -2    3.58    0.74
   5  -7   2    3.13    0.71
   5   7   2    2.99    0.60
  -5   7  -2    3.42    0.51
  -5   7  -2    3.44    0.66
   5   7   2    3.93    0.84
   7  -7   2   13.07    0.95
  -7  -7  -2    9.73    1.09
   7  -7   2    9.77    1.00
  -7   7  -2    9.88    1.04
  -7   7  -2    9.91    0.70
   7   7   2    9.87    0.99
   7   7   2   10.55    1.27
  -9  -7  -2    1.23    0.54
   9  -7   2    2.50    0.59
  -9   7  -2    1.29    0.54
  -9   7  -2    2.26    0.36
   9   7   2    1.93    0.59
   9   7   2    0.96    0.55
 -11  -7  -2   -0.23    0.31
  11  -7   2    0.77    0.25
  11   7   2    0.42    0.41
 -11   7  -2    0.83    0.22
 -11   7  -2    0.52    0.42
  11   7   2    0.56    0.41
  13  -7   2    7.09    0.76
 -13  -7  -2    6.38    1.02
  13   7   2    6.54    0.95
  13   7   2    4.77    0.93
  15  -7   2    1.32    0.20
  15  -7   2    1.13    0.34
 -15  -7  -2    0.65    0.49
  15   7   2    0.87    0.38
  15   7   2    0.78    0.32
  17  -7   2    3.58    0.66
  17  -7   2    3.95    0.56
 -17  -7  -2    3.21    0.79
 -17   7  -2    4.09    0.38
  17   7   2    3.71    0.68
  17   7   2    2.95    0.70
  19  -7   2    7.99    1.01
 -19  -7  -2    9.19    1.18
 -19   7  -2    9.45    0.82
  19   7   2    8.68    1.12
  19   7   2   10.82    1.13
 -21  -7  -2    1.43    0.33
  21  -7   2    2.08    0.41
 -21   7  -2    2.45    0.13
  21   7   2    2.00    0.38
 -16  -8   2    2.07    0.53
  16   8  -2    1.92    0.38
  16   8  -2    2.64    0.54
  14  -8  -2    9.11    0.82
 -14  -8   2    8.70    1.16
 -14   8   2   12.63    0.97
  14   8  -2    9.04    1.00
  14   8  -2    7.61    1.06
 -12  -8   2    6.35    1.00
  12  -8  -2    7.66    0.75
 -12   8   2    7.54    0.64
  12   8  -2    6.63    1.04
  12   8  -2    5.65    0.91
  10  -8  -2    2.39    0.43
 -10  -8   2    1.12    0.50
  10  -8  -2    2.06    0.35
  10   8  -2    1.70    0.59
  10   8  -2    0.82    0.36
   8  -8  -2    2.26    0.51
   8  -8  -2    2.41    0.45
  -8  -8   2    1.02    0.50
   8   8  -2    1.69    0.50
  -8   8   2    2.14    0.19
   8   8  -2    0.89    0.49
  -6  -8   2    0.53    0.35
   6  -8  -2    1.64    0.40
  -6   8   2    0.92    0.16
   6   8  -2    0.85    0.42
   6   8  -2    0.00    0.29
   4  -8  -2    1.21    0.35
  -4  -8   2    1.13    0.44
  -4  -8   2    0.24    0.40
   4   8  -2    0.82    0.37
  -4   8   2    0.51    0.20
  -4   8   2    0.81    0.44
   2  -8  -2    1.08    0.34
  -2  -8   2    1.66    0.54
  -2  -8   2    1.10    0.37
  -2   8   2    0.65    0.34
  -2   8   2    0.92    0.52
   2   8  -2    1.48    0.16
   2   8  -2    0.64    0.37
   0  -8  -2   10.49    1.12
   0  -8   2   12.81    1.13
   0  -8   2   11.41    1.24
   0   8  -2   11.91    0.98
   0   8  -2   10.51    0.97
   0   8   2   11.61    1.35
   0   8   2   11.07    0.91
   2  -8   2    0.82    0.45
  -2  -8  -2    0.21    0.36
  -2   8  -2    1.37    0.29
   2   8   2    0.17    0.32
   2   8   2    0.36    0.47
  -2   8  -2    0.22    0.29
   4  -8   2    4.32    0.81
   4  -8   2    5.42    0.59
  -4  -8  -2    3.35    0.73
   4   8   2    3.88    0.86
   4   8   2    3.66    0.65
  -4   8  -2    5.42    0.63
  -4   8  -2    5.15    0.60
   6  -8   2    2.71    0.63
   6  -8   2    4.02    0.43
  -6  -8  -2    2.39    0.65
  -6   8  -2    3.19    0.53
   6   8   2    1.87    0.69
  -6   8  -2    2.54    0.46
   6   8   2    2.61    0.56
  -8  -8  -2    0.41    0.32
  -8   8  -2    0.66    0.17
   8   8   2    0.56    0.38
  -8   8  -2    0.61    0.19
   8   8   2    0.55    0.37
  10  -8   2    1.23    0.22
 -10  -8  -2    1.18    0.47
 -10   8  -2    0.98    0.24
  10   8   2    0.90    0.34
  10   8   2    0.80    0.51
  12  -8   2    2.15    0.39
 -12  -8  -2    1.55    0.62
 -12   8  -2    1.97    0.42
  12   8   2    2.06    0.62
  12   8   2    1.92    0.52
 -12   8  -2    2.75    0.21
  14  -8   2    3.92    0.61
 -14  -8  -2    2.98    0.80
 -14   8  -2    5.50    0.77
 -14   8  -2    4.04    0.28
  14   8   2    3.70    0.79
  14   8   2    4.19    0.69
 -16  -8  -2    1.51    0.44
 -16   8  -2    2.63    0.13
 -16   8  -2    2.46    0.45
  16   8   2    1.83    0.38
  16   8   2    1.32    0.38
  -9  -9   2    5.66    0.87
   9   9  -2    4.62    0.86
  -9   9   2    5.66    0.53
  -9   9   2    5.79    0.33
   9   9  -2    5.69    0.82
   7  -9  -2    6.80    0.71
  -7  -9   2    7.01    0.96
  -7   9   2    6.15    0.61
   7   9  -2    6.09    1.02
  -7   9   2    6.49    0.42
   7   9  -2    6.86    0.93
   5  -9  -2    1.81    0.22
  -5   9   2    1.47    0.12
   5   9  -2    0.88    0.30
   5   9  -2    1.16    0.30
  -3  -9   2    6.40    0.72
   3  -9  -2    6.09    0.72
   3   9  -2    6.48    0.85
   3   9  -2    4.28    0.93
  -3   9   2    6.36    0.59
  -3   9   2    6.53    0.98
  -1  -9   2    2.82    0.51
   1  -9  -2    1.58    0.34
  -1  -9   2    2.06    0.50
  -1   9   2    1.46    0.54
   1   9  -2    2.67    0.49
  -1   9   2    3.23    0.49
   1  -9   2   13.10    1.32
  -1  -9  -2   13.69    1.29
   1  -9   2   13.81    1.17
  -1   9  -2   12.74    1.03
   1   9   2   12.03    1.31
   1   9   2   12.87    1.03
  -3  -9  -2    0.48    0.16
   3  -9   2    1.82    0.38
  -3   9  -2    0.90    0.23
   3   9   2    0.38    0.36
   3   9   2    0.45    0.25
   5  -9   2    2.64    0.56
  -5  -9  -2    2.15    0.53
  -5   9  -2    1.66    0.31
  -5   9  -2    1.58    0.13
   5   9   2    2.23    0.45
   5   9   2    1.93    0.65
  -7  -9  -2    5.13    0.85
   7  -9   2    4.80    0.76
   7   9   2    4.81    0.87
  -7   9  -2    4.31    0.43
  -7   9  -2    4.55    0.40
   7   9   2    5.13    0.74
   9  -9   2    9.82    0.99
  -9  -9  -2    9.37    1.12
  -9   9  -2    9.65    0.63
  -9   9  -2   10.65    0.91
   9   9   2   11.08    1.23
   9   9   2   11.53    1.09
 -32   0   3    0.99    0.22
  32   0  -3    1.19    0.39
  30   0  -3    0.63    0.40
 -30   0   3    1.04    0.32
  28   0  -3    0.04    0.42
 -28   0   3    0.43    0.26
 -26   0   3    0.10    0.34
  26   0  -3    0.07    0.41
 -24   0   3    0.69    0.17
  24   0  -3    0.07    0.38
 -24   0   3   -0.23    0.30
 -22   0   3    0.05    0.32
  22   0  -3    0.01    0.32
 -22   0   3    0.49    0.20
  20   0  -3    0.01    0.28
 -20   0   3    0.25    0.21
 -20   0   3   -0.19    0.26
 -18   0   3   -0.10    0.26
  18   0  -3    0.13    0.32
 -18   0   3    0.11    0.22
 -16   0   3   -0.04    0.22
 -16   0   3    0.01    0.23
  16   0  -3    0.59    0.36
  14   0  -3   -0.05    0.23
 -14   0   3    0.11    0.20
  12   0  -3    0.18    0.23
 -12   0   3    0.06    0.17
  12   0  -3    0.56    0.25
  10   0  -3    0.00    0.14
 -10   0   3   -0.02    0.16
  10   0  -3   -0.09    0.14
   8   0  -3    0.40    0.18
   8   0  -3    0.47    0.21
  -8   0   3    0.16    0.18
   6   0  -3    0.22    0.15
  -6   0   3    0.09    0.14
   6   0  -3    0.39    0.10
   6   0  -3    0.10    0.13
   4   0  -3    0.10    0.12
  -4   0   3    0.15    0.05
   4   0  -3    0.24    0.06
   4   0  -3    0.00    0.12
  -4   0   3    0.41    0.16
   2   0  -3    0.32    0.09
   2   0  -3    0.10    0.10
  -2   0   3    0.06    0.06
  -2   0   3    0.06    0.09
   2   0  -3    0.07    0.07
   0   0   3    0.10    0.08
   0   0   3    0.09    0.07
   0   0  -3    0.11    0.09
   0   0  -3    0.02    0.05
   0   0  -3    0.10    0.07
   2   0   3    0.11    0.07
   2   0   3    0.22    0.09
  -2   0  -3    0.01    0.08
   2   0   3    0.03    0.09
  -2   0  -3    0.09    0.06
   4   0   3    0.05    0.07
  -4   0  -3    0.15    0.12
  -4   0  -3    0.09    0.06
   4   0   3    0.09    0.09
   4   0   3    0.01    0.10
   6   0   3    0.05    0.10
   6   0   3    0.05    0.12
  -6   0  -3    0.06    0.06
  -6   0  -3    0.02    0.11
   6   0   3    0.26    0.08
   8   0   3    0.05    0.12
  -8   0  -3    0.06    0.13
   8   0   3    0.10    0.13
   8   0   3    0.34    0.08
  -8   0  -3    0.21    0.07
  10   0   3    0.03    0.14
  10   0   3    0.19    0.16
 -10   0  -3    0.05    0.17
 -12   0  -3    0.03    0.20
  12   0   3   -0.05    0.14
  12   0   3   -0.04    0.18
 -14   0  -3    0.04    0.22
  14   0   3    0.24    0.20
  14   0   3    0.10    0.21
 -16   0  -3    0.10    0.25
  16   0   3    0.59    0.19
  16   0   3   -0.05    0.23
 -18   0  -3    0.15    0.32
  18   0   3    0.17    0.24
  18   0   3    0.63    0.18
  20   0   3    0.68    0.16
 -20   0  -3   -0.14    0.32
  20   0   3    0.00    0.30
  22   0   3    0.03    0.32
 -22   0  -3   -0.04    0.35
  24   0   3   -0.23    0.28
 -24   0  -3   -0.05    0.34
 -26   0  -3   -0.31    0.30
  26   0   3    0.44    0.28
  28   0   3    0.44    0.28
 -28   0  -3    0.38    0.39
 -30   0  -3    1.87    0.46
 -31  -1   3    7.43    0.85
  31  -1  -3    8.81    1.21
 -31   1   3    8.04    1.10
  31   1  -3    9.30    1.24
 -29  -1   3    6.15    0.75
  29  -1  -3    7.10    1.10
 -29   1   3    5.73    1.00
  29   1  -3    6.42    1.04
  27  -1  -3    0.80    0.48
 -27  -1   3    1.75    0.45
 -27   1   3    0.77    0.50
  27   1  -3    0.59    0.47
 -25  -1   3    1.22    0.27
 -25  -1   3    0.64    0.30
  25  -1  -3    0.33    0.43
 -25   1   3    0.56    0.48
  25   1  -3    0.25    0.37
 -23  -1   3    1.65    0.48
 -23  -1   3    2.69    0.51
  23  -1  -3    1.29    0.56
  23   1  -3    1.94    0.62
 -23   1   3    1.39    0.54
 -21  -1   3   21.22    1.34
  21  -1  -3   20.00    1.45
 -21  -1   3   20.24    1.31
 -21   1   3   21.62    1.27
 -21   1   3   19.64    1.46
  21   1  -3   21.17    1.53
 -19  -1   3    2.11    0.48
  19  -1  -3    1.98    0.52
 -19  -1   3    1.55    0.41
 -19   1   3    1.96    0.54
 -19   1   3    2.18    0.41
  19   1  -3    1.97    0.54
 -17  -1   3    8.07    0.74
  17  -1  -3    8.65    0.87
 -17  -1   3    8.31    0.77
 -17   1   3    7.80    0.87
  17   1  -3    8.77    0.48
 -17   1   3    9.01    0.76
  17   1  -3    8.99    0.90
  15  -1  -3    1.45    0.43
  15  -1  -3    1.88    0.11
 -15  -1   3    1.41    0.34
  15  -1  -3    1.38    0.41
 -15  -1   3    1.27    0.37
 -15   1   3    1.40    0.37
  15   1  -3    1.41    0.41
  15   1  -3    1.98    0.24
  15   1  -3    1.78    0.17
  13  -1  -3    0.39    0.30
 -13  -1   3    0.08    0.23
  13  -1  -3    0.28    0.25
 -13  -1   3    0.20    0.20
  13   1  -3    0.15    0.25
 -13   1   3    0.06    0.21
 -11  -1   3   29.31    1.28
  11  -1  -3   32.32    0.75
  11  -1  -3   29.73    1.36
 -11  -1   3   30.38    1.19
  11  -1  -3   30.71    1.31
  11   1  -3   28.19    1.35
  11   1  -3   30.21    0.97
 -11   1   3   31.08    1.30
 -11   1   3   28.46    1.14
  11   1  -3   29.81    1.37
   9  -1  -3   47.50    1.08
   9  -1  -3   49.01    1.61
   9  -1  -3   48.42    1.74
  -9  -1   3   47.88    1.64
   9   1  -3   47.76    1.71
   9   1  -3   46.34    1.46
   9   1  -3   49.44    1.79
  -9   1   3   48.86    1.49
  -9   1   3   49.48    1.66
   9   1  -3   48.71    1.33
  -7  -1   3    3.69    0.28
   7  -1  -3    3.85    0.37
   7  -1  -3    4.06    0.44
  -7  -1   3    3.58    0.38
   7   1  -3    3.31    0.29
   7   1  -3    3.93    0.40
  -7   1   3    3.94    0.40
   7   1  -3    3.88    0.43
  -7   1   3    4.47    0.31
  -5  -1   3   17.77    0.78
  -5  -1   3   17.53    0.64
   5  -1  -3   16.43    0.68
   5  -1  -3   18.34    0.88
  -5   1   3   18.49    0.55
   5   1  -3   16.86    0.81
  -5   1   3   18.45    0.67
   5   1  -3   15.66    0.84
  -5   1   3   17.19    0.77
   5   1  -3   17.23    0.64
   3  -1  -3   14.03    0.51
   3  -1  -3   12.86    0.60
  -3  -1   3   13.49    0.53
   3  -1  -3   13.38    0.72
  -3  -1   3   14.12    0.62
  -3   1   3   14.67    0.57
  -3   1   3   14.37    0.48
   3   1  -3   13.32    0.53
   3   1  -3   13.62    0.70
  -3   1   3   14.59    0.52
   3   1  -3   13.47    0.65
  -1  -1   3    0.15    0.12
   1  -1  -3    0.22    0.17
  -1  -1   3    0.22    0.12
   1  -1  -3    0.24    0.13
  -1   1   3    0.17    0.13
  -1   1   3    0.23    0.10
  -1   1   3    0.25    0.11
   1   1  -3    0.28    0.14
   1   1  -3    0.32    0.15
   1   1  -3    0.15    0.10
   1  -1   3   13.62    0.57
   1  -1   3   13.64    0.46
  -1  -1  -3   12.95    0.56
  -1  -1  -3   12.29    0.61
   1   1   3   12.63    0.58
  -1   1  -3   13.10    0.57
  -1   1  -3   12.48    0.53
   1   1   3   12.51    0.53
  -1   1  -3   13.48    0.51
   3  -1   3    2.39    0.29
   3  -1   3    2.60    0.14
   3  -1   3    2.67    0.29
  -3  -1  -3    2.24    0.26
  -3  -1  -3    2.38    0.29
   3   1   3    2.56    0.17
   3   1   3    2.58    0.32
  -3   1  -3    2.71    0.28
   3   1   3    2.41    0.28
   5  -1   3   54.47    1.53
  -5  -1  -3   52.98    1.51
  -5  -1  -3   52.05    1.58
   5  -1   3   53.09    1.52
  -5   1  -3   56.81    1.63
   5   1   3   53.07    1.64
   5   1   3   53.50    1.36
   5   1   3   56.28    1.64
  -7  -1  -3   -0.18    0.16
   7  -1   3   -0.07    0.19
   7  -1   3    0.01    0.20
  -7  -1  -3   -0.09    0.20
  -7   1  -3   -0.09    0.22
   7   1   3    0.06    0.21
   7   1   3    0.38    0.27
   7   1   3    0.03    0.17
   9  -1   3   21.28    0.94
   9  -1   3   18.38    0.90
  -9  -1  -3   19.50    0.84
  -9  -1  -3   19.63    0.95
  -9   1  -3   21.30    0.57
   9   1   3   19.74    0.99
  -9   1  -3   20.63    1.01
   9   1   3   20.21    0.88
   9   1   3   19.27    0.96
 -11  -1  -3    1.21    0.23
  11  -1   3    1.73    0.32
 -11  -1  -3    1.60    0.34
  11  -1   3    0.81    0.28
 -11   1  -3    0.92    0.32
 -11   1  -3    1.60    0.12
  11   1   3    1.14    0.33
  11   1   3    1.25    0.25
  11   1   3    0.98    0.26
  13  -1   3    7.06    0.58
 -13  -1  -3    6.61    0.63
 -13  -1  -3    8.54    0.56
  13  -1   3    7.18    0.65
 -13   1  -3    8.73    0.40
  13   1   3    7.40    0.61
 -13   1  -3    6.76    0.70
  13   1   3    7.09    0.65
  13   1   3    7.31    0.64
 -15  -1  -3    6.24    0.67
  15  -1   3    5.58    0.63
  15  -1   3    6.53    0.56
 -15  -1  -3    7.20    0.55
  15   1   3    5.87    0.60
  15   1   3    6.27    0.65
 -15   1  -3    5.77    0.68
 -15   1  -3    7.22    0.39
  15   1   3    7.11    0.61
  17  -1   3   17.31    0.97
  17  -1   3   16.24    1.12
 -17  -1  -3   17.76    1.18
 -17  -1  -3   19.45    0.98
  17   1   3   17.50    1.15
  17   1   3   16.52    1.04
 -17   1  -3   17.27    1.21
 -19  -1  -3    0.33    0.32
  19  -1   3    0.78    0.18
  19  -1   3    0.87    0.42
  19   1   3    0.97    0.42
  19   1   3    0.92    0.25
 -19   1  -3    0.22    0.34
  21  -1   3    0.62    0.41
  21  -1   3    1.94    0.21
 -21  -1  -3    1.09    0.46
 -21   1  -3    1.13    0.50
  21   1   3    1.58    0.31
  21   1   3    1.37    0.46
 -23  -1  -3    4.58    0.77
  23  -1   3    3.27    0.69
 -23   1  -3    5.70    0.92
  23   1   3    6.05    0.81
  23   1   3    5.81    0.53
  25  -1   3    2.53    0.67
 -25  -1  -3    2.40    0.63
 -25   1  -3    2.56    0.69
  25   1   3    4.25    0.70
 -27  -1  -3    0.86    0.38
  27  -1   3    0.46    0.34
 -27   1  -3    0.43    0.42
  27   1   3    0.68    0.18
 -29  -1  -3    1.28    0.34
  29  -1   3    1.63    0.42
 -29   1  -3    0.54    0.34
  29   1   3    1.44    0.14
  31  -1   3    4.52    0.76
 -31  -1  -3    5.13    0.77
 -31   1  -3    4.30    0.79
  31   1   3    4.99    0.40
 -30  -2   3    4.46    0.41
  30  -2  -3    3.64    0.75
 -30  -2   3    4.60    0.53
 -30   2   3    3.68    0.83
  30   2  -3    3.71    0.78
 -28  -2   3   19.44    1.35
 -28  -2   3   19.05    1.38
  28  -2  -3   18.19    1.57
  28   2  -3   17.44    1.59
 -28   2   3   16.95    1.64
  26  -2  -3    0.41    0.40
 -26  -2   3    0.76    0.20
 -26  -2   3    0.97    0.22
 -26   2   3   -0.07    0.39
  26   2  -3   -0.02    0.32
  24  -2  -3   10.87    1.14
 -24  -2   3   11.47    1.04
 -24  -2   3   12.05    0.99
 -24   2   3   10.85    1.23
  24   2  -3   11.03    1.23
 -22  -2   3    4.05    0.59
 -22  -2   3    4.48    0.71
  22  -2  -3    4.25    0.78
 -22   2   3    3.69    0.80
  22   2  -3    3.07    0.72
 -22   2   3    5.11    0.49
  20  -2  -3   28.28    1.68
 -20  -2   3   28.67    1.60
 -20  -2   3   28.47    1.46
 -20   2   3   31.52    1.91
 -20   2   3   30.59    1.50
  20   2  -3   27.83    1.75
 -18  -2   3   11.67    0.98
 -18  -2   3   13.05    0.89
  18  -2  -3   11.08    1.01
  18   2  -3   13.23    0.75
  18   2  -3   11.40    1.06
 -18   2   3   12.68    0.91
 -18   2   3   12.66    1.14
 -16  -2   3   14.26    1.04
  16  -2  -3   16.77    0.60
  16  -2  -3   15.36    1.17
  16  -2  -3   14.92    1.07
 -16  -2   3   14.54    0.89
 -16   2   3   15.10    0.98
  16   2  -3   15.12    1.16
  16   2  -3   16.36    1.14
  16   2  -3   15.39    0.82
 -14  -2   3   60.96    2.18
  14  -2  -3   57.81    1.46
 -14  -2   3   55.30    1.83
  14  -2  -3   56.25    2.09
  14  -2  -3   56.28    2.27
  14   2  -3   53.02    2.19
  14   2  -3   56.37    2.31
 -14   2   3   57.58    2.06
 -14   2   3   55.91    1.81
  14   2  -3   53.47    1.78
  12  -2  -3   66.61    2.19
  12  -2  -3   66.96    2.42
 -12  -2   3   67.26    1.95
  12  -2  -3   67.25    1.65
 -12  -2   3   67.44    2.29
  12   2  -3   64.18    2.45
  12   2  -3   65.78    1.98
 -12   2   3   68.22    2.23
 -12   2   3   66.78    1.91
  12   2  -3   65.25    2.37
 -10  -2   3   39.41    1.24
 -10  -2   3   39.49    1.57
  10  -2  -3   38.06    1.43
  10  -2  -3   40.05    1.69
  10  -2  -3   39.51    1.13
  10   2  -3   39.00    1.72
 -10   2   3   38.65    1.19
 -10   2   3   37.61    1.48
  10   2  -3   38.67    1.40
  10   2  -3   40.47    1.66
   8  -2  -3   69.63    1.97
  -8  -2   3   70.72    1.77
   8  -2  -3   69.54    2.33
  -8  -2   3   68.34    2.00
   8  -2  -3   70.66    1.75
  -8  -2   3   71.63    2.20
  -8   2   3   71.39    2.14
   8   2  -3   67.68    2.25
   8   2  -3   69.43    2.37
  -8   2   3   70.63    1.70
   6  -2  -3   10.05    0.62
  -6  -2   3   10.35    0.38
   6  -2  -3   10.07    0.72
   6  -2  -3   10.18    0.54
   6  -2  -3    9.78    0.51
  -6  -2   3   10.11    0.65
  -6  -2   3   10.24    0.61
  -6   2   3   10.29    0.35
   6   2  -3   10.73    0.76
   6   2  -3   10.74    0.74
  -6   2   3   10.05    0.34
  -4  -2   3   25.84    1.02
   4  -2  -3   26.08    1.03
   4  -2  -3   25.80    0.83
  -4  -2   3   26.17    1.00
   4  -2  -3   25.30    1.17
  -4   2   3   26.12    0.94
   4   2  -3   24.37    1.13
   4   2  -3   26.14    1.11
   2  -2  -3   10.11    0.70
  -2  -2   3   11.40    0.59
   2  -2  -3   11.34    0.63
  -2  -2   3   11.34    0.61
   2  -2  -3   11.07    0.42
   2   2  -3   11.93    0.36
  -2   2   3   10.21    0.58
   2   2  -3   11.20    0.64
   2   2  -3   11.07    0.64
  -2   2   3   11.08    0.41
  -2   2   3   11.06    0.42
   0  -2   3   12.81    0.65
   0  -2  -3   11.85    0.65
   0  -2  -3   12.10    0.72
   0  -2   3   12.71    0.57
   0   2  -3   12.19    0.65
   0   2   3   12.63    0.67
   0   2  -3   12.96    0.46
   0   2  -3   12.12    0.58
   0   2   3   12.54    0.43
   0   2   3   12.00    0.53
  -2  -2  -3    2.99    0.33
   2  -2   3    3.06    0.24
  -2  -2  -3    3.05    0.33
   2  -2   3    2.51    0.31
  -2   2  -3    3.27    0.27
  -2   2  -3    2.79    0.26
   2   2   3    3.11    0.38
  -2   2  -3    3.07    0.35
   2   2   3    3.15    0.31
   2   2   3    3.60    0.21
  -4  -2  -3   26.67    1.04
   4  -2   3   28.07    0.82
   4  -2   3   27.47    1.03
  -4  -2  -3   26.28    1.06
   4  -2   3   28.42    1.07
   4   2   3   26.23    1.12
  -4   2  -3   27.90    1.00
   4   2   3   26.69    1.08
   4   2   3   28.92    0.85
  -6  -2  -3    0.76    0.20
   6  -2   3    0.67    0.22
  -6  -2  -3    0.81    0.23
   6  -2   3    1.02    0.08
   6  -2   3    1.98    0.32
   6   2   3    0.74    0.25
   6   2   3    0.97    0.15
  -6   2  -3    0.86    0.23
   6   2   3    0.66    0.22
  -8  -2  -3    0.15    0.16
   8  -2   3    0.24    0.19
  -8  -2  -3    0.08    0.15
   8  -2   3    0.04    0.13
  -8   2  -3    0.10    0.18
   8   2   3    0.13    0.20
   8   2   3    0.45    0.14
   8   2   3    0.29    0.17
  10  -2   3   17.32    0.89
  10  -2   3   17.15    0.96
 -10  -2  -3   16.83    0.91
 -10  -2  -3   16.40    0.89
 -10   2  -3   17.24    0.77
 -10   2  -3   17.98    0.56
 -10   2  -3   16.91    0.98
  10   2   3   16.55    1.00
  10   2   3   17.38    0.85
  10   2   3   16.84    1.01
  12  -2   3    5.23    0.57
 -12  -2  -3    5.74    0.56
  12  -2   3    5.50    0.53
 -12  -2  -3    5.78    0.56
  12   2   3    6.33    0.54
 -12   2  -3    6.54    0.68
  12   2   3    5.96    0.64
  12   2   3    6.38    0.62
 -12   2  -3    6.93    0.30
 -12   2  -3    5.81    0.42
  14  -2   3   13.91    0.98
 -14  -2  -3   14.33    0.96
  14  -2   3   15.43    0.88
 -14  -2  -3   15.88    0.95
  14   2   3   16.21    1.08
  14   2   3   14.88    0.92
 -14   2  -3   16.58    0.58
  14   2   3   13.33    0.99
 -14   2  -3   15.81    1.08
 -16  -2  -3    3.57    0.49
 -16  -2  -3    2.54    0.49
  16  -2   3    2.10    0.49
  16  -2   3    3.09    0.42
  16   2   3    3.39    0.49
  16   2   3    3.05    0.46
  16   2   3    2.27    0.48
 -16   2  -3    1.94    0.51
  18  -2   3    2.17    0.56
  18  -2   3    3.33    0.42
 -18  -2  -3    1.98    0.48
 -18  -2  -3    2.85    0.44
  18   2   3    2.44    0.44
  18   2   3    2.70    0.48
 -18   2  -3    2.04    0.55
  20  -2   3   18.53    1.35
 -20  -2  -3   19.61    1.33
  20  -2   3   21.39    1.13
 -20  -2  -3   21.01    1.20
  20   2   3   20.43    1.30
 -20   2  -3   18.15    1.41
  20   2   3   20.71    1.35
  22  -2   3    9.65    0.68
 -22  -2  -3    8.66    0.91
 -22  -2  -3    9.78    0.76
  22  -2   3    8.41    1.02
 -22   2  -3    9.17    1.06
  22   2   3    8.03    0.84
  22   2   3    8.55    0.77
 -24  -2  -3    4.69    0.74
  24  -2   3    3.12    0.72
  24   2   3    4.79    0.48
  24   2   3    6.00    0.68
 -24   2  -3    3.69    0.82
  26  -2   3    9.33    1.18
 -26  -2  -3    9.94    1.00
  26   2   3    9.42    0.93
 -26   2  -3    9.59    1.17
 -28  -2  -3    9.42    0.95
  28  -2   3    7.48    1.10
 -28   2  -3    8.70    1.21
  28   2   3    8.72    0.81
 -30  -2  -3   14.01    1.26
  30  -2   3   14.26    1.41
  30   2   3   15.01    1.15
 -30   2  -3   13.90    1.46
  29  -3  -3    1.72    0.51
 -29  -3   3    2.80    0.20
  29   3  -3    2.07    0.45
 -29   3   3    1.27    0.52
  27  -3  -3   14.86    1.39
 -27  -3   3   15.87    1.26
  27   3  -3   13.15    1.34
 -27   3   3   14.34    1.53
 -25  -3   3    8.08    0.88
  25  -3  -3    6.93    1.00
  25   3  -3    8.54    1.17
 -25   3   3    8.19    1.23
 -23  -3   3   12.17    1.12
  23  -3  -3   11.00    1.14
  23   3  -3   10.72    1.27
 -23   3   3   11.54    1.30
  21  -3  -3    0.92    0.44
 -21  -3   3    1.02    0.47
 -21  -3   3    1.86    0.30
  21   3  -3    1.01    0.53
 -21   3   3    1.50    0.60
 -19  -3   3   11.31    0.77
  19  -3  -3   10.43    1.01
 -19  -3   3    9.32    0.94
 -19   3   3   11.97    0.87
  19   3  -3   10.48    1.08
 -19   3   3    8.90    1.08
  19   3  -3   12.08    0.83
  17  -3  -3   32.24    1.85
 -17  -3   3   33.38    1.36
 -17  -3   3   31.78    1.68
  17  -3  -3   30.46    1.61
  17   3  -3   29.08    1.76
  17   3  -3   31.15    1.46
 -17   3   3   31.56    1.53
  17   3  -3   32.48    1.85
 -15  -3   3   37.15    1.78
  15  -3  -3   37.77    1.94
 -15  -3   3   37.75    1.38
  15  -3  -3   39.13    1.28
  15  -3  -3   33.75    1.63
  15   3  -3   37.45    1.61
  15   3  -3   35.40    1.87
 -15   3   3   36.83    1.63
  15   3  -3   37.46    1.94
  13  -3  -3    5.29    0.73
 -13  -3   3    5.09    0.66
  13  -3  -3    5.22    0.62
 -13  -3   3    5.56    0.39
  13  -3  -3    5.76    0.40
  13   3  -3    5.08    0.73
 -13   3   3    5.83    0.36
 -13   3   3    5.13    0.56
  13   3  -3    5.52    0.66
  13   3  -3    5.27    0.56
 -11  -3   3   22.90    1.25
  11  -3  -3   22.02    1.32
  11  -3  -3   21.14    1.08
 -11  -3   3   23.47    0.84
  11  -3  -3   23.51    0.95
 -11   3   3   23.56    0.76
  11   3  -3   20.75    1.16
  11   3  -3   23.57    1.41
  11   3  -3   23.03    1.36
 -11   3   3   22.46    1.16
   9  -3  -3   16.43    0.79
   9  -3  -3   17.28    1.10
   9  -3  -3   15.52    0.84
  -9  -3   3   16.10    0.99
  -9  -3   3   15.80    0.97
  -9  -3   3   16.03    0.56
   9   3  -3   14.50    1.03
  -9   3   3   17.28    0.96
   9   3  -3   16.26    1.11
   7  -3  -3   56.05    1.74
  -7  -3   3   58.18    1.98
  -7  -3   3   56.74    1.97
   7  -3  -3   55.41    1.88
   7  -3  -3   58.05    1.72
   7  -3  -3   54.35    2.08
   7   3  -3   53.83    2.11
   7   3  -3   59.27    2.10
  -5  -3   3   20.73    1.01
  -5  -3   3   19.24    1.01
   5  -3  -3   19.85    0.98
   5  -3  -3   18.65    0.93
   5  -3  -3   20.22    0.81
   5  -3  -3   18.88    1.07
   5   3  -3   18.60    1.04
   5   3  -3   18.13    1.06
  -3  -3   3   88.85    2.51
  -3  -3   3   88.59    2.51
   3  -3  -3   89.42    2.55
   3  -3  -3   89.12    2.15
   3  -3  -3   86.76    2.71
   3   3  -3   90.24    2.57
   3   3  -3   86.30    2.59
  -1  -3   3   22.09    0.96
  -1  -3   3   22.18    1.04
   1  -3  -3   20.31    1.07
   1  -3  -3   23.02    1.06
   1   3  -3   20.81    0.94
  -1   3   3   21.37    0.75
   1   3  -3   23.29    0.62
  -1   3   3   20.58    1.03
  -1   3   3   20.75    0.76
   1   3  -3   20.32    1.00
  -1  -3  -3  150.51    4.02
   1  -3   3  151.15    3.70
   1  -3   3  158.65    3.71
  -1  -3  -3  155.98    3.94
   1   3   3  154.99    3.63
   1   3   3  153.10    3.83
   1   3   3  154.27    3.38
  -1   3  -3  160.17    3.49
  -1   3  -3  157.12    3.78
  -1   3  -3  152.36    3.59
  -3  -3  -3   14.90    0.83
   3  -3   3   14.04    0.81
   3  -3   3   15.17    0.70
  -3  -3  -3   14.65    0.86
  -3   3  -3   15.81    0.65
   3   3   3   13.93    0.88
  -3   3  -3   15.20    0.68
   3   3   3   15.85    0.67
  -3   3  -3   14.63    0.85
   3   3   3   14.49    0.78
   5  -3   3   98.27    2.67
  -5  -3  -3  100.07    2.86
   5  -3   3  100.66    2.48
  -5  -3  -3   97.68    2.73
   5  -3   3  101.54    2.75
  -5   3  -3  103.18    2.69
   5   3   3   99.73    2.91
   5   3   3   98.43    2.49
   5   3   3   97.93    2.81
  -7  -3  -3    0.06    0.21
   7  -3   3    0.06    0.19
  -7  -3  -3    0.62    0.20
   7  -3   3   -0.12    0.15
   7   3   3    0.34    0.28
   7   3   3    0.01    0.18
  -7   3  -3    0.07    0.18
   9  -3   3  333.29    7.22
  -9  -3  -3  345.46    7.89
  -9  -3  -3  331.19    7.66
   9  -3   3  335.07    7.19
   9  -3   3  355.08    7.58
   9   3   3  322.47    7.97
   9   3   3  358.33    7.32
  -9   3  -3  342.48    7.87
   9   3   3  351.49    7.69
  11  -3   3    5.03    0.61
 -11  -3  -3    4.33    0.47
  11  -3   3    4.71    0.55
 -11  -3  -3    4.52    0.55
  11   3   3    4.45    0.65
  11   3   3    5.09    0.46
 -11   3  -3    5.46    0.37
 -11   3  -3    5.62    0.33
 -11   3  -3    4.93    0.59
  11   3   3    5.00    0.66
 -13  -3  -3   19.11    1.06
  13  -3   3   17.74    1.13
  13  -3   3   19.79    1.06
 -13  -3  -3   19.04    1.16
 -13   3  -3   18.28    1.20
  13   3   3   18.97    1.26
  13   3   3   20.32    1.06
  13   3   3   19.38    1.26
 -15  -3  -3   26.25    1.34
 -15  -3  -3   26.36    1.41
  15  -3   3   25.50    1.25
  15  -3   3   24.22    1.40
  15   3   3   25.99    1.33
  15   3   3   27.07    1.57
  15   3   3   25.11    1.49
 -15   3  -3   24.53    1.48
 -17  -3  -3   32.82    1.59
  17  -3   3   28.64    1.62
 -17  -3  -3   29.89    1.57
  17  -3   3   30.41    1.41
 -17   3  -3   28.75    1.71
  17   3   3   30.29    1.75
  17   3   3   32.86    1.58
  17   3   3   30.56    1.66
  19  -3   3   10.08    1.01
  19  -3   3   10.87    0.78
 -19  -3  -3    9.18    0.85
 -19  -3  -3    8.52    0.83
 -19   3  -3    8.56    1.02
  19   3   3    8.77    0.86
  19   3   3   11.38    0.92
 -21  -3  -3    6.89    0.75
 -21  -3  -3    7.46    0.74
  21  -3   3    8.57    0.65
  21  -3   3    4.87    0.82
  21   3   3    7.52    0.77
 -21   3  -3    6.37    0.97
  21   3   3    7.08    0.74
 -23  -3  -3    7.45    0.78
 -23  -3  -3    7.46    0.72
  23  -3   3    6.90    1.01
  23   3   3    5.79    0.66
  23   3   3    7.08    0.74
 -23   3  -3    6.25    1.05
 -25  -3  -3   29.65    1.78
 -25  -3  -3   29.44    1.64
  25  -3   3   28.31    1.95
 -25   3  -3   28.03    2.04
  25   3   3   31.15    1.79
 -27  -3  -3    7.36    0.79
  27  -3   3    6.71    1.03
 -27   3  -3    6.07    1.12
  27   3   3    7.71    0.67
  29  -3   3    4.63    0.85
 -29  -3  -3    5.68    0.58
  29   3   3    4.95    0.41
 -29   3  -3    4.11    0.92
  28  -4  -3   25.59    1.92
 -28  -4   3   23.55    1.66
 -28   4   3   24.65    2.12
  28   4  -3   24.41    1.80
 -26  -4   3    2.41    0.49
  26  -4  -3    2.40    0.60
 -26   4   3    2.01    0.80
  26   4  -3    2.44    0.54
  24  -4  -3   38.49    2.24
 -24  -4   3   39.07    2.22
  24   4  -3   40.50    2.35
 -24   4   3   40.05    2.55
 -22  -4   3    4.80    0.84
  22  -4  -3    5.30    0.85
  22   4  -3    6.43    0.93
 -22   4   3    5.99    1.06
 -20  -4   3   34.34    1.99
  20  -4  -3   37.17    2.00
  20   4  -3   35.32    2.13
 -20   4   3   35.29    2.24
  20   4  -3   37.40    1.81
  18  -4  -3   34.00    1.82
 -18  -4   3   29.78    1.79
  18   4  -3   34.97    1.76
  18   4  -3   37.41    2.13
 -18   4   3   35.17    1.66
  18   4  -3   33.55    1.99
 -16  -4   3  147.00    4.62
  16  -4  -3  158.74    4.42
  16  -4  -3  160.91    4.99
  16   4  -3  151.35    4.76
  16   4  -3  152.01    4.39
  16   4  -3  156.29    5.04
 -16   4   3  154.91    4.39
  14  -4  -3   89.94    2.59
  14  -4  -3   90.69    2.93
  14  -4  -3   88.48    3.36
 -14  -4   3   90.41    3.21
  14   4  -3   96.32    3.35
  14   4  -3   94.37    3.52
  14   4  -3   92.84    3.12
 -14   4   3   92.82    3.00
 -14   4   3   95.43    2.33
 -12  -4   3   33.27    1.70
  12  -4  -3   31.05    1.74
  12  -4  -3   32.38    1.35
  12  -4  -3   32.55    1.50
  12   4  -3   34.50    1.84
 -12   4   3   33.30    1.55
  12   4  -3   33.88    1.87
  12   4  -3   33.56    1.70
 -12   4   3   34.30    0.93
 -10  -4   3   87.38    2.90
  10  -4  -3   83.71    2.55
  10  -4  -3   86.27    2.51
  10  -4  -3   82.06    2.67
  10  -4  -3   80.02    2.95
  10   4  -3   85.44    3.09
  10   4  -3   81.72    2.95
   8  -4  -3   79.78    2.60
   8  -4  -3   78.86    2.82
  -8  -4   3   81.85    2.73
  -8  -4   3   82.50    2.77
   8  -4  -3   83.06    2.49
   8  -4  -3   81.68    2.39
   8   4  -3   80.30    2.80
   8   4  -3   82.27    2.93
   6  -4  -3   42.10    1.68
   6  -4  -3   47.32    1.53
   6  -4  -3   43.61    1.72
  -6  -4   3   43.01    1.83
   6  -4  -3   41.86    1.83
  -6  -4   3   41.80    1.75
   6   4  -3   42.25    1.83
   6   4  -3   41.28    1.86
  -4  -4   3   13.10    0.93
   4  -4  -3   12.58    0.86
   4  -4  -3   12.39    0.85
   4  -4  -3   12.50    0.67
   4  -4  -3   12.03    0.88
  -4  -4   3   12.40    0.86
   4   4  -3   13.00    0.92
   4   4  -3   11.44    0.87
   2  -4  -3    2.79    0.40
   2  -4  -3    2.61    0.44
  -2  -4   3    2.83    0.44
  -2  -4   3    3.40    0.53
   2   4  -3    3.33    0.49
  -2   4   3    2.70    0.32
  -2   4   3    2.66    0.27
   2   4  -3    2.27    0.43
  -2   4   3    2.88    0.48
   0  -4   3   57.24    2.04
   0  -4  -3   56.47    2.05
   0  -4  -3   56.57    2.07
   0  -4   3   58.28    1.94
   0   4   3   59.86    2.15
   0   4   3   60.35    1.71
   0   4  -3   56.89    1.84
   0   4   3   57.65    1.71
   0   4  -3   57.88    2.02
   0   4  -3   59.03    1.50
   2  -4   3   27.25    1.17
   2  -4   3   25.60    1.27
  -2  -4  -3   26.52    1.29
  -2  -4  -3   25.30    1.28
  -2   4  -3   27.38    0.96
   2   4   3   25.85    1.12
   2   4   3   28.18    1.06
  -2   4  -3   26.67    1.03
   2   4   3   25.88    1.37
  -2   4  -3   26.97    1.29
  -4  -4  -3    3.83    0.40
   4  -4   3    2.42    0.45
  -4  -4  -3    2.45    0.47
   4  -4   3    2.40    0.30
  -4   4  -3    2.35    0.28
  -4   4  -3    1.90    0.42
  -4   4  -3    2.36    0.27
   4   4   3    1.73    0.37
   4   4   3    2.68    0.51
   6  -4   3   12.55    0.87
  -6  -4  -3   11.93    0.90
   6  -4   3   13.00    0.70
   6  -4   3   13.49    0.92
  -6  -4  -3   12.85    0.78
   6   4   3   13.42    0.73
   6   4   3   11.56    0.87
   6   4   3   10.60    0.92
  -6   4  -3   12.61    0.76
   8  -4   3   16.95    1.07
  -8  -4  -3   16.43    1.10
   8  -4   3   16.79    1.02
  -8  -4  -3   17.92    0.93
   8  -4   3   18.19    0.82
  -8   4  -3   17.21    0.99
   8   4   3   16.86    1.12
   8   4   3   16.65    1.18
   8   4   3   18.21    0.91
  10  -4   3   44.33    1.86
  10  -4   3   45.60    1.79
 -10  -4  -3   47.40    2.01
  10  -4   3   44.39    1.45
 -10  -4  -3   45.53    1.70
  10   4   3   41.60    1.96
  10   4   3   47.28    2.11
 -10   4  -3   47.26    1.89
  10   4   3   48.14    1.74
 -12  -4  -3    1.31    0.46
  12  -4   3    0.93    0.34
  12  -4   3    1.10    0.41
 -12  -4  -3    1.62    0.29
  12   4   3    1.31    0.48
 -12   4  -3    1.23    0.40
  12   4   3    1.63    0.47
  14  -4   3    5.49    0.59
 -14  -4  -3    5.72    0.54
  14  -4   3    4.30    0.68
 -14  -4  -3    4.79    0.73
  14   4   3    4.55    0.76
  14   4   3    5.91    0.52
  14   4   3    5.32    0.73
 -14   4  -3    5.47    0.77
 -16  -4  -3    8.52    0.70
  16  -4   3    8.38    0.72
 -16  -4  -3    7.43    0.85
  16  -4   3    7.51    0.86
  16   4   3    8.78    0.92
 -16   4  -3    8.20    0.94
  16   4   3    7.96    0.98
  16   4   3    9.33    0.74
  18  -4   3   35.31    1.93
  18  -4   3   38.78    1.71
 -18  -4  -3   39.64    1.79
 -18  -4  -3   36.37    1.93
  18   4   3   40.17    1.86
  18   4   3   38.97    2.13
  18   4   3   38.42    2.07
 -18   4  -3   39.58    2.15
 -20  -4  -3    6.18    0.80
  20  -4   3    4.26    0.76
 -20  -4  -3    5.94    0.62
  20  -4   3    6.68    0.59
  20   4   3    5.63    0.56
  20   4   3    7.00    0.86
 -20   4  -3    4.86    0.90
  22  -4   3   28.46    1.86
 -22  -4  -3   30.16    1.78
 -22   4  -3   27.76    1.97
  22   4   3   31.65    1.89
  22   4   3   31.44    1.69
 -24  -4  -3   26.34    1.63
  24  -4   3   24.10    1.79
  24   4   3   27.34    1.74
 -24   4  -3   22.73    1.87
  24   4   3   26.01    1.56
  26  -4   3   26.60    1.94
 -26  -4  -3   27.89    1.67
 -26   4  -3   27.22    2.09
  28  -4   3   11.47    1.28
 -28   4  -3   10.72    1.29
  27  -5  -3   33.12    2.18
 -27  -5   3   30.53    2.01
  27   5  -3   31.94    2.04
 -27   5   3   31.60    2.37
 -25  -5   3    6.77    0.94
  25  -5  -3    6.59    0.94
  25   5  -3    8.49    0.79
 -25   5   3    6.05    1.07
 -23  -5   3    8.25    1.08
  23  -5  -3    8.67    1.04
  23   5  -3    8.48    0.93
 -23   5   3    5.52    1.09
  21  -5  -3   38.29    2.12
 -21  -5   3   35.16    2.14
  21   5  -3   39.59    2.05
 -21   5   3   37.22    2.41
  21   5  -3   37.64    2.23
 -19  -5   3   30.83    1.95
  19  -5  -3   29.90    1.78
  19   5  -3   33.81    1.86
 -19   5   3   33.88    2.20
  19   5  -3   34.00    2.14
  19   5  -3   31.57    1.99
  17  -5  -3    4.30    0.65
 -17  -5   3    2.49    0.65
  17  -5  -3    3.79    0.79
 -17   5   3    4.69    0.47
  17   5  -3    4.00    0.63
  17   5  -3    4.09    0.72
  17   5  -3    3.59    0.69
  15  -5  -3   13.54    0.86
  15  -5  -3   12.02    1.20
  15  -5  -3   13.26    1.02
 -15  -5   3   12.03    1.14
  15   5  -3   14.01    1.14
  15   5  -3   12.51    1.17
  15   5  -3   13.38    1.25
 -15   5   3   14.43    1.01
 -13  -5   3   20.04    1.41
  13  -5  -3   21.30    1.52
  13  -5  -3   21.17    1.16
  13  -5  -3   21.52    1.27
  13   5  -3   19.56    1.45
 -13   5   3   21.42    1.30
  13   5  -3   21.44    1.56
  13   5  -3   20.40    1.44
  11  -5  -3  155.11    4.71
  11  -5  -3  148.29    4.30
  11  -5  -3  152.96    4.09
  11  -5  -3  150.22    4.09
 -11  -5   3  151.30    4.57
  11   5  -3  141.35    4.54
  11   5  -3  154.26    4.83
  11   5  -3  151.91    4.54
   9  -5  -3    6.18    0.62
  -9  -5   3    4.30    0.68
  -9  -5   3    3.47    0.67
   9  -5  -3    4.86    0.64
   9  -5  -3    5.40    0.67
   9  -5  -3    5.67    0.55
   9   5  -3    4.43    0.75
   9   5  -3    5.44    0.80
   7  -5  -3    7.34    0.75
  -7  -5   3    8.37    0.96
   7  -5  -3    7.73    0.62
   7  -5  -3    8.08    0.76
   7  -5  -3    7.71    0.77
  -7  -5   3    7.72    0.81
   7   5  -3    6.77    0.82
   7   5  -3    7.69    0.85
   5  -5  -3   17.07    1.11
  -5  -5   3   16.95    1.23
   5  -5  -3   16.42    1.09
   5  -5  -3   17.72    1.15
  -5  -5   3   17.32    1.14
   5   5  -3   16.40    1.15
   5   5  -3   15.92    1.14
   3  -5  -3  200.48    5.29
  -3  -5   3  203.40    5.23
  -3  -5   3  198.52    5.20
   3  -5  -3  191.37    5.16
   3   5  -3  196.06    5.11
  -3   5   3  196.82    4.42
   3   5  -3  191.82    5.16
  -3   5   3  202.95    4.69
  -1  -5   3   11.07    0.87
   1  -5  -3   10.46    0.88
   1  -5  -3   10.45    0.79
  -1  -5   3   10.74    0.93
  -1   5   3   10.23    0.65
  -1   5   3   11.02    0.67
  -1   5   3   10.27    0.92
   1   5  -3   10.26    0.81
   1   5  -3   10.39    0.87
   1  -5   3   55.20    2.21
  -1  -5  -3   57.63    2.14
   1  -5   3   55.82    2.07
  -1  -5  -3   56.97    2.23
   1   5   3   58.22    2.35
  -1   5  -3   59.98    1.63
   1   5   3   59.34    1.88
  -1   5  -3   57.72    1.94
  -1   5  -3   55.31    2.15
   1   5   3   56.84    1.89
   3  -5   3    0.64    0.24
  -3  -5  -3    0.43    0.32
   3  -5   3    0.33    0.32
   3   5   3    0.45    0.27
  -3   5  -3    0.51    0.22
   3   5   3    0.58    0.38
  -3   5  -3    1.21    0.39
   5  -5   3  531.90   11.58
   5  -5   3  583.40   12.05
  -5  -5  -3  553.46   12.53
  -5  -5  -3  537.30   12.31
  -5   5  -3  550.65   11.54
  -5   5  -3  555.85   11.95
   5   5   3  550.99   12.15
  -5   5  -3  571.63   11.89
   5   5   3  555.58   11.51
   7  -5   3    1.83    0.47
  -7  -5  -3    2.81    0.26
   7  -5   3    2.47    0.29
  -7  -5  -3    2.96    0.59
   7   5   3    1.85    0.53
  -7   5  -3    2.89    0.35
  -7   5  -3    2.10    0.33
   7   5   3    3.27    0.29
   7   5   3    2.18    0.52
   9  -5   3   74.08    2.63
  -9  -5  -3   76.24    2.49
   9  -5   3   75.45    2.30
  -9  -5  -3   75.72    2.85
   9  -5   3   73.59    2.66
   9   5   3   74.65    2.82
   9   5   3   76.21    2.96
  -9   5  -3   73.97    2.56
   9   5   3   75.95    2.46
  11  -5   3    4.30    0.71
 -11  -5  -3    5.12    0.41
  11  -5   3    4.47    0.66
 -11  -5  -3    4.50    0.74
  11   5   3    4.04    0.75
  11   5   3    6.10    0.48
 -11   5  -3    4.45    0.62
  11   5   3    3.81    0.78
  13  -5   3  224.74    5.90
 -13  -5  -3  220.80    6.19
  13  -5   3  220.04    5.58
  13   5   3  215.59    6.14
  13   5   3  218.31    6.31
  13   5   3  231.31    5.65
 -13   5  -3  215.97    5.99
  15  -5   3   10.96    0.89
 -15  -5  -3    9.22    1.01
  15  -5   3   10.03    1.01
  15   5   3   11.04    1.10
 -15   5  -3    9.42    0.98
  15   5   3   13.13    0.84
  15   5   3    9.59    1.08
  17  -5   3   10.30    0.85
 -17  -5  -3    8.12    0.99
  17  -5   3    8.49    0.98
  17   5   3    9.48    1.15
 -17   5  -3    9.48    1.01
  17   5   3   10.47    1.10
 -19  -5  -3   19.97    1.52
  19  -5   3   21.91    1.31
  19  -5   3   18.64    1.48
  19   5   3   21.12    1.62
  19   5   3   20.90    1.58
 -19   5  -3   20.73    1.58
 -21  -5  -3   44.66    2.37
  21  -5   3   43.25    2.40
 -21   5  -3   45.13    2.47
  21   5   3   47.10    2.48
 -23  -5  -3   20.69    1.50
  23  -5   3   18.94    1.58
 -23   5  -3   19.05    1.64
  23   5   3   18.25    1.46
  25  -5   3   10.26    1.23
 -25  -5  -3    9.55    0.84
  25   5   3   10.30    0.95
 -25   5  -3    8.41    1.05
 -24  -6   3   53.55    2.92
  24  -6  -3   53.53    2.76
 -24   6   3   57.20    3.15
  24   6  -3   55.00    2.79
 -22  -6   3    3.50    0.77
  22  -6  -3    5.66    0.78
  22   6  -3    5.64    0.47
 -22   6   3    5.18    0.84
  20  -6  -3   33.04    1.94
 -20  -6   3   28.20    2.02
  20   6  -3   32.44    2.03
 -20   6   3   33.63    2.22
  20   6  -3   35.71    2.07
 -18  -6   3   28.39    1.96
  18  -6  -3   29.47    1.76
  18   6  -3   30.22    2.06
  18   6  -3   25.80    1.77
 -18   6   3   26.95    1.91
  18   6  -3   28.39    1.83
  16  -6  -3   58.77    2.50
  16  -6  -3   59.91    2.88
 -16  -6   3   55.97    2.79
  16   6  -3   60.72    2.96
  16   6  -3   56.69    2.70
  16   6  -3   58.24    2.71
 -16   6   3   54.08    2.38
 -14  -6   3   69.58    3.08
  14  -6  -3   74.30    2.75
  14  -6  -3   69.99    2.62
  14  -6  -3   73.52    3.14
 -14   6   3   67.96    2.76
  14   6  -3   73.49    3.12
  14   6  -3   73.58    3.26
  14   6  -3   72.72    3.10
 -12  -6   3   87.91    3.45
  12  -6  -3   92.34    3.10
  12  -6  -3   92.65    3.06
  12  -6  -3   89.77    3.47
  12  -6  -3   88.24    3.16
  12   6  -3   94.14    3.69
  12   6  -3   90.02    3.51
  12   6  -3   82.66    3.35
  10  -6  -3   85.85    2.85
  10  -6  -3   88.41    3.05
  10  -6  -3   87.31    3.09
 -10  -6   3   86.00    3.30
  10  -6  -3   84.15    3.24
  10   6  -3   86.69    3.42
  10   6  -3   83.60    3.26
  10   6  -3   88.86    3.42
   8  -6  -3   78.39    2.86
  -8  -6   3   79.04    3.14
   8  -6  -3   74.87    2.83
  -8  -6   3   76.38    3.01
   8  -6  -3   78.09    2.58
   8  -6  -3   78.70    2.97
   8   6  -3   79.92    3.11
   8   6  -3   75.16    2.97
  -6  -6   3   38.98    2.11
   6  -6  -3   36.77    1.84
  -6  -6   3   39.91    1.99
   6  -6  -3   40.62    1.90
   6  -6  -3   40.16    1.94
  -6   6   3   38.92    1.68
  -6   6   3   38.14    1.13
   6   6  -3   39.99    1.98
   6   6  -3   37.13    1.94
   4  -6  -3    9.04    0.87
  -4  -6   3    9.25    1.00
  -4  -6   3    7.28    0.85
   4  -6  -3    9.60    0.79
  -4   6   3    9.18    0.57
  -4   6   3    9.91    0.73
   4   6  -3    8.38    0.87
   4   6  -3    7.69    0.85
   2  -6  -3    7.92    0.65
  -2  -6   3    7.30    0.94
  -2  -6   3    5.81    0.76
   2  -6  -3    5.71    0.77
  -2   6   3    7.87    0.59
   2   6  -3    6.37    0.75
  -2   6   3    6.30    0.54
   2   6  -3    6.77    0.84
  -2   6   3    6.65    0.88
   0  -6   3    5.98    0.70
   0  -6  -3    5.80    0.79
   0  -6   3    5.46    0.80
   0  -6  -3    7.24    0.58
   0   6  -3    5.54    0.66
   0   6   3    5.47    0.84
   0   6  -3    5.49    0.77
   0   6   3    7.15    0.52
   0   6   3    5.29    0.56
   2  -6   3   31.34    1.76
  -2  -6  -3   33.93    1.79
   2  -6   3   34.95    1.66
  -2   6  -3   32.98    1.73
   2   6   3   34.90    1.54
   2   6   3   34.03    1.91
   2   6   3   37.43    1.51
  -2   6  -3   33.37    1.48
  -4  -6  -3   27.44    1.63
   4  -6   3   25.42    1.56
   4  -6   3   26.74    1.39
   4   6   3   27.79    1.73
   4   6   3   30.90    1.36
  -4   6  -3   27.04    1.56
  -4   6  -3   26.48    1.20
   4   6   3   25.86    1.40
   6  -6   3   33.67    1.79
   6  -6   3   36.90    1.62
  -6  -6  -3   36.32    1.93
   6   6   3   35.84    1.76
  -6   6  -3   34.22    1.34
   6   6   3   34.99    1.98
  -6   6  -3   34.71    1.83
   8  -6   3   10.46    0.74
  -8  -6  -3    8.59    0.98
   8  -6   3    8.42    0.89
  -8   6  -3   10.99    0.74
   8   6   3    9.53    0.97
   8   6   3   10.64    1.13
  -8   6  -3    9.28    0.63
  -8   6  -3    9.82    1.03
 -10  -6  -3   43.57    2.26
  10  -6   3   43.20    2.05
  10   6   3   45.20    2.40
  10   6   3   42.35    2.17
 -10   6  -3   45.34    1.92
  12  -6   3    5.30    0.83
  12  -6   3    5.96    0.76
 -12  -6  -3    5.38    0.89
 -12   6  -3    5.99    0.62
  12   6   3    5.60    0.88
  12   6   3    4.97    0.92
 -14  -6  -3   38.65    2.19
  14  -6   3   36.64    1.87
  14  -6   3   36.09    2.01
  14   6   3   37.95    2.27
  14   6   3   37.03    2.17
 -14   6  -3   38.88    1.98
 -16  -6  -3    3.63    0.82
  16  -6   3    4.06    0.76
  16  -6   3    5.38    0.60
  16   6   3    2.47    0.68
  16   6   3    4.92    0.81
 -16   6  -3    4.03    0.61
 -18  -6  -3   26.22    1.88
  18  -6   3   28.79    1.62
  18  -6   3   26.32    1.79
 -18   6  -3   24.97    1.70
  18   6   3   28.41    1.98
  18   6   3   26.97    1.94
  20  -6   3    5.00    0.84
 -20  -6  -3    4.86    0.81
  20   6   3    4.62    0.79
 -20   6  -3    5.57    0.61
  22  -6   3   26.80    1.90
 -22  -6  -3   27.54    1.87
  22   6   3   29.60    2.02
 -22   6  -3   26.83    1.85
  24  -6   3   17.93    1.57
 -24  -6  -3   20.75    1.54
 -24   6  -3   19.21    1.51
  24   6   3   18.15    1.47
 -21  -7   3   15.11    1.49
  21  -7  -3   16.21    1.28
  21   7  -3   16.23    1.30
 -21   7   3   14.63    1.23
  21   7  -3   14.16    1.16
  19  -7  -3    8.27    0.84
 -19  -7   3    6.75    1.08
  19   7  -3    7.97    0.90
  19   7  -3    8.54    0.80
  19   7  -3    8.03    0.95
 -19   7   3    8.71    0.84
  17  -7  -3   17.60    1.28
 -17  -7   3   14.27    1.45
  17   7  -3   16.47    1.39
 -17   7   3   14.57    1.24
  17   7  -3   16.44    1.29
  17   7  -3   18.39    1.57
  15  -7  -3   59.07    2.55
 -15  -7   3   54.50    2.88
  15   7  -3   59.40    2.81
  15   7  -3   59.37    2.93
  15   7  -3   60.17    3.03
  13  -7  -3    6.64    0.67
  13  -7  -3    7.48    0.75
  13  -7  -3    7.24    0.73
 -13  -7   3    5.81    0.96
  13  -7  -3    7.59    0.85
  13   7  -3    8.55    1.12
  13   7  -3    6.97    0.72
  13   7  -3    6.96    0.96
  11  -7  -3   21.28    1.42
  11  -7  -3   23.94    1.49
 -11  -7   3   23.16    1.70
  11  -7  -3   24.47    1.60
  11   7  -3   22.83    1.58
  11   7  -3   23.34    1.73
  11   7  -3   22.73    1.75
   9  -7  -3    6.11    0.64
  -9  -7   3    4.73    0.83
   9  -7  -3    4.93    0.69
   9  -7  -3    5.72    0.74
   9   7  -3    4.45    0.86
   9   7  -3    5.63    0.75
   9   7  -3    5.33    0.89
  -9   7   3    6.41    0.66
  -7  -7   3   98.04    3.80
   7  -7  -3   97.11    3.51
  -7  -7   3   96.04    3.68
  -7   7   3   98.65    2.45
   7   7  -3   97.13    3.62
   7   7  -3   97.47    3.58
  -7   7   3  101.47    3.24
   5  -7  -3    1.05    0.40
  -5  -7   3    0.40    0.43
  -5  -7   3    0.90    0.47
  -5   7   3    0.65    0.23
  -5   7   3    0.85    0.47
   5   7  -3    1.12    0.47
   5   7  -3    1.79    0.46
  -3  -7   3   19.32    1.55
   3  -7  -3   20.44    1.43
  -3  -7   3   18.35    1.35
  -3   7   3   19.27    0.99
   3   7  -3   19.07    1.35
   3   7  -3   20.13    1.40
  -3   7   3   19.77    1.48
   1  -7  -3    0.45    0.39
  -1  -7   3    0.29    0.37
  -1  -7   3    1.02    0.36
  -1   7   3    0.33    0.27
  -1   7   3    0.02    0.32
   1   7  -3    0.40    0.37
   1   7  -3    0.56    0.34
   1  -7   3  227.71    6.35
  -1  -7  -3  236.27    6.52
   1  -7   3  232.26    6.22
   1   7   3  234.44    5.79
   1   7   3  233.68    6.46
  -1   7  -3  218.94    5.90
  -1   7  -3  219.78    6.11
   3  -7   3    0.46    0.38
  -3  -7  -3    0.27    0.36
   3  -7   3    0.79    0.21
  -3   7  -3    0.76    0.41
   3   7   3    0.11    0.40
  -3   7  -3    0.29    0.31
   3   7   3    0.35    0.33
   5  -7   3  120.62    3.78
  -5  -7  -3  117.36    4.15
   5  -7   3  113.92    3.96
   5   7   3  115.69    3.74
  -5   7  -3  115.33    3.92
   5   7   3  121.00    4.26
  -5   7  -3  114.28    3.35
  -7  -7  -3    0.14    0.36
   7  -7   3    0.35    0.37
   7   7   3    0.35    0.36
  -7   7  -3   -0.01    0.22
  -7   7  -3    0.41    0.41
   7   7   3    0.37    0.29
  -9  -7  -3  281.97    7.82
   9  -7   3  273.63    7.21
   9   7   3  284.88    7.76
  -9   7  -3  282.96    7.45
  -9   7  -3  275.20    6.43
   9   7   3  282.38    7.54
 -11  -7  -3    2.43    0.71
  11  -7   3    3.76    0.63
  11   7   3    2.56    0.66
 -11   7  -3    2.37    0.71
  11   7   3    2.54    0.73
 -11   7  -3    2.46    0.41
 -13  -7  -3   32.28    2.15
  13  -7   3   34.14    1.91
 -13   7  -3   31.36    2.05
 -13   7  -3   33.13    1.35
  13   7   3   36.16    2.31
  13   7   3   35.65    2.16
  15  -7   3   11.25    0.99
  15  -7   3    9.90    1.05
 -15  -7  -3    9.46    1.28
  15   7   3   10.80    1.13
  15   7   3   12.16    1.42
 -17  -7  -3   62.69    3.15
  17  -7   3   62.64    2.76
  17  -7   3   60.02    2.92
  17   7   3   65.98    3.25
  17   7   3   63.24    3.25
 -19  -7  -3   17.54    1.56
  19  -7   3   18.71    1.54
 -19   7  -3   16.87    1.25
  19   7   3   19.67    1.64
  19   7   3   16.01    1.50
 -21  -7  -3    6.58    0.91
  21  -7   3    7.38    0.86
 -21   7  -3    7.57    0.70
  21   7   3    8.41    0.91
 -16  -8   3   41.79    2.62
  16   8  -3   44.22    2.57
  16   8  -3   42.50    2.58
 -14  -8   3   32.84    2.27
  14   8  -3   36.89    2.29
  14   8  -3   37.96    2.10
  14   8  -3   36.66    2.31
 -12  -8   3   44.65    2.60
  12  -8  -3   41.90    2.23
  12   8  -3   44.52    2.31
  12   8  -3   43.05    2.58
  12   8  -3   44.85    2.54
 -10  -8   3   36.91    2.31
  10  -8  -3   39.35    2.14
  10   8  -3   41.19    2.35
 -10   8   3   38.29    2.08
  10   8  -3   39.79    2.15
  10   8  -3   37.83    2.40
   8  -8  -3   21.60    1.52
  -8  -8   3   20.94    1.65
  -8   8   3   23.02    0.89
  -8   8   3   23.12    1.60
   8   8  -3   22.00    1.78
   8   8  -3   21.41    1.62
   8   8  -3   22.21    1.52
   6  -8  -3   16.99    1.34
  -6  -8   3   18.28    1.49
  -6  -8   3   16.33    1.53
   6   8  -3   16.17    1.23
   6   8  -3   16.38    1.38
  -6   8   3   18.34    1.42
  -6   8   3   17.92    0.85
   4  -8  -3   33.18    1.95
  -4  -8   3   31.85    1.96
  -4  -8   3   30.88    2.11
  -4   8   3   32.76    1.37
   4   8  -3   33.12    1.90
   4   8  -3   32.37    1.87
  -4   8   3   30.30    1.98
   2  -8  -3   11.30    1.13
  -2  -8   3   11.62    1.34
  -2  -8   3   12.83    1.14
   2   8  -3   12.63    1.12
   2   8  -3   12.47    1.05
  -2   8   3   12.53    1.27
  -2   8   3   11.41    0.86
   0  -8   3    8.08    0.81
   0  -8   3    5.87    0.96
   0  -8  -3    6.31    0.96
   0   8  -3    5.06    0.77
   0   8  -3    6.09    0.69
   0   8   3    5.25    0.64
   0   8   3    5.97    0.98
   2  -8   3   18.51    1.54
   2  -8   3   21.15    1.41
  -2  -8  -3   20.79    1.61
   2   8   3   21.52    1.33
  -2   8  -3   18.90    1.28
   2   8   3   20.76    1.69
  -2   8  -3   20.56    1.44
   4  -8   3   18.34    1.52
  -4  -8  -3   17.21    1.49
   4  -8   3   19.60    1.32
   4   8   3   18.36    1.62
  -4   8  -3   19.79    1.23
  -4   8  -3   18.16    1.37
   4   8   3   18.77    1.32
  -6  -8  -3   37.62    2.26
   6  -8   3   39.24    2.25
   6   8   3   34.48    2.27
  -6   8  -3   36.36    1.70
   6   8   3   37.87    2.03
  -6   8  -3   39.84    2.16
  -8  -8  -3    5.43    0.91
   8  -8   3    6.50    0.90
   8   8   3    5.48    0.83
  -8   8  -3    5.55    0.58
   8   8   3    5.63    0.97
  -8   8  -3    5.25    0.80
 -10  -8  -3   36.08    2.30
  10  -8   3   37.25    2.15
 -10   8  -3   36.85    2.15
  10   8   3   37.25    2.42
  10   8   3   36.50    2.11
 -10   8  -3   38.74    1.59
  12  -8   3   12.35    1.13
 -12  -8  -3   12.71    1.37
  12   8   3   13.28    1.39
 -12   8  -3   14.27    0.82
  12   8   3   13.70    1.30
 -12   8  -3   15.39    1.34
  14  -8   3   31.51    1.91
 -14  -8  -3   27.30    2.06
  14   8   3   28.52    2.13
 -14   8  -3   30.51    1.96
  14   8   3   30.02    2.06
 -14   8  -3   30.25    1.28
 -16  -8  -3    1.67    0.51
  16  -8   3    3.03    0.28
 -16   8  -3    2.53    0.16
  16   8   3    2.49    0.48
  16   8   3    2.03    0.42
 -16   8  -3    3.25    0.56
  -9  -9   3    1.38    0.34
   9   9  -3    1.04    0.36
   9   9  -3    1.32    0.34
   7  -9  -3   16.47    1.31
  -7  -9   3   16.97    1.45
  -7   9   3   16.67    1.33
   7   9  -3   16.64    1.41
   7   9  -3   18.07    1.64
  -7   9   3   17.18    0.83
   5   9  -3    1.16    0.37
   5   9  -3    0.91    0.26
  -5   9   3    1.37    0.15
   3  -9  -3   57.53    2.82
  -3  -9   3   55.64    3.01
  -3  -9   3   54.14    2.73
   3   9  -3   53.69    2.55
  -3   9   3   55.33    2.86
  -3   9   3   56.76    2.12
   3   9  -3   54.97    2.61
  -1  -9   3    0.90    0.25
  -1   9   3    1.25    0.29
  -1   9   3    1.20    0.38
   1   9  -3    0.90    0.33
   1  -9   3   30.09    2.12
   1  -9   3   29.21    1.83
  -1  -9  -3   29.43    1.98
   1   9   3   29.86    1.64
  -1   9  -3   28.87    1.67
   1   9   3   31.36    2.15
  -1   9  -3   28.02    1.74
   3  -9   3    1.44    0.39
  -3  -9  -3    0.81    0.23
  -3   9  -3    1.17    0.29
   3   9   3    0.82    0.28
   3   9   3    1.05    0.39
   5  -9   3  121.73    4.68
  -5  -9  -3  122.62    4.76
   5   9   3  124.90    4.21
  -5   9  -3  124.54    4.43
   5   9   3  118.16    4.72
  -5   9  -3  121.64    3.84
   7  -9   3    2.56    0.51
  -7  -9  -3    1.60    0.48
  -7   9  -3    2.71    0.17
   7   9   3    1.81    0.37
  -7   9  -3    2.24    0.23
   7   9   3    1.25    0.42
  -9  -9  -3   68.02    3.41
   9  -9   3   68.53    3.25
  -9   9  -3   70.20    2.49
   9   9   3   71.25    3.16
   9   9   3   70.64    3.53
  -9   9  -3   68.44    3.16
 -32   0   4   37.20    2.33
  32   0  -4   37.33    2.46
 -30   0   4    5.31    0.82
  30   0  -4    5.90    1.01
  28   0  -4   18.87    1.67
 -28   0   4   21.50    1.38
 -28   0   4   20.50    1.63
 -26   0   4   39.89    2.00
  26   0  -4   36.43    2.27
 -26   0   4   36.80    2.14
 -24   0   4   90.57    3.49
 -24   0   4   93.80    3.32
  24   0  -4   89.03    3.56
 -22   0   4    1.01    0.45
 -22   0   4    0.64    0.30
  22   0  -4    0.24    0.39
  20   0  -4  122.33    4.02
 -20   0   4  121.91    3.96
 -20   0   4  123.93    3.82
 -18   0   4    0.46    0.31
 -18   0   4    2.20    0.51
  18   0  -4    0.35    0.32
  16   0  -4  611.72   13.13
  16   0  -4  616.23   13.63
 -16   0   4  625.00   13.53
  14   0  -4    2.86    0.52
 -14   0   4    2.69    0.48
  14   0  -4    2.22    0.43
  12   0  -4  270.71    6.23
  12   0  -4  266.52    6.38
 -12   0   4  271.42    6.40
  10   0  -4    3.89    0.45
  10   0  -4    3.97    0.46
 -10   0   4    4.70    0.51
   8   0  -4  132.27    3.42
   8   0  -4  132.46    3.30
  -8   0   4  134.67    3.45
   8   0  -4  130.84    3.40
  -6   0   4   10.32    0.64
   6   0  -4    8.84    0.56
   6   0  -4    9.25    0.61
   6   0  -4    9.92    0.59
  -6   0   4    9.94    0.31
  -4   0   4   71.95    1.55
   4   0  -4   69.53    2.00
  -4   0   4   72.11    1.99
   4   0  -4   67.63    1.82
   4   0  -4   69.09    2.03
   2   0  -4    8.85    0.51
   2   0  -4    8.77    0.45
  -2   0   4    9.59    0.43
   2   0  -4    8.73    0.55
  -2   0   4    8.95    0.51
   0   0  -4  333.11    7.29
   0   0  -4  339.76    6.70
   0   0   4  348.47    6.66
   0   0   4  348.04    7.16
   0   0  -4  322.84    7.12
  -2   0  -4    2.13    0.23
   2   0   4    2.29    0.24
  -2   0  -4    2.10    0.31
   2   0   4    2.47    0.30
   2   0   4    2.34    0.33
   4   0   4   27.03    1.05
  -4   0  -4   29.30    1.05
   4   0   4   29.72    1.04
   4   0   4   27.00    0.86
  -4   0  -4   28.80    0.81
  -6   0  -4    8.98    0.37
   6   0   4    7.98    0.57
  -6   0  -4    8.28    0.56
   6   0   4    8.67    0.53
   6   0   4    8.44    0.48
   8   0   4   56.28    1.76
  -8   0  -4   56.23    1.43
   8   0   4   57.36    1.80
  -8   0  -4   56.56    1.84
   8   0   4   54.87    1.61
  10   0   4   11.83    0.70
 -10   0  -4   13.21    0.54
 -10   0  -4   12.28    0.80
  10   0   4   13.72    0.76
  10   0   4   12.00    0.79
  12   0   4  138.33    3.65
  12   0   4  146.08    3.65
 -12   0  -4  148.59    3.38
 -12   0  -4  144.86    3.97
  12   0   4  149.33    3.86
 -14   0  -4    2.00    0.46
  14   0   4    1.95    0.40
  14   0   4    1.78    0.40
  14   0   4    2.81    0.26
 -14   0  -4    2.80    0.23
  16   0   4  242.45    5.81
 -16   0  -4  259.38    5.65
  16   0   4  251.49    5.98
 -16   0  -4  245.89    6.39
  18   0   4    4.20    0.65
 -18   0  -4    3.37    0.63
  18   0   4    3.85    0.51
 -20   0  -4  264.29    6.99
  20   0   4  262.90    6.59
  20   0   4  256.54    6.18
  22   0   4    3.41    0.36
  22   0   4    2.54    0.61
 -22   0  -4    1.62    0.55
  24   0   4  107.90    3.82
 -24   0  -4  108.71    4.02
  26   0   4    5.32    0.76
 -26   0  -4    4.23    0.83
  28   0   4   53.75    2.66
 -28   0  -4   51.06    2.72
  30   0   4   15.95    1.31
 -30   0  -4   17.20    1.56
  31  -1  -4    0.92    0.37
 -31  -1   4    1.38    0.26
  31   1  -4    1.13    0.38
 -31   1   4    1.11    0.37
  29  -1  -4   56.50    2.98
 -29  -1   4   56.85    2.62
 -29  -1   4   56.38    2.74
  29   1  -4   57.19    3.06
 -29   1   4   58.38    3.06
 -27  -1   4    1.06    0.29
  27  -1  -4    0.74    0.42
  27   1  -4    0.61    0.48
 -27   1   4    0.51    0.46
 -25  -1   4   63.17    2.72
  25  -1  -4   62.05    2.90
 -25  -1   4   63.94    2.69
  25   1  -4   60.50    2.95
 -25   1   4   62.66    2.58
 -25   1   4   62.60    2.97
 -23  -1   4    1.11    0.43
  23  -1  -4    0.62    0.44
 -23  -1   4    0.82    0.38
  23   1  -4    0.65    0.48
 -23   1   4    0.40    0.43
 -23   1   4    0.98    0.30
  21  -1  -4  112.82    3.84
 -21  -1   4  113.37    3.65
 -21  -1   4  109.98    3.65
 -21   1   4  110.71    3.59
  21   1  -4  105.82    3.84
 -21   1   4  117.75    4.03
  19  -1  -4    7.61    0.92
 -19  -1   4    6.22    0.71
 -19  -1   4    6.37    0.74
 -19   1   4    7.77    0.77
 -19   1   4    7.39    0.90
  19   1  -4    6.86    0.93
 -17  -1   4  117.18    3.49
  17  -1  -4  115.95    3.61
  17  -1  -4  120.21    3.78
 -17  -1   4  122.45    3.66
  17   1  -4  113.64    3.67
  17   1  -4  113.89    2.65
 -17   1   4  116.27    3.53
  15  -1  -4   19.65    1.20
 -15  -1   4   21.47    1.21
 -15  -1   4   19.64    1.10
  15  -1  -4   20.39    1.26
  15   1  -4   20.41    0.74
  15   1  -4   21.33    1.21
 -15   1   4   20.52    1.19
  15   1  -4   18.78    1.23
 -13  -1   4  243.24    5.90
  13  -1  -4  241.12    6.07
  13  -1  -4  246.03    5.73
  13   1  -4  240.19    4.90
 -13   1   4  244.21    5.89
  13   1  -4  234.90    5.68
  13   1  -4  233.74    5.83
  13   1  -4  242.42    6.07
 -11  -1   4   60.04    2.05
  11  -1  -4   59.01    1.97
  11  -1  -4   60.03    2.14
 -11   1   4   60.20    2.05
 -11   1   4   55.71    1.85
  11   1  -4   58.75    1.52
  11   1  -4   61.75    2.19
  11   1  -4   57.82    1.84
  11   1  -4   58.90    2.09
  -9  -1   4   44.64    1.23
   9  -1  -4   44.16    1.73
  -9  -1   4   46.59    1.65
   9  -1  -4   44.53    1.54
   9   1  -4   44.28    1.72
  -9   1   4   43.30    1.62
  -9   1   4   48.50    1.53
   9   1  -4   43.20    1.65
   9   1  -4   44.74    1.45
  -7  -1   4   94.19    2.15
  -7  -1   4   99.08    2.62
   7  -1  -4   94.28    2.41
   7  -1  -4   93.56    2.74
  -7   1   4   96.32    1.95
  -7   1   4   95.95    2.45
   7   1  -4   87.86    2.56
  -7   1   4   91.72    2.59
   7   1  -4   89.59    2.74
   7   1  -4   89.82    2.39
  -5  -1   4  243.56    4.91
  -5  -1   4  254.48    5.58
   5  -1  -4  228.96    5.76
   5  -1  -4  255.56    5.14
  -5   1   4  252.69    5.59
   5   1  -4  242.52    5.39
  -5   1   4  261.14    4.85
   5   1  -4  231.77    5.41
   5   1  -4  237.61    5.73
  -5   1   4  254.49    5.47
  -3  -1   4  257.32    5.31
   3  -1  -4  246.44    6.19
   3  -1  -4  283.11    5.43
  -3  -1   4  281.53    5.93
   3   1  -4  264.70    5.88
   3   1  -4  264.68    6.04
   3   1  -4  277.68    5.74
  -3   1   4  279.31    5.34
  -3   1   4  265.12    5.82
  -3   1   4  278.20    5.95
  -1  -1   4  235.01    4.71
   1  -1  -4  240.44    4.71
   1  -1  -4  218.71    5.37
   1  -1  -4  237.23    5.13
  -1  -1   4  231.03    5.05
  -1   1   4  231.50    4.98
  -1   1   4  240.45    4.76
   1   1  -4  230.53    4.91
   1   1  -4  235.53    5.07
   1   1  -4  226.92    5.15
   1  -1   4  497.09    9.54
  -1  -1  -4  492.48   10.28
   1  -1   4  488.88   10.17
   1   1   4  516.42    9.62
  -1   1  -4  517.33   10.35
  -1   1  -4  479.47   10.23
  -1   1  -4  498.98    9.78
   1   1   4  478.71   10.19
   3  -1   4  590.09   11.26
  -3  -1  -4  532.16   12.04
   3  -1   4  554.45   11.02
  -3  -1  -4  572.65   11.85
   3  -1   4  558.79   12.16
   3   1   4  582.17   11.31
   3   1   4  625.31   11.21
   3   1   4  561.93   11.85
  -3   1  -4  602.96   12.00
   5  -1   4  320.74    6.80
  -5  -1  -4  325.54    7.36
  -5  -1  -4  318.36    7.13
   5  -1   4  357.80    6.93
   5   1   4  347.18    7.34
   5   1   4  339.92    6.63
  -5   1  -4  342.22    7.35
   5   1   4  338.89    6.94
   7  -1   4  161.82    3.69
   7  -1   4  157.26    3.70
  -7  -1  -4  154.19    3.89
  -7  -1  -4  153.25    3.67
  -7   1  -4  163.03    3.96
   7   1   4  158.41    3.80
   7   1   4  158.48    3.46
   7   1   4  164.09    3.96
   9  -1   4  140.53    3.38
   9  -1   4  134.89    3.38
  -9  -1  -4  140.97    3.62
  -9  -1  -4  137.81    3.33
   9   1   4  132.44    3.19
  -9   1  -4  137.34    3.63
   9   1   4  138.54    3.52
   9   1   4  133.99    3.62
  11  -1   4   65.53    2.08
  11  -1   4   63.89    2.07
 -11  -1  -4   65.71    1.93
 -11  -1  -4   66.19    2.20
 -11   1  -4   67.62    2.26
  11   1   4   63.75    1.95
  11   1   4   61.87    2.13
  11   1   4   68.14    2.26
 -11   1  -4   69.03    1.54
  13  -1   4  107.63    3.04
 -13  -1  -4  107.24    3.21
  13  -1   4  105.26    2.97
 -13  -1  -4  107.53    2.86
 -13   1  -4  109.67    3.30
  13   1   4  103.83    3.09
 -13   1  -4  109.14    2.44
  13   1   4  103.58    2.91
  13   1   4  109.22    3.27
 -15  -1  -4    2.04    0.47
  15  -1   4    2.72    0.49
 -15  -1  -4    3.47    0.33
  15  -1   4    2.00    0.37
  15   1   4    2.32    0.48
  15   1   4    2.63    0.27
 -15   1  -4    1.63    0.46
  15   1   4    1.35    0.36
  17  -1   4   86.43    2.86
  17  -1   4   85.84    2.68
 -17  -1  -4   87.95    3.03
 -17  -1  -4   87.97    2.61
  17   1   4   88.70    2.89
 -17   1  -4   83.90    3.04
  17   1   4   86.61    2.80
  19  -1   4    1.06    0.45
 -19  -1  -4    0.75    0.40
  19  -1   4    1.46    0.32
  19   1   4    1.33    0.37
 -19   1  -4    0.93    0.46
  19   1   4    1.37    0.39
  21  -1   4   93.30    3.30
  21  -1   4   92.44    2.91
 -21  -1  -4   92.86    3.42
  21   1   4   97.11    3.16
 -21   1  -4   98.70    3.58
  21   1   4   95.27    3.28
 -23  -1  -4    1.84    0.61
  23  -1   4    1.67    0.53
  23  -1   4    3.56    0.35
  23   1   4    2.99    0.33
 -23   1  -4    1.83    0.64
  23   1   4    2.71    0.53
  25  -1   4   78.21    3.26
 -25  -1  -4   79.92    3.32
  25   1   4   85.70    3.29
 -25   1  -4   80.93    3.47
  27  -1   4    1.57    0.52
 -27  -1  -4    1.43    0.53
 -27   1  -4    0.84    0.55
  27   1   4    2.29    0.26
  29  -1   4   42.75    2.45
 -29  -1  -4   40.09    2.37
 -29   1  -4   39.36    2.50
  29   1   4   39.43    2.23
  30  -2  -4   36.11    2.34
 -30  -2   4   33.39    1.93
  30   2  -4   35.24    2.38
 -30   2   4   36.67    2.49
 -28  -2   4   36.59    2.01
 -28  -2   4   38.45    2.11
  28  -2  -4   41.96    2.45
  28   2  -4   38.54    2.47
 -28   2   4   38.20    2.51
  26  -2  -4    7.88    1.08
 -26  -2   4    7.26    0.82
 -26  -2   4    8.26    0.82
 -26   2   4    8.11    1.21
  26   2  -4    7.77    1.16
 -24  -2   4   29.01    1.58
 -24  -2   4   28.53    1.72
  24  -2  -4   26.74    1.80
 -24   2   4   26.86    1.95
  24   2  -4   25.41    1.85
 -24   2   4   26.44    1.51
 -22  -2   4    1.86    0.54
 -22  -2   4    1.72    0.37
  22  -2  -4    1.47    0.52
 -22   2   4    2.42    0.38
  22   2  -4    0.82    0.48
 -22   2   4    1.28    0.57
  20  -2  -4  217.49    5.85
 -20  -2   4  212.29    5.85
 -20  -2   4  210.86    5.54
 -20   2   4  217.53    6.30
 -20   2   4  210.85    5.68
  20   2  -4  201.78    5.92
 -18  -2   4    0.18    0.19
 -18  -2   4    0.10    0.30
  18  -2  -4    0.35    0.31
  18  -2  -4   -0.19    0.26
  18   2  -4    0.70    0.42
 -18   2   4    0.36    0.24
 -16  -2   4  178.35    4.89
 -16  -2   4  172.91    4.50
  16  -2  -4  181.11    4.76
  16  -2  -4  180.86    5.18
 -16   2   4  180.53    4.81
  16   2  -4  171.02    4.94
  16   2  -4  179.87    5.22
  16   2  -4  176.05    4.14
 -14  -2   4    2.90    0.35
  14  -2  -4    3.36    0.20
 -14  -2   4    2.54    0.49
  14  -2  -4    2.79    0.51
  14  -2  -4    3.30    0.59
 -14   2   4    3.83    0.31
  14   2  -4    3.19    0.61
  14   2  -4    3.63    0.33
 -14   2   4    2.74    0.50
  14   2  -4    3.28    0.49
 -12  -2   4  301.84    6.90
  12  -2  -4  297.01    6.50
 -12  -2   4  292.72    6.43
  12  -2  -4  278.36    5.63
 -12   2   4  275.34    6.34
 -12   2   4  298.41    6.83
  12   2  -4  280.20    7.14
  12   2  -4  277.98    6.78
  12   2  -4  275.23    6.09
  10  -2  -4    7.56    0.59
  10  -2  -4    8.13    0.40
 -10  -2   4    7.25    0.65
  10  -2  -4    7.91    0.74
 -10  -2   4    7.74    0.53
 -10  -2   4    7.74    0.46
  10   2  -4    7.90    0.74
 -10   2   4    8.69    0.68
 -10   2   4    8.20    0.47
  10   2  -4    7.46    0.69
   8  -2  -4   93.84    2.97
   8  -2  -4   98.40    2.51
  -8  -2   4   95.50    2.76
  -8  -2   4   95.71    2.50
  -8   2   4   95.47    2.73
   8   2  -4   96.45    2.87
   8   2  -4   96.13    3.02
  -8   2   4   94.48    2.21
   8   2  -4   93.44    2.29
  -8   2   4   95.16    2.33
   6  -2  -4   11.58    0.58
   6  -2  -4   11.18    0.81
  -6  -2   4   12.08    0.67
  -6  -2   4   12.29    0.74
  -6   2   4   12.86    0.53
   6   2  -4   11.84    0.80
  -6   2   4   12.46    0.59
   6   2  -4   11.90    0.83
   6   2  -4   12.49    0.46
   4  -2  -4   44.79    1.53
   4  -2  -4   42.38    1.71
  -4  -2   4   45.98    1.44
  -4  -2   4   48.36    1.54
   4  -2  -4   44.86    1.21
   4   2  -4   43.07    1.64
  -4   2   4   47.33    1.18
   4   2  -4   44.23    1.16
   4   2  -4   46.53    1.61
  -4   2   4   47.13    1.29
  -4   2   4   44.60    1.35
  -2  -2   4   10.33    0.59
   2  -2  -4    9.75    0.73
   2  -2  -4   11.01    0.40
  -2  -2   4   11.28    0.60
   2  -2  -4   10.67    0.64
   2   2  -4   10.70    0.43
  -2   2   4   11.31    0.48
   2   2  -4   11.32    0.68
  -2   2   4   10.60    0.48
  -2   2   4   10.86    0.61
   2   2  -4   10.88    0.66
   0  -2  -4    4.71    0.43
   0  -2   4    4.25    0.34
   0  -2  -4    4.34    0.48
   0  -2   4    4.39    0.40
   0   2   4    4.49    0.19
   0   2   4    4.40    0.41
   0   2  -4    4.10    0.28
   0   2  -4    4.06    0.42
   0   2  -4    3.61    0.36
   0   2   4    4.60    0.34
   2  -2   4    8.70    0.56
   2  -2   4    8.10    0.41
  -2  -2  -4    7.36    0.54
  -2  -2  -4    7.78    0.59
  -2   2  -4    8.17    0.49
   2   2   4    7.91    0.59
  -2   2  -4    8.96    0.48
   2   2   4    8.95    0.28
  -2   2  -4    7.49    0.55
   2   2   4    7.60    0.51
   4  -2   4   21.21    0.95
   4  -2   4   21.51    0.66
  -4  -2  -4   20.67    0.96
   4  -2   4   21.83    0.95
  -4  -2  -4   20.63    0.94
  -4   2  -4   21.82    0.89
   4   2   4   20.88    0.95
   4   2   4   21.47    0.63
   4   2   4   21.67    1.03
   6  -2   4    3.16    0.40
  -6  -2  -4    3.07    0.38
   6  -2   4    3.23    0.41
  -6  -2  -4    2.99    0.36
   6  -2   4    3.67    0.17
   6   2   4    2.94    0.44
  -6   2  -4    3.40    0.39
   6   2   4    3.17    0.42
   6   2   4    3.53    0.24
  -8  -2  -4  189.42    4.80
   8  -2   4  208.96    4.71
  -8  -2  -4  198.36    4.79
   8  -2   4  198.58    4.56
  -8   2  -4  206.41    4.92
   8   2   4  192.45    4.93
   8   2   4  200.81    4.34
  -8   2  -4  199.04    4.55
   8   2   4  205.16    4.83
  10  -2   4   16.83    0.93
 -10  -2  -4   16.56    0.92
  10  -2   4   17.75    0.98
 -10  -2  -4   18.04    0.99
  10   2   4   18.06    0.83
 -10   2  -4   17.47    1.01
  10   2   4   17.14    1.02
 -10   2  -4   17.92    0.81
  10   2   4   19.42    1.10
 -12  -2  -4   97.73    2.85
 -12  -2  -4  101.88    3.01
  12  -2   4   97.23    2.91
  12  -2   4   98.03    2.79
  12   2   4   97.61    2.70
 -12   2  -4   99.11    2.74
  12   2   4   98.94    3.02
  12   2   4   98.25    3.13
 -12   2  -4   99.59    3.08
 -14  -2  -4    4.08    0.47
  14  -2   4    3.29    0.54
 -14  -2  -4    3.76    0.57
  14  -2   4    3.87    0.53
  14   2   4    3.87    0.61
 -14   2  -4    3.67    0.60
  14   2   4    4.26    0.45
  14   2   4    4.74    0.52
  16  -2   4  133.13    3.61
  16  -2   4  127.05    3.82
 -16  -2  -4  135.86    3.77
 -16  -2  -4  134.33    3.98
  16   2   4  142.85    4.25
 -16   2  -4  129.71    4.09
  16   2   4  139.09    3.78
  16   2   4  134.14    3.94
  18  -2   4    1.30    0.33
 -18  -2  -4    0.57    0.40
  18  -2   4    0.85    0.44
 -18  -2  -4    1.47    0.29
 -18   2  -4    0.64    0.44
  18   2   4    1.52    0.31
  18   2   4    1.06    0.40
  20  -2   4  137.88    4.28
 -20  -2  -4  139.59    4.00
  20  -2   4  138.17    3.80
 -20  -2  -4  136.66    4.30
  20   2   4  136.28    4.10
  20   2   4  131.65    4.10
 -20   2  -4  138.39    4.57
 -22  -2  -4    0.86    0.41
  22  -2   4   -0.16    0.30
 -22   2  -4    0.06    0.38
  22   2   4    0.63    0.16
  22   2   4    0.64    0.20
  24  -2   4  121.42    4.28
 -24  -2  -4  119.50    4.21
 -24   2  -4  121.66    4.50
  24   2   4  129.64    4.06
  24   2   4  123.12    4.09
  26  -2   4    3.81    0.79
 -26  -2  -4    3.19    0.62
 -26   2  -4    3.73    0.83
  26   2   4    4.52    0.49
  28  -2   4   28.20    1.97
 -28  -2  -4   26.66    1.82
 -28   2  -4   26.44    2.00
  28   2   4   27.15    1.70
 -30  -2  -4   13.91    1.25
  30  -2   4   15.68    1.39
  30   2   4   13.65    1.10
 -30   2  -4   12.84    1.39
 -29  -3   4   19.35    1.39
  29  -3  -4   20.54    1.70
  29   3  -4   20.02    1.72
 -29   3   4   18.80    1.79
  27  -3  -4    3.04    0.72
 -27  -3   4    2.49    0.50
 -27   3   4    1.70    0.70
  27   3  -4    1.59    0.53
  25  -3  -4   76.48    3.25
 -25  -3   4   69.22    3.01
  25   3  -4   68.13    3.30
 -25   3   4   73.31    3.54
 -23  -3   4    0.35    0.37
  23  -3  -4    1.14    0.51
  23   3  -4    0.50    0.46
 -23   3   4   -0.08    0.42
  21  -3  -4   59.65    2.61
 -21  -3   4   59.12    2.59
 -21   3   4   59.03    2.91
 -21   3   4   60.70    2.42
  21   3  -4   55.24    2.71
 -19  -3   4    2.51    0.27
 -19  -3   4    1.48    0.52
  19  -3  -4    1.22    0.45
  19  -3  -4    1.30    0.58
  19   3  -4    1.80    0.60
  19   3  -4    2.99    0.24
 -19   3   4    2.54    0.42
 -17  -3   4  115.25    3.14
  17  -3  -4  107.04    3.47
  17  -3  -4  113.85    3.97
 -17  -3   4  108.59    3.63
 -17   3   4  115.70    3.56
  17   3  -4  112.25    4.00
  17   3  -4  109.99    3.20
  17   3  -4  109.50    3.81
 -15  -3   4   12.24    1.01
  15  -3  -4   11.42    1.08
 -15  -3   4   13.15    0.71
  15  -3  -4   11.36    0.92
  15  -3  -4   12.74    0.61
  15   3  -4   13.51    0.87
 -15   3   4   13.00    0.95
  15   3  -4   11.93    1.03
  15   3  -4   13.65    1.16
 -13  -3   4   22.65    1.32
  13  -3  -4   22.95    0.91
  13  -3  -4   22.21    1.43
 -13  -3   4   24.11    0.92
  13  -3  -4   21.46    1.17
 -13   3   4   22.13    0.88
  13   3  -4   21.76    1.42
  13   3  -4   22.61    1.20
 -13   3   4   21.49    1.22
  13   3  -4   23.26    1.44
  11  -3  -4    9.11    0.88
 -11  -3   4   10.81    0.50
  11  -3  -4    9.80    0.57
 -11  -3   4    9.83    0.83
  11  -3  -4    9.91    0.72
 -11  -3   4    9.52    0.71
 -11   3   4   10.37    0.48
  11   3  -4   10.22    0.92
  11   3  -4    9.41    0.88
 -11   3   4    9.10    0.75
   9  -3  -4   66.59    2.54
  -9  -3   4   65.38    2.30
   9  -3  -4   70.34    1.97
  -9  -3   4   68.81    2.26
  -9  -3   4   72.89    1.69
   9  -3  -4   67.42    2.04
  -9   3   4   70.94    2.32
   9   3  -4   67.88    2.57
  -9   3   4   67.19    1.66
   9   3  -4   68.25    2.47
   7  -3  -4   72.85    2.32
   7  -3  -4   70.21    2.56
  -7  -3   4   73.06    2.37
  -7  -3   4   73.89    2.29
   7  -3  -4   73.07    2.03
  -7   3   4   76.21    1.70
   7   3  -4   74.11    2.50
   7   3  -4   70.79    2.55
  -7   3   4   74.33    1.71
  -5  -3   4   70.98    2.22
  -5  -3   4   68.68    2.16
   5  -3  -4   63.49    2.39
   5  -3  -4   69.93    1.84
   5  -3  -4   70.16    2.23
   5   3  -4   68.34    2.39
  -5   3   4   69.35    2.05
   5   3  -4   72.52    2.35
  -5   3   4   72.66    1.65
  -5   3   4   72.55    1.69
  -3  -3   4  181.32    4.26
   3  -3  -4  186.81    4.52
  -3  -3   4  191.62    4.43
   3  -3  -4  166.97    4.71
   3  -3  -4  174.32    3.81
  -3   3   4  189.63    3.95
   3   3  -4  177.79    4.56
  -3   3   4  173.12    3.90
  -3   3   4  179.31    4.22
   3   3  -4  182.89    4.43
  -1  -3   4  174.06    4.06
   1  -3  -4  164.02    4.52
  -1  -3   4  174.52    4.11
   1   3  -4  176.53    3.71
   1   3  -4  168.54    4.13
  -1   3   4  172.03    3.86
   1   3  -4  171.90    4.16
  -1   3   4  167.82    4.07
  -1   3   4  164.39    3.57
  -1  -3  -4  159.59    4.32
  -1  -3  -4  163.96    4.16
   1  -3   4  165.23    3.87
   1  -3   4  161.60    3.91
   1   3   4  162.46    4.01
   1   3   4  164.97    3.87
  -1   3  -4  168.36    3.69
  -1   3  -4  159.75    3.85
  -1   3  -4  165.92    4.02
   1   3   4  162.83    3.47
  -3  -3  -4  129.08    3.48
   3  -3   4  133.68    3.14
  -3  -3  -4  125.02    3.52
   3  -3   4  127.02    3.27
   3   3   4  127.83    3.35
   3   3   4  129.74    2.91
  -3   3  -4  133.43    3.18
  -3   3  -4  131.08    3.14
  -3   3  -4  137.68    3.44
   3   3   4  132.47    3.49
   5  -3   4  222.75    5.13
   5  -3   4  234.98    5.03
  -5  -3  -4  213.44    5.42
  -5  -3  -4  227.12    5.53
   5  -3   4  228.29    5.27
   5   3   4  229.66    5.48
  -5   3  -4  238.56    5.32
   5   3   4  233.49    4.82
   5   3   4  225.85    5.39
   7  -3   4  241.13    5.23
   7  -3   4  236.08    5.44
  -7  -3  -4  225.31    5.71
   7  -3   4  247.95    5.65
  -7  -3  -4  243.39    5.87
   7   3   4  237.11    5.91
   7   3   4  250.67    5.84
  -7   3  -4  250.19    5.77
   7   3   4  254.59    5.22
  -9  -3  -4   35.02    1.53
   9  -3   4   34.19    1.00
   9  -3   4   36.13    1.54
   9  -3   4   35.92    1.47
  -9  -3  -4   33.06    1.41
   9   3   4   33.52    1.61
  -9   3  -4   36.03    1.51
   9   3   4   33.54    1.60
   9   3   4   35.68    1.25
 -11  -3  -4    4.82    0.61
 -11  -3  -4    5.65    0.56
  11  -3   4    5.21    0.62
  11  -3   4    5.42    0.65
  11   3   4    5.49    0.64
  11   3   4    5.80    0.75
 -11   3  -4    4.96    0.60
  11   3   4    5.67    0.45
 -11   3  -4    5.78    0.40
 -13  -3  -4   46.19    1.85
 -13  -3  -4   44.52    1.90
  13  -3   4   49.00    1.97
  13  -3   4   48.76    1.85
 -13   3  -4   48.32    2.03
  13   3   4   46.22    2.08
  13   3   4   45.91    2.06
  13   3   4   46.32    1.71
 -15  -3  -4    3.24    0.53
  15  -3   4    3.74    0.62
 -15  -3  -4    3.09    0.52
  15  -3   4    3.65    0.53
 -15   3  -4    3.04    0.61
  15   3   4    3.94    0.41
  15   3   4    4.05    0.60
  15   3   4    3.70    0.66
 -17  -3  -4   29.80    1.56
  17  -3   4   30.26    1.46
 -17  -3  -4   27.30    1.48
  17  -3   4   27.47    1.60
 -17   3  -4   25.08    1.61
  17   3   4   26.96    1.61
  17   3   4   29.12    1.68
  17   3   4   28.50    1.42
 -19  -3  -4    4.68    0.61
 -19  -3  -4    4.74    0.70
  19  -3   4    4.45    0.77
  19  -3   4    4.76    0.49
  19   3   4    5.98    0.54
  19   3   4    5.51    0.74
 -19   3  -4    3.01    0.69
 -21  -3  -4   99.41    3.53
  21  -3   4   97.43    3.62
 -21  -3  -4  105.61    3.51
  21  -3   4  105.84    3.23
  21   3   4  101.51    3.45
  21   3   4  101.10    3.64
 -21   3  -4  101.08    3.87
  23  -3   4    1.96    0.61
 -23  -3  -4    3.42    0.59
 -23  -3  -4    3.28    0.35
  23   3   4    2.67    0.46
 -23   3  -4    1.91    0.67
  23   3   4    3.73    0.36
 -25  -3  -4   37.35    2.06
  25  -3   4   35.37    2.19
 -25   3  -4   34.05    2.28
  25   3   4   38.73    1.99
  25   3   4   37.44    2.01
 -27  -3  -4    1.14    0.24
  27  -3   4    1.02    0.39
 -27   3  -4    0.72    0.53
  29  -3   4   39.67    2.51
 -29  -3  -4   46.16    2.45
 -29   3  -4   43.88    2.77
 -28  -4   4    6.43    0.68
  28  -4  -4    5.47    0.87
 -28   4   4    6.76    1.19
  28   4  -4    6.57    0.73
  26  -4  -4   12.51    1.23
 -26  -4   4   10.92    1.10
 -26   4   4   11.55    1.52
  26   4  -4   11.53    1.16
  24  -4  -4   18.12    1.48
 -24  -4   4   16.60    1.43
  24   4  -4   19.95    1.67
 -24   4   4   16.59    1.66
  22  -4  -4    2.40    0.59
 -22  -4   4    2.05    0.61
  22   4  -4    3.02    0.72
 -22   4   4    2.47    0.77
 -20  -4   4   41.60    2.22
  20  -4  -4   46.65    2.25
  20   4  -4   49.21    2.07
  20   4  -4   43.77    2.45
 -20   4   4   46.51    2.08
  18  -4  -4    1.70    0.62
 -18  -4   4    1.73    0.58
  18  -4  -4    3.16    0.63
  18   4  -4    2.03    0.62
  18   4  -4    2.44    0.41
  18   4  -4    4.02    0.48
 -18   4   4    3.21    0.49
  16  -4  -4  108.77    3.41
 -16  -4   4  101.10    3.56
  16  -4  -4  109.54    3.95
  16   4  -4  106.48    3.95
  16   4  -4  100.36    3.71
 -16   4   4  105.22    3.41
  16   4  -4  100.97    3.31
  14  -4  -4    4.15    0.35
  14  -4  -4    2.77    0.52
  14  -4  -4    2.25    0.62
 -14  -4   4    3.21    0.64
 -14   4   4    2.80    0.50
  14   4  -4    3.49    0.56
  14   4  -4    3.22    0.71
 -14   4   4    3.70    0.24
  14   4  -4    3.40    0.63
  12  -4  -4   58.81    2.56
 -12  -4   4   60.96    2.43
  12  -4  -4   62.78    2.01
  12  -4  -4   62.65    2.16
  12   4  -4   59.85    2.56
 -12   4   4   62.76    1.58
 -12   4   4   63.50    2.35
  12   4  -4   60.71    2.66
  12   4  -4   59.56    2.36
  10  -4  -4    8.00    0.64
  10  -4  -4    7.79    0.73
  10  -4  -4    8.18    0.88
 -10  -4   4    7.55    0.78
  10  -4  -4    9.75    0.68
 -10  -4   4    7.97    0.80
  10   4  -4    7.69    0.87
  10   4  -4    9.97    0.95
   8  -4  -4   27.22    1.55
   8  -4  -4   27.86    1.27
   8  -4  -4   27.80    1.17
   8  -4  -4   27.90    1.38
  -8  -4   4   28.57    1.49
  -8  -4   4   29.03    1.48
   8   4  -4   28.74    1.56
   8   4  -4   29.91    1.62
  -6  -4   4   13.20    0.92
   6  -4  -4   13.58    1.03
  -6  -4   4   13.86    0.98
   6  -4  -4   13.38    0.72
   6  -4  -4   13.32    0.91
   6   4  -4   12.26    0.97
   6   4  -4   13.20    1.00
   4  -4  -4    1.11    0.35
  -4  -4   4    0.87    0.35
   4  -4  -4    1.67    0.22
   4  -4  -4    1.58    0.38
  -4  -4   4    1.05    0.31
  -4   4   4    1.35    0.20
  -4   4   4    1.47    0.14
   4   4  -4    1.45    0.40
  -4   4   4    0.96    0.32
   4   4  -4    0.82    0.33
  -2  -4   4    3.45    0.53
   2  -4  -4    3.49    0.53
   2  -4  -4    2.84    0.47
  -2  -4   4    3.61    0.48
   2   4  -4    3.59    0.53
  -2   4   4    4.00    0.57
  -2   4   4    3.35    0.31
  -2   4   4    3.34    0.32
   2   4  -4    3.64    0.51
   0  -4   4   33.28    1.35
   0  -4  -4   32.01    1.48
   0  -4  -4   33.54    1.57
   0  -4   4   31.72    1.45
   0   4  -4   32.12    1.46
   0   4  -4   34.31    0.96
   0   4   4   33.68    1.11
   0   4  -4   30.88    1.29
   0   4   4   30.86    1.49
   0   4   4   31.67    1.19
  -2  -4  -4    5.78    0.62
   2  -4   4    5.89    0.62
   2  -4   4    6.26    0.52
  -2  -4  -4    7.17    0.64
   2   4   4    6.45    0.55
  -2   4  -4    5.93    0.65
   2   4   4    5.36    0.67
  -2   4  -4    6.04    0.51
  -2   4  -4    7.22    0.42
   2   4   4    6.80    0.41
   4  -4   4   23.66    1.02
  -4  -4  -4   24.28    1.29
  -4  -4  -4   23.71    1.23
   4  -4   4   22.52    1.20
  -4   4  -4   23.90    1.28
  -4   4  -4   23.32    0.99
   4   4   4   23.78    1.34
  -4   4  -4   23.67    0.98
   4   4   4   25.43    0.98
   4   4   4   22.41    1.13
   6  -4   4   17.69    1.07
  -6  -4  -4   17.09    0.98
  -6  -4  -4   16.48    1.09
   6  -4   4   16.69    1.05
   6  -4   4   16.80    0.78
   6   4   4   18.77    0.83
   6   4   4   15.52    1.12
  -6   4  -4   17.04    0.90
   6   4   4   14.87    0.99
   8  -4   4   21.25    1.19
   8  -4   4   22.35    0.89
  -8  -4  -4   20.63    1.09
  -8  -4  -4   20.18    1.24
   8  -4   4   21.56    1.24
   8   4   4   22.66    0.98
  -8   4  -4   21.38    1.12
   8   4   4   20.94    1.27
   8   4   4   21.63    1.37
 -10  -4  -4    2.30    0.51
  10  -4   4    2.26    0.46
 -10  -4  -4    2.41    0.36
  10  -4   4    2.84    0.21
  10  -4   4    2.73    0.52
  10   4   4    1.78    0.48
  10   4   4    3.46    0.27
  10   4   4    1.63    0.52
 -10   4  -4    1.59    0.40
  12  -4   4   22.64    1.27
  12  -4   4   22.94    1.36
 -12  -4  -4   23.01    1.21
 -12  -4  -4   22.46    1.39
  12   4   4   25.35    1.14
  12   4   4   22.29    1.48
  12   4   4   23.10    1.47
 -12   4  -4   22.84    1.35
 -14  -4  -4   13.47    1.10
  14  -4   4   15.16    1.16
  14  -4   4   15.48    1.04
 -14  -4  -4   15.39    0.99
  14   4   4   14.35    1.18
 -14   4  -4   13.13    1.09
  14   4   4   13.72    1.21
  14   4   4   16.03    0.92
 -16  -4  -4   49.75    2.05
  16  -4   4   51.45    2.29
  16  -4   4   52.65    2.06
 -16  -4  -4   49.34    2.26
 -16   4  -4   49.77    2.31
  16   4   4   46.77    2.34
  16   4   4   51.26    2.01
  16   4   4   46.90    2.35
 -18  -4  -4    2.63    0.43
  18  -4   4    2.62    0.63
  18  -4   4    2.69    0.43
 -18  -4  -4    2.79    0.58
 -18   4  -4    2.61    0.68
  18   4   4    2.81    0.51
  18   4   4    2.90    0.59
  20  -4   4   74.74    2.65
  20  -4   4   69.99    2.99
 -20  -4  -4   75.71    2.86
 -20  -4  -4   72.38    2.94
  20   4   4   69.03    2.65
 -20   4  -4   72.10    3.19
  20   4   4   72.22    3.07
  22  -4   4   -0.03    0.28
 -22   4  -4    0.21    0.38
  22   4   4    0.78    0.20
  24  -4   4   20.75    1.66
 -24  -4  -4   21.42    1.42
  24   4   4   21.44    1.56
 -24   4  -4   20.10    1.76
  26  -4   4    3.03    0.71
 -26   4  -4    2.87    0.72
  28  -4   4   22.46    1.81
 -28   4  -4   22.95    1.91
  27  -5  -4    1.10    0.26
 -27  -5   4    1.73    0.20
 -27   5   4    1.56    0.45
 -25  -5   4   16.35    1.47
  25  -5  -4   19.22    1.51
  25   5  -4   19.31    1.51
 -25   5   4   15.83    1.69
  23  -5  -4    1.07    0.29
 -23  -5   4    0.70    0.47
  23   5  -4    1.37    0.29
 -23   5   4    0.15    0.43
  21  -5  -4   32.44    1.90
 -21  -5   4   29.03    1.96
  21   5  -4   32.92    2.09
 -21   5   4   30.11    2.19
 -19  -5   4   -0.05    0.35
  19  -5  -4    0.68    0.24
  19  -5  -4   -0.06    0.35
  19   5  -4    0.97    0.19
  19   5  -4    0.67    0.35
  19   5  -4    1.01    0.20
  17  -5  -4   10.75    1.20
 -17  -5   4   10.79    1.13
  17  -5  -4   11.42    0.99
  17   5  -4   13.22    1.25
 -17   5   4   11.99    0.97
  17   5  -4   11.35    0.99
  17   5  -4   11.38    1.19
  15  -5  -4    3.36    0.52
  15  -5  -4    2.21    0.65
 -15  -5   4    1.90    0.58
  15   5  -4    3.27    0.66
  15   5  -4    2.63    0.67
  15   5  -4    2.67    0.53
 -15   5   4    2.94    0.50
  13  -5  -4   32.03    1.53
  13  -5  -4   31.17    1.90
 -13  -5   4   31.69    1.81
  13  -5  -4   33.16    1.49
  13   5  -4   27.99    1.81
 -13   5   4   29.09    1.62
  13   5  -4   33.52    1.83
  13   5  -4   32.60    1.97
 -11  -5   4    0.82    0.45
  11  -5  -4    1.17    0.32
  11  -5  -4    1.26    0.40
 -11  -5   4    0.85    0.42
  11  -5  -4    1.38    0.49
  11  -5  -4    2.25    0.38
  11   5  -4    0.91    0.45
  11   5  -4    1.39    0.52
   9  -5  -4    1.70    0.34
   9  -5  -4    1.38    0.43
   9  -5  -4    1.58    0.41
  -9  -5   4    1.80    0.52
  -9  -5   4    1.26    0.45
   9  -5  -4    2.40    0.37
   9   5  -4    1.18    0.52
   9   5  -4    1.14    0.48
  -7  -5   4   19.70    1.27
   7  -5  -4   20.93    1.36
   7  -5  -4   19.66    1.00
  -7  -5   4   21.85    1.41
   7  -5  -4   20.20    1.26
   7   5  -4   18.74    1.34
   7   5  -4   21.99    1.42
  -5  -5   4    0.54    0.36
   5  -5  -4    0.63    0.34
   5  -5  -4    0.80    0.26
  -5  -5   4    0.62    0.41
  -5   5   4    0.48    0.31
   5   5  -4    0.51    0.38
   5   5  -4    0.31    0.33
  -5   5   4    0.62    0.17
  -3  -5   4   58.45    2.20
   3  -5  -4   55.55    2.20
  -3  -5   4   57.11    2.31
   3  -5  -4   57.86    2.31
   3   5  -4   55.85    2.22
  -3   5   4   57.42    1.65
  -3   5   4   59.64    1.85
   3   5  -4   57.39    2.26
  -3   5   4   59.33    2.29
   1  -5  -4   18.98    1.17
  -1  -5   4   19.09    1.24
  -1  -5   4   18.58    1.11
   1  -5  -4   19.13    1.21
  -1   5   4   17.81    0.88
  -1   5   4   20.79    0.91
   1   5  -4   20.00    1.25
  -1   5   4   18.82    1.25
   1   5  -4   17.87    1.12
  -1  -5  -4   57.57    2.30
   1  -5   4   59.21    2.12
  -1  -5  -4   57.64    2.27
   1  -5   4   57.31    2.27
  -1   5  -4   58.33    2.02
   1   5   4   59.83    1.96
  -1   5  -4   60.16    2.28
   1   5   4   61.57    2.41
   1   5   4   62.52    1.89
  -3  -5  -4  100.68    3.41
   3  -5   4  107.51    3.13
   3  -5   4  110.31    3.37
  -3  -5  -4  108.42    3.44
   3   5   4  110.13    3.51
   3   5   4  115.70    2.98
  -3   5  -4  109.42    2.83
  -3   5  -4  108.14    3.36
  -3   5  -4  107.09    2.96
   3   5   4  108.68    3.18
   5  -5   4   16.08    0.89
   5  -5   4   15.61    1.11
  -5  -5  -4   14.68    1.11
  -5  -5  -4   16.37    1.02
  -5   5  -4   14.82    0.81
   5   5   4   16.56    0.85
  -5   5  -4   15.89    1.15
  -5   5  -4   17.17    0.86
   5   5   4   14.85    1.03
   5   5   4   15.41    1.20
  -7  -5  -4   36.91    1.87
  -7  -5  -4   41.73    1.75
   7  -5   4   35.76    1.75
   7  -5   4   38.93    1.48
  -7   5  -4   40.48    1.92
   7   5   4   40.29    1.51
  -7   5  -4   38.95    1.38
  -7   5  -4   39.31    1.57
   7   5   4   37.08    1.77
   7   5   4   36.38    1.94
   9  -5   4    2.62    0.53
  -9  -5  -4    4.02    0.38
   9  -5   4    2.55    0.55
  -9  -5  -4    2.27    0.56
  -9   5  -4    3.43    0.47
   9   5   4    2.34    0.56
   9   5   4    2.23    0.61
 -11  -5  -4    4.06    0.71
 -11  -5  -4    5.70    0.49
  11  -5   4    5.14    0.71
  11  -5   4    4.57    0.72
  11   5   4    5.22    0.81
 -11   5  -4    4.74    0.61
  11   5   4    4.44    0.81
  13  -5   4    2.65    0.49
  13  -5   4    2.25    0.59
 -13  -5  -4    3.23    0.31
 -13  -5  -4    2.50    0.62
  13   5   4    2.89    0.60
  13   5   4    1.90    0.62
 -13   5  -4    2.19    0.47
  15  -5   4    0.84    0.44
  15  -5   4    1.69    0.38
 -15  -5  -4    0.71    0.44
  15   5   4    1.32    0.45
 -15   5  -4    1.08    0.39
  15   5   4    0.72    0.50
 -17  -5  -4   19.58    1.50
  17  -5   4   20.79    1.52
  17  -5   4   21.58    1.33
  17   5   4   18.87    1.47
 -17   5  -4   18.77    1.42
  17   5   4   19.72    1.58
 -19  -5  -4    0.94    0.25
  19  -5   4    0.28    0.34
  19   5   4    0.94    0.21
 -19   5  -4    0.74    0.27
  19   5   4    0.54    0.25
  21  -5   4   18.73    1.53
 -21  -5  -4   19.88    1.46
 -21   5  -4   20.47    1.59
  21   5   4   18.37    1.50
  23  -5   4    0.45    0.24
 -23   5  -4    0.83    0.23
  25  -5   4   30.63    2.11
 -25  -5  -4   32.10    1.95
 -25   5  -4   30.71    2.20
  25   5   4   34.40    2.13
 -24  -6   4    1.03    0.33
  24  -6  -4    1.54    0.26
 -24   6   4    0.96    0.32
 -22  -6   4    0.62    0.38
 -22   6   4    0.95    0.29
 -20  -6   4    2.35    0.71
  20  -6  -4    3.90    0.60
  20   6  -4    4.16    0.64
 -20   6   4    3.92    0.71
  20   6  -4    3.21    0.53
 -18  -6   4    1.20    0.56
  18  -6  -4    1.96    0.55
  18  -6  -4    1.65    0.39
  18   6  -4    1.92    0.43
  18   6  -4    2.44    0.53
  18   6  -4    1.28    0.24
 -16  -6   4    7.29    1.05
  16  -6  -4    9.34    0.87
  16  -6  -4    8.22    1.00
  16   6  -4    9.10    0.96
 -16   6   4    8.00    0.76
  16   6  -4    9.16    0.99
  16   6  -4    8.50    1.00
  14  -6  -4    0.96    0.26
 -14  -6   4    0.33    0.45
  14  -6  -4    1.19    0.41
  14  -6  -4    1.66    0.16
 -14   6   4    1.12    0.27
  14   6  -4    0.93    0.36
  14   6  -4    0.55    0.32
  14   6  -4    1.27    0.41
  12  -6  -4   16.78    1.11
  12  -6  -4   17.21    1.36
 -12  -6   4   15.80    1.35
  12  -6  -4   15.77    1.18
  12  -6  -4   16.26    1.08
  12   6  -4   17.15    1.41
  12   6  -4   15.88    1.35
  12   6  -4   16.15    1.42
  10  -6  -4   18.69    1.10
  10  -6  -4   18.75    1.29
 -10  -6   4   18.75    1.46
 -10  -6   4   18.16    1.39
  10  -6  -4   20.30    1.26
  10  -6  -4   17.71    1.36
  10   6  -4   18.20    1.46
  10   6  -4   17.66    1.39
   8  -6  -4    2.24    0.33
  -8  -6   4    1.54    0.58
   8  -6  -4    2.86    0.52
   8  -6  -4    1.82    0.47
  -8  -6   4    1.68    0.52
   8   6  -4    1.94    0.55
   8   6  -4    2.15    0.61
  -8   6   4    1.91    0.45
   6  -6  -4    1.80    0.38
  -6  -6   4    0.93    0.48
  -6  -6   4    0.94    0.41
   6  -6  -4    0.62    0.35
  -6   6   4    1.10    0.21
  -6   6   4    1.95    0.31
   6   6  -4    1.16    0.48
  -6   6   4    0.86    0.38
   6   6  -4    1.54    0.49
   4  -6  -4    3.61    0.66
  -4  -6   4    3.00    0.58
   4  -6  -4    4.10    0.50
  -4  -6   4    2.51    0.62
  -4   6   4    3.12    0.36
  -4   6   4    5.01    0.41
  -4   6   4    3.73    0.69
   4   6  -4    4.14    0.71
   4   6  -4    2.91    0.62
  -2  -6   4   12.00    0.99
   2  -6  -4   10.61    0.99
  -2  -6   4   11.07    1.06
   2  -6  -4   12.90    0.94
  -2   6   4   11.85    0.71
  -2   6   4   10.46    0.70
   2   6  -4   10.74    1.03
  -2   6   4   11.87    1.08
   2   6  -4   10.10    0.93
   0  -6  -4    0.32    0.33
   0  -6   4    0.37    0.34
   0  -6   4    0.46    0.25
   0   6  -4    0.05    0.27
   0   6   4    0.02    0.23
   0   6   4   -0.03    0.31
   0   6  -4    0.12    0.36
  -2  -6  -4    7.32    0.61
   2  -6   4    6.73    0.68
   2  -6   4    6.49    0.88
  -2  -6  -4    6.43    0.85
  -2   6  -4    6.29    0.66
   2   6   4    5.96    0.64
  -2   6  -4    7.18    0.90
   2   6   4    8.04    1.00
   4  -6   4    5.20    0.79
  -4  -6  -4    4.44    0.74
   4  -6   4    5.83    0.57
  -4   6  -4    4.95    0.60
   4   6   4    4.91    0.68
   4   6   4    3.92    0.75
  -4   6  -4    5.95    0.82
   6  -6   4    1.92    0.30
  -6  -6  -4    1.76    0.51
   6  -6   4    1.20    0.47
  -6   6  -4    1.84    0.55
  -6   6  -4    1.42    0.35
   6   6   4    1.35    0.58
   6   6   4    1.57    0.48
  -8  -6  -4    5.65    0.85
   8  -6   4    5.30    0.79
   8   6   4    6.26    0.84
  -8   6  -4    5.22    0.86
  -8   6  -4    6.00    0.57
   8   6   4    6.00    0.94
  10  -6   4   11.91    1.08
 -10  -6  -4   15.16    1.31
 -10   6  -4   13.42    0.81
  10   6   4   12.98    1.18
 -10   6  -4   13.60    1.24
  10   6   4   12.92    1.31
 -10   6  -4   14.43    0.93
 -12  -6  -4    0.91    0.50
  12  -6   4    1.32    0.48
  12  -6   4    2.13    0.49
 -12   6  -4    2.42    0.40
  12   6   4    1.57    0.55
  12   6   4    1.09    0.54
  14  -6   4    3.45    0.57
  14  -6   4    1.42    0.50
 -14  -6  -4    1.57    0.62
 -14   6  -4    3.17    0.48
  14   6   4    3.27    0.63
  14   6   4    1.91    0.66
  16  -6   4    9.42    1.06
  16  -6   4   10.12    0.92
 -16  -6  -4    8.85    1.14
  16   6   4   10.18    1.08
  16   6   4    9.80    1.23
 -16   6  -4    9.83    0.91
  18  -6   4    1.35    0.49
 -18  -6  -4    0.27    0.24
  18   6   4    1.07    0.20
 -18   6  -4    1.96    0.22
  20  -6   4    1.73    0.51
 -20  -6  -4    2.17    0.44
  20  -6   4    3.64    0.31
  20   6   4    2.11    0.51
 -20   6  -4    2.47    0.28
 -22  -6  -4    3.47    0.40
  22  -6   4    3.08    0.66
 -22   6  -4    3.08    0.28
  22   6   4    3.14    0.35
  21  -7  -4    7.12    0.75
 -21  -7   4    6.05    0.99
  21   7  -4    6.42    0.59
 -21   7   4    7.10    0.69
  21   7  -4    7.13    0.68
 -19  -7   4    0.42    0.40
  19   7  -4    1.77    0.18
  19   7  -4    2.14    0.23
 -17  -7   4    0.79    0.45
  17  -7  -4    1.83    0.33
  17   7  -4    2.48    0.17
  17   7  -4    2.02    0.50
  17   7  -4    1.96    0.42
 -15  -7   4   -0.09    0.33
  15  -7  -4    0.75    0.23
  15   7  -4    1.15    0.32
  15   7  -4    1.05    0.31
  13  -7  -4    1.10    0.25
 -13  -7   4    0.19    0.35
  13   7  -4    0.57    0.26
  13   7  -4    1.11    0.35
  11  -7  -4    2.22    0.47
  11  -7  -4    3.35    0.36
  11  -7  -4    2.62    0.49
 -11  -7   4    1.66    0.59
 -11   7   4    1.91    0.36
  11   7  -4    2.53    0.52
  11   7  -4    1.79    0.58
  11   7  -4    1.65    0.60
   9  -7  -4    9.50    0.95
   9  -7  -4    9.13    0.89
  -9  -7   4    9.93    1.24
  -9  -7   4    8.51    1.03
  -9   7   4    8.43    0.86
   9   7  -4    7.80    1.10
   9   7  -4    8.50    0.94
   7  -7  -4    2.21    0.43
  -7  -7   4    0.97    0.53
   7  -7  -4    1.44    0.45
  -7  -7   4    1.02    0.49
   7   7  -4    0.83    0.36
  -7   7   4    1.06    0.35
   7   7  -4    1.49    0.54
  -5  -7   4    0.24    0.33
  -5  -7   4   -0.16    0.30
   5  -7  -4    0.36    0.34
   5   7  -4    0.25    0.26
  -5   7   4    0.56    0.24
   5   7  -4    0.30    0.37
  -5   7   4    0.51    0.33
  -3  -7   4    2.63    0.70
  -3  -7   4    2.08    0.52
   3  -7  -4    3.02    0.64
   3   7  -4    2.90    0.63
  -3   7   4    2.62    0.67
  -3   7   4    3.00    0.45
   3   7  -4    3.02    0.65
  -1  -7   4    2.75    0.49
   1  -7  -4    2.23    0.57
  -1  -7   4    2.31    0.69
   1   7  -4    2.30    0.58
  -1   7   4    2.25    0.45
   1   7  -4    1.11    0.45
  -1   7   4    2.14    0.67
  -1  -7  -4    1.45    0.54
   1  -7   4    2.61    0.48
   1  -7   4    1.57    0.55
   1   7   4    2.04    0.49
  -1   7  -4    1.99    0.51
   1   7   4    1.50    0.59
  -1   7  -4    1.59    0.52
   3  -7   4    3.49    0.50
   3  -7   4    3.17    0.72
  -3  -7  -4    2.21    0.62
  -3   7  -4    2.90    0.57
   3   7   4    2.69    0.71
   3   7   4    2.94    0.58
  -3   7  -4    3.00    0.66
   5  -7   4    0.09    0.31
  -5  -7  -4    0.17    0.38
  -5   7  -4    0.22    0.40
  -5   7  -4    0.08    0.24
   5   7   4    0.15    0.30
   5   7   4   -0.05    0.35
   7  -7   4    1.21    0.48
  -7  -7  -4    1.28    0.52
   7   7   4    1.26    0.60
  -7   7  -4    0.64    0.50
  -7   7  -4    1.36    0.39
   7   7   4    1.02    0.45
   9  -7   4    2.44    0.58
  -9  -7  -4    2.16    0.66
   9   7   4    2.39    0.63
   9   7   4    1.93    0.65
  -9   7  -4    2.39    0.44
  -9   7  -4    1.45    0.60
  11  -7   4    7.20    0.91
 -11  -7  -4    8.00    1.09
  11   7   4    8.41    1.20
 -11   7  -4    7.99    1.09
 -11   7  -4    7.11    0.65
  11   7   4    8.33    0.99
 -13  -7  -4    4.85    0.92
  13  -7   4    6.90    0.85
 -13   7  -4    5.43    1.02
  13   7   4    6.60    0.94
  13   7   4    5.17    0.99
 -13   7  -4    5.07    0.55
  15  -7   4    1.70    0.37
 -15  -7  -4    0.23    0.39
  15   7   4    1.06    0.44
  15   7   4    2.16    0.48
  17  -7   4    2.13    0.52
  17  -7   4    2.64    0.27
 -17  -7  -4    1.59    0.48
  17   7   4    1.99    0.51
  17   7   4    2.17    0.45
  19  -7   4    0.90    0.28
  19   7   4    1.15    0.19
 -16  -8   4    1.10    0.30
  16   8  -4    1.06    0.15
  16   8  -4    1.36    0.29
 -14  -8   4    6.01    0.97
  14   8  -4    6.03    0.89
  14   8  -4    6.58    0.61
  14   8  -4    6.85    0.95
  12  -8  -4    3.42    0.39
 -12  -8   4    2.57    0.66
  12   8  -4    1.55    0.51
 -12   8   4    2.93    0.12
  12   8  -4    2.20    0.57
  10  -8  -4    1.44    0.31
 -10  -8   4    1.01    0.38
  10   8  -4    0.33    0.24
  10   8  -4    0.96    0.33
   8  -8  -4    2.22    0.44
  -8  -8   4    1.20    0.49
   8   8  -4    1.43    0.51
  -8   8   4    2.40    0.44
  -8   8   4    2.33    0.20
   8   8  -4    2.89    0.28
  -6  -8   4   11.85    1.40
   6  -8  -4   11.65    1.11
  -6  -8   4   10.71    1.10
   6   8  -4   11.27    1.15
   6   8  -4   11.87    1.05
  -6   8   4   11.67    0.68
  -6   8   4   11.88    1.12
   4  -8  -4    3.04    0.61
  -4  -8   4    2.16    0.50
  -4  -8   4    1.44    0.62
  -4   8   4    2.45    0.57
  -4   8   4    2.49    0.42
   4   8  -4    1.74    0.49
   4   8  -4    2.77    0.47
  -2  -8   4    0.56    0.45
   2  -8  -4    0.36    0.33
  -2  -8   4    1.05    0.25
   2   8  -4    0.88    0.26
  -2   8   4    0.41    0.25
  -2   8   4    0.13    0.33
   2   8  -4    0.49    0.35
   0  -8   4    1.36    0.43
   0  -8   4    2.00    0.42
   0  -8  -4    0.32    0.33
   0   8  -4    1.40    0.35
   0   8  -4    0.98    0.43
   0   8   4    0.96    0.49
   0   8   4    0.81    0.36
  -2  -8  -4    0.24    0.32
   2  -8   4    0.39    0.29
   2  -8   4    0.94    0.19
  -2   8  -4    0.54    0.38
   2   8   4   -0.12    0.26
  -2   8  -4    0.67    0.19
   2   8   4    0.17    0.40
   4  -8   4    2.15    0.60
  -4  -8  -4    1.04    0.49
  -4   8  -4    1.13    0.33
   4   8   4    0.56    0.48
  -4   8  -4    0.61    0.35
   4   8   4    1.43    0.48
   6  -8   4    3.64    0.70
  -6  -8  -4    3.74    0.78
   6   8   4    2.47    0.78
   6   8   4    3.53    0.65
  -6   8  -4    3.93    0.69
  -6   8  -4    4.01    0.62
  -8  -8  -4    2.07    0.64
   8  -8   4    1.97    0.52
   8   8   4    2.66    0.58
  -8   8  -4    1.16    0.40
  -8   8  -4    1.98    0.39
   8   8   4    0.63    0.38
 -10  -8  -4    1.52    0.60
  10  -8   4    1.05    0.33
 -10   8  -4    1.31    0.38
 -10   8  -4    1.11    0.29
  10   8   4    1.70    0.51
  10   8   4    1.46    0.46
  12  -8   4    1.75    0.30
 -12  -8  -4    0.47    0.36
  12   8   4    1.47    0.49
  12   8   4    0.86    0.39
 -12   8  -4    1.38    0.27
 -12   8  -4    1.40    0.37
  14  -8   4    3.66    0.59
 -14  -8  -4    3.04    0.72
  14   8   4    3.40    0.62
 -14   8  -4    4.37    0.38
 -14   8  -4    4.98    0.80
  14   8   4    4.30    0.85
  16  -8   4    4.98    0.46
 -16  -8  -4    3.47    0.67
 -16   8  -4    4.70    0.71
  16   8   4    2.91    0.69
 -16   8  -4    4.22    0.37
  16   8   4    3.28    0.38
  -9  -9   4    1.95    0.40
  -9   9   4    3.04    0.13
  -9   9   4    2.50    0.10
   9   9  -4    1.70    0.41
   9   9  -4    1.85    0.50
   7   9  -4    1.06    0.27
   7   9  -4    0.84    0.31
   5  -9  -4   36.64    2.18
  -5  -9   4   36.29    2.23
  -5  -9   4   35.50    2.37
   5   9  -4   36.22    2.12
  -5   9   4   40.07    1.56
   5   9  -4   37.34    2.12
  -5   9   4   37.04    2.17
  -3  -9   4    0.82    0.34
   3  -9  -4    1.68    0.35
  -3  -9   4    2.26    0.24
  -3   9   4    1.66    0.30
  -3   9   4    1.78    0.38
   3   9  -4    1.81    0.38
   1  -9  -4    2.00    0.44
  -1  -9   4    3.02    0.34
  -1  -9   4    1.80    0.43
   1   9  -4    1.66    0.46
  -1   9   4    2.66    0.43
  -1   9   4    1.92    0.48
   1   9  -4    2.74    0.18
   1  -9   4    1.01    0.26
  -1  -9  -4    1.43    0.44
   1   9   4    1.33    0.36
   1   9   4    1.26    0.34
  -1   9  -4    1.47    0.38
  -3  -9  -4   10.09    1.14
   3  -9   4    9.78    1.20
  -3   9  -4    9.10    0.87
   3   9   4    9.99    1.25
   3   9   4   10.88    0.99
  -3   9  -4    9.71    0.91
   5  -9   4   20.83    1.69
  -5  -9  -4   21.98    1.76
   5   9   4   19.02    1.69
   5   9   4   21.85    1.48
  -5   9  -4   21.59    1.49
  -5   9  -4   19.30    1.27
  -7  -9  -4    1.81    0.56
   7  -9   4    2.28    0.43
   7   9   4    1.74    0.42
   7   9   4    1.94    0.57
  -7   9  -4    2.17    0.24
  32   0  -5    1.21    0.39
 -30   0   5    1.54    0.34
  30   0  -5    1.07    0.48
  28   0  -5   -0.15    0.35
 -28   0   5    0.78    0.30
 -26   0   5    0.48    0.36
 -26   0   5    0.78    0.17
  26   0  -5    0.39    0.41
 -24   0   5    0.22    0.31
  24   0  -5   -0.01    0.28
 -24   0   5    0.72    0.27
  22   0  -5    0.13    0.32
 -22   0   5    0.09    0.33
 -22   0   5    0.46    0.33
 -20   0   5    0.16    0.30
 -20   0   5   -0.14    0.30
  20   0  -5    0.01    0.28
  18   0  -5   -0.10    0.26
 -18   0   5   -0.26    0.22
  18   0  -5   -0.16    0.22
  16   0  -5    0.15    0.26
  16   0  -5    0.07    0.24
 -16   0   5    0.27    0.32
  14   0  -5    0.01    0.21
  14   0  -5    0.13    0.23
 -14   0   5    0.30    0.27
  12   0  -5   -0.14    0.20
 -12   0   5    0.10    0.22
  12   0  -5   -0.03    0.19
 -10   0   5   -0.03    0.17
  10   0  -5    0.45    0.23
  10   0  -5    0.13    0.19
  -8   0   5    0.09    0.18
   8   0  -5   -0.07    0.13
   8   0  -5    0.24    0.19
   6   0  -5   -0.06    0.15
  -6   0   5   -0.02    0.13
   6   0  -5    0.07    0.14
   4   0  -5   -0.08    0.15
  -4   0   5    0.11    0.09
   4   0  -5    0.05    0.11
  -4   0   5   -0.02    0.13
   4   0  -5    0.36    0.09
  -2   0   5    0.05    0.13
  -2   0   5   -0.01    0.09
   2   0  -5    0.20    0.10
   2   0  -5    0.09    0.11
   2   0  -5    0.11    0.15
   0   0   5    0.10    0.13
   0   0  -5    0.36    0.17
   0   0  -5    0.07    0.10
   0   0  -5    0.22    0.11
   0   0   5    0.12    0.11
   2   0   5   -0.02    0.07
   2   0   5    0.01    0.12
  -2   0  -5    0.08    0.10
  -2   0  -5    0.06    0.13
  -2   0  -5    0.15    0.12
  -4   0  -5    0.15    0.08
   4   0   5    0.18    0.09
   4   0   5    0.09    0.16
   4   0   5    0.12    0.10
  -4   0  -5    0.19    0.16
   6   0   5    0.65    0.16
  -6   0  -5   -0.05    0.14
   6   0   5   -0.09    0.13
   6   0   5    0.21    0.12
  -8   0  -5   -0.05    0.15
   8   0   5    0.14    0.15
   8   0   5    0.25    0.06
   8   0   5   -0.03    0.16
 -10   0  -5    0.48    0.24
  10   0   5    0.55    0.13
  10   0   5    0.19    0.17
  10   0   5    0.02    0.21
 -12   0  -5    0.72    0.06
  12   0   5    0.14    0.22
 -12   0  -5    0.05    0.22
  12   0   5    0.47    0.22
  14   0   5   -0.01    0.25
 -14   0  -5    0.18    0.27
  14   0   5    0.21    0.23
  16   0   5    0.06    0.23
  16   0   5    0.29    0.20
 -16   0  -5    0.36    0.33
 -18   0  -5    0.05    0.31
  18   0   5    0.29    0.31
  18   0   5    0.53    0.24
  20   0   5    0.29    0.33
 -20   0  -5   -0.16    0.29
  20   0   5    0.65    0.20
  22   0   5    0.47    0.26
  22   0   5    0.72    0.14
 -22   0  -5    0.13    0.37
 -24   0  -5   -0.18    0.33
  24   0   5    0.52    0.20
 -26   0  -5    0.04    0.36
  26   0   5    0.67    0.20
 -28   0  -5    0.41    0.31
 -30   0  -5    0.92    0.29
  31  -1  -5    2.94    0.67
 -31  -1   5    3.14    0.58
 -31  -1   5    4.17    0.33
 -31   1   5    3.08    0.69
  31   1  -5    2.46    0.67
 -29  -1   5    2.05    0.44
  29  -1  -5    1.58    0.53
 -29   1   5    1.39    0.58
  29   1  -5    1.53    0.53
 -27  -1   5   21.57    1.52
  27  -1  -5   17.78    1.56
 -27  -1   5   20.97    1.47
 -27   1   5   21.36    1.38
  27   1  -5   16.65    1.56
 -27   1   5   18.39    1.63
 -25  -1   5    1.16    0.36
  25  -1  -5    0.99    0.50
 -25  -1   5    1.36    0.37
  25   1  -5    0.82    0.51
 -25   1   5    0.37    0.46
 -25   1   5    1.26    0.29
 -23  -1   5    1.79    0.49
 -23  -1   5    1.89    0.45
  23  -1  -5    1.93    0.63
 -23   1   5    2.12    0.45
  23   1  -5    1.52    0.56
 -23   1   5    1.97    0.66
  21  -1  -5    4.03    0.75
 -21  -1   5    4.54    0.68
 -21  -1   5    3.66    0.67
 -21   1   5    4.71    0.84
 -21   1   5    5.26    0.72
  21   1  -5    3.24    0.71
  19  -1  -5    9.87    1.02
  19  -1  -5    9.28    0.95
 -19  -1   5   10.34    0.90
 -19  -1   5   10.70    0.99
  19   1  -5    8.48    0.95
 -19   1   5   10.68    0.94
  17  -1  -5    1.77    0.48
 -17  -1   5    2.05    0.50
 -17  -1   5    2.28    0.45
  17  -1  -5    1.78    0.50
  17   1  -5    2.07    0.55
 -17   1   5    1.97    0.48
 -15  -1   5   10.28    0.87
  15  -1  -5   10.13    0.93
  15  -1  -5    9.69    0.86
  15   1  -5   10.42    0.45
  15   1  -5    9.94    0.76
  15   1  -5   10.12    0.90
 -15   1   5   10.72    0.88
  15   1  -5   11.99    0.83
 -13  -1   5   20.87    1.20
  13  -1  -5   21.00    1.26
  13  -1  -5   21.00    1.18
  13   1  -5   19.78    1.03
  13   1  -5   19.46    1.20
 -13   1   5   21.91    1.23
  13   1  -5   21.65    0.74
  13   1  -5   22.82    1.27
  11  -1  -5   20.85    1.20
 -11  -1   5   21.78    1.16
  11  -1  -5   20.83    1.09
  11   1  -5   22.81    1.22
  11   1  -5   21.49    0.77
  11   1  -5   18.57    1.11
 -11   1   5   21.37    1.15
  11   1  -5   20.56    0.99
  -9  -1   5    4.51    0.28
   9  -1  -5    4.26    0.54
  -9  -1   5    3.83    0.48
   9  -1  -5    3.97    0.45
   9   1  -5    4.29    0.53
  -9   1   5    4.37    0.50
   9   1  -5    4.87    0.48
   9   1  -5    4.16    0.41
  -9   1   5    4.89    0.40
   7  -1  -5    3.38    0.35
  -7  -1   5    4.01    0.30
  -7  -1   5    3.20    0.43
   7  -1  -5    3.45    0.50
   7   1  -5    3.25    0.35
  -7   1   5    4.33    0.22
   7   1  -5    3.72    0.47
   7   1  -5    3.00    0.38
  -7   1   5    3.61    0.45
  -7   1   5    3.94    0.34
  -5  -1   5   32.42    1.00
   5  -1  -5   32.70    1.42
  -5  -1   5   33.14    1.27
   5  -1  -5   33.26    1.09
   5   1  -5   33.72    1.29
   5   1  -5   33.64    1.19
  -5   1   5   33.39    1.29
   5   1  -5   33.28    1.39
  -5   1   5   33.81    0.95
  -3  -1   5   31.45    1.01
   3  -1  -5   33.31    0.96
  -3  -1   5   31.46    1.16
   3  -1  -5   32.37    1.39
   3   1  -5   32.61    1.20
  -3   1   5   32.72    1.22
   3   1  -5   31.50    1.27
   3   1  -5   32.35    1.14
  -3   1   5   30.81    1.00
  -1  -1   5   43.67    1.34
   1  -1  -5   43.62    1.60
   1  -1  -5   42.64    1.39
   1  -1  -5   42.65    1.06
  -1  -1   5   43.41    1.30
   1   1  -5   45.39    1.36
  -1   1   5   46.46    1.35
   1   1  -5   43.99    1.38
   1   1  -5   41.29    1.43
  -1   1   5   43.26    1.31
  -1  -1  -5   60.86    1.71
  -1  -1  -5   59.62    1.33
   1  -1   5   60.34    1.58
  -1  -1  -5   59.38    1.69
   1  -1   5   61.41    1.69
  -1  -1  -5   58.40    1.87
   1   1   5   60.73    1.71
  -1   1  -5   59.47    1.69
  -1   1  -5   60.37    1.67
  -1   1  -5   60.03    1.76
   1   1   5   60.04    1.73
   3  -1   5   15.42    0.52
  -3  -1  -5   14.67    0.78
  -3  -1  -5   14.72    0.68
   3  -1   5   15.65    0.71
   3  -1   5   15.74    0.77
  -3   1  -5   15.14    0.72
   3   1   5   15.48    0.47
   3   1   5   15.09    0.79
   3   1   5   14.35    0.73
  -5  -1  -5   18.58    0.79
   5  -1   5   19.60    0.51
  -5  -1  -5   17.97    0.90
   5  -1   5   17.64    0.80
   5  -1   5   18.51    0.90
   5   1   5   19.12    0.63
   5   1   5   17.90    0.93
   5   1   5   18.80    0.89
  -5   1  -5   19.36    0.89
  -7  -1  -5    2.39    0.28
  -7  -1  -5    1.88    0.34
   7  -1   5    1.93    0.32
   7  -1   5    1.77    0.34
   7   1   5    2.79    0.37
   7   1   5    1.91    0.38
  -7   1  -5    2.21    0.37
   7   1   5    2.37    0.23
   9  -1   5    2.18    0.39
   9  -1   5    2.72    0.39
  -9  -1  -5    2.01    0.38
  -9  -1  -5    2.63    0.27
   9   1   5    2.44    0.30
   9   1   5    2.30    0.43
  -9   1  -5    2.76    0.43
   9   1   5    2.75    0.27
 -11  -1  -5    5.25    0.59
 -11  -1  -5    6.07    0.44
  11  -1   5    5.13    0.57
  11  -1   5    5.00    0.53
  11   1   5    5.58    0.66
 -11   1  -5    5.37    0.60
  11   1   5    6.09    0.53
  11   1   5    5.56    0.44
  13  -1   5    0.66    0.32
 -13  -1  -5    0.50    0.31
 -13  -1  -5    1.02    0.17
  13  -1   5    0.78    0.32
 -13   1  -5    0.34    0.30
  13   1   5    1.14    0.25
  13   1   5    0.21    0.27
  13   1   5    0.79    0.18
 -15  -1  -5    8.15    0.82
  15  -1   5    9.00    0.81
  15  -1   5    7.92    0.72
 -15  -1  -5    9.78    0.61
  15   1   5   10.09    0.75
  15   1   5    8.17    0.67
 -15   1  -5    9.06    0.86
  15   1   5    8.49    0.83
 -17  -1  -5    0.97    0.41
  17  -1   5    1.48    0.37
 -17  -1  -5    1.85    0.19
  17  -1   5    1.08    0.40
 -17   1  -5    0.95    0.43
  17   1   5    1.55    0.34
  17   1   5    1.37    0.42
 -19  -1  -5    0.05    0.35
  19  -1   5    0.25    0.36
  19  -1   5    0.64    0.25
  19   1   5    1.12    0.28
 -19   1  -5    0.15    0.33
  19   1   5    0.53    0.24
  21  -1   5    1.30    0.48
  21  -1   5    1.45    0.33
 -21  -1  -5    0.77    0.45
 -21   1  -5    0.60    0.44
  21   1   5    1.98    0.44
  21   1   5    2.01    0.39
  23  -1   5    4.19    0.75
 -23  -1  -5    4.96    0.85
  23  -1   5    5.51    0.55
 -23   1  -5    3.45    0.77
  23   1   5    5.26    0.57
  23   1   5    5.93    0.68
 -25  -1  -5    0.39    0.44
  25  -1   5    1.09    0.45
 -25   1  -5    0.52    0.46
  25   1   5    0.62    0.13
  27  -1   5    0.44    0.22
 -27  -1  -5    0.33    0.35
 -27   1  -5    0.00    0.33
  29  -1   5    2.66    0.48
 -29  -1  -5    3.00    0.60
  29   1   5    3.77    0.35
 -29   1  -5    1.62    0.58
  30  -2  -5   14.24    1.42
 -30  -2   5   15.77    1.20
 -30   2   5   15.65    1.61
  30   2  -5   13.45    1.42
 -28  -2   5    1.81    0.22
  28  -2  -5    1.28    0.51
 -28  -2   5    1.46    0.18
 -28   2   5    0.23    0.46
  28   2  -5    1.41    0.64
 -26  -2   5    4.60    0.56
 -26  -2   5    4.69    0.72
  26  -2  -5    4.97    0.87
  26   2  -5    4.14    0.87
 -26   2   5    3.62    0.89
 -26   2   5    5.83    0.52
  24  -2  -5    8.97    1.12
 -24  -2   5    8.95    0.81
 -24  -2   5    7.65    0.97
 -24   2   5    8.59    0.79
  24   2  -5    7.64    1.08
 -24   2   5    7.05    1.10
  22  -2  -5   31.77    1.88
 -22  -2   5   32.03    1.61
 -22  -2   5   30.34    1.81
 -22   2   5   32.59    2.09
 -22   2   5   31.52    1.70
  22   2  -5   29.32    1.93
 -20  -2   5   17.51    1.10
 -20  -2   5   15.98    1.25
  20  -2  -5   16.45    1.38
  20  -2  -5   18.03    1.34
 -20   2   5   19.08    1.27
  20   2  -5   16.88    1.38
  18  -2  -5    0.51    0.42
 -18  -2   5    0.50    0.22
 -18  -2   5    0.67    0.37
  18  -2  -5    0.34    0.33
  18   2  -5    0.60    0.42
 -18   2   5    0.72    0.34
  16  -2  -5    8.19    0.82
 -16  -2   5    8.91    0.67
  16  -2  -5    8.72    0.95
 -16  -2   5    7.97    0.83
 -16   2   5    6.86    0.74
  16   2  -5    8.14    0.90
  16   2  -5    9.22    0.80
  16   2  -5    8.75    0.54
 -14  -2   5   27.88    1.19
 -14  -2   5   26.43    1.43
  14  -2  -5   30.05    1.65
  14  -2  -5   28.04    1.41
  14   2  -5   28.01    1.58
 -14   2   5   28.21    1.20
  14   2  -5   29.47    1.15
 -14   2   5   28.34    1.45
  14   2  -5   25.37    1.50
  12  -2  -5    0.56    0.31
  12  -2  -5    0.29    0.26
 -12  -2   5    0.33    0.27
  12   2  -5    1.26    0.29
  12   2  -5    0.83    0.17
 -12   2   5    1.47    0.13
 -12   2   5    0.20    0.24
  12   2  -5    0.20    0.29
 -12   2   5    1.00    0.06
  10  -2  -5    2.09    0.47
 -10  -2   5    1.97    0.41
  10  -2  -5    2.15    0.36
 -10  -2   5    2.88    0.29
  10   2  -5    2.52    0.44
  10   2  -5    2.95    0.26
  10   2  -5    2.09    0.47
 -10   2   5    3.21    0.27
 -10   2   5    2.16    0.43
 -10   2   5    3.00    0.19
   8  -2  -5    0.59    0.29
  -8  -2   5    0.68    0.21
  -8  -2   5    0.52    0.24
   8  -2  -5    0.46    0.17
   8   2  -5    0.34    0.26
   8   2  -5    1.10    0.28
  -8   2   5    0.38    0.23
   6  -2  -5    2.11    0.24
  -6  -2   5    1.98    0.31
   6  -2  -5    1.59    0.39
  -6  -2   5    1.83    0.34
   6   2  -5    2.52    0.19
  -6   2   5    1.90    0.35
   6   2  -5    2.21    0.40
  -6   2   5    2.20    0.24
  -6   2   5    3.15    0.25
   6   2  -5    2.43    0.42
  -4  -2   5    2.82    0.35
  -4  -2   5    2.92    0.36
   4  -2  -5    2.08    0.42
   4  -2  -5    2.92    0.39
   4  -2  -5    3.26    0.23
   4   2  -5    3.34    0.47
  -4   2   5    2.83    0.27
  -4   2   5    2.72    0.30
  -4   2   5    3.33    0.26
   4   2  -5    3.46    0.23
   4   2  -5    2.88    0.42
  -2  -2   5    6.16    0.46
  -2  -2   5    6.57    0.48
   2  -2  -5    6.55    0.63
   2  -2  -5    6.37    0.52
   2  -2  -5    6.99    0.28
  -2   2   5    6.96    0.40
   2   2  -5    6.80    0.55
  -2   2   5    6.58    0.41
   2   2  -5    7.36    0.38
  -2   2   5    6.51    0.48
   2   2  -5    6.47    0.53
   0  -2  -5    3.94    0.47
   0  -2  -5    4.56    0.44
   0  -2   5    3.98    0.39
   0  -2   5    4.52    0.36
   0   2   5    4.06    0.35
   0   2  -5    4.46    0.42
   0   2  -5    4.86    0.33
   0   2  -5    4.41    0.44
   0   2   5    4.69    0.44
  -2  -2  -5    1.97    0.32
   2  -2   5    2.13    0.20
   2  -2   5    1.71    0.30
  -2  -2  -5    2.24    0.37
  -2   2  -5    2.30    0.36
   2   2   5    2.19    0.36
   2   2   5    1.89    0.29
  -2   2  -5    2.12    0.30
  -2   2  -5    2.16    0.27
   4  -2   5   27.63    1.14
   4  -2   5   28.06    0.79
  -4  -2  -5   27.76    1.13
  -4  -2  -5   26.06    1.16
   4  -2   5   26.85    1.12
  -4   2  -5   28.63    1.07
   4   2   5   27.02    0.69
   4   2   5   25.30    1.10
   4   2   5   27.09    1.21
  -6  -2  -5   17.90    0.95
   6  -2   5   19.05    0.96
   6  -2   5   17.83    0.49
   6  -2   5   18.45    0.93
  -6  -2  -5   16.87    0.88
   6   2   5   16.82    0.99
   6   2   5   17.00    0.94
  -6   2  -5   18.62    0.92
   6   2   5   18.46    0.62
  -8  -2  -5   19.30    0.98
   8  -2   5   20.74    1.05
  -8  -2  -5   19.73    1.04
   8  -2   5   19.61    1.02
   8   2   5   18.45    1.09
   8   2   5   20.53    1.10
  -8   2  -5   20.07    1.04
   8   2   5   20.22    0.77
 -10  -2  -5   13.23    0.88
  10  -2   5   13.75    0.89
 -10  -2  -5   13.05    0.81
  10  -2   5   13.27    0.86
  10   2   5   12.36    0.93
  10   2   5   13.93    0.68
 -10   2  -5   12.93    0.89
  10   2   5   14.59    0.94
 -12  -2  -5   20.89    1.09
  12  -2   5   21.29    1.18
  12  -2   5   22.71    1.18
 -12  -2  -5   23.00    1.24
  12   2   5   23.51    1.29
  12   2   5   22.62    1.32
  12   2   5   22.42    1.00
 -12   2  -5   22.12    1.26
 -14  -2  -5   38.74    1.76
  14  -2   5   38.51    1.66
  14  -2   5   39.97    1.76
 -14  -2  -5   41.82    1.65
 -14   2  -5   39.28    1.83
  14   2   5   41.13    1.88
  14   2   5   39.80    1.87
  14   2   5   40.02    1.55
 -16  -2  -5   56.17    2.04
  16  -2   5   52.20    2.16
  16  -2   5   55.07    2.06
 -16  -2  -5   53.33    2.23
  16   2   5   53.37    1.96
 -16   2  -5   49.86    2.25
  16   2   5   54.84    2.34
  16   2   5   52.79    2.26
  18  -2   5   15.87    1.04
  18  -2   5   14.41    1.15
 -18  -2  -5   15.74    0.97
 -18  -2  -5   14.20    1.16
  18   2   5   15.70    1.19
  18   2   5   16.64    1.04
 -18   2  -5   14.67    1.23
 -20  -2  -5    7.15    0.88
  20  -2   5    6.68    0.88
  20  -2   5    7.58    0.69
 -20  -2  -5    8.73    0.66
  20   2   5    6.67    0.67
  20   2   5    7.76    0.78
 -20   2  -5    7.39    0.99
  22  -2   5    9.40    1.02
 -22  -2  -5   10.74    1.07
  22  -2   5   11.45    0.87
  22   2   5   10.00    0.87
 -22   2  -5   11.23    1.20
  22   2   5   11.74    1.03
  24  -2   5   29.31    1.88
 -24  -2  -5   33.24    1.97
  24   2   5   31.10    1.76
 -24   2  -5   29.68    2.02
  24   2   5   31.51    1.72
  26  -2   5    1.50    0.50
 -26  -2  -5    2.53    0.52
 -26   2  -5    0.54    0.50
  26   2   5    2.56    0.20
 -28  -2  -5    4.72    0.71
  28  -2   5    4.00    0.74
  28   2   5    4.81    0.40
 -28   2  -5    4.78    0.89
  29  -3  -5    1.93    0.49
  29   3  -5    1.67    0.45
 -29   3   5    1.37    0.54
 -27  -3   5    2.79    0.56
  27  -3  -5    4.19    0.79
  27   3  -5    2.42    0.69
 -27   3   5    3.13    0.85
 -25  -3   5   19.21    1.51
  25  -3  -5   20.34    1.59
  25   3  -5   17.96    1.62
 -25   3   5   22.08    1.87
  23  -3  -5   10.45    1.09
 -23  -3   5    9.92    1.09
 -23   3   5   11.43    0.92
 -23   3   5   10.18    1.31
  23   3  -5   11.35    1.34
  21  -3  -5   19.64    1.62
 -21  -3   5   19.68    1.47
  21  -3  -5   18.84    1.40
 -21   3   5   20.73    1.33
  21   3  -5   19.21    1.55
  19  -3  -5    0.59    0.48
  19  -3  -5    0.07    0.26
 -19  -3   5    0.44    0.39
 -19   3   5    1.05    0.30
  19   3  -5    0.36    0.45
 -17  -3   5   51.57    1.78
 -17  -3   5   49.63    2.24
  17  -3  -5   50.34    2.15
  17  -3  -5   53.20    2.53
  17   3  -5   48.15    2.36
 -17   3   5   51.52    2.18
  17   3  -5   49.24    2.42
  17   3  -5   51.97    1.92
  15  -3  -5   31.19    1.84
  15  -3  -5   32.70    1.59
 -15  -3   5   31.62    1.68
 -15  -3   5   32.81    1.24
  15   3  -5   32.34    1.86
  15   3  -5   34.36    1.88
 -15   3   5   33.59    1.66
  15   3  -5   32.66    1.46
  13  -3  -5   17.95    1.07
 -13  -3   5   20.38    0.83
 -13  -3   5   18.72    1.22
  13  -3  -5   18.36    1.33
 -13   3   5   19.71    0.80
  13   3  -5   19.03    1.34
 -13   3   5   17.68    1.15
  13   3  -5   19.22    1.34
  13   3  -5   19.08    1.08
 -13   3   5   20.37    0.87
  11  -3  -5    3.27    0.62
  11  -3  -5    4.13    0.50
 -11  -3   5    4.11    0.28
 -11  -3   5    3.96    0.44
 -11  -3   5    3.68    0.57
  11   3  -5    3.95    0.60
 -11   3   5    3.89    0.31
 -11   3   5    4.62    0.32
 -11   3   5    3.98    0.57
  11   3  -5    4.04    0.67
  -9  -3   5  111.90    2.50
   9  -3  -5  102.08    3.48
  -9  -3   5  105.41    3.03
  -9  -3   5  108.98    3.24
   9  -3  -5  107.46    2.82
  -9   3   5  111.54    3.28
  -9   3   5  109.24    2.73
  -9   3   5  111.33    2.65
   9   3  -5  110.59    3.41
   9   3  -5  105.63    3.54
   7  -3  -5    2.48    0.43
  -7  -3   5    2.84    0.45
   7  -3  -5    3.20    0.31
   7  -3  -5    3.14    0.54
  -7  -3   5    3.11    0.46
  -7   3   5    2.99    0.26
  -7   3   5    3.97    0.26
  -7   3   5    3.09    0.32
   7   3  -5    3.50    0.57
   7   3  -5    2.85    0.52
   5  -3  -5  184.07    3.95
  -5  -3   5  191.05    4.39
   5  -3  -5  173.08    4.95
   5  -3  -5  183.70    4.64
  -5  -3   5  183.92    4.56
  -5   3   5  180.03    4.06
  -5   3   5  190.86    3.99
   5   3  -5  172.65    4.76
  -5   3   5  180.11    4.19
   5   3  -5  178.84    4.61
  -3  -3   5   20.85    1.04
   3  -3  -5   20.29    1.22
  -3  -3   5   22.03    1.03
   3  -3  -5   20.85    0.71
   3  -3  -5   20.79    1.08
   3   3  -5   20.71    1.11
  -3   3   5   19.93    0.76
   3   3  -5   20.07    1.10
   3   3  -5   22.70    0.64
  -3   3   5   21.28    0.79
  -3   3   5   20.57    1.01
  -1  -3   5  133.41    3.42
   1  -3  -5  139.23    3.66
   1  -3  -5  129.60    3.91
  -1  -3   5  136.72    3.42
  -1   3   5  141.33    3.26
   1   3  -5  132.24    3.52
   1   3  -5  135.83    3.55
   1   3  -5  140.14    3.08
  -1   3   5  134.63    2.88
  -1   3   5  133.94    3.46
   1  -3   5    3.25    0.45
   1  -3   5    3.43    0.34
  -1  -3  -5    3.05    0.44
  -1  -3  -5    3.75    0.52
   1   3   5    3.15    0.36
   1   3   5    4.29    0.21
  -1   3  -5    2.96    0.36
  -1   3  -5    3.19    0.46
   1   3   5    3.53    0.49
  -1   3  -5    3.87    0.28
  -3  -3  -5  215.26    5.41
   3  -3   5  218.21    5.09
   3  -3   5  230.37    5.00
  -3  -3  -5  212.73    5.53
  -3   3  -5  231.50    5.28
  -3   3  -5  231.51    5.10
   3   3   5  215.50    5.23
   3   3   5  220.74    5.28
   3   3   5  232.85    4.56
  -3   3  -5  231.73    5.16
   5  -3   5   27.91    1.27
  -5  -3  -5   26.55    1.26
   5  -3   5   26.04    0.89
   5  -3   5   26.83    1.23
  -5  -3  -5   25.85    1.24
   5   3   5   25.53    1.22
  -5   3  -5   27.43    1.12
   5   3   5   25.63    1.34
   5   3   5   27.32    0.81
  -7  -3  -5    7.31    0.65
  -7  -3  -5    7.26    0.66
   7  -3   5    7.91    0.69
   7  -3   5    7.77    0.37
   7  -3   5    7.38    0.65
   7   3   5    7.44    0.39
   7   3   5    6.99    0.66
   7   3   5    7.42    0.73
  -7   3  -5    8.05    0.64
  -9  -3  -5   24.94    1.25
  -9  -3  -5   24.99    1.28
   9  -3   5   26.49    1.32
   9  -3   5   26.82    1.30
   9   3   5   26.85    0.99
   9   3   5   24.89    1.41
   9   3   5   25.96    1.38
  -9   3  -5   25.64    1.27
  11  -3   5   32.89    1.50
 -11  -3  -5   31.85    1.48
 -11  -3  -5   31.42    1.50
  11  -3   5   34.69    1.59
  11   3   5   32.10    1.68
 -11   3  -5   31.77    1.55
  11   3   5   33.85    1.65
  11   3   5   35.03    1.26
 -13  -3  -5   14.95    1.03
  13  -3   5   13.48    0.98
 -13  -3  -5   13.37    0.98
  13  -3   5   13.55    1.03
  13   3   5   14.14    1.12
  13   3   5   17.12    0.87
  13   3   5   14.94    1.09
 -13   3  -5   14.41    1.09
 -15  -3  -5    1.94    0.47
  15  -3   5    1.51    0.47
  15  -3   5    2.66    0.48
 -15  -3  -5    2.36    0.47
 -15   3  -5    1.52    0.50
  15   3   5    2.87    0.50
  15   3   5    2.96    0.30
  15   3   5    2.78    0.63
  17  -3   5    7.09    0.67
 -17  -3  -5    7.15    0.71
  17  -3   5    6.34    0.82
 -17  -3  -5    5.70    0.70
  17   3   5    7.18    0.73
 -17   3  -5    6.36    0.88
  17   3   5    6.09    0.86
  17   3   5    7.09    0.60
  19  -3   5   46.42    2.25
  19  -3   5   51.38    2.08
 -19  -3  -5   50.17    2.17
 -19  -3  -5   49.81    2.25
 -19   3  -5   48.18    2.41
  19   3   5   50.14    2.03
  19   3   5   51.50    2.40
 -21  -3  -5    5.81    0.77
  21  -3   5    5.78    0.87
 -21  -3  -5    6.38    0.63
  21  -3   5    7.61    0.69
 -21   3  -5    5.84    0.95
  21   3   5    6.87    0.87
  21   3   5    6.16    0.56
  23  -3   5    2.75    0.68
 -23  -3  -5    4.56    0.68
  23   3   5    2.85    0.54
 -23   3  -5    2.24    0.69
  23   3   5    3.72    0.34
  25  -3   5    2.91    0.73
 -25  -3  -5    3.03    0.54
  25   3   5    3.46    0.55
 -25   3  -5    2.75    0.77
  27  -3   5   25.06    1.86
 -27  -3  -5   23.16    1.64
 -27   3  -5   22.81    1.91
  29  -3   5    8.91    1.02
 -29  -3  -5    9.68    0.93
 -29   3  -5    9.64    1.28
 -28  -4   5    2.19    0.45
  28  -4  -5    2.95    0.61
 -28   4   5    2.43    0.77
  28   4  -5    1.74    0.34
  26  -4  -5   26.05    1.85
 -26  -4   5   22.95    1.73
 -26   4   5   24.65    2.10
  26   4  -5   26.69    1.99
 -24  -4   5   21.70    1.67
  24  -4  -5   24.09    1.69
 -24   4   5   23.62    1.99
  24   4  -5   23.26    1.84
  22  -4  -5   29.21    1.81
 -22  -4   5   28.82    1.88
 -22   4   5   30.08    1.65
  22   4  -5   26.68    1.97
  20  -4  -5   26.97    1.96
 -20  -4   5   26.48    1.75
  20  -4  -5   28.73    1.71
 -20   4   5   27.68    1.59
  20   4  -5   27.55    1.91
 -18  -4   5   57.00    2.61
  18  -4  -5   57.15    2.40
  18  -4  -5   62.51    2.96
  18   4  -5   61.28    2.38
  18   4  -5   61.83    2.89
 -18   4   5   61.24    2.52
  18   4  -5   59.85    2.80
  16  -4  -5   19.75    1.25
  16  -4  -5   20.75    1.60
 -16  -4   5   20.23    1.43
  16   4  -5   19.12    1.50
  16   4  -5   20.87    1.29
  16   4  -5   22.28    1.59
 -16   4   5   21.07    1.34
 -14  -4   5   11.75    1.05
  14  -4  -5   14.11    1.27
  14  -4  -5   10.99    0.88
  14   4  -5   12.02    1.12
  14   4  -5   13.02    1.00
 -14   4   5   11.73    0.98
 -14   4   5   13.64    0.63
  14   4  -5   13.12    1.21
  12  -4  -5    1.86    0.35
  12  -4  -5    1.18    0.51
 -12  -4   5    1.43    0.44
 -12  -4   5    1.31    0.34
 -12   4   5    2.23    0.23
  12   4  -5    1.20    0.50
 -12   4   5    1.60    0.46
  12   4  -5    1.42    0.46
  10  -4  -5   18.46    1.35
  10  -4  -5   19.69    1.00
 -10  -4   5   18.60    1.20
 -10  -4   5   18.78    1.22
 -10   4   5   19.32    0.98
  10   4  -5   20.00    1.39
 -10   4   5   19.79    0.69
  10   4  -5   18.19    1.34
  -8  -4   5    0.18    0.26
   8  -4  -5    0.51    0.31
  -8  -4   5    0.15    0.27
   8  -4  -5    0.93    0.19
   8  -4  -5    0.28    0.28
  -8   4   5    0.45    0.16
   8   4  -5    0.35    0.37
   8   4  -5    0.20    0.27
  -8   4   5    0.31    0.12
   6  -4  -5    2.54    0.53
   6  -4  -5    3.28    0.31
   6  -4  -5    2.38    0.46
  -6  -4   5    3.02    0.50
  -6  -4   5    3.05    0.52
   6   4  -5    1.95    0.49
  -6   4   5    3.80    0.24
  -6   4   5    2.36    0.24
  -6   4   5    2.85    0.44
   6   4  -5    2.88    0.58
  -4  -4   5    8.90    0.77
   4  -4  -5    9.15    0.87
   4  -4  -5    8.62    0.76
   4  -4  -5    7.93    0.46
  -4  -4   5    8.90    0.73
   4   4  -5    7.71    0.76
  -4   4   5    8.45    0.42
  -4   4   5    8.21    0.47
  -4   4   5    8.79    0.75
   4   4  -5    7.71    0.75
   2  -4  -5   39.91    1.86
  -2  -4   5   39.23    1.67
  -2  -4   5   43.02    1.62
   2  -4  -5   37.73    1.67
   2   4  -5   38.07    1.64
   2   4  -5   39.86    1.72
  -2   4   5   40.29    1.31
  -2   4   5   40.30    1.68
  -2   4   5   41.67    1.25
   0  -4  -5   22.68    1.35
   0  -4   5   24.19    1.27
   0  -4  -5   24.03    1.28
   0  -4   5   24.81    1.14
   0   4  -5   24.33    1.16
   0   4  -5   24.50    1.29
   0   4   5   24.19    1.04
   0   4   5   25.70    0.88
   0   4  -5   25.76    0.82
   0   4   5   24.78    1.31
  -2  -4  -5   23.28    1.31
  -2  -4  -5   22.67    1.27
   2  -4   5   23.85    1.05
   2  -4   5   24.22    1.26
  -2   4  -5   21.40    1.22
  -2   4  -5   25.04    0.90
   2   4   5   21.93    1.07
  -2   4  -5   22.07    1.06
   2   4   5   21.97    1.28
   2   4   5   24.25    0.86
   4  -4   5   54.00    2.02
   4  -4   5   53.97    1.73
  -4  -4  -5   54.65    2.13
  -4  -4  -5   54.96    2.11
  -4   4  -5   54.97    1.73
  -4   4  -5   56.32    2.11
   4   4   5   56.87    1.57
  -4   4  -5   54.55    1.78
   4   4   5   53.39    1.96
   4   4   5   53.00    2.14
  -6  -4  -5   23.73    1.25
   6  -4   5   22.19    1.24
  -6  -4  -5   22.06    1.28
   6  -4   5   23.25    0.93
  -6   4  -5   24.60    1.35
  -6   4  -5   24.72    1.07
   6   4   5   22.40    1.25
   6   4   5   22.16    1.38
  -6   4  -5   22.37    1.07
   6   4   5   24.38    0.89
  -8  -4  -5   22.57    1.33
  -8  -4  -5   23.01    1.22
   8  -4   5   24.20    1.34
   8  -4   5   24.55    1.31
   8  -4   5   23.38    0.89
   8   4   5   23.37    1.46
   8   4   5   22.24    1.33
  -8   4  -5   24.80    1.24
   8   4   5   25.12    0.96
  10  -4   5   13.44    0.99
 -10  -4  -5   14.75    0.96
 -10  -4  -5   12.59    1.02
  10  -4   5   13.48    1.05
  10   4   5   14.39    1.10
  10   4   5   14.78    1.19
  10   4   5   14.78    0.73
 -10   4  -5   14.38    0.99
  12  -4   5   43.21    1.90
 -12  -4  -5   42.41    1.99
  12  -4   5   43.95    2.00
 -12  -4  -5   45.18    1.89
  12   4   5   47.60    1.64
 -12   4  -5   47.25    2.01
  12   4   5   44.19    2.09
  12   4   5   45.68    2.20
 -14  -4  -5   66.04    2.63
  14  -4   5   67.08    2.62
 -14  -4  -5   67.21    2.50
  14  -4   5   66.18    2.45
 -14   4  -5   66.14    2.63
  14   4   5   65.77    2.81
  14   4   5   68.39    2.81
 -16  -4  -5   62.50    2.60
  16  -4   5   62.53    2.63
 -16  -4  -5   66.09    2.51
  16  -4   5   63.45    2.41
 -16   4  -5   58.51    2.60
  16   4   5   62.27    2.76
  16   4   5   62.26    2.75
 -18  -4  -5   70.68    2.82
  18  -4   5   67.12    2.56
 -18  -4  -5   69.95    2.70
  18  -4   5   65.00    2.80
  18   4   5   67.39    2.95
  18   4   5   61.76    2.88
 -18   4  -5   69.56    2.99
  20  -4   5   74.21    3.13
  20  -4   5   78.26    2.83
 -20  -4  -5   75.99    3.05
 -20  -4  -5   79.74    3.06
  20   4   5   78.09    3.29
 -20   4  -5   73.39    3.26
 -22  -4  -5   17.95    1.27
  22  -4   5   18.28    1.18
  22  -4   5   14.64    1.36
 -22  -4  -5   17.84    1.28
 -22   4  -5   15.71    1.47
  22   4   5   15.60    1.35
 -24  -4  -5   34.95    1.89
  24  -4   5   29.18    2.02
  24   4   5   35.47    2.11
 -24   4  -5   31.69    2.18
  26  -4   5    2.84    0.67
 -26   4  -5    1.70    0.53
  26   4   5    2.41    0.25
 -27  -5   5   16.82    1.47
  27  -5  -5   19.06    1.53
 -27   5   5   17.84    1.77
  27   5  -5   19.93    1.55
 -25  -5   5   16.09    1.46
  25  -5  -5   19.89    1.51
  25   5  -5   17.41    1.46
 -25   5   5   15.78    1.66
 -23  -5   5   11.71    1.29
  23  -5  -5   13.36    1.19
  23   5  -5   14.75    1.36
 -23   5   5   11.33    1.40
  21  -5  -5   46.00    2.32
 -21  -5   5   45.82    2.52
  21   5  -5   49.50    2.70
  19  -5  -5    9.34    1.28
  19  -5  -5    9.72    0.91
 -19  -5   5    8.81    1.14
  19   5  -5    7.87    1.12
 -19   5   5    8.47    0.77
  19   5  -5    9.11    0.83
  17  -5  -5   47.89    2.14
 -17  -5   5   44.51    2.33
  17  -5  -5   46.39    2.58
  17   5  -5   43.57    2.44
  17   5  -5   47.99    2.23
  17   5  -5   47.32    2.57
 -17   5   5   43.69    2.14
  15  -5  -5    9.84    1.14
 -15  -5   5    8.77    1.00
  15  -5  -5   11.19    0.90
 -15   5   5    9.50    0.90
  15   5  -5   11.16    1.01
  15   5  -5   10.55    1.11
  15   5  -5    9.72    1.18
  13  -5  -5   84.56    3.42
  13  -5  -5   84.65    2.76
 -13  -5   5   79.25    3.12
  13   5  -5   76.95    3.23
  13   5  -5   81.79    3.08
 -13   5   5   84.12    2.64
 -13   5   5   81.27    3.04
  13   5  -5   84.46    3.44
 -13   5   5   84.70    2.07
  11  -5  -5    3.46    0.62
  11  -5  -5    3.75    0.73
 -11  -5   5    3.23    0.67
 -11  -5   5    3.92    0.67
  11  -5  -5    4.13    0.46
 -11   5   5    4.43    0.23
  11   5  -5    3.13    0.71
 -11   5   5    3.90    0.42
  11   5  -5    2.52    0.65
   9  -5  -5  117.60    3.72
   9  -5  -5  116.29    4.03
   9  -5  -5  118.82    3.24
  -9  -5   5  120.21    3.81
  -9  -5   5  120.34    3.83
  -9   5   5  121.64    3.44
   9   5  -5  112.00    3.84
   9   5  -5  115.16    4.00
   7  -5  -5    5.42    0.45
   7  -5  -5    5.00    0.71
   7  -5  -5    4.89    0.71
  -7  -5   5    4.81    0.68
  -7  -5   5    5.40    0.78
  -7   5   5    5.97    0.70
   7   5  -5    4.58    0.77
   7   5  -5    4.59    0.75
  -7   5   5    5.65    0.30
  -7   5   5    4.87    0.33
   5  -5  -5  193.83    5.64
  -5  -5   5  203.11    5.36
  -5  -5   5  198.76    5.30
   5  -5  -5  209.15    5.48
  -5   5   5  203.72    4.48
   5   5  -5  197.27    5.37
  -5   5   5  199.72    4.41
   5   5  -5  196.94    5.53
  -5   5   5  207.06    5.18
   3  -5  -5   -0.15    0.24
   3  -5  -5    0.63    0.20
  -3  -5   5    0.54    0.32
  -3  -5   5    0.32    0.36
   3   5  -5    0.19    0.29
  -3   5   5    0.37    0.34
  -3   5   5    0.39    0.22
  -3   5   5    0.77    0.16
   3   5  -5   -0.04    0.27
  -1  -5   5  325.13    7.57
   1  -5  -5  320.93    8.16
  -1  -5   5  332.59    7.71
   1  -5  -5  325.57    7.93
   1   5  -5  324.41    7.68
  -1   5   5  338.47    7.26
  -1   5   5  335.90    7.63
   1   5  -5  300.03    7.62
  -1   5   5  336.36    6.90
   1  -5   5    6.91    0.78
  -1  -5  -5    8.16    0.76
   1  -5   5    6.42    0.62
  -1  -5  -5    6.64    0.76
   1   5   5    6.78    0.62
  -1   5  -5    7.51    0.80
   1   5   5    6.27    0.81
  -1   5  -5    6.96    0.66
   1   5   5    8.31    0.48
  -3  -5  -5  124.48    3.86
   3  -5   5  122.60    3.70
   3  -5   5  125.52    3.45
  -3  -5  -5  127.02    3.94
  -3   5  -5  131.49    3.19
   3   5   5  125.06    3.54
   3   5   5  121.16    3.84
  -3   5  -5  120.24    3.37
  -3   5  -5  122.10    3.73
   5  -5   5   16.24    1.15
   5  -5   5   19.25    0.96
  -5  -5  -5   18.75    1.16
  -5  -5  -5   16.33    1.20
  -5   5  -5   16.50    0.92
  -5   5  -5   17.52    0.88
   5   5   5   15.90    1.09
   5   5   5   16.95    1.29
  -5   5  -5   16.40    1.20
   7  -5   5   68.89    2.58
  -7  -5  -5   69.78    2.58
  -7  -5  -5   68.47    2.70
   7  -5   5   71.64    2.19
  -7   5  -5   71.35    2.34
  -7   5  -5   70.76    2.17
  -7   5  -5   72.80    2.71
   7   5   5   71.57    2.86
   7   5   5   64.87    2.55
  -9  -5  -5   16.05    1.02
   9  -5   5   14.76    1.12
  -9  -5  -5   14.98    1.19
   9  -5   5   16.19    1.19
   9   5   5   14.17    1.16
  -9   5  -5   16.32    1.01
   9   5   5   13.84    1.23
  11  -5   5    4.74    0.74
 -11  -5  -5    4.15    0.75
 -11  -5  -5    5.59    0.52
  11  -5   5    5.50    0.75
  11   5   5    4.89    0.83
 -11   5  -5    4.41    0.54
  11   5   5    3.71    0.71
  13  -5   5   16.04    1.19
  13  -5   5   15.13    1.23
 -13  -5  -5   16.99    1.05
 -13  -5  -5   14.62    1.24
  13   5   5   14.51    1.23
  13   5   5   15.08    1.35
 -13   5  -5   16.42    1.16
 -15  -5  -5   52.39    2.16
  15  -5   5   50.31    2.40
 -15  -5  -5   50.77    2.45
  15  -5   5   52.20    2.24
 -15   5  -5   49.17    2.31
  15   5   5   50.07    2.50
  15   5   5   50.92    2.59
  17  -5   5    7.39    0.98
  17  -5   5    8.75    0.81
 -17  -5  -5    8.14    0.92
 -17   5  -5    7.04    0.84
  17   5   5    7.97    1.13
  17   5   5    8.46    0.91
 -19  -5  -5   11.56    1.07
  19  -5   5   12.33    0.97
  19  -5   5    9.16    1.06
  19   5   5   11.32    1.17
 -19   5  -5   10.39    1.08
  21  -5   5    9.52    1.08
 -21  -5  -5    9.95    0.93
  21  -5   5    9.44    0.80
 -21   5  -5    8.60    0.96
  21   5   5    9.13    1.01
  23  -5   5   53.57    2.83
 -23  -5  -5   58.97    2.73
  23   5   5   55.56    2.90
 -23   5  -5   55.24    2.92
 -25  -5  -5   16.31    1.22
  25  -5   5   13.90    1.40
  25   5   5   13.88    1.24
 -25   5  -5   15.19    1.38
 -24  -6   5   17.90    1.59
  24  -6  -5   17.10    1.37
 -24   6   5   15.84    1.59
  24   6  -5   18.37    1.43
  22  -6  -5   38.93    2.13
 -22  -6   5   33.34    2.24
 -22   6   5   30.49    2.26
  22   6  -5   35.01    2.21
 -20  -6   5   27.34    2.01
  20  -6  -5   30.15    2.21
  20  -6  -5   31.28    1.83
  20   6  -5   32.25    1.87
  20   6  -5   31.88    2.09
  18  -6  -5   41.59    2.51
 -18  -6   5   39.11    2.35
  18  -6  -5   44.10    2.13
  18   6  -5   43.82    2.57
  18   6  -5   41.76    2.40
  18   6  -5   40.04    2.17
 -18   6   5   40.62    2.09
  16  -6  -5   12.76    1.29
  16  -6  -5   13.15    1.03
 -16  -6   5   11.25    1.22
  16   6  -5   14.98    1.24
  16   6  -5   12.33    1.22
  16   6  -5   15.21    1.40
 -16   6   5   12.08    1.02
  14  -6  -5   31.82    2.02
 -14  -6   5   28.37    1.87
  14  -6  -5   29.00    1.54
  14   6  -5   29.93    2.00
 -14   6   5   28.34    1.72
  14   6  -5   30.21    1.85
  14   6  -5   27.88    1.88
  12  -6  -5    3.79    0.69
  12  -6  -5    4.30    0.47
 -12  -6   5    3.86    0.76
  12  -6  -5    3.65    0.58
 -12   6   5    5.26    0.50
  12   6  -5    4.15    0.80
  12   6  -5    3.58    0.73
  10  -6  -5   34.05    1.84
 -10  -6   5   34.68    1.97
  10  -6  -5   37.05    2.06
  10  -6  -5   37.16    1.60
 -10  -6   5   33.08    1.98
  10   6  -5   33.97    2.06
  10   6  -5   33.76    2.02
 -10   6   5   34.35    1.71
   8  -6  -5    2.39    0.23
   8  -6  -5    1.41    0.46
  -8  -6   5    1.33    0.50
   8  -6  -5    1.60    0.43
  -8  -6   5    0.97    0.48
   8   6  -5    1.22    0.52
  -8   6   5    1.66    0.21
  -8   6   5    1.45    0.40
   8   6  -5    1.14    0.51
   6  -6  -5   23.19    1.49
  -6  -6   5   19.46    1.46
  -6  -6   5   20.09    1.39
   6  -6  -5   21.78    1.44
   6   6  -5   21.48    1.50
   6   6  -5   21.09    1.47
  -6   6   5   21.11    1.38
  -6   6   5   20.74    0.84
  -4  -6   5   15.10    1.26
   4  -6  -5   17.92    1.26
  -4  -6   5   17.19    1.23
   4  -6  -5   15.46    1.20
  -4   6   5   16.40    0.81
   4   6  -5   15.22    1.23
  -4   6   5   16.09    1.23
   4   6  -5   16.60    1.28
   2  -6  -5   45.03    2.11
  -2  -6   5   47.87    2.06
   2  -6  -5   45.62    2.11
  -2  -6   5   45.98    2.20
  -2   6   5   43.80    1.59
   2   6  -5   43.71    2.04
   2   6  -5   45.03    2.16
  -2   6   5   45.10    2.15
   0  -6  -5   31.87    1.76
   0  -6  -5   35.20    1.78
   0  -6   5   33.21    1.82
   0  -6   5   33.96    1.65
   0   6   5   32.33    1.41
   0   6   5   31.85    1.81
   0   6  -5   30.74    1.62
   0   6  -5   32.64    1.80
   2  -6   5   16.75    1.27
  -2  -6  -5   15.59    1.24
   2  -6   5   18.55    1.13
  -2  -6  -5   18.39    1.16
  -2   6  -5   16.83    1.09
  -2   6  -5   17.34    1.31
   2   6   5   17.62    1.39
   2   6   5   15.66    1.03
   4  -6   5   21.43    1.43
   4  -6   5   21.48    1.17
  -4  -6  -5   20.79    1.28
  -4  -6  -5   19.79    1.42
   4   6   5   18.98    1.46
  -4   6  -5   19.48    1.13
  -4   6  -5   19.88    1.40
   4   6   5   18.40    1.20
   6  -6   5   29.34    1.71
  -6  -6  -5   30.13    1.79
   6  -6   5   32.28    1.44
  -6   6  -5   29.86    1.38
   6   6   5   29.19    1.86
   6   6   5   30.02    1.65
  -6   6  -5   30.13    1.78
   8  -6   5   41.60    2.07
  -8  -6  -5   41.28    2.15
   8   6   5   41.13    2.29
   8   6   5   41.78    2.08
  -8   6  -5   42.25    1.65
  -8   6  -5   43.86    2.18
 -10  -6  -5   26.99    1.75
  10  -6   5   26.82    1.66
  10   6   5   25.17    1.81
  10   6   5   28.50    1.75
 -10   6  -5   28.41    1.30
 -10   6  -5   29.68    1.82
 -12  -6  -5   43.14    2.31
  12  -6   5   45.02    2.19
  12   6   5   43.17    2.29
  12   6   5   41.50    2.42
 -12   6  -5   41.76    1.96
 -14  -6  -5   38.13    2.22
  14  -6   5   37.09    2.11
  14  -6   5   36.80    1.97
  14   6   5   38.95    2.20
  14   6   5   37.44    2.31
 -14   6  -5   35.91    1.88
  16  -6   5   65.38    2.74
 -16  -6  -5   64.60    3.02
  16  -6   5   60.42    2.86
 -16   6  -5   63.94    2.79
  16   6   5   62.19    3.13
  16   6   5   65.78    3.06
  18  -6   5   45.22    2.46
 -18  -6  -5   46.53    2.50
  18  -6   5   48.46    2.31
  18   6   5   46.25    2.58
 -18   6  -5   43.09    2.34
  18   6   5   43.60    2.61
  20  -6   5   48.86    2.65
 -20  -6  -5   47.88    2.58
  20  -6   5   48.72    2.34
  20   6   5   50.07    2.78
 -20   6  -5   49.72    2.57
 -22  -6  -5   29.00    1.87
  22  -6   5   26.99    1.95
  22   6   5   27.81    2.01
 -22   6  -5   26.92    1.85
 -21  -7   5   39.05    2.53
  21  -7  -5   39.35    2.15
  21   7  -5   36.89    2.25
 -21   7   5   37.29    2.36
 -19  -7   5    6.05    1.03
  19  -7  -5    8.39    0.77
  19   7  -5    8.71    0.87
  19   7  -5    9.15    0.96
  19   7  -5    7.24    0.60
  17  -7  -5   80.26    3.69
 -17  -7   5   70.37    3.42
  17  -7  -5   76.52    3.03
  17   7  -5   76.23    3.66
  17   7  -5   79.62    3.43
  17   7  -5   77.46    3.42
  15  -7  -5    9.39    1.05
 -15  -7   5    8.86    1.18
 -15   7   5    8.71    0.81
  15   7  -5    8.65    0.90
  15   7  -5    8.31    0.99
  15   7  -5    9.10    0.98
  13  -7  -5   33.22    2.09
 -13  -7   5   31.82    2.07
  13   7  -5   32.78    2.13
  13   7  -5   30.72    1.99
  13   7  -5   33.39    2.08
  11  -7  -5    3.19    0.58
 -11  -7   5    1.02    0.50
  11  -7  -5    3.21    0.58
 -11   7   5    2.71    0.26
  11   7  -5    2.65    0.65
  11   7  -5    2.74    0.57
  -9  -7   5   93.48    3.66
   9  -7  -5   98.36    3.74
   9  -7  -5   90.44    3.50
  -9  -7   5   89.29    3.69
  -9   7   5   97.42    2.33
   9   7  -5   91.67    3.64
  -9   7   5   92.87    3.36
   9   7  -5   92.55    3.71
   7  -7  -5    5.51    0.61
   7  -7  -5    3.73    0.70
  -7  -7   5    2.94    0.73
  -7  -7   5    4.12    0.78
  -7   7   5    4.23    0.36
  -7   7   5    4.56    0.69
   7   7  -5    4.05    0.78
   7   7  -5    3.17    0.66
   5  -7  -5  199.74    5.82
  -5  -7   5  198.16    5.79
  -5  -7   5  195.26    5.86
   5  -7  -5  187.12    5.71
  -5   7   5  196.62    5.59
   5   7  -5  198.73    5.78
   5   7  -5  187.44    5.73
  -5   7   5  194.70    4.63
  -3  -7   5    2.19    0.68
  -3  -7   5    2.63    0.53
   3  -7  -5    2.36    0.61
   3   7  -5    2.11    0.56
  -3   7   5    2.04    0.61
   3   7  -5    2.20    0.59
  -3   7   5    2.59    0.43
  -1  -7   5  182.35    5.47
   1  -7  -5  177.97    5.44
  -1  -7   5  185.53    5.29
   1   7  -5  184.43    5.30
  -1   7   5  181.19    4.68
   1   7  -5  175.23    5.35
  -1   7   5  185.16    5.45
   1  -7   5    0.59    0.40
   1  -7   5    0.54    0.16
  -1  -7  -5    0.53    0.39
   1   7   5    0.05    0.35
  -1   7  -5    0.06    0.31
   1   7   5   -0.23    0.24
  -1   7  -5    0.02    0.32
   3  -7   5  157.87    4.54
   3  -7   5  150.87    4.79
  -3  -7  -5  150.04    4.92
   3   7   5  155.59    4.45
   3   7   5  154.37    4.96
  -3   7  -5  148.08    4.38
  -3   7  -5  154.62    4.84
   5  -7   5    1.73    0.57
  -5  -7  -5    1.27    0.52
  -5   7  -5    1.12    0.40
  -5   7  -5    0.89    0.52
   5   7   5    1.00    0.45
   5   7   5    1.11    0.58
   7  -7   5   13.56    1.24
  -7  -7  -5   12.68    1.25
  -7   7  -5   13.60    0.97
   7   7   5   12.68    1.16
  -7   7  -5   14.19    1.31
   7   7   5   14.28    1.40
  -9  -7  -5    5.32    0.93
   9  -7   5    7.65    0.97
  -9   7  -5    5.96    0.66
   9   7   5    8.21    1.16
   9   7   5    7.24    0.94
  -9   7  -5    6.61    1.03
 -11  -7  -5   45.91    2.51
  11  -7   5   47.08    2.37
  11   7   5   44.52    2.41
 -11   7  -5   46.46    1.84
 -11   7  -5   45.76    2.46
  11   7   5   47.42    2.69
 -13  -7  -5    8.43    1.15
  13  -7   5    9.81    0.97
  13   7   5    9.21    1.24
 -13   7  -5    8.12    0.76
  13   7   5    8.69    0.99
 -13   7  -5    8.13    1.19
 -15  -7  -5    2.68    0.66
  15  -7   5    4.94    0.72
 -15   7  -5    3.21    0.52
  15   7   5    4.00    0.66
  15   7   5    3.15    0.75
 -15   7  -5    3.20    0.88
  17  -7   5   11.60    1.05
 -17  -7  -5   11.73    1.23
  17  -7   5   12.52    1.25
  17   7   5   12.94    1.37
  17   7   5   11.80    1.20
  19  -7   5   83.43    3.67
 -19  -7  -5   80.45    3.68
  19  -7   5   86.69    3.46
  19   7   5   79.60    3.75
  19   7   5   80.42    3.91
 -16  -8   5    7.79    1.10
  16  -8  -5    7.93    0.85
  16   8  -5    7.62    0.99
  16   8  -5    8.94    0.69
  16   8  -5    9.25    0.98
 -14  -8   5   35.88    2.36
  14   8  -5   40.50    2.44
  14   8  -5   41.82    2.52
 -14   8   5   40.43    2.21
  14   8  -5   39.38    2.26
 -12  -8   5    0.97    0.41
  12  -8  -5    2.62    0.30
  12   8  -5    1.62    0.50
  12   8  -5    1.79    0.51
  12   8  -5    2.53    0.15
 -10  -8   5   11.00    1.21
  10  -8  -5   13.14    1.16
 -10   8   5   13.40    0.55
  10   8  -5   13.58    1.13
  10   8  -5   12.62    1.28
  10   8  -5   10.89    1.34
 -10   8   5   13.28    1.03
   8  -8  -5    1.49    0.37
  -8  -8   5    0.93    0.48
  -8  -8   5    1.53    0.47
  -8   8   5    2.55    0.22
  -8   8   5    2.36    0.20
   8   8  -5    1.95    0.17
   8   8  -5    1.72    0.53
   6  -8  -5   35.47    2.09
  -6  -8   5   37.47    2.37
  -6  -8   5   35.99    2.12
  -6   8   5   38.25    1.43
   6   8  -5   35.35    2.13
  -6   8   5   36.47    2.09
   6   8  -5   36.34    2.14
   4  -8  -5   18.49    1.47
  -4  -8   5   18.39    1.41
  -4  -8   5   18.06    1.63
   4   8  -5   18.56    1.42
  -4   8   5   17.86    1.02
  -4   8   5   20.86    1.52
   4   8  -5   18.88    1.48
   2  -8  -5   24.67    1.74
  -2  -8   5   26.31    1.66
  -2  -8   5   22.48    1.78
  -2   8   5   23.28    1.71
   2   8  -5   23.59    1.58
   2   8  -5   23.20    1.63
  -2   8   5   23.26    1.28
   0  -8  -5   31.74    1.99
   0  -8   5   31.93    1.81
   0  -8   5   30.33    2.04
   0   8  -5   32.69    1.96
   0   8   5   33.74    1.65
   0   8   5   32.91    2.08
   0   8  -5   30.81    1.83
  -2  -8  -5   30.87    2.01
   2  -8   5   32.27    1.78
   2  -8   5   34.40    2.14
  -2   8  -5   32.65    1.98
  -2   8  -5   30.15    1.77
   2   8   5   31.36    1.70
   2   8   5   33.19    2.14
   4  -8   5   21.57    1.66
  -4  -8  -5   20.85    1.67
   4   8   5   20.72    1.72
   4   8   5   20.12    1.40
  -4   8  -5   19.50    1.52
  -4   8  -5   18.95    1.33
  -6  -8  -5   11.05    1.22
   6  -8   5   10.34    1.13
   6   8   5    9.93    1.01
  -6   8  -5   10.30    1.06
   6   8   5   10.65    1.35
  -6   8  -5   10.03    0.92
  -8  -8  -5   28.20    2.00
   8  -8   5   27.66    1.87
  -8   8  -5   26.29    1.83
  -8   8  -5   25.14    1.42
   8   8   5   26.66    1.74
   8   8   5   26.24    2.00
  10  -8   5    9.90    1.05
 -10  -8  -5    9.42    1.24
  10   8   5    8.95    1.03
 -10   8  -5    9.54    0.81
  10   8   5   11.03    1.35
 -10   8  -5    8.57    1.10
 -12  -8  -5   16.81    1.58
  12  -8   5   17.88    1.43
 -12   8  -5   17.70    1.10
  12   8   5   18.84    1.54
  12   8   5   18.27    1.69
 -12   8  -5   16.79    1.53
 -14  -8  -5   21.84    1.78
  14  -8   5   21.31    1.55
  14   8   5   19.94    1.56
 -14   8  -5   19.79    1.13
 -14   8  -5   19.73    1.68
  14   8   5   20.20    1.78
  -9  -9   5   43.52    2.52
   9  -9  -5   45.20    2.49
   9   9  -5   44.93    2.55
   9   9  -5   38.93    2.26
  -9   9   5   44.15    1.42
  -9   9   5   42.21    2.29
   9   9  -5   43.12    2.64
   7  -9  -5    2.51    0.29
  -7  -9   5    2.69    0.29
  -7   9   5    2.60    0.11
  -7   9   5    2.19    0.15
   7   9  -5    1.41    0.35
  -5  -9   5   67.01    3.19
   5  -9  -5   69.14    3.24
  -5  -9   5   70.81    3.48
  -5   9   5   69.31    3.13
  -5   9   5   73.15    2.40
   5   9  -5   70.49    3.19
   5   9  -5   69.03    3.14
  -3  -9   5    2.01    0.54
  -3  -9   5    2.94    0.33
   3  -9  -5    1.60    0.35
   3   9  -5    2.88    0.52
  -3   9   5    2.26    0.15
  -3   9   5    1.64    0.29
   3   9  -5    2.12    0.17
  -1  -9   5   98.43    4.19
  -1  -9   5   99.07    3.81
   1  -9  -5  100.96    4.10
   1   9  -5   97.22    3.75
  -1   9   5  102.01    3.33
   1   9  -5   94.98    3.84
  -1   9   5   91.43    3.91
  -1  -9  -5    1.02    0.29
   1  -9   5    1.26    0.32
  -1   9  -5    0.67    0.29
   1   9   5    1.93    0.39
   1   9   5    1.65    0.39
  -3  -9  -5   51.80    2.82
   3  -9   5   53.70    2.92
   3   9   5   52.51    2.89
   3   9   5   54.33    2.43
  -3   9  -5   49.97    2.59
  -3   9  -5   50.90    2.41
   5  -9   5    2.07    0.46
  -5  -9  -5    0.88    0.26
  -5   9  -5    2.03    0.38
   5   9   5    2.09    0.56
   5   9   5    1.42    0.33
  -7  -9  -5   29.09    2.09
   7  -9   5   26.77    1.93
   7   9   5   29.21    1.85
   7   9   5   27.17    2.07
  -7   9  -5   27.41    1.83
  -7   9  -5   28.67    1.60
 -32   0   6   24.51    1.84
  32   0  -6   23.89    1.95
 -30   0   6   43.36    2.27
  30   0  -6   41.83    2.56
 -30   0   6   43.05    2.47
  28   0  -6    2.10    0.63
 -28   0   6    3.09    0.36
 -28   0   6    2.66    0.61
 -26   0   6   79.69    3.23
 -26   0   6   80.27    3.37
  26   0  -6   72.06    3.31
 -24   0   6    2.71    0.66
 -24   0   6    3.40    0.63
  24   0  -6    2.63    0.68
 -22   0   6  171.84    5.19
  22   0  -6  161.43    5.05
 -22   0   6  162.60    5.00
  20   0  -6   16.40    1.32
 -20   0   6   17.75    1.29
 -18   0   6   44.14    2.05
  18   0  -6   45.25    2.12
  18   0  -6   47.96    2.09
 -16   0   6   65.79    2.47
  16   0  -6   58.26    2.35
  16   0  -6   64.34    2.42
  14   0  -6   70.20    2.49
 -14   0   6   72.63    2.57
  14   0  -6   71.06    2.51
  12   0  -6   40.24    1.68
  12   0  -6   43.91    1.76
 -12   0   6   40.19    1.76
  10   0  -6    5.74    0.59
 -10   0   6    5.90    0.61
  10   0  -6    5.63    0.58
  10   0  -6    6.49    0.52
  -8   0   6   50.56    1.18
   8   0  -6   51.04    1.87
  -8   0   6   51.29    1.87
   8   0  -6   49.14    1.71
   8   0  -6   52.22    1.87
   6   0  -6   95.12    2.77
   6   0  -6   92.75    2.49
  -6   0   6   94.84    2.75
   6   0  -6   95.16    2.80
  -6   0   6   93.82    2.07
   4   0  -6    8.36    0.59
   4   0  -6    7.67    0.63
  -4   0   6    7.67    0.43
   4   0  -6    8.17    0.53
  -4   0   6    8.08    0.60
   2   0  -6   13.45    0.64
   2   0  -6   14.37    0.81
  -2   0   6   12.91    0.72
   2   0  -6   14.17    0.75
  -2   0   6   13.23    0.64
   0   0   6    1.10    0.24
   0   0  -6    1.24    0.20
   0   0  -6    1.17    0.27
   0   0  -6    1.13    0.23
   0   0   6    1.10    0.22
   2   0   6  417.36    8.64
  -2   0  -6  399.39    8.91
   2   0   6  407.45    8.25
  -2   0  -6  415.64    8.12
   4   0   6    2.24    0.37
  -4   0  -6    2.31    0.21
  -4   0  -6    1.60    0.31
   4   0   6    1.92    0.23
   4   0   6    2.17    0.26
   6   0   6  304.42    6.80
   6   0   6  305.34    6.25
   6   0   6  297.78    6.53
  -6   0  -6  310.75    6.95
  -6   0  -6  293.77    6.36
   8   0   6    0.28    0.16
  -8   0  -6    0.07    0.22
   8   0   6    0.90    0.31
   8   0   6    0.33    0.10
  10   0   6  533.42   11.30
 -10   0  -6  515.90   11.53
  10   0   6  532.67   10.55
 -10   0  -6  506.98   10.69
  10   0   6  512.67   10.70
  12   0   6    0.22    0.25
 -12   0  -6    1.21    0.09
 -12   0  -6    0.42    0.28
 -14   0  -6  204.84    4.57
  14   0   6  204.88    5.14
 -14   0  -6  202.64    5.46
  14   0   6  201.64    4.92
 -16   0  -6    1.32    0.46
  16   0   6    1.41    0.36
  16   0   6    1.69    0.45
  18   0   6  340.02    7.88
  18   0   6  349.73    7.92
 -18   0  -6  335.31    8.54
  20   0   6   14.87    1.11
 -20   0  -6   14.11    1.24
  20   0   6   13.46    1.03
  22   0   6   13.08    1.00
 -22   0  -6   12.09    1.19
  22   0   6   12.91    1.07
  24   0   6   44.48    2.03
 -24   0  -6   41.50    2.35
  24   0   6   42.91    2.15
  26   0   6   21.71    1.50
 -26   0  -6   21.22    1.71
 -28   0  -6   35.73    2.31
  28   0   6   37.65    2.13
 -30   0  -6   10.85    1.21
  30   0   6   12.35    1.01
  31  -1  -6   62.39    3.22
 -31  -1   6   63.08    3.05
 -31  -1   6   63.80    2.95
  31   1  -6   58.15    3.23
 -31   1   6   65.94    3.36
  29  -1  -6    1.68    0.57
 -29  -1   6    1.93    0.39
 -29  -1   6    2.75    0.28
  29   1  -6    1.40    0.55
 -29   1   6    2.13    0.61
  27  -1  -6   86.73    3.73
 -27  -1   6   93.35    3.58
 -27  -1   6   93.11    3.60
 -27   1   6   92.77    3.53
  27   1  -6   84.83    3.79
 -27   1   6   87.18    3.82
 -25  -1   6    8.64    0.90
  25  -1  -6    8.03    1.08
 -25  -1   6    8.95    0.96
 -25   1   6    7.79    1.11
  25   1  -6    7.40    1.11
 -25   1   6    8.01    0.83
 -23  -1   6   86.74    3.34
 -23  -1   6   89.53    3.28
  23  -1  -6   87.01    3.45
 -23   1   6   90.88    3.64
  23   1  -6   88.82    3.56
 -23   1   6   84.59    3.25
  21  -1  -6   20.21    1.48
 -21  -1   6   18.95    1.40
 -21  -1   6   17.42    1.23
  21  -1  -6   19.38    1.43
 -21   1   6   16.17    1.24
  21   1  -6   17.29    1.39
  19  -1  -6  123.86    3.96
  19  -1  -6  124.84    4.14
 -19  -1   6  121.77    3.97
 -19  -1   6  128.28    3.89
  19   1  -6  118.99    4.01
 -19   1   6  131.63    4.03
  17  -1  -6    9.37    0.96
 -17  -1   6   10.27    0.95
  17  -1  -6    9.61    0.94
  17   1  -6   10.74    0.84
  17   1  -6   10.56    1.00
 -17   1   6   10.07    0.95
 -15  -1   6   61.27    2.36
  15  -1  -6   58.08    2.40
  15  -1  -6   59.72    2.28
  15   1  -6   58.38    2.12
  15   1  -6   58.59    2.36
  15   1  -6   61.14    1.47
 -15   1   6   57.23    2.30
  15   1  -6   62.25    2.39
 -13  -1   6   77.58    2.65
  13  -1  -6   75.14    2.50
  13  -1  -6   75.44    2.72
 -13   1   6   77.81    2.66
  13   1  -6   75.66    2.64
  13   1  -6   71.63    2.67
  13   1  -6   75.49    2.41
  13   1  -6   76.57    1.84
 -11  -1   6  168.16    3.68
 -11  -1   6  179.89    4.69
  11  -1  -6  181.67    4.40
  11  -1  -6  182.25    4.85
  11   1  -6  174.92    4.54
  11   1  -6  171.21    4.39
  11   1  -6  169.88    4.76
 -11   1   6  178.21    4.68
  -9  -1   6  251.10    5.90
   9  -1  -6  248.02    5.45
   9  -1  -6  236.95    6.07
  -9  -1   6  238.83    4.89
  -9   1   6  252.39    4.71
   9   1  -6  242.59    5.68
   9   1  -6  224.01    5.99
  -9   1   6  242.15    5.90
   9   1  -6  236.22    5.66
  -7  -1   6  198.31    4.75
  -7  -1   6  186.86    3.94
   7  -1  -6  182.82    4.93
   7  -1  -6  193.76    4.30
   7   1  -6  184.71    4.56
  -7   1   6  200.97    3.85
   7   1  -6  185.94    4.56
  -7   1   6  192.14    4.75
   7   1  -6  179.24    4.86
   5  -1  -6  303.16    6.17
  -5  -1   6  287.97    5.92
  -5  -1   6  306.86    6.78
   5  -1  -6  293.54    7.12
  -5   1   6  299.99    6.79
   5   1  -6  286.66    6.70
  -5   1   6  309.22    5.92
   5   1  -6  309.70    6.53
   5   1  -6  281.94    6.89
  -3  -1   6  201.94    4.58
   3  -1  -6  179.09    4.86
  -3  -1   6  193.57    4.10
   3  -1  -6  189.11    4.03
  -3   1   6  197.02    4.63
   3   1  -6  192.57    4.57
   3   1  -6  185.70    4.67
   3   1  -6  193.71    4.40
  -3   1   6  199.66    4.12
   1  -1  -6  185.05    4.28
  -1  -1   6  181.97    3.96
  -1  -1   6  190.40    4.24
   1  -1  -6  171.62    4.52
   1  -1  -6  174.98    3.70
   1   1  -6  173.88    4.32
   1   1  -6  183.44    4.26
  -1   1   6  177.78    4.16
   1   1  -6  181.26    4.09
  -1   1   6  186.01    4.01
   1  -1   6  108.49    2.56
  -1  -1  -6  101.08    2.66
  -1  -1  -6  104.34    2.19
  -1  -1  -6  102.74    2.65
   1  -1   6  105.24    2.60
  -1  -1  -6  100.00    2.87
  -1   1  -6   96.60    2.70
  -1   1  -6  102.85    2.57
   1   1   6  104.93    2.66
  -1   1  -6  102.53    2.67
   1   1   6  102.71    2.67
  -3  -1  -6   19.63    0.85
   3  -1   6   21.29    0.71
   3  -1   6   20.98    0.96
  -3  -1  -6   20.48    1.00
   3   1   6   19.86    0.99
  -3   1  -6   19.58    0.87
  -3   1  -6   20.12    0.91
  -3   1  -6   19.16    0.91
   3   1   6   19.10    0.90
  -5  -1  -6    5.11    0.40
   5  -1   6    5.03    0.23
  -5  -1  -6    4.29    0.47
   5  -1   6    4.55    0.42
   5  -1   6    4.52    0.48
   5   1   6    4.71    0.27
  -5   1  -6    4.49    0.45
   5   1   6    4.15    0.42
   5   1   6    4.48    0.49
   7  -1   6   73.01    2.29
  -7  -1  -6   73.17    2.06
  -7  -1  -6   74.31    2.35
   7  -1   6   75.06    2.15
   7   1   6   73.34    1.86
   7   1   6   76.07    2.34
  -7   1  -6   77.63    2.34
   7   1   6   74.15    2.36
  -9  -1  -6    1.66    0.23
   9  -1   6    1.16    0.33
  -9  -1  -6    1.45    0.36
   9  -1   6    1.48    0.32
   9   1   6    1.34    0.38
  -9   1  -6    1.11    0.33
   9   1   6    2.63    0.36
   9   1   6    1.95    0.20
  11  -1   6   42.73    1.61
 -11  -1  -6   41.81    1.41
  11  -1   6   39.56    1.68
 -11  -1  -6   40.64    1.72
  11   1   6   41.17    1.42
  11   1   6   41.79    1.78
  11   1   6   42.04    1.72
 -11   1  -6   41.57    1.76
 -13  -1  -6    0.23    0.29
  13  -1   6    0.20    0.26
  13  -1   6    0.24    0.25
 -13   1  -6    0.27    0.30
  13   1   6    0.60    0.33
  13   1   6    0.90    0.19
  15  -1   6  109.82    3.35
  15  -1   6  113.10    3.31
 -15  -1  -6  112.39    3.02
 -15  -1  -6  112.37    3.58
 -15   1  -6  113.76    3.62
  15   1   6  111.09    3.14
  15   1   6  111.25    3.50
  17  -1   6    3.81    0.58
 -17  -1  -6    2.97    0.63
  17  -1   6    2.97    0.58
 -17  -1  -6    3.82    0.31
  17   1   6    4.15    0.51
  17   1   6    3.62    0.63
 -17   1  -6    3.17    0.64
  19  -1   6   80.69    2.88
  19  -1   6   77.39    2.73
 -19  -1  -6   79.37    3.06
 -19   1  -6   76.39    3.04
  19   1   6   77.41    2.89
  19   1   6   76.84    2.69
  21  -1   6    2.98    0.64
 -21  -1  -6    2.70    0.67
  21  -1   6    3.49    0.51
 -21   1  -6    2.33    0.62
  21   1   6    2.97    0.47
  21   1   6    3.27    0.55
  23  -1   6   48.03    2.06
 -23  -1  -6   45.41    2.39
  23  -1   6   43.07    2.22
  23   1   6   44.83    2.12
 -23   1  -6   44.02    2.38
  23   1   6   46.25    2.17
 -25  -1  -6    0.55    0.47
  25  -1   6    1.25    0.33
  25   1   6    1.53    0.26
  25   1   6    1.17    0.21
 -25   1  -6    0.62    0.50
 -27  -1  -6   38.65    2.36
  27  -1   6   42.03    2.29
  27   1   6   38.34    2.05
 -27   1  -6   37.26    2.40
 -29  -1  -6    8.76    1.04
  29  -1   6    9.00    0.84
  29   1   6    8.78    0.75
 -29   1  -6    6.84    1.08
  30  -2  -6   29.85    2.10
 -30  -2   6   31.49    1.93
  30   2  -6   30.16    2.24
 -30   2   6   30.17    2.26
 -28  -2   6    8.87    0.94
  28  -2  -6    9.55    1.18
  28   2  -6    8.80    1.22
 -28   2   6   10.34    1.28
 -26  -2   6   75.10    3.21
 -26  -2   6   75.77    2.97
  26  -2  -6   74.26    3.31
 -26   2   6   73.82    3.03
  26   2  -6   69.83    3.39
 -26   2   6   78.00    3.62
 -24  -2   6    1.10    0.49
  24  -2  -6    1.46    0.52
 -24  -2   6    1.56    0.34
 -24   2   6    1.72    0.37
 -24   2   6    1.07    0.57
  24   2  -6    1.06    0.56
  22  -2  -6   91.99    3.72
 -22  -2   6   93.81    3.17
  22  -2  -6   97.06    3.54
 -22  -2   6   92.44    3.49
 -22   2   6   92.29    3.36
  22   2  -6   87.36    3.58
  20  -2  -6   13.07    1.15
 -20  -2   6   11.13    1.09
 -20  -2   6   12.66    0.91
  20  -2  -6   11.65    1.20
 -20   2   6   11.27    1.02
  20   2  -6   11.01    1.13
  18  -2  -6   59.67    2.47
 -18  -2   6   59.96    2.52
  18  -2  -6   62.81    2.75
 -18  -2   6   62.26    2.23
  18   2  -6   57.98    2.61
 -18   2   6   63.66    2.52
 -16  -2   6   17.39    1.25
  16  -2  -6   18.38    1.21
  16  -2  -6   19.14    1.39
 -16  -2   6   18.95    1.03
  16   2  -6   19.84    1.39
 -16   2   6   18.68    1.27
  16   2  -6   19.60    1.31
  16   2  -6   20.70    0.90
  14  -2  -6    8.46    0.79
 -14  -2   6    8.38    0.83
  14  -2  -6    8.31    0.90
  14   2  -6    8.83    0.90
  14   2  -6   10.89    0.90
  14   2  -6    9.94    0.64
 -14   2   6   12.88    0.99
  14   2  -6   10.33    0.61
  12  -2  -6   86.96    2.66
 -12  -2   6   83.30    2.35
 -12  -2   6   90.54    2.93
  12  -2  -6   87.64    3.13
 -12   2   6   88.00    1.91
  12   2  -6   84.74    2.89
 -12   2   6   88.71    2.60
  12   2  -6   83.25    2.40
 -12   2   6   87.37    2.88
  12   2  -6   84.86    3.07
 -10  -2   6   40.76    1.42
 -10  -2   6   39.51    1.74
  10  -2  -6   41.60    1.94
  10  -2  -6   42.65    1.58
  10   2  -6   42.76    1.85
  10   2  -6   41.96    1.39
 -10   2   6   45.24    1.58
  10   2  -6   40.70    1.90
 -10   2   6   43.97    1.17
 -10   2   6   49.74    1.88
   8  -2  -6    9.01    0.83
  -8  -2   6    9.71    0.77
  -8  -2   6   10.44    0.61
   8  -2  -6   10.11    0.62
   8   2  -6   10.77    0.55
  -8   2   6   11.19    0.51
   8   2  -6   10.34    0.83
   8   2  -6   10.88    0.86
  -8   2   6    9.26    0.75
  -8   2   6   11.72    0.65
   6  -2  -6   38.13    1.78
  -6  -2   6   37.96    1.53
  -6  -2   6   40.05    1.36
   6  -2  -6   40.62    1.25
   6   2  -6   38.17    1.25
   6   2  -6   40.05    1.63
  -6   2   6   41.28    1.26
  -6   2   6   39.91    1.60
  -6   2   6   41.61    1.42
   6   2  -6   38.00    1.69
  -4  -2   6    2.72    0.39
   4  -2  -6    2.27    0.38
   4  -2  -6    3.23    0.23
  -4  -2   6    2.66    0.35
   4  -2  -6    2.53    0.47
   4   2  -6    2.57    0.43
  -4   2   6    2.64    0.30
  -4   2   6    2.40    0.32
   4   2  -6    2.95    0.25
  -4   2   6    3.07    0.27
   4   2  -6    1.90    0.38
  -2  -2   6  123.75    3.13
   2  -2  -6  129.57    3.32
  -2  -2   6  122.37    3.00
   2  -2  -6  119.76    3.60
   2  -2  -6  124.78    2.55
  -2   2   6  123.74    3.03
   2   2  -6  125.10    2.99
  -2   2   6  118.24    3.03
  -2   2   6  123.56    3.00
   2   2  -6  126.63    3.23
   2   2  -6  115.39    3.27
   0  -2  -6    4.48    0.54
   0  -2   6    4.28    0.43
   0  -2   6    3.80    0.35
   0  -2  -6    4.66    0.46
   0   2  -6    4.23    0.36
   0   2   6    5.33    0.49
   0   2  -6    3.83    0.43
   0   2  -6    3.87    0.46
   0   2   6    4.59    0.40
   2  -2   6   49.89    1.38
  -2  -2  -6   47.79    1.65
  -2  -2  -6   46.05    1.78
   2  -2   6   47.76    1.62
  -2   2  -6   48.60    1.51
   2   2   6   47.08    1.57
  -2   2  -6   48.81    1.63
   2   2   6   48.63    1.71
  -2   2  -6   47.03    1.63
  -4  -2  -6    3.67    0.43
   4  -2   6    3.80    0.48
  -4  -2  -6    3.24    0.45
   4  -2   6    4.42    0.24
  -4   2  -6    3.26    0.42
   4   2   6    3.75    0.47
   4   2   6    3.62    0.49
  -4   2  -6    3.92    0.41
   6  -2   6  355.85    7.35
  -6  -2  -6  327.32    7.94
   6  -2   6  348.99    7.43
   6  -2   6  365.80    7.54
  -6  -2  -6  337.66    7.74
   6   2   6  335.76    6.82
   6   2   6  366.72    7.65
  -6   2  -6  370.27    7.89
   6   2   6  330.79    7.84
   8  -2   6    4.62    0.55
   8  -2   6    4.95    0.55
  -8  -2  -6    4.03    0.46
  -8  -2  -6    4.91    0.56
   8   2   6    4.97    0.64
   8   2   6    5.21    0.31
  -8   2  -6    4.34    0.51
   8   2   6    4.12    0.55
  10  -2   6  273.15    6.24
  10  -2   6  289.14    6.36
 -10  -2  -6  265.64    6.62
 -10  -2  -6  268.40    6.36
 -10   2  -6  280.21    6.68
  10   2   6  267.24    5.76
  10   2   6  275.10    6.49
  10   2   6  270.88    6.68
 -12  -2  -6    0.35    0.19
  12  -2   6    0.18    0.27
 -12  -2  -6    2.78    0.52
  12  -2   6    0.34    0.27
  12   2   6    1.46    0.16
 -12   2  -6    0.31    0.31
  12   2   6    0.79    0.21
  12   2   6    0.12    0.31
  14  -2   6  524.29   10.78
 -14  -2  -6  481.48   11.34
 -14  -2  -6  484.60   10.89
  14  -2   6  477.03   10.43
  14   2   6  493.24   10.82
 -14   2  -6  497.01   11.45
  14   2   6  506.71   11.45
  14   2   6  505.66   10.30
  16  -2   6    1.00    0.34
  16  -2   6    0.47    0.34
 -16  -2  -6    0.25    0.36
 -16  -2  -6    0.86    0.16
  16   2   6    0.81    0.42
 -16   2  -6    0.35    0.34
  16   2   6    1.20    0.23
 -18  -2  -6   40.50    1.68
 -18  -2  -6   39.53    1.98
  18  -2   6   37.65    1.89
  18  -2   6   36.98    1.74
  18   2   6   37.37    1.64
 -18   2  -6   37.62    2.02
  18   2   6   37.08    1.95
  20  -2   6   10.66    0.88
 -20  -2  -6    9.57    1.04
  20  -2   6   10.69    1.04
  20   2   6   12.81    1.09
  20   2   6   11.04    0.84
 -20   2  -6   10.18    1.10
  22  -2   6   49.31    2.10
 -22  -2  -6   48.83    2.43
  22  -2   6   47.07    2.35
  22   2   6   49.67    2.39
  22   2   6   46.97    2.08
 -22   2  -6   47.67    2.51
  24  -2   6   31.80    1.62
 -24  -2  -6   29.23    1.89
  24  -2   6   29.41    1.90
 -24   2  -6   29.77    2.05
  24   2   6   31.99    1.85
  24   2   6   31.66    1.69
  26  -2   6   10.42    1.11
 -26  -2  -6    9.32    1.02
 -26   2  -6    8.49    1.22
  26   2   6    9.92    0.80
  26   2   6   10.98    0.95
 -28  -2  -6   28.63    1.94
  28  -2   6   28.41    1.94
 -28   2  -6   26.92    2.05
  29  -3  -6    0.59    0.18
 -29   3   6    0.51    0.36
  29   3  -6    0.98    0.42
 -27  -3   6   53.99    2.71
  27  -3  -6   52.18    2.74
  27   3  -6   52.55    2.98
 -27   3   6   52.29    3.08
  25  -3  -6    9.31    1.14
 -25  -3   6    6.87    1.00
  25   3  -6    7.51    1.15
 -25   3   6    7.12    1.16
 -25   3   6    8.03    0.71
 -23  -3   6   55.92    2.69
  23  -3  -6   56.19    2.65
  23   3  -6   54.43    2.83
 -23   3   6   60.25    2.59
  21  -3  -6    4.61    0.90
  21  -3  -6    4.48    0.74
 -21  -3   6    4.46    0.80
  21   3  -6    3.83    0.86
 -21   3   6    5.11    0.68
  19  -3  -6   48.61    2.55
 -19  -3   6   48.77    2.33
  19  -3  -6   48.60    2.20
  19   3  -6   46.04    2.41
 -19   3   6   45.12    2.16
  17  -3  -6   23.34    1.41
  17  -3  -6   24.14    1.70
 -17  -3   6   24.63    1.56
  17   3  -6   26.44    1.24
  17   3  -6   26.59    1.69
  17   3  -6   26.21    1.70
 -17   3   6   26.54    1.55
  15  -3  -6   31.28    1.53
 -15  -3   6   29.71    1.17
 -15  -3   6   28.83    1.64
  15  -3  -6   30.78    1.86
  15   3  -6   31.34    1.83
 -15   3   6   29.18    1.60
  15   3  -6   30.25    1.40
  15   3  -6   29.29    1.76
 -13  -3   6   47.98    1.49
 -13  -3   6   47.25    1.78
  13  -3  -6   46.29    1.81
 -13  -3   6   47.06    2.08
  13  -3  -6   46.47    2.25
 -13   3   6   50.19    1.66
  13   3  -6   46.22    2.24
 -13   3   6   46.82    1.38
 -13   3   6   46.45    2.02
  13   3  -6   45.48    2.17
 -11  -3   6   44.56    1.33
  11  -3  -6   44.71    1.65
  11  -3  -6   44.83    2.16
 -11  -3   6   44.30    1.93
 -11  -3   6   42.71    1.69
  11   3  -6   45.69    2.15
 -11   3   6   44.22    1.91
 -11   3   6   46.37    1.53
  11   3  -6   46.33    2.08
 -11   3   6   46.61    1.41
   9  -3  -6  134.93    4.34
  -9  -3   6  142.91    3.72
  -9  -3   6  144.57    4.07
   9  -3  -6  145.96    3.53
   9   3  -6  140.75    4.34
  -9   3   6  150.68    3.57
  -9   3   6  146.65    4.09
  -9   3   6  142.31    3.36
   9   3  -6  147.45    4.20
   7  -3  -6  140.93    3.89
  -7  -3   6  138.15    3.60
   7  -3  -6  128.65    4.18
   7  -3  -6  141.04    3.27
  -7  -3   6  141.92    3.88
  -7   3   6  141.44    3.38
   7   3  -6  140.25    3.10
   7   3  -6  136.88    4.15
  -7   3   6  143.23    3.25
   7   3  -6  138.87    3.96
  -7   3   6  147.78    3.44
   5  -3  -6  168.74    5.00
   5  -3  -6  180.88    4.65
  -5  -3   6  179.35    4.55
   5  -3  -6  182.12    3.87
  -5  -3   6  182.02    4.33
   5   3  -6  175.79    4.61
  -5   3   6  177.75    4.14
   5   3  -6  184.94    4.87
  -5   3   6  178.58    4.18
  -5   3   6  188.19    4.07
   5   3  -6  174.54    3.91
  -3  -3   6  189.30    4.58
  -3  -3   6  189.18    4.43
   3  -3  -6  180.66    3.83
   3  -3  -6  177.99    5.12
   3  -3  -6  183.38    4.74
  -3   3   6  190.28    4.38
   3   3  -6  187.43    4.67
   3   3  -6  178.63    4.75
  -3   3   6  195.26    4.25
  -3   3   6  184.12    4.26
   3   3  -6  190.47    4.15
  -1  -3   6   88.43    2.58
   1  -3  -6   90.97    2.76
   1  -3  -6   89.90    3.06
  -1  -3   6   90.82    2.51
  -1   3   6   92.15    2.43
  -1   3   6   89.26    2.63
   1   3  -6   93.67    2.27
  -1   3   6   91.80    1.96
   1   3  -6   90.69    2.73
   1   3  -6   87.27    2.68
  -1  -3  -6   96.24    3.13
   1  -3   6   95.12    2.74
   1  -3   6   99.17    2.58
  -1  -3  -6   98.51    2.91
  -1   3  -6   98.34    2.87
  -1   3  -6   98.06    2.78
   1   3   6   97.81    2.68
  -1   3  -6  102.99    2.52
   1   3   6  102.03    2.91
  -3  -3  -6   14.23    0.97
  -3  -3  -6   14.30    0.92
   3  -3   6   14.22    0.89
   3  -3   6   14.77    0.65
  -3   3  -6   14.50    0.72
  -3   3  -6   13.77    0.91
   3   3   6   14.08    0.96
  -3   3  -6   14.43    0.82
   3   3   6   13.38    0.83
   5  -3   6    3.83    0.53
  -5  -3  -6    3.34    0.51
   5  -3   6    3.72    0.26
  -5  -3  -6    2.68    0.47
   5   3   6    3.89    0.18
  -5   3  -6    3.99    0.41
  -5   3  -6    3.67    0.43
  -5   3  -6    3.54    0.53
   5   3   6    3.88    0.58
   5   3   6    3.50    0.50
   7  -3   6    4.53    0.59
   7  -3   6    5.30    0.27
   7  -3   6    4.66    0.60
  -7  -3  -6    4.34    0.56
  -7  -3  -6    4.69    0.56
   7   3   6    5.19    0.28
   7   3   6    4.84    0.58
  -7   3  -6    4.92    0.54
   7   3   6    4.57    0.65
   9  -3   6    1.50    0.42
  -9  -3  -6    1.62    0.41
  -9  -3  -6    2.00    0.43
   9  -3   6    1.49    0.41
   9   3   6    2.12    0.49
   9   3   6    1.59    0.46
  -9   3  -6    2.00    0.44
   9   3   6    2.41    0.17
  11  -3   6   76.45    2.60
  11  -3   6   75.31    2.55
 -11  -3  -6   72.19    2.58
 -11  -3  -6   75.48    2.58
  11   3   6   72.72    2.71
  11   3   6   74.51    2.08
  11   3   6   75.46    2.77
 -11   3  -6   76.24    2.63
  13  -3   6    0.26    0.30
  13  -3   6    0.19    0.34
 -13  -3  -6    0.01    0.20
 -13  -3  -6    0.08    0.22
 -13   3  -6    0.47    0.34
  13   3   6    0.30    0.37
  13   3   6    0.79    0.27
 -15  -3  -6   61.34    2.32
 -15  -3  -6   57.22    2.37
  15  -3   6   57.85    2.39
  15  -3   6   59.31    2.29
 -15   3  -6   58.06    2.47
  15   3   6   61.49    2.56
  15   3   6   59.21    1.99
  15   3   6   58.75    2.57
 -17  -3  -6    6.05    0.74
  17  -3   6    6.38    0.68
  17  -3   6    6.02    0.84
 -17  -3  -6    7.28    0.67
  17   3   6    6.17    0.91
  17   3   6    6.57    0.71
  17   3   6    5.93    0.48
 -17   3  -6    6.50    0.92
 -19  -3  -6   62.48    2.64
 -19  -3  -6   62.36    2.45
  19  -3   6   55.46    2.51
  19  -3   6   59.16    2.37
  19   3   6   61.76    2.74
  19   3   6   60.10    2.22
 -19   3  -6   59.45    2.73
 -21  -3  -6    3.36    0.32
 -21  -3  -6    2.18    0.53
  21  -3   6    1.66    0.56
  21  -3   6    3.07    0.48
  21   3   6    3.04    0.60
 -21   3  -6    2.19    0.66
 -23  -3  -6   25.77    1.69
  23  -3   6   25.12    1.76
  23  -3   6   26.62    1.50
  23   3   6   25.60    1.71
 -23   3  -6   24.15    1.83
 -25  -3  -6    6.94    0.80
  25  -3   6    3.85    0.78
  25   3   6    6.06    0.81
 -25   3  -6    4.61    0.93
  27  -3   6   35.89    2.24
 -27  -3  -6   34.35    2.11
 -27   3  -6   34.46    2.39
 -28  -4   6    3.85    0.64
  28  -4  -6    3.79    0.68
 -28   4   6    3.70    0.93
  28   4  -6    3.90    0.76
 -26  -4   6   31.34    2.09
  26  -4  -6   35.23    2.15
 -26   4   6   32.56    2.44
  26   4  -6   34.24    2.31
  24  -4  -6   11.75    1.10
 -24  -4   6    9.30    1.10
  24   4  -6    9.79    1.27
 -24   4   6    9.92    1.40
  22  -4  -6   29.14    2.15
 -22  -4   6   29.23    1.94
  22  -4  -6   31.76    1.84
  22   4  -6   32.19    2.16
 -22   4   6   32.67    1.78
  20  -4  -6    0.60    0.23
  20  -4  -6    0.20    0.47
 -20  -4   6    0.20    0.40
  20   4  -6    0.02    0.45
 -20   4   6    1.30    0.29
 -18  -4   6   33.49    1.95
  18  -4  -6   36.90    1.82
  18  -4  -6   35.05    2.22
  18   4  -6   33.08    2.05
 -18   4   6   34.28    1.85
  18   4  -6   36.38    1.70
  18   4  -6   36.27    2.15
  16  -4  -6   44.29    1.94
  16  -4  -6   43.75    2.40
 -16  -4   6   41.68    2.14
  16   4  -6   43.62    1.96
 -16   4   6   46.23    2.14
  16   4  -6   43.42    2.28
  16   4  -6   45.57    2.43
  14  -4  -6   23.06    1.65
  14  -4  -6   24.72    1.30
 -14  -4   6   21.32    1.44
  14   4  -6   21.47    1.57
 -14   4   6   23.57    1.45
  14   4  -6   24.33    1.65
 -12  -4   6    2.63    0.45
  12  -4  -6    2.15    0.39
 -12  -4   6    2.09    0.52
  12  -4  -6    1.39    0.53
  12   4  -6    2.25    0.51
 -12   4   6    1.76    0.51
 -12   4   6    2.96    0.25
 -12   4   6    2.77    0.21
  12   4  -6    1.87    0.56
 -10  -4   6    4.02    0.60
  10  -4  -6    3.42    0.65
  10  -4  -6    4.66    0.43
 -10  -4   6    3.85    0.64
 -10   4   6    4.72    0.42
  10   4  -6    3.51    0.67
 -10   4   6    4.99    0.33
 -10   4   6    4.46    0.66
  10   4  -6    4.55    0.76
  -8  -4   6   12.56    0.98
  -8  -4   6   14.22    1.04
   8  -4  -6   14.49    1.19
   8  -4  -6   14.98    1.06
   8  -4  -6   15.38    0.78
   8   4  -6   12.74    1.09
  -8   4   6   16.90    0.69
  -8   4   6   15.05    0.64
   8   4  -6   13.97    1.13
  -8   4   6   15.61    0.89
   6  -4  -6   49.06    2.02
  -6  -4   6   50.67    1.99
   6  -4  -6   49.73    1.52
   6  -4  -6   46.30    2.21
  -6  -4   6   48.19    1.94
   6   4  -6   50.21    2.14
  -6   4   6   50.96    1.47
   6   4  -6   48.78    2.17
  -6   4   6   48.68    1.80
  -6   4   6   51.28    1.43
  -4  -4   6    4.49    0.55
   4  -4  -6    3.61    0.56
  -4  -4   6    4.18    0.60
   4  -4  -6    4.93    0.72
   4  -4  -6    4.22    0.29
  -4   4   6    4.08    0.37
   4   4  -6    4.45    0.65
  -4   4   6    4.63    0.32
  -4   4   6    4.08    0.55
   4   4  -6    5.01    0.68
   2  -4  -6   35.91    1.84
   2  -4  -6   35.15    1.63
  -2  -4   6   36.13    1.50
  -2  -4   6   34.59    1.59
   2   4  -6   37.82    1.00
   2   4  -6   35.95    1.62
  -2   4   6   38.11    1.11
  -2   4   6   36.94    1.29
   2   4  -6   36.52    1.67
  -2   4   6   36.91    1.61
   0  -4  -6   13.50    0.96
   0  -4  -6   12.01    1.03
   0  -4   6   12.46    0.78
   0  -4   6   12.41    0.92
   0   4   6   14.70    0.55
   0   4  -6   14.82    0.59
   0   4   6   13.51    0.98
   0   4  -6   13.57    0.89
   0   4  -6   13.51    0.98
   0   4   6   13.75    0.79
   2  -4   6  103.17    3.09
   2  -4   6  105.28    2.82
  -2  -4  -6   99.33    3.36
  -2  -4  -6  100.21    3.19
   2   4   6  104.34    2.33
   2   4   6  100.44    2.91
   2   4   6  102.37    3.20
  -2   4  -6  105.99    2.66
  -2   4  -6  104.18    3.17
  -2   4  -6   99.50    2.93
  -4  -4  -6    0.42    0.19
  -4  -4  -6    0.10    0.26
   4  -4   6    0.35    0.30
  -4   4  -6    0.18    0.31
  -4   4  -6    0.73    0.14
  -4   4  -6    0.31    0.23
   4   4   6    0.31    0.31
   4   4   6    0.31    0.26
   6  -4   6   50.40    2.00
   6  -4   6   50.57    1.55
  -6  -4  -6   47.65    2.01
  -6  -4  -6   46.51    1.99
  -6   4  -6   52.78    2.12
   6   4   6   48.28    2.14
  -6   4  -6   51.57    1.80
   6   4   6   50.46    1.99
  -6   4  -6   51.25    1.77
  -8  -4  -6    0.65    0.24
   8  -4   6    0.57    0.36
   8  -4   6    0.47    0.33
  -8  -4  -6    0.25    0.28
  -8   4  -6    0.35    0.24
   8   4   6    0.81    0.37
   8   4   6    0.18    0.33
  10  -4   6  152.07    4.23
 -10  -4  -6  157.14    4.46
 -10  -4  -6  148.10    4.34
  10  -4   6  154.95    4.38
  10   4   6  148.43    4.48
  10   4   6  153.15    4.59
 -10   4  -6  160.48    4.35
  12  -4   6   -0.12    0.23
 -12  -4  -6   -0.10    0.24
 -12  -4  -6    0.27    0.18
  12  -4   6   -0.01    0.29
 -12   4  -6   -0.05    0.23
  12   4   6    0.48    0.24
  12   4   6   -0.18    0.30
  14  -4   6   97.00    3.20
  14  -4   6   94.96    3.32
 -14  -4  -6   96.30    3.34
 -14  -4  -6   93.52    3.23
 -14   4  -6   93.13    3.32
  14   4   6   98.36    3.54
  14   4   6   95.13    3.52
 -16  -4  -6    0.81    0.32
  16  -4   6    0.58    0.42
 -16  -4  -6    0.95    0.36
  16  -4   6    1.54    0.38
 -16   4  -6    0.75    0.38
  16   4   6    0.97    0.48
  16   4   6    1.40    0.33
 -18  -4  -6   58.23    2.50
  18  -4   6   57.93    2.38
 -18  -4  -6   54.80    2.45
  18  -4   6   57.69    2.63
 -18   4  -6   52.69    2.57
  18   4   6   56.91    2.74
  18   4   6   56.03    2.69
 -20  -4  -6    1.94    0.37
  20  -4   6    1.60    0.58
 -20  -4  -6    2.13    0.25
  20  -4   6    1.83    0.37
 -20   4  -6    0.58    0.48
  20   4   6    1.50    0.46
 -22  -4  -6   20.90    1.46
  22  -4   6   19.46    1.29
  22  -4   6   17.63    1.53
 -22  -4  -6   20.52    1.35
  22   4   6   18.14    1.50
 -22   4  -6   19.42    1.63
  24  -4   6    7.24    1.04
 -24  -4  -6    7.57    0.80
  24   4   6    7.86    0.82
 -24   4  -6    6.85    1.03
  26  -4   6    5.11    0.86
 -26   4  -6    2.94    0.68
  26   4   6    4.78    0.48
 -27  -5   6   13.77    1.34
  27  -5  -6   14.52    1.26
  27   5  -6   15.41    1.33
 -27   5   6   13.51    1.53
  25  -5  -6    4.11    0.65
 -25  -5   6    3.24    0.74
 -25   5   6    4.73    0.98
  25   5  -6    4.27    0.74
 -23  -5   6   10.61    1.24
  23  -5  -6   12.55    1.11
  23   5  -6   10.64    1.22
  21  -5  -6    3.80    0.61
 -21  -5   6    2.97    0.77
  21  -5  -6    4.61    0.98
 -21   5   6    4.39    0.39
  21   5  -6    3.67    0.80
  19  -5  -6    7.03    0.75
  19  -5  -6    5.23    1.02
 -19  -5   6    5.01    0.90
  19   5  -6    6.20    0.62
 -19   5   6    6.75    0.70
  19   5  -6    7.14    1.10
  17  -5  -6    2.08    0.72
 -17  -5   6    1.75    0.58
  17  -5  -6    3.24    0.51
  17   5  -6    2.73    0.60
  17   5  -6    2.11    0.67
 -17   5   6    2.49    0.49
  17   5  -6    2.75    0.48
 -15  -5   6    5.57    0.88
  15  -5  -6    7.52    0.71
  15  -5  -6    7.69    1.11
 -15   5   6    6.13    0.83
  15   5  -6    6.93    0.96
  15   5  -6    7.93    0.81
  15   5  -6    6.71    1.04
 -13  -5   6   21.71    1.53
 -13  -5   6   23.54    1.47
  13  -5  -6   23.12    1.25
  13  -5  -6   23.38    1.71
 -13   5   6   24.76    1.18
  13   5  -6   24.19    1.71
 -13   5   6   20.98    1.45
  13   5  -6   24.14    1.69
 -11  -5   6    4.45    0.73
  11  -5  -6    5.05    0.86
  11  -5  -6    4.77    0.48
 -11  -5   6    4.53    0.69
 -11   5   6    5.80    0.31
 -11   5   6    5.39    0.52
  11   5  -6    5.04    0.84
  11   5  -6    5.03    0.87
   9  -5  -6   58.50    2.44
   9  -5  -6   58.85    1.97
  -9  -5   6   59.40    2.46
  -9  -5   6   58.74    2.46
   9  -5  -6   57.03    2.67
   9   5  -6   56.14    2.62
   9   5  -6   58.16    2.59
  -9   5   6   61.64    2.21
  -9   5   6   61.61    1.65
  -9   5   6   60.53    1.59
  -7  -5   6   33.73    1.77
   7  -5  -6   36.10    1.82
   7  -5  -6   36.72    1.36
   7  -5  -6   33.96    1.93
  -7  -5   6   36.89    1.81
  -7   5   6   35.96    1.15
   7   5  -6   35.95    1.91
  -7   5   6   37.91    1.68
  -7   5   6   36.71    1.13
   7   5  -6   35.68    1.93
   5  -5  -6   37.80    1.98
   5  -5  -6   38.02    1.84
  -5  -5   6   36.81    1.82
  -5  -5   6   37.78    1.75
  -5   5   6   36.66    1.24
   5   5  -6   34.98    1.84
   5   5  -6   35.85    1.88
  -5   5   6   38.73    1.74
  -3  -5   6   54.08    2.10
   3  -5  -6   54.47    2.43
   3  -5  -6   54.18    2.25
  -3  -5   6   53.18    2.21
  -3   5   6   54.20    1.70
   3   5  -6   51.14    2.21
  -3   5   6   53.67    2.16
   3   5  -6   54.30    2.30
   1  -5  -6   14.84    1.12
  -1  -5   6   14.54    1.11
  -1  -5   6   14.49    0.95
   1  -5  -6   14.49    1.09
  -1   5   6   13.66    0.83
   1   5  -6   14.37    1.11
   1   5  -6   14.09    1.03
  -1   5   6   15.35    1.14
  -1  -5  -6   28.58    1.62
  -1  -5  -6   27.40    1.54
   1  -5   6   28.69    1.56
   1  -5   6   29.60    1.35
  -1   5  -6   27.93    1.39
   1   5   6   28.76    1.62
  -1   5  -6   27.12    1.54
   1   5   6   28.68    1.33
   3  -5   6    0.65    0.37
  -3  -5  -6    1.48    0.34
  -3  -5  -6    0.82    0.39
   3   5   6    0.93    0.35
  -3   5  -6    0.95    0.33
   3   5   6    0.54    0.40
  -3   5  -6    0.60    0.40
  -5  -5  -6   18.45    1.22
  -5  -5  -6   17.43    1.25
   5  -5   6   18.82    0.95
   5  -5   6   17.06    1.21
   5   5   6   18.59    1.36
  -5   5  -6   18.80    1.03
  -5   5  -6   17.61    1.27
  -5   5  -6   19.09    0.92
   5   5   6   17.21    1.15
  -7  -5  -6    1.01    0.21
   7  -5   6    0.58    0.38
  -7  -5  -6    0.80    0.42
  -7   5  -6    0.58    0.42
  -7   5  -6    0.60    0.31
   7   5   6    0.30    0.40
  -7   5  -6    1.31    0.22
   7   5   6    0.33    0.33
  -9  -5  -6    0.03    0.29
   9  -5   6    0.25    0.32
   9   5   6    0.12    0.35
  -9   5  -6    0.13    0.39
  -9   5  -6   -0.05    0.24
   9   5   6   -0.05    0.27
 -11  -5  -6   17.49    1.13
  11  -5   6   16.01    1.21
 -11  -5  -6   18.74    1.36
  11  -5   6   18.26    1.33
  11   5   6   17.42    1.34
 -11   5  -6   19.43    1.20
  11   5   6   17.88    1.46
 -13  -5  -6    1.31    0.49
  13  -5   6    1.02    0.41
  13  -5   6    0.74    0.42
  13   5   6    1.36    0.43
  13   5   6    0.74    0.47
 -13   5  -6    1.19    0.34
 -15  -5  -6   35.94    1.82
 -15  -5  -6   35.07    2.00
  15  -5   6   36.15    2.01
  15  -5   6   38.56    1.94
 -15   5  -6   35.80    1.92
  15   5   6   38.58    2.13
  15   5   6   35.01    2.18
  17  -5   6    1.57    0.35
 -17  -5  -6    0.90    0.32
  17  -5   6    0.77    0.46
  17   5   6    1.36    0.32
  17   5   6    0.52    0.34
 -17   5  -6    1.03    0.33
  19  -5   6   28.99    1.68
 -19  -5  -6   29.05    1.81
  19  -5   6   25.14    1.79
 -19   5  -6   27.56    1.80
  19   5   6   28.32    1.98
  21  -5   6    5.98    0.62
 -21  -5  -6    5.96    0.65
  21  -5   6    4.72    0.87
 -21   5  -6    6.33    0.74
  21   5   6    8.05    1.05
 -23  -5  -6   12.50    1.05
  23  -5   6   13.31    1.34
 -23   5  -6   12.39    1.17
  23   5   6   10.93    1.12
  25  -5   6    1.69    0.42
  24  -6  -6    7.06    0.71
 -24  -6   6    6.51    0.98
  24   6  -6    5.57    0.58
 -24   6   6    4.73    0.87
 -22  -6   6    9.90    1.26
  22  -6  -6    9.97    0.94
  22   6  -6    8.41    0.93
  20  -6  -6   16.41    1.61
 -20  -6   6   12.19    1.34
  20  -6  -6   15.32    1.19
  20   6  -6   15.37    1.37
  18  -6  -6    3.76    0.85
 -18  -6   6    3.55    0.78
  18  -6  -6    6.25    0.67
  18   6  -6    4.94    0.80
  18   6  -6    5.86    0.77
  18   6  -6    4.33    0.74
 -18   6   6    5.34    0.56
  16  -6  -6    0.60    0.35
  16  -6  -6    0.94    0.18
 -16  -6   6    0.10    0.33
 -16   6   6    0.86    0.22
  16   6  -6    1.20    0.30
  16   6  -6    0.86    0.29
  16   6  -6    0.85    0.41
 -14  -6   6    5.45    0.90
  14  -6  -6    6.85    0.98
  14  -6  -6    7.99    0.69
 -14   6   6    6.38    0.83
  14   6  -6    7.04    0.90
  14   6  -6    6.43    0.96
  14   6  -6    5.01    0.93
 -12  -6   6   16.93    1.35
  12  -6  -6   17.71    1.06
  12  -6  -6   17.12    1.46
 -12  -6   6   17.31    1.41
  12   6  -6   15.27    1.40
  12   6  -6   15.35    1.38
 -12   6   6   17.70    1.10
  10  -6  -6    9.39    1.01
 -10  -6   6    7.98    0.97
  10  -6  -6    8.27    0.94
  10  -6  -6    9.72    0.68
 -10  -6   6    8.78    1.06
 -10   6   6    7.70    0.72
  10   6  -6    8.37    1.10
  10   6  -6    8.17    1.09
 -10   6   6    8.72    0.45
   8  -6  -6    1.75    0.56
   8  -6  -6    2.32    0.53
  -8  -6   6    2.13    0.63
  -8  -6   6    1.78    0.56
  -8   6   6    1.74    0.27
   8   6  -6    1.92    0.62
  -8   6   6    2.05    0.42
   8   6  -6    1.92    0.61
   6  -6  -6    5.43    0.77
  -6  -6   6    4.44    0.72
   6  -6  -6    4.92    0.76
  -6  -6   6    5.75    0.87
   6   6  -6    4.73    0.81
   6   6  -6    3.68    0.73
  -6   6   6    6.07    0.79
  -6   6   6    4.97    0.44
   4  -6  -6    0.87    0.28
  -4  -6   6    0.66    0.46
   4  -6  -6    0.37    0.36
  -4  -6   6    1.10    0.37
   4   6  -6    0.46    0.40
  -4   6   6    0.31    0.24
  -4   6   6    0.37    0.33
   4   6  -6    0.39    0.38
   2  -6  -6    7.23    0.76
   2  -6  -6    6.79    0.88
  -2  -6   6    7.29    0.72
  -2  -6   6    6.15    0.88
  -2   6   6    5.73    0.58
   2   6  -6    6.47    0.79
   2   6  -6    6.13    0.90
  -2   6   6    5.17    0.83
   0  -6  -6    1.02    0.45
   0  -6   6    1.66    0.38
   0  -6   6    1.32    0.51
   0   6   6    1.14    0.38
   0   6  -6    1.55    0.48
   0   6  -6    0.65    0.46
   0   6   6    1.05    0.51
   2  -6   6    5.87    0.85
  -2  -6  -6    6.68    0.65
  -2  -6  -6    6.78    0.90
   2  -6   6    6.54    0.60
   2   6   6    5.72    0.67
  -2   6  -6    5.77    0.69
   2   6   6    5.12    0.84
  -2   6  -6    5.62    0.84
   4  -6   6    8.20    0.64
  -4  -6  -6   10.12    0.83
   4  -6   6    8.13    0.97
  -4  -6  -6    7.06    0.93
  -4   6  -6    7.38    0.74
   4   6   6    7.25    0.77
  -4   6  -6    7.98    1.00
   4   6   6    7.69    1.03
  -6  -6  -6   14.79    1.05
   6  -6   6   13.06    1.17
  -6  -6  -6   12.91    1.18
   6   6   6   12.34    1.06
   6   6   6   13.49    1.30
  -6   6  -6   14.16    1.26
  -6   6  -6   13.41    0.95
   8  -6   6    2.54    0.61
  -8  -6  -6    3.13    0.69
   8   6   6    1.44    0.63
  -8   6  -6    2.32    0.47
  -8   6  -6    2.71    0.68
   8   6   6    2.64    0.62
  10  -6   6   15.69    1.28
 -10  -6  -6   13.93    1.27
 -10   6  -6   15.21    0.99
 -10   6  -6   13.75    1.32
  10   6   6   14.49    1.39
  10   6   6   14.01    1.21
  12  -6   6    0.51    0.34
 -12  -6  -6    0.22    0.38
 -12   6  -6    0.25    0.52
  12   6   6   -0.02    0.36
  12   6   6    0.69    0.34
 -12   6  -6    0.14    0.30
  14  -6   6   11.56    1.17
  14  -6   6   14.29    1.17
 -14  -6  -6   11.50    1.19
  14   6   6   12.64    1.35
  14   6   6   12.30    1.17
 -14   6  -6   13.07    1.00
  16  -6   6    4.35    0.80
 -16  -6  -6    3.36    0.71
  16  -6   6    4.66    0.65
  16   6   6    4.35    0.73
  16   6   6    3.43    0.79
 -16   6  -6    3.85    0.46
  18  -6   6    6.04    0.68
 -18  -6  -6    8.04    0.89
  18  -6   6    6.14    0.94
  18   6   6    7.24    1.06
  18   6   6    7.01    0.81
 -18   6  -6    7.24    0.70
  20  -6   6    1.27    0.33
 -20  -6  -6    1.51    0.08
  20   6   6    1.11    0.27
  22  -6   6    0.93    0.29
 -21  -7   6    0.95    0.36
 -19  -7   6    0.41    0.24
  17  -7  -6    0.99    0.26
 -17  -7   6    0.47    0.35
  17   7  -6    1.36    0.23
  17   7  -6    1.51    0.29
  15  -7  -6    4.84    0.79
 -15  -7   6    3.96    0.83
  15   7  -6    4.38    0.76
  15   7  -6    4.92    0.77
 -15   7   6    4.59    0.56
  15   7  -6    4.72    0.80
  13  -7  -6    3.21    0.63
 -13  -7   6    1.38    0.56
  13   7  -6    2.34    0.57
 -13   7   6    1.90    0.42
  13   7  -6    2.00    0.45
  13   7  -6    3.02    0.66
  11  -7  -6    1.74    0.38
  11  -7  -6    1.04    0.33
 -11  -7   6    1.06    0.32
 -11  -7   6    0.62    0.45
  11   7  -6    0.42    0.30
 -11   7   6    1.43    0.13
  11   7  -6    1.20    0.32
   9  -7  -6    5.53    0.66
   9  -7  -6    4.93    0.75
  -9  -7   6    4.55    0.89
  -9  -7   6    5.09    0.86
  -9   7   6    4.93    0.34
  -9   7   6    4.84    0.53
   9   7  -6    4.14    0.81
   9   7  -6    4.44    0.78
  -7  -7   6    0.49    0.41
   7  -7  -6    1.03    0.23
   7  -7  -6    0.11    0.25
  -7  -7   6    0.30    0.30
   7   7  -6    0.09    0.36
  -7   7   6    0.40    0.21
   7   7  -6    0.29    0.33
  -7   7   6    0.96    0.28
  -5  -7   6    0.98    0.53
   5  -7  -6    2.23    0.41
  -5  -7   6    1.44    0.42
   5  -7  -6    1.03    0.47
   5   7  -6    1.31    0.53
   5   7  -6    0.52    0.46
  -5   7   6    2.13    0.51
  -5   7   6    1.18    0.31
   3  -7  -6   18.60    1.30
  -3  -7   6   17.72    1.28
  -3  -7   6   13.68    1.30
   3  -7  -6   14.61    1.28
   3   7  -6   16.46    1.38
  -3   7   6   17.60    1.38
   3   7  -6   14.81    1.28
  -3   7   6   16.12    0.97
  -1  -7   6    0.57    0.49
   1  -7  -6    1.12    0.48
  -1  -7   6    1.74    0.39
   1   7  -6    0.88    0.43
   1   7  -6    1.37    0.57
  -1   7   6    0.92    0.36
  -1   7   6    1.88    0.59
   1  -7   6    7.91    0.73
   1  -7   6    7.80    1.04
  -1  -7  -6    7.28    0.99
   1   7   6    7.15    0.76
   1   7   6    6.40    0.98
  -1   7  -6    6.95    1.00
  -1   7  -6    6.89    0.83
   3  -7   6    5.10    0.87
   3  -7   6    5.71    0.54
  -3  -7  -6    3.88    0.77
   3   7   6    4.50    0.88
   3   7   6    5.14    0.76
  -3   7  -6    4.89    0.72
  -3   7  -6    3.94    0.79
  -5  -7  -6    1.38    0.59
   5  -7   6    1.94    0.63
  -5   7  -6    2.34    0.69
  -5   7  -6    1.68    0.48
   5   7   6    1.37    0.61
   5   7   6    1.54    0.50
   7  -7   6    0.53    0.29
  -7  -7  -6    0.58    0.45
   7   7   6    0.41    0.47
  -7   7  -6    0.60    0.43
   7   7   6    0.70    0.43
  -7   7  -6    0.34    0.35
  -9  -7  -6    2.65    0.71
   9  -7   6    3.03    0.67
  -9   7  -6    3.39    0.58
  -9   7  -6    2.71    0.73
   9   7   6    2.99    0.65
   9   7   6    3.18    0.78
  11  -7   6    1.24    0.40
 -11  -7  -6    0.43    0.48
  11   7   6    0.93    0.40
 -11   7  -6    0.44    0.52
  11   7   6    0.53    0.43
 -11   7  -6    0.25    0.27
 -13  -7  -6    1.68    0.60
  13  -7   6    2.83    0.56
  13   7   6    2.14    0.70
 -13   7  -6    2.02    0.48
 -13   7  -6    1.37    0.66
  13   7   6    2.94    0.60
 -15  -7  -6    7.24    1.00
  15  -7   6    7.94    0.82
 -15   7  -6    5.55    1.07
  15   7   6    5.60    1.00
  15   7   6    7.62    0.89
 -15   7  -6    6.52    0.70
 -17  -7  -6    1.04    0.25
  17   7   6    0.52    0.19
 -17   7  -6    1.16    0.35
 -17   7  -6    1.06    0.70
  17   7   6    1.79    0.20
  19  -7   6    3.49    0.28
  19  -7   6    1.88    0.45
 -19  -7  -6    3.18    0.24
  19   7   6    3.23    0.39
 -16  -8   6    5.61    0.89
  16  -8  -6    6.46    0.72
  16   8  -6    6.06    0.48
  16   8  -6    5.64    0.85
  16   8  -6    6.45    0.71
 -14  -8   6    0.74    0.28
  14   8  -6    1.08    0.22
 -12  -8   6    0.97    0.37
  12   8  -6    1.26    0.31
  12   8  -6    0.70    0.24
 -10  -8   6    1.48    0.41
 -10  -8   6    1.54    0.47
  10  -8  -6    1.06    0.25
  10   8  -6    1.71    0.52
 -10   8   6    1.90    0.11
  -8  -8   6    2.25    0.50
  -8  -8   6    2.27    0.62
   8  -8  -6    2.15    0.51
  -8   8   6    3.14    0.25
  -8   8   6    2.67    0.23
   8   8  -6    1.64    0.53
   8   8  -6    3.31    0.35
  -6  -8   6    0.64    0.37
   6  -8  -6    0.73    0.32
  -6  -8   6    1.33    0.32
   6   8  -6    1.57    0.28
   6   8  -6    0.66    0.39
  -6   8   6    1.02    0.22
  -4  -8   6    7.75    0.84
   4  -8  -6    7.50    1.00
  -4  -8   6    6.39    1.06
   4   8  -6    7.31    0.99
  -4   8   6    6.91    0.61
   4   8  -6    6.43    0.88
  -4   8   6    7.59    0.82
  -2  -8   6    3.97    0.59
   2  -8  -6    2.88    0.67
  -2  -8   6    3.12    0.79
   2   8  -6    2.46    0.57
   2   8  -6    2.70    0.56
  -2   8   6    3.52    0.71
  -2   8   6    2.83    0.51
   0  -8   6    2.24    0.27
   0  -8  -6    1.26    0.52
   0  -8   6    1.66    0.66
   0   8   6    1.16    0.42
   0   8  -6    1.22    0.34
   0   8  -6    1.80    0.54
   0   8   6    1.47    0.53
  -2  -8  -6    0.37    0.37
   2  -8   6    0.89    0.31
  -2   8  -6    0.35    0.36
  -2   8  -6    0.90    0.28
   2   8   6    0.72    0.41
   2   8   6    0.30    0.36
  -4  -8  -6    4.12    0.80
   4  -8   6    3.28    0.72
  -4   8  -6    3.22    0.68
   4   8   6    4.75    0.70
  -4   8  -6    4.13    0.70
   4   8   6    4.20    0.93
  -6  -8  -6    2.54    0.65
   6  -8   6    3.24    0.69
   6   8   6    3.51    0.84
  -6   8  -6    2.55    0.68
  -6   8  -6    3.19    0.60
   6   8   6    2.76    0.62
  -8  -8  -6    1.91    0.64
   8  -8   6    2.75    0.61
   8   8   6    1.86    0.70
  -8   8  -6    2.56    0.65
   8   8   6    2.28    0.52
  -8   8  -6    2.15    0.47
 -10  -8  -6    0.53    0.33
  10  -8   6    1.59    0.37
  10   8   6    0.68    0.25
  10   8   6    1.31    0.35
 -10   8  -6    0.57    0.30
 -10   8  -6    0.85    0.43
 -12  -8  -6    0.38    0.27
  12   8   6    0.99    0.27
 -12   8  -6    0.49    0.32
  12   8   6    0.79    0.22
 -12   8  -6    0.74    0.24
  14  -8   6    6.87    0.76
 -14  -8  -6    8.34    1.01
  14   8   6    7.46    0.83
 -14   8  -6    7.59    1.09
  14   8   6    7.78    1.13
 -14   8  -6    7.42    0.66
  -7  -9   6    2.75    0.57
  -7  -9   6    3.01    0.29
   7  -9  -6    2.51    0.30
  -7   9   6    3.36    0.20
   7   9  -6    3.19    0.61
   7   9  -6    3.30    0.18
  -7   9   6    4.40    0.25
  -5  -9   6    3.75    0.76
  -5  -9   6    4.69    0.52
   5  -9  -6    3.98    0.48
   5   9  -6    2.68    0.56
  -5   9   6    4.60    0.29
  -5   9   6    3.77    0.35
   5   9  -6    3.90    0.34
  -3  -9   6    6.09    0.98
  -3  -9   6    5.59    0.63
   3  -9  -6    5.87    0.85
   3   9  -6    6.00    0.83
   3   9  -6    4.86    0.41
  -3   9   6    6.04    0.56
  -3   9   6    6.37    0.59
  -1  -9   6   10.41    1.32
   1  -9  -6    9.42    1.07
   1   9  -6    9.33    0.81
   1   9  -6    9.66    0.96
  -1   9   6   11.50    1.14
  -1   9   6   10.73    0.86
   1  -9   6    1.82    0.47
  -1  -9  -6    1.45    0.39
   1   9   6    2.07    0.39
   1   9   6    1.75    0.40
  -1   9  -6    1.82    0.44
   3  -9   6    5.09    0.86
  -3  -9  -6    5.68    0.88
  -3   9  -6    5.86    0.58
   3   9   6    7.04    1.00
   3   9   6    5.80    0.71
  -3   9  -6    5.85    0.72
   5  -9   6    1.08    0.27
  -5  -9  -6    1.18    0.36
   5   9   6    0.77    0.31
   5   9   6    1.10    0.27
  30   0  -7    0.74    0.27
 -28   0   7    0.69    0.25
  28   0  -7    1.15    0.40
  26   0  -7   -0.10    0.23
 -26   0   7    0.59    0.37
 -26   0   7    0.47    0.20
 -24   0   7    0.34    0.35
 -24   0   7    0.41    0.39
  24   0  -7   -0.17    0.29
 -22   0   7    0.09    0.32
 -22   0   7    0.00    0.32
  22   0  -7    0.34    0.41
  20   0  -7    0.33    0.37
  20   0  -7    0.48    0.40
 -20   0   7   -0.10    0.30
 -18   0   7   -0.12    0.28
  18   0  -7    0.20    0.30
  18   0  -7   -0.18    0.23
  16   0  -7    0.31    0.31
  16   0  -7    0.35    0.32
 -16   0   7    0.16    0.30
  14   0  -7   -0.01    0.26
 -14   0   7   -0.03    0.25
  14   0  -7    0.10    0.23
  12   0  -7   -0.02    0.18
  12   0  -7    0.03    0.22
 -12   0   7    0.00    0.25
  10   0  -7    0.07    0.21
  10   0  -7    0.13    0.24
 -10   0   7   -0.08    0.20
   8   0  -7    0.08    0.20
   8   0  -7    0.37    0.21
  -8   0   7   -0.03    0.19
   6   0  -7    0.23    0.21
   6   0  -7    0.20    0.13
  -6   0   7    0.06    0.19
   4   0  -7    0.02    0.19
   4   0  -7    0.03    0.12
  -4   0   7    0.10    0.18
   4   0  -7    0.30    0.07
  -4   0   7    0.29    0.14
   2   0  -7    0.02    0.10
   2   0  -7    0.28    0.09
  -2   0   7    0.02    0.14
  -2   0   7    0.11    0.14
   2   0  -7   -0.07    0.15
   0   0  -7    0.54    0.24
   0   0   7    0.07    0.14
   0   0  -7    0.29    0.09
   0   0  -7    0.21    0.12
   0   0   7    0.05    0.13
  -2   0  -7   -0.06    0.10
   2   0   7    0.15    0.18
  -2   0  -7    0.03    0.18
   2   0   7    0.18    0.13
  -2   0  -7    0.29    0.12
   4   0   7    0.11    0.18
   4   0   7    0.21    0.11
  -4   0  -7    0.05    0.18
   4   0   7    0.32    0.10
  -6   0  -7    0.74    0.08
   6   0   7   -0.06    0.17
   6   0   7    0.39    0.16
   6   0   7    0.48    0.08
  -6   0  -7    0.07    0.19
   8   0   7    0.49    0.18
  -8   0  -7    0.22    0.25
   8   0   7    0.01    0.19
 -10   0  -7    0.07    0.24
  10   0   7   -0.16    0.18
  10   0   7    0.39    0.14
  12   0   7    0.07    0.24
  12   0   7    0.35    0.16
 -12   0  -7    0.33    0.29
  14   0   7    0.40    0.18
  14   0   7   -0.07    0.23
 -14   0  -7   -0.11    0.26
 -16   0  -7    0.15    0.32
  16   0   7    0.10    0.30
  16   0   7    0.73    0.26
  18   0   7    0.37    0.23
  18   0   7    0.21    0.23
 -18   0  -7    0.06    0.36
  20   0   7    0.43    0.21
 -20   0  -7    0.14    0.40
  20   0   7    0.84    0.25
  22   0   7    0.38    0.14
  22   0   7    0.76    0.23
 -22   0  -7   -0.04    0.39
  24   0   7    1.52    0.29
 -24   0  -7    0.03    0.41
  24   0   7    0.94    0.18
 -26   0  -7    0.17    0.36
 -28   0  -7    1.28    0.44
  31  -1  -7    2.22    0.60
 -31  -1   7    3.53    0.33
 -31  -1   7    3.69    0.45
 -31   1   7    2.54    0.58
  31   1  -7    3.69    0.80
 -29  -1   7    1.00    0.23
  29  -1  -7    0.33    0.30
 -29   1   7    0.85    0.40
  29   1  -7    0.75    0.46
 -27  -1   7    7.85    0.87
 -27  -1   7    7.52    0.86
  27  -1  -7    5.93    0.96
 -27   1   7    8.12    0.80
 -27   1   7    6.40    1.06
  27   1  -7    7.15    1.12
  25  -1  -7    1.91    0.61
 -25  -1   7    1.86    0.44
 -25  -1   7    2.44    0.60
 -25   1   7    1.04    0.58
 -25   1   7    1.98    0.45
  25   1  -7    0.99    0.53
  23  -1  -7    2.02    0.63
 -23  -1   7    1.50    0.45
 -23  -1   7    1.68    0.58
 -23   1   7    1.59    0.48
  23   1  -7    1.12    0.56
  21  -1  -7   11.26    1.10
  21  -1  -7   12.77    1.23
 -21  -1   7   12.26    1.04
 -21  -1   7   12.16    1.14
  21   1  -7   11.53    1.16
 -21   1   7   12.32    1.13
  19  -1  -7   12.18    1.08
  19  -1  -7   10.74    1.08
 -19  -1   7   12.04    1.11
 -19   1   7   10.24    1.01
  19   1  -7   11.82    0.94
  19   1  -7   11.17    1.08
  17  -1  -7    0.18    0.34
  17  -1  -7   -0.01    0.24
 -17  -1   7    0.07    0.33
  17   1  -7   -0.10    0.28
  17   1  -7    0.31    0.23
 -17   1   7    0.05    0.31
 -15  -1   7    6.44    0.81
  15  -1  -7    5.89    0.81
  15  -1  -7    7.05    0.76
  15   1  -7    7.54    0.68
 -15   1   7    6.76    0.79
  15   1  -7    6.28    0.81
  13  -1  -7   13.77    1.09
  13  -1  -7   13.39    0.95
 -13  -1   7   15.75    1.10
  13   1  -7   14.28    0.90
  13   1  -7   13.87    0.98
 -13   1   7   13.30    1.02
  13   1  -7   13.60    1.03
 -11  -1   7   28.49    0.93
  11  -1  -7   28.02    1.52
 -11  -1   7   27.93    1.44
  11  -1  -7   28.30    1.31
  11   1  -7   29.38    1.45
  11   1  -7   28.40    1.29
  11   1  -7   29.67    1.51
 -11   1   7   29.70    1.48
  -9  -1   7   18.08    0.71
   9  -1  -7   18.57    0.96
   9  -1  -7   19.93    1.23
  -9  -1   7   17.32    1.07
  -9   1   7   19.26    0.59
   9   1  -7   17.82    0.97
   9   1  -7   17.79    1.07
  -9   1   7   18.77    1.12
   9   1  -7   17.85    1.10
  -7  -1   7   15.45    0.66
   7  -1  -7   15.19    0.77
   7  -1  -7   15.99    1.07
  -7  -1   7   14.81    0.94
   7   1  -7   15.81    0.95
  -7   1   7   15.79    0.97
  -7   1   7   16.16    0.62
   7   1  -7   16.21    0.90
   7   1  -7   16.41    1.02
   5  -1  -7    1.36    0.22
  -5  -1   7    1.55    0.24
  -5  -1   7    1.11    0.29
   5  -1  -7    1.45    0.40
   5   1  -7    1.50    0.32
  -5   1   7    1.25    0.31
   5   1  -7    2.24    0.38
  -5   1   7    1.78    0.23
   5   1  -7    1.36    0.30
  -3  -1   7    7.53    0.58
   3  -1  -7    6.58    0.38
   3  -1  -7    7.44    0.70
  -3  -1   7    7.44    0.50
   3   1  -7    6.74    0.54
   3   1  -7    7.53    0.61
  -3   1   7    6.99    0.59
   3   1  -7    6.99    0.57
  -3   1   7    6.77    0.49
   1  -1  -7   10.78    0.79
   1  -1  -7   11.55    0.46
  -1  -1   7   11.25    0.67
  -1  -1   7   11.55    0.67
   1  -1  -7   11.31    0.65
   1   1  -7   11.73    0.69
   1   1  -7   11.79    0.71
  -1   1   7   10.03    0.64
  -1   1   7   11.06    0.70
   1   1  -7   11.17    0.72
   1  -1   7   -0.03    0.18
  -1  -1  -7    0.75    0.24
   1  -1   7    0.09    0.13
  -1  -1  -7   -0.01    0.20
   1   1   7    0.38    0.18
  -1   1  -7   -0.03    0.17
  -1   1  -7    0.13    0.18
   1   1   7   -0.16    0.16
  -1   1  -7    0.48    0.22
  -3  -1  -7    5.53    0.45
  -3  -1  -7    5.86    0.30
   3  -1   7    4.90    0.51
   3  -1   7    5.63    0.35
  -3  -1  -7    4.95    0.53
  -3  -1  -7    5.49    0.46
  -3   1  -7    5.19    0.47
   3   1   7    5.04    0.47
   3   1   7    4.94    0.53
  -3   1  -7    5.44    0.51
  -3   1  -7    4.68    0.47
   5  -1   7    3.16    0.47
  -5  -1  -7    2.81    0.45
   5  -1   7    3.39    0.22
   5  -1   7    3.12    0.38
  -5  -1  -7    2.71    0.34
  -5   1  -7    3.47    0.44
   5   1   7    3.40    0.52
   5   1   7    3.23    0.39
   5   1   7    3.59    0.24
   7  -1   7    5.37    0.59
  -7  -1  -7    5.99    0.61
   7  -1   7    7.19    0.26
   7  -1   7    5.84    0.53
  -7  -1  -7    6.35    0.45
   7   1   7    6.61    0.39
   7   1   7    6.30    0.66
   7   1   7    6.96    0.58
  -7   1  -7    6.27    0.61
   9  -1   7    2.13    0.38
  -9  -1  -7    1.85    0.44
   9  -1   7    2.41    0.47
  -9  -1  -7    2.68    0.28
   9   1   7    2.05    0.47
   9   1   7    3.06    0.38
   9   1   7    2.90    0.27
  -9   1  -7    2.19    0.47
  11  -1   7    0.68    0.34
 -11  -1  -7    1.95    0.22
 -11  -1  -7    1.10    0.38
  11  -1   7    1.15    0.32
 -11   1  -7    0.93    0.37
  11   1   7    1.63    0.24
  11   1   7    1.15    0.40
  13  -1   7    0.67    0.35
  13  -1   7    0.28    0.26
 -13  -1  -7   -0.09    0.27
  13   1   7    0.72    0.18
  13   1   7    1.14    0.21
 -13   1  -7    0.34    0.35
  13   1   7    0.43    0.34
 -15  -1  -7    3.05    0.63
 -15  -1  -7    4.06    0.32
  15  -1   7    3.32    0.57
  15  -1   7    4.23    0.66
  15   1   7    3.27    0.63
  15   1   7    3.88    0.42
 -15   1  -7    4.39    0.70
  17  -1   7   13.51    1.06
 -17  -1  -7   13.23    1.15
  17  -1   7   12.08    0.99
 -17   1  -7   11.92    1.09
  17   1   7   14.31    0.91
  17   1   7   12.53    1.08
 -19  -1  -7    0.70    0.44
  19  -1   7    0.92    0.27
  19  -1   7    1.25    0.45
 -19   1  -7    0.52    0.42
  19   1   7    1.16    0.27
  19   1   7    1.14    0.36
 -21  -1  -7    0.60    0.49
  21  -1   7    0.70    0.25
  21  -1   7    0.66    0.22
  21   1   7    1.00    0.25
 -21   1  -7    0.90    0.49
  21   1   7    1.44    0.34
  23  -1   7    0.98    0.31
  23  -1   7    1.15    0.21
 -23  -1  -7    0.92    0.49
  23   1   7    1.08    0.26
 -23   1  -7    0.86    0.50
 -25  -1  -7    4.48    0.83
  25  -1   7    4.47    0.50
  25  -1   7    4.45    0.67
  25   1   7    5.15    0.49
 -25   1  -7    2.95    0.74
  25   1   7    4.39    0.48
  27  -1   7    1.79    0.18
 -27  -1  -7    1.09    0.44
 -27   1  -7    0.97    0.43
  29  -1   7    2.01    0.14
 -29  -1  -7    1.64    0.34
 -29   1  -7    1.77    0.53
  30  -2  -7   10.60    1.20
 -30  -2   7   11.48    1.04
  30   2  -7   11.89    1.34
 -30   2   7   11.80    1.35
 -28  -2   7   21.18    1.58
  28  -2  -7   19.83    1.63
 -28   2   7   20.22    1.38
 -28   2   7   20.38    1.82
  28   2  -7   19.22    1.73
  26  -2  -7    1.49    0.51
 -26  -2   7    1.54    0.43
 -26   2   7    1.57    0.17
  26   2  -7    1.19    0.61
 -26   2   7    1.83    0.69
 -24  -2   7    5.03    0.88
  24  -2  -7    5.56    0.89
 -24  -2   7    5.61    0.60
  24   2  -7    4.01    0.85
 -24   2   7    5.21    0.71
  22  -2  -7    0.65    0.40
  22  -2  -7    0.26    0.46
 -22  -2   7    0.94    0.24
 -22  -2   7    0.77    0.47
  22   2  -7    0.36    0.47
 -22   2   7    0.61    0.31
  20  -2  -7   29.10    1.92
  20  -2  -7   32.54    1.84
 -20  -2   7   33.21    1.59
 -20  -2   7   29.98    1.81
 -20   2   7   31.80    1.80
  20   2  -7   29.51    1.87
  18  -2  -7    1.09    0.53
  18  -2  -7    1.76    0.49
 -18  -2   7    2.03    0.58
 -18  -2   7    1.74    0.33
 -18   2   7    1.04    0.47
  18   2  -7    0.87    0.48
  16  -2  -7    2.48    0.62
  16  -2  -7    2.26    0.50
 -16  -2   7    2.78    0.62
  16   2  -7    3.04    0.35
  16   2  -7    2.91    0.65
 -16   2   7    2.01    0.55
 -14  -2   7    0.32    0.33
  14  -2  -7    0.67    0.31
  14  -2  -7    0.32    0.37
  14   2  -7    0.76    0.41
 -14   2   7    0.32    0.33
  14   2  -7    0.97    0.18
  14   2  -7    1.36    0.27
  12  -2  -7   22.97    1.19
  12  -2  -7   23.25    1.48
 -12  -2   7   22.40    0.98
 -12  -2   7   23.24    1.36
 -12   2   7   23.57    0.69
  12   2  -7   24.81    1.46
  12   2  -7   23.02    1.39
  12   2  -7   23.49    1.04
 -12   2   7   26.80    1.20
 -12   2   7   22.47    1.34
 -10  -2   7    1.00    0.35
  10  -2  -7    1.51    0.46
  10  -2  -7    1.55    0.29
 -10  -2   7    2.30    0.24
  10   2  -7    1.98    0.40
  10   2  -7    1.17    0.40
 -10   2   7    2.17    0.16
 -10   2   7    1.29    0.38
 -10   2   7    2.04    0.20
  10   2  -7    1.91    0.21
  -8  -2   7   37.23    1.63
   8  -2  -7   40.59    1.39
   8  -2  -7   37.39    1.86
  -8  -2   7   40.12    1.38
   8   2  -7   39.89    1.85
   8   2  -7   38.68    1.72
  -8   2   7   40.92    1.22
  -8   2   7   43.44    1.57
   8   2  -7   37.81    1.34
  -8   2   7   40.21    1.70
   6  -2  -7    3.18    0.55
  -6  -2   7    3.90    0.48
  -6  -2   7    3.02    0.38
   6  -2  -7    3.89    0.31
   6   2  -7    3.64    0.31
  -6   2   7    2.70    0.46
  -6   2   7    4.06    0.33
   6   2  -7    3.33    0.52
   6   2  -7    3.82    0.55
  -6   2   7    4.66    0.38
  -4  -2   7   37.50    1.45
  -4  -2   7   38.61    1.36
   4  -2  -7   38.74    1.09
   4  -2  -7   36.16    1.76
   4   2  -7   38.24    1.32
  -4   2   7   37.20    1.28
   4   2  -7   36.08    1.59
  -4   2   7   38.05    1.37
  -4   2   7   38.87    1.33
   4   2  -7   35.92    1.52
   2  -2  -7   33.43    1.63
  -2  -2   7   34.04    1.29
   2  -2  -7   33.95    1.39
   2  -2  -7   33.71    0.85
  -2  -2   7   32.54    1.27
   2   2  -7   32.05    1.41
   2   2  -7   33.59    1.39
   2   2  -7   34.45    1.21
  -2   2   7   32.86    1.29
  -2   2   7   33.87    1.23
   0  -2  -7    3.04    0.44
   0  -2   7    3.10    0.33
   0  -2   7    2.92    0.41
   0  -2  -7    3.23    0.52
   0   2   7    3.01    0.36
   0   2   7    3.15    0.43
   0   2  -7    3.41    0.45
   0   2  -7    3.06    0.34
   0   2  -7    2.91    0.43
  -2  -2  -7   16.26    1.01
   2  -2   7   16.30    0.91
   2  -2   7   16.92    0.69
  -2  -2  -7   15.93    0.89
  -2   2  -7   15.64    0.89
  -2   2  -7   16.50    0.92
   2   2   7   15.89    0.87
   2   2   7   15.55    0.93
  -2   2  -7   16.21    0.81
  -4  -2  -7   98.92    3.06
   4  -2   7  104.39    2.41
  -4  -2  -7  103.16    2.89
  -4  -2  -7  104.96    2.85
   4  -2   7  103.35    2.89
   4   2   7  107.31    2.97
  -4   2  -7  100.34    2.87
   4   2   7  104.61    2.99
  -4   2  -7  104.82    2.86
  -4   2  -7  101.29    2.86
   6  -2   7   19.13    1.01
   6  -2   7   19.03    0.54
  -6  -2  -7   19.65    1.12
   6  -2   7   18.71    1.06
  -6  -2  -7   17.45    0.95
   6   2   7   18.28    1.03
   6   2   7   19.20    0.60
  -6   2  -7   19.56    1.02
   6   2   7   19.64    1.15
   8  -2   7   39.15    1.58
   8  -2   7   40.54    1.67
  -8  -2  -7   38.91    1.51
  -8  -2  -7   36.98    1.63
   8   2   7   38.07    1.73
   8   2   7   36.82    1.60
  -8   2  -7   37.83    1.59
   8   2   7   37.55    1.10
  10  -2   7   58.01    2.08
 -10  -2  -7   57.31    2.20
 -10  -2  -7   57.20    1.97
  10  -2   7   57.89    2.14
  10   2   7   56.33    2.17
  10   2   7   57.43    1.63
  10   2   7   56.76    2.28
 -10   2  -7   58.77    2.17
 -12  -2  -7   49.02    1.82
 -12  -2  -7   52.89    2.14
  12  -2   7   50.68    1.99
  12  -2   7   48.49    2.00
  12   2   7   49.25    1.59
 -12   2  -7   51.06    2.11
  12   2   7   50.82    2.20
  12   2   7   50.92    2.10
 -14  -2  -7   19.17    1.03
 -14  -2  -7   17.45    1.24
  14  -2   7   17.94    1.20
  14  -2   7   16.89    1.15
  14   2   7   19.13    0.93
  14   2   7   17.71    1.17
  14   2   7   19.22    1.35
 -14   2  -7   17.23    1.23
 -16  -2  -7    0.42    0.40
  16  -2   7    0.22    0.26
  16  -2   7    0.38    0.34
 -16   2  -7    0.67    0.43
  16   2   7    0.38    0.36
 -18  -2  -7   15.29    0.92
  18  -2   7   13.11    1.10
  18  -2   7   16.43    1.14
 -18  -2  -7   16.24    1.29
 -18   2  -7   13.53    1.21
  18   2   7   15.05    1.27
  18   2   7   15.53    0.94
 -20  -2  -7    1.11    0.51
  20  -2   7    1.31    0.52
  20  -2   7    1.99    0.41
  20   2   7    1.55    0.46
 -20   2  -7    1.34    0.54
  20   2   7    2.28    0.24
  22  -2   7    4.42    0.78
 -22  -2  -7    4.63    0.83
  22  -2   7    5.60    0.61
 -22   2  -7    3.96    0.85
  22   2   7    4.98    0.73
  22   2   7    5.72    0.51
 -24  -2  -7    5.15    0.84
  24  -2   7    5.90    0.59
  24  -2   7    5.18    0.80
 -24   2  -7    5.52    0.97
  24   2   7    6.96    0.76
  26  -2   7   10.35    1.08
 -26  -2  -7   10.48    1.09
  26   2   7   11.36    1.01
 -26   2  -7    9.67    1.33
 -28  -2  -7    1.97    0.37
  28  -2   7    1.80    0.15
 -28   2  -7    1.00    0.49
 -29  -3   7    4.17    0.46
  29  -3  -7    3.75    0.69
 -29   3   7    1.96    0.68
  29   3  -7    2.82    0.71
 -27  -3   7   20.03    1.63
  27  -3  -7   21.19    1.67
  27   3  -7   18.48    1.68
 -27   3   7   20.31    1.89
  25  -3  -7    6.14    0.88
 -25  -3   7    7.84    1.10
  25   3  -7    6.53    1.07
 -25   3   7    5.08    1.02
 -25   3   7    6.43    0.63
  23  -3  -7   35.71    2.04
 -23  -3   7   34.30    2.10
  23  -3  -7   36.23    2.36
  23   3  -7   34.85    2.21
 -23   3   7   34.86    1.94
  21  -3  -7    2.38    0.74
  21  -3  -7    2.62    0.59
 -21  -3   7    1.59    0.62
  21   3  -7    1.78    0.67
 -21   3   7    3.02    0.57
  19  -3  -7   33.37    1.78
  19  -3  -7   34.54    2.15
 -19  -3   7   31.21    1.90
 -19   3   7   30.63    1.78
  19   3  -7   33.26    2.04
  17  -3  -7   13.53    1.03
  17  -3  -7   12.98    1.27
 -17  -3   7   12.03    1.13
  17   3  -7   13.40    1.25
 -17   3   7   11.76    1.07
  15  -3  -7  107.27    3.24
 -15  -3   7  101.06    3.54
  15  -3  -7  104.60    3.86
 -15   3   7  104.14    3.53
  15   3  -7  102.36    3.60
  15   3  -7  100.36    3.79
  15   3  -7  106.54    3.08
 -13  -3   7    9.26    0.92
  13  -3  -7    9.17    0.73
 -13  -3   7   10.18    0.55
  13  -3  -7    7.97    0.97
 -13  -3   7    9.38    0.68
  13   3  -7    9.48    1.01
 -13   3   7    8.75    0.89
  13   3  -7    9.48    0.93
 -11  -3   7   71.16    2.63
  11  -3  -7   71.33    2.94
 -11  -3   7   69.25    2.28
  11  -3  -7   72.29    2.25
 -11   3   7   72.88    1.95
  11   3  -7   71.84    1.93
  11   3  -7   72.43    2.90
 -11   3   7   74.49    2.26
 -11   3   7   70.20    2.62
  11   3  -7   73.30    2.79
   9  -3  -7    8.17    0.89
  -9  -3   7    8.91    0.69
  -9  -3   7    8.67    0.79
   9  -3  -7   10.16    0.63
  -9   3   7    9.67    0.56
  -9   3   7    9.32    0.86
   9   3  -7    8.92    0.89
   9   3  -7    9.59    0.45
  -9   3   7   10.28    0.60
   9   3  -7    9.22    0.87
  -7  -3   7  136.39    3.88
   7  -3  -7  131.66    4.28
  -7  -3   7  135.01    3.55
   7  -3  -7  141.05    3.25
   7   3  -7  135.27    3.18
   7   3  -7  142.53    4.03
   7   3  -7  139.23    4.22
  -7   3   7  141.45    3.52
  -7   3   7  143.65    3.40
  -5  -3   7    3.21    0.48
  -5  -3   7    3.08    0.48
   5  -3  -7    3.70    0.26
   5  -3  -7    2.85    0.56
   5  -3  -7    3.70    0.52
   5   3  -7    3.85    0.25
   5   3  -7    2.48    0.49
  -5   3   7    3.20    0.42
  -5   3   7    2.99    0.35
   5   3  -7    2.74    0.51
  -5   3   7    3.79    0.30
   3  -3  -7   29.43    0.82
   3  -3  -7   30.31    1.66
  -3  -3   7   29.04    1.27
  -3  -3   7   27.93    1.27
   3  -3  -7   27.89    1.38
   3   3  -7   28.70    1.43
  -3   3   7   29.61    1.13
  -3   3   7   30.18    1.32
   3   3  -7   29.35    1.43
   3   3  -7   30.99    1.02
  -3   3   7   28.10    1.10
  -1  -3   7   10.40    0.67
   1  -3  -7   11.61    0.85
   1  -3  -7    9.57    0.89
  -1  -3   7   10.38    0.76
   1   3  -7   10.44    0.82
   1   3  -7   11.51    0.56
  -1   3   7    9.72    0.64
   1   3  -7    9.57    0.75
  -1   3   7   10.49    0.77
   1  -3   7   14.80    0.93
  -1  -3  -7   13.23    0.90
  -1  -3  -7   14.77    1.06
   1  -3   7   14.65    0.72
  -1   3  -7   15.52    0.72
   1   3   7   12.95    0.79
   1   3   7   13.70    0.94
  -1   3  -7   13.27    0.92
  -1   3  -7   13.91    0.88
   3  -3   7    3.27    0.26
  -3  -3  -7    2.65    0.48
   3  -3   7    2.32    0.44
  -3  -3  -7    2.86    0.46
  -3   3  -7    2.92    0.45
  -3   3  -7    2.31    0.45
   3   3   7    2.80    0.50
  -3   3  -7    3.04    0.34
   3   3   7    2.86    0.45
  -5  -3  -7    0.43    0.28
  -5  -3  -7    0.29    0.25
   5  -3   7    0.53    0.29
   5   3   7    0.23    0.29
   5   3   7    0.45    0.27
  -5   3  -7    0.53    0.22
  -5   3  -7    0.50    0.25
  -5   3  -7    0.66    0.32
  -7  -3  -7    1.01    0.34
  -7  -3  -7    0.87    0.32
   7  -3   7    1.10    0.37
   7  -3   7    1.89    0.09
   7  -3   7    1.47    0.42
   7   3   7    1.44    0.45
   7   3   7    1.79    0.10
  -7   3  -7    1.24    0.34
   7   3   7    1.32    0.38
  -9  -3  -7   38.84    1.78
   9  -3   7   43.36    1.83
   9  -3   7   42.92    1.82
  -9  -3  -7   40.02    1.73
   9   3   7   41.47    1.94
  -9   3  -7   42.22    1.77
   9   3   7   40.95    1.18
   9   3   7   38.93    1.82
  11  -3   7    1.71    0.47
  11  -3   7    1.07    0.42
 -11  -3  -7    1.87    0.45
 -11  -3  -7    1.75    0.40
 -11   3  -7    1.29    0.41
  11   3   7    2.25    0.15
  11   3   7    1.80    0.41
  11   3   7    1.45    0.50
  13  -3   7   17.73    1.20
  13  -3   7   17.43    1.21
 -13  -3  -7   17.35    1.10
 -13  -3  -7   17.36    1.21
 -13   3  -7   17.31    1.22
  13   3   7   18.79    1.28
  13   3   7   18.06    1.35
 -15  -3  -7    1.92    0.52
  15  -3   7    2.16    0.55
 -15  -3  -7    2.79    0.45
  15  -3   7    2.27    0.51
  15   3   7    3.03    0.51
  15   3   7    1.96    0.62
 -15   3  -7    2.49    0.59
  17  -3   7    9.76    0.88
 -17  -3  -7    8.32    0.92
  17  -3   7    8.05    0.92
 -17  -3  -7    9.32    0.77
 -17   3  -7    7.85    1.01
  17   3   7    8.02    1.06
  19  -3   7    0.17    0.38
 -19  -3  -7    0.57    0.35
  19  -3   7    1.10    0.31
  19   3   7    1.11    0.47
 -19   3  -7    0.34    0.42
  21  -3   7   22.00    1.38
  21  -3   7   20.21    1.53
 -21  -3  -7   20.82    1.51
 -21   3  -7   20.63    1.65
  21   3   7   21.69    1.61
  23  -3   7    1.58    0.57
 -23  -3  -7    2.22    0.48
  23  -3   7    2.76    0.44
  23   3   7    2.30    0.48
 -23   3  -7    1.12    0.59
  25  -3   7   16.24    1.44
 -25  -3  -7   20.22    1.54
 -25   3  -7   17.02    1.60
  25   3   7   21.21    1.59
 -27  -3  -7    2.88    0.55
  27  -3   7    2.63    0.56
  27   3   7    2.94    0.27
 -27   3  -7    3.03    0.70
  28  -4  -7   15.49    1.32
 -28  -4   7   13.72    1.32
  28   4  -7   16.61    1.52
 -28   4   7   14.32    1.62
  26  -4  -7    7.19    0.80
 -26  -4   7    7.95    1.08
 -26   4   7    7.33    1.24
  26   4  -7    7.29    1.09
 -24  -4   7   35.61    2.24
  24  -4  -7   40.34    2.63
  24  -4  -7   38.27    2.14
  24   4  -7   39.46    2.47
 -24   4   7   37.83    2.02
 -22  -4   7    0.79    0.54
  22  -4  -7    0.27    0.50
  22  -4  -7    0.80    0.24
  22   4  -7    0.76    0.53
 -22   4   7    1.50    0.30
  20  -4  -7   12.43    1.05
 -20  -4   7   11.04    1.21
  20  -4  -7   11.21    1.32
  20   4  -7   12.72    1.33
 -20   4   7   11.01    1.03
  18  -4  -7    0.29    0.43
 -18  -4   7    0.45    0.41
  18  -4  -7    1.05    0.26
  18   4  -7   -0.21    0.39
 -18   4   7    0.44    0.27
  16  -4  -7  104.69    3.27
  16  -4  -7   99.67    3.99
 -16  -4   7   99.08    3.63
 -16   4   7   98.69    3.56
  16   4  -7  105.12    4.01
  16   4  -7   98.52    3.74
  16   4  -7  105.21    3.31
  14  -4  -7    1.30    0.30
  14  -4  -7    0.58    0.46
 -14  -4   7    0.63    0.42
 -14  -4   7    1.60    0.28
  14   4  -7    1.10    0.57
 -14   4   7    0.62    0.37
  14   4  -7    1.39    0.41
 -12  -4   7   13.18    0.97
  12  -4  -7    9.75    1.10
 -12  -4   7   11.71    1.04
  12  -4  -7   12.85    0.83
  12   4  -7   10.84    1.14
 -12   4   7   13.13    0.70
  12   4  -7   12.91    1.14
 -12   4   7   12.61    1.08
 -10  -4   7   12.71    1.04
  10  -4  -7   13.86    1.26
 -10  -4   7   13.64    1.00
  10  -4  -7   14.30    0.81
 -10   4   7   13.97    1.12
  10   4  -7   14.03    1.19
 -10   4   7   15.97    0.75
 -10   4   7   14.69    0.81
  10   4  -7   13.42    1.20
   8  -4  -7   79.94    2.21
  -8  -4   7   74.93    2.71
   8  -4  -7   75.06    2.75
   8  -4  -7   73.53    3.03
  -8  -4   7   77.34    2.64
   8   4  -7   79.42    2.93
   8   4  -7   76.78    2.99
  -8   4   7   78.24    2.39
  -8   4   7   80.68    2.22
  -8   4   7   80.41    2.10
  -6  -4   7   29.61    1.47
  -6  -4   7   29.40    1.46
   6  -4  -7   26.40    1.67
   6  -4  -7   29.78    1.55
   6  -4  -7   29.84    1.05
  -6   4   7   30.28    1.36
   6   4  -7   30.46    1.64
  -6   4   7   30.45    1.10
  -6   4   7   29.25    1.09
   6   4  -7   28.71    1.63
   4  -4  -7   24.33    0.83
   4  -4  -7   22.08    1.48
  -4  -4   7   25.11    1.28
   4  -4  -7   22.18    1.31
  -4  -4   7   22.83    1.28
   4   4  -7   23.32    1.37
  -4   4   7   24.57    0.97
  -4   4   7   23.64    1.24
   4   4  -7   23.68    1.41
  -4   4   7   24.34    1.00
   2  -4  -7   24.06    1.35
   2  -4  -7   23.45    1.51
  -2  -4   7   24.68    1.20
  -2  -4   7   25.55    1.35
  -2   4   7   24.15    1.06
   2   4  -7   22.98    1.30
   2   4  -7   23.92    1.37
  -2   4   7   23.28    1.29
  -2   4   7   25.15    0.78
   0  -4  -7  143.05    4.51
   0  -4   7  147.50    3.82
   0  -4  -7  145.27    4.19
   0  -4   7  146.47    3.99
   0   4  -7  147.25    4.06
   0   4  -7  147.92    4.13
   0   4   7  147.14    3.77
   0   4   7  148.40    4.06
   0   4  -7  150.12    3.50
  -2  -4  -7   50.71    2.10
  -2  -4  -7   53.42    2.31
   2  -4   7   55.82    1.79
   2  -4   7   54.35    2.09
  -2   4  -7   56.39    2.19
  -2   4  -7   53.46    1.98
   2   4   7   53.74    1.92
  -2   4  -7   54.84    1.69
   2   4   7   52.40    2.17
  -4  -4  -7   40.92    1.85
   4  -4   7   42.58    1.44
  -4  -4  -7   44.17    2.00
   4  -4   7   43.10    1.84
  -4   4  -7   41.31    1.65
  -4   4  -7   43.37    1.53
   4   4   7   40.84    1.92
   4   4   7   40.82    1.73
  -4   4  -7   43.68    1.92
  -6  -4  -7   70.62    2.66
   6  -4   7   73.42    2.57
   6  -4   7   71.58    2.00
  -6  -4  -7   69.57    2.59
   6   4   7   70.65    2.55
  -6   4  -7   75.06    2.37
  -6   4  -7   74.93    2.34
   6   4   7   72.86    2.75
  -6   4  -7   71.91    2.63
  -8  -4  -7  119.52    3.70
   8  -4   7  121.18    3.62
  -8  -4  -7  115.53    3.69
   8   4   7  116.60    3.72
  -8   4  -7  120.67    3.47
   8   4   7  128.62    3.96
 -10  -4  -7  108.02    3.53
  10  -4   7  113.19    3.51
  10  -4   7  112.60    3.55
 -10  -4  -7  108.06    3.53
 -10   4  -7  112.49    3.45
  10   4   7  108.04    3.63
  10   4   7  110.64    3.78
  12  -4   7   46.33    2.09
  12  -4   7   46.81    2.14
 -12  -4  -7   44.69    2.07
 -12  -4  -7   46.83    2.09
 -12   4  -7   47.90    2.10
  12   4   7   44.84    2.26
  12   4   7   46.76    2.20
  14  -4   7   47.78    2.15
 -14  -4  -7   46.83    2.15
  14  -4   7   44.57    2.17
 -14  -4  -7   46.00    2.11
  14   4   7   44.05    2.31
  14   4   7   47.09    2.28
 -14   4  -7   46.96    2.18
 -16  -4  -7   14.97    1.14
  16  -4   7   16.16    1.19
  16  -4   7   13.61    1.21
 -16  -4  -7   15.13    1.18
  16   4   7   13.88    1.19
 -16   4  -7   13.14    1.17
  16   4   7   14.63    1.34
 -18  -4  -7   41.77    2.12
 -18  -4  -7   43.30    2.10
  18  -4   7   39.70    2.00
  18  -4   7   39.78    2.16
  18   4   7   40.60    2.36
 -18   4  -7   40.87    2.23
  20  -4   7    2.85    0.49
  20  -4   7    1.20    0.55
 -20  -4  -7    3.25    0.54
 -20  -4  -7    3.42    0.33
  20   4   7    1.88    0.51
 -20   4  -7    1.72    0.57
  22  -4   7   33.83    1.84
  22  -4   7   31.53    2.06
 -22  -4  -7   35.03    2.02
  22   4   7   35.24    2.19
 -22   4  -7   32.13    2.12
  24  -4   7    0.85    0.32
 -24   4  -7    0.95    0.39
  26  -4   7   19.13    1.62
 -26   4  -7   19.18    1.66
  26   4   7   21.83    1.63
 -25  -5   7    1.51    0.51
  25  -5  -7    1.89    0.33
 -25   5   7    0.96    0.47
  25   5  -7    1.69    0.46
 -23  -5   7   24.55    1.87
  23  -5  -7   26.06    2.13
  23  -5  -7   26.59    1.73
  23   5  -7   27.21    2.04
  21  -5  -7   29.55    1.74
  21  -5  -7   29.03    2.19
 -21  -5   7   25.66    1.89
  21   5  -7   26.68    2.02
 -21   5   7   27.31    1.69
  19  -5  -7   66.64    3.36
 -19  -5   7   61.88    2.99
  19  -5  -7   70.00    2.75
 -19   5   7   66.98    2.91
  19   5  -7   67.23    3.23
  17  -5  -7    0.95    0.20
  17  -5  -7    0.43    0.44
 -17  -5   7    0.14    0.35
  17   5  -7    0.41    0.38
  17   5  -7    1.01    0.25
 -17   5   7    1.12    0.34
  17   5  -7    1.17    0.18
  15  -5  -7   59.61    3.00
 -15  -5   7   58.72    2.70
  15  -5  -7   61.87    2.34
  15   5  -7   58.57    2.92
  15   5  -7   60.66    2.91
  15   5  -7   61.16    2.57
 -15   5   7   57.93    2.64
  13  -5  -7    3.09    0.41
 -13  -5   7    2.41    0.61
  13  -5  -7    1.85    0.66
 -13  -5   7    2.33    0.46
  13   5  -7    2.52    0.61
  13   5  -7    1.86    0.66
 -13   5   7    1.79    0.53
  11  -5  -7  300.36    6.63
 -11  -5   7  286.83    7.52
  11  -5  -7  290.66    8.11
 -11  -5   7  276.40    7.14
  11   5  -7  289.77    7.94
 -11   5   7  293.32    7.62
  11   5  -7  290.04    7.65
 -11   5   7  300.70    6.65
   9  -5  -7    1.57    0.57
  -9  -5   7    1.66    0.50
   9  -5  -7    1.79    0.53
   9  -5  -7    2.98    0.26
  -9  -5   7    1.17    0.45
   9   5  -7    1.86    0.59
  -9   5   7    2.00    0.32
   9   5  -7    1.90    0.60
  -9   5   7    2.54    0.38
   7  -5  -7   62.66    1.90
   7  -5  -7   61.66    2.55
  -7  -5   7   63.60    2.49
  -7  -5   7   61.56    2.49
   7  -5  -7   60.16    2.78
   7   5  -7   63.89    2.73
  -7   5   7   65.84    2.33
   7   5  -7   60.65    2.63
  -7   5   7   64.66    1.83
   5  -5  -7    1.56    0.48
   5  -5  -7    1.54    0.48
  -5  -5   7    1.42    0.47
  -5  -5   7    1.86    0.46
  -5   5   7    1.32    0.37
   5   5  -7    0.79    0.44
   5   5  -7    1.19    0.44
  -5   5   7    1.54    0.32
  -3  -5   7  119.14    3.69
  -3  -5   7  124.35    3.63
   3  -5  -7  117.35    3.81
   3  -5  -7  123.53    4.17
   3   5  -7  119.62    3.85
  -3   5   7  119.38    3.64
   3   5  -7  117.29    3.81
  -3   5   7  120.78    3.16
   1  -5  -7    0.46    0.23
  -1  -5   7    0.66    0.25
  -1  -5   7    0.16    0.31
   1  -5  -7    0.18    0.30
  -1   5   7    0.54    0.37
  -1   5   7    0.25    0.25
   1   5  -7    0.29    0.32
   1   5  -7    0.11    0.36
   1  -5   7    5.87    0.55
  -1  -5  -7    5.30    0.74
  -1  -5  -7    6.91    0.78
   1  -5   7    5.58    0.77
  -1   5  -7    6.64    0.85
   1   5   7    5.32    0.57
  -1   5  -7    5.90    0.67
   1   5   7    6.39    0.85
   3  -5   7    5.40    0.46
   3  -5   7    3.98    0.67
  -3  -5  -7    5.17    0.63
  -3  -5  -7    4.01    0.68
  -3   5  -7    4.73    0.64
   3   5   7    5.05    0.79
   3   5   7    4.14    0.59
  -3   5  -7    4.17    0.71
   5  -5   7   66.44    2.08
  -5  -5  -7   64.01    2.62
  -5  -5  -7   62.02    2.56
   5  -5   7   65.31    2.54
   5   5   7   59.13    2.62
  -5   5  -7   63.37    2.58
  -5   5  -7   66.46    2.10
  -5   5  -7   65.43    2.26
   5   5   7   60.33    2.35
  -7  -5  -7    2.80    0.63
  -7  -5  -7    3.17    0.50
   7  -5   7    2.31    0.58
  -7   5  -7    3.78    0.36
  -7   5  -7    2.29    0.48
   7   5   7    2.04    0.52
   7   5   7    2.30    0.62
  -7   5  -7    2.84    0.64
   9  -5   7    7.54    0.85
  -9  -5  -7    8.40    0.79
  -9  -5  -7    6.83    0.88
   9   5   7    7.45    1.01
  -9   5  -7    8.70    0.98
  -9   5  -7    7.27    0.71
  -9   5  -7    9.03    0.71
   9   5   7    6.63    0.81
  11  -5   7    1.19    0.51
 -11  -5  -7    1.90    0.55
 -11  -5  -7    2.83    0.45
  11   5   7    1.66    0.53
 -11   5  -7    2.98    0.44
  11   5   7    1.60    0.58
 -13  -5  -7   60.40    2.66
  13  -5   7   60.07    2.66
  13  -5   7   64.05    2.64
 -13  -5  -7   61.04    2.54
 -13   5  -7   60.21    2.51
  13   5   7   63.22    2.96
  13   5   7   58.87    2.70
 -15  -5  -7    2.09    0.51
 -15  -5  -7    2.21    0.39
  15  -5   7    2.36    0.52
  15  -5   7    1.59    0.55
  15   5   7    2.38    0.68
  15   5   7    2.73    0.55
 -15   5  -7    2.95    0.51
  17  -5   7   30.76    1.96
 -17  -5  -7   33.58    1.83
  17  -5   7   32.86    1.83
 -17  -5  -7   32.11    1.88
  17   5   7   32.89    2.02
 -17   5  -7   32.56    1.90
  17   5   7   32.97    2.15
 -19  -5  -7    4.42    0.51
  19  -5   7    3.06    0.54
  19  -5   7    2.32    0.66
 -19   5  -7    3.16    0.56
  19   5   7    4.76    0.85
 -21  -5  -7   22.75    1.51
  21  -5   7   23.26    1.77
  21  -5   7   22.30    1.47
 -21   5  -7   22.65    1.67
  21   5   7   22.19    1.77
  23  -5   7    9.92    1.25
 -23  -5  -7    9.12    0.77
  23   5   7    9.10    0.98
 -23   5  -7    6.93    0.75
  24  -6  -7   47.64    2.50
 -24  -6   7   43.37    2.68
  24   6  -7   45.20    2.65
 -24   6   7   44.31    2.88
 -22  -6   7    0.95    0.53
  22  -6  -7    1.52    0.17
  22  -6  -7    1.20    0.40
  22   6  -7    1.68    0.31
  20  -6  -7   25.01    1.56
 -20  -6   7   23.67    1.88
  20  -6  -7   23.59    2.01
 -20   6   7   23.50    1.55
  20   6  -7   23.56    1.86
 -18  -6   7    2.46    0.68
  18  -6  -7    2.91    0.72
  18  -6  -7    3.90    0.43
  18   6  -7    4.50    0.74
 -18   6   7    3.55    0.57
  18   6  -7    2.87    0.68
  18   6  -7    4.20    0.61
  16  -6  -7   31.38    2.20
 -16  -6   7   27.49    1.93
  16  -6  -7   33.77    1.67
  16   6  -7   31.36    2.12
  16   6  -7   30.82    2.11
  16   6  -7   31.02    1.88
 -16   6   7   31.44    1.91
  14  -6  -7    6.81    1.04
 -14  -6   7    4.71    0.86
  14   6  -7    4.71    0.90
 -14   6   7    5.53    0.81
  14   6  -7    5.36    0.85
 -12  -6   7   46.38    2.39
  12  -6  -7   50.98    2.67
 -12  -6   7   43.03    2.29
  12   6  -7   47.83    2.56
  12   6  -7   46.48    2.53
 -12   6   7   50.35    2.46
  10  -6  -7   22.01    1.53
  10  -6  -7   20.92    1.62
 -10  -6   7   21.00    1.51
 -10  -6   7   21.47    1.52
 -10   6   7   20.62    1.23
  10   6  -7   19.61    1.57
  10   6  -7   18.08    1.51
 -10   6   7   20.10    0.85
   8  -6  -7   90.09    3.39
   8  -6  -7   90.41    3.63
  -8  -6   7   87.76    3.38
  -8  -6   7   92.39    3.37
  -8   6   7   90.17    2.39
   8   6  -7   91.41    3.58
   8   6  -7   89.72    3.49
  -8   6   7   86.96    3.02
  -6  -6   7   36.91    2.01
   6  -6  -7   37.48    2.00
   6  -6  -7   38.18    2.13
  -6  -6   7   36.59    1.90
  -6   6   7   38.36    1.38
   6   6  -7   36.46    2.05
  -6   6   7   39.51    1.89
   6   6  -7   34.30    2.02
  -4  -6   7   32.09    1.69
   4  -6  -7   31.41    1.89
  -4  -6   7   33.23    1.87
   4  -6  -7   29.36    1.76
   4   6  -7   31.86    1.84
  -4   6   7   31.70    1.74
  -4   6   7   30.83    1.30
   4   6  -7   29.40    1.82
   2  -6  -7   19.72    1.41
   2  -6  -7   21.74    1.48
  -2  -6   7   19.64    1.43
  -2  -6   7   19.48    1.24
   2   6  -7   18.64    1.41
  -2   6   7   18.36    1.35
  -2   6   7   17.86    1.02
   2   6  -7   18.32    1.34
   0  -6   7   41.86    1.83
   0  -6  -7   42.87    2.16
   0  -6  -7   39.19    2.04
   0  -6   7   38.03    2.02
   0   6   7   38.59    1.66
   0   6   7   39.49    2.07
   0   6  -7   41.72    2.14
   0   6  -7   38.21    1.90
   2  -6   7   57.17    2.17
  -2  -6  -7   59.02    2.61
  -2  -6  -7   56.21    2.52
   2  -6   7   56.11    2.49
  -2   6  -7   55.07    2.50
   2   6   7   53.14    2.12
  -2   6  -7   55.40    2.25
   2   6   7   55.53    2.55
  -4  -6  -7   61.59    2.72
   4  -6   7   59.44    2.62
  -4  -6  -7   66.82    2.78
  -4   6  -7   63.25    2.73
  -4   6  -7   60.53    2.35
   4   6   7   61.31    2.41
   4   6   7   62.64    2.80
  -6  -6  -7   74.85    3.06
   6  -6   7   72.62    2.95
  -6  -6  -7   75.05    3.01
   6   6   7   73.65    2.80
  -6   6  -7   74.62    2.63
   6   6   7   68.34    3.06
  -6   6  -7   78.67    3.10
  -8  -6  -7   86.90    3.40
  -8  -6  -7   93.20    3.35
   8  -6   7   88.78    3.32
  -8   6  -7   89.86    3.44
   8   6   7   85.21    3.51
   8   6   7   79.75    3.13
  -8   6  -7   87.05    2.87
 -10  -6  -7  101.68    3.81
  10  -6   7  101.33    3.67
  10   6   7  100.70    3.69
 -10   6  -7  106.13    3.84
 -10   6  -7  105.92    3.27
  10   6   7  102.47    4.00
  12  -6   7   49.29    2.39
 -12  -6  -7   49.60    2.52
 -12   6  -7   46.06    2.46
 -12   6  -7   46.77    1.97
  12   6   7   44.98    2.57
  12   6   7   45.40    2.34
  14  -6   7   82.85    3.25
 -14  -6  -7   79.32    3.36
 -14   6  -7   81.98    3.10
  14   6   7   75.93    3.56
  14   6   7   78.66    3.36
  16  -6   7   17.57    1.35
 -16  -6  -7   17.41    1.39
  16  -6   7   16.65    1.43
 -16   6  -7   16.61    1.18
  16   6   7   18.11    1.47
  16   6   7   15.19    1.50
 -18  -6  -7   46.61    2.49
  18  -6   7   46.34    2.53
  18  -6   7   48.87    2.42
  18   6   7   45.62    2.59
  18   6   7   43.78    2.68
 -18   6  -7   44.75    2.32
  20  -6   7    1.31    0.33
  20   6   7    1.95    0.43
 -19  -7   7   21.30    1.78
  19  -7  -7   23.05    1.88
  19   7  -7   21.44    1.62
  17  -7  -7    4.13    0.74
 -17  -7   7    2.69    0.73
  17   7  -7    3.61    0.68
 -17   7   7    4.59    0.39
  17   7  -7    4.61    0.69
  17   7  -7    4.92    0.53
 -15  -7   7  103.44    4.21
  15  -7  -7  112.84    4.55
  15   7  -7  107.16    4.08
  15   7  -7   97.62    4.13
  15   7  -7  110.30    4.49
 -15   7   7  106.50    4.13
  13  -7  -7    1.09    0.27
 -13  -7   7    0.21    0.36
  13   7  -7    0.71    0.21
  13   7  -7    1.18    0.34
  11  -7  -7   91.57    3.63
  11  -7  -7   90.42    3.85
 -11  -7   7   88.43    3.66
 -11  -7   7   92.81    3.75
  11   7  -7   92.72    3.86
  11   7  -7   89.25    3.76
 -11   7   7   95.44    3.26
 -11   7   7   93.71    2.38
   9  -7  -7    0.50    0.28
  -9  -7   7    0.64    0.32
  -9  -7   7    0.05    0.24
   9   7  -7    0.78    0.40
  -9   7   7    1.09    0.17
   9   7  -7    0.15    0.29
   7  -7  -7  158.07    5.19
   7  -7  -7  145.74    4.90
  -7  -7   7  149.24    4.82
  -7  -7   7  144.59    4.89
   7   7  -7  145.68    4.96
  -7   7   7  149.56    3.72
  -7   7   7  148.56    4.57
   7   7  -7  141.42    4.95
  -5  -7   7    0.57    0.23
   5  -7  -7    1.19    0.25
   5  -7  -7    0.39    0.36
  -5  -7   7    0.41    0.43
   5   7  -7    0.00    0.37
   5   7  -7    0.46    0.39
  -5   7   7    0.40    0.28
  -5   7   7    0.82    0.22
  -3  -7   7   21.94    1.65
  -3  -7   7   25.59    1.55
   3  -7  -7   24.57    1.70
   3  -7  -7   24.62    1.63
   3   7  -7   23.91    1.71
  -3   7   7   21.93    1.17
   3   7  -7   21.56    1.59
  -3   7   7   25.53    1.65
   1  -7  -7    0.09    0.36
  -1  -7   7    0.27    0.35
   1   7  -7    0.31    0.33
  -1   7   7    0.06    0.30
   1   7  -7   -0.30    0.35
  -1   7   7    0.17    0.28
  -1  -7  -7   25.78    1.76
   1  -7   7   31.12    1.60
   1  -7   7   26.72    1.81
   1   7   7   27.11    1.48
   1   7   7   26.75    1.82
  -1   7  -7   27.89    1.70
  -1   7  -7   28.63    1.88
  -3  -7  -7    2.91    0.69
   3  -7   7    3.83    0.79
  -3   7  -7    3.79    0.78
   3   7   7    3.66    0.62
  -3   7  -7    2.91    0.62
   3   7   7    2.21    0.69
  -5  -7  -7    5.94    0.95
   5  -7   7    5.29    0.88
   5   7   7    6.31    0.83
  -5   7  -7    5.62    0.78
   5   7   7    6.30    1.05
  -5   7  -7    6.59    1.01
   7  -7   7    2.12    0.62
  -7  -7  -7    3.19    0.77
   7   7   7    2.92    0.65
   7   7   7    1.73    0.68
  -7   7  -7    2.62    0.76
  -7   7  -7    2.28    0.53
  -9  -7  -7   44.01    2.47
   9  -7   7   46.64    2.42
  -9   7  -7   43.85    1.99
   9   7   7   41.48    2.51
  -9   7  -7   43.95    2.45
   9   7   7   41.96    2.23
  11  -7   7    6.02    0.86
 -11  -7  -7    4.09    0.85
  11   7   7    3.80    0.83
 -11   7  -7    4.88    0.70
 -11   7  -7    3.98    0.88
  11   7   7    4.93    0.81
  13  -7   7   42.10    2.32
 -13  -7  -7   38.61    2.34
 -13   7  -7   41.26    2.47
 -13   7  -7   41.79    1.92
  13   7   7   40.70    2.28
  13   7   7   40.31    2.55
 -15  -7  -7    9.99    1.12
  15  -7   7    9.40    0.92
 -15   7  -7    8.28    0.82
  15   7   7    9.74    1.30
  15   7   7    9.51    0.99
 -15   7  -7    8.14    1.25
 -17  -7  -7   37.55    2.29
  17  -7   7   37.76    2.17
  17   7   7   38.12    2.56
 -17   7  -7   36.00    1.81
 -17   7  -7   36.20    2.44
  17   7   7   38.84    2.40
 -14  -8   7    1.78    0.51
  14  -8  -7    3.13    0.35
  14   8  -7    3.45    0.62
  14   8  -7    2.85    0.31
 -14   8   7    3.26    0.21
  14   8  -7    3.28    0.31
  12  -8  -7   46.09    2.53
 -12  -8   7   44.83    2.59
  12   8  -7   44.35    2.63
 -12   8   7   46.24    1.38
  12   8  -7   46.61    2.54
  10  -8  -7   18.94    1.53
 -10  -8   7   20.29    1.63
 -10  -8   7   17.27    1.46
 -10   8   7   19.54    0.83
  10   8  -7   18.60    1.58
 -10   8   7   20.48    1.31
  10   8  -7   17.77    1.44
  -8  -8   7   15.43    1.45
   8  -8  -7   13.89    1.27
  -8  -8   7   13.18    1.22
   8   8  -7   13.97    1.23
  -8   8   7   14.31    0.75
  -8   8   7   14.00    1.09
   8   8  -7   14.33    1.35
   6  -8  -7   26.01    1.84
  -6  -8   7   26.40    1.76
  -6  -8   7   24.20    1.87
   6   8  -7   27.24    1.87
  -6   8   7   27.02    1.21
   6   8  -7   25.77    1.84
  -6   8   7   25.85    1.65
  -4  -8   7   49.01    2.73
   4  -8  -7   52.36    2.70
  -4  -8   7   50.98    2.52
  -4   8   7   53.00    2.60
  -4   8   7   51.55    1.96
   4   8  -7   51.69    2.68
   4   8  -7   52.50    2.64
  -2  -8   7   29.80    1.76
   2  -8  -7   28.43    1.93
  -2  -8   7   25.89    1.92
   2   8  -7   29.70    1.90
  -2   8   7   27.81    1.44
   2   8  -7   28.12    1.89
  -2   8   7   29.28    1.87
   0  -8  -7   14.04    1.36
   0  -8   7   12.47    1.30
   0   8  -7   13.26    1.20
   0   8   7   13.04    1.27
   0   8  -7   13.61    1.31
   0   8   7   12.85    1.01
   2  -8   7   30.76    2.05
  -2  -8  -7   29.70    2.03
   2   8   7   29.75    2.02
   2   8   7   29.76    1.66
  -2   8  -7   31.44    1.87
  -2   8  -7   29.89    2.00
  -4  -8  -7   37.91    2.31
   4  -8   7   37.29    2.28
   4   8   7   37.24    1.96
   4   8   7   37.56    2.36
  -4   8  -7   39.39    2.34
  -4   8  -7   37.30    2.02
  -6  -8  -7   46.91    2.64
   6  -8   7   44.32    2.51
  -6   8  -7   42.03    2.49
   6   8   7   46.82    2.30
   6   8   7   46.54    2.70
  -6   8  -7   45.95    2.21
  -8  -8  -7   20.63    1.74
   8  -8   7   22.78    1.72
   8   8   7   22.58    1.59
   8   8   7   22.81    1.90
  -8   8  -7   21.00    1.39
  -8   8  -7   19.31    1.68
 -10  -8  -7   54.90    3.00
  10  -8   7   58.66    2.94
  10   8   7   61.05    3.25
 -10   8  -7   57.36    3.01
 -10   8  -7   60.57    2.49
  10   8   7   54.02    2.71
 -12  -8  -7   58.26    3.14
  12  -8   7   63.45    3.06
 -12   8  -7   62.82    2.54
  12   8   7   64.59    3.04
  12   8   7   66.08    3.42
 -12   8  -7   61.21    3.17
  -5  -9   7    2.05    0.21
  -5   9   7    1.85    0.15
   5   9  -7    1.03    0.23
  -3  -9   7   37.40    2.15
  -3  -9   7   36.92    2.44
   3  -9  -7   38.29    2.36
   3   9  -7   35.74    2.19
  -3   9   7   38.83    1.76
  -3   9   7   37.76    2.18
   3   9  -7   38.32    2.24
  -1  -9   7    2.36    0.58
   1  -9  -7    2.00    0.46
  -1   9   7    2.68    0.41
  -1   9   7    3.15    0.26
   1   9  -7    1.80    0.44
   1   9  -7    2.81    0.18
   1  -9   7    5.18    0.86
  -1  -9  -7    4.70    0.80
   1   9   7    5.18    0.62
  -1   9  -7    6.35    0.85
   1   9   7    5.81    0.85
  -1   9  -7    5.57    0.56
   3  -9   7    1.69    0.39
  -3  -9  -7    2.15    0.52
  -3   9  -7    1.81    0.44
   3   9   7    1.98    0.41
   3   9   7    1.26    0.40
  -3   9  -7    1.64    0.15
 -30   0   8    1.85    0.43
  30   0  -8    2.78    0.67
 -30   0   8    3.60    0.28
 -28   0   8   46.40    2.50
  28   0  -8   41.54    2.53
 -28   0   8   49.45    2.63
 -26   0   8   40.40    2.32
 -26   0   8   39.35    2.21
  26   0  -8   40.04    2.35
 -24   0   8   41.45    2.29
  24   0  -8   38.72    2.24
 -24   0   8   40.27    2.22
  22   0  -8   38.32    2.05
 -22   0   8   36.33    2.06
  22   0  -8   35.02    2.05
  20   0  -8   24.60    1.61
  20   0  -8   23.95    1.55
 -20   0   8   25.67    1.66
 -18   0   8   57.43    2.50
  18   0  -8   58.17    2.46
  18   0  -8   55.38    2.40
  16   0  -8  107.51    3.56
 -16   0   8  109.48    3.66
  16   0  -8  107.82    3.46
  14   0  -8    9.62    0.85
  14   0  -8    9.93    0.89
 -14   0   8   10.14    0.94
  12   0  -8  120.54    3.73
 -12   0   8  124.81    3.81
  12   0  -8  118.76    3.49
  12   0  -8  128.35    3.70
 -10   0   8   17.42    1.14
  10   0  -8   19.03    1.06
  10   0  -8   16.85    1.01
  10   0  -8   17.84    1.13
 -10   0   8   18.19    0.59
   8   0  -8  194.36    4.94
  -8   0   8  185.79    4.91
   8   0  -8  187.37    4.49
  -8   0   8  181.90    3.82
   8   0  -8  179.40    4.92
   6   0  -8    6.42    0.53
  -6   0   8    5.74    0.60
  -6   0   8    5.72    0.37
   6   0  -8    6.27    0.53
   6   0  -8    7.71    0.72
   4   0  -8  226.14    5.77
   4   0  -8  228.09    5.62
  -4   0   8  230.26    4.87
   4   0  -8  228.17    5.10
  -4   0   8  238.60    5.63
  -2   0   8    0.12    0.22
  -2   0   8   -0.12    0.17
   2   0  -8    0.38    0.14
   2   0  -8   -0.12    0.23
   2   0  -8    0.05    0.17
   0   0   8  764.78   14.51
   0   0  -8  713.98   15.59
   0   0  -8  759.16   14.56
   0   0   8  764.59   15.62
   0   0  -8  739.08   15.92
  -2   0  -8    7.43    0.59
   2   0   8    6.71    0.61
  -2   0  -8    7.08    0.47
   2   0   8    6.59    0.51
  -2   0  -8    7.10    0.63
   4   0   8  789.91   15.91
   4   0   8  812.85   15.23
  -4   0  -8  760.69   14.98
  -4   0  -8  748.07   16.12
  -4   0  -8  751.06   16.39
  -6   0  -8    0.16    0.24
   6   0   8    0.35    0.28
   6   0   8    0.47    0.13
  -8   0  -8  335.90    7.95
   8   0   8  345.86    7.12
   8   0   8  334.93    7.76
  -8   0  -8  332.77    7.15
   8   0   8  336.54    7.53
  10   0   8    5.79    0.73
  10   0   8    6.04    0.49
  10   0   8    6.51    0.56
 -10   0  -8    5.36    0.67
 -10   0  -8    7.09    0.37
 -12   0  -8  116.06    3.64
  12   0   8  113.80    3.54
  12   0   8  118.50    3.16
  14   0   8   14.38    1.13
 -14   0  -8   14.16    1.15
  14   0   8   14.67    0.92
 -16   0  -8    2.80    0.63
  16   0   8    3.46    0.48
  16   0   8    3.57    0.65
  18   0   8   56.20    2.45
  18   0   8   56.63    2.22
 -18   0  -8   61.44    2.66
  20   0   8   43.41    1.95
 -20   0  -8   41.81    2.26
  20   0   8   45.22    2.15
 -22   0  -8   35.30    2.15
  22   0   8   35.39    1.88
  22   0   8   34.90    1.80
 -24   0  -8   17.09    1.53
  24   0   8   17.29    1.29
  24   0   8   18.08    1.26
 -26   0  -8   20.53    1.71
  26   0   8   21.10    1.39
  26   0   8   20.37    1.42
  28   0   8   74.23    3.10
 -28   0  -8   67.44    3.40
 -31  -1   8    4.80    0.38
  31  -1  -8    4.59    0.81
 -31  -1   8    4.25    0.46
  31   1  -8    4.01    0.77
 -31   1   8    3.77    0.37
 -31   1   8    2.79    0.61
 -29  -1   8   60.01    2.86
  29  -1  -8   55.95    2.98
 -29  -1   8   55.43    2.81
 -29   1   8   61.28    3.18
 -29   1   8   54.84    2.72
  29   1  -8   56.11    3.05
  27  -1  -8   11.83    1.27
 -27  -1   8   11.55    1.08
 -27  -1   8   11.56    1.13
 -27   1   8   10.17    1.25
 -27   1   8   11.78    1.06
  27   1  -8   11.69    1.28
 -25  -1   8   51.36    2.45
  25  -1  -8   47.50    2.52
 -25  -1   8   46.08    2.49
  25   1  -8   48.15    2.61
 -25   1   8   46.19    2.63
 -25   1   8   48.66    2.46
  23  -1  -8    6.68    1.00
  23  -1  -8    5.63    0.91
 -23  -1   8    5.88    0.79
 -23  -1   8    6.40    0.98
 -23   1   8    6.41    0.90
  23   1  -8    4.78    0.86
 -21  -1   8   56.93    2.62
  21  -1  -8   57.34    2.71
  21  -1  -8   55.58    2.55
  21   1  -8   56.52    2.65
 -21   1   8   61.71    2.71
  19  -1  -8   55.88    2.42
  19  -1  -8   53.10    2.52
 -19  -1   8   54.82    2.51
  19   1  -8   55.90    2.50
  19   1  -8   56.28    2.28
 -19   1   8   52.15    2.43
  17  -1  -8   54.01    2.27
 -17  -1   8   51.85    2.35
  17  -1  -8   55.87    2.49
  17   1  -8   51.49    2.33
  17   1  -8   53.01    2.15
 -17   1   8   52.37    2.34
  15  -1  -8  137.93    4.33
  15  -1  -8  136.87    3.96
 -15  -1   8  137.05    4.24
  15   1  -8  136.87    4.10
  15   1  -8  136.17    3.94
 -15   1   8  134.41    4.18
  13  -1  -8  198.91    5.03
 -13  -1   8  204.83    5.47
 -13  -1   8  190.79    4.14
  13  -1  -8  197.48    5.55
  13   1  -8  193.14    5.12
  13   1  -8  203.10    5.56
 -13   1   8  202.19    5.43
  13   1  -8  204.80    5.26
 -11  -1   8  130.71    2.96
  11  -1  -8  131.56    3.55
 -11  -1   8  135.56    3.95
  11  -1  -8  135.23    4.11
  11   1  -8  130.58    4.04
 -11   1   8  135.65    3.96
  11   1  -8  129.92    3.72
  11   1  -8  126.70    3.67
 -11   1   8  133.56    2.66
   9  -1  -8   50.72    2.14
  -9  -1   8   47.85    1.95
   9  -1  -8   46.58    1.67
  -9  -1   8   47.41    1.38
  -9   1   8   49.90    2.00
   9   1  -8   47.14    1.80
   9   1  -8   46.60    2.01
  -9   1   8   50.29    1.27
   9   1  -8   46.21    1.86
   7  -1  -8   42.86    1.92
   7  -1  -8   40.18    1.43
  -7  -1   8   41.86    1.29
  -7  -1   8   41.29    1.72
  -7   1   8   42.92    1.25
   7   1  -8   41.04    1.81
   7   1  -8   40.94    1.64
  -7   1   8   43.75    1.78
   7   1  -8   43.15    1.69
  -5  -1   8  129.19    3.56
   5  -1  -8  122.87    3.03
   5  -1  -8  123.79    3.85
  -5  -1   8  127.11    3.02
  -5   1   8  133.03    3.63
  -5   1   8  137.48    3.06
   5   1  -8  129.47    3.41
   5   1  -8  131.61    3.58
   5   1  -8  120.10    3.62
  -3  -1   8    0.75    0.22
   3  -1  -8    0.44    0.30
   3  -1  -8    1.34    0.13
  -3  -1   8    0.86    0.26
  -3   1   8    1.02    0.25
  -3   1   8    0.99    0.29
   3   1  -8    0.69    0.23
   3   1  -8    0.65    0.25
   3   1  -8    0.81    0.28
  -1  -1   8    0.79    0.23
  -1  -1   8    1.90    0.35
   1  -1  -8    1.38    0.12
   1  -1  -8    0.67    0.30
   1   1  -8    1.13    0.27
   1   1  -8    0.72    0.26
   1   1  -8    1.13    0.27
  -1   1   8    0.78    0.25
  -1   1   8    0.70    0.25
  -1  -1  -8   24.45    1.07
  -1  -1  -8   24.86    0.76
   1  -1   8   24.04    1.00
  -1  -1  -8   23.21    1.22
   1  -1   8   25.35    1.13
  -1  -1  -8   23.64    1.06
  -1   1  -8   23.75    1.03
   1   1   8   23.43    1.09
  -1   1  -8   23.98    1.12
  -1   1  -8   22.23    1.11
   1   1   8   22.68    1.12
  -3  -1  -8   62.69    1.53
   3  -1   8   64.44    2.08
  -3  -1  -8   61.59    2.00
  -3  -1  -8   62.48    2.18
  -3  -1  -8   61.68    1.91
   3  -1   8   63.24    1.77
  -3   1  -8   60.79    2.04
   3   1   8   61.63    2.10
  -3   1  -8   62.42    1.90
  -3   1  -8   60.62    2.03
   3   1   8   62.11    2.05
   5  -1   8   68.51    2.25
  -5  -1  -8   68.17    2.00
   5  -1   8   66.88    1.76
  -5  -1  -8   66.32    2.30
   5   1   8   66.03    2.27
   5   1   8   66.68    1.68
  -5   1  -8   67.06    2.22
   5   1   8   68.50    2.23
   7  -1   8   12.49    0.78
  -7  -1  -8   11.23    0.86
   7  -1   8   11.53    0.88
   7  -1   8   12.78    0.47
  -7  -1  -8   12.93    0.69
   7   1   8   12.34    0.83
   7   1   8   11.62    0.91
  -7   1  -8   12.21    0.86
   7   1   8   12.64    0.58
   9  -1   8   94.04    2.69
  -9  -1  -8   92.44    3.01
  -9  -1  -8   93.55    2.54
   9  -1   8   91.40    2.95
   9   1   8   91.37    2.36
  -9   1  -8   94.25    2.99
   9   1   8   93.32    3.03
   9   1   8   94.34    2.96
 -11  -1  -8   39.61    1.82
 -11  -1  -8   38.70    1.37
  11  -1   8   36.64    1.75
  11  -1   8   39.45    1.61
  11   1   8   38.83    1.72
 -11   1  -8   38.39    1.78
  11   1   8   39.33    1.37
  11   1   8   36.58    1.81
  13  -1   8   93.35    3.14
 -13  -1  -8   95.41    2.63
 -13  -1  -8   92.26    3.21
  13  -1   8   92.56    2.88
  13   1   8   94.65    3.15
  13   1   8   93.58    2.64
 -13   1  -8   95.34    3.23
  13   1   8   95.98    3.25
  15  -1   8   19.16    1.17
  15  -1   8   20.39    1.35
 -15  -1  -8   20.77    1.41
  15   1   8   19.76    1.04
 -15   1  -8   18.20    1.33
  15   1   8   18.51    1.35
  17  -1   8   48.50    2.07
  17  -1   8   47.72    2.17
 -17  -1  -8   49.52    2.34
  17   1   8   49.01    2.30
  17   1   8   48.62    1.89
 -17   1  -8   48.26    2.31
 -19  -1  -8   32.91    1.94
  19  -1   8   33.19    1.74
  19  -1   8   35.01    1.83
  19   1   8   34.57    1.62
 -19   1  -8   36.53    2.04
  19   1   8   33.09    1.87
 -21  -1  -8   65.61    2.97
  21  -1   8   65.59    2.66
  21  -1   8   64.49    2.65
  21   1   8   64.65    2.49
 -21   1  -8   62.40    2.92
  21   1   8   66.30    2.80
  23  -1   8   52.17    2.43
 -23  -1  -8   53.90    2.73
  23  -1   8   50.95    2.33
  23   1   8   52.21    2.26
  23   1   8   52.55    2.50
 -23   1  -8   50.41    2.67
  25  -1   8   62.21    2.78
  25  -1   8   62.39    2.63
 -25  -1  -8   59.55    3.00
 -25   1  -8   55.49    2.96
  25   1   8   60.83    2.59
  25   1   8   61.79    2.76
  27  -1   8   24.29    1.61
 -27  -1  -8   24.22    1.86
  27   1   8   23.76    1.54
  27   1   8   22.99    1.45
 -27   1  -8   24.13    1.89
 -30  -2   8   16.83    1.33
  30  -2  -8   16.16    1.46
 -30   2   8   14.36    1.53
  30   2  -8   16.70    1.62
 -28  -2   8   42.65    2.44
  28  -2  -8   41.94    2.46
 -28   2   8   40.79    2.66
  28   2  -8   42.66    2.66
 -28   2   8   43.47    2.28
  26  -2  -8   24.18    1.75
 -26  -2   8   22.51    1.74
 -26   2   8   23.62    1.59
 -26   2   8   24.12    1.96
  26   2  -8   23.79    1.91
 -24  -2   8   23.51    1.74
 -24  -2   8   24.29    1.44
  24  -2  -8   20.54    1.74
  24  -2  -8   22.20    1.63
 -24   2   8   23.91    1.61
  24   2  -8   22.28    1.77
 -22  -2   8   26.46    1.79
 -22  -2   8   26.02    1.47
  22  -2  -8   27.57    1.76
  22  -2  -8   24.17    1.84
 -22   2   8   26.98    1.73
  22   2  -8   24.54    1.79
 -20  -2   8   39.64    1.78
  20  -2  -8   37.12    2.21
 -20  -2   8   37.16    2.08
  20  -2  -8   38.29    1.99
 -20   2   8   36.50    2.02
  20   2  -8   37.20    2.14
  18  -2  -8   47.42    2.46
 -18  -2   8   49.19    2.35
  18  -2  -8   48.23    2.20
  18   2  -8   51.12    2.43
 -18   2   8   47.82    2.30
 -16  -2   8   41.58    2.08
  16  -2  -8   39.81    2.16
  16  -2  -8   41.49    1.89
 -16   2   8   40.59    2.03
  16   2  -8   39.96    2.04
  16   2  -8   40.46    1.64
  14  -2  -8    5.85    0.87
 -14  -2   8    6.09    0.80
 -14  -2   8    6.93    0.44
  14  -2  -8    5.51    0.63
  14   2  -8    5.80    0.81
 -14   2   8    6.58    0.79
  14   2  -8    6.32    0.52
  14   2  -8    6.18    0.65
 -12  -2   8  113.04    2.94
  12  -2  -8  120.99    3.31
  12  -2  -8  116.65    3.93
 -12  -2   8  115.10    3.66
  12   2  -8  115.90    3.88
  12   2  -8  118.60    3.20
 -12   2   8  113.56    3.66
  12   2  -8  118.37    3.70
  10  -2  -8    7.76    0.88
 -10  -2   8    7.63    0.77
  10  -2  -8    9.02    0.64
 -10  -2   8    8.21    0.55
  10   2  -8    8.47    0.57
 -10   2   8   10.07    0.64
  10   2  -8    7.14    0.77
  10   2  -8    9.21    0.82
 -10   2   8    9.54    0.45
 -10   2   8    7.84    0.79
  -8  -2   8  145.33    4.08
   8  -2  -8  146.70    3.51
   8  -2  -8  143.99    4.44
  -8  -2   8  145.30    3.47
  -8   2   8  156.96    3.96
  -8   2   8  140.88    4.08
  -8   2   8  145.04    3.27
   8   2  -8  141.24    4.31
   8   2  -8  137.56    3.68
   8   2  -8  146.12    4.07
  -6  -2   8    0.05    0.17
  -6  -2   8   -0.08    0.17
   6  -2  -8    0.43    0.08
   6  -2  -8   -0.21    0.19
   6   2  -8    1.95    0.38
  -6   2   8    0.78    0.15
   6   2  -8    0.06    0.23
  -6   2   8    0.12    0.23
  -4  -2   8  258.21    6.03
  -4  -2   8  247.84    5.50
   4  -2  -8  256.24    5.19
   4  -2  -8  241.92    6.60
  -4   2   8  257.86    5.48
   4   2  -8  256.90    5.95
   4   2  -8  243.29    6.24
   4   2  -8  253.30    5.89
  -4   2   8  261.06    6.20
  -2  -2   8    0.35    0.20
   2  -2  -8    0.50    0.33
   2  -2  -8    0.32    0.24
  -2  -2   8    0.22    0.22
  -2   2   8    0.25    0.21
  -2   2   8    0.39    0.21
   2   2  -8    0.19    0.21
   2   2  -8    0.36    0.27
   2   2  -8    0.79    0.20
   0  -2   8  396.33    8.46
   0  -2  -8  395.41    8.76
   0  -2  -8  354.64    9.10
   0  -2   8  401.51    8.18
   0   2  -8  385.74    8.78
   0   2   8  411.83    8.28
   0   2  -8  386.25    8.35
   0   2  -8  394.00    8.61
   0   2   8  390.94    8.57
  -2  -2  -8   10.78    0.87
   2  -2   8   10.28    0.77
   2  -2   8   11.80    0.59
  -2  -2  -8   10.17    0.73
   2   2   8    9.69    0.71
  -2   2  -8   11.16    0.71
  -2   2  -8   10.80    0.77
  -2   2  -8   11.19    0.78
   2   2   8   10.30    0.80
   4  -2   8  355.55    7.46
  -4  -2  -8  330.74    8.28
   4  -2   8  360.24    7.72
  -4  -2  -8  359.42    8.02
  -4  -2  -8  362.79    7.94
  -4   2  -8  362.86    7.75
  -4   2  -8  352.53    8.02
  -4   2  -8  354.49    8.03
   4   2   8  363.16    7.85
   4   2   8  350.46    8.05
   6  -2   8   -0.03    0.19
  -6  -2  -8    0.17    0.25
  -6  -2  -8    0.05    0.19
   6   2   8   -0.06    0.20
  -6   2  -8   -0.02    0.21
   6   2   8    0.23    0.30
   8  -2   8  487.11   10.12
   8  -2   8  482.91   10.10
  -8  -2  -8  474.10   10.39
  -8  -2  -8  445.44   10.75
   8   2   8  466.73    9.30
   8   2   8  487.45   10.32
   8   2   8  461.33   10.61
  -8   2  -8  494.76   10.73
 -10  -2  -8    4.19    0.46
  10  -2   8    4.05    0.63
  10  -2   8    3.20    0.53
 -10  -2  -8    3.33    0.58
  10   2   8    3.91    0.27
  10   2   8    2.66    0.59
 -10   2  -8    3.80    0.62
  10   2   8    4.21    0.55
 -12  -2  -8   43.20    1.70
  12  -2   8   43.91    1.85
  12  -2   8   43.95    1.96
 -12  -2  -8   44.16    2.02
  12   2   8   43.05    1.96
 -12   2  -8   45.83    2.01
  12   2   8   46.34    2.14
  12   2   8   43.89    1.44
  14  -2   8   16.88    1.17
 -14  -2  -8   16.04    1.22
  14  -2   8   17.75    1.24
 -14  -2  -8   18.24    1.01
  14   2   8   20.62    1.45
  14   2   8   17.81    0.87
 -14   2  -8   17.18    1.26
  14   2   8   18.79    1.23
  16  -2   8   23.42    1.46
 -16  -2  -8   27.44    1.26
 -16  -2  -8   25.35    1.60
  16  -2   8   23.36    1.45
 -16   2  -8   23.50    1.55
  16   2   8   25.10    1.14
  16   2   8   25.25    1.65
 -18  -2  -8   26.75    1.73
  18  -2   8   26.61    1.56
  18  -2   8   25.37    1.58
  18   2   8   26.53    1.76
 -18   2  -8   26.68    1.72
  18   2   8   26.42    1.25
  20  -2   8    1.86    0.56
  20  -2   8    2.47    0.48
 -20  -2  -8    1.09    0.51
 -20   2  -8    0.86    0.50
  20   2   8    1.92    0.56
  22  -2   8   29.25    1.80
  22  -2   8   29.86    1.70
 -22  -2  -8   29.32    1.92
  22   2   8   32.06    1.95
 -22   2  -8   27.33    1.92
 -24  -2  -8   59.78    2.94
  24  -2   8   62.80    2.64
  24  -2   8   64.11    2.86
 -24   2  -8   58.41    3.03
  24   2   8   62.11    2.89
  26  -2   8   24.14    1.66
 -26  -2  -8   23.70    1.75
  26   2   8   24.10    1.67
 -26   2  -8   21.12    1.82
 -28  -2  -8   16.91    1.46
  28  -2   8   17.51    1.33
 -28   2  -8   17.23    1.66
  29  -3  -8   19.12    1.58
 -29  -3   8   19.91    1.56
 -29   3   8   19.77    1.86
  29   3  -8   21.75    1.87
  27  -3  -8    1.11    0.31
 -27  -3   8    1.29    0.40
  27   3  -8    0.53    0.41
 -27   3   8   -0.03    0.39
 -25  -3   8   40.25    2.40
  25  -3  -8   38.30    2.20
  25  -3  -8   42.24    2.68
 -25   3   8   38.72    2.16
  25   3  -8   40.95    2.53
  23  -3  -8    8.03    0.87
 -23  -3   8    6.89    1.06
  23  -3  -8    6.79    1.13
 -23   3   8    7.46    0.83
  23   3  -8    4.81    0.93
  21  -3  -8   17.32    1.29
 -21  -3   8   15.75    1.41
  21  -3  -8   14.54    1.47
 -21   3   8   15.93    1.31
  21   3  -8   14.55    1.42
  19  -3  -8   25.01    1.52
  19  -3  -8   25.63    1.86
 -19  -3   8   25.39    1.71
  19   3  -8   22.59    1.70
 -19   3   8   23.50    1.58
  17  -3  -8   73.93    3.27
 -17  -3   8   74.17    3.03
  17  -3  -8   76.42    2.75
  17   3  -8   79.21    3.20
 -17   3   8   71.81    2.95
  15  -3  -8   92.84    2.95
  15  -3  -8   91.67    3.60
 -15  -3   8   88.68    3.29
 -15  -3   8   86.30    2.66
 -15   3   8   86.31    3.23
  15   3  -8   87.45    3.48
  15   3  -8   93.16    3.40
  13  -3  -8   25.71    1.73
  13  -3  -8   28.78    1.36
 -13  -3   8   27.43    1.59
 -13  -3   8   27.23    1.27
 -13   3   8   26.70    1.59
  13   3  -8   28.34    1.72
  13   3  -8   27.58    1.70
 -11  -3   8   54.74    1.96
  11  -3  -8   55.99    2.58
 -11  -3   8   58.16    2.35
  11  -3  -8   55.98    1.92
  11   3  -8   55.41    2.52
 -11   3   8   58.77    2.39
  11   3  -8   58.89    2.49
 -11   3   8   57.60    1.68
  11   3  -8   57.94    1.69
  -9  -3   8  137.53    3.65
   9  -3  -8  134.12    4.51
  -9  -3   8  142.97    4.12
   9  -3  -8  146.63    3.50
   9   3  -8  136.24    3.37
  -9   3   8  152.47    3.83
   9   3  -8  141.08    4.42
  -9   3   8  140.52    3.38
  -9   3   8  145.99    4.25
   9   3  -8  136.74    4.18
  -7  -3   8    5.42    0.64
  -7  -3   8    4.94    0.58
   7  -3  -8    4.39    0.73
   7  -3  -8    5.87    0.39
  -7   3   8    5.65    0.46
   7   3  -8    5.68    0.35
   7   3  -8    6.12    0.78
   7   3  -8    4.88    0.71
  -7   3   8    5.30    0.41
  -7   3   8    4.86    0.67
   5  -3  -8   30.96    0.95
   5  -3  -8   29.78    1.49
  -5  -3   8   30.26    1.41
   5  -3  -8   30.65    1.75
  -5  -3   8   29.99    1.35
   5   3  -8   29.45    1.07
  -5   3   8   30.20    1.28
  -5   3   8   30.94    1.21
  -5   3   8   29.57    1.20
   5   3  -8   30.50    1.54
   5   3  -8   29.76    1.60
   3  -3  -8    0.48    0.34
  -3  -3   8    0.37    0.26
   3  -3  -8    0.42    0.28
  -3  -3   8    1.05    0.29
   3   3  -8    0.28    0.25
  -3   3   8    0.31    0.22
   3   3  -8    0.19    0.28
  -3   3   8    0.51    0.25
  -1  -3   8   30.26    1.26
  -1  -3   8   31.50    1.41
   1  -3  -8   32.75    1.51
   1  -3  -8   30.19    1.69
  -1   3   8   28.94    1.38
   1   3  -8   32.14    1.16
  -1   3   8   30.79    1.29
   1   3  -8   31.60    1.49
   1   3  -8   31.10    1.49
   1  -3   8    3.10    0.31
  -1  -3  -8    2.81    0.49
   1  -3   8    2.49    0.46
  -1  -3  -8    2.43    0.51
  -1   3  -8    2.63    0.47
   1   3   8    3.04    0.45
  -1   3  -8    2.57    0.50
   1   3   8    2.53    0.49
  -1   3  -8    3.47    0.33
   3  -3   8    3.75    0.29
  -3  -3  -8    2.88    0.49
   3  -3   8    3.82    0.56
  -3  -3  -8    2.27    0.49
  -3   3  -8    3.53    0.39
   3   3   8    3.32    0.58
  -3   3  -8    2.77    0.50
   3   3   8    2.61    0.44
  -3   3  -8    3.49    0.51
  -5  -3  -8   60.33    2.36
   5  -3   8   59.35    2.22
  -5  -3  -8   61.42    2.22
   5  -3   8   61.20    1.65
   5   3   8   59.55    2.19
   5   3   8   61.25    2.34
  -5   3  -8   63.23    2.09
  -5   3  -8   65.53    2.29
  -5   3  -8   63.38    2.16
  -7  -3  -8   14.32    1.06
  -7  -3  -8   14.97    1.01
   7  -3   8   16.97    1.12
  -7   3  -8   14.88    1.07
   7   3   8   18.86    1.26
  -7   3  -8   16.64    1.03
   7   3   8   14.92    1.04
  -7   3  -8   15.13    0.96
   9  -3   8   53.55    2.16
  -9  -3  -8   52.31    2.20
   9  -3   8   54.29    2.13
  -9  -3  -8   53.21    2.08
   9   3   8   54.60    2.33
   9   3   8   53.98    2.20
  -9   3  -8   52.63    2.07
 -11  -3  -8    4.97    0.71
 -11  -3  -8    5.10    0.60
  11  -3   8    4.63    0.69
  11  -3   8    4.61    0.68
 -11   3  -8    4.98    0.72
  11   3   8    5.52    0.64
  11   3   8    5.53    0.86
  13  -3   8   68.98    2.64
 -13  -3  -8   69.18    2.72
 -13  -3  -8   69.26    2.51
  13  -3   8   70.65    2.65
  13   3   8   67.43    2.74
  13   3   8   66.73    2.82
 -13   3  -8   68.91    2.67
 -15  -3  -8   18.60    1.15
 -15  -3  -8   17.64    1.34
  15  -3   8   18.44    1.31
  15  -3   8   19.55    1.34
 -15   3  -8   17.79    1.34
  15   3   8   20.65    1.39
  15   3   8   17.04    1.41
  17  -3   8   30.58    1.70
 -17  -3  -8   32.17    1.58
  17  -3   8   30.37    1.78
 -17  -3  -8   28.51    1.76
  17   3   8   28.99    1.89
 -17   3  -8   29.39    1.82
  19  -3   8   15.61    1.18
  19  -3   8   14.60    1.28
 -19  -3  -8   14.71    1.27
 -19   3  -8   13.71    1.29
  19   3   8   15.04    1.40
  21  -3   8   47.98    2.46
  21  -3   8   51.06    2.34
 -21  -3  -8   51.85    2.58
  21   3   8   53.29    2.69
 -21   3  -8   47.33    2.60
  23  -3   8   20.94    1.60
 -23  -3  -8   22.74    1.64
  23  -3   8   21.64    1.43
 -23   3  -8   20.78    1.73
  23   3   8   23.43    1.73
 -25  -3  -8   19.83    1.55
  25  -3   8   16.72    1.46
  25   3   8   18.38    1.51
 -25   3  -8   18.76    1.66
  27  -3   8   13.12    1.24
 -27  -3  -8   14.10    1.25
 -27   3  -8   13.60    1.40
  27   3   8   13.78    1.17
  28  -4  -8   13.50    1.19
 -28  -4   8   12.20    1.23
 -28   4   8   11.01    1.45
  28   4  -8   12.98    1.34
  26  -4  -8    5.90    0.67
 -26  -4   8    4.18    0.83
  26   4  -8    4.07    0.87
 -24  -4   8   13.14    1.41
  24  -4  -8   16.74    1.68
  24  -4  -8   16.38    1.31
 -24   4   8   15.89    1.19
  24   4  -8   13.84    1.49
  22  -4  -8   51.84    2.98
 -22  -4   8   46.89    2.60
  22  -4  -8   55.38    2.51
  22   4  -8   50.79    2.82
 -22   4   8   50.33    2.51
  20  -4  -8   17.36    1.65
 -20  -4   8   16.51    1.45
  20  -4  -8   18.73    1.31
  20   4  -8   17.68    1.58
 -20   4   8   17.60    1.36
 -18  -4   8    1.23    0.53
  18  -4  -8    1.70    0.38
  18  -4  -8    0.96    0.56
  18   4  -8    0.49    0.52
 -18   4   8    1.10    0.45
  16  -4  -8   33.92    1.63
  16  -4  -8   30.13    2.07
 -16  -4   8   31.10    1.88
  16   4  -8   34.44    2.06
 -16   4   8   31.58    1.86
  16   4  -8   33.16    2.04
  14  -4  -8   28.54    1.39
 -14  -4   8   27.23    1.69
 -14  -4   8   28.02    1.46
  14  -4  -8   27.51    1.90
 -14   4   8   28.12    1.70
  14   4  -8   30.97    1.90
  14   4  -8   26.95    1.82
 -12  -4   8   32.48    1.78
  12  -4  -8   32.18    1.39
 -12  -4   8   31.55    1.56
  12  -4  -8   31.06    1.98
  12   4  -8   34.10    1.98
 -12   4   8   30.54    1.77
  12   4  -8   31.41    1.90
 -10  -4   8    0.75    0.30
 -10  -4   8    0.54    0.37
  10  -4  -8    0.95    0.51
  10   4  -8    1.05    0.50
 -10   4   8    0.64    0.40
  10   4  -8    1.10    0.38
   8  -4  -8   51.95    1.60
  -8  -4   8   50.94    2.13
  -8  -4   8   47.65    1.97
   8  -4  -8   49.85    2.47
   8  -4  -8   50.41    2.19
   8   4  -8   48.46    2.25
  -8   4   8   49.69    1.61
  -8   4   8   51.84    1.84
   8   4  -8   46.09    2.29
   6  -4  -8    7.44    0.42
  -6  -4   8    6.24    0.70
   6  -4  -8    7.47    0.92
   6  -4  -8    6.96    0.78
  -6  -4   8    6.53    0.70
   6   4  -8    6.92    0.81
   6   4  -8    7.74    0.86
  -6   4   8    6.92    0.54
  -6   4   8    7.01    0.61
  -4  -4   8   38.37    1.74
  -4  -4   8   40.73    1.71
   4  -4  -8   39.42    1.86
   4  -4  -8   40.63    2.12
   4   4  -8   42.64    1.95
  -4   4   8   41.14    1.72
   4   4  -8   40.78    1.95
  -4   4   8   41.14    1.48
   2  -4  -8   25.72    1.44
  -2  -4   8   27.54    1.42
   2  -4  -8   24.70    1.63
  -2  -4   8   26.25    1.25
   2   4  -8   26.06    1.47
  -2   4   8   25.44    1.39
   2   4  -8   25.21    1.42
  -2   4   8   26.52    1.18
   0  -4   8  142.13    3.67
   0  -4   8  138.32    3.88
   0  -4  -8  136.84    4.44
   0  -4  -8  141.64    4.09
   0   4  -8  131.76    3.94
   0   4  -8  141.56    3.43
   0   4  -8  136.30    4.00
   0   4   8  136.05    3.91
   0   4   8  138.88    3.69
   2  -4   8    5.36    0.44
   2  -4   8    5.16    0.69
  -2  -4  -8    4.74    0.67
  -2  -4  -8    4.93    0.73
   2   4   8    4.57    0.60
  -2   4  -8    4.54    0.70
  -2   4  -8    5.58    0.41
  -2   4  -8    5.23    0.66
   2   4   8    5.89    0.77
  -4  -4  -8  187.70    5.22
  -4  -4  -8  183.96    5.44
   4  -4   8  200.61    5.07
   4  -4   8  196.96    4.59
  -4   4  -8  197.40    4.80
   4   4   8  194.88    5.22
   4   4   8  192.64    5.07
  -4   4  -8  196.32    5.02
  -4   4  -8  200.66    5.21
  -6  -4  -8    9.69    0.90
   6  -4   8    9.69    0.91
  -6  -4  -8    8.07    0.83
  -6   4  -8    9.66    0.71
  -6   4  -8    9.70    0.81
  -6   4  -8    9.84    0.94
   6   4   8   10.73    1.02
   6   4   8    8.71    0.84
  -8  -4  -8   84.32    2.99
  -8  -4  -8   81.72    3.02
   8  -4   8   85.26    2.97
   8   4   8   87.51    3.06
  -8   4  -8   88.31    2.81
  -8   4  -8   88.93    2.82
  -8   4  -8   88.93    3.10
   8   4   8   82.56    3.15
  10  -4   8    3.72    0.68
  10  -4   8    3.11    0.63
 -10  -4  -8    2.89    0.60
 -10  -4  -8    2.43    0.51
  10   4   8    3.17    0.72
 -10   4  -8    3.65    0.54
  10   4   8    3.07    0.60
 -12  -4  -8   25.76    1.52
  12  -4   8   26.28    1.62
 -12  -4  -8   27.42    1.59
  12  -4   8   28.02    1.64
  12   4   8   28.50    1.80
  12   4   8   26.89    1.63
 -12   4  -8   26.37    1.53
  14  -4   8    6.56    0.90
 -14  -4  -8    6.20    0.74
  14  -4   8    7.24    0.92
 -14  -4  -8    6.80    0.77
 -14   4  -8    6.55    0.84
  14   4   8    7.57    1.05
  14   4   8    6.36    0.83
 -16  -4  -8    4.28    0.68
 -16  -4  -8    4.36    0.60
  16  -4   8    4.00    0.67
  16  -4   8    3.20    0.70
  16   4   8    4.89    0.72
 -16   4  -8    3.77    0.70
  16   4   8    5.38    0.94
 -18  -4  -8   17.97    1.38
 -18  -4  -8   19.88    1.31
  18  -4   8   17.73    1.45
  18  -4   8   18.95    1.35
 -18   4  -8   18.78    1.45
  18   4   8   19.66    1.62
 -20  -4  -8   19.02    1.27
  20  -4   8   17.25    1.46
 -20  -4  -8   18.11    1.39
  20  -4   8   18.28    1.34
  20   4   8   20.74    1.68
 -20   4  -8   17.41    1.45
  22  -4   8   15.68    1.41
 -22  -4  -8   17.74    1.40
  22  -4   8   17.29    1.28
  22   4   8   18.70    1.58
 -22   4  -8   16.20    1.46
  24  -4   8    8.23    0.71
  24  -4   8    6.66    0.97
 -24  -4  -8    8.79    0.89
 -24   4  -8    8.23    1.09
  24   4   8    7.79    0.86
 -25  -5   8    4.70    0.87
  25  -5  -8    4.30    0.93
  25  -5  -8    5.93    0.64
  25   5  -8    5.00    0.89
  23  -5  -8    0.72    0.45
 -23  -5   8    0.33    0.38
  23   5  -8    1.29    0.44
  21  -5  -8    6.03    1.09
 -21  -5   8    5.25    0.99
  21  -5  -8    6.92    0.73
  21   5  -8    6.53    1.08
 -21   5   8    7.42    0.74
  19  -5  -8   11.47    0.95
  19  -5  -8    9.59    1.33
 -19  -5   8    9.42    1.13
  19   5  -8    9.67    1.29
 -19   5   8    9.85    0.98
  17  -5  -8    3.56    0.51
 -17  -5   8    2.04    0.64
  17  -5  -8    2.70    0.76
 -17   5   8    2.74    0.58
  17   5  -8    2.87    0.56
  17   5  -8    3.07    0.50
  17   5  -8    2.78    0.79
 -15  -5   8   12.51    1.22
 -15  -5   8   12.42    0.98
  15  -5  -8   12.25    1.36
  15  -5  -8   12.78    0.91
  15   5  -8   11.52    1.28
 -15   5   8   12.73    1.18
  15   5  -8   14.04    1.29
 -13  -5   8   46.64    2.33
  13  -5  -8   50.79    1.90
 -13  -5   8   45.53    2.15
  13  -5  -8   47.42    2.62
  13   5  -8   45.24    2.46
  13   5  -8   47.36    2.53
 -13   5   8   44.52    2.32
 -11  -5   8   10.69    1.04
  11  -5  -8   10.29    1.19
  11  -5  -8   12.19    0.74
 -11  -5   8    9.88    0.92
  11   5  -8   11.08    1.20
  11   5  -8   12.28    1.19
 -11   5   8   10.89    1.10
 -11   5   8   12.72    0.81
   9  -5  -8   37.94    2.22
  -9  -5   8   39.84    1.95
  -9  -5   8   40.03    1.98
   9  -5  -8   40.96    2.06
   9   5  -8   39.08    2.16
  -9   5   8   39.51    1.39
   9   5  -8   37.95    2.10
  -9   5   8   40.06    1.70
   7  -5  -8    0.53    0.43
  -7  -5   8   -0.01    0.27
   7  -5  -8    0.23    0.33
  -7  -5   8    0.28    0.35
  -7   5   8    0.38    0.24
  -7   5   8    0.84    0.22
   7   5  -8    0.02    0.36
   7   5  -8    0.28    0.35
  -5  -5   8   15.11    1.07
   5  -5  -8   13.14    1.13
  -5  -5   8   13.35    1.09
   5  -5  -8   14.31    1.31
  -5   5   8   14.11    0.81
   5   5  -8   12.47    1.14
   5   5  -8   13.67    1.18
  -5   5   8   15.48    1.06
   3  -5  -8    0.90    0.41
  -3  -5   8    0.78    0.30
  -3  -5   8    0.97    0.42
   3  -5  -8    0.57    0.36
  -3   5   8    0.53    0.28
   3   5  -8    0.70    0.46
   3   5  -8    0.32    0.34
  -3   5   8    0.83    0.36
  -1  -5   8    0.46    0.36
  -1  -5   8    0.98    0.27
   1  -5  -8   -0.05    0.26
   1  -5  -8    0.90    0.35
  -1   5   8    0.39    0.38
   1   5  -8    0.73    0.45
   1   5  -8    0.21    0.29
  -1   5   8    0.40    0.29
  -1  -5  -8    0.82    0.28
  -1  -5  -8    0.31    0.33
   1  -5   8    0.65    0.18
   1  -5   8    0.32    0.38
   1   5   8    0.34    0.28
  -1   5  -8    0.32    0.32
  -1   5  -8    0.03    0.36
   1   5   8   -0.04    0.30
   3  -5   8    6.20    0.83
   3  -5   8    7.61    0.55
  -3  -5  -8    6.26    0.74
  -3  -5  -8    6.77    0.80
  -3   5  -8    5.86    0.87
   3   5   8    6.26    0.70
  -3   5  -8    5.95    0.71
   3   5   8    6.54    0.89
  -5  -5  -8   17.44    1.29
  -5  -5  -8   17.84    1.29
   5  -5   8   17.08    1.26
  -5   5  -8   18.78    1.18
   5   5   8   17.92    1.20
   5   5   8   17.88    1.38
  -5   5  -8   18.49    1.36
   7  -5   8    1.00    0.45
  -7  -5  -8    1.11    0.31
  -7  -5  -8    0.59    0.39
   7   5   8    1.13    0.43
  -7   5  -8    1.00    0.50
   7   5   8    0.54    0.44
  -7   5  -8    1.03    0.40
   9  -5   8   33.86    1.85
  -9  -5  -8   32.70    1.79
  -9  -5  -8   33.93    1.87
  -9   5  -8   32.37    1.57
   9   5   8   32.04    1.98
   9   5   8   30.47    1.75
  -9   5  -8   31.87    1.87
  -9   5  -8   34.71    1.59
 -11  -5  -8    0.87    0.24
 -11  -5  -8    0.35    0.36
  11  -5   8    0.31    0.35
  11   5   8    0.82    0.33
  11   5   8    0.47    0.42
 -11   5  -8    1.55    0.31
 -11   5  -8    0.54    0.48
 -11   5  -8    0.18    0.31
 -13  -5  -8   17.71    1.35
  13  -5   8   18.18    1.39
  13  -5   8   16.26    1.38
 -13  -5  -8   19.36    1.32
 -13   5  -8   18.33    1.24
  13   5   8   16.27    1.46
  13   5   8   19.24    1.42
  15  -5   8    1.71    0.50
 -15  -5  -8    0.82    0.25
  15  -5   8    0.34    0.41
 -15  -5  -8    1.09    0.22
 -15   5  -8    0.96    0.21
  15   5   8    0.22    0.33
  15   5   8    1.29    0.30
 -17  -5  -8   21.22    1.45
 -17  -5  -8   20.76    1.44
  17  -5   8   19.84    1.58
  17  -5   8   19.93    1.44
 -17   5  -8   18.33    1.38
  17   5   8   21.32    1.61
  17   5   8   19.96    1.70
  19  -5   8    5.61    0.94
 -19  -5  -8    5.66    0.56
  19  -5   8    5.80    0.75
 -19   5  -8    4.60    0.69
  19   5   8    4.23    0.82
  21  -5   8    7.42    0.79
 -21  -5  -8    8.04    0.70
  21  -5   8    6.13    0.96
  21   5   8    6.21    0.94
 -21   5  -8    7.14    0.79
  23  -5   8    6.48    0.63
  23  -5   8    7.97    1.07
 -23   5  -8    6.37    0.70
  23   5   8    5.76    0.90
  22  -6  -8    1.75    0.53
 -22  -6   8    0.85    0.43
  22   6  -8    1.68    0.44
 -20  -6   8    3.44    0.76
  20  -6  -8    4.58    0.95
  20   6  -8    3.60    0.77
  18  -6  -8   26.46    2.10
 -18  -6   8   26.80    1.95
 -18   6   8   26.07    1.74
  18   6  -8   26.81    1.97
  16  -6  -8    2.95    0.78
 -16  -6   8    1.96    0.67
  16   6  -8    4.72    0.77
  16   6  -8    1.95    0.65
  16   6  -8    3.31    0.57
 -16   6   8    3.21    0.59
 -14  -6   8    6.40    0.97
  14  -6  -8    7.45    1.10
 -14  -6   8    6.80    0.76
 -14   6   8    6.33    0.89
  14   6  -8    7.04    1.06
  14   6  -8    7.57    1.02
 -12  -6   8    8.68    0.91
 -12  -6   8    8.35    1.01
  12  -6  -8    9.53    1.13
 -12   6   8    6.69    1.00
  12   6  -8    8.39    1.16
  12   6  -8    9.20    1.05
 -10  -6   8   12.38    1.18
 -10  -6   8   12.02    1.13
  10  -6  -8   14.35    1.34
  10  -6  -8   11.71    1.16
 -10   6   8   14.66    0.98
  10   6  -8   12.45    1.30
  10   6  -8   12.88    1.28
 -10   6   8   12.90    0.74
  -8  -6   8    1.27    0.53
  -8  -6   8    2.57    0.60
   8  -6  -8    2.51    0.57
   8  -6  -8    1.94    0.59
  -8   6   8    1.79    0.35
   8   6  -8    1.95    0.64
  -8   6   8    2.83    0.45
   8   6  -8    1.79    0.59
   6  -6  -8   23.01    1.67
   6  -6  -8   22.07    1.56
  -6  -6   8   21.00    1.52
  -6  -6   8   21.68    1.42
  -6   6   8   21.69    1.04
   6   6  -8   21.20    1.59
  -6   6   8   21.80    1.37
   6   6  -8   21.61    1.59
  -4  -6   8    4.24    0.79
  -4  -6   8    5.56    0.65
   4  -6  -8    4.45    0.78
   4  -6  -8    4.87    0.76
   4   6  -8    3.97    0.77
  -4   6   8    4.48    0.56
   4   6  -8    3.88    0.81
  -4   6   8    4.79    0.72
   2  -6  -8    3.84    0.67
   2  -6  -8    3.11    0.67
  -2  -6   8    3.41    0.51
  -2  -6   8    3.30    0.72
  -2   6   8    3.07    0.50
   2   6  -8    3.57    0.77
  -2   6   8    3.20    0.64
   2   6  -8    2.94    0.68
   0  -6   8    9.23    0.76
   0  -6  -8   10.03    0.99
   0  -6   8    8.32    1.03
   0  -6  -8    7.40    0.91
   0   6  -8    7.92    0.89
   0   6  -8    8.57    1.07
   0   6   8    7.43    1.00
   0   6   8    7.33    0.73
  -2  -6  -8   10.72    1.09
  -2  -6  -8   13.13    1.15
   2  -6   8   13.01    0.87
   2  -6   8   11.50    1.12
  -2   6  -8   12.28    1.04
  -2   6  -8   12.30    1.18
   2   6   8   12.72    0.99
   2   6   8   11.22    1.14
   4  -6   8   12.82    1.19
  -4  -6  -8   11.66    1.14
  -4  -6  -8   13.80    1.15
  -4   6  -8   13.67    1.29
   4   6   8   12.04    1.22
  -4   6  -8   12.33    1.03
   4   6   8   12.61    1.04
   6  -6   8    5.14    0.84
  -6  -6  -8    5.27    0.87
  -6  -6  -8    6.80    0.68
  -6   6  -8    4.58    0.84
  -6   6  -8    6.48    0.80
   6   6   8    4.12    0.86
   6   6   8    4.89    0.77
   8  -6   8   19.86    1.51
  -8  -6  -8   22.37    1.46
  -8  -6  -8   19.17    1.49
  -8   6  -8   18.53    1.51
   8   6   8   18.58    1.40
   8   6   8   18.76    1.58
  -8   6  -8   20.26    1.27
  10  -6   8    0.40    0.35
 -10  -6  -8    0.08    0.35
  10   6   8    0.47    0.40
 -10   6  -8   -0.13    0.38
  10   6   8    0.92    0.46
 -10   6  -8    0.07    0.29
 -12  -6  -8    1.07    0.51
  12  -6   8    1.19    0.43
  12   6   8    0.86    0.47
  12   6   8    1.30    0.39
 -12   6  -8    1.09    0.59
 -12   6  -8    0.87    0.41
 -14  -6  -8    2.15    0.50
  14  -6   8    2.98    0.61
  14   6   8    1.85    0.47
 -14   6  -8    1.14    0.44
  14   6   8    1.53    0.61
 -14   6  -8    1.29    0.66
 -16  -6  -8    1.60    0.39
  16  -6   8    2.72    0.52
 -16   6  -8    3.33    0.26
  16   6   8    2.69    0.52
  16   6   8    1.71    0.58
 -18  -6  -8    3.43    0.40
  18  -6   8    4.35    0.48
  18  -6   8    3.39    0.74
  18   6   8    3.43    0.40
 -18   6  -8    3.69    0.35
  18   6   8    3.25    0.75
  20  -6   8    1.12    0.41
  20   6   8    1.43    0.24
  19  -7  -8    0.89    0.27
 -19  -7   8    0.37    0.21
  17  -7  -8    1.66    0.43
 -17  -7   8    1.05    0.45
  17   7  -8    1.87    0.19
 -15  -7   8    1.65    0.55
  15  -7  -8    1.88    0.49
  15   7  -8    2.06    0.49
  15   7  -8    1.72    0.49
  15   7  -8    1.54    0.37
 -15   7   8    3.09    0.33
 -13  -7   8    1.93    0.41
 -13  -7   8    1.67    0.57
  13  -7  -8    2.87    0.59
  13   7  -8    2.65    0.59
 -13   7   8    2.29    0.55
  13   7  -8    3.31    0.70
  11  -7  -8    2.02    0.51
 -11  -7   8    0.24    0.25
  11  -7  -8    0.60    0.29
  11   7  -8    1.38    0.44
  11   7  -8    0.44    0.41
   9  -7  -8    5.22    0.80
   9  -7  -8    3.60    0.76
  -9  -7   8    2.57    0.65
  -9  -7   8    3.59    0.65
   9   7  -8    3.95    0.81
  -9   7   8    4.73    0.46
  -9   7   8    3.39    0.39
   9   7  -8    3.71    0.80
   7  -7  -8    0.99    0.49
  -7  -7   8    1.05    0.51
  -7  -7   8    1.33    0.40
   7  -7  -8    1.69    0.41
   7   7  -8    0.77    0.50
   7   7  -8    1.44    0.51
  -7   7   8    1.10    0.30
  -5  -7   8   13.15    1.29
   5  -7  -8   15.92    1.32
   5  -7  -8   13.61    1.30
  -5  -7   8   15.77    1.22
   5   7  -8   13.79    1.30
  -5   7   8   14.28    1.18
   5   7  -8   13.10    1.32
  -5   7   8   12.67    0.86
   3  -7  -8    3.86    0.77
   3  -7  -8    6.07    0.72
  -3  -7   8    5.58    0.64
  -3  -7   8    5.88    0.94
  -3   7   8    5.25    0.59
   3   7  -8    5.13    0.88
  -3   7   8    4.99    0.75
   3   7  -8    4.27    0.84
  -1  -7   8    1.11    0.58
   1  -7  -8    0.52    0.43
   1   7  -8    0.93    0.49
   1   7  -8    0.72    0.47
  -1   7   8    0.79    0.46
  -1   7   8    0.30    0.33
   1  -7   8    0.53    0.41
  -1  -7  -8    0.17    0.36
  -1   7  -8   -0.02    0.42
  -1   7  -8    0.47    0.38
   1   7   8    0.21    0.32
   1   7   8    0.82    0.51
  -3  -7  -8    2.77    0.70
   3  -7   8    4.22    0.80
   3   7   8    3.90    0.85
  -3   7  -8    3.21    0.76
   3   7   8    3.43    0.61
  -3   7  -8    3.29    0.67
   5  -7   8    1.90    0.60
  -5  -7  -8    1.02    0.54
  -5   7  -8    1.16    0.45
   5   7   8    1.65    0.64
   5   7   8    1.02    0.44
  -5   7  -8    0.92    0.55
  -7  -7  -8    1.20    0.55
   7  -7   8    2.65    0.66
  -7   7  -8    1.76    0.51
  -7   7  -8    1.27    0.58
   7   7   8    2.37    0.73
   7   7   8    3.23    0.64
   9  -7   8    8.19    1.06
  -9  -7  -8    7.69    1.09
  -9   7  -8    7.45    0.85
  -9   7  -8    8.49    1.20
   9   7   8    7.71    0.91
   9   7   8    8.20    1.25
  11  -7   8    1.51    0.45
 -11  -7  -8    0.83    0.49
 -11   7  -8    1.27    0.60
 -11   7  -8    0.60    0.38
  11   7   8    1.32    0.45
  11   7   8    0.79    0.40
  13  -7   8    3.57    0.68
 -13  -7  -8    2.03    0.57
 -13   7  -8    0.98    0.62
  13   7   8    1.76    0.58
 -13   7  -8    2.18    0.54
  13   7   8    3.17    0.58
 -15   7  -8   -0.02    0.48
  15   7   8    1.51    0.42
 -15   7  -8    0.36    0.28
 -17  -7  -8    3.57    0.34
  17  -7   8    3.89    0.43
 -17   7  -8    2.84    0.88
  17   7   8    4.20    0.49
  17   7   8    2.66    0.65
 -17   7  -8    2.92    0.53
 -14  -8   8    6.22    0.94
  14  -8  -8    5.85    0.72
 -14   8   8    7.03    0.63
  14   8  -8    7.48    0.83
  14   8  -8    5.11    0.81
  14   8  -8    7.02    0.61
 -12  -8   8    4.56    0.49
 -12  -8   8    4.19    0.73
  12  -8  -8    4.22    0.70
  12   8  -8    3.74    0.70
 -12   8   8    4.56    0.50
  12   8  -8    3.68    0.40
 -10  -8   8   12.26    1.18
 -10  -8   8   12.71    1.21
  10  -8  -8   14.80    1.33
  10   8  -8   13.40    1.30
  10   8  -8   14.09    1.25
 -10   8   8   13.11    0.69
   8  -8  -8    4.42    0.76
  -8  -8   8    4.96    0.71
  -8  -8   8    3.61    0.71
  -8   8   8    3.37    0.32
   8   8  -8    3.84    0.74
  -8   8   8    3.35    0.33
   8   8  -8    4.28    0.68
   6  -8  -8    1.71    0.51
  -6  -8   8    2.04    0.41
  -6  -8   8    2.27    0.58
   6   8  -8    2.02    0.55
  -6   8   8    1.72    0.12
   6   8  -8    1.62    0.38
  -6   8   8    2.03    0.33
  -4  -8   8    2.08    0.42
  -4  -8   8    1.17    0.45
   4  -8  -8    1.66    0.50
   4   8  -8    1.84    0.54
  -4   8   8    1.46    0.33
   4   8  -8    1.50    0.50
  -4   8   8    1.96    0.22
  -2  -8   8   14.69    1.43
   2  -8  -8   15.61    1.42
  -2  -8   8   16.87    1.22
  -2   8   8   14.14    1.02
  -2   8   8   15.57    1.30
   2   8  -8   15.56    1.39
   2   8  -8   14.44    1.38
   0  -8  -8    4.06    0.83
   0  -8   8    3.92    0.82
   0   8  -8    5.68    0.84
   0   8   8    4.56    0.81
   0   8  -8    4.32    0.87
   0   8   8    4.29    0.66
   2  -8   8    0.60    0.29
  -2  -8  -8    0.89    0.39
  -2   8  -8    1.19    0.40
  -2   8  -8    0.54    0.39
   2   8   8    1.03    0.35
   2   8   8    1.08    0.41
   4  -8   8    1.35    0.43
  -4  -8  -8    0.68    0.27
  -4   8  -8    0.75    0.35
   4   8   8    0.87    0.30
  -4   8  -8    0.53    0.32
   4   8   8    0.89    0.39
   6  -8   8    0.92    0.38
  -6  -8  -8   -0.10    0.33
   6   8   8    1.08    0.43
  -6   8  -8    0.15    0.29
   6   8   8    0.65    0.34
  -6   8  -8   -0.17    0.24
  -8  -8  -8    9.67    1.17
   8  -8   8    9.62    1.16
   8   8   8    7.95    0.90
  -8   8  -8    8.32    0.88
   8   8   8    6.31    1.07
  -8   8  -8    8.91    1.22
  10  -8   8   12.46    1.23
 -10  -8  -8   10.69    1.22
  10   8   8   10.83    1.40
  10   8   8   11.74    1.14
 -10   8  -8   11.80    1.02
 -10   8  -8   11.61    1.31
 -12  -8  -8    1.16    0.29
  12   8   8    1.54    0.28
  12   8   8    1.03    0.27
 -12   8  -8    1.15    0.40
 -12   8  -8    1.74    0.38
  30   0  -9    1.06    0.39
 -28   0   9    0.97    0.24
  28   0  -9    0.66    0.35
  26   0  -9    0.64    0.34
 -26   0   9    0.34    0.21
 -26   0   9    0.59    0.24
 -24   0   9    0.15    0.34
  24   0  -9   -0.19    0.25
  24   0  -9    0.79    0.31
  22   0  -9    0.74    0.40
 -22   0   9   -0.11    0.36
  22   0  -9   -0.25    0.26
 -20   0   9    0.06    0.36
  20   0  -9    0.07    0.28
  20   0  -9   -0.57    0.24
 -18   0   9    0.20    0.37
  18   0  -9   -0.05    0.25
  18   0  -9   -0.03    0.28
  16   0  -9    0.01    0.30
  16   0  -9    0.18    0.32
 -16   0   9    0.13    0.35
  14   0  -9    0.08    0.24
  14   0  -9    0.00    0.24
 -14   0   9    0.16    0.33
  12   0  -9   -0.02    0.28
  12   0  -9    0.03    0.23
 -12   0   9    0.13    0.30
  10   0  -9    0.10    0.27
 -10   0   9   -0.02    0.23
  10   0  -9    0.18    0.21
   8   0  -9    0.27    0.19
   8   0  -9    0.15    0.26
  -8   0   9    0.14    0.26
   6   0  -9   -0.07    0.20
  -6   0   9    0.53    0.11
  -6   0   9    0.26    0.25
   6   0  -9    0.17    0.16
  -4   0   9    0.24    0.14
   4   0  -9   -0.01    0.22
   4   0  -9    0.21    0.14
  -4   0   9    0.04    0.20
   2   0  -9    0.45    0.27
  -2   0   9    0.13    0.19
   2   0  -9    0.09    0.11
  -2   0   9   -0.06    0.14
   0   0   9    0.06    0.15
   0   0   9    0.03    0.17
   0   0  -9    0.61    0.15
   0   0  -9    0.18    0.11
   0   0  -9    0.00    0.20
  -2   0  -9    0.30    0.11
  -2   0  -9    0.26    0.09
   2   0   9    0.06    0.21
  -2   0  -9    0.40    0.25
   2   0   9    0.57    0.17
  -4   0  -9    0.23    0.17
   4   0   9    0.32    0.10
  -4   0  -9    0.31    0.11
  -4   0  -9    0.00    0.23
   4   0   9    0.19    0.23
   6   0   9   -0.06    0.20
   6   0   9    0.59    0.12
   6   0   9    0.63    0.13
  -6   0  -9    0.39    0.28
   8   0   9    0.06    0.28
  -8   0  -9   -0.06    0.21
   8   0   9    0.46    0.13
 -10   0  -9    0.18    0.32
  10   0   9   -0.12    0.24
  10   0   9    0.33    0.12
  12   0   9    0.49    0.14
 -12   0  -9    0.03    0.30
  12   0   9    0.01    0.28
  14   0   9   -0.16    0.25
 -14   0  -9   -0.10    0.30
  14   0   9    0.45    0.15
  16   0   9    0.78    0.18
 -16   0  -9    0.14    0.34
  16   0   9    0.12    0.29
 -18   0  -9    0.23    0.40
  18   0   9    0.59    0.33
  18   0   9    0.51    0.16
  20   0   9    0.85    0.26
 -20   0  -9   -0.03    0.37
  20   0   9    0.75    0.19
 -22   0  -9    0.01    0.40
  22   0   9    1.08    0.26
  24   0   9    1.24    0.19
 -24   0  -9    0.08    0.38
 -26   0  -9    0.60    0.43
 -28   0  -9    1.29    0.33
  31  -1  -9    9.06    1.14
 -31  -1   9    8.15    0.78
  31   1  -9    6.91    1.00
 -31   1   9    8.42    0.69
 -31   1   9    6.56    0.97
 -29  -1   9    2.14    0.22
 -29  -1   9    1.52    0.34
  29  -1  -9    1.88    0.50
 -29   1   9    1.79    0.32
  27  -1  -9   21.02    1.69
 -27  -1   9   20.77    1.60
 -27  -1   9   21.56    1.54
 -27   1   9   21.64    1.80
 -27   1   9   20.71    1.56
  27   1  -9   20.11    1.70
  25  -1  -9    2.26    0.60
 -25  -1   9    2.12    0.67
  25  -1  -9    2.78    0.70
 -25  -1   9    3.99    0.63
  25   1  -9    2.95    0.74
 -25   1   9    2.94    0.61
  23  -1  -9    4.60    0.81
 -23  -1   9    6.39    0.76
 -23  -1   9    5.58    0.95
  23  -1  -9    5.27    0.92
 -23   1   9    5.14    0.84
  23   1  -9    4.84    0.86
 -21  -1   9    4.70    0.86
  21  -1  -9    5.75    0.93
  21  -1  -9    5.26    0.82
  21   1  -9    6.35    0.69
 -21   1   9    5.65    0.90
  21   1  -9    4.34    0.80
 -19  -1   9   18.06    1.43
  19  -1  -9   19.27    1.48
  19  -1  -9   19.13    1.37
  19   1  -9   21.58    1.32
  19   1  -9   20.17    1.46
 -19   1   9   18.81    1.44
  17  -1  -9    2.71    0.65
 -17  -1   9    3.76    0.72
  17  -1  -9    2.61    0.57
  17   1  -9    3.68    0.53
  17   1  -9    3.62    0.67
 -17   1   9    2.49    0.61
 -15  -1   9   37.60    1.95
  15  -1  -9   34.47    1.70
  15  -1  -9   38.78    2.03
 -15   1   9   37.42    1.93
  15   1  -9   36.01    1.68
  15   1  -9   36.35    1.85
 -13  -1   9    5.72    0.32
 -13  -1   9    5.34    0.76
  13  -1  -9    5.38    0.61
  13  -1  -9    4.58    0.73
 -13   1   9    5.08    0.77
  13   1  -9    5.02    0.57
  13   1  -9    4.63    0.67
  11  -1  -9    7.91    0.67
  11  -1  -9    8.14    0.88
 -11  -1   9    9.57    0.48
 -11  -1   9    8.48    0.86
  11   1  -9    8.16    0.72
 -11   1   9    8.68    0.34
  11   1  -9    9.16    0.79
 -11   1   9    8.12    0.83
  11   1  -9    7.77    0.77
   9  -1  -9    1.07    0.25
   9  -1  -9    0.81    0.40
  -9  -1   9    1.86    0.18
  -9  -1   9    1.22    0.41
   9   1  -9    1.59    0.33
  -9   1   9    0.64    0.34
   9   1  -9    1.14    0.30
   9   1  -9    1.60    0.40
  -7  -1   9   18.80    0.83
  -7  -1   9   19.47    1.17
   7  -1  -9   18.48    1.28
   7  -1  -9   18.35    0.91
   7   1  -9   17.84    1.09
   7   1  -9   21.14    1.23
   7   1  -9   20.34    1.13
  -7   1   9   19.21    1.18
  -7   1   9   20.56    0.82
  -5  -1   9   -0.10    0.21
   5  -1  -9    0.41    0.10
  -5  -1   9    0.11    0.16
   5  -1  -9    0.38    0.34
   5   1  -9    0.59    0.15
   5   1  -9    0.26    0.24
  -5   1   9   -0.15    0.19
  -5   1   9    0.63    0.15
   5   1  -9    0.31    0.25
   3  -1  -9   63.00    2.10
  -3  -1   9   63.07    1.91
  -3  -1   9   60.94    2.12
   3  -1  -9   58.42    1.66
   3  -1  -9   63.19    2.42
  -3   1   9   61.65    2.16
   3   1  -9   61.70    2.03
  -3   1   9   61.85    1.92
   3   1  -9   60.34    2.19
   3   1  -9   61.48    2.16
   1  -1  -9    9.54    0.65
  -1  -1   9    9.58    0.68
   1  -1  -9    8.85    0.81
   1  -1  -9    9.09    0.46
  -1  -1   9    8.64    0.66
  -1   1   9    9.13    0.72
   1   1  -9    9.31    0.67
   1   1  -9    9.39    0.73
  -1   1   9    9.18    0.71
   1   1  -9    9.10    0.71
  -1  -1  -9   11.44    0.73
   1  -1   9   11.68    0.71
   1  -1   9   12.38    0.83
  -1  -1  -9   12.20    0.52
  -1  -1  -9   12.46    0.94
  -1   1  -9   11.97    0.74
   1   1   9   12.05    0.79
  -1   1  -9   12.27    0.83
  -1   1  -9   10.72    0.79
   1   1   9   11.29    0.82
   3  -1   9    2.43    0.45
   3  -1   9    3.14    0.30
  -3  -1  -9    3.12    0.22
  -3  -1  -9    3.41    0.36
  -3  -1  -9    2.53    0.38
  -3  -1  -9    2.45    0.47
  -3   1  -9    2.66    0.39
   3   1   9    2.96    0.43
   3   1   9    2.31    0.47
  -3   1  -9    2.50    0.46
  -3   1  -9    2.36    0.42
  -5  -1  -9    4.54    0.46
  -5  -1  -9    3.79    0.57
  -5  -1  -9    5.26    0.44
  -5  -1  -9    5.22    0.34
   5  -1   9    4.66    0.33
   5  -1   9    5.32    0.65
  -5   1  -9    4.06    0.55
  -5   1  -9    4.68    0.56
   5   1   9    4.89    0.66
  -5   1  -9    4.68    0.52
   5   1   9    5.12    0.51
   7  -1   9    7.01    0.35
   7  -1   9    7.27    0.61
  -7  -1  -9    6.93    0.50
   7  -1   9    6.08    0.69
  -7  -1  -9    6.30    0.69
   7   1   9    6.19    0.76
  -7   1  -9    5.85    0.65
   7   1   9    7.37    0.64
   7   1   9    6.97    0.40
   9  -1   9    2.96    0.45
  -9  -1  -9    4.07    0.34
  -9  -1  -9    3.22    0.56
   9  -1   9    2.78    0.56
  -9   1  -9    3.19    0.56
   9   1   9    4.34    0.48
   9   1   9    3.37    0.63
   9   1   9    4.02    0.31
  11  -1   9    6.34    0.62
  11  -1   9    5.63    0.78
 -11  -1  -9    6.61    0.46
 -11  -1  -9    5.43    0.75
  11   1   9    6.45    0.63
 -11   1  -9    5.29    0.73
  11   1   9    6.80    0.46
  11   1   9    5.69    0.80
 -13  -1  -9    1.23    0.46
  13  -1   9    0.95    0.42
  13  -1   9    1.46    0.34
 -13   1  -9    0.76    0.42
  13   1   9    0.80    0.41
  15  -1   9   13.44    1.15
 -15  -1  -9   12.75    1.14
  15  -1   9   12.85    0.96
  15   1   9   13.62    0.82
 -15   1  -9   12.05    1.12
  15   1   9   11.85    1.12
  17  -1   9    1.57    0.39
 -17  -1  -9    1.43    0.55
  17  -1   9    1.15    0.45
  17   1   9    1.24    0.53
 -17   1  -9    0.90    0.48
 -19  -1  -9    6.71    0.98
  19  -1   9    7.91    0.79
  19  -1   9    7.53    0.90
  19   1   9    7.77    0.63
  19   1   9    7.39    0.98
 -19   1  -9    6.33    0.96
 -21  -1  -9    1.79    0.63
  21  -1   9    2.98    0.50
  21  -1   9    3.03    0.56
  21   1   9    3.08    0.25
 -21   1  -9    1.60    0.63
  21   1   9    1.85    0.48
  23  -1   9    5.29    0.60
  23  -1   9    6.50    0.71
 -23  -1  -9    5.68    0.96
 -23   1  -9    4.05    0.91
  23   1   9    4.97    0.46
  23   1   9    5.11    0.76
 -25  -1  -9    0.70    0.41
  25   1   9    0.60    0.16
 -25   1  -9    0.72    0.38
  27  -1   9    5.28    0.51
 -27  -1  -9    4.09    0.78
  27   1   9    5.34    0.52
 -27   1  -9    4.75    0.83
  30  -2  -9    8.59    1.11
 -30  -2   9    8.10    0.85
 -30   2   9   10.21    0.85
 -30   2   9    7.25    1.11
  30   2  -9    9.38    1.27
 -28  -2   9    1.19    0.32
  28  -2  -9    1.02    0.34
 -28   2   9    0.75    0.35
  28   2  -9    0.55    0.39
  26  -2  -9    8.63    1.25
  26  -2  -9    9.87    1.09
 -26  -2   9    8.99    1.18
 -26   2   9    9.32    0.96
  26   2  -9    9.77    1.25
  24  -2  -9    3.14    0.83
 -24  -2   9    3.55    0.84
  24  -2  -9    4.22    0.76
  24   2  -9    3.20    0.76
 -24   2   9    3.69    0.66
  22  -2  -9   12.53    1.16
  22  -2  -9   12.59    1.34
 -22  -2   9   13.60    1.33
 -22  -2   9   12.17    0.94
 -22   2   9   13.62    1.24
  22   2  -9   12.10    1.23
  20  -2  -9    5.03    0.93
  20  -2  -9    5.64    0.80
 -20  -2   9    5.31    0.91
  20   2  -9    5.62    0.92
 -20   2   9    5.16    0.86
 -18  -2   9    9.21    1.05
  18  -2  -9    8.64    1.06
  18  -2  -9    9.50    0.91
  18   2  -9   10.75    1.12
  18   2  -9   11.60    0.80
 -18   2   9    9.15    1.02
  16  -2  -9    0.34    0.41
  16  -2  -9    0.50    0.28
 -16  -2   9   -0.11    0.31
 -16   2   9    0.13    0.34
  16   2  -9    0.19    0.37
 -14  -2   9   10.11    0.56
 -14  -2   9    8.99    0.94
  14  -2  -9    9.07    0.79
  14  -2  -9   10.08    1.06
  14   2  -9    8.44    0.91
  14   2  -9   11.24    0.94
 -14   2   9    8.95    0.97
  14   2  -9    9.89    0.70
  12  -2  -9   28.48    1.33
 -12  -2   9   27.17    1.11
  12  -2  -9   27.84    1.74
 -12  -2   9   28.66    1.63
 -12   2   9   29.96    1.66
  12   2  -9   31.37    1.75
  12   2  -9   28.40    1.28
  12   2  -9   28.80    1.62
  10  -2  -9   26.33    1.18
  10  -2  -9   24.84    1.59
 -10  -2   9   25.18    1.07
 -10  -2   9   24.68    1.44
  10   2  -9   26.50    1.18
 -10   2   9   24.32    1.44
  10   2  -9   27.47    1.53
  10   2  -9   24.80    1.50
 -10   2   9   26.18    0.92
   8  -2  -9    9.13    0.99
   8  -2  -9   10.92    0.65
  -8  -2   9   10.48    0.88
  -8  -2   9   10.29    0.65
   8   2  -9   11.31    0.93
   8   2  -9   10.74    0.69
   8   2  -9   10.28    0.90
  -8   2   9   10.90    0.58
  -8   2   9    9.47    0.86
   6  -2  -9    7.48    0.88
  -6  -2   9   10.18    0.66
   6  -2  -9    9.31    0.51
  -6  -2   9    8.40    0.75
   6   2  -9    8.51    0.78
  -6   2   9    8.88    0.57
   6   2  -9    8.78    0.79
   6   2  -9    8.80    0.62
  -6   2   9    7.85    0.77
   4  -2  -9   47.27    2.22
  -4  -2   9   49.89    1.88
  -4  -2   9   49.55    1.72
   4  -2  -9   50.53    1.38
   4   2  -9   50.73    2.06
   4   2  -9   50.98    1.95
   4   2  -9   51.54    1.80
  -4   2   9   49.42    1.69
  -4   2   9   50.00    1.99
   2  -2  -9   84.86    2.72
   2  -2  -9   86.12    1.92
  -2  -2   9   85.43    2.52
   2  -2  -9   86.25    3.09
  -2  -2   9   87.46    2.60
   2   2  -9   84.70    2.82
  -2   2   9   88.51    2.57
   2   2  -9   86.07    2.67
   2   2  -9   88.96    2.60
  -2   2   9   86.08    2.54
   0  -2   9   33.97    1.30
   0  -2   9   33.91    1.45
   0  -2  -9   32.64    1.46
   0  -2  -9   33.65    1.70
   0   2   9   32.17    1.38
   0   2   9   35.71    1.50
   0   2  -9   34.68    1.47
   0   2  -9   30.48    1.48
   0   2  -9   34.35    1.38
  -2  -2  -9    6.54    0.46
   2  -2   9    6.11    0.42
   2  -2   9    5.92    0.62
  -2  -2  -9    5.32    0.69
  -2  -2  -9    5.93    0.61
  -2   2  -9    5.97    0.61
  -2   2  -9    5.77    0.60
  -2   2  -9    5.68    0.54
   2   2   9    5.86    0.64
   2   2   9    5.57    0.58
  -4  -2  -9   66.60    2.47
   4  -2   9   68.12    2.31
   4  -2   9   65.40    1.77
  -4  -2  -9   65.59    2.15
  -4  -2  -9   66.20    2.21
   4   2   9   64.23    2.35
  -4   2  -9   64.37    2.20
   4   2   9   66.89    2.30
  -4   2  -9   65.38    2.29
  -4   2  -9   67.15    2.23
  -6  -2  -9   15.94    1.10
   6  -2   9   16.82    0.56
  -6  -2  -9   17.24    0.97
  -6  -2  -9   16.53    0.96
   6  -2   9   15.81    1.07
   6   2   9   16.50    1.16
   6   2   9   15.98    1.04
  -6   2  -9   15.69    1.02
  -6   2  -9   15.52    1.02
  -6   2  -9   16.25    1.02
  -8  -2  -9   16.79    1.16
  -8  -2  -9   16.88    0.97
   8  -2   9   17.58    1.07
   8  -2   9   16.88    1.15
   8   2   9   17.29    0.64
   8   2   9   17.30    1.23
   8   2   9   18.07    1.13
  -8   2  -9   16.82    1.10
 -10  -2  -9    0.24    0.32
  10  -2   9    0.37    0.33
 -10  -2  -9    1.10    0.24
  10  -2   9    1.04    0.39
  10   2   9    0.62    0.40
 -10   2  -9    0.77    0.38
  10   2   9    1.35    0.31
  12  -2   9    4.56    0.65
 -12  -2  -9    5.31    0.49
 -12  -2  -9    5.09    0.75
  12  -2   9    3.48    0.64
  12   2   9    3.99    0.73
  12   2   9    4.35    0.52
 -12   2  -9    5.15    0.75
  14  -2   9    0.03    0.27
  14  -2   9   -0.17    0.22
 -14  -2  -9    0.07    0.32
  14   2   9    0.00    0.30
 -14   2  -9   -0.14    0.29
 -16  -2  -9   21.61    1.52
  16  -2   9   20.94    1.42
  16  -2   9   22.65    1.43
  16   2   9   18.58    1.47
 -16   2  -9   20.21    1.48
 -18  -2  -9    3.99    0.80
  18  -2   9    5.10    0.75
  18  -2   9    3.85    0.70
  18   2   9    4.62    0.84
 -18   2  -9    4.32    0.82
 -20  -2  -9    2.63    0.69
  20  -2   9    4.38    0.69
  20  -2   9    3.51    0.61
 -20   2  -9    2.69    0.74
  20   2   9    1.95    0.54
  22  -2   9    2.99    0.51
 -22  -2  -9    2.28    0.68
  22  -2   9    3.21    0.56
 -22   2  -9    2.34    0.72
  22   2   9    4.22    0.70
  24  -2   9   17.76    1.38
  24  -2   9   16.68    1.24
 -24  -2  -9   17.42    1.53
  24   2   9   17.09    1.38
 -24   2  -9   14.30    1.47
  26  -2   9    1.70    0.13
 -26  -2  -9    1.52    0.30
  26   2   9    2.63    0.25
 -26   2  -9    1.19    0.50
 -29  -3   9   11.23    1.11
  29  -3  -9   10.49    1.02
 -29   3   9    9.64    1.34
  29   3  -9   11.95    1.34
 -27  -3   9    1.30    0.44
  27  -3  -9    1.85    0.35
  27   3  -9    0.50    0.30
  25  -3  -9   14.34    1.58
  25  -3  -9   15.09    1.29
 -25  -3   9   15.73    1.52
  25   3  -9   12.92    1.43
 -25   3   9   15.26    1.24
 -23  -3   9    7.73    1.11
  23  -3  -9    8.17    1.22
  23  -3  -9    8.02    0.89
 -23   3   9    9.01    0.94
  23   3  -9    6.50    1.07
  21  -3  -9   38.48    2.42
  21  -3  -9   38.80    2.02
 -21  -3   9   35.63    2.18
  21   3  -9   37.69    2.31
 -21   3   9   38.63    2.16
  19  -3  -9    3.76    0.58
 -19  -3   9    2.87    0.71
  19  -3  -9    4.18    0.89
  19   3  -9    3.30    0.77
 -19   3   9    3.88    0.79
  17  -3  -9   35.92    2.23
  17  -3  -9   41.11    1.88
 -17  -3   9   37.97    2.09
 -17   3   9   36.71    2.06
  17   3  -9   36.75    2.14
 -15  -3   9    5.38    0.83
  15  -3  -9    5.79    0.95
 -15  -3   9    6.74    0.51
  15  -3  -9    6.47    0.64
  15   3  -9    6.42    0.92
 -15   3   9    6.25    0.90
  15   3  -9    6.82    0.73
  13  -3  -9   36.78    1.57
 -13  -3   9   35.39    1.89
 -13  -3   9   35.42    1.48
  13  -3  -9   33.48    2.06
 -13   3   9   35.68    1.90
  13   3  -9   35.96    1.98
  13   3  -9   37.01    2.04
  11  -3  -9    4.13    0.81
  11  -3  -9    4.41    0.43
 -11  -3   9    4.21    0.70
 -11  -3   9    4.54    0.45
  11   3  -9    4.57    0.78
  11   3  -9    4.06    0.63
 -11   3   9    5.06    0.33
 -11   3   9    3.39    0.64
  -9  -3   9    0.58    0.34
  -9  -3   9    1.12    0.28
   9  -3  -9    1.00    0.47
  -9   3   9    0.47    0.36
   9   3  -9    0.68    0.29
   9   3  -9    0.92    0.41
  -7  -3   9    2.22    0.39
   7  -3  -9    2.42    0.60
   7  -3  -9    3.07    0.25
  -7  -3   9    2.46    0.50
  -7   3   9    3.82    0.37
   7   3  -9    2.48    0.56
   7   3  -9    3.37    0.25
  -7   3   9    1.86    0.49
   7   3  -9    2.67    0.50
   5  -3  -9   17.49    1.35
   5  -3  -9   16.21    0.62
   5  -3  -9   16.55    1.12
  -5  -3   9   15.65    1.03
  -5  -3   9   16.10    0.98
   5   3  -9   15.83    1.14
  -5   3   9   15.85    0.88
   5   3  -9   17.59    0.81
  -5   3   9   16.34    0.93
   5   3  -9   15.23    1.14
   3  -3  -9   10.02    0.33
  -3  -3   9    8.24    0.72
   3  -3  -9    8.98    0.82
   3  -3  -9    8.48    0.93
  -3  -3   9    8.59    0.70
   3   3  -9    9.55    0.86
  -3   3   9    9.67    0.77
   3   3  -9    8.20    0.81
  -3   3   9    9.76    0.70
   3   3  -9   10.43    0.59
   1  -3  -9    3.51    0.56
  -1  -3   9    2.96    0.51
   1  -3  -9    3.22    0.63
  -1  -3   9    4.18    0.44
  -1   3   9    4.30    0.54
  -1   3   9    3.71    0.57
   1   3  -9    3.61    0.58
   1   3  -9    4.85    0.39
   1   3  -9    3.47    0.56
  -1  -3  -9    7.79    0.86
   1  -3   9    8.45    0.77
   1  -3   9    9.54    0.59
  -1  -3  -9    9.19    0.81
  -1   3  -9    9.18    0.80
  -1   3  -9    9.03    0.62
  -1   3  -9    8.81    0.80
   1   3   9    8.60    0.72
   1   3   9    8.17    0.77
   3  -3   9  108.14    3.23
  -3  -3  -9  106.58    3.25
   3  -3   9  103.17    2.67
  -3  -3  -9  102.28    3.48
  -3   3  -9  106.74    3.01
  -3   3  -9  104.14    3.19
   3   3   9  105.35    3.17
  -3   3  -9  103.59    3.19
   3   3   9  105.61    3.28
  -5  -3  -9    1.54    0.40
  -5  -3  -9    1.81    0.46
   5  -3   9    2.62    0.18
   5  -3   9    1.71    0.46
  -5   3  -9    2.07    0.49
   5   3   9    2.15    0.47
   5   3   9    1.94    0.53
  -5   3  -9    2.06    0.46
  -5   3  -9    2.09    0.38
  -7  -3  -9   11.26    0.88
   7  -3   9   10.87    0.94
  -7  -3  -9    9.33    0.90
  -7   3  -9   12.30    0.99
  -7   3  -9   10.98    0.85
  -7   3  -9   10.50    0.86
   7   3   9   10.45    1.00
   7   3   9   10.56    0.90
  -9  -3  -9   -0.12    0.27
   9  -3   9    0.35    0.32
   9  -3   9   -0.32    0.24
  -9  -3  -9    0.26    0.23
   9   3   9    0.17    0.34
  -9   3  -9    0.48    0.31
   9   3   9    0.42    0.28
 -11  -3  -9   81.21    2.79
  11  -3   9   81.72    2.97
  11  -3   9   82.10    2.93
 -11  -3  -9   79.53    3.04
 -11   3  -9   86.44    3.00
  11   3   9   87.52    3.10
  11   3   9   83.78    3.19
 -13  -3  -9    3.50    0.48
  13  -3   9    1.66    0.51
 -13  -3  -9    2.36    0.57
  13  -3   9    2.41    0.57
 -13   3  -9    2.30    0.58
  13   3   9    3.15    0.52
  13   3   9    1.84    0.59
  15  -3   9   19.05    1.38
 -15  -3  -9   21.56    1.51
  15  -3   9   20.32    1.41
 -15  -3  -9   20.47    1.21
  15   3   9   19.52    1.55
 -15   3  -9   19.20    1.42
  15   3   9   20.67    1.40
 -17  -3  -9    1.98    0.57
  17  -3   9    2.36    0.60
 -17  -3  -9    3.09    0.33
  17  -3   9    1.27    0.52
 -17   3  -9    1.55    0.58
  17   3   9    1.92    0.69
  19  -3   9   92.35    3.39
 -19  -3  -9   94.38    3.66
  19  -3   9   87.78    3.41
  19   3   9   89.53    3.73
 -19   3  -9   89.03    3.63
  21  -3   9    1.86    0.54
 -21  -3  -9    1.88    0.53
  21  -3   9    2.18    0.45
  21   3   9    3.77    0.71
 -21   3  -9    1.90    0.62
  23  -3   9   22.84    1.53
  23  -3   9   22.30    1.66
 -23  -3  -9   24.95    1.79
 -23   3  -9   22.07    1.80
  23   3   9   23.05    1.74
 -25  -3  -9    6.95    0.80
  25  -3   9    6.75    0.65
  25  -3   9    6.64    0.89
 -25   3  -9    6.29    1.01
  25   3   9    5.70    0.84
 -28  -4   9    6.65    0.96
  28   4  -9    6.13    0.93
  26  -4  -9   18.18    1.84
  26  -4  -9   20.35    1.50
 -26  -4   9   18.24    1.65
 -26   4   9   17.72    1.33
  26   4  -9   19.51    1.73
  24  -4  -9    2.59    0.47
  24  -4  -9    2.15    0.71
 -24  -4   9    1.84    0.68
 -24   4   9    3.20    0.29
  24   4  -9    2.05    0.65
  22  -4  -9   40.27    2.11
  22  -4  -9   38.25    2.55
 -22  -4   9   36.18    2.30
  22   4  -9   38.92    2.46
 -22   4   9   40.41    2.24
 -20  -4   9    0.08    0.40
  20  -4  -9    0.59    0.23
  20  -4  -9    0.23    0.40
 -20   4   9    0.65    0.25
  20   4  -9   -0.29    0.35
  18  -4  -9   33.08    2.27
  18  -4  -9   39.97    1.88
 -18  -4   9   33.06    2.05
  18   4  -9   34.20    2.18
 -18   4   9   34.79    2.05
  16  -4  -9   40.14    1.80
  16  -4  -9   37.53    2.34
 -16  -4   9   35.26    2.06
  16   4  -9   41.40    2.31
  16   4  -9   38.58    2.25
 -16   4   9   37.20    2.11
 -14  -4   9   54.30    2.17
 -14  -4   9   57.09    2.57
  14  -4  -9   54.09    2.81
  14  -4  -9   58.97    2.12
  14   4  -9   57.56    2.78
 -14   4   9   53.80    2.54
  14   4  -9   55.18    2.68
 -12  -4   9   11.04    1.07
  12  -4  -9   10.41    1.19
  12  -4  -9   12.77    0.78
 -12  -4   9   11.17    0.86
 -12   4   9   10.90    1.07
  12   4  -9    9.47    1.07
  12   4  -9   11.11    1.08
  10  -4  -9   36.85    1.37
  10  -4  -9   33.09    2.06
 -10  -4   9   30.74    1.72
 -10  -4   9   34.02    1.62
 -10   4   9   35.30    1.91
  10   4  -9   36.56    2.00
 -10   4   9   35.59    1.41
  10   4  -9   33.06    1.93
   8  -4  -9   43.16    1.38
  -8  -4   9   39.48    1.89
  -8  -4   9   41.37    1.81
   8  -4  -9   39.43    2.25
  -8   4   9   43.07    1.66
   8   4  -9   42.77    2.18
   8   4  -9   40.35    2.07
  -8   4   9   41.38    2.05
   6  -4  -9   44.59    2.38
   6  -4  -9   44.70    2.08
  -6  -4   9   46.69    1.98
  -6  -4   9   43.54    1.90
   6   4  -9   46.77    2.22
  -6   4   9   48.68    1.84
  -6   4   9   45.96    1.65
   6   4  -9   48.24    2.20
   4  -4  -9   62.16    2.81
  -4  -4   9   63.36    2.34
  -4  -4   9   62.81    2.28
   4  -4  -9   61.22    2.47
   4   4  -9   59.84    2.51
   4   4  -9   64.96    2.54
  -4   4   9   61.14    2.24
  -4   4   9   64.08    2.07
   2  -4  -9   75.55    2.78
  -2  -4   9   75.72    2.64
  -2  -4   9   77.38    2.48
   2  -4  -9   75.97    3.12
  -2   4   9   74.68    2.38
   2   4  -9   74.32    2.76
   2   4  -9   73.99    2.76
  -2   4   9   72.11    2.58
   0  -4   9  127.53    3.73
   0  -4  -9  124.49    4.26
   0  -4   9  127.18    3.45
   0  -4  -9  128.43    3.94
   0   4   9  126.73    3.55
   0   4  -9  134.45    3.34
   0   4  -9  127.14    3.87
   0   4  -9  125.21    3.85
   0   4   9  125.94    3.77
   2  -4   9   89.14    2.98
  -2  -4  -9   83.90    3.26
  -2  -4  -9   89.76    3.07
   2  -4   9   87.95    2.54
   2   4   9   86.63    2.80
  -2   4  -9   90.85    3.08
   2   4   9   90.21    3.06
  -2   4  -9   92.27    2.60
  -2   4  -9   86.96    2.94
  -4  -4  -9   87.70    3.29
  -4  -4  -9   87.90    3.07
   4  -4   9   90.51    2.47
   4  -4   9   91.30    3.06
  -4   4  -9   89.15    2.93
  -4   4  -9   89.55    3.09
   4   4   9   87.08    2.92
   4   4   9   88.97    3.17
  -4   4  -9   95.58    2.75
  -6  -4  -9   22.27    1.47
  -6  -4  -9   22.33    1.39
   6  -4   9   24.22    1.46
  -6   4  -9   22.58    1.44
   6   4   9   22.31    1.36
  -6   4  -9   25.83    1.24
   6   4   9   20.47    1.46
  -6   4  -9   25.10    1.38
  -8  -4  -9   41.44    1.96
   8  -4   9   43.69    2.06
  -8  -4  -9   41.86    2.07
  -8   4  -9   44.63    1.90
   8   4   9   40.49    2.11
  -8   4  -9   43.87    1.84
  -8   4  -9   43.99    2.09
   8   4   9   40.26    1.96
  10  -4   9    0.63    0.39
 -10  -4  -9    0.27    0.28
 -10  -4  -9    1.10    0.43
 -10   4  -9    1.03    0.29
 -10   4  -9    0.47    0.35
  10   4   9    0.54    0.43
 -10   4  -9    0.31    0.42
  10   4   9    0.56    0.32
  12  -4   9   26.31    1.63
  12  -4   9   26.83    1.64
 -12  -4  -9   23.48    1.54
 -12  -4  -9   25.05    1.50
  12   4   9   23.48    1.70
  12   4   9   25.48    1.61
 -12   4  -9   25.38    1.50
 -14  -4  -9    3.23    0.60
  14  -4   9    3.57    0.72
  14  -4   9    2.83    0.66
 -14  -4  -9    3.02    0.52
  14   4   9    3.95    0.63
  14   4   9    1.84    0.66
 -14   4  -9    2.77    0.57
  16  -4   9   21.39    1.51
 -16  -4  -9   22.16    1.40
 -16  -4  -9   21.35    1.52
  16  -4   9   21.07    1.54
  16   4   9   21.50    1.72
  16   4   9   21.37    1.53
 -16   4  -9   21.32    1.50
 -18  -4  -9    3.41    0.33
 -18  -4  -9    2.87    0.55
  18  -4   9    1.26    0.55
  18  -4   9    2.35    0.52
  18   4   9    3.18    0.76
 -18   4  -9    2.58    0.55
  20  -4   9   27.10    1.86
  20  -4   9   30.28    1.80
 -20  -4  -9   31.30    1.93
  20   4   9   27.99    2.02
 -20   4  -9   28.03    1.88
  22  -4   9    1.00    0.20
  22  -4   9    1.05    0.38
  22   4   9    0.81    0.19
 -22   4  -9    1.08    0.26
 -24  -4  -9   28.82    1.92
  24  -4   9   23.93    1.78
  24  -4   9   24.92    1.64
  24   4   9   26.00    1.91
 -24   4  -9   25.72    1.92
 -25  -5   9   34.62    2.34
  25  -5  -9   33.91    2.04
  25  -5  -9   33.13    2.52
  25   5  -9   33.57    2.37
  23  -5  -9    1.92    0.71
 -23  -5   9    2.32    0.72
  23  -5  -9    3.70    0.55
  23   5  -9    2.73    0.70
 -23   5   9    2.95    0.25
 -21  -5   9   43.23    2.59
  21  -5  -9   49.89    2.35
  21  -5  -9   45.45    2.89
  21   5  -9   46.28    2.74
 -21   5   9   46.94    2.47
  19  -5  -9    1.85    0.69
 -19  -5   9    1.07    0.52
  19  -5  -9    2.52    0.42
 -19   5   9    2.52    0.52
  19   5  -9    1.17    0.56
 -17  -5   9   93.55    3.80
  17  -5  -9  102.20    3.30
  17  -5  -9   94.46    4.17
  17   5  -9   96.65    3.98
 -17   5   9   97.92    3.82
  15  -5  -9    0.05    0.36
 -15  -5   9    0.13    0.41
  15   5  -9    0.26    0.36
  15   5  -9    1.11    0.25
 -15   5   9    0.33    0.39
  13  -5  -9   22.45    1.81
 -13  -5   9   24.04    1.65
 -13  -5   9   24.97    1.50
  13   5  -9   22.16    1.74
  13   5  -9   24.94    1.77
 -13   5   9   23.86    1.70
 -11  -5   9    1.34    0.33
  11  -5  -9    0.53    0.48
 -11  -5   9    1.22    0.49
 -11   5   9    1.22    0.54
  11   5  -9    0.78    0.33
  11   5  -9    0.91    0.53
  -9  -5   9   46.25    2.11
   9  -5  -9   47.24    2.58
  -9  -5   9   44.62    2.16
   9   5  -9   46.01    2.37
   9   5  -9   44.59    2.36
  -9   5   9   47.77    1.89
   7  -5  -9    4.00    0.79
  -7  -5   9    2.89    0.62
   7  -5  -9    3.57    0.69
  -7  -5   9    4.50    0.67
  -7   5   9    5.53    0.55
  -7   5   9    4.23    0.48
   7   5  -9    4.21    0.79
   7   5  -9    3.93    0.76
   5  -5  -9    2.51    0.60
  -5  -5   9    2.98    0.55
   5  -5  -9    2.31    0.65
  -5  -5   9    2.30    0.57
  -5   5   9    3.43    0.51
  -5   5   9    2.83    0.46
   5   5  -9    2.57    0.64
   5   5  -9    2.31    0.64
   3  -5  -9    0.85    0.42
   3  -5  -9    1.51    0.54
  -3  -5   9    1.08    0.45
  -3  -5   9    1.82    0.40
  -3   5   9    1.19    0.37
   3   5  -9    1.33    0.47
  -3   5   9    1.45    0.38
   3   5  -9    1.06    0.50
  -1  -5   9   77.65    2.85
   1  -5  -9   74.50    2.91
   1  -5  -9   74.28    3.17
  -1  -5   9   71.98    2.49
  -1   5   9   74.01    2.79
   1   5  -9   72.96    2.82
  -1   5   9   73.83    2.44
   1   5  -9   76.80    2.95
  -1  -5  -9    0.89    0.43
  -1  -5  -9    1.34    0.47
   1  -5   9    0.69    0.41
  -1   5  -9    1.24    0.53
   1   5   9    1.38    0.51
   1   5   9    1.08    0.38
  -1   5  -9    0.81    0.41
  -3  -5  -9   22.85    1.57
   3  -5   9   21.75    1.45
  -3  -5  -9   22.66    1.49
  -3   5  -9   22.39    1.38
   3   5   9   21.94    1.53
  -3   5  -9   21.57    1.48
   3   5   9   21.82    1.31
   5  -5   9    0.53    0.40
  -5  -5  -9    1.05    0.35
  -5  -5  -9    0.49    0.37
  -5   5  -9    0.27    0.39
   5   5   9    0.14    0.34
   5   5   9    0.39    0.33
  -5   5  -9    0.73    0.37
  -7  -5  -9  140.88    4.62
   7  -5   9  144.41    4.42
  -7  -5  -9  139.55    4.44
  -7   5  -9  146.05    4.55
   7   5   9  137.53    4.58
  -7   5  -9  146.76    4.21
  -7   5  -9  144.55    4.04
   7   5   9  132.96    4.27
  -9  -5  -9    0.23    0.35
   9  -5   9    0.18    0.31
  -9  -5  -9    0.48    0.20
   9   5   9    0.00    0.36
  -9   5  -9    0.06    0.29
   9   5   9    0.08    0.34
  -9   5  -9    0.48    0.44
  11  -5   9   27.71    1.74
 -11  -5  -9   26.83    1.70
 -11  -5  -9   27.09    1.66
 -11   5  -9   27.47    1.49
  11   5   9   25.31    1.80
 -11   5  -9   24.70    1.73
 -11   5  -9   24.84    1.47
  11   5   9   26.11    1.68
 -13  -5  -9    2.25    0.46
  13  -5   9    1.55    0.51
 -13  -5  -9    1.32    0.41
 -13   5  -9    1.18    0.47
  13   5   9    0.89    0.56
  13   5   9    1.89    0.48
 -13   5  -9    1.98    0.36
 -13   5  -9    1.16    0.61
  15  -5   9  123.08    4.16
 -15  -5  -9  120.84    4.18
  15  -5   9  118.69    4.24
 -15  -5  -9  120.32    4.22
  15   5   9  113.00    4.44
  15   5   9  118.23    4.36
 -15   5  -9  116.83    4.06
 -17  -5  -9    2.37    0.29
  17  -5   9    2.53    0.54
 -17  -5  -9    2.35    0.43
  17  -5   9    1.28    0.55
  17   5   9    2.48    0.29
  17   5   9    1.46    0.45
 -17   5  -9    2.24    0.24
 -19  -5  -9   43.84    2.33
  19  -5   9   44.69    2.51
 -19  -5  -9   47.51    2.33
  19  -5   9   43.90    2.30
  19   5   9   43.23    2.67
 -19   5  -9   42.55    2.32
  21  -5   9    3.49    0.72
  21  -5   9    3.98    0.61
 -21   5  -9    3.83    0.44
  21   5   9    3.83    0.77
 -22  -6   9   48.09    2.80
  22  -6  -9   48.21    3.07
  22   6  -9   48.99    2.86
 -22   6   9   49.38    2.57
  20  -6  -9    7.76    1.24
 -20  -6   9    8.84    1.16
 -20   6   9   10.02    0.90
  20   6  -9    9.31    1.20
 -18  -6   9   36.93    2.35
  18  -6  -9   39.59    2.63
 -18   6   9   40.93    2.32
  18   6  -9   40.96    2.52
 -16  -6   9   20.42    1.66
  16  -6  -9   19.75    1.79
 -16   6   9   20.52    1.59
  16   6  -9   22.68    1.76
  16   6  -9   20.99    1.78
 -14  -6   9   54.48    2.56
  14  -6  -9   53.74    2.99
 -14  -6   9   52.38    2.70
  14   6  -9   62.23    3.06
  14   6  -9   55.41    2.92
 -14   6   9   58.75    2.87
 -12  -6   9   26.54    1.69
  12  -6  -9   29.30    2.10
 -12  -6   9   27.21    1.82
 -12   6   9   27.31    1.91
  12   6  -9   28.26    1.94
  12   6  -9   24.99    1.88
 -10  -6   9   52.21    2.51
 -10  -6   9   48.96    2.40
  10  -6  -9   49.75    2.74
 -10   6   9   52.42    2.11
  10   6  -9   47.06    2.57
  10   6  -9   52.82    2.72
  -8  -6   9   33.62    1.95
  -8  -6   9   33.92    1.89
   8  -6  -9   34.15    2.16
   8  -6  -9   34.61    2.04
  -8   6   9   35.15    1.73
   8   6  -9   31.59    2.03
   8   6  -9   34.81    2.12
  -8   6   9   34.50    1.40
   6  -6  -9   67.05    3.13
  -6  -6   9   64.65    2.66
   6  -6  -9   66.70    2.91
  -6  -6   9   63.27    2.77
  -6   6   9   67.41    2.19
   6   6  -9   62.25    2.92
  -6   6   9   68.53    2.65
   6   6  -9   69.25    3.04
   4  -6  -9   53.62    2.55
   4  -6  -9   56.79    2.80
  -4  -6   9   57.17    2.57
  -4  -6   9   54.12    2.32
  -4   6   9   55.87    2.01
   4   6  -9   53.20    2.60
   4   6  -9   54.74    2.61
  -4   6   9   54.50    2.39
   2  -6  -9   70.13    3.13
  -2  -6   9   64.76    2.78
  -2  -6   9   66.21    2.52
   2  -6  -9   65.66    2.84
   2   6  -9   64.99    2.84
  -2   6   9   64.20    2.70
  -2   6   9   60.99    2.24
   2   6  -9   62.06    2.84
   0  -6   9   73.16    2.63
   0  -6  -9   73.39    3.05
   0  -6   9   72.03    2.97
   0  -6  -9   80.52    3.33
   0   6  -9   73.54    3.07
   0   6   9   74.25    3.04
   0   6   9   71.18    2.57
   0   6  -9   74.56    2.96
   2  -6   9   50.06    2.44
  -2  -6  -9   55.26    2.65
  -2  -6  -9   49.04    2.43
  -2   6  -9   51.28    2.31
   2   6   9   51.14    2.48
  -2   6  -9   51.73    2.52
   2   6   9   50.36    2.14
  -4  -6  -9   92.87    3.56
   4  -6   9   90.64    3.48
  -4  -6  -9  102.53    3.85
  -4   6  -9   99.10    3.36
  -4   6  -9   93.27    3.59
   4   6   9   91.83    3.25
   4   6   9   92.38    3.61
  -6  -6  -9   33.75    2.00
  -6  -6  -9   38.50    2.10
   6  -6   9   35.61    2.05
   6   6   9   35.56    1.88
  -6   6  -9   35.34    1.83
  -6   6  -9   34.54    2.09
   6   6   9   34.75    2.13
  -8  -6  -9   53.13    2.55
   8  -6   9   51.08    2.53
  -8  -6  -9   50.68    2.53
  -8   6  -9   54.31    2.29
   8   6   9   50.65    2.69
   8   6   9   51.89    2.42
  -8   6  -9   52.54    2.62
  10  -6   9    4.32    0.77
 -10  -6  -9    4.84    0.54
 -10  -6  -9    4.36    0.83
 -10   6  -9    3.87    0.84
  10   6   9    4.45    0.77
  10   6   9    4.41    0.96
 -10   6  -9    3.78    0.68
  12  -6   9   32.14    1.99
 -12  -6  -9   30.87    1.97
  12   6   9   29.72    2.11
 -12   6  -9   30.07    2.00
 -12   6  -9   29.87    1.67
  12   6   9   27.83    1.84
  14  -6   9    0.66    0.30
  14   6   9    0.65    0.39
  14   6   9    0.90    0.21
 -14   6  -9    0.33    0.36
 -14   6  -9    0.13    0.46
 -16  -6  -9   23.99    1.66
  16  -6   9   24.21    1.68
 -16   6  -9   22.65    1.50
 -16   6  -9   22.51    1.83
  16   6   9   23.82    1.92
  16   6   9   23.69    1.74
  18  -6   9    1.83    0.19
  18   6   9    0.75    0.24
  20  -6   9   34.89    2.08
 -20  -6  -9   37.12    2.12
  20  -6   9   33.33    2.24
  20   6   9   35.64    2.47
 -20   6  -9   29.85    1.87
  19  -7  -9    1.45    0.28
 -19  -7   9    1.10    0.29
  17  -7  -9   87.29    4.13
 -17  -7   9   79.81    3.75
  17   7  -9   83.25    3.94
  17   7  -9   85.72    3.55
  17   7  -9   87.46    3.92
 -17   7   9   80.57    3.64
 -15  -7   9    5.47    0.89
  15  -7  -9    5.82    0.94
  15   7  -9    5.67    0.86
 -15   7   9    4.77    0.74
  15   7  -9    4.83    0.88
  13  -7  -9   45.06    2.72
 -13  -7   9   44.55    2.53
 -13  -7   9   45.84    2.42
  13   7  -9   46.69    2.68
 -13   7   9   45.15    2.58
  13   7  -9   47.73    2.70
  11  -7  -9    2.73    0.61
 -11  -7   9    2.28    0.44
 -11  -7   9    2.71    0.59
  11   7  -9    1.89    0.55
  11   7  -9    2.54    0.69
  -9  -7   9    7.58    0.90
  -9  -7   9    6.95    0.89
   9  -7  -9    6.78    0.95
   9  -7  -9    4.96    0.86
  -9   7   9    6.62    0.57
   9   7  -9    5.89    0.99
  -9   7   9    6.71    0.58
   9   7  -9    7.42    1.04
   7  -7  -9   11.78    1.22
   7  -7  -9   13.73    1.28
  -7  -7   9   12.23    1.12
  -7  -7   9   14.15    1.29
   7   7  -9   12.16    1.25
  -7   7   9   13.61    1.05
   7   7  -9   10.81    1.24
  -7   7   9   11.89    0.81
  -5  -7   9   30.79    1.99
  -5  -7   9   30.57    1.77
   5  -7  -9   26.68    1.87
   5  -7  -9   31.77    2.03
  -5   7   9   28.84    1.73
   5   7  -9   31.83    2.04
   5   7  -9   29.77    2.04
  -5   7   9   28.37    1.38
  -3  -7   9    0.82    0.18
  -3  -7   9   -0.13    0.38
   3  -7  -9    1.10    0.23
   3  -7  -9    0.34    0.39
  -3   7   9    0.74    0.21
   3   7  -9   -0.06    0.43
   3   7  -9    0.39    0.35
  -3   7   9    0.07    0.28
  -1  -7   9   10.92    1.21
   1  -7  -9   10.87    1.18
  -1  -7   9   12.40    0.95
   1  -7  -9   12.47    1.13
  -1   7   9   10.96    1.08
   1   7  -9   11.22    1.15
  -1   7   9    9.54    0.88
   1   7  -9   10.87    1.22
   1  -7   9    0.50    0.44
  -1  -7  -9    0.36    0.29
   1   7   9    0.25    0.32
  -1   7  -9    0.04    0.41
   1   7   9    0.70    0.43
  -1   7  -9    0.03    0.29
  -3  -7  -9  110.99    4.17
   3  -7   9  111.30    4.11
  -3   7  -9  109.13    4.15
   3   7   9  105.95    3.62
   3   7   9  111.16    4.18
  -3   7  -9  110.70    3.88
   5  -7   9    1.02    0.46
  -5  -7  -9   -0.14    0.34
  -5   7  -9    0.10    0.28
   5   7   9    0.41    0.31
  -5   7  -9    0.10    0.43
   5   7   9    0.21    0.36
  -7  -7  -9   21.29    1.69
   7  -7   9   21.09    1.66
   7   7   9   22.17    1.80
   7   7   9   21.94    1.51
  -7   7  -9   21.51    1.74
  -7   7  -9   22.28    1.49
  -9  -7  -9    2.87    0.72
   9  -7   9    3.00    0.70
  -9   7  -9    2.66    0.62
   9   7   9    3.24    0.66
  -9   7  -9    1.99    0.70
   9   7   9    1.86    0.71
 -11  -7  -9  107.45    4.22
  11  -7   9  103.54    4.08
 -11   7  -9  103.55    4.19
  11   7   9  101.06    4.35
  11   7   9   98.67    3.91
 -11   7  -9  106.82    3.67
 -13  -7  -9    0.73    0.27
  13  -7   9    1.34    0.41
 -13   7  -9    0.57    0.36
 -13   7  -9   -0.01    0.41
  13   7   9    2.05    0.37
  13   7   9    1.71    0.41
  15  -7   9   16.28    1.39
 -15  -7  -9   18.26    1.46
  15   7   9   14.15    1.49
 -15   7  -9   14.45    1.56
  15   7   9   16.42    1.39
 -15   7  -9   17.62    1.30
 -12  -8   9   17.62    1.43
 -12  -8   9   19.06    1.56
  12  -8  -9   19.79    1.63
  12   8  -9   22.14    1.74
 -12   8   9   18.41    1.52
  12   8  -9   19.42    1.57
 -10  -8   9   30.03    2.00
  10  -8  -9   32.93    2.12
 -10  -8   9   30.20    2.00
  10  -8  -9   32.02    2.14
  10   8  -9   31.58    2.14
 -10   8   9   31.21    1.27
  10   8  -9   31.56    2.10
   8  -8  -9   10.96    1.19
  -8  -8   9   11.21    1.15
  -8  -8   9   13.16    1.16
   8   8  -9   11.45    1.21
  -8   8   9   11.26    0.74
  -8   8   9   12.17    0.94
   8   8  -9   10.19    1.14
  -6  -8   9   21.44    1.55
  -6  -8   9   20.30    1.68
   6  -8  -9   23.07    1.78
   6   8  -9   24.14    1.80
   6   8  -9   22.40    1.79
  -6   8   9   25.56    1.59
  -6   8   9   24.25    1.22
  -4  -8   9   35.69    2.27
   4  -8  -9   39.27    2.35
  -4  -8   9   38.28    2.09
   4   8  -9   36.43    2.25
  -4   8   9   37.25    1.67
   4   8  -9   36.82    2.34
  -4   8   9   38.42    2.11
  -2  -8   9   51.07    2.77
   2  -8  -9   49.33    2.71
  -2   8   9   50.59    2.13
   2   8  -9   53.00    2.82
   2   8  -9   52.90    2.72
  -2   8   9   50.32    2.59
   0  -8   9   60.76    3.06
   0  -8  -9   58.59    2.99
   0   8  -9   58.41    2.85
   0   8   9   62.84    2.99
   0   8  -9   63.20    3.12
   0   8   9   60.95    2.49
  -2  -8  -9   36.71    2.28
   2  -8   9   37.49    2.34
  -2   8  -9   35.55    2.30
  -2   8  -9   38.51    2.16
   2   8   9   36.19    2.29
   2   8   9   35.85    1.90
  -4  -8  -9   35.29    2.30
   4  -8   9   39.75    2.38
   4   8   9   38.01    2.37
  -4   8  -9   35.78    2.32
  -4   8  -9   36.50    2.08
   4   8   9   36.30    1.96
  -6  -8  -9   36.65    2.35
   6  -8   9   35.89    2.28
  -6   8  -9   34.30    1.99
   6   8   9   35.15    2.35
  -6   8  -9   36.63    2.37
   6   8   9   37.52    2.05
  -8  -8  -9   30.04    2.11
   8  -8   9   31.65    2.12
   8   8   9   27.68    1.80
   8   8   9   27.57    2.12
  -8   8  -9   33.81    1.89
  -8   8  -9   30.73    2.16
 -10  -8  -9    1.79    0.46
  10  -8   9    1.71    0.33
  10   8   9    1.41    0.45
 -10   8  -9    1.83    0.42
 -10   8  -9    0.97    0.46
  10   8   9    1.28    0.26
  30   0 -10   13.10    1.33
 -30   0  10   13.53    1.22
 -30   0  10   12.45    1.25
  28   0 -10   12.06    1.26
 -28   0  10   12.84    1.22
 -28   0  10   12.82    1.25
 -26   0  10   47.59    2.63
 -26   0  10   52.29    2.69
  26   0 -10   49.69    2.65
  24   0 -10   44.25    2.33
  24   0 -10   43.64    2.40
 -24   0  10   41.99    2.42
  22   0 -10   90.57    3.49
 -22   0  10   87.87    3.59
  22   0 -10   86.48    3.45
  20   0 -10    1.37    0.52
  20   0 -10    1.46    0.48
 -20   0  10    1.49    0.58
 -18   0  10   77.53    3.18
  18   0 -10   80.69    3.11
  18   0 -10   82.35    3.06
  16   0 -10   41.42    1.93
 -16   0  10   39.30    2.08
  16   0 -10   40.25    2.02
  14   0 -10  136.58    4.26
  14   0 -10  137.19    3.99
 -14   0  10  136.56    4.36
 -12   0  10    5.73    0.80
  12   0 -10    5.19    0.72
  12   0 -10    4.83    0.63
 -10   0  10  171.25    3.73
  10   0 -10  175.48    4.51
  10   0 -10  180.99    5.05
 -10   0  10  180.49    5.01
  -8   0  10    0.86    0.39
   8   0 -10    0.55    0.35
   8   0 -10    1.53    0.14
   8   0 -10    0.98    0.29
  -8   0  10    1.59    0.17
   6   0 -10  522.20   12.12
   6   0 -10  510.70   10.86
   6   0 -10  522.89   11.87
  -6   0  10  531.25   11.86
  -6   0  10  558.64   10.42
   4   0 -10    5.32    0.47
   4   0 -10    6.26    0.56
   4   0 -10    5.84    0.70
  -4   0  10    5.39    0.48
  -4   0  10    5.64    0.63
   2   0 -10  243.48    6.30
  -2   0  10  250.98    5.59
  -2   0  10  257.86    6.15
   2   0 -10  253.45    5.55
   2   0 -10  248.63    6.17
   0   0 -10    4.99    0.49
   0   0 -10    4.05    0.59
   0   0  10    4.03    0.50
   0   0  10    4.33    0.55
   0   0 -10    4.76    0.40
  -2   0 -10  321.07    7.82
  -2   0 -10  341.78    7.11
   2   0  10  337.84    7.46
   2   0  10  357.26    7.74
  -2   0 -10  342.88    8.09
  -4   0 -10    1.91    0.34
   4   0  10    1.73    0.45
   4   0  10    1.92    0.30
  -4   0 -10    1.87    0.27
  -4   0 -10    1.59    0.42
  -6   0 -10    2.92    0.39
  -6   0 -10    3.67    0.50
   6   0  10    2.60    0.53
   6   0  10    4.24    0.37
  -6   0 -10    3.26    0.58
   8   0  10   12.67    0.72
  -8   0 -10   11.89    0.99
   8   0  10   11.34    0.98
   8   0  10   11.69    0.64
 -10   0 -10    3.60    0.65
  10   0  10    3.54    0.66
  10   0  10    4.10    0.39
  12   0  10   21.68    1.45
  12   0  10   24.34    1.17
 -12   0 -10   24.37    1.51
 -14   0 -10    0.56    0.42
  14   0  10    0.72    0.43
  16   0  10   47.76    1.92
 -16   0 -10   47.27    2.37
  16   0  10   46.16    2.29
  18   0  10  110.85    3.87
 -18   0 -10  110.84    4.05
  18   0  10  105.14    3.35
 -20   0 -10   15.10    1.41
  20   0  10   14.44    1.24
  20   0  10   16.66    1.10
 -22   0 -10   64.37    3.10
  22   0  10   65.73    2.63
  22   0  10   67.89    2.93
  24   0  10   12.02    1.10
 -24   0 -10   12.15    1.34
  24   0  10   12.31    0.93
  26   0  10   21.48    1.54
  26   0  10   22.18    1.39
 -26   0 -10   21.93    1.81
  29  -1 -10    2.36    0.55
 -29  -1  10    3.05    0.31
 -29  -1  10    2.52    0.48
 -29   1  10    2.55    0.53
  29   1 -10    2.39    0.61
 -29   1  10    3.05    0.27
 -27  -1  10   53.16    2.61
  27  -1 -10   54.39    2.78
 -27  -1  10   47.25    2.69
  27   1 -10   50.63    2.81
 -27   1  10   50.19    2.66
 -25  -1  10   14.37    1.20
  25  -1 -10   12.89    1.27
 -25  -1  10   13.58    1.38
  25  -1 -10   15.12    1.41
 -25   1  10   14.72    1.31
  25   1 -10   12.69    1.31
  23  -1 -10   35.21    2.19
  23  -1 -10   36.49    2.09
 -23  -1  10   36.84    2.22
  23   1 -10   38.22    1.97
  23   1 -10   36.01    2.16
 -23   1  10   36.98    2.20
  21  -1 -10   47.95    2.50
  21  -1 -10   46.03    2.28
 -21  -1  10   47.58    2.51
  21   1 -10   48.06    2.22
  21   1 -10   43.86    2.31
 -21   1  10   44.03    2.38
  19  -1 -10  105.64    3.64
 -19  -1  10  113.42    4.02
  19  -1 -10  106.40    3.97
 -19   1  10  107.83    3.94
  19   1 -10  111.00    3.81
  19   1 -10  104.93    3.58
  17  -1 -10    5.06    0.86
 -17  -1  10    5.17    0.85
  17  -1 -10    5.25    0.73
  17   1 -10    5.43    0.62
 -17   1  10    5.37    0.85
  17   1 -10    5.62    0.83
  15  -1 -10   37.71    2.04
 -15  -1  10   39.54    2.05
  15  -1 -10   36.86    1.76
 -15   1  10   36.41    1.97
  15   1 -10   41.73    1.98
  15   1 -10   37.07    1.77
  13  -1 -10    0.75    0.30
  13  -1 -10    0.44    0.42
 -13  -1  10    1.37    0.50
 -13   1  10    0.55    0.39
  13   1 -10    1.00    0.30
  13   1 -10    0.62    0.33
  11  -1 -10  125.11    3.50
  11  -1 -10  130.46    4.19
 -11  -1  10  127.32    4.03
 -11  -1  10  125.24    2.99
 -11   1  10  131.05    2.79
  11   1 -10  133.38    4.16
 -11   1  10  129.86    4.05
  11   1 -10  127.16    3.81
  11   1 -10  134.13    3.82
   9  -1 -10    1.09    0.26
   9  -1 -10    0.97    0.44
  -9  -1  10    2.03    0.18
  -9  -1  10    0.69    0.37
   9   1 -10    2.63    0.32
   9   1 -10    1.01    0.33
   9   1 -10    1.34    0.38
  -9   1  10    1.72    0.13
  -9   1  10    0.69    0.37
   7  -1 -10   26.26    1.58
  -7  -1  10   25.62    1.04
  -7  -1  10   25.51    1.41
   7  -1 -10   25.40    1.10
   7   1 -10   25.24    1.43
  -7   1  10   27.16    1.46
   7   1 -10   25.05    1.35
   7   1 -10   24.94    1.30
  -7   1  10   26.32    1.02
  -5  -1  10   16.62    0.85
  -5  -1  10   15.48    1.05
   5  -1 -10   17.30    1.26
   5  -1 -10   16.13    0.77
   5   1 -10   16.42    1.06
   5   1 -10   15.67    0.98
  -5   1  10   16.77    1.10
  -5   1  10   16.51    0.84
   5   1 -10   16.27    1.08
   3  -1 -10   83.06    2.62
  -3  -1  10   80.39    2.64
   3  -1 -10   78.27    2.11
   3  -1 -10   80.76    2.94
  -3  -1  10   81.98    2.38
   3   1 -10   80.56    2.73
   3   1 -10   84.58    2.53
  -3   1  10   81.64    2.69
  -3   1  10   79.34    2.39
   3   1 -10   83.00    2.73
  -1  -1  10   68.70    2.18
   1  -1 -10   67.36    2.28
  -1  -1  10   66.21    2.23
   1  -1 -10   63.81    1.76
   1  -1 -10   69.00    2.56
   1   1 -10   68.97    2.17
  -1   1  10   67.72    2.21
   1   1 -10   69.88    2.38
  -1   1  10   69.64    2.33
   1   1 -10   65.09    2.36
  -1  -1 -10   41.79    1.88
   1  -1  10   43.10    1.58
   1  -1  10   39.92    1.64
  -1  -1 -10   42.11    1.22
  -1  -1 -10   39.59    1.63
  -1   1 -10   40.81    1.70
  -1   1 -10   42.80    1.57
  -1   1 -10   40.03    1.72
   1   1  10   42.16    1.68
   1   1  10   41.77    1.72
  -3  -1 -10   80.85    1.99
  -3  -1 -10   79.48    2.78
   3  -1  10   80.61    2.61
   3  -1  10   80.52    2.32
  -3  -1 -10   78.58    2.58
  -3   1 -10   80.99    2.40
  -3   1 -10   81.96    2.67
   3   1  10   75.35    2.61
   3   1  10   80.96    2.50
  -3   1 -10   81.72    2.68
   5  -1  10   89.49    2.43
  -5  -1 -10   93.23    2.24
  -5  -1 -10   91.44    2.86
  -5  -1 -10   90.57    3.05
   5  -1  10   91.75    2.94
  -5  -1 -10   93.72    2.66
   5   1  10   89.80    2.88
  -5   1 -10   88.82    2.89
  -5   1 -10   93.11    2.67
  -5   1 -10   91.66    2.93
   5   1  10   89.87    2.98
   7  -1  10  123.82    3.66
  -7  -1 -10  124.10    3.25
  -7  -1 -10  117.97    3.73
   7  -1  10  120.79    2.92
   7   1  10  120.55    3.63
  -7   1 -10  120.02    3.63
  -7   1 -10  123.00    3.32
   7   1  10  121.09    3.70
  -7   1 -10  121.85    3.67
  -9  -1 -10   54.39    1.77
   9  -1  10   52.82    2.24
   9  -1  10   54.66    1.94
  -9  -1 -10   50.19    2.20
  -9   1 -10   50.35    2.14
   9   1  10   53.34    2.27
   9   1  10   51.58    1.61
   9   1  10   52.88    2.14
 -11  -1 -10   96.18    2.66
  11  -1  10   93.33    3.25
 -11  -1 -10   95.71    3.35
  11  -1  10   92.98    2.87
  11   1  10   94.60    3.21
  11   1  10   94.20    3.33
  11   1  10   94.10    2.57
 -11   1 -10   93.05    3.25
  13  -1  10  107.18    3.23
  13  -1  10  106.99    3.60
 -13  -1 -10  106.09    3.70
  13   1  10  104.87    2.92
 -13   1 -10  111.60    3.72
  13   1  10  106.73    3.70
 -15  -1 -10  125.93    4.18
  15  -1  10  116.06    3.59
  15  -1  10  123.37    3.99
 -15   1 -10  116.85    4.05
  15   1  10  121.50    3.31
  15   1  10  120.77    4.08
  17  -1  10   67.19    2.56
  17  -1  10   62.20    2.73
 -17  -1 -10   68.77    2.97
  17   1  10   69.31    2.32
  17   1  10   67.25    2.92
 -17   1 -10   64.08    2.88
  19  -1  10  101.81    3.69
 -19  -1 -10  105.56    4.00
  19  -1  10  103.14    3.48
 -19   1 -10  101.31    3.93
  19   1  10  105.10    3.87
  21  -1  10   32.60    1.78
 -21  -1 -10   30.21    2.03
  21  -1  10   31.60    1.87
 -21   1 -10   29.60    2.05
  21   1  10   29.85    1.92
  23  -1  10   47.70    2.39
  23  -1  10   51.91    2.40
 -23  -1 -10   50.40    2.75
  23   1  10   52.22    2.62
 -23   1 -10   48.69    2.75
  25  -1  10    2.92    0.26
  25  -1  10    1.69    0.34
 -25  -1 -10    1.98    0.60
 -25   1 -10    1.77    0.65
  25   1  10    2.60    0.46
 -27  -1 -10   49.67    2.86
  27  -1  10   51.59    2.53
  27  -1  10   51.94    2.52
  27   1  10   52.20    2.62
 -27   1 -10   51.20    2.96
  28  -2 -10   37.57    2.28
 -28  -2  10   38.60    2.43
  28   2 -10   38.31    2.49
 -28   2  10   38.75    2.23
 -28   2  10   41.15    2.68
  26  -2 -10   32.54    2.27
 -26  -2  10   31.58    2.16
  26  -2 -10   32.05    2.02
 -26   2  10   31.99    2.01
  26   2 -10   31.39    2.17
  24  -2 -10    9.77    1.33
 -24  -2  10   11.21    1.28
  24  -2 -10   11.62    1.11
  24   2 -10   11.11    1.23
 -24   2  10   11.96    1.15
  22  -2 -10   53.22    2.52
  22  -2 -10   54.81    2.89
 -22  -2  10   54.46    2.77
 -22   2  10   51.61    2.65
  22   2 -10   54.42    2.73
  20  -2 -10   11.72    1.04
  20  -2 -10    9.83    1.20
 -20  -2  10   11.89    1.25
  20   2 -10   12.30    0.85
  20   2 -10   11.11    1.20
 -20   2  10   11.88    1.22
  18  -2 -10   88.76    3.65
 -18  -2  10   87.49    3.48
  18  -2 -10   88.53    3.13
  18   2 -10   89.26    2.95
 -18   2  10   90.39    3.50
  18   2 -10   89.47    3.45
  16  -2 -10    0.88    0.30
  16  -2 -10    0.96    0.52
 -16  -2  10    2.72    0.64
 -16   2  10    0.98    0.49
  16   2 -10    0.55    0.40
  14  -2 -10   67.20    3.00
  14  -2 -10   74.61    2.51
 -14  -2  10   68.73    2.84
 -14   2  10   71.18    2.88
  14   2 -10   71.62    2.80
  14   2 -10   68.13    2.36
  12  -2 -10    7.51    0.99
 -12  -2  10    6.64    0.87
  12  -2 -10    7.26    0.63
 -12  -2  10    7.42    0.49
  12   2 -10    6.39    0.86
  12   2 -10    7.41    0.75
 -12   2  10    6.77    0.90
  12   2 -10    6.78    0.57
  10  -2 -10  196.29    4.71
 -10  -2  10  191.32    4.48
  10  -2 -10  192.50    5.78
 -10  -2  10  194.96    5.43
 -10   2  10  197.92    5.48
  10   2 -10  197.59    5.31
 -10   2  10  203.46    4.28
  10   2 -10  193.90    4.98
  10   2 -10  197.13    5.67
   8  -2 -10    3.18    0.66
   8  -2 -10    5.18    0.41
  -8  -2  10    2.74    0.54
  -8  -2  10    3.55    0.36
   8   2 -10    4.41    0.61
  -8   2  10    2.97    0.58
  -8   2  10    4.22    0.34
   8   2 -10    3.16    0.61
   8   2 -10    3.99    0.40
   6  -2 -10  280.55    7.64
  -6  -2  10  292.84    7.13
  -6  -2  10  285.20    6.32
   6  -2 -10  293.43    6.18
   6   2 -10  289.49    6.96
  -6   2  10  299.91    6.30
  -6   2  10  292.63    7.25
   6   2 -10  296.58    6.94
   6   2 -10  296.03    7.47
  -4  -2  10    9.78    0.74
  -4  -2  10    8.92    0.77
   4  -2 -10   10.33    1.04
   4  -2 -10   11.36    0.52
   4   2 -10   10.92    0.88
  -4   2  10   10.91    0.73
  -4   2  10   10.17    0.88
   4   2 -10   11.58    0.79
   4   2 -10   12.19    0.94
   2  -2 -10  365.18    9.59
  -2  -2  10  400.87    8.95
   2  -2 -10  399.86    7.82
  -2  -2  10  393.09    8.41
  -2   2  10  407.35    9.25
  -2   2  10  414.28    8.50
   2   2 -10  409.58    9.06
   2   2 -10  385.48    9.24
   2   2 -10  407.48    8.78
   0  -2 -10    0.40    0.27
   0  -2  10    0.95    0.21
   0  -2  10    0.41    0.28
   0  -2 -10    0.74    0.38
   0   2 -10    0.26    0.23
   0   2  10    0.58    0.31
   0   2 -10    0.41    0.28
   0   2 -10    0.37    0.23
   0   2  10    0.39    0.25
  -2  -2 -10   74.81    2.47
   2  -2  10   75.10    2.50
   2  -2  10   75.04    2.16
  -2  -2 -10   71.55    2.73
  -2   2 -10   75.62    2.57
  -2   2 -10   76.06    2.45
  -2   2 -10   74.23    2.45
   2   2  10   73.66    2.48
   2   2  10   71.94    2.52
  -4  -2 -10    0.88    0.30
   4  -2  10    0.51    0.33
  -4  -2 -10    0.88    0.36
   4   2  10    0.33    0.33
  -4   2 -10    0.73    0.33
  -4   2 -10    0.64    0.32
   4   2  10    0.44    0.27
  -4   2 -10    0.81    0.33
  -6  -2 -10   20.04    1.30
  -6  -2 -10   20.50    1.10
   6  -2  10   18.99    1.22
   6   2  10   21.49    1.24
  -6   2 -10   18.36    1.14
   6   2  10   21.15    1.35
  -6   2 -10   18.14    1.12
  -6   2 -10   18.44    1.17
  -8  -2 -10   15.61    1.16
   8  -2  10   15.86    1.16
  -8  -2 -10   15.32    0.93
  -8   2 -10   15.98    1.10
   8   2  10   15.62    1.08
  -8   2 -10   14.94    1.05
   8   2  10   13.68    1.16
  -8   2 -10   15.08    1.08
 -10  -2 -10    2.28    0.56
  10  -2  10    1.53    0.44
  10  -2  10    1.50    0.49
 -10  -2 -10    3.28    0.37
 -10   2 -10    2.10    0.52
  10   2  10    2.11    0.59
  10   2  10    3.18    0.51
 -12  -2 -10   27.30    1.67
  12  -2  10   27.45    1.63
  12  -2  10   28.64    1.53
 -12  -2 -10   29.03    1.33
  12   2  10   29.50    1.61
 -12   2 -10   27.05    1.60
  12   2  10   28.83    1.78
 -14  -2 -10   46.60    1.78
 -14  -2 -10   45.91    2.27
  14  -2  10   42.82    2.14
  14  -2  10   43.21    1.99
 -14   2 -10   42.97    2.18
  14   2  10   44.42    2.30
  16  -2  10   11.77    1.01
 -16  -2 -10   11.11    1.16
  16  -2  10    9.80    1.01
 -16   2 -10    9.76    1.06
  16   2  10   11.31    1.19
 -18  -2 -10   30.97    1.96
  18  -2  10   28.95    1.68
  18  -2  10   29.29    1.79
  18   2  10   32.59    2.03
 -18   2 -10   28.82    1.88
  20  -2  10   20.65    1.42
 -20  -2 -10   18.36    1.56
  20  -2  10   21.02    1.49
  20   2  10   22.42    1.68
 -20   2 -10   17.12    1.53
  22  -2  10   39.40    2.14
 -22  -2 -10   39.37    2.37
  22  -2  10   40.31    2.15
 -22   2 -10   40.64    2.44
  22   2  10   40.17    2.35
 -24  -2 -10   11.98    1.27
  24  -2  10   12.62    1.08
  24  -2  10    9.84    0.94
  24   2  10   11.90    1.14
 -24   2 -10    9.66    1.29
 -26  -2 -10   31.82    2.16
  26  -2  10   30.01    1.86
  26  -2  10   30.62    1.83
  26   2  10   28.87    1.93
 -26   2 -10   29.08    2.15
  27  -3 -10   14.04    1.21
 -27  -3  10   12.76    1.36
  27  -3 -10   13.69    1.54
 -27   3  10   13.75    1.15
  27   3 -10   14.56    1.53
 -25  -3  10   10.69    1.29
  25  -3 -10   12.64    1.11
  25  -3 -10   12.09    1.44
  25   3 -10   11.38    1.32
 -25   3  10   12.47    1.11
 -23  -3  10   44.83    2.59
  23  -3 -10   44.82    2.30
  23  -3 -10   47.12    2.82
 -23   3  10   46.19    2.47
  23   3 -10   44.63    2.60
 -21  -3  10   11.47    1.27
  21  -3 -10   10.36    0.99
  21  -3 -10   10.60    1.31
 -21   3  10   12.21    1.22
  21   3 -10   13.21    1.36
  19  -3 -10   36.80    1.86
 -19  -3  10   33.36    2.07
  19  -3 -10   32.65    2.21
  19   3 -10   34.06    2.11
 -19   3  10   35.91    2.12
  17  -3 -10   23.28    1.35
 -17  -3  10   22.80    1.64
  17  -3 -10   18.19    1.62
 -17   3  10   19.26    1.53
  17   3 -10   20.63    1.60
 -15  -3  10  102.76    3.69
  15  -3 -10   97.97    3.11
  15  -3 -10   91.54    3.83
  15   3 -10  100.25    3.69
 -15   3  10   98.24    3.64
 -13  -3  10    2.02    0.17
  13  -3 -10    0.73    0.47
 -13  -3  10    1.16    0.48
  13  -3 -10    1.38    0.27
 -13   3  10    0.87    0.48
  13   3 -10    1.77    0.36
  13   3 -10    1.19    0.51
  11  -3 -10   13.43    0.79
 -11  -3  10   11.54    1.06
  11  -3 -10   10.96    1.17
 -11  -3  10   12.22    0.79
 -11   3  10   11.36    1.08
  11   3 -10   13.03    1.10
  11   3 -10   12.30    1.14
   9  -3 -10    1.64    0.58
   9  -3 -10    3.37    0.30
  -9  -3  10    2.83    0.58
  -9  -3  10    3.79    0.46
  -9   3  10    2.99    0.26
  -9   3  10    2.17    0.54
   9   3 -10    3.12    0.23
   9   3 -10    2.72    0.62
   9   3 -10    3.09    0.57
   7  -3 -10   68.06    1.85
   7  -3 -10   65.60    2.89
  -7  -3  10   68.99    2.55
  -7  -3  10   64.69    2.22
   7   3 -10   64.58    2.58
   7   3 -10   66.50    2.07
  -7   3  10   70.43    2.69
  -7   3  10   67.47    2.11
   7   3 -10   63.04    2.67
  -5  -3  10    6.94    0.68
   5  -3 -10    7.76    0.97
  -5  -3  10    7.85    0.74
  -5   3  10    8.23    0.65
  -5   3  10   10.63    0.94
   5   3 -10    8.41    0.85
   5   3 -10    9.43    0.59
   5   3 -10    7.92    0.87
   3  -3 -10    9.27    0.86
  -3  -3  10    8.94    0.73
  -3  -3  10    9.34    0.79
   3  -3 -10    9.71    1.03
   3   3 -10   11.24    0.67
  -3   3  10    9.29    0.73
  -3   3  10    8.64    0.73
   3   3 -10    9.67    0.90
   3   3 -10    9.52    0.90
  -1  -3  10   71.31    2.46
  -1  -3  10   71.76    2.30
   1  -3 -10   76.16    2.67
   1  -3 -10   73.86    2.99
   1   3 -10   71.42    2.66
   1   3 -10   72.43    2.58
   1   3 -10   74.62    2.31
  -1   3  10   69.28    2.44
  -1   3  10   73.76    2.43
   1  -3  10   88.03    2.85
  -1  -3 -10   81.21    3.18
   1  -3  10   88.17    2.51
  -1  -3 -10   88.03    2.94
  -1   3 -10   83.35    2.84
  -1   3 -10   88.05    2.95
   1   3  10   85.28    2.86
  -1   3 -10   90.14    2.67
   1   3  10   88.85    2.80
  -3  -3 -10   68.38    2.74
   3  -3  10   67.59    1.96
  -3  -3 -10   67.36    2.47
   3  -3  10   73.23    2.56
  -3   3 -10   69.56    2.50
   3   3  10   67.93    2.55
   3   3  10   64.37    2.38
  -3   3 -10   67.56    2.47
  -3   3 -10   70.74    2.31
  -5  -3 -10    1.13    0.39
  -5  -3 -10    1.25    0.47
   5  -3  10    1.18    0.41
  -5   3 -10    1.09    0.41
  -5   3 -10    1.54    0.37
  -5   3 -10    1.11    0.41
   5   3  10    1.51    0.52
   5   3  10    1.86    0.47
   7  -3  10   69.05    2.60
  -7  -3 -10   67.52    2.46
  -7  -3 -10   66.93    2.70
   7   3  10   64.44    2.66
   7   3  10   64.52    2.51
  -7   3 -10   65.04    2.49
  -7   3 -10   68.97    2.51
  -7   3 -10   66.97    2.42
  -9  -3 -10   83.19    2.89
  -9  -3 -10   84.80    3.20
   9  -3  10   92.92    3.18
   9   3  10   88.74    3.31
   9   3  10   87.85    3.13
  -9   3 -10   88.84    3.02
  -9   3 -10   90.93    3.11
  -9   3 -10   90.50    3.08
 -11  -3 -10   62.90    2.72
  11  -3  10   68.09    2.72
  11  -3  10   66.57    2.60
 -11  -3 -10   67.16    2.47
  11   3  10   66.02    2.69
 -11   3 -10   66.46    2.63
  11   3  10   68.68    2.92
 -13  -3 -10   35.06    1.99
  13  -3  10   36.92    1.91
  13  -3  10   36.14    1.95
 -13  -3 -10   36.97    1.72
  13   3  10   35.96    2.12
 -13   3 -10   36.20    1.93
  13   3  10   37.28    1.96
 -15  -3 -10   66.67    2.51
  15  -3  10   67.65    2.83
  15  -3  10   67.20    2.75
 -15  -3 -10   68.55    2.95
  15   3  10   66.25    3.06
 -15   3 -10   61.57    2.77
  17  -3  10  105.23    3.74
  17  -3  10  101.28    3.65
 -17  -3 -10  105.18    3.94
 -17   3 -10   95.23    3.75
  17   3  10  107.24    4.11
 -19  -3 -10   38.94    2.25
  19  -3  10   38.56    2.09
  19  -3  10   36.06    2.06
  19   3  10   36.96    2.29
 -19   3 -10   36.12    2.20
  21  -3  10    1.33    0.32
  21  -3  10    1.84    0.49
 -21  -3 -10    1.21    0.42
 -21   3 -10    0.56    0.45
  21   3  10    2.27    0.63
  23  -3  10   31.98    1.89
 -23  -3 -10   31.52    2.08
  23  -3  10   32.22    1.98
 -23   3 -10   31.65    2.17
  23   3  10   33.40    2.21
 -25  -3 -10    4.83    0.58
  25  -3  10    3.67    0.34
  25  -3  10    4.98    0.49
  25   3  10    3.11    0.56
 -25   3 -10    2.82    0.66
  26  -4 -10   15.99    1.32
 -26  -4  10   17.75    1.63
  26  -4 -10   16.01    1.71
  26   4 -10   16.66    1.59
 -26   4  10   15.35    1.18
 -24  -4  10    4.70    0.96
  24  -4 -10    7.13    0.74
  24  -4 -10    4.87    1.03
 -24   4  10    5.80    0.60
  24   4 -10    7.14    1.13
  22  -4 -10   36.62    2.53
 -22  -4  10   33.40    2.24
  22  -4 -10   37.99    2.01
  22   4 -10   34.60    2.35
 -22   4  10   36.91    2.19
 -20  -4  10    3.93    0.85
  20  -4 -10    4.95    0.56
  20  -4 -10    3.23    0.86
  20   4 -10    4.16    0.90
 -20   4  10    6.15    0.87
 -18  -4  10   24.30    1.78
  18  -4 -10   21.99    1.87
  18  -4 -10   26.98    1.49
  18   4 -10   24.75    1.86
 -18   4  10   23.83    1.74
  16  -4 -10    1.31    0.62
 -16  -4  10    0.82    0.48
  16  -4 -10    1.88    0.32
 -16   4  10    0.76    0.51
  16   4 -10    1.16    0.57
 -14  -4  10   58.08    2.25
 -14  -4  10   56.00    2.64
  14  -4 -10   56.59    2.95
  14  -4 -10   60.25    2.16
  14   4 -10   59.24    2.84
  14   4 -10   59.09    2.82
 -14   4  10   57.91    2.72
 -12  -4  10    0.26    0.35
 -12  -4  10    0.92    0.18
  12  -4 -10    0.23    0.37
 -12   4  10   -0.01    0.32
  12   4 -10   -0.02    0.33
 -10  -4  10   25.63    1.36
  10  -4 -10   24.12    1.81
 -10  -4  10   24.01    1.54
  10   4 -10   24.16    1.64
 -10   4  10   23.93    1.62
  10   4 -10   25.40    1.69
 -10   4  10   27.17    1.19
  -8  -4  10    9.76    0.93
  -8  -4  10    8.12    0.76
   8  -4 -10   10.01    1.17
   8   4 -10   10.25    1.07
   8   4 -10   10.65    1.03
  -8   4  10   10.54    1.07
  -8   4  10   12.17    0.77
  -6  -4  10  140.18    4.13
  -6  -4  10  135.81    3.94
   6  -4 -10  138.44    4.77
   6  -4 -10  140.25    4.37
  -6   4  10  142.04    3.82
   6   4 -10  140.59    4.36
  -6   4  10  143.61    3.76
   6   4 -10  137.26    4.49
   4  -4 -10    5.87    0.95
  -4  -4  10    5.29    0.61
   4  -4 -10    5.59    0.79
  -4  -4  10    5.71    0.73
  -4   4  10    5.94    0.65
  -4   4  10    4.57    0.55
   4   4 -10    4.75    0.77
   4   4 -10    5.44    0.82
   2  -4 -10  129.45    4.51
   2  -4 -10  129.13    4.05
  -2  -4  10  126.11    3.77
  -2  -4  10  129.89    3.66
   2   4 -10  126.91    4.06
  -2   4  10  133.33    3.84
   2   4 -10  129.69    4.01
  -2   4  10  128.31    3.62
   0  -4 -10   13.58    1.27
   0  -4  10   15.32    0.87
   0  -4 -10   13.52    1.09
   0  -4  10   13.42    1.06
   0   4 -10   14.08    1.12
   0   4 -10   16.34    0.81
   0   4  10   14.11    0.99
   0   4 -10   12.44    1.09
   0   4  10   14.43    1.12
   2  -4  10   88.21    2.53
  -2  -4 -10   82.38    3.03
   2  -4  10   89.96    3.04
  -2  -4 -10   82.20    3.30
   2   4  10   84.55    2.85
  -2   4 -10   86.09    3.06
  -2   4 -10   89.09    3.06
   2   4  10   82.81    3.04
  -2   4 -10   91.33    2.66
  -4  -4 -10    3.61    0.63
  -4  -4 -10    4.22    0.77
   4  -4  10    4.14    0.70
   4   4  10    3.63    0.71
  -4   4 -10    4.42    0.72
  -4   4 -10    5.41    0.47
   4   4  10    4.59    0.68
  -4   4 -10    3.80    0.65
  -6  -4 -10    6.13    0.87
   6  -4  10    5.70    0.81
  -6  -4 -10    5.34    0.75
  -6   4 -10    5.56    0.77
   6   4  10    5.58    0.88
   6   4  10    5.48    0.76
  -6   4 -10    6.80    0.59
  -6   4 -10    5.66    0.81
  -8  -4 -10    1.86    0.47
  -8  -4 -10    1.12    0.49
   8  -4  10    2.24    0.61
  -8   4 -10    1.61    0.54
  -8   4 -10    1.91    0.52
   8   4  10    1.52    0.57
   8   4  10    1.35    0.43
  -8   4 -10    2.18    0.37
  10  -4  10    1.64    0.54
 -10  -4 -10    1.80    0.49
 -10  -4 -10    1.32    0.40
 -10   4 -10    1.58    0.37
 -10   4 -10    1.03    0.51
 -10   4 -10    1.09    0.43
  10   4  10    1.64    0.42
  10   4  10    1.84    0.62
 -12  -4 -10    4.40    0.73
 -12  -4 -10    4.27    0.63
  12  -4  10    4.93    0.82
  12   4  10    5.00    0.91
 -12   4 -10    4.74    0.67
  12   4  10    5.12    0.74
  14  -4  10   15.70    1.32
 -14  -4 -10   15.39    1.15
 -14  -4 -10   16.27    1.32
  14  -4  10   14.82    1.30
  14   4  10   17.27    1.32
 -14   4 -10   16.46    1.26
  14   4  10   15.15    1.44
 -16  -4 -10   25.65    1.73
 -16  -4 -10   24.59    1.49
  16  -4  10   24.56    1.68
  16  -4  10   24.67    1.70
  16   4  10   22.79    1.82
 -16   4 -10   24.70    1.64
  18  -4  10   16.84    1.33
  18  -4  10   14.33    1.30
 -18  -4 -10   17.51    1.42
 -18   4 -10   15.96    1.32
  18   4  10   13.97    1.42
 -20  -4 -10    4.89    0.74
  20  -4  10    4.98    0.83
  20  -4  10    5.48    0.78
  20   4  10    5.21    0.94
 -20   4 -10    5.58    0.81
  22  -4  10   40.57    2.36
  22  -4  10   39.82    2.21
 -22  -4 -10   40.13    2.38
  22   4  10   41.44    2.57
 -22   4 -10   40.88    2.42
  24  -4  10    7.27    0.71
 -24  -4 -10    8.93    0.94
  24  -4  10    7.43    0.86
  24   4  10    8.98    0.97
 -24   4 -10    7.12    0.80
  25  -5 -10   10.90    0.95
 -25  -5  10   10.03    1.21
  25  -5 -10   10.72    1.44
 -25   5  10   11.39    0.89
  25   5 -10    9.98    1.30
 -23  -5  10    6.70    1.10
  23  -5 -10    7.82    0.72
  23  -5 -10    6.96    1.19
  23   5 -10    7.01    1.10
 -23   5  10    7.76    0.75
  21  -5 -10    8.80    1.31
 -21  -5  10    7.26    1.09
  21   5 -10   10.26    1.33
 -21   5  10    9.73    0.95
 -19  -5  10   21.97    1.76
  19  -5 -10   23.03    2.00
  19   5 -10   25.30    1.95
 -19   5  10   25.57    1.80
 -17  -5  10    0.34    0.44
  17  -5 -10    0.53    0.51
  17   5 -10    0.93    0.58
 -17   5  10    0.46    0.32
  15  -5 -10   23.91    1.96
 -15  -5  10   22.70    1.36
 -15  -5  10   22.79    1.69
  15   5 -10   25.05    1.81
 -15   5  10   24.17    1.76
  15   5 -10   24.13    1.87
  13  -5 -10    0.47    0.46
 -13  -5  10    0.92    0.16
 -13  -5  10    0.62    0.45
  13   5 -10    0.50    0.21
  13   5 -10    0.41    0.48
 -13   5  10   -0.14    0.32
  11  -5 -10   30.87    2.11
 -11  -5  10   28.94    1.78
 -11  -5  10   28.95    1.61
  11   5 -10   28.91    1.93
 -11   5  10   26.59    1.82
  11   5 -10   29.99    1.94
  -9  -5  10    0.11    0.33
   9  -5 -10    0.39    0.45
  -9  -5  10    0.99    0.32
   9   5 -10    0.50    0.25
  -9   5  10    0.90    0.48
   9   5 -10    0.05    0.44
  -7  -5  10    3.12    0.59
  -7  -5  10    2.73    0.58
   7  -5 -10    2.83    0.74
   7  -5 -10    2.88    0.66
  -7   5  10    3.43    0.51
   7   5 -10    2.16    0.63
  -7   5  10    4.81    0.49
   7   5 -10    2.60    0.60
   5  -5 -10    2.39    0.61
  -5  -5  10    3.15    0.52
   5  -5 -10    2.88    0.75
  -5  -5  10    2.26    0.56
   5   5 -10    3.25    0.75
  -5   5  10    3.02    0.51
   5   5 -10    2.91    0.69
  -5   5  10    2.69    0.48
   3  -5 -10   11.05    1.20
  -3  -5  10    8.87    0.94
  -3  -5  10   10.52    0.85
   3  -5 -10    9.18    0.99
   3   5 -10    9.35    1.00
  -3   5  10    9.34    0.90
  -3   5  10    8.93    0.76
   3   5 -10    8.83    1.06
   1  -5 -10   24.88    1.78
   1  -5 -10   25.84    1.62
  -1  -5  10   25.39    1.30
  -1  -5  10   26.07    1.58
   1   5 -10   24.48    1.57
  -1   5  10   24.54    1.32
   1   5 -10   25.17    1.63
  -1   5  10   25.26    1.57
   1  -5  10    1.64    0.55
   1  -5  10    2.51    0.27
  -1  -5 -10    1.44    0.51
  -1  -5 -10    1.60    0.53
   1   5  10    0.83    0.40
  -1   5 -10    0.93    0.50
   1   5  10    1.94    0.57
  -1   5 -10    1.46    0.49
  -3  -5 -10   34.14    1.88
  -3  -5 -10   33.40    2.01
   3  -5  10   33.85    1.87
  -3   5 -10   35.55    1.82
  -3   5 -10   33.81    1.91
   3   5  10   34.85    1.70
   3   5  10   33.47    1.92
   5  -5  10   21.12    1.50
  -5  -5 -10   20.15    1.44
  -5  -5 -10   22.15    1.57
   5   5  10   21.07    1.57
  -5   5 -10   20.80    1.54
  -5   5 -10   22.57    1.43
   5   5  10   22.19    1.40
   7  -5  10   24.57    1.61
  -7  -5 -10   24.23    1.62
  -7  -5 -10   23.37    1.53
  -7   5 -10   22.03    1.42
   7   5  10   21.27    1.43
  -7   5 -10   22.16    1.58
   7   5  10   22.58    1.67
  -9  -5 -10    7.43    0.86
  -9  -5 -10    6.55    0.92
   9  -5  10    7.00    0.97
  -9   5 -10    7.65    0.87
   9   5  10    6.09    0.97
  -9   5 -10    8.02    0.65
   9   5  10    7.68    0.88
  -9   5 -10    7.59    1.04
  11  -5  10   22.84    1.60
 -11  -5 -10   21.54    1.51
 -11  -5 -10   20.12    1.44
 -11   5 -10   20.80    1.29
 -11   5 -10   19.44    1.34
  11   5  10   19.14    1.61
 -11   5 -10   20.84    1.60
  11   5  10   20.61    1.47
 -13  -5 -10   17.22    1.36
 -13  -5 -10   17.93    1.34
  13  -5  10   17.73    1.44
 -13   5 -10   18.05    1.24
 -13   5 -10   17.70    1.30
  13   5  10   14.36    1.25
 -13   5 -10   16.39    1.47
  13   5  10   17.03    1.56
 -15  -5 -10   14.64    1.19
  15  -5  10   15.00    1.31
 -15  -5 -10   17.30    1.34
  15   5  10   14.29    1.46
  15   5  10   14.29    1.26
 -15   5 -10   15.21    1.16
 -17  -5 -10    8.21    0.79
  17  -5  10    8.19    0.90
  17  -5  10    8.33    1.14
 -17  -5 -10   10.31    0.98
  17   5  10    6.94    1.12
 -17   5 -10    7.72    0.78
  19  -5  10    7.29    0.90
 -19  -5 -10    6.77    0.74
  19  -5  10    5.25    0.87
 -19  -5 -10    7.13    0.64
 -19   5 -10    6.63    0.65
  19   5  10    6.18    1.03
  21  -5  10   17.14    1.34
  21  -5  10   18.43    1.57
  21   5  10   16.95    1.58
 -21   5 -10   17.35    1.38
  22  -6 -10    3.40    0.78
 -22  -6  10    3.47    0.72
 -22   6  10    5.40    0.45
  22   6 -10    4.84    0.83
  20  -6 -10    0.62    0.26
 -20  -6  10    0.11    0.25
  20   6 -10    0.22    0.24
 -18  -6  10    4.65    0.89
  18  -6 -10    6.30    1.10
 -18   6  10    5.98    0.71
  18   6 -10    5.04    0.95
 -16  -6  10    0.49    0.39
  16  -6 -10    1.17    0.45
  16   6 -10    0.73    0.45
 -14  -6  10    1.07    0.55
  14  -6 -10    1.29    0.53
  14   6 -10    0.75    0.54
  14   6 -10    2.01    0.48
 -14   6  10    0.63    0.48
 -12  -6  10    5.05    0.70
 -12  -6  10    2.70    0.68
  12  -6 -10    3.22    0.79
 -12   6  10    3.71    0.84
  12   6 -10    3.52    0.86
  12   6 -10    3.65    0.69
 -10  -6  10   10.12    1.04
  10  -6 -10    9.08    1.21
 -10  -6  10   10.73    1.01
  10   6 -10   10.91    1.15
  10   6 -10   10.69    1.31
 -10   6  10    9.23    1.13
  -8  -6  10    0.54    0.25
   8  -6 -10    0.26    0.34
  -8  -6  10    0.60    0.25
   8  -6 -10    0.56    0.28
   8   6 -10    0.31    0.28
   8   6 -10   -0.20    0.41
  -8   6  10    0.11    0.25
  -6  -6  10   11.16    1.14
  -6  -6  10   14.59    1.14
   6  -6 -10   13.19    1.25
   6  -6 -10   13.29    1.31
  -6   6  10   13.79    1.06
  -6   6  10   13.32    0.90
   6   6 -10   13.25    1.30
   6   6 -10   11.45    1.25
   4  -6 -10    8.31    1.07
   4  -6 -10    9.52    1.08
  -4  -6  10   10.09    0.88
  -4  -6  10    8.26    1.03
   4   6 -10    7.94    1.10
  -4   6  10    9.81    0.91
  -4   6  10    7.84    0.75
   4   6 -10    8.43    1.01
  -2  -6  10   18.33    1.45
   2  -6 -10   20.16    1.59
   2  -6 -10   20.79    1.55
  -2  -6  10   20.39    1.25
   2   6 -10   20.61    1.54
  -2   6  10   18.12    1.37
  -2   6  10   18.91    1.17
   2   6 -10   18.35    1.51
   0  -6 -10   15.60    1.34
   0  -6  10   15.63    1.35
   0  -6 -10   16.18    1.41
   0   6 -10   15.64    1.31
   0   6 -10   15.49    1.38
   0   6  10   16.33    1.36
   0   6  10   14.12    1.04
   2  -6  10   11.19    1.17
  -2  -6 -10   13.89    1.26
  -2  -6 -10    9.83    1.09
  -2   6 -10    9.29    1.00
   2   6  10   10.33    0.94
   2   6  10    9.70    1.17
  -2   6 -10   10.54    1.18
  -4  -6 -10    1.22    0.30
   4  -6  10    0.58    0.44
  -4  -6 -10    0.59    0.43
  -4   6 -10    0.07    0.40
  -4   6 -10    0.41    0.37
   4   6  10   -0.38    0.31
   4   6  10    0.04    0.33
  -6  -6 -10    2.37    0.64
  -6  -6 -10    3.72    0.61
   6  -6  10    2.49    0.66
  -6   6 -10    2.30    0.58
  -6   6 -10    2.14    0.71
   6   6  10    2.62    0.60
   6   6  10    2.35    0.71
  -8  -6 -10    3.46    0.73
  -8  -6 -10    4.55    0.56
   8  -6  10    4.50    0.84
   8   6  10    3.44    0.84
   8   6  10    4.06    0.73
  -8   6 -10    4.13    0.72
  -8   6 -10    4.61    0.88
 -10  -6 -10    2.51    0.64
  10  -6  10    3.54    0.76
 -10   6 -10    2.09    0.56
  10   6  10    3.73    0.66
 -10   6 -10    1.67    0.63
  10   6  10    1.79    0.69
 -12  -6 -10   14.01    1.18
 -12  -6 -10   14.79    1.27
  12  -6  10   15.88    1.39
 -12   6 -10   13.02    1.15
  12   6  10   14.52    1.26
  12   6  10   14.13    1.42
 -12   6 -10   12.74    1.38
  14  -6  10    2.24    0.51
 -14  -6 -10    1.63    0.33
 -14   6 -10    1.22    0.47
  14   6  10    1.14    0.49
 -14   6 -10    0.83    0.57
  14   6  10    1.67    0.41
  16  -6  10    1.23    0.30
  16   6  10    0.99    0.21
  16   6  10    1.58    0.48
 -16   6 -10    0.98    0.42
 -16   6 -10    0.74    0.52
 -18  -6 -10   14.60    1.19
  18  -6  10   12.92    1.16
  18   6  10   12.40    1.35
 -18   6 -10   13.65    1.49
 -18   6 -10   13.57    1.19
  17  -7 -10    1.62    0.33
 -17  -7  10    1.03    0.36
  17   7 -10    0.85    0.16
 -15  -7  10    3.31    0.27
 -15  -7  10    3.73    0.71
  15  -7 -10    2.99    0.62
  15   7 -10    3.40    0.70
  15   7 -10    3.05    0.62
 -15   7  10    3.31    0.60
  13  -7 -10    0.72    0.26
  13   7 -10    1.20    0.24
 -13   7  10    0.38    0.14
  13   7 -10    0.60    0.28
 -11  -7  10    9.32    0.91
 -11  -7  10    8.71    0.97
  11  -7 -10    9.65    1.11
  11   7 -10    8.89    1.00
 -11   7  10    8.38    1.15
  11   7 -10    6.48    1.06
   9  -7 -10    1.91    0.58
   9  -7 -10    2.66    0.58
  -9  -7  10    2.57    0.54
  -9  -7  10    2.08    0.44
  -9   7  10    2.27    0.39
   9   7 -10    1.52    0.61
   9   7 -10    1.82    0.50
   7  -7 -10    2.02    0.47
  -7  -7  10    1.17    0.26
   7  -7 -10    0.62    0.40
  -7  -7  10    0.76    0.39
  -7   7  10    0.89    0.34
   7   7 -10    1.20    0.50
   7   7 -10    0.22    0.47
  -5  -7  10    3.18    0.72
  -5  -7  10    3.24    0.53
   5  -7 -10    2.41    0.69
   5  -7 -10    3.28    0.65
   5   7 -10    2.93    0.69
  -5   7  10    2.44    0.50
  -5   7  10    4.26    0.47
   5   7 -10    2.58    0.75
   3  -7 -10    0.19    0.33
  -3  -7  10    1.33    0.16
  -3  -7  10    0.74    0.34
   3  -7 -10    1.02    0.20
  -3   7  10    0.35    0.32
   3   7 -10    0.29    0.28
  -3   7  10    0.83    0.19
   3   7 -10    0.59    0.49
   1  -7 -10    0.76    0.44
   1  -7 -10    2.21    0.48
  -1  -7  10    0.60    0.41
   1   7 -10    1.04    0.46
  -1   7  10    1.45    0.33
   1   7 -10    0.34    0.48
  -1   7  10    0.57    0.35
  -1  -7 -10    1.53    0.61
  -1  -7 -10    3.90    0.46
   1  -7  10    1.79    0.62
   1   7  10    2.27    0.50
  -1   7 -10    1.41    0.62
  -1   7 -10    2.45    0.62
   1   7  10    2.31    0.65
  -3  -7 -10    3.89    0.82
   3  -7  10    4.27    0.86
   3   7  10    4.51    0.72
  -3   7 -10    3.58    0.82
   3   7  10    4.24    0.82
  -3   7 -10    3.71    0.77
   5  -7  10    0.66    0.38
  -5  -7 -10    0.32    0.45
  -5   7 -10    0.57    0.56
   5   7  10    0.46    0.39
   5   7  10    0.50    0.26
  -5   7 -10    0.47    0.40
   7  -7  10    4.55    0.86
  -7  -7 -10    4.29    0.83
  -7   7 -10    4.47    0.74
   7   7  10    4.07    0.90
   7   7  10    3.95    0.72
  -7   7 -10    3.99    0.86
  -9  -7 -10    4.87    0.85
   9  -7  10    4.78    0.83
  -9   7 -10    4.28    0.72
   9   7  10    4.68    0.77
   9   7  10    3.81    0.89
  -9   7 -10    3.63    0.88
  11  -7  10    3.62    0.70
 -11  -7 -10    3.17    0.67
 -11   7 -10    1.33    0.66
  11   7  10    3.48    0.63
 -11   7 -10    3.30    0.60
  11   7  10    2.73    0.79
 -13  -7 -10    7.35    0.79
  13  -7  10    8.64    1.07
 -13   7 -10    5.36    1.01
  13   7  10    7.94    0.87
 -13   7 -10    7.21    0.80
  13   7  10    6.22    1.02
 -15   7 -10   -0.12    0.32
  15   7  10    1.07    0.33
  12  -8 -10    1.52    0.32
  12   8 -10    1.84    0.36
  12   8 -10    2.62    0.26
  10  -8 -10    2.58    0.56
  10  -8 -10    3.54    0.62
 -10  -8  10    4.27    0.48
 -10  -8  10    2.58    0.22
  10   8 -10    1.95    0.40
  10   8 -10    3.29    0.63
 -10   8  10    3.06    0.28
   8  -8 -10    4.28    0.77
  -8  -8  10    5.58    0.61
  -8  -8  10    5.19    0.58
   8  -8 -10    4.89    0.57
  -8   8  10    4.34    0.45
   8   8 -10    4.48    0.78
   8   8 -10    5.95    0.91
   6  -8 -10    1.47    0.49
  -6  -8  10    2.82    0.57
  -6  -8  10    2.35    0.42
   6   8 -10    2.23    0.53
   6   8 -10    1.73    0.51
  -6   8  10    2.16    0.36
  -4  -8  10    1.13    0.34
   4  -8 -10    1.47    0.46
   4   8 -10    1.20    0.36
   4   8 -10    0.90    0.29
  -4   8  10    1.15    0.29
  -2  -8  10    0.79    0.33
   2  -8 -10    0.80    0.37
   2   8 -10    0.78    0.30
  -2   8  10    0.79    0.32
   2   8 -10    0.09    0.21
   0  -8 -10    1.65    0.50
   0  -8  10    1.59    0.58
   0   8  10    1.54    0.41
   0   8 -10    1.52    0.55
   0   8 -10    1.46    0.48
   0   8  10    1.69    0.18
   2  -8  10    0.87    0.41
  -2  -8 -10    0.80    0.37
   2   8  10    1.07    0.24
   2   8  10    0.99    0.26
  -2   8 -10    0.63    0.32
  -2   8 -10    0.24    0.36
   4  -8  10   16.32    1.46
  -4  -8 -10   16.22    1.52
   4   8  10   16.80    1.52
  -4   8 -10   14.95    1.30
  -4   8 -10   13.75    1.43
   4   8  10   14.15    1.19
  -6  -8 -10    2.00    0.57
   6  -8  10    2.19    0.53
   6   8  10    1.85    0.55
   6   8  10    1.56    0.40
  -6   8 -10    1.47    0.50
  -6   8 -10    2.13    0.46
  -8  -8 -10    1.61    0.39
   8  -8  10    1.54    0.37
   8   8  10    1.72    0.39
   8   8  10    1.27    0.42
  -8   8 -10    0.77    0.45
  -8   8 -10    1.85    0.35
  30   0 -11    0.69    0.20
 -28   0  11    1.03    0.24
 -28   0  11    1.44    0.32
  28   0 -11    1.02    0.32
  26   0 -11    0.59    0.26
 -26   0  11    0.46    0.32
  24   0 -11    0.39    0.34
  24   0 -11    0.55    0.18
 -24   0  11   -0.18    0.38
  22   0 -11   -0.26    0.19
 -22   0  11    0.01    0.40
  22   0 -11    0.13    0.16
  20   0 -11    0.62    0.29
 -20   0  11    0.02    0.35
  20   0 -11    0.34    0.33
 -18   0  11   -0.19    0.33
  18   0 -11   -0.07    0.26
  18   0 -11    0.29    0.28
  16   0 -11    0.10    0.28
  16   0 -11    0.00    0.25
 -16   0  11   -0.09    0.32
  14   0 -11   -0.26    0.19
 -14   0  11   -0.01    0.31
  14   0 -11    0.01    0.33
  12   0 -11   -0.12    0.22
  12   0 -11    0.07    0.31
 -12   0  11   -0.07    0.29
  10   0 -11    0.38    0.25
  10   0 -11    0.24    0.33
 -10   0  11   -0.04    0.29
   8   0 -11   -0.07    0.29
  -8   0  11   -0.06    0.29
   8   0 -11    0.43    0.20
  -6   0  11    0.08    0.29
  -6   0  11    0.72    0.18
   4   0 -11    0.39    0.14
   4   0 -11    0.32    0.31
  -4   0  11    0.39    0.14
  -4   0  11   -0.08    0.20
   2   0 -11    0.18    0.09
   2   0 -11    0.14    0.27
  -2   0  11   -0.02    0.17
  -2   0  11    0.05    0.23
   0   0 -11    0.06    0.29
   0   0  11    0.17    0.20
   0   0 -11    0.55    0.15
   0   0  11   -0.02    0.21
  -2   0 -11    0.72    0.15
  -2   0 -11    0.63    0.14
  -2   0 -11   -0.07    0.25
   2   0  11    0.20    0.18
   2   0  11    0.05    0.26
   4   0  11    0.53    0.12
  -4   0 -11    0.14    0.29
  -4   0 -11    0.43    0.14
   4   0  11    0.02    0.25
  -4   0 -11    0.35    0.11
  -6   0 -11    0.03    0.28
   6   0  11    0.33    0.33
  -6   0 -11    0.05    0.16
  -8   0 -11    0.00    0.30
   8   0  11    0.08    0.30
  10   0  11    0.17    0.30
 -10   0 -11    0.08    0.32
  12   0  11    0.08    0.32
 -12   0 -11    0.00    0.35
 -14   0 -11    0.07    0.34
  14   0  11    0.15    0.35
 -16   0 -11    0.14    0.40
  16   0  11   -0.02    0.30
  18   0  11    0.58    0.39
 -18   0 -11    0.12    0.37
 -20   0 -11   -0.12    0.32
  20   0  11    1.06    0.38
 -22   0 -11    0.35    0.39
  22   0  11    1.18    0.27
  24   0  11    1.09    0.20
 -24   0 -11    1.05    0.40
 -26   0 -11    0.92    0.34
 -29  -1  11    5.96    0.84
  29  -1 -11    5.63    0.85
  29   1 -11    5.75    0.91
 -29   1  11    5.41    0.60
 -29   1  11    4.89    0.80
  27  -1 -11    5.56    0.82
 -27  -1  11    5.97    0.99
  27  -1 -11    4.91    0.82
 -27  -1  11    5.47    0.62
  27   1 -11    4.22    0.81
 -27   1  11    4.62    0.77
 -25  -1  11   10.52    1.22
  25  -1 -11   11.85    1.21
  25  -1 -11   10.42    1.09
 -25   1  11    9.81    1.14
  25   1 -11   10.29    1.17
 -23  -1  11    1.87    0.67
  23  -1 -11    2.71    0.71
  23  -1 -11    2.44    0.59
  23   1 -11    1.38    0.52
 -23   1  11    1.31    0.59
  23   1 -11    3.53    0.53
  21  -1 -11    1.05    0.44
 -21  -1  11    1.28    0.57
  21  -1 -11    1.60    0.59
  21   1 -11    1.95    0.39
  21   1 -11    1.21    0.52
 -21   1  11    0.84    0.51
  19  -1 -11    2.29    0.52
  19  -1 -11    1.08    0.54
 -19  -1  11    1.62    0.61
  19   1 -11    2.29    0.46
 -19   1  11    1.91    0.62
  19   1 -11    1.44    0.54
  17  -1 -11   23.58    1.44
 -17  -1  11   23.36    1.66
  17  -1 -11   22.16    1.64
 -17   1  11   24.23    1.66
  17   1 -11   24.32    1.43
  17   1 -11   23.98    1.57
  15  -1 -11    1.23    0.52
 -15  -1  11    2.17    0.60
  15  -1 -11    2.08    0.44
 -15   1  11    1.79    0.60
  15   1 -11    2.12    0.57
  15   1 -11    2.49    0.45
  13  -1 -11   53.36    2.48
 -13  -1  11   51.71    2.39
  13  -1 -11   52.85    2.05
 -13   1  11   54.06    2.43
  13   1 -11   51.55    2.23
  13   1 -11   52.15    2.17
  11  -1 -11    2.63    0.41
 -11  -1  11    3.36    0.25
  11  -1 -11    1.95    0.56
 -11  -1  11    3.11    0.65
 -11   1  11    1.94    0.54
  11   1 -11    2.69    0.56
  11   1 -11    3.23    0.51
   9  -1 -11   72.96    2.30
   9  -1 -11   72.36    2.92
  -9  -1  11   73.46    2.78
  -9  -1  11   73.82    2.07
   9   1 -11   79.55    2.95
   9   1 -11   74.76    2.66
  -9   1  11   74.04    1.98
   9   1 -11   73.83    2.59
  -9   1  11   69.69    2.76
   7  -1 -11    9.60    0.64
  -7  -1  11   10.17    0.64
   7  -1 -11    9.08    0.98
  -7  -1  11    9.50    0.89
  -7   1  11   10.69    0.63
   7   1 -11   10.10    0.84
  -7   1  11    8.93    0.88
   7   1 -11    9.52    0.83
   7   1 -11    9.70    0.86
  -5  -1  11    5.58    0.72
  -5  -1  11    4.64    0.47
   5  -1 -11    4.80    0.39
   5  -1 -11    5.00    0.79
   5   1 -11    5.01    0.67
  -5   1  11    5.34    0.47
  -5   1  11    4.79    0.68
   5   1 -11    5.54    0.66
   5   1 -11    5.58    0.57
  -3  -1  11   13.28    0.87
   3  -1 -11   12.52    0.64
   3  -1 -11   13.73    1.14
  -3  -1  11   12.06    0.92
   3  -1 -11   13.27    0.82
   3   1 -11   12.57    0.87
   3   1 -11   13.53    0.96
  -3   1  11   11.72    0.95
   3   1 -11   12.42    0.98
  -3   1  11   12.97    0.85
  -1  -1  11   41.44    1.71
   1  -1 -11   42.35    1.73
   1  -1 -11   42.32    2.00
   1  -1 -11   40.75    1.30
  -1  -1  11   42.15    1.69
   1   1 -11   43.45    1.85
   1   1 -11   43.97    1.67
  -1   1  11   43.81    1.73
   1   1 -11   40.29    1.80
  -1   1  11   43.88    1.83
  -1  -1 -11    7.35    0.58
   1  -1  11    5.92    0.65
   1  -1  11    6.78    0.58
  -1  -1 -11    7.10    0.79
  -1  -1 -11    7.05    0.41
  -1   1 -11    6.95    0.66
  -1   1 -11    6.49    0.69
  -1   1 -11    6.50    0.60
   1   1  11    6.80    0.67
   1   1  11    6.35    0.70
  -3  -1 -11   39.37    1.66
  -3  -1 -11   36.32    1.80
   3  -1  11   39.37    1.74
  -3  -1 -11   38.66    1.19
   3  -1  11   36.63    1.42
   3   1  11   37.28    1.58
   3   1  11   36.68    1.73
  -3   1 -11   34.75    1.46
  -3   1 -11   37.25    1.71
  -3   1 -11   36.47    1.70
  -5  -1 -11    8.63    0.70
   5  -1  11    8.75    0.54
   5  -1  11    9.28    0.87
  -5  -1 -11    9.46    0.49
  -5  -1 -11    7.72    0.83
  -5   1 -11    8.61    0.82
  -5   1 -11    8.86    0.69
   5   1  11    7.28    0.81
  -5   1 -11    7.22    0.72
   5   1  11    8.09    0.68
  -7  -1 -11   27.45    1.02
  -7  -1 -11   27.69    1.42
   7  -1  11   26.78    1.53
  -7  -1 -11   26.15    1.16
  -7  -1 -11   24.69    1.50
   7   1  11   26.02    1.55
   7   1  11   25.48    1.39
  -7   1 -11   26.21    1.28
  -7   1 -11   23.74    1.41
  -7   1 -11   26.40    1.44
   9  -1  11   15.23    0.95
  -9  -1 -11   16.53    0.85
   9  -1  11   13.36    1.12
  -9  -1 -11   14.32    1.19
  -9   1 -11   15.23    1.18
   9   1  11   15.46    1.05
   9   1  11   16.49    1.27
   9   1  11   16.87    0.76
  11  -1  11   23.32    1.23
  11  -1  11   23.05    1.50
 -11  -1 -11   22.38    1.50
  11   1  11   23.09    1.00
 -11   1 -11   20.20    1.41
  11   1  11   22.78    1.36
  11   1  11   22.20    1.54
 -13  -1 -11    6.49    0.91
  13  -1  11    5.38    0.84
  13  -1  11    6.14    0.61
  13   1  11    5.49    0.88
 -13   1 -11    5.48    0.83
  15  -1  11    7.01    0.96
  15  -1  11    7.43    0.71
 -15  -1 -11    7.52    1.02
  15   1  11    6.88    0.98
 -15   1 -11    7.72    1.01
  17  -1  11   12.44    1.18
  17  -1  11   13.70    1.02
 -17  -1 -11   13.80    1.32
 -17   1 -11   13.01    1.28
  17   1  11   12.36    1.27
  19  -1  11    8.20    0.79
 -19  -1 -11    9.01    1.19
  19  -1  11    8.73    1.05
  19   1  11    7.75    1.05
 -19   1 -11    7.62    1.09
  21  -1  11    0.95    0.30
 -21  -1 -11    0.30    0.42
 -21   1 -11    0.34    0.46
  21   1  11    1.36    0.37
  23  -1  11    0.92    0.22
 -23  -1 -11    1.63    0.56
 -23   1 -11    1.16    0.57
  23   1  11    1.34    0.29
 -25  -1 -11    1.28    0.55
  25  -1  11    1.45    0.28
 -25   1 -11    1.00    0.51
  25   1  11    1.75    0.30
  28  -2 -11   11.20    1.10
 -28  -2  11   11.35    1.26
  28  -2 -11   12.04    1.33
  28   2 -11   12.73    1.37
 -28   2  11   11.78    1.09
  26  -2 -11    8.28    0.90
  26  -2 -11    7.75    1.17
 -26  -2  11    7.87    1.14
 -26   2  11    8.55    0.95
  26   2 -11    9.86    1.24
  24  -2 -11   11.03    1.07
  24  -2 -11   10.38    1.32
 -24  -2  11   10.22    1.33
  24   2 -11   10.55    1.28
 -24   2  11   10.78    1.12
  22  -2 -11    0.52    0.19
 -22  -2  11   -0.10    0.41
  22  -2 -11    0.07    0.35
 -22   2  11    0.16    0.42
  22   2 -11   -0.01    0.32
  20  -2 -11   19.49    1.35
 -20  -2  11   16.50    1.52
  20  -2 -11   17.95    1.59
 -20   2  11   18.14    1.51
  20   2 -11   17.96    1.52
  18  -2 -11   14.90    1.11
  18  -2 -11   14.64    1.42
 -18  -2  11   14.49    1.34
 -18   2  11   13.07    1.29
  18   2 -11   16.65    1.02
  18   2 -11   15.30    1.35
  16  -2 -11   12.57    0.96
 -16  -2  11    9.47    1.07
  16  -2 -11   10.04    1.16
  16   2 -11   11.13    0.80
 -16   2  11   10.82    1.12
  16   2 -11   11.80    1.15
 -14  -2  11    5.50    0.85
  14  -2 -11    5.80    0.59
  14  -2 -11    4.41    0.84
  14   2 -11    5.38    0.83
 -14   2  11    5.08    0.82
  14   2 -11    5.83    0.55
 -12  -2  11   23.02    1.55
 -12  -2  11   22.81    1.02
  12  -2 -11   21.73    1.61
  12  -2 -11   23.94    1.21
 -12   2  11   22.03    1.52
  12   2 -11   23.03    1.20
  12   2 -11   21.09    1.44
  12   2 -11   22.53    1.47
 -10  -2  11   39.70    1.98
  10  -2 -11   37.42    2.13
 -10  -2  11   38.75    1.46
  10  -2 -11   40.07    1.54
  10   2 -11   38.28    1.92
 -10   2  11   41.47    1.33
 -10   2  11   37.25    1.95
  10   2 -11   40.05    1.68
  10   2 -11   40.72    2.08
   8  -2 -11   35.37    2.02
  -8  -2  11   33.63    1.76
   8  -2 -11   35.56    1.34
  -8  -2  11   33.76    1.37
   8   2 -11   34.74    1.54
   8   2 -11   35.16    1.77
   8   2 -11   33.30    1.81
  -8   2  11   36.12    1.84
  -8   2  11   35.44    1.33
   6  -2 -11   11.46    1.16
  -6  -2  11   10.69    0.74
  -6  -2  11    8.83    0.84
   6  -2 -11   10.59    0.58
   6   2 -11   10.42    0.92
  -6   2  11   11.04    0.71
   6   2 -11   10.42    0.79
   6   2 -11   11.22    0.95
  -6   2  11   10.45    0.95
   4  -2 -11   38.33    1.17
  -4  -2  11   37.47    1.57
  -4  -2  11   35.45    1.66
   4  -2 -11   38.85    2.10
   4   2 -11   38.62    1.86
   4   2 -11   37.11    1.65
  -4   2  11   36.93    1.80
  -4   2  11   41.24    1.60
   4   2 -11   39.99    1.78
   2  -2 -11   19.40    1.39
   2  -2 -11   17.45    0.60
  -2  -2  11   17.95    1.05
  -2  -2  11   17.33    1.06
  -2   2  11   17.79    1.10
   2   2 -11   17.11    1.10
   2   2 -11   18.59    1.10
   2   2 -11   18.21    1.19
  -2   2  11   17.09    1.17
   0  -2  11    1.26    0.39
   0  -2  11    2.09    0.33
   0  -2 -11    1.75    0.53
   0   2 -11    1.70    0.42
   0   2 -11    1.31    0.36
   0   2 -11    1.48    0.35
   0   2  11    1.96    0.47
   0   2  11    1.66    0.44
  -2  -2 -11    0.95    0.43
  -2  -2 -11    0.54    0.28
   2  -2  11    1.16    0.19
   2  -2  11    0.88    0.36
  -2   2 -11    0.79    0.33
  -2   2 -11    0.76    0.33
   2   2  11    0.81    0.32
   2   2  11    1.18    0.45
  -2   2 -11    0.93    0.33
  -4  -2 -11    5.19    0.76
  -4  -2 -11    4.96    0.58
   4  -2  11    6.40    0.42
   4  -2  11    6.18    0.77
  -4   2 -11    5.94    0.74
   4   2  11    5.50    0.64
  -4   2 -11    4.82    0.64
   4   2  11    6.50    0.84
  -4   2 -11    5.45    0.65
   6  -2  11    0.26    0.32
  -6  -2 -11    0.72    0.26
  -6  -2 -11    0.04    0.31
  -6   2 -11    0.33    0.32
  -6   2 -11    0.29    0.33
   6   2  11    0.51    0.41
  -6   2 -11    0.17    0.29
   6   2  11    1.10    0.29
  -8  -2 -11    3.30    0.68
   8  -2  11    3.04    0.62
  -8  -2 -11    4.20    0.47
   8   2  11    4.15    0.57
  -8   2 -11    2.95    0.60
  -8   2 -11    4.30    0.65
   8   2  11    3.35    0.69
  -8   2 -11    3.29    0.59
  10  -2  11    9.00    0.96
  10  -2  11    9.47    0.87
 -10  -2 -11    9.34    0.99
 -10  -2 -11   11.37    0.77
 -10   2 -11    9.96    0.98
  10   2  11   10.81    1.09
  10   2  11   11.09    0.91
 -12  -2 -11    7.43    0.92
 -12  -2 -11    8.39    0.62
  12  -2  11    7.36    0.78
  12  -2  11    7.39    0.95
  12   2  11    7.05    0.71
  12   2  11    7.52    1.02
 -12   2 -11    7.30    0.95
  14  -2  11    4.35    0.66
  14  -2  11    4.10    0.78
 -14  -2 -11    3.22    0.75
  14   2  11    3.49    0.80
 -14   2 -11    3.53    0.71
  16  -2  11    1.04    0.34
 -16  -2 -11    0.49    0.46
  16  -2  11    0.76    0.45
 -16   2 -11    0.72    0.51
  16   2  11    0.56    0.44
 -18  -2 -11   10.99    1.22
  18  -2  11   11.78    1.02
  18  -2  11   10.42    1.08
  18   2  11   11.83    1.36
 -18   2 -11    9.62    1.15
  20  -2  11    7.71    0.78
  20  -2  11    7.09    0.91
 -20  -2 -11    6.91    1.09
 -20   2 -11    7.04    1.07
  20   2  11    7.17    1.04
 -22  -2 -11    4.30    0.84
  22  -2  11    4.01    0.64
  22  -2  11    4.55    0.51
 -22   2 -11    4.49    0.90
  22   2  11    3.36    0.66
 -24  -2 -11    0.58    0.23
 -24   2 -11    1.01    0.48
  27  -3 -11   21.37    1.93
 -27  -3  11   24.01    1.93
  27  -3 -11   22.20    1.59
 -27   3  11   21.29    1.58
  27   3 -11   21.42    1.82
  25  -3 -11    0.62    0.47
 -25  -3  11    0.25    0.38
  25   3 -11    0.80    0.34
 -23  -3  11   16.40    1.58
  23  -3 -11   17.69    1.34
  23  -3 -11   16.85    1.68
  23   3 -11   13.40    1.40
 -23   3  11   19.19    1.52
  21  -3 -11    7.04    0.74
 -21  -3  11    5.25    0.96
  21  -3 -11    5.72    1.08
 -21   3  11    5.82    0.96
  21   3 -11    5.52    0.95
  19  -3 -11   15.65    1.55
  19  -3 -11   16.69    1.19
 -19  -3  11   16.93    1.50
  19   3 -11   16.15    1.47
 -19   3  11   14.28    1.37
  17  -3 -11    0.40    0.47
  17  -3 -11    0.94    0.19
 -17  -3  11    0.64    0.51
  17   3 -11    0.07    0.38
 -17   3  11    0.39    0.45
  15  -3 -11    8.42    0.71
 -15  -3  11    7.72    1.03
  15  -3 -11    7.41    1.10
  15   3 -11    7.25    1.02
 -15   3  11    7.15    1.00
  13  -3 -11   57.33    2.06
 -13  -3  11   56.87    2.60
  13  -3 -11   53.16    2.78
 -13  -3  11   54.38    1.97
  13   3 -11   59.98    2.76
 -13   3  11   54.69    2.58
  13   3 -11   56.82    2.62
 -11  -3  11   14.40    1.20
 -11  -3  11   15.20    0.91
  11  -3 -11   14.65    1.38
  11  -3 -11   15.87    0.87
  11   3 -11   14.71    1.28
  11   3 -11   17.48    1.32
 -11   3  11   14.84    1.27
  -9  -3  11    1.51    0.48
   9  -3 -11    2.99    0.26
  -9  -3  11    3.00    0.40
   9  -3 -11    1.59    0.58
  -9   3  11    3.07    0.26
  -9   3  11    1.96    0.55
   9   3 -11    1.98    0.57
   9   3 -11    3.40    0.58
   7  -3 -11   43.13    2.35
  -7  -3  11   42.00    1.95
  -7  -3  11   43.90    1.75
   7   3 -11   41.79    1.59
  -7   3  11   40.51    2.05
   7   3 -11   40.02    2.09
  -7   3  11   44.41    1.65
   7   3 -11   42.53    2.05
  -5  -3  11   21.00    1.20
   5  -3 -11   21.62    1.61
  -5  -3  11   19.77    1.22
  -5   3  11   20.42    1.39
  -5   3  11   21.83    1.15
   5   3 -11   19.70    1.36
   5   3 -11   18.28    1.31
   5   3 -11   22.74    1.08
   3  -3 -11   82.98    3.42
  -3  -3  11   86.52    2.81
  -3  -3  11   84.77    2.80
   3   3 -11   88.48    3.02
   3   3 -11   86.92    3.17
   3   3 -11   90.29    2.73
  -3   3  11   93.88    2.88
   1  -3 -11    0.98    0.40
  -1  -3  11    0.63    0.35
  -1  -3  11    1.16    0.26
   1  -3 -11    0.71    0.46
   1   3 -11    0.73    0.39
   1   3 -11    0.63    0.37
  -1   3  11    0.92    0.40
  -1   3  11    0.81    0.35
   1  -3  11   41.76    1.88
  -1  -3 -11   41.38    1.89
   1  -3  11   41.08    1.52
  -1  -3 -11   41.55    2.17
  -1   3 -11   38.40    1.83
   1   3  11   39.54    1.78
  -1   3 -11   42.75    1.72
  -1   3 -11   41.49    1.95
   1   3  11   41.18    1.90
   3  -3  11   23.49    1.41
  -3  -3 -11   22.71    1.35
   3  -3  11   23.71    0.97
  -3  -3 -11   22.87    1.55
  -3   3 -11   23.00    1.40
  -3   3 -11   24.74    1.27
   3   3  11   21.38    1.40
   3   3  11   22.84    1.33
  -3   3 -11   22.34    1.36
  -5  -3 -11   98.36    3.19
  -5  -3 -11   92.85    3.44
   5  -3  11   98.33    3.27
   5   3  11   96.04    3.22
   5   3  11   98.98    3.40
  -5   3 -11   95.42    3.26
  -5   3 -11   94.72    3.18
  -5   3 -11   98.72    3.11
   7  -3  11    2.23    0.58
  -7  -3 -11    4.22    0.59
  -7  -3 -11    2.82    0.63
  -7   3 -11    3.23    0.57
  -7   3 -11    3.42    0.64
   7   3  11    2.71    0.67
  -7   3 -11    3.77    0.65
   7   3  11    4.16    0.62
  -9  -3 -11   42.49    1.89
  -9  -3 -11   42.80    2.18
   9  -3  11   42.81    2.12
   9   3  11   41.47    2.20
  -9   3 -11   40.82    1.94
  -9   3 -11   45.32    2.06
   9   3  11   42.79    2.05
  -9   3 -11   44.15    2.06
 -11  -3 -11    0.98    0.25
 -11  -3 -11    0.19    0.32
  11  -3  11    0.53    0.41
 -11   3 -11    0.42    0.39
  11   3  11    1.24    0.31
 -11   3 -11    0.50    0.37
  11   3  11    0.53    0.45
 -11   3 -11    0.01    0.37
 -13  -3 -11  111.63    3.52
 -13  -3 -11  107.51    3.96
  13  -3  11  110.76    3.88
  13  -3  11  116.84    3.79
  13   3  11  109.70    3.90
  13   3  11  108.31    4.10
 -13   3 -11  108.52    3.81
  15  -3  11   10.76    1.13
 -15  -3 -11   11.85    0.83
 -15  -3 -11    9.69    1.12
  15  -3  11   10.54    1.06
  15   3  11   11.59    1.36
 -15   3 -11    9.56    1.07
  17  -3  11   10.67    1.11
  17  -3  11   11.07    1.09
 -17  -3 -11   11.12    1.22
 -17   3 -11   10.18    1.15
  17   3  11   11.66    1.28
  19  -3  11    8.10    0.89
 -19  -3 -11    8.18    1.11
  19  -3  11    7.22    0.82
  19   3  11    7.91    1.16
 -19   3 -11    7.93    1.10
  21  -3  11   21.73    1.54
  21  -3  11   21.82    1.57
 -21  -3 -11   23.81    1.77
 -21   3 -11   21.43    1.72
  21   3  11   22.10    1.82
 -23  -3 -11    9.22    1.00
  23  -3  11    8.82    0.83
  23  -3  11    6.78    0.76
 -23   3 -11    8.22    1.12
  23   3  11    9.00    1.13
  26  -4 -11    2.89    0.32
 -26  -4  11    2.39    0.65
  26  -4 -11    1.34    0.59
  26   4 -11    1.94    0.56
 -26   4  11    3.35    0.17
  24  -4 -11   34.45    2.54
  24  -4 -11   37.08    2.05
 -24  -4  11   33.79    2.33
  24   4 -11   38.35    2.52
 -24   4  11   32.48    2.05
  22  -4 -11   27.79    1.66
  22  -4 -11   23.78    2.06
 -22  -4  11   21.03    1.82
  22   4 -11   24.55    1.94
 -22   4  11   23.47    1.74
  20  -4 -11   23.25    1.43
  20  -4 -11   17.99    1.74
 -20  -4  11   20.00    1.69
  20   4 -11   20.32    1.73
 -20   4  11   19.68    1.58
  18  -4 -11    8.24    1.23
  18  -4 -11    8.39    0.74
 -18  -4  11    8.35    1.15
 -18   4  11    7.73    1.12
  18   4 -11    7.91    1.15
  16  -4 -11   70.89    2.54
 -16  -4  11   69.59    3.15
  16  -4 -11   70.75    3.48
 -16   4  11   69.24    3.14
  16   4 -11   73.17    3.27
 -14  -4  11   26.95    1.81
 -14  -4  11   28.84    1.44
  14  -4 -11   30.06    2.15
 -14   4  11   27.75    1.87
  14   4 -11   30.98    1.94
  14   4 -11   29.89    1.97
  12  -4 -11   26.06    1.96
 -12  -4  11   23.78    1.31
 -12  -4  11   25.09    1.67
  12   4 -11   25.52    1.73
  12   4 -11   25.66    1.77
 -12   4  11   26.19    1.77
  10  -4 -11   26.91    1.94
 -10  -4  11   28.59    1.46
 -10  -4  11   26.71    1.67
  10   4 -11   24.85    1.70
 -10   4  11   26.82    1.77
  10   4 -11   27.89    1.79
   8  -4 -11   85.05    3.61
  -8  -4  11   81.36    2.82
  -8  -4  11   82.36    3.06
  -8   4  11   84.73    2.63
   8   4 -11   84.04    3.37
  -8   4  11   85.05    3.32
   8   4 -11   80.09    3.18
  -6  -4  11   89.75    3.10
  -6  -4  11   88.62    2.99
   6  -4 -11   90.04    3.72
  -6   4  11   93.51    2.88
  -6   4  11   88.72    3.38
   6   4 -11   88.86    3.44
   6   4 -11   89.89    3.33
   4  -4 -11   13.18    1.31
   4  -4 -11   14.48    1.19
  -4  -4  11   13.35    1.05
  -4  -4  11   13.46    0.98
  -4   4  11   12.72    0.92
   4   4 -11   13.02    1.15
  -4   4  11   14.78    1.01
   4   4 -11   14.90    1.24
   2  -4 -11   17.03    1.27
  -2  -4  11   16.42    1.19
  -2  -4  11   19.07    1.09
   2  -4 -11   19.95    1.59
   2   4 -11   16.71    1.28
  -2   4  11   18.66    1.22
  -2   4  11   18.08    1.12
   2   4 -11   17.29    1.32
   0  -4  11   36.89    1.51
   0  -4 -11   34.80    1.85
   0  -4  11   36.93    1.83
   0  -4 -11   38.53    2.18
   0   4  11   36.68    1.84
   0   4 -11   37.03    1.91
   0   4  11   35.88    1.69
   0   4 -11   35.44    1.89
  -2  -4 -11   12.16    1.20
  -2  -4 -11   12.51    1.09
   2  -4  11   13.18    1.11
   2   4  11   12.74    1.11
   2   4  11   13.10    1.02
  -2   4 -11   13.69    1.12
  -2   4 -11   15.43    0.87
  -2   4 -11   13.06    1.14
  -4  -4 -11    2.72    0.66
   4  -4  11    2.59    0.60
  -4  -4 -11    2.68    0.58
  -4   4 -11    3.12    0.64
   4   4  11    3.18    0.62
  -4   4 -11    2.57    0.63
  -4   4 -11    4.36    0.41
   4   4  11    3.20    0.69
   6  -4  11    2.33    0.60
  -6  -4 -11    1.51    0.47
  -6  -4 -11    2.10    0.60
  -6   4 -11    3.37    0.38
   6   4  11    1.48    0.48
   6   4  11    1.83    0.62
  -6   4 -11    2.57    0.59
  -6   4 -11    2.02    0.59
  -8  -4 -11    2.71    0.65
   8  -4  11    2.60    0.63
  -8  -4 -11    2.39    0.54
  -8   4 -11    2.94    0.65
  -8   4 -11    2.80    0.63
  -8   4 -11    3.61    0.44
   8   4  11    2.79    0.56
   8   4  11    2.01    0.65
 -10  -4 -11   16.95    1.40
 -10  -4 -11   19.71    1.32
  10  -4  11   18.97    1.45
 -10   4 -11   17.66    1.22
 -10   4 -11   18.56    1.32
  10   4  11   17.12    1.49
  10   4  11   19.54    1.37
 -10   4 -11   18.27    1.43
 -12  -4 -11    3.15    0.66
  12  -4  11    2.65    0.66
 -12  -4 -11    3.19    0.52
 -12   4 -11    2.37    0.62
  12   4  11    2.61    0.52
 -12   4 -11    2.37    0.47
 -12   4 -11    2.04    0.65
  12   4  11    2.15    0.68
  14  -4  11   17.85    1.46
 -14  -4 -11   18.93    1.49
 -14  -4 -11   19.75    1.29
  14   4  11   16.69    1.55
  14   4  11   18.58    1.40
 -14   4 -11   19.59    1.40
  16  -4  11   13.04    1.24
  16  -4  11   12.81    1.23
 -16  -4 -11   14.56    1.05
 -16  -4 -11   12.63    1.23
 -16   4 -11   14.16    1.21
  16   4  11   12.37    1.37
  18  -4  11   24.76    1.74
 -18  -4 -11   29.32    1.94
  18  -4  11   25.76    1.78
 -18   4 -11   25.64    1.77
  18   4  11   29.21    2.14
  20  -4  11    5.60    0.82
  20  -4  11    5.79    0.87
 -20  -4 -11    6.72    0.80
 -20   4 -11    5.85    0.70
  20   4  11    4.99    0.90
  22  -4  11   18.62    1.44
 -22  -4 -11   20.16    1.59
  22  -4  11   19.86    1.54
 -22   4 -11   16.97    1.41
  22   4  11   19.12    1.69
  23  -5 -11   41.16    2.84
 -23  -5  11   39.12    2.53
 -23   5  11   41.36    2.36
  23   5 -11   42.50    2.70
  21  -5 -11   12.40    1.51
 -21  -5  11   13.05    1.37
  21   5 -11   13.28    1.44
 -21   5  11   14.49    1.26
  19  -5 -11   12.84    1.51
 -19  -5  11   12.08    1.33
  19   5 -11   13.32    1.43
 -19   5  11   14.51    1.32
 -17  -5  11    7.13    1.07
  17  -5 -11    7.87    1.22
 -17   5  11    6.60    1.06
  17   5 -11    7.79    1.20
 -15  -5  11   10.99    1.21
  15  -5 -11   11.09    1.43
  15   5 -11   11.46    1.14
  15   5 -11   11.09    1.37
 -15   5  11   10.40    1.21
 -13  -5  11   12.12    1.23
 -13  -5  11   13.17    0.98
  13  -5 -11   12.02    1.38
  13   5 -11   14.09    1.40
 -13   5  11   11.82    1.28
  13   5 -11   13.82    1.30
 -11  -5  11   30.06    1.66
  11  -5 -11   30.68    2.20
 -11  -5  11   31.51    1.89
 -11   5  11   29.62    1.98
  11   5 -11   31.83    2.02
  11   5 -11   29.53    2.00
   9  -5 -11    4.10    0.90
  -9  -5  11    4.16    0.70
  -9  -5  11    5.75    0.74
  -9   5  11    5.35    0.44
   9   5 -11    3.67    0.79
  -9   5  11    3.78    0.81
   9   5 -11    3.62    0.70
   7  -5 -11   69.91    2.97
   7  -5 -11   70.43    3.31
  -7  -5  11   68.40    2.71
  -7  -5  11   62.53    2.61
  -7   5  11   66.96    2.48
  -7   5  11   67.41    2.32
   7   5 -11   65.13    2.98
   7   5 -11   65.90    2.97
  -5  -5  11    4.26    0.73
  -5  -5  11    5.05    0.62
   5  -5 -11    4.58    0.89
   5  -5 -11    4.33    0.80
   5   5 -11    3.71    0.80
   5   5 -11    5.04    0.85
  -5   5  11    4.55    0.63
  -5   5  11    4.94    0.63
  -3  -5  11   89.69    3.26
   3  -5 -11   91.26    3.46
   3  -5 -11   95.41    3.89
  -3  -5  11   88.74    3.02
  -3   5  11   95.41    3.01
   3   5 -11   92.40    3.52
   3   5 -11   93.54    3.48
  -3   5  11   91.72    3.19
   1  -5 -11    1.03    0.53
   1  -5 -11    1.00    0.48
  -1  -5  11    0.96    0.46
  -1   5  11    1.29    0.41
   1   5 -11    0.86    0.45
  -1   5  11    1.34    0.43
   1   5 -11    0.66    0.47
   1  -5  11   83.29    3.17
  -1  -5 -11   86.33    3.31
  -1  -5 -11   85.63    3.61
   1   5  11   82.39    2.93
  -1   5 -11   90.56    3.32
   1   5  11   86.07    3.25
  -1   5 -11   89.63    3.37
  -3  -5 -11    0.19    0.32
   3  -5  11    0.11    0.36
  -3  -5 -11    0.29    0.31
   3   5  11    0.28    0.31
  -3   5 -11    0.03    0.38
  -3   5 -11    0.22    0.34
   3   5  11    0.09    0.33
  -5  -5 -11   87.68    3.55
   5  -5  11   89.45    3.34
  -5  -5 -11   84.56    3.27
   5   5  11   80.48    3.29
   5   5  11   81.70    3.09
  -5   5 -11   88.00    3.39
  -5   5 -11   88.94    3.26
  -7  -5 -11    1.46    0.45
   7  -5  11    0.40    0.39
  -7  -5 -11    0.50    0.40
  -7   5 -11    1.19    0.47
  -7   5 -11    0.70    0.53
   7   5  11    0.62    0.42
   7   5  11    0.80    0.52
   9  -5  11  154.03    4.85
  -9  -5 -11  153.10    5.06
  -9  -5 -11  150.82    4.81
   9   5  11  149.78    5.03
  -9   5 -11  153.38    4.94
  -9   5 -11  154.76    4.72
   9   5  11  144.88    4.75
 -11  -5 -11    2.01    0.46
 -11  -5 -11    2.00    0.50
  11  -5  11    1.40    0.57
 -11   5 -11    0.91    0.57
 -11   5 -11    0.94    0.46
  11   5  11    1.49    0.63
  11   5  11    2.23    0.50
 -11   5 -11    2.72    0.22
 -13  -5 -11   71.47    3.16
  13  -5  11   69.04    3.08
 -13  -5 -11   72.55    3.00
 -13   5 -11   68.88    2.84
  13   5  11   70.28    3.36
 -13   5 -11   68.74    3.13
 -13   5 -11   68.87    2.86
  13   5  11   63.36    2.98
 -15  -5 -11    9.20    0.85
  15  -5  11    9.70    1.06
 -15  -5 -11   10.04    1.01
  15   5  11    9.34    0.97
 -15   5 -11    7.99    1.02
 -15   5 -11    9.79    1.27
  15   5  11    9.05    1.25
 -15   5 -11    9.45    0.86
 -17  -5 -11   89.28    3.73
  17  -5  11   86.80    3.60
 -17  -5 -11   89.43    3.47
  17   5  11   83.29    3.93
 -17   5 -11   84.74    3.49
 -17   5 -11   85.06    3.43
 -19  -5 -11    8.69    0.89
  19  -5  11    8.39    0.87
  19  -5  11    8.64    1.11
  19   5  11    7.70    1.14
 -19   5 -11    8.64    0.78
 -20  -6  11   35.98    2.39
  20  -6 -11   40.70    2.78
 -20   6  11   39.31    2.32
  20   6 -11   34.67    2.39
 -18  -6  11    5.90    0.97
  18  -6 -11    6.16    1.08
  18   6 -11    6.55    1.06
 -18   6  11    5.93    0.83
 -16  -6  11   25.25    1.88
  16  -6 -11   26.96    2.16
 -16   6  11   27.88    1.96
  16   6 -11   26.44    2.03
 -14  -6  11   24.19    1.78
  14  -6 -11   23.99    2.02
 -14  -6  11   23.14    1.51
  14   6 -11   26.32    1.90
  14   6 -11   23.72    1.92
 -14   6  11   25.32    1.91
  12  -6 -11   44.61    2.72
 -12  -6  11   41.34    2.35
 -12  -6  11   42.12    2.18
 -12   6  11   41.85    2.50
  12   6 -11   41.41    2.51
  12   6 -11   47.80    2.67
  10  -6 -11   53.29    2.97
 -10  -6  11   53.08    2.49
 -10  -6  11   54.97    2.61
  10   6 -11   51.67    2.77
  10   6 -11   50.39    2.75
 -10   6  11   55.50    2.89
  -8  -6  11   64.13    2.78
   8  -6 -11   63.11    2.98
   8  -6 -11   66.11    3.25
  -8  -6  11   65.75    2.82
  -8   6  11   62.30    2.26
   8   6 -11   63.96    3.07
  -8   6  11   64.04    2.52
   8   6 -11   64.79    3.10
   6  -6 -11   51.22    2.61
  -6  -6  11   51.65    2.34
  -6  -6  11   46.73    2.36
   6  -6 -11   53.48    2.86
  -6   6  11   49.22    2.21
   6   6 -11   50.75    2.64
   6   6 -11   46.01    2.55
  -6   6  11   48.91    1.98
   4  -6 -11   29.93    1.92
  -4  -6  11   28.37    1.82
   4  -6 -11   29.93    2.05
  -4  -6  11   28.79    1.60
   4   6 -11   30.03    1.97
  -4   6  11   30.97    1.76
  -4   6  11   28.98    1.49
   4   6 -11   27.59    1.90
   2  -6 -11   37.12    2.27
   2  -6 -11   35.66    2.13
  -2  -6  11   35.27    1.73
  -2  -6  11   35.93    2.08
  -2   6  11   34.12    1.69
   2   6 -11   37.29    2.14
   2   6 -11   36.18    2.17
  -2   6  11   36.17    1.97
   0  -6 -11   12.75    1.27
   0  -6  11   10.39    1.14
   0  -6 -11   11.29    1.18
   0   6 -11   11.15    1.15
   0   6  11    9.85    0.91
   0   6  11   11.38    1.11
   0   6 -11   11.07    1.20
  -2  -6 -11   12.22    1.18
  -2  -6 -11    8.72    1.05
   2  -6  11   10.39    1.14
   2   6  11    9.69    1.15
  -2   6 -11    9.42    1.03
   2   6  11    8.65    0.89
  -2   6 -11    9.54    1.20
   4  -6  11    0.80    0.49
  -4  -6 -11    0.81    0.48
  -4  -6 -11    1.75    0.43
   4   6  11    1.28    0.45
  -4   6 -11    1.19    0.50
   4   6  11    0.55    0.43
  -4   6 -11    0.64    0.50
  -6  -6 -11   16.90    1.40
   6  -6  11   14.73    1.36
  -6  -6 -11   16.38    1.41
  -6   6 -11   15.09    1.28
   6   6  11   15.70    1.25
  -6   6 -11   16.18    1.47
   6   6  11   15.33    1.46
  -8  -6 -11    5.29    0.64
  -8  -6 -11    4.00    0.79
   8  -6  11    5.38    0.90
  -8   6 -11    4.24    0.86
   8   6  11    4.36    0.75
   8   6  11    2.52    0.74
  -8   6 -11    3.98    0.77
  10  -6  11   24.05    1.76
 -10  -6 -11   23.33    1.66
 -10  -6 -11   25.76    1.77
 -10   6 -11   23.32    1.57
  10   6  11   24.97    1.67
  10   6  11   22.65    1.88
 -10   6 -11   21.79    1.74
 -12  -6 -11    8.55    0.86
 -12  -6 -11    6.57    0.79
  12  -6  11    7.57    1.03
  12   6  11    5.75    1.05
 -12   6 -11    6.29    1.06
  12   6  11    6.42    0.86
 -12   6 -11    6.26    0.91
 -14  -6 -11   40.70    2.23
  14  -6  11   42.69    2.43
  14   6  11   37.96    2.49
 -14   6 -11   38.70    2.44
  14   6  11   36.41    2.18
 -14   6 -11   37.44    2.09
  16  -6  11   10.17    1.09
 -16  -6 -11   11.19    0.97
  16   6  11    8.53    1.23
 -16   6 -11    8.70    0.96
 -16   6 -11    8.41    1.23
  16   6  11    9.23    0.93
 -17  -7  11   13.41    1.34
  17  -7 -11   13.41    1.39
 -17   7  11   13.50    1.24
  17   7 -11   14.95    1.40
 -15  -7  11   10.23    0.89
  15  -7 -11   13.63    1.39
 -15  -7  11   11.67    1.21
 -15   7  11   12.04    1.22
  15   7 -11   13.40    1.38
  15   7 -11   12.47    1.25
 -13  -7  11   11.10    0.98
  13  -7 -11   12.60    1.32
 -13  -7  11   11.21    1.11
  13   7 -11   11.68    1.31
  13   7 -11   10.64    1.12
 -13   7  11   10.86    1.23
  11  -7 -11   24.77    1.95
 -11  -7  11   26.41    1.71
 -11  -7  11   21.98    1.65
 -11   7  11   25.19    1.97
  11   7 -11   24.62    1.95
  11   7 -11   26.00    1.93
  -9  -7  11    2.66    0.51
  -9  -7  11    2.09    0.39
   9  -7 -11    1.98    0.51
   9   7 -11    1.63    0.63
   9   7 -11    2.05    0.45
   7  -7 -11   43.15    2.60
  -7  -7  11   45.52    2.30
  -7  -7  11   42.45    2.37
   7  -7 -11   42.05    2.47
   7   7 -11   41.54    2.55
   7   7 -11   46.64    2.58
  -7   7  11   41.13    1.80
  -7   7  11   42.54    2.10
  -5  -7  11    1.44    0.48
   5  -7 -11    0.85    0.44
  -5   7  11    0.42    0.31
   5   7 -11    0.54    0.32
   5   7 -11    0.09    0.45
   3  -7 -11   96.46    4.09
  -3  -7  11   88.40    3.68
   3  -7 -11   92.03    3.83
  -3   7  11   90.82    3.11
  -3   7  11   94.82    3.59
   3   7 -11   93.92    3.84
   3   7 -11   91.94    3.88
  -1  -7  11    0.16    0.31
   1  -7 -11   -0.06    0.29
   1   7 -11   -0.18    0.38
  -1   7  11    0.87    0.27
  -1   7  11    0.12    0.28
   1   7 -11    0.05    0.28
   1  -7  11   64.33    3.10
  -1  -7 -11   67.58    3.19
  -1  -7 -11   66.12    3.13
   1   7  11   64.92    2.65
   1   7  11   61.70    2.95
  -1   7 -11   62.85    2.97
  -1   7 -11   68.03    3.23
   3  -7  11    1.14    0.57
  -3  -7 -11    0.36    0.43
  -3   7 -11    0.52    0.42
  -3   7 -11    1.37    0.62
   3   7  11    1.26    0.42
   3   7  11    1.08    0.49
   5  -7  11   95.65    3.89
  -5  -7 -11   88.93    3.77
   5   7  11   88.87    3.40
   5   7  11   92.58    3.90
  -5   7 -11   90.73    3.89
  -5   7 -11   92.74    3.59
  -7  -7 -11    0.77    0.37
   7  -7  11    1.61    0.45
   7   7  11    1.85    0.47
   7   7  11    0.42    0.40
  -7   7 -11    0.61    0.52
  -7   7 -11    1.01    0.44
  -9  -7 -11   60.42    3.02
   9  -7  11   62.88    3.11
   9   7  11   59.59    2.83
   9   7  11   57.25    3.14
  -9   7 -11   62.98    2.81
  -9   7 -11   59.04    3.11
 -11  -7 -11    2.08    0.47
  11  -7  11    2.66    0.61
  11   7  11    1.36    0.52
 -11   7 -11    2.17    0.70
  11   7  11    1.75    0.32
 -11   7 -11    1.38    0.44
  13  -7  11  122.37    4.71
 -13  -7 -11  125.06    4.69
 -13   7 -11  120.12    4.80
 -13   7 -11  128.28    4.33
  13   7  11  119.81    4.93
  13   7  11  116.61    4.54
 -10  -8  11   29.16    1.94
 -10  -8  11   26.11    1.83
  10  -8 -11   29.80    2.13
 -10   8  11   26.29    2.04
  10   8 -11   26.34    1.96
  10   8 -11   26.35    1.96
   8  -8 -11   20.72    1.71
  -8  -8  11   19.74    1.50
  -8  -8  11   18.35    1.46
   8  -8 -11   19.88    1.64
  -8   8  11   20.52    1.15
   8   8 -11   19.95    1.64
   8   8 -11   20.40    1.70
  -6  -8  11   32.32    2.10
  -6  -8  11   30.97    1.86
   6  -8 -11   31.59    2.17
  -6   8  11   30.39    1.82
   6   8 -11   31.15    2.10
  -6   8  11   30.86    1.55
   6   8 -11   29.32    2.14
  -4  -8  11   29.02    2.05
   4  -8 -11   34.01    2.24
   4   8 -11   33.08    2.27
  -4   8  11   31.90    1.91
  -4   8  11   34.49    1.70
   4   8 -11   31.93    2.16
  -2  -8  11   26.68    1.94
   2  -8 -11   26.42    1.97
   2   8 -11   26.56    1.92
  -2   8  11   28.05    1.80
   2   8 -11   25.27    1.96
  -2   8  11   25.00    1.51
   0  -8  11   13.41    1.37
   0  -8 -11   13.06    1.33
   0   8  11   13.23    1.10
   0   8 -11   14.78    1.35
   0   8  11   14.96    1.24
   0   8 -11   14.67    1.48
   2  -8  11   13.51    1.37
  -2  -8 -11   12.89    1.35
   2   8  11   13.93    1.14
  -2   8 -11   14.56    1.47
   2   8  11   15.56    1.35
  -2   8 -11   13.82    1.30
  -4  -8 -11    4.46    0.79
   4  -8  11    5.33    0.93
   4   8  11    6.10    0.82
  -4   8 -11    6.22    0.86
   4   8  11    5.12    0.85
  -4   8 -11    4.33    0.89
  -6  -8 -11    9.91    1.15
   6  -8  11   10.45    1.16
   6   8  11    9.92    1.10
  -6   8 -11    9.99    1.01
  -6   8 -11    8.93    1.25
   6   8  11   10.88    1.04
  28   0 -12   34.11    2.21
 -28   0  12   34.11    2.25
 -28   0  12   31.70    2.11
 -26   0  12    1.72    0.59
  26   0 -12    2.46    0.58
  26   0 -12    2.74    0.51
  24   0 -12   62.56    2.94
  24   0 -12   61.08    2.89
 -24   0  12   60.12    3.07
  22   0 -12   15.13    1.33
  22   0 -12   16.48    1.35
 -22   0  12   15.33    1.46
 -20   0  12   56.89    2.83
  20   0 -12   59.53    2.63
  20   0 -12   62.30    2.79
  18   0 -12   -0.07    0.20
  18   0 -12    0.15    0.25
 -18   0  12    0.08    0.41
  16   0 -12  162.17    4.63
  16   0 -12  156.49    4.92
 -16   0  12  156.46    5.07
 -14   0  12    0.33    0.38
  14   0 -12    0.32    0.37
  14   0 -12    0.42    0.31
  12   0 -12  251.68    6.74
 -12   0  12  242.65    6.73
  12   0 -12  247.41    6.09
  10   0 -12    0.38    0.23
  10   0 -12    0.44    0.36
 -10   0  12    0.26    0.35
  -8   0  12  164.33    4.81
   8   0 -12  161.95    4.90
   8   0 -12  157.33    4.16
  -8   0  12  159.05    3.77
   6   0 -12    0.06    0.33
  -6   0  12    0.24    0.34
   6   0 -12    0.47    0.16
  -6   0  12    1.13    0.21
   4   0 -12   91.13    3.28
   4   0 -12   90.27    2.66
  -4   0  12   96.05    2.74
   4   0 -12   91.05    3.11
  -4   0  12   91.41    3.11
  -2   0  12    5.54    0.59
   2   0 -12    6.26    0.81
   2   0 -12    7.88    0.67
  -2   0  12    5.70    0.68
   2   0 -12    5.93    0.50
   0   0  12    5.97    0.68
   0   0  12    6.16    0.64
   0   0 -12    7.00    0.52
   0   0 -12    6.35    0.60
   0   0 -12    6.23    0.80
  -2   0 -12    1.03    0.22
  -2   0 -12    0.11    0.30
  -2   0 -12    0.78    0.18
   2   0  12    0.79    0.35
   2   0  12    0.65    0.25
  -4   0 -12   31.95    1.59
   4   0  12   30.04    1.61
   4   0  12   34.19    1.44
  -4   0 -12   32.05    1.26
  -4   0 -12   31.55    1.68
  -6   0 -12    3.26    0.39
  -6   0 -12    1.00    0.43
   6   0  12    0.82    0.44
  -6   0 -12    1.40    0.26
   6   0  12    1.90    0.22
  -8   0 -12   35.31    1.42
  -8   0 -12   34.04    1.71
  -8   0 -12   34.58    1.85
   8   0  12   33.79    1.82
  10   0  12   15.34    1.25
  10   0  12   16.77    0.91
 -10   0 -12   15.38    1.26
  12   0  12  203.33    5.74
 -12   0 -12  196.51    5.87
  12   0  12  206.16    5.01
  14   0  12    1.79    0.59
 -14   0 -12    1.90    0.61
  14   0  12    2.99    0.27
 -16   0 -12   52.87    2.65
  16   0  12   53.40    2.62
  16   0  12   53.71    2.08
  18   0  12    8.91    0.67
  18   0  12    8.30    1.05
 -18   0 -12    7.80    1.11
  20   0  12  134.37    4.64
 -20   0 -12  131.37    4.86
 -22   0 -12    1.88    0.61
  22   0  12    3.43    0.60
  24   0  12   37.35    2.22
 -24   0 -12   32.60    2.29
 -29  -1  12   36.26    2.38
  29  -1 -12   35.91    2.26
 -29   1  12   36.03    2.25
  29   1 -12   34.70    2.31
  27  -1 -12   15.84    1.36
  27  -1 -12   16.06    1.42
 -27  -1  12   16.21    1.55
 -27   1  12   17.66    1.49
  27   1 -12   16.68    1.53
  25  -1 -12   54.44    2.69
  25  -1 -12   57.45    2.95
 -25  -1  12   52.95    2.92
  25   1 -12   56.73    2.59
 -25   1  12   52.01    2.82
  25   1 -12   57.21    2.87
 -23  -1  12    0.01    0.41
  23  -1 -12    0.70    0.27
  23  -1 -12    0.80    0.32
 -23   1  12    0.41    0.47
  23   1 -12    0.50    0.34
  21  -1 -12   62.46    2.70
 -21  -1  12   60.00    2.97
  21  -1 -12   61.33    2.98
  21   1 -12   60.63    2.80
 -21   1  12   57.48    2.89
  21   1 -12   61.16    2.64
 -19  -1  12    0.57    0.50
  19  -1 -12    0.94    0.35
  19  -1 -12    0.87    0.49
  19   1 -12    0.52    0.41
 -19   1  12    0.35    0.45
  19   1 -12    1.35    0.31
  17  -1 -12   75.62    2.85
  17  -1 -12   75.76    3.24
 -17  -1  12   76.53    3.25
 -17   1  12   77.58    3.25
  17   1 -12   79.61    3.06
  17   1 -12   72.74    2.86
 -15  -1  12    0.98    0.50
  15  -1 -12    2.02    0.40
  15  -1 -12    1.38    0.57
 -15   1  12    1.00    0.50
  15   1 -12    2.73    0.46
  15   1 -12    1.14    0.45
 -13  -1  12   93.59    3.53
  13  -1 -12   95.61    3.00
  13  -1 -12   92.59    3.58
  13   1 -12   95.84    3.26
  13   1 -12   97.43    3.30
 -13   1  12   94.30    3.50
 -11  -1  12   62.16    2.65
  11  -1 -12   57.32    2.09
 -11  -1  12   59.66    1.77
  11  -1 -12   59.88    2.71
  11   1 -12   60.05    2.42
 -11   1  12   60.19    2.62
  11   1 -12   60.82    2.38
   9  -1 -12   85.53    2.58
  -9  -1  12   85.07    2.36
   9  -1 -12   82.82    3.30
  -9  -1  12   83.70    3.11
   9   1 -12   85.73    3.02
   9   1 -12   87.22    2.90
  -9   1  12   85.30    2.27
  -9   1  12   81.91    3.11
   7  -1 -12   78.23    3.13
  -7  -1  12   75.59    2.26
   7  -1 -12   74.46    2.28
  -7  -1  12   74.60    2.83
   7   1 -12   77.06    2.84
   7   1 -12   75.61    2.60
  -7   1  12   76.85    2.91
   7   1 -12   77.57    2.94
  -7   1  12   76.29    2.23
  -5  -1  12   92.00    3.15
   5  -1 -12   93.89    3.50
   5  -1 -12   88.70    2.49
  -5  -1  12   90.94    2.67
   5   1 -12   93.90    3.24
   5   1 -12   93.21    3.21
  -5   1  12   94.16    2.69
   5   1 -12   94.67    2.93
  -5   1  12   92.01    3.18
   3  -1 -12  134.77    4.35
  -3  -1  12  128.16    3.54
   3  -1 -12  129.12    3.21
  -3  -1  12  137.21    3.98
  -3   1  12  137.53    4.04
  -3   1  12  130.68    3.56
   3   1 -12  126.68    4.01
   3   1 -12  136.88    4.10
   3   1 -12  139.81    3.71
  -1  -1  12   70.75    2.42
  -1  -1  12   76.21    2.56
   1  -1 -12   70.44    2.85
   1  -1 -12   72.62    1.99
   1   1 -12   75.64    2.71
   1   1 -12   76.73    2.42
  -1   1  12   71.56    2.46
  -1   1  12   72.30    2.60
   1   1 -12   74.02    2.69
  -1  -1 -12  105.83    3.60
   1  -1  12  108.24    3.23
  -1  -1 -12  104.87    2.60
   1  -1  12  105.37    3.14
   1   1  12  108.02    3.30
  -1   1 -12  104.24    3.43
   1   1  12  107.66    3.29
  -1   1 -12  103.21    3.01
  -1   1 -12  105.66    3.40
  -3  -1 -12  113.61    2.71
   3  -1  12  113.57    3.16
   3  -1  12  114.26    3.44
  -3  -1 -12  109.04    3.66
   3   1  12  114.73    3.38
   3   1  12  109.18    3.47
  -3   1 -12  104.62    3.48
  -3   1 -12  109.23    3.51
  -3   1 -12  111.06    3.13
  -5  -1 -12  192.43    4.27
   5  -1  12  195.06    4.70
  -5  -1 -12  186.34    5.44
   5  -1  12  196.12    5.18
  -5   1 -12  189.70    4.75
   5   1  12  199.67    5.03
  -5   1 -12  193.79    5.35
  -5   1 -12  188.66    5.29
   5   1  12  197.30    5.26
  -7  -1 -12  157.36    4.87
   7  -1  12  163.92    4.70
   7   1  12  167.77    4.35
  -7   1 -12  164.74    4.79
   7   1  12  162.49    4.76
  -7   1 -12  166.55    4.29
  -7   1 -12  164.52    4.72
  -9  -1 -12  142.74    4.53
   9  -1  12  146.50    4.40
  -9  -1 -12  140.87    3.75
  -9   1 -12  140.07    4.34
   9   1  12  138.97    4.39
  -9   1 -12  134.80    4.34
   9   1  12  146.20    4.35
  -9   1 -12  141.57    3.89
  11  -1  12   59.92    2.21
  11  -1  12   56.67    2.56
 -11  -1 -12   62.27    2.70
  11   1  12   59.72    2.67
 -11   1 -12   59.00    2.58
  13  -1  12  110.37    3.40
  13  -1  12  106.94    3.84
 -13  -1 -12  112.33    4.02
  13   1  12  110.48    3.95
 -13   1 -12  110.94    3.93
 -15  -1 -12    8.42    1.04
  15  -1  12    9.87    0.83
  15  -1  12    8.84    1.10
 -15   1 -12    8.94    1.15
  15   1  12    9.24    1.16
 -17  -1 -12   30.71    2.03
  17  -1  12   30.46    1.93
  17  -1  12   31.71    1.64
 -17   1 -12   28.78    1.94
  17   1  12   30.54    2.01
  19  -1  12    8.66    0.75
 -19  -1 -12    7.60    1.12
  19  -1  12    8.72    1.09
  19   1  12    7.70    1.08
 -19   1 -12    6.45    1.06
  21  -1  12   43.46    2.08
 -21  -1 -12   42.21    2.54
  21  -1  12   41.80    2.31
  21   1  12   43.78    2.50
 -21   1 -12   42.11    2.54
 -23  -1 -12    0.99    0.50
  23  -1  12    1.77    0.29
 -23   1 -12    0.34    0.41
 -25  -1 -12   41.85    2.61
  25  -1  12   44.12    2.39
  25  -1  12   44.11    2.21
 -25   1 -12   40.48    2.63
  25   1  12   42.49    2.47
 -28  -2  12   39.79    2.56
  28  -2 -12   43.53    2.71
  28  -2 -12   41.36    2.36
  28   2 -12   43.47    2.65
 -28   2  12   38.15    2.31
  26  -2 -12   16.83    1.62
 -26  -2  12   16.71    1.62
  26  -2 -12   18.12    1.43
 -26   2  12   17.25    1.46
  26   2 -12   18.11    1.62
  24  -2 -12   36.86    2.42
  24  -2 -12   33.88    2.01
 -24  -2  12   32.44    2.26
  24   2 -12   36.28    2.29
 -24   2  12   36.48    2.28
  22  -2 -12   -0.20    0.34
  22  -2 -12    0.94    0.24
 -22  -2  12    0.59    0.52
 -22   2  12    0.13    0.39
  22   2 -12    0.60    0.45
  20  -2 -12   41.22    2.49
 -20  -2  12   44.99    2.52
  20  -2 -12   43.13    2.11
  20   2 -12   42.49    2.37
 -20   2  12   41.26    2.38
 -18  -2  12   11.40    1.22
  18  -2 -12   12.15    0.98
  18  -2 -12   11.03    1.27
  18   2 -12   10.26    1.14
 -18   2  12    9.79    1.15
  16  -2 -12   92.25    3.78
 -16  -2  12   86.42    3.54
  16  -2 -12   86.29    3.01
  16   2 -12   94.77    3.50
  16   2 -12   88.25    2.99
 -16   2  12   93.38    3.62
  14  -2 -12    8.36    1.13
 -14  -2  12    8.46    1.01
  14  -2 -12    8.80    0.74
  14   2 -12    8.42    0.95
 -14   2  12    8.40    1.07
  14   2 -12    9.85    0.74
 -12  -2  12  198.26    4.63
 -12  -2  12  197.27    5.79
  12  -2 -12  201.72    4.98
  12  -2 -12  199.81    6.11
  12   2 -12  194.56    5.26
  12   2 -12  203.20    5.59
 -12   2  12  197.63    5.85
  10  -2 -12    1.58    0.59
 -10  -2  12    2.45    0.23
  10  -2 -12    2.23    0.23
 -10  -2  12    1.77    0.52
 -10   2  12    1.69    0.55
  10   2 -12    2.75    0.31
  10   2 -12    1.12    0.46
  10   2 -12    2.64    0.30
  -8  -2  12  176.90    5.17
  -8  -2  12  174.29    4.37
   8  -2 -12  178.15    5.63
   8  -2 -12  181.64    4.33
   8   2 -12  185.20    5.06
   8   2 -12  186.59    5.47
  -8   2  12  190.25    4.35
   8   2 -12  180.54    4.95
  -8   2  12  184.87    5.33
  -6  -2  12    0.96    0.25
  -6  -2  12    0.41    0.34
   6  -2 -12    0.06    0.33
   6   2 -12    0.42    0.34
  -6   2  12    0.28    0.37
  -6   2  12    0.99    0.19
   6   2 -12    1.17    0.23
   6   2 -12    0.54    0.17
  -4  -2  12   19.26    1.22
  -4  -2  12   20.52    1.15
   4  -2 -12   17.33    1.43
   4   2 -12   20.32    1.32
  -4   2  12   21.46    1.14
   4   2 -12   19.40    1.24
   4   2 -12   20.15    1.20
  -4   2  12   19.17    1.31
  -2  -2  12   17.21    1.07
  -2  -2  12   16.09    1.07
   2  -2 -12   15.68    1.32
  -2   2  12   16.93    1.08
   2   2 -12   17.29    1.20
  -2   2  12   15.32    1.15
   2   2 -12   17.55    1.14
   2   2 -12   17.82    1.12
   0  -2 -12    8.96    0.99
   0  -2  12   11.95    0.96
   0  -2  12   11.48    0.78
   0   2  12    9.72    0.92
   0   2 -12   10.28    0.88
   0   2 -12   10.73    0.92
   0   2 -12   11.04    0.87
   0   2  12   10.60    0.91
   2  -2  12    1.47    0.46
   2  -2  12    2.46    0.27
  -2  -2 -12    1.34    0.50
   2   2  12    1.09    0.43
  -2   2 -12    1.64    0.44
  -2   2 -12    1.33    0.41
  -2   2 -12    2.09    0.46
   4  -2  12    3.85    0.68
  -4  -2 -12    4.48    0.59
  -4  -2 -12    3.94    0.71
   4   2  12    4.01    0.60
   4   2  12    3.09    0.64
  -4   2 -12    4.90    0.70
  -4   2 -12    4.33    0.64
  -4   2 -12    4.31    0.61
   6  -2  12    2.51    0.59
  -6  -2 -12    2.70    0.63
  -6  -2 -12    3.40    0.47
   6   2  12    2.95    0.67
  -6   2 -12    2.90    0.56
   6   2  12    4.92    0.65
  -6   2 -12    3.28    0.61
  -6   2 -12    2.87    0.54
  -8  -2 -12  119.78    4.10
   8  -2  12  129.57    4.03
  -8  -2 -12  128.04    3.65
  -8   2 -12  123.57    3.71
   8   2  12  127.09    4.13
  -8   2 -12  121.52    3.94
   8   2  12  122.05    3.95
  -8   2 -12  123.09    3.94
 -10  -2 -12    5.79    0.88
 -10  -2 -12    6.78    0.57
  10  -2  12    6.04    0.89
 -10   2 -12    5.92    0.79
 -10   2 -12    4.72    0.75
  10   2  12    7.78    0.76
 -10   2 -12    5.64    0.81
  10   2  12    5.39    0.91
 -12  -2 -12   53.24    2.58
  12  -2  12   52.41    2.48
  12  -2  12   51.58    2.20
  12   2  12   55.04    2.66
 -12   2 -12   51.21    2.42
  14  -2  12   11.18    1.15
 -14  -2 -12   12.43    1.25
  14  -2  12   12.14    1.00
  14   2  12   12.44    1.29
 -14   2 -12   11.97    1.18
  16  -2  12  137.96    4.29
  16  -2  12  136.89    4.60
 -16  -2 -12  138.62    4.86
  16   2  12  137.07    4.84
 -16   2 -12  140.51    4.79
 -18  -2 -12    0.99    0.55
  18  -2  12    1.50    0.48
  18  -2  12    1.69    0.35
  18   2  12    1.20    0.50
 -18   2 -12    0.87    0.55
  20  -2  12   21.12    1.56
  20  -2  12   21.57    1.45
 -20  -2 -12   19.31    1.68
 -20   2 -12   18.17    1.62
  20   2  12   21.92    1.75
  22  -2  12    3.97    0.66
  22  -2  12    4.15    0.38
 -22  -2 -12    4.71    0.89
 -22   2 -12    3.24    0.78
  22   2  12    3.69    0.70
  24  -2  12   66.04    3.09
  24  -2  12   72.16    3.08
 -24  -2 -12   71.24    3.53
 -24   2 -12   67.78    3.46
  24   2  12   73.74    3.52
 -27  -3  12    1.25    0.40
  27  -3 -12    0.78    0.33
  27   3 -12    1.05    0.26
  25  -3 -12   39.96    2.20
  25  -3 -12   40.16    2.69
 -25  -3  12   36.14    2.46
 -25   3  12   41.78    2.43
  25   3 -12   41.58    2.53
  23  -3 -12    3.29    0.54
  23  -3 -12    2.53    0.79
 -23  -3  12    2.54    0.81
 -23   3  12    1.91    0.52
  23   3 -12    2.66    0.70
 -21  -3  12   50.84    2.81
  21  -3 -12   46.44    2.83
  21  -3 -12   51.50    2.35
 -21   3  12   51.83    2.76
  21   3 -12   51.01    2.76
  19  -3 -12    4.34    0.95
  19  -3 -12    5.75    0.63
 -19  -3  12    6.05    1.01
 -19   3  12    5.65    0.97
  19   3 -12    5.03    0.91
 -17  -3  12   44.15    2.48
  17  -3 -12   48.26    2.07
  17  -3 -12   45.75    2.67
  17   3 -12   47.34    2.50
 -17   3  12   46.47    2.51
  15  -3 -12   11.20    0.83
  15  -3 -12   10.40    1.25
 -15  -3  12    9.73    1.11
  15   3 -12   10.10    1.13
 -15   3  12    9.38    1.14
 -13  -3  12   44.71    2.32
  13  -3 -12   46.70    1.82
  13  -3 -12   43.30    2.53
 -13   3  12   45.72    2.38
  13   3 -12   46.52    2.36
 -11  -3  12   14.91    0.91
 -11  -3  12   14.34    1.23
  11  -3 -12   12.94    1.35
  11   3 -12   11.69    1.17
  11   3 -12   14.64    1.20
 -11   3  12   13.67    1.25
  -9  -3  12   24.38    1.56
   9  -3 -12   24.49    1.81
  -9  -3  12   24.22    1.25
  -9   3  12   23.91    1.61
   9   3 -12   23.93    1.60
  -9   3  12   26.18    1.15
   9   3 -12   25.56    1.66
  -7  -3  12   72.92    2.48
   7  -3 -12   73.84    3.27
  -7  -3  12   67.56    2.72
   7   3 -12   70.99    3.00
  -7   3  12   77.80    3.02
  -7   3  12   77.48    2.43
   7   3 -12   73.33    2.86
  -5  -3  12   63.37    2.44
  -5  -3  12   61.39    2.26
   5  -3 -12   63.82    2.99
   5   3 -12   65.16    2.25
  -5   3  12   64.10    2.68
   5   3 -12   63.04    2.57
   5   3 -12   62.16    2.69
  -5   3  12   63.23    2.25
  -3  -3  12   29.56    1.47
   3  -3 -12   31.28    2.01
  -3  -3  12   31.78    1.58
   3   3 -12   31.24    1.77
  -3   3  12   31.13    1.54
  -3   3  12   29.87    1.73
   3   3 -12   31.42    1.43
   3   3 -12   30.42    1.67
   1  -3 -12   18.83    1.31
  -1  -3  12   20.11    1.28
   1  -3 -12   21.60    1.60
  -1  -3  12   19.42    1.08
   1   3 -12   21.44    1.14
  -1   3  12   19.89    1.26
  -1   3  12   19.89    1.24
   1   3 -12   21.93    1.37
   1   3 -12   18.18    1.31
   1  -3  12  123.68    3.75
  -1  -3 -12  121.04    3.83
   1  -3  12  118.92    3.31
  -1  -3 -12  120.52    4.24
  -1   3 -12  117.74    3.89
   1   3  12  121.22    3.77
  -1   3 -12  126.31    3.64
  -1   3 -12  121.31    3.75
   1   3  12  118.48    3.70
  -3  -3 -12   95.65    3.59
  -3  -3 -12   95.39    3.24
   3  -3  12   93.28    3.23
  -3   3 -12   97.89    3.38
   3   3  12   98.26    3.39
  -3   3 -12   95.22    3.21
   3   3  12   94.37    3.23
  -3   3 -12  102.74    3.18
  -5  -3 -12   73.19    3.03
  -5  -3 -12   71.70    2.71
   5  -3  12   78.01    2.91
   5   3  12   74.60    2.79
  -5   3 -12   77.39    2.72
   5   3  12   75.37    2.95
  -5   3 -12   75.91    2.87
  -5   3 -12   71.51    2.74
   7  -3  12   36.30    1.94
  -7  -3 -12   33.99    1.97
  -7  -3 -12   36.63    1.76
   7   3  12   36.97    2.04
   7   3  12   35.70    1.85
  -7   3 -12   34.58    1.75
  -7   3 -12   36.73    1.92
  -7   3 -12   37.49    1.88
  -9  -3 -12   72.77    3.07
   9  -3  12   75.66    3.00
  -9  -3 -12   75.15    2.73
  -9   3 -12   73.72    2.87
  -9   3 -12   74.24    2.84
   9   3  12   72.95    3.12
  -9   3 -12   71.65    2.82
   9   3  12   75.73    2.96
  11  -3  12   76.61    3.15
 -11  -3 -12   77.32    3.25
 -11  -3 -12   79.52    2.84
  11   3  12   80.98    3.40
 -11   3 -12   78.72    3.03
 -11   3 -12   83.83    3.13
  11   3  12   78.07    3.12
 -11   3 -12   76.25    3.02
 -13  -3 -12   35.19    1.68
  13  -3  12   34.06    2.03
 -13  -3 -12   35.20    2.13
  13   3  12   35.44    1.95
 -13   3 -12   34.59    1.96
  13   3  12   34.47    2.20
  15  -3  12    1.16    0.49
  15  -3  12    1.08    0.38
 -15  -3 -12    0.83    0.51
 -15   3 -12    0.68    0.41
  15   3  12    0.15    0.38
 -17  -3 -12   20.10    1.69
  17  -3  12   24.29    1.58
  17  -3  12   23.55    1.72
  17   3  12   24.49    1.92
 -17   3 -12   22.75    1.70
  19  -3  12    1.70    0.43
  19  -3  12    1.88    0.35
 -19  -3 -12    0.05    0.34
  19   3  12    0.79    0.30
 -19   3 -12    1.16    0.47
 -21  -3 -12   31.18    2.13
  21  -3  12   26.70    1.74
  21  -3  12   28.03    1.88
 -21   3 -12   29.31    2.06
  21   3  12   30.36    2.19
  23  -3  12   12.02    1.08
  23  -3  12   11.27    1.01
 -23  -3 -12   11.19    1.15
  23   3  12   10.09    1.10
 -23   3 -12   10.57    1.15
  26  -4 -12    1.17    0.39
 -26  -4  12    1.25    0.40
  26   4 -12    1.17    0.38
  24  -4 -12    9.48    0.84
  24  -4 -12    9.50    1.41
 -24  -4  12   10.20    1.37
  24   4 -12    9.98    1.31
 -24   4  12   10.01    1.00
 -22  -4  12   18.36    1.68
  22  -4 -12   19.80    1.88
 -22   4  12   19.87    1.62
  22   4 -12   22.13    1.83
  20  -4 -12   23.52    2.04
 -20  -4  12   24.67    1.92
  20   4 -12   26.34    1.96
 -20   4  12   25.47    1.90
 -18  -4  12    2.46    0.75
  18  -4 -12    1.99    0.70
  18   4 -12    1.83    0.62
 -18   4  12    2.59    0.73
 -16  -4  12   25.69    1.87
  16  -4 -12   25.83    2.04
 -16   4  12   26.03    1.89
  16   4 -12   26.32    1.92
  14  -4 -12    5.17    1.01
 -14  -4  12    4.98    0.90
  14   4 -12    4.68    0.89
 -14   4  12    4.94    0.92
 -12  -4  12   62.52    2.38
  12  -4 -12   66.53    3.27
 -12  -4  12   61.16    2.82
  12   4 -12   70.85    3.14
 -12   4  12   65.33    2.99
  12   4 -12   64.28    2.96
  10  -4 -12    5.02    1.00
 -10  -4  12    5.18    0.82
 -10  -4  12    5.55    0.60
 -10   4  12    4.73    0.86
  10   4 -12    5.90    0.71
  10   4 -12    3.72    0.78
  -8  -4  12   58.14    2.33
  -8  -4  12   59.24    2.54
   8  -4 -12   59.74    3.02
   8   4 -12   62.19    2.84
  -8   4  12   60.57    2.15
  -8   4  12   58.57    2.74
   8   4 -12   56.45    2.64
  -6  -4  12   14.55    1.09
  -6  -4  12   13.51    1.06
   6  -4 -12   14.05    1.39
  -6   4  12   14.96    1.32
  -6   4  12   16.26    1.02
   6   4 -12   13.97    1.22
   6   4 -12   12.53    1.18
  -4  -4  12   15.72    1.09
  -4  -4  12   16.35    1.20
   4  -4 -12   17.50    1.52
   4  -4 -12   17.79    1.36
  -4   4  12   18.75    1.18
  -4   4  12   18.35    1.16
   4   4 -12   16.54    1.34
   4   4 -12   18.49    1.39
   2  -4 -12    0.14    0.40
  -2  -4  12    0.78    0.21
   2  -4 -12    0.52    0.40
  -2  -4  12    0.40    0.39
   2   4 -12    0.86    0.41
  -2   4  12    0.32    0.30
  -2   4  12    0.46    0.32
   2   4 -12    0.45    0.39
   0  -4 -12    1.15    0.47
   0  -4 -12    1.29    0.58
   0  -4  12    1.76    0.53
   0  -4  12    2.43    0.28
   0   4  12    1.58    0.45
   0   4 -12    1.59    0.55
   0   4  12    1.44    0.51
   0   4 -12    1.33    0.51
   2  -4  12    6.18    0.88
  -2  -4 -12    6.28    0.86
  -2  -4 -12    5.55    0.94
  -2   4 -12    5.66    0.83
   2   4  12    5.60    0.86
  -2   4 -12    7.82    0.58
   2   4  12    5.07    0.73
  -2   4 -12    5.27    0.81
   4  -4  12    9.08    1.04
  -4  -4 -12    8.55    0.92
  -4  -4 -12    9.09    1.09
  -4   4 -12   10.12    0.74
   4   4  12    9.43    1.13
  -4   4 -12    8.35    0.94
   4   4  12    7.03    0.82
  -4   4 -12    7.70    0.92
   6  -4  12   11.53    1.15
  -6  -4 -12   11.08    1.03
  -6  -4 -12   12.02    1.20
   6   4  12   11.60    1.05
   6   4  12   11.74    1.19
  -6   4 -12   10.95    1.05
  -6   4 -12   12.41    0.89
  -6   4 -12   13.00    1.18
   8  -4  12   14.17    1.26
  -8  -4 -12   13.75    1.29
  -8  -4 -12   14.88    1.17
   8   4  12   15.65    1.20
   8   4  12   13.58    1.32
  -8   4 -12   14.12    1.22
  -8   4 -12   14.78    1.06
  -8   4 -12   14.92    1.28
  10  -4  12    3.81    0.77
 -10  -4 -12    4.49    0.83
 -10  -4 -12    5.11    0.61
  10   4  12    3.59    0.82
 -10   4 -12    4.76    0.78
 -10   4 -12    3.70    0.76
 -10   4 -12    4.75    0.58
  10   4  12    4.33    0.69
 -12  -4 -12   33.83    1.80
  12  -4  12   32.09    2.03
 -12  -4 -12   32.30    2.05
  12   4  12   36.92    2.06
 -12   4 -12   33.23    2.00
 -12   4 -12   34.13    1.94
  12   4  12   32.56    2.14
 -12   4 -12   34.14    1.87
 -14  -4 -12    2.78    0.64
 -14  -4 -12    3.90    0.39
  14  -4  12    2.28    0.62
  14   4  12    3.58    0.58
  14   4  12    2.00    0.66
 -14   4 -12    2.14    0.61
 -14   4 -12    3.34    0.55
 -14   4 -12    2.29    0.72
 -16  -4 -12   25.48    1.82
  16  -4  12   22.82    1.70
 -16   4 -12   23.21    1.62
  16   4  12   24.99    1.98
 -18  -4 -12   10.71    1.08
  18  -4  12    8.58    0.97
  18  -4  12    9.24    1.04
 -18   4 -12    8.58    0.93
  18   4  12   10.81    1.37
  20  -4  12   22.43    1.67
 -20  -4 -12   25.94    1.87
  20  -4  12   23.42    1.72
 -20   4 -12   23.16    1.69
  20   4  12   26.68    2.04
 -22  -4 -12    4.96    0.56
  22   4  12    4.47    0.82
 -23  -5  12    1.10    0.34
  23   5 -12    0.36    0.24
 -21  -5  12   19.76    1.74
  21  -5 -12   16.08    1.73
  21   5 -12   18.84    1.72
 -21   5  12   17.23    1.48
 -19  -5  12    0.04    0.29
  19  -5 -12    0.19    0.41
 -19   5  12    1.11    0.33
  19   5 -12   -0.08    0.34
  17  -5 -12   14.83    1.62
 -17  -5  12   13.76    1.41
  17   5 -12   14.30    1.52
 -17   5  12   16.43    1.55
  15  -5 -12    1.18    0.66
 -15  -5  12    1.17    0.54
  15   5 -12    0.88    0.53
 -15   5  12    1.08    0.57
 -13  -5  12    9.09    1.07
  13  -5 -12    9.70    1.32
 -13  -5  12    8.97    0.77
 -13   5  12    9.29    1.22
  13   5 -12    9.44    1.02
  13   5 -12    8.60    1.22
  11  -5 -12    5.12    1.02
 -11  -5  12    7.08    0.69
 -11  -5  12    7.01    0.97
  11   5 -12    7.77    0.91
 -11   5  12    5.38    0.97
  11   5 -12    6.11    1.00
   9  -5 -12   10.48    1.37
  -9  -5  12   11.10    1.04
  -9  -5  12    9.82    0.89
  -9   5  12   10.42    1.19
   9   5 -12   12.29    1.18
   9   5 -12    9.67    1.12
  -7  -5  12   18.07    1.28
   7  -5 -12   18.94    1.71
  -7  -5  12   19.87    1.36
   7   5 -12   17.09    1.48
   7   5 -12   18.73    1.50
  -7   5  12   17.17    1.49
  -7   5  12   19.27    1.19
   5  -5 -12    0.38    0.45
   5  -5 -12    0.50    0.42
  -5  -5  12    0.12    0.33
  -5  -5  12    0.61    0.18
  -5   5  12    1.43    0.32
  -5   5  12    0.38    0.30
   5   5 -12    0.49    0.43
   5   5 -12    1.14    0.42
  -3  -5  12   25.80    1.63
   3  -5 -12   27.21    1.99
   3  -5 -12   23.61    1.66
  -3  -5  12   25.63    1.39
   3   5 -12   23.38    1.67
   3   5 -12   24.43    1.70
  -3   5  12   25.49    1.54
  -3   5  12   25.45    1.44
  -1  -5  12    5.04    0.46
   1  -5 -12    3.62    0.77
  -1  -5  12    4.70    0.80
   1  -5 -12    3.93    0.83
   1   5 -12    4.40    0.80
  -1   5  12    4.48    0.71
  -1   5  12    4.45    0.69
   1   5 -12    3.66    0.75
   1  -5  12   15.00    1.28
  -1  -5 -12   15.72    1.47
  -1  -5 -12   15.56    1.33
  -1   5 -12   16.03    1.36
   1   5  12   13.85    1.21
   1   5  12   14.91    1.14
  -1   5 -12   13.31    1.22
   3  -5  12   15.64    1.34
  -3  -5 -12   16.93    1.38
  -3  -5 -12   16.11    1.45
   3   5  12   15.04    1.33
  -3   5 -12   14.57    1.25
  -3   5 -12   14.68    1.32
   3   5  12   14.82    1.18
   5  -5  12   19.66    1.52
  -5  -5 -12   17.39    1.40
  -5  -5 -12   21.36    1.63
  -5   5 -12   18.97    1.51
  -5   5 -12   19.25    1.44
   5   5  12   17.94    1.49
   5   5  12   17.72    1.34
  -7  -5 -12   27.36    1.75
  -7  -5 -12   26.74    1.85
   7  -5  12   27.48    1.80
   7   5  12   26.32    1.87
   7   5  12   26.39    1.69
  -7   5 -12   30.24    1.94
  -7   5 -12   27.56    1.74
  -9  -5 -12   17.17    1.42
  -9  -5 -12   17.27    1.33
   9  -5  12   17.47    1.47
  -9   5 -12   17.24    1.37
   9   5  12   17.66    1.36
   9   5  12   16.83    1.55
  -9   5 -12   16.89    1.48
  11  -5  12   13.32    1.28
 -11  -5 -12   13.22    1.24
 -11  -5 -12   12.55    1.11
 -11   5 -12   12.51    1.20
 -11   5 -12   14.01    1.38
  11   5  12   12.60    1.15
  11   5  12   12.83    1.50
 -13  -5 -12    3.21    0.36
 -13  -5 -12    3.12    0.59
  13  -5  12    2.98    0.70
 -13   5 -12    2.10    0.71
  13   5  12    2.38    0.70
  13   5  12    1.92    0.44
 -13   5 -12    2.75    0.64
 -15  -5 -12    3.63    0.36
  15  -5  12    3.40    0.70
 -15  -5 -12    4.07    0.69
  15   5  12    3.09    0.55
 -15   5 -12    1.49    0.65
 -15   5 -12    2.94    0.69
 -15   5 -12    4.61    0.40
  15   5  12    2.38    0.70
  17  -5  12    7.44    0.99
 -17  -5 -12    8.13    0.89
 -17   5 -12    6.08    0.64
  17   5  12    4.96    0.94
 -17   5 -12    6.19    0.91
 -17   5 -12    5.92    1.05
  19  -5  12    5.03    0.76
 -19  -5 -12    6.09    0.74
 -19   5 -12    4.39    0.93
 -19   5 -12    6.37    0.55
  19   5  12    4.57    0.89
 -19   5 -12    5.36    0.82
  20  -6 -12    1.87    0.43
  20   6 -12    1.58    0.45
 -18  -6  12    7.94    1.12
  18  -6 -12    7.41    1.16
 -18   6  12    6.91    0.83
  18   6 -12    6.53    1.08
 -16  -6  12    4.03    0.77
  16  -6 -12    3.18    0.82
 -16   6  12    3.54    0.77
  16   6 -12    3.21    0.78
 -14  -6  12    6.63    0.98
 -14  -6  12    7.57    0.65
  14  -6 -12    7.49    1.18
  14   6 -12    7.03    0.85
  14   6 -12    7.73    1.16
 -14   6  12    6.60    1.08
 -12  -6  12    8.59    0.98
  12  -6 -12    9.13    1.28
 -12  -6  12    8.78    0.80
  12   6 -12    6.68    1.12
  12   6 -12    8.44    0.94
 -12   6  12    7.15    1.13
 -10  -6  12    8.66    0.86
 -10  -6  12    9.29    0.98
  10  -6 -12    9.79    1.33
  10   6 -12    9.35    1.02
  10   6 -12    9.03    1.26
 -10   6  12    8.24    1.19
   8  -6 -12   13.76    1.44
  -8  -6  12   13.34    1.13
  -8  -6  12   14.87    1.21
   8   6 -12   15.93    1.42
  -8   6  12   12.58    1.37
   8   6 -12   12.13    1.32
  -6  -6  12    0.88    0.20
   6  -6 -12    0.60    0.28
  -6  -6  12    0.89    0.25
   6  -6 -12    0.02    0.30
  -6   6  12    0.26    0.32
   6   6 -12    0.19    0.45
   6   6 -12    0.90    0.35
   4  -6 -12    2.67    0.72
   4  -6 -12    3.37    0.73
  -4  -6  12    4.52    0.51
  -4  -6  12    3.98    0.78
  -4   6  12    3.17    0.59
   4   6 -12    2.38    0.72
  -4   6  12    3.81    0.61
   4   6 -12    2.94    0.70
   2  -6 -12   14.16    1.37
   2  -6 -12   12.08    1.26
  -2  -6  12   13.43    1.27
   2   6 -12   13.24    1.30
  -2   6  12   13.60    1.14
   2   6 -12   12.83    1.31
  -2   6  12   13.03    1.04
   0  -6  12    0.42    0.40
   0  -6 -12    0.30    0.39
   0  -6 -12    1.15    0.33
   0   6 -12    0.60    0.40
   0   6  12    0.80    0.38
   0   6 -12    0.45    0.46
   0   6  12    1.05    0.31
  -2  -6 -12    0.63    0.46
   2  -6  12    1.22    0.60
  -2  -6 -12    1.81    0.46
  -2   6 -12    1.06    0.51
  -2   6 -12    0.76    0.53
   2   6  12    0.93    0.43
   2   6  12    1.21    0.49
  -4  -6 -12   -0.06    0.33
   4  -6  12    0.04    0.35
  -4   6 -12    0.10    0.39
   4   6  12    0.23    0.28
  -4   6 -12    0.59    0.47
   4   6  12    0.26    0.37
  -6  -6 -12    1.81    0.58
  -6  -6 -12    2.87    0.58
   6  -6  12    1.82    0.60
  -6   6 -12    1.70    0.55
   6   6  12    1.93    0.53
   6   6  12    1.90    0.61
  -6   6 -12    1.99    0.68
   8  -6  12    4.29    0.80
  -8  -6 -12    4.91    0.75
  -8  -6 -12    3.35    0.68
  -8   6 -12    5.78    0.93
   8   6  12    2.96    0.81
  -8   6 -12    4.61    0.90
   8   6  12    3.39    0.64
  10  -6  12    8.18    1.09
 -10  -6 -12    7.12    0.84
 -10  -6 -12    7.44    0.83
 -10   6 -12    6.55    0.96
 -10   6 -12    6.17    1.04
  10   6  12    6.99    1.16
  10   6  12    7.25    0.83
 -12  -6 -12    8.63    0.88
  12  -6  12    9.46    1.16
 -12  -6 -12    7.74    0.83
  12   6  12    8.07    1.22
 -12   6 -12    5.90    1.05
  12   6  12    7.02    0.83
 -12   6 -12    7.71    1.00
  14  -6  12    4.41    0.78
 -14  -6 -12    5.78    0.58
 -14  -6 -12    5.25    0.51
  14   6  12    5.03    0.60
 -14   6 -12    5.21    0.83
  14   6  12    4.82    0.92
 -14   6 -12    3.46    0.82
  16  -6  12    3.14    0.57
 -16  -6 -12    3.59    0.24
  16   6  12    2.49    0.57
 -16   6 -12    1.46    0.55
 -16   6 -12    3.06    0.57
 -15  -7  12    2.09    0.39
  15  -7 -12    2.10    0.33
 -15   7  12    1.63    0.33
  15   7 -12    1.37    0.35
 -13  -7  12    1.96    0.41
  13  -7 -12    1.45    0.32
  13   7 -12    1.25    0.46
 -13   7  12    1.16    0.34
  13   7 -12    1.85    0.22
 -11  -7  12    3.81    0.34
  11  -7 -12    3.88    0.71
 -11  -7  12    3.39    0.60
 -11   7  12    2.57    0.70
  11   7 -12    3.79    0.67
  11   7 -12    2.32    0.64
  -9  -7  12    1.62    0.15
   9  -7 -12    1.41    0.29
  -9   7  12    0.67    0.45
   9   7 -12    1.11    0.20
   7  -7 -12    2.15    0.46
   7  -7 -12    0.63    0.40
  -7  -7  12    0.72    0.15
   7   7 -12    0.91    0.24
   7   7 -12    0.81    0.49
  -7   7  12    0.36    0.22
   5  -7 -12    3.40    0.77
   5  -7 -12    3.61    0.67
  -5  -7  12    3.13    0.64
  -5  -7  12    3.13    0.36
  -5   7  12    3.41    0.28
   5   7 -12    1.65    0.64
  -5   7  12    2.32    0.50
   5   7 -12    3.11    0.64
   3  -7 -12    3.10    0.71
   3  -7 -12    4.57    0.76
  -3  -7  12    3.52    0.73
  -3   7  12    5.41    0.57
  -3   7  12    3.54    0.62
   3   7 -12    4.96    0.86
   3   7 -12    2.97    0.78
  -1  -7  12   -0.06    0.27
   1  -7 -12    1.65    0.34
   1  -7 -12    0.88    0.47
  -1   7  12    0.72    0.28
   1   7 -12    0.22    0.44
   1   7 -12    0.93    0.39
  -1   7  12    1.41    0.30
   1  -7  12    0.56    0.36
  -1  -7 -12    0.43    0.40
   1   7  12    1.02    0.40
  -1   7 -12    0.32    0.46
  -1   7 -12    1.26    0.38
   1   7  12    1.37    0.27
  -3  -7 -12    2.87    0.75
  -3  -7 -12    4.48    0.54
   3  -7  12    2.35    0.67
   3   7  12    3.30    0.72
   3   7  12    3.43    0.64
  -3   7 -12    3.81    0.74
  -3   7 -12    2.07    0.71
  -5  -7 -12    2.95    0.68
   5  -7  12    2.78    0.72
  -5   7 -12    3.07    0.82
   5   7  12    3.22    0.74
  -5   7 -12    3.19    0.66
   5   7  12    2.91    0.58
  -7  -7 -12    5.54    0.86
   7  -7  12    6.39    0.95
   7   7  12    5.04    0.95
  -7   7 -12    5.00    0.82
  -7   7 -12    3.44    0.85
   7   7  12    4.61    0.74
  -9  -7 -12    2.19    0.53
   9  -7  12    1.56    0.49
   9   7  12    1.98    0.61
  -9   7 -12    1.88    0.53
  -9   7 -12    1.38    0.47
   9   7  12    2.14    0.47
  11  -7  12    1.05    0.26
 -11   7 -12    0.60    0.34
  11   7  12    0.49    0.24
  11   7  12    1.34    0.23
 -11   7 -12    0.75    0.26
  -6  -8  12   12.70    1.19
   6  -8 -12   12.63    1.29
   6  -8 -12   13.05    1.23
  -6   8  12   12.54    0.95
   6   8 -12   11.01    1.25
   6   8 -12   12.14    1.16
  -4  -8  12    2.04    0.44
   4  -8 -12    1.15    0.29
  -4   8  12    1.15    0.30
   4   8 -12    1.37    0.37
   4   8 -12    1.83    0.39
  -2  -8  12    1.26    0.37
  -2   8  12    0.96    0.28
   2   8 -12    1.01    0.37
   2   8 -12    1.84    0.32
   0  -8 -12    3.54    0.73
   0  -8  12    3.57    0.74
   0   8 -12    2.82    0.71
   0   8  12    3.45    0.53
   0   8  12    3.24    0.36
   0   8 -12    3.84    0.68
   2  -8  12    1.18    0.32
  -2  -8 -12    0.89    0.30
   2   8  12    1.31    0.28
  -2   8 -12    0.81    0.41
 -28   0  13    1.09    0.30
 -26   0  13    0.52    0.28
  26   0 -13    0.96    0.33
 -24   0  13    0.29    0.46
  24   0 -13    0.74    0.18
  24   0 -13    0.62    0.24
 -22   0  13    0.31    0.50
  22   0 -13    1.14    0.30
  22   0 -13    0.21    0.21
  20   0 -13    0.24    0.24
  20   0 -13    0.65    0.22
 -20   0  13   -0.07    0.41
 -18   0  13   -0.07    0.34
  18   0 -13    0.38    0.20
  18   0 -13    0.53    0.29
 -16   0  13   -0.01    0.36
  16   0 -13    0.50    0.26
  16   0 -13    0.47    0.38
 -14   0  13    0.07    0.36
  14   0 -13    0.03    0.28
  14   0 -13    0.31    0.21
  12   0 -13    0.29    0.19
 -12   0  13   -0.01    0.39
  12   0 -13   -0.12    0.24
  10   0 -13   -0.20    0.27
  10   0 -13    0.17    0.17
 -10   0  13   -0.07    0.32
  -8   0  13   -0.20    0.30
   8   0 -13    0.02    0.13
   8   0 -13   -0.16    0.29
  -6   0  13    0.81    0.20
   6   0 -13    0.59    0.15
  -6   0  13    0.17    0.30
   6   0 -13    0.07    0.31
   4   0 -13    0.50    0.12
   4   0 -13   -0.16    0.24
  -4   0  13    0.43    0.15
  -4   0  13    0.10    0.28
   2   0 -13    0.55    0.13
  -2   0  13    0.26    0.24
  -2   0  13    0.15    0.24
   2   0 -13    0.10    0.36
   0   0 -13    0.53    0.12
   0   0 -13    0.07    0.31
   0   0  13    0.12    0.27
   0   0  13   -0.07    0.21
  -2   0 -13    0.11    0.31
   2   0  13    0.38    0.19
   2   0  13    0.19    0.31
  -4   0 -13   -0.02    0.33
   4   0  13    0.31    0.34
   4   0  13    0.57    0.15
  -4   0 -13    0.46    0.13
  -6   0 -13   -0.02    0.31
   6   0  13   -0.11    0.28
  -8   0 -13    0.68    0.16
   8   0  13    0.00    0.32
  -8   0 -13    0.56    0.14
  -8   0 -13    0.26    0.41
  10   0  13   -0.11    0.30
 -10   0 -13    0.11    0.40
 -12   0 -13   -0.06    0.40
  12   0  13   -0.03    0.33
  14   0  13    0.30    0.37
 -14   0 -13   -0.15    0.34
 -16   0 -13    0.04    0.41
  16   0  13    0.21    0.36
 -18   0 -13    0.33    0.43
  18   0  13    0.07    0.27
  20   0  13    0.72    0.25
 -20   0 -13   -0.26    0.35
 -22   0 -13    0.81    0.38
  27  -1 -13    3.70    0.61
 -27  -1  13    3.78    0.80
  27  -1 -13    3.96    0.64
  27   1 -13    3.24    0.68
 -27   1  13    3.21    0.65
  25  -1 -13    0.96    0.24
 -25  -1  13    0.44    0.43
  25  -1 -13    1.05    0.27
  25   1 -13    0.95    0.32
 -25   1  13    0.94    0.43
 -23  -1  13    0.28    0.48
  23  -1 -13    1.16    0.34
  23  -1 -13    0.65    0.22
  23   1 -13    0.88    0.44
 -23   1  13    0.74    0.55
 -21  -1  13    1.31    0.60
  21  -1 -13    2.80    0.53
  21  -1 -13    1.99    0.59
  21   1 -13    2.03    0.59
 -21   1  13    1.55    0.63
  21   1 -13    2.93    0.36
 -19  -1  13    2.11    0.69
  19  -1 -13    2.69    0.52
  19  -1 -13    2.08    0.64
  19   1 -13    2.54    0.45
 -19   1  13    3.05    0.77
  19   1 -13    1.88    0.60
  17  -1 -13    3.30    0.55
 -17  -1  13    2.84    0.74
  17  -1 -13    2.51    0.69
 -17   1  13    2.28    0.69
  17   1 -13    4.41    0.61
  17   1 -13    2.89    0.62
  15  -1 -13    1.60    0.34
  15  -1 -13    0.99    0.50
 -15  -1  13    1.26    0.55
  15   1 -13    1.11    0.45
 -15   1  13    0.75    0.47
  15   1 -13    1.58    0.38
  13  -1 -13    3.12    0.73
  13  -1 -13    3.97    0.46
 -13  -1  13    3.43    0.74
  13   1 -13    3.99    0.69
 -13   1  13    3.57    0.77
  13   1 -13    4.74    0.57
 -11  -1  13    7.39    0.98
  11  -1 -13    7.60    1.02
  11  -1 -13    7.69    0.65
 -11   1  13    7.54    0.99
  11   1 -13    9.63    0.89
  11   1 -13    7.62    0.82
   9  -1 -13   15.20    0.90
  -9  -1  13   15.04    1.24
   9  -1 -13   15.18    1.33
  -9  -1  13   15.32    0.83
   9   1 -13   15.22    1.09
  -9   1  13   13.73    1.20
  -9   1  13   16.04    0.78
   9   1 -13   14.92    1.14
   7  -1 -13   12.12    0.74
  -7  -1  13   14.12    0.83
   7  -1 -13   12.39    1.22
  -7  -1  13   12.49    1.10
   7   1 -13   13.57    1.12
   7   1 -13   12.51    0.96
  -7   1  13   13.15    0.78
  -7   1  13   12.56    1.12
   5  -1 -13    3.84    0.33
  -5  -1  13    3.55    0.64
  -5  -1  13    3.40    0.44
   5  -1 -13    3.24    0.72
   5   1 -13    3.55    0.65
   5   1 -13    3.29    0.53
   5   1 -13    4.96    0.51
  -5   1  13    4.21    0.44
  -5   1  13    2.24    0.56
   3  -1 -13    2.93    0.25
  -3  -1  13    2.52    0.46
   3  -1 -13    2.41    0.62
  -3  -1  13    2.25    0.51
   3   1 -13    3.36    0.41
  -3   1  13    2.92    0.47
  -3   1  13    2.47    0.56
   3   1 -13    3.07    0.47
   3   1 -13    2.48    0.54
  -1  -1  13   14.31    1.02
   1  -1 -13   14.69    1.27
  -1  -1  13   14.02    1.00
   1  -1 -13   14.23    0.68
  -1   1  13   13.49    1.01
   1   1 -13   15.26    0.98
  -1   1  13   14.86    1.10
   1   1 -13   13.21    1.09
   1   1 -13   13.46    1.02
   1  -1  13   14.38    1.06
   1  -1  13   16.00    0.99
  -1  -1 -13   14.19    1.23
   1   1  13   15.88    1.09
  -1   1 -13   14.50    0.96
   1   1  13   13.66    1.06
  -1   1 -13   14.67    1.14
  -1   1 -13   15.59    1.10
   3  -1  13    8.45    0.63
   3  -1  13    8.50    0.89
  -3  -1 -13    6.22    0.88
   3   1  13    7.90    0.91
   3   1  13    7.30    0.73
  -3   1 -13    8.71    0.78
  -3   1 -13    7.96    0.69
  -3   1 -13    7.30    0.83
   5  -1  13   83.90    3.03
  -5  -1 -13   82.18    3.17
  -5   1 -13   83.04    3.05
  -5   1 -13   82.77    3.06
  -5   1 -13   86.50    2.69
   5   1  13   87.13    2.83
   5   1  13   85.16    3.08
  -7  -1 -13    7.27    0.97
   7  -1  13    6.94    0.93
  -7   1 -13    7.01    0.68
   7   1  13    7.00    0.95
   7   1  13    8.23    0.67
  -7   1 -13    6.79    0.84
  -7   1 -13    7.44    0.78
   9  -1  13   11.67    1.13
  -9  -1 -13   11.57    1.16
  -9   1 -13   11.74    1.00
  -9   1 -13   10.16    0.86
   9   1  13   11.23    1.12
  -9   1 -13   10.43    1.05
 -11  -1 -13    5.15    0.88
  11  -1  13    4.50    0.81
 -11   1 -13    3.94    0.58
 -11   1 -13    4.14    0.64
 -11   1 -13    4.86    0.85
  11   1  13    3.99    0.79
  13  -1  13   10.42    0.82
  13  -1  13   10.08    1.12
 -13  -1 -13   10.36    1.15
  13   1  13   11.00    1.28
 -13   1 -13    9.41    1.10
  15  -1  13    0.41    0.43
 -15  -1 -13    0.14    0.41
 -15   1 -13    0.26    0.45
  15   1  13   -0.05    0.37
 -17  -1 -13    0.85    0.54
  17  -1  13    1.91    0.62
  17  -1  13    2.43    0.25
 -17   1 -13    1.33    0.62
  17   1  13    1.55    0.59
 -19  -1 -13    2.45    0.74
  19  -1  13    3.47    0.70
  19  -1  13    3.99    0.33
 -19   1 -13    1.92    0.69
  19   1  13    4.03    0.79
 -21  -1 -13    8.67    1.26
  21  -1  13    9.27    1.02
  21  -1  13    9.18    0.73
  21   1  13   10.79    1.30
 -21   1 -13    8.29    1.22
 -23  -1 -13    1.20    0.39
 -23   1 -13    0.51    0.42
  26  -2 -13    6.91    1.05
 -26  -2  13    5.42    1.02
  26  -2 -13    7.57    0.79
 -26   2  13    6.12    0.75
  26   2 -13    6.15    0.97
 -24  -2  13    0.74    0.54
  24  -2 -13    1.07    0.45
  24  -2 -13    1.33    0.26
  24   2 -13    1.85    0.54
 -24   2  13    1.03    0.49
  22  -2 -13    5.76    1.00
 -22  -2  13    6.16    1.10
  22  -2 -13    6.15    0.69
 -22   2  13    4.30    0.86
  22   2 -13    4.89    0.90
  20  -2 -13    6.31    0.70
 -20  -2  13    5.06    0.97
  20  -2 -13    5.73    1.04
  20   2 -13    6.62    0.99
 -20   2  13    5.00    0.95
 -18  -2  13   14.81    1.45
  18  -2 -13   16.39    1.55
  18  -2 -13   16.78    1.16
 -18   2  13   12.62    1.31
  18   2 -13   13.81    1.30
  16  -2 -13    4.75    0.51
 -16  -2  13    4.29    0.85
  16  -2 -13    4.20    0.89
  16   2 -13    4.64    0.43
 -16   2  13    4.09    0.86
  16   2 -13    3.67    0.74
 -14  -2  13    5.09    0.89
  14  -2 -13    4.87    0.50
  14  -2 -13    3.36    0.80
  14   2 -13    4.78    0.79
  14   2 -13    6.20    0.55
 -14   2  13    4.69    0.85
 -12  -2  13   12.08    1.18
  12  -2 -13   14.07    0.88
  12  -2 -13   11.72    1.28
 -12   2  13   11.63    1.18
  12   2 -13   11.89    1.11
  12   2 -13   14.17    0.95
 -10  -2  13   15.07    1.26
  10  -2 -13   17.27    1.52
  10  -2 -13   15.61    0.88
 -10  -2  13   16.15    0.89
 -10   2  13   14.12    1.26
  10   2 -13   17.32    1.09
  10   2 -13   14.98    1.23
  -8  -2  13    1.10    0.46
  -8  -2  13    1.94    0.32
   8  -2 -13    0.97    0.53
  -8   2  13    2.33    0.23
  -8   2  13    0.53    0.40
   8   2 -13    2.11    0.35
   8   2 -13    2.19    0.25
   8   2 -13    0.85    0.44
  -6  -2  13    2.44    0.57
  -6  -2  13    3.09    0.45
   6  -2 -13    2.71    0.70
   6   2 -13    3.05    0.50
  -6   2  13    2.07    0.56
   6   2 -13    2.92    0.59
   6   2 -13    3.23    0.48
  -6   2  13    3.64    0.38
   4  -2 -13    0.33    0.44
  -4  -2  13    0.35    0.22
  -4  -2  13    0.75    0.32
  -4   2  13    0.82    0.20
   4   2 -13    0.80    0.24
  -4   2  13    0.38    0.35
   4   2 -13    0.89    0.17
   4   2 -13    0.55    0.35
  -2  -2  13   17.49    1.17
  -2  -2  13   17.39    1.12
   2  -2 -13   16.55    1.41
  -2   2  13   19.25    1.32
   2   2 -13   16.94    1.23
  -2   2  13   16.59    1.12
   2   2 -13   17.75    1.19
   2   2 -13   19.28    1.22
   0  -2 -13    0.40    0.42
   0  -2  13    1.09    0.24
   0  -2  13    0.58    0.35
   0   2  13    0.60    0.39
   0   2 -13    0.74    0.32
   0   2  13    0.33    0.34
   0   2 -13    1.20    0.33
   0   2 -13    0.61    0.33
   2  -2  13    3.87    0.66
   2  -2  13    4.50    0.41
  -2  -2 -13    3.54    0.73
  -2   2 -13    4.10    0.64
  -2   2 -13    4.20    0.64
   2   2  13    3.51    0.71
   2   2  13    4.00    0.65
  -2   2 -13    3.77    0.60
  -4  -2 -13   14.98    1.28
   4  -2  13   15.95    1.22
  -4   2 -13   16.25    1.18
   4   2  13   14.84    1.23
  -4   2 -13   17.35    1.14
  -4   2 -13   17.42    1.23
   6  -2  13   21.97    1.48
  -6  -2 -13   23.18    1.60
  -6  -2 -13   25.25    1.33
   6   2  13   23.20    1.42
  -6   2 -13   23.13    1.35
  -6   2 -13   22.07    1.42
   6   2  13   21.88    1.56
  -6   2 -13   23.31    1.49
   8  -2  13   16.06    1.30
  -8  -2 -13   18.69    1.09
  -8  -2 -13   15.03    1.32
  -8   2 -13   16.13    1.15
   8   2  13   15.59    1.36
  -8   2 -13   15.33    1.22
  -8   2 -13   14.97    1.20
   8   2  13   17.69    1.24
 -10  -2 -13    1.47    0.56
  10  -2  13    2.37    0.65
 -10   2 -13    2.10    0.51
  10   2  13    1.12    0.55
 -10   2 -13    1.41    0.50
 -10   2 -13    1.80    0.49
  12  -2  13    9.60    1.14
 -12  -2 -13    9.29    1.13
  12   2  13    9.64    1.20
 -12   2 -13    9.88    1.02
 -12   2 -13    8.20    0.92
 -12   2 -13    9.22    1.05
  14  -2  13   30.32    1.65
 -14  -2 -13   27.72    1.92
  14  -2  13   26.81    1.83
  14   2  13   24.85    1.87
 -14   2 -13   26.69    1.81
 -16  -2 -13   14.34    1.42
  16  -2  13   16.08    1.39
  16  -2  13   13.75    1.08
 -16   2 -13   12.45    1.30
  16   2  13   12.72    1.36
 -18  -2 -13    0.08    0.39
  18  -2  13    1.53    0.41
  18   2  13    1.09    0.43
 -18   2 -13    0.62    0.42
  20  -2  13    9.47    1.14
 -20  -2 -13    8.89    1.21
  20  -2  13    8.53    0.75
 -20   2 -13    8.66    1.18
  20   2  13    8.83    1.20
  22  -2  13   17.41    1.43
 -22  -2 -13   18.10    1.64
  22  -2  13   17.46    1.22
  22   2  13   19.58    1.66
 -22   2 -13   15.39    1.52
  25  -3 -13    8.05    0.82
  25  -3 -13    8.25    1.26
 -25  -3  13    7.48    1.19
  25   3 -13   10.23    1.26
 -25   3  13    8.00    0.92
 -23  -3  13    6.49    1.10
  23  -3 -13    6.17    1.13
  23  -3 -13    6.50    0.72
 -23   3  13    7.17    1.04
  23   3 -13    6.95    1.07
  21  -3 -13    6.01    1.11
 -21  -3  13    4.55    0.92
  21  -3 -13    6.65    0.66
  21   3 -13    7.09    1.05
 -21   3  13    5.89    1.00
  19  -3 -13    2.56    0.84
 -19  -3  13    2.42    0.72
 -19   3  13    2.73    0.75
  19   3 -13    3.41    0.78
 -17  -3  13   27.73    1.98
  17  -3 -13   29.37    1.53
  17  -3 -13   27.63    2.10
  17   3 -13   31.26    2.01
 -17   3  13   29.32    2.02
  15  -3 -13    3.85    0.89
 -15  -3  13    4.58    0.88
  15   3 -13    3.79    0.82
 -15   3  13    4.17    0.86
 -13  -3  13   49.56    2.52
  13  -3 -13   48.65    2.70
  13   3 -13   44.12    2.36
 -13   3  13   49.42    2.55
 -11  -3  13    4.31    0.39
  11  -3 -13    3.16    0.80
 -11  -3  13    3.26    0.72
 -11   3  13    2.58    0.69
  11   3 -13    2.33    0.64
  -9  -3  13   46.54    1.87
  -9  -3  13   44.84    2.27
   9  -3 -13   47.54    2.63
  -9   3  13   45.41    2.36
   9   3 -13   48.83    2.44
   9   3 -13   46.61    2.30
  -7  -3  13    0.20    0.27
  -7  -3  13    0.88    0.23
   7  -3 -13    0.42    0.44
   7   3 -13    0.34    0.39
  -7   3  13    0.27    0.42
   7   3 -13    1.16    0.27
   5  -3 -13   40.26    2.38
  -5  -3  13   38.56    1.77
  -5  -3  13   39.06    1.89
   5   3 -13   38.78    1.99
   5   3 -13   39.05    2.09
  -5   3  13   40.25    2.12
   5   3 -13   42.03    1.75
  -5   3  13   41.37    1.77
  -3  -3  13    0.37    0.34
   3  -3 -13    0.05    0.37
  -3  -3  13    0.83    0.25
  -3   3  13    0.63    0.44
  -3   3  13    1.41    0.36
   3   3 -13    0.35    0.38
   3   3 -13    0.74    0.28
  -1  -3  13   79.31    2.66
  -1  -3  13   75.68    2.81
   1  -3 -13   80.74    3.43
  -1   3  13   86.03    2.96
   1   3 -13   76.37    2.90
   1   3 -13   79.31    3.11
  -1   3  13   83.72    3.13
   1   3 -13   82.59    2.78
  -1  -3 -13    7.94    1.07
   1  -3  13    8.75    0.62
   1  -3  13    8.12    0.89
  -1  -3 -13    8.05    0.86
  -1   3 -13    7.42    0.89
  -1   3 -13    8.26    0.87
  -1   3 -13    9.58    0.77
   1   3  13    8.38    0.86
   1   3  13    7.36    0.92
  -3  -3 -13   80.53    2.97
   3  -3  13   82.33    3.03
  -3  -3 -13   78.87    3.29
   3   3  13   78.57    2.95
  -3   3 -13   80.44    2.93
  -3   3 -13   82.07    3.15
  -3   3 -13   85.63    2.91
   3   3  13   77.41    3.03
  -5  -3 -13    0.64    0.30
   5  -3  13    0.51    0.41
  -5  -3 -13    0.40    0.41
   5   3  13   -0.26    0.30
  -5   3 -13    1.79    0.51
   5   3  13    0.33    0.24
  -5   3 -13    1.00    0.30
  -5   3 -13    0.31    0.28
  -7  -3 -13   40.74    1.91
  -7  -3 -13   39.86    2.21
   7  -3  13   39.05    2.10
   7   3  13   39.26    2.21
  -7   3 -13   41.74    2.12
  -7   3 -13   41.04    1.97
  -7   3 -13   39.06    1.98
   7   3  13   38.88    2.02
   9  -3  13   21.34    1.56
  -9  -3 -13   21.98    1.64
  -9  -3 -13   21.90    1.32
  -9   3 -13   21.16    1.48
  -9   3 -13   22.42    1.46
   9   3  13   20.43    1.42
   9   3  13   23.03    1.71
  -9   3 -13   21.63    1.48
 -11  -3 -13   19.61    1.21
 -11  -3 -13   19.25    1.57
  11  -3  13   18.06    1.48
  11   3  13   19.83    1.41
 -11   3 -13   18.57    1.38
  11   3  13   18.67    1.59
 -11   3 -13   19.20    1.40
 -11   3 -13   19.95    1.44
 -13  -3 -13    6.52    1.01
  13  -3  13    6.50    0.99
 -13   3 -13    7.59    0.98
 -13   3 -13    6.99    0.94
 -13   3 -13    6.42    0.88
  13   3  13    4.69    0.93
 -15  -3 -13    1.18    0.56
  15  -3  13    1.97    0.62
 -15   3 -13    2.65    0.54
  15   3  13    1.52    0.64
  17  -3  13   13.81    1.15
  17  -3  13   11.54    1.20
 -17  -3 -13   13.18    1.37
 -17   3 -13   14.90    1.31
  17   3  13   13.78    1.43
 -19  -3 -13    7.03    1.08
  19  -3  13    5.69    0.89
  19  -3  13    6.60    0.70
  19   3  13    7.65    1.11
 -19   3 -13    6.41    0.94
  21  -3  13    1.15    0.17
 -21  -3 -13    1.59    0.35
 -21   3 -13    1.19    0.28
  21   3  13    1.21    0.29
  24  -4 -13    5.42    1.05
 -24  -4  13    6.22    1.08
  24   4 -13    5.88    0.96
 -24   4  13    7.50    0.73
  22  -4 -13   29.35    2.34
 -22  -4  13   29.02    2.16
  22   4 -13   31.59    2.21
 -22   4  13   29.95    2.10
  20  -4 -13    6.01    1.16
 -20  -4  13    7.09    1.14
 -20   4  13    7.61    1.11
  20   4 -13    7.50    1.11
 -18  -4  13   15.48    1.52
  18  -4 -13   14.09    1.57
  18   4 -13   18.08    1.56
 -18   4  13   16.07    1.53
 -16  -4  13   29.82    2.07
  16  -4 -13   31.62    2.30
  16   4 -13   33.07    2.16
 -16   4  13   33.78    2.22
  14  -4 -13   51.82    2.94
 -14  -4  13   51.29    2.66
 -14   4  13   50.42    2.71
  14   4 -13   50.02    2.66
 -12  -4  13   13.87    0.94
 -12  -4  13   14.43    1.33
  12  -4 -13   13.69    1.47
  12   4 -13   12.12    1.27
  12   4 -13   16.20    1.32
 -12   4  13   12.45    1.32
 -10  -4  13    7.73    0.98
 -10  -4  13    7.73    0.71
  10  -4 -13    8.20    1.24
  10   4 -13    9.06    0.93
 -10   4  13    7.15    1.05
  10   4 -13    9.82    1.19
   8  -4 -13    1.03    0.60
  -8  -4  13    2.10    0.41
  -8  -4  13    1.51    0.44
   8   4 -13    1.81    0.49
   8   4 -13    0.89    0.51
  -8   4  13    1.21    0.53
   6  -4 -13   14.19    1.46
  -6  -4  13   14.21    1.12
  -6  -4  13   15.32    1.12
  -6   4  13   15.16    1.00
   6   4 -13   12.70    1.22
  -6   4  13   14.00    1.32
   6   4 -13   14.44    1.26
  -4  -4  13    2.22    0.39
  -4  -4  13    1.67    0.48
   4  -4 -13    0.96    0.55
  -4   4  13    1.68    0.60
  -4   4  13    1.77    0.39
   4   4 -13    1.44    0.46
   4   4 -13    0.93    0.47
   2  -4 -13    0.41    0.45
  -2  -4  13    0.72    0.41
   2  -4 -13    0.55    0.42
  -2  -4  13    0.95    0.20
  -2   4  13    0.64    0.29
   2   4 -13    0.75    0.33
   2   4 -13    0.60    0.42
  -2   4  13    0.34    0.30
   0  -4 -13   10.80    1.24
   0  -4 -13    9.86    1.05
   0  -4  13   10.09    1.02
   0   4 -13    9.56    1.04
   0   4 -13    9.85    1.03
   0   4  13   10.52    1.00
   0   4  13    9.74    0.94
   2  -4  13   30.32    1.80
  -2  -4 -13   31.14    2.05
  -2  -4 -13   29.66    1.77
  -2   4 -13   28.99    1.77
  -2   4 -13   31.27    1.83
   2   4  13   31.88    1.75
   2   4  13   30.76    1.82
   4  -4  13   22.66    1.58
  -4  -4 -13   25.44    1.81
  -4  -4 -13   23.11    1.54
  -4   4 -13   25.10    1.32
  -4   4 -13   22.65    1.59
   4   4  13   22.64    1.62
  -4   4 -13   21.19    1.52
   4   4  13   21.11    1.43
  -6  -4 -13   11.06    1.03
   6  -4  13   10.85    1.15
  -6  -4 -13   10.84    1.18
  -6   4 -13   10.91    1.08
   6   4  13   11.60    1.21
   6   4  13   10.56    1.00
  -6   4 -13   11.77    0.89
  -6   4 -13   10.13    1.10
   8  -4  13   27.39    1.82
  -8  -4 -13   29.00    1.68
  -8  -4 -13   27.03    1.89
  -8   4 -13   28.28    1.79
  -8   4 -13   29.28    1.61
  -8   4 -13   29.75    1.80
   8   4  13   26.51    1.88
   8   4  13   26.78    1.69
  10  -4  13   33.49    2.06
 -10  -4 -13   31.48    2.05
 -10  -4 -13   32.39    1.79
  10   4  13   32.63    1.91
 -10   4 -13   31.84    1.93
  10   4  13   31.47    2.11
 -10   4 -13   33.17    1.79
 -10   4 -13   30.97    1.93
 -12  -4 -13   33.91    1.81
  12  -4  13   33.94    2.12
 -12  -4 -13   33.58    2.14
 -12   4 -13   34.65    1.91
  12   4  13   34.38    2.00
  12   4  13   31.77    2.19
 -12   4 -13   32.36    2.02
 -12   4 -13   33.61    1.99
  14  -4  13    6.42    0.96
 -14  -4 -13    7.40    0.67
 -14  -4 -13    5.51    0.90
  14   4  13    6.50    1.13
 -14   4 -13    6.15    0.99
 -14   4 -13    6.35    0.94
 -14   4 -13    7.35    0.78
  16  -4  13   29.21    1.97
 -16  -4 -13   31.02    2.08
  16   4  13   26.06    2.06
 -16   4 -13   27.47    1.86
 -16   4 -13   26.59    1.75
 -16   4 -13   27.44    1.94
 -18  -4 -13   32.95    2.20
  18  -4  13   31.98    2.12
 -18   4 -13   32.07    2.06
 -18   4 -13   33.91    2.19
 -18   4 -13   33.24    2.07
  18   4  13   33.64    2.37
 -20  -4 -13   25.25    1.87
  20  -4  13   25.06    1.70
  20  -4  13   25.76    1.82
 -20   4 -13   23.83    1.71
  20   4  13   25.47    2.08
 -21  -5  13   26.86    2.07
  21  -5 -13   27.83    2.28
 -21   5  13   26.68    1.92
  21   5 -13   26.05    2.06
 -19  -5  13   12.99    1.40
  19  -5 -13   15.72    1.66
 -19   5  13   16.44    1.54
  19   5 -13   13.64    1.44
  17  -5 -13   33.51    2.49
 -17  -5  13   29.67    2.11
 -17   5  13   33.60    2.29
  17   5 -13   29.50    2.15
 -15  -5  13    0.65    0.40
  15  -5 -13    0.92    0.57
  15   5 -13    0.48    0.33
 -15   5  13    0.18    0.43
 -13  -5  13   65.50    2.63
 -13  -5  13   66.03    3.07
  13  -5 -13   65.77    3.46
 -13   5  13   66.47    3.24
  13   5 -13   67.19    3.23
 -11  -5  13    3.65    0.68
  11  -5 -13    3.27    0.84
 -11  -5  13    3.90    0.42
  11   5 -13    2.90    0.71
  11   5 -13    4.42    0.75
 -11   5  13    3.16    0.79
   9  -5 -13   93.64    4.17
  -9  -5  13   89.47    3.29
  -9  -5  13   96.32    3.58
  -9   5  13   95.90    3.94
   9   5 -13   94.95    3.83
   9   5 -13   97.82    3.97
  -7  -5  13    0.68    0.25
   7  -5 -13    0.07    0.40
  -7  -5  13    0.94    0.24
  -7   5  13    0.24    0.43
   7   5 -13    1.13    0.38
   7   5 -13    0.26    0.43
  -5  -5  13   78.21    3.05
  -5  -5  13   83.16    3.01
   5  -5 -13   80.80    3.72
   5   5 -13   77.57    3.33
   5   5 -13   79.92    3.42
  -5   5  13   79.88    2.93
  -3  -5  13    0.98    0.18
  -3  -5  13    0.36    0.39
   3  -5 -13    0.15    0.36
   3  -5 -13    0.64    0.55
  -3   5  13    0.48    0.15
  -3   5  13    0.58    0.36
   3   5 -13    0.68    0.44
   3   5 -13    1.11    0.37
   1  -5 -13  100.02    4.14
  -1  -5  13   97.56    3.57
   1  -5 -13   99.61    3.75
  -1   5  13   94.60    3.32
  -1   5  13   94.80    3.45
   1   5 -13   96.17    3.74
   1   5 -13   95.02    3.70
  -1  -5 -13    1.13    0.53
   1  -5  13    1.03    0.53
  -1  -5 -13    1.15    0.56
   1   5  13    1.55    0.48
  -1   5 -13    0.48    0.39
  -1   5 -13    1.16    0.54
   1   5  13    0.77    0.43
  -3  -5 -13   99.54    4.12
  -3  -5 -13  104.60    3.84
   3  -5  13  102.07    3.75
   3   5  13   97.59    3.54
   3   5  13  100.83    3.79
  -3   5 -13  102.36    3.81
  -3   5 -13  100.50    3.80
  -5  -5 -13    7.93    1.09
  -5  -5 -13    8.09    1.02
   5  -5  13    8.14    1.10
   5   5  13    8.03    0.91
  -5   5 -13    8.83    1.11
  -5   5 -13    8.76    1.14
   5   5  13    8.52    1.14
  -7  -5 -13   85.74    3.40
  -7  -5 -13   88.09    3.75
   7  -5  13   89.20    3.56
  -7   5 -13   88.91    3.46
   7   5  13   81.43    3.55
   7   5  13   82.39    3.30
  -7   5 -13   85.29    3.52
  -9  -5 -13    8.96    1.05
   9  -5  13   10.45    1.22
  -9  -5 -13    8.25    0.86
  -9   5 -13    8.68    1.14
   9   5  13    7.88    0.89
   9   5  13    9.04    1.25
  -9   5 -13    8.20    1.00
  11  -5  13   19.56    1.63
 -11  -5 -13   20.86    1.44
 -11  -5 -13   20.48    1.63
  11   5  13   19.50    1.47
 -11   5 -13   20.33    1.64
  11   5  13   19.82    1.76
 -11   5 -13   18.88    1.49
 -13  -5 -13   11.11    1.14
  13  -5  13   10.74    1.18
 -13  -5 -13   11.87    1.01
 -13   5 -13   11.47    1.17
  13   5  13   12.29    1.50
 -13   5 -13   10.28    1.28
  13   5  13   12.18    1.12
  15  -5  13    6.82    1.01
 -15  -5 -13    6.82    0.60
 -15  -5 -13    7.84    0.92
 -15   5 -13    6.65    0.97
 -15   5 -13    4.22    0.90
  15   5  13    5.57    0.98
 -15   5 -13    6.54    0.61
  17  -5  13    9.02    1.13
 -17  -5 -13   10.46    1.03
  17   5  13    9.82    1.34
 -17   5 -13    8.65    1.01
 -17   5 -13    9.46    1.22
 -17   5 -13   10.38    0.88
  18  -6 -13   31.70    2.44
 -18  -6  13   31.69    2.20
  18   6 -13   30.37    2.24
 -18   6  13   30.35    2.15
  16  -6 -13   23.39    2.05
 -16  -6  13   23.87    1.84
 -16   6  13   23.67    1.91
  16   6 -13   22.36    1.89
 -14  -6  13   30.77    2.03
  14  -6 -13   31.57    2.37
  14   6 -13   28.08    2.13
 -14   6  13   30.63    2.22
 -12  -6  13   14.32    1.29
  12  -6 -13   13.94    1.51
 -12  -6  13   14.62    1.10
  12   6 -13   14.21    1.36
  12   6 -13   14.39    1.49
 -12   6  13   13.60    1.50
 -10  -6  13   29.67    1.83
 -10  -6  13   27.32    1.69
  10  -6 -13   31.48    2.29
  10   6 -13   28.14    2.00
  10   6 -13   27.42    2.04
 -10   6  13   26.79    2.05
  -8  -6  13   14.13    1.19
  -8  -6  13   13.23    1.14
   8  -6 -13   14.30    1.52
  -8   6  13   12.16    1.39
   8   6 -13   14.09    1.32
   8   6 -13   12.56    1.39
  -6  -6  13   17.75    1.37
  -6  -6  13   17.48    1.26
   6  -6 -13   17.82    1.61
  -6   6  13   18.45    1.22
  -6   6  13   15.15    1.12
   6   6 -13   17.95    1.57
   6   6 -13   18.16    1.52
   4  -6 -13    0.93    0.54
  -4  -6  13    1.57    0.50
   4  -6 -13    1.53    0.51
   4   6 -13    1.81    0.51
  -4   6  13    1.38    0.42
  -4   6  13    1.74    0.32
   4   6 -13    1.19    0.52
   2  -6 -13   13.77    1.37
   2  -6 -13    9.61    1.16
  -2  -6  13   10.66    1.15
   2   6 -13   11.36    1.19
  -2   6  13   11.07    0.98
   2   6 -13   10.42    1.25
  -2   6  13   11.20    1.00
   0  -6 -13    6.18    0.94
   0  -6 -13    5.89    0.96
   0  -6  13    4.85    0.86
   0   6  13    6.32    0.82
   0   6 -13    5.61    0.94
   0   6  13    5.52    0.77
   0   6 -13    4.76    0.89
   2  -6  13    9.85    1.21
  -2  -6 -13    9.37    1.09
  -2  -6 -13   10.85    1.14
   2   6  13    9.79    1.05
  -2   6 -13    8.99    1.06
   2   6  13    8.82    0.95
  -2   6 -13    8.65    1.15
  -4  -6 -13   33.40    2.20
  -4  -6 -13   31.46    2.04
   4  -6  13   34.04    2.17
   4   6  13   32.07    1.87
  -4   6 -13   34.72    2.11
   4   6  13   33.27    2.13
  -4   6 -13   30.30    2.08
  -6  -6 -13   32.99    2.07
  -6  -6 -13   34.82    2.22
   6  -6  13   34.44    2.22
   6   6  13   32.95    2.19
  -6   6 -13   32.40    2.02
  -6   6 -13   36.33    2.27
   6   6  13   34.49    2.00
  -8  -6 -13   47.65    2.53
   8  -6  13   48.42    2.65
  -8  -6 -13   49.81    2.74
  -8   6 -13   44.81    2.61
  -8   6 -13   48.98    2.53
   8   6  13   48.29    2.76
   8   6  13   47.47    2.45
 -10  -6 -13   19.82    1.50
  10  -6  13   21.08    1.70
 -10  -6 -13   18.19    1.52
 -10   6 -13   21.11    1.57
  10   6  13   18.79    1.47
 -10   6 -13   17.74    1.64
  10   6  13   17.02    1.66
  12  -6  13   26.20    1.93
 -12  -6 -13   25.48    1.70
 -12  -6 -13   26.32    1.88
 -12   6 -13   24.12    1.71
 -12   6 -13   24.30    1.92
  12   6  13   25.57    1.77
  12   6  13   25.50    2.07
  14  -6  13   16.93    1.51
 -14  -6 -13   17.31    1.34
 -14  -6 -13   17.35    1.42
 -14   6 -13   15.64    1.53
 -14   6 -13   16.11    1.38
  14   6  13   17.05    1.41
  14   6  13   15.38    1.53
 -13  -7  13   55.48    2.68
  13  -7 -13   58.75    3.31
 -13  -7  13   50.56    2.79
  13   7 -13   57.05    3.10
  13   7 -13   55.59    3.10
 -13   7  13   53.50    3.08
  11  -7 -13    0.90    0.24
  11   7 -13    1.75    0.58
 -11   7  13    0.88    0.35
  11   7 -13    1.18    0.22
   9  -7 -13   69.17    3.52
  -9  -7  13   61.14    2.88
  -9  -7  13   60.18    2.86
  -9   7  13   60.67    3.31
   9   7 -13   57.85    3.16
   9   7 -13   61.93    3.18
   7  -7 -13    3.40    0.64
  -7  -7  13    3.10    0.33
  -7  -7  13    2.89    0.51
   7   7 -13    2.64    0.71
   7   7 -13    2.81    0.58
   5  -7 -13   79.71    3.61
   5  -7 -13   82.27    3.83
  -5  -7  13   76.74    3.39
   5   7 -13   76.06    3.63
  -5   7  13   73.70    2.86
   5   7 -13   77.76    3.61
  -5   7  13   78.73    3.17
  -3  -7  13    1.21    0.35
   3  -7 -13    0.30    0.34
   3  -7 -13    0.95    0.18
   3   7 -13    0.48    0.44
  -3   7  13    0.53    0.25
   3   7 -13    1.02    0.39
   1  -7 -13   67.88    3.39
  -1  -7  13   65.28    3.16
   1  -7 -13   68.46    3.29
  -1   7  13   66.85    2.75
   1   7 -13   69.98    3.35
   1   7 -13   60.93    3.18
  -1   7  13   67.57    3.04
  -1  -7 -13    1.09    0.49
   1  -7  13    1.15    0.43
  -1  -7 -13    1.67    0.31
  -1   7 -13    0.91    0.31
  -1   7 -13    0.08    0.34
   1   7  13    0.98    0.39
   3  -7  13  109.36    4.38
  -3  -7 -13  113.95    4.63
  -3  -7 -13  112.67    4.42
   3   7  13  105.63    4.23
  -3   7 -13  115.53    4.38
   3   7  13  107.82    3.93
  -3   7 -13  113.91    4.54
  -5  -7 -13    1.01    0.35
   5  -7  13    1.75    0.55
   5   7  13    1.77    0.41
  -5   7 -13    1.28    0.47
  -5   7 -13    1.35    0.46
   5   7  13    1.29    0.35
  -7  -7 -13   47.74    2.68
   7  -7  13   49.01    2.75
  -7   7 -13   53.56    2.73
   7   7  13   45.93    2.45
   7   7  13   47.11    2.76
  -7   7 -13   50.18    2.84
   9  -7  13    4.92    0.85
  -9  -7 -13    5.26    0.65
  -9   7 -13    5.79    0.81
   9   7  13    4.87    0.91
   9   7  13    4.68    0.70
  -9   7 -13    5.89    0.95
  28   0 -14    7.60    0.85
  28   0 -14    8.45    0.77
 -28   0  14    5.60    0.90
  26   0 -14   37.93    2.26
  26   0 -14   40.40    2.30
 -26   0  14   37.08    2.48
  24   0 -14   12.32    1.11
 -24   0  14   11.30    1.36
  24   0 -14   12.89    1.18
 -22   0  14   79.11    3.67
  22   0 -14   83.21    3.46
  22   0 -14   80.79    3.29
 -20   0  14    0.37    0.49
  20   0 -14    1.04    0.32
  20   0 -14    1.01    0.28
 -18   0  14  111.41    4.34
  18   0 -14  112.87    3.83
  18   0 -14  121.40    4.24
 -16   0  14   15.52    1.43
  16   0 -14   14.52    1.25
  16   0 -14   16.13    1.18
  14   0 -14   52.59    2.52
  14   0 -14   52.53    2.22
 -14   0  14   53.26    2.65
  12   0 -14   15.86    1.32
  12   0 -14   16.18    1.10
 -12   0  14   14.38    1.32
  10   0 -14   12.49    0.91
  10   0 -14   10.69    1.10
 -10   0  14   11.63    1.17
   8   0 -14   23.35    1.24
  -8   0  14   25.17    1.13
  -8   0  14   22.01    1.54
   8   0 -14   20.93    1.54
   6   0 -14    8.37    1.00
  -6   0  14   10.83    0.74
  -6   0  14    8.82    0.95
  -4   0  14   12.90    0.91
  -4   0  14   13.50    1.13
   4   0 -14   14.32    0.87
   4   0 -14   14.83    1.27
   2   0 -14   24.54    1.63
  -2   0  14   26.00    1.41
  -2   0  14   24.34    1.47
   2   0 -14   27.14    1.23
   0   0 -14    3.20    0.69
   0   0  14    2.07    0.51
   0   0  14    3.09    0.51
   0   0 -14    3.38    0.33
  -2   0 -14  192.72    4.56
  -2   0 -14  186.08    5.51
   2   0  14  196.25    5.16
   2   0  14  177.09    4.97
   4   0  14    4.46    0.47
   4   0  14    3.92    0.71
  -4   0 -14    5.03    0.41
  -4   0 -14    3.36    0.69
   6   0  14  186.64    5.26
  -6   0 -14  184.00    4.48
  -6   0 -14  178.52    5.42
  -8   0 -14    1.23    0.55
   8   0  14    1.40    0.53
  -8   0 -14    2.14    0.23
 -10   0 -14  117.56    4.17
  10   0  14  116.55    4.07
  12   0  14    1.19    0.54
 -12   0 -14    1.51    0.61
  14   0  14  152.92    5.00
 -14   0 -14  149.45    5.14
  16   0  14    2.97    0.72
 -16   0 -14    2.30    0.74
  18   0  14   69.93    3.26
 -18   0 -14   68.17    3.35
  20   0  14   12.40    1.29
 -20   0 -14   10.47    1.39
  22   0  14  109.22    4.41
 -22   0 -14  105.94    4.53
 -27  -1  14   55.20    3.13
  27  -1 -14   60.14    3.09
  27  -1 -14   60.72    2.93
  27   1 -14   58.52    3.03
 -27   1  14   56.78    3.11
  25  -1 -14    2.29    0.41
  25  -1 -14    1.86    0.45
 -25  -1  14    1.42    0.55
  25   1 -14    1.74    0.51
 -25   1  14    1.20    0.50
 -23  -1  14   55.76    3.05
  23  -1 -14   59.86    3.00
  23  -1 -14   57.35    2.67
  23   1 -14   56.52    2.80
  23   1 -14   56.93    2.62
 -23   1  14   54.12    2.98
  21  -1 -14   12.61    1.25
 -21  -1  14   10.63    1.36
  21  -1 -14   11.08    0.99
  21   1 -14    9.09    1.01
 -21   1  14    9.89    1.30
  21   1 -14   11.02    0.94
  19  -1 -14   79.75    3.51
 -19  -1  14   73.45    3.44
  19  -1 -14   76.76    2.99
  19   1 -14   77.57    3.18
 -19   1  14   75.79    3.46
  19   1 -14   78.32    3.09
  17  -1 -14   38.35    1.89
  17  -1 -14   42.26    2.40
 -17  -1  14   37.21    2.29
 -17   1  14   38.39    2.30
  17   1 -14   40.51    2.12
  17   1 -14   40.10    2.03
  15  -1 -14   48.56    2.57
 -15  -1  14   49.67    2.59
  15  -1 -14   47.26    2.05
  15   1 -14   49.24    2.27
  15   1 -14   46.27    2.21
 -15   1  14   46.31    2.48
 -13  -1  14   24.78    1.75
  13  -1 -14   24.27    1.75
  13  -1 -14   25.74    1.36
  13   1 -14   26.25    1.58
  13   1 -14   25.76    1.54
 -13   1  14   22.12    1.65
  11  -1 -14   72.59    3.19
 -11  -1  14   70.03    3.02
  11  -1 -14   71.26    2.43
  11   1 -14   71.50    2.84
 -11   1  14   67.30    2.98
  11   1 -14   71.88    2.71
   9  -1 -14   75.17    2.40
  -9  -1  14   74.00    2.28
  -9  -1  14   68.38    2.94
   9  -1 -14   74.65    3.22
   9   1 -14   75.66    2.73
  -9   1  14   73.37    3.04
   9   1 -14   76.14    2.97
  -7  -1  14   48.84    1.82
  -7  -1  14   48.79    2.30
   7  -1 -14   44.64    1.68
   7  -1 -14   49.79    2.56
   7   1 -14   51.31    2.08
  -7   1  14   47.96    2.33
  -7   1  14   49.84    1.78
   7   1 -14   49.92    2.33
  -5  -1  14   69.23    2.79
   5  -1 -14   70.24    3.12
  -5  -1  14   70.92    2.40
   5  -1 -14   70.46    2.15
   5   1 -14   73.60    2.55
   5   1 -14   73.28    2.92
  -5   1  14   74.21    2.43
  -5   1  14   69.67    2.85
  -3  -1  14   85.03    3.07
  -3  -1  14   88.45    2.84
   3  -1 -14   86.05    3.44
  -3   1  14   84.36    3.14
   3   1 -14   86.34    3.21
   3   1 -14   89.49    3.29
   3   1 -14   91.68    2.89
  -3   1  14   82.56    2.78
   1  -1 -14  147.31    4.92
  -1  -1  14  153.12    4.28
  -1  -1  14  155.68    4.50
  -1   1  14  159.48    4.64
   1   1 -14  154.89    4.74
  -1   1  14  159.05    4.36
   1   1 -14  153.69    4.17
   1   1 -14  158.23    4.76
  -1  -1 -14   78.77    3.20
   1  -1  14   79.07    2.72
   1  -1  14   78.80    2.83
  -1   1 -14   81.00    3.05
   1   1  14   81.73    2.91
  -1   1 -14   83.21    2.66
   1   1  14   80.31    2.90
  -1   1 -14   78.95    3.03
   3  -1  14   75.17    2.46
  -3  -1 -14   65.09    2.87
   3  -1  14   65.68    2.63
   3   1  14   69.69    2.74
   3   1  14   73.06    2.63
  -3   1 -14   68.39    2.78
  -3   1 -14   71.58    2.81
  -3   1 -14   71.05    2.42
   5  -1  14   34.82    1.87
  -5  -1 -14   32.82    1.94
   5   1  14   34.43    1.90
  -5   1 -14   34.38    1.57
   5   1  14   35.74    1.67
  -5   1 -14   34.40    1.90
  -5   1 -14   36.21    1.86
   7  -1  14   41.93    2.15
  -7  -1 -14   44.74    2.30
  -7   1 -14   42.23    2.10
  -7   1 -14   43.32    1.81
   7   1  14   38.64    2.12
   7   1  14   44.32    1.84
  -7   1 -14   41.80    2.14
   9  -1  14    0.83    0.49
  -9  -1 -14   -0.05    0.36
  -9   1 -14    0.23    0.41
  -9   1 -14    0.84    0.19
   9   1  14    0.51    0.44
  -9   1 -14    0.43    0.21
 -11  -1 -14    8.75    1.14
  11  -1  14   10.07    1.19
 -11   1 -14    8.23    1.01
 -11   1 -14    9.08    0.83
  11   1  14    9.41    1.18
 -11   1 -14   10.00    0.96
 -13  -1 -14    4.48    0.87
  13  -1  14    4.78    0.89
 -13   1 -14    5.49    0.92
 -13   1 -14    5.25    0.69
  13   1  14    4.27    0.85
 -13   1 -14    6.30    0.83
 -15  -1 -14   29.80    2.07
  15  -1  14   31.10    2.03
  15  -1  14   33.89    1.65
 -15   1 -14   31.95    2.09
  15   1  14   32.32    2.14
  17  -1  14    0.79    0.41
 -17  -1 -14    0.68    0.52
  17   1  14    0.71    0.35
 -17   1 -14    0.81    0.53
 -19  -1 -14   47.25    2.77
  19  -1  14   47.19    2.60
  19   1  14   48.42    2.73
 -19   1 -14   46.51    2.70
  21  -1  14    5.61    0.88
 -21  -1 -14    6.74    1.09
  21   1  14    7.26    1.03
 -21   1 -14    6.47    1.09
 -23  -1 -14   36.23    2.46
  23  -1  14   37.62    2.29
 -23   1 -14   37.19    2.50
  23   1  14   40.56    2.44
  26  -2 -14   24.34    1.95
 -26  -2  14   20.42    1.83
  26  -2 -14   21.44    1.53
 -26   2  14   20.13    1.70
  26   2 -14   21.76    1.75
 -24  -2  14    8.52    1.30
  24  -2 -14    8.54    0.85
  24  -2 -14   10.42    1.23
  24   2 -14    8.59    1.09
 -24   2  14    8.11    1.13
 -22  -2  14   46.05    2.77
  22  -2 -14   46.81    2.30
  22  -2 -14   47.12    2.77
 -22   2  14   43.88    2.66
  22   2 -14   50.40    2.66
  20  -2 -14    1.23    0.25
  20  -2 -14    0.43    0.45
 -20  -2  14    0.46    0.46
 -20   2  14   -0.06    0.39
  20   2 -14    0.58    0.35
  18  -2 -14   81.81    2.97
 -18  -2  14   81.81    3.62
  18  -2 -14   82.53    3.70
  18   2 -14   82.54    3.37
 -18   2  14   77.35    3.53
  16  -2 -14    7.01    0.64
  16  -2 -14    5.63    1.02
 -16  -2  14    5.95    1.03
  16   2 -14    5.40    0.87
 -16   2  14    4.34    0.91
  14  -2 -14   64.32    3.10
  14  -2 -14   62.42    2.30
 -14  -2  14   60.93    2.91
  14   2 -14   60.13    2.67
  14   2 -14   60.62    2.40
 -14   2  14   60.64    2.90
  12  -2 -14   11.02    0.76
  12  -2 -14   10.04    1.23
 -12  -2  14    9.48    1.11
  12   2 -14   10.36    1.04
  12   2 -14   11.10    0.84
 -12   2  14    8.67    1.07
 -10  -2  14   11.14    1.13
  10  -2 -14    9.91    1.21
 -10  -2  14   13.45    0.79
  10   2 -14   12.99    1.15
 -10   2  14   10.91    1.16
  10   2 -14   13.61    0.96
   8  -2 -14   36.24    2.27
  -8  -2  14   37.99    2.05
  -8  -2  14   41.09    1.66
  -8   2  14   38.09    2.11
   8   2 -14   40.51    1.89
  -8   2  14   41.16    1.58
   8   2 -14   42.75    2.06
  -6  -2  14   10.87    0.81
  -6  -2  14    9.52    0.95
   6  -2 -14   10.78    1.21
  -6   2  14    8.60    0.99
   6   2 -14   10.85    0.89
   6   2 -14   11.52    0.99
  -6   2  14   11.03    0.77
   6   2 -14   10.12    0.96
   4  -2 -14   -0.26    0.36
  -4  -2  14    0.46    0.27
  -4  -2  14    0.04    0.22
   4   2 -14    0.61    0.19
   4   2 -14    0.17    0.29
   4   2 -14    0.85    0.15
  -4   2  14    0.15    0.34
  -4   2  14    1.31    0.29
  -2  -2  14   29.87    1.59
  -2  -2  14   29.39    1.56
   2  -2 -14   30.63    1.98
   2   2 -14   32.04    1.78
   2   2 -14   31.82    1.67
  -2   2  14   31.81    1.61
  -2   2  14   30.97    1.77
   2   2 -14   32.51    1.65
   0  -2  14    2.39    0.36
   0  -2  14    1.42    0.50
   0  -2 -14    1.95    0.66
   0   2 -14    2.09    0.43
   0   2 -14    1.80    0.42
   0   2  14    2.24    0.53
   0   2  14    1.05    0.42
   0   2 -14    1.45    0.39
  -2  -2 -14  118.71    4.21
   2  -2  14  112.44    3.70
   2   2  14  122.47    3.86
  -2   2 -14  122.84    3.87
  -2   2 -14  111.94    3.91
  -2   2 -14  113.28    3.55
   2   2  14  115.45    3.81
  -4  -2 -14    2.79    0.69
   4  -2  14    2.95    0.68
  -4   2 -14    3.71    0.66
   4   2  14    3.82    0.74
  -4   2 -14    3.48    0.58
   4   2  14    4.27    0.66
  -4   2 -14    4.75    0.67
   6  -2  14  120.08    3.95
  -6  -2 -14  110.76    4.09
  -6   2 -14  118.75    3.98
  -6   2 -14  110.75    3.84
   6   2  14  110.64    3.92
  -6   2 -14  117.80    3.63
   6   2  14  118.38    3.73
  -8  -2 -14    4.54    0.85
  -8  -2 -14    5.17    0.49
   8  -2  14    5.39    0.90
   8   2  14    4.03    0.82
  -8   2 -14    4.79    0.74
  -8   2 -14    4.35    0.64
   8   2  14    4.52    0.63
  -8   2 -14    3.49    0.68
  10  -2  14  140.79    4.61
 -10  -2 -14  135.48    4.77
 -10   2 -14  136.46    4.51
 -10   2 -14  140.37    4.24
  10   2  14  141.24    4.78
 -10   2 -14  140.17    4.60
  12  -2  14    3.24    0.75
 -12  -2 -14    4.39    0.89
  12   2  14    3.74    0.85
 -12   2 -14    4.84    0.75
 -12   2 -14    4.60    0.73
 -12   2 -14    4.60    0.83
  14  -2  14   82.69    3.45
 -14  -2 -14   81.15    3.58
 -14   2 -14   78.69    3.09
  14   2  14   81.73    3.60
 -14   2 -14   76.75    3.36
 -14   2 -14   81.41    3.38
 -16  -2 -14    1.10    0.59
  16  -2  14    0.95    0.41
 -16   2 -14    0.04    0.36
  16   2  14    0.85    0.44
  18  -2  14   96.08    3.54
 -18  -2 -14  103.19    4.29
  18  -2  14   99.98    4.01
 -18   2 -14   97.22    4.09
  18   2  14   99.90    4.21
 -20  -2 -14    3.28    0.78
  20  -2  14    3.97    0.74
  20  -2  14    4.40    0.36
  20   2  14    3.62    0.76
 -20   2 -14    3.38    0.76
 -22  -2 -14   28.89    2.14
  22  -2  14   24.74    1.77
  22  -2  14   26.97    1.64
 -22   2 -14   27.11    2.05
  22   2  14   25.90    2.03
  25  -3 -14    1.50    0.49
 -25  -3  14    1.70    0.62
  25   3 -14    2.04    0.50
 -23  -3  14   35.42    2.43
  23  -3 -14   36.37    2.54
  23   3 -14   35.77    2.33
 -23   3  14   31.45    2.22
  21  -3 -14    9.22    1.36
 -21  -3  14    8.75    1.26
  21   3 -14   10.05    1.26
 -21   3  14    8.67    1.26
 -19  -3  14   31.69    2.22
  19  -3 -14   32.58    2.37
  19   3 -14   33.87    2.16
 -19   3  14   31.37    2.19
  17  -3 -14   17.04    1.66
 -17  -3  14   17.11    1.57
 -17   3  14   15.88    1.53
  17   3 -14   16.05    1.44
  15  -3 -14   33.60    2.31
 -15  -3  14   35.13    2.20
  15   3 -14   34.23    2.11
 -15   3  14   32.70    2.15
 -13  -3  14   57.77    2.85
  13  -3 -14   60.80    3.15
 -13   3  14   60.98    2.96
  13   3 -14   62.03    2.85
 -11  -3  14   18.89    1.53
  11  -3 -14   19.09    1.70
 -11  -3  14   19.53    1.08
 -11   3  14   19.07    1.56
  11   3 -14   18.20    1.46
   9  -3 -14   10.75    1.28
  -9  -3  14   12.23    1.15
  -9  -3  14   12.71    0.86
   9   3 -14   10.86    1.13
  -9   3  14   11.17    1.21
   9   3 -14   13.64    1.13
   7  -3 -14   31.30    2.15
  -7  -3  14   28.32    1.71
  -7  -3  14   29.39    1.51
   7   3 -14   33.18    1.95
  -7   3  14   29.54    1.89
   7   3 -14   30.16    1.81
  -7   3  14   33.99    1.50
  -5  -3  14   87.51    3.00
  -5  -3  14   92.47    3.28
   5  -3 -14   91.07    3.88
   5   3 -14   93.06    3.59
  -5   3  14   90.40    3.49
  -5   3  14   94.26    3.04
   5   3 -14   90.97    3.34
   3  -3 -14   60.33    3.01
  -3  -3  14   60.80    2.42
  -3  -3  14   57.51    2.32
   3   3 -14   59.07    2.70
   3   3 -14   56.91    2.49
   3   3 -14   63.45    2.40
  -3   3  14   53.43    2.28
  -3   3  14   62.35    2.75
   1  -3 -14   53.88    2.78
  -1  -3  14   53.71    2.09
  -1  -3  14   51.81    2.29
   1   3 -14   57.44    2.26
  -1   3  14   54.13    2.52
   1   3 -14   52.25    2.35
  -1   3  14   51.65    2.30
   1   3 -14   53.74    2.51
   1  -3  14   80.70    3.01
  -1  -3 -14   78.10    3.42
  -1   3 -14   79.19    3.17
  -1   3 -14   79.27    2.98
   1   3  14   78.31    3.04
   1   3  14   82.18    3.17
  -1   3 -14   84.22    2.94
   3  -3  14   63.26    2.66
  -3  -3 -14   61.82    2.58
  -3  -3 -14   59.01    2.89
   3   3  14   62.31    2.61
  -3   3 -14   62.91    2.75
   3   3  14   63.13    2.74
  -3   3 -14   61.90    2.56
  -3   3 -14   63.36    2.49
  -5  -3 -14    9.94    1.15
   5  -3  14    9.56    1.05
  -5  -3 -14   13.13    1.04
  -5   3 -14    9.62    1.00
  -5   3 -14    9.99    0.99
   5   3  14   10.29    1.13
  -5   3 -14   10.92    0.95
   5   3  14   11.94    1.03
  -7  -3 -14    8.89    0.81
  -7  -3 -14    6.36    0.99
   7  -3  14    8.36    1.08
  -7   3 -14    9.67    0.98
   7   3  14    7.28    1.05
   7   3  14    8.00    0.85
  -7   3 -14    7.81    0.93
  -7   3 -14    7.90    0.81
  -9  -3 -14    1.35    0.58
   9  -3  14    1.74    0.61
  -9  -3 -14    1.74    0.32
   9   3  14    1.04    0.57
   9   3  14    1.77    0.39
  -9   3 -14    1.82    0.46
  -9   3 -14    1.30    0.48
  -9   3 -14    1.89    0.52
 -11  -3 -14   13.19    1.36
  11  -3  14   11.30    1.21
 -11  -3 -14   13.70    0.96
  11   3  14   11.35    1.38
 -11   3 -14   11.56    1.08
 -11   3 -14   12.43    1.16
  11   3  14   14.76    1.18
 -11   3 -14   11.24    1.08
 -13  -3 -14    7.30    1.10
  13  -3  14    7.69    1.08
 -13   3 -14    7.73    1.01
 -13   3 -14    7.39    0.86
 -13   3 -14    6.97    0.95
  13   3  14    6.82    1.09
  15  -3  14   19.83    1.63
 -15  -3 -14   19.40    1.67
 -15   3 -14   19.18    1.52
  15   3  14   20.25    1.77
 -15   3 -14   19.56    1.52
 -15   3 -14   19.56    1.53
  17  -3  14    2.31    0.59
 -17  -3 -14    1.71    0.60
 -17   3 -14    2.06    0.48
 -17   3 -14    2.32    0.63
 -17   3 -14    2.10    0.48
  17   3  14    1.66    0.60
  19  -3  14   40.59    2.42
 -19  -3 -14   39.97    2.54
  19  -3  14   35.22    2.03
 -19   3 -14   37.61    2.31
  19   3  14   40.40    2.60
  21  -3  14    1.66    0.25
  24  -4 -14    1.23    0.39
 -24  -4  14    1.82    0.45
  24   4 -14    1.76    0.39
 -24   4  14    2.05    0.12
 -22  -4  14   21.21    1.86
  22  -4 -14   22.06    2.03
  22   4 -14   21.65    1.83
 -22   4  14   21.48    1.77
  20  -4 -14    6.74    1.19
 -20  -4  14    5.79    1.03
  20   4 -14    6.66    1.02
 -20   4  14    6.26    1.02
 -18  -4  14   35.94    2.40
  18  -4 -14   39.32    2.68
  18   4 -14   39.38    2.39
 -18   4  14   39.47    2.51
 -16  -4  14    0.72    0.51
  16  -4 -14    0.67    0.48
  16   4 -14    0.81    0.41
 -16   4  14    0.50    0.49
 -14  -4  14   35.32    2.21
  14  -4 -14   35.41    2.45
 -14   4  14   32.55    2.21
  14   4 -14   33.40    2.16
 -12  -4  14   27.39    1.42
 -12  -4  14   26.17    1.83
  12  -4 -14   27.78    2.14
  12   4 -14   26.27    1.88
 -12   4  14   27.35    1.97
  10  -4 -14    9.11    1.31
 -10  -4  14    8.58    0.96
 -10  -4  14    8.31    0.72
  10   4 -14    9.53    1.00
  10   4 -14    8.87    1.15
 -10   4  14    9.03    1.20
  -8  -4  14    1.58    0.33
   8  -4 -14    1.21    0.63
  -8  -4  14    1.40    0.42
   8   4 -14    1.58    0.58
   8   4 -14    1.47    0.34
  -8   4  14    1.12    0.54
  -6  -4  14    6.18    0.75
   6  -4 -14    5.76    1.07
  -6  -4  14    5.21    0.64
  -6   4  14    5.19    0.94
  -6   4  14    6.11    0.59
   6   4 -14    5.73    0.82
   6   4 -14    4.57    0.86
   4  -4 -14   28.15    2.08
  -4  -4  14   29.98    1.60
  -4  -4  14   28.35    1.65
   4   4 -14   29.94    1.87
  -4   4  14   28.93    1.92
  -4   4  14   29.02    1.59
   4   4 -14   28.61    1.87
  -2  -4  14   26.75    1.39
   2  -4 -14   27.42    2.02
  -2  -4  14   24.91    1.60
   2   4 -14   23.41    1.63
  -2   4  14   25.04    1.74
  -2   4  14   26.37    1.57
   2   4 -14   25.36    1.73
   0  -4 -14   23.61    1.62
   0  -4  14   24.71    1.62
   0  -4 -14   21.55    1.77
   0   4  14   22.91    1.46
   0   4 -14   22.37    1.59
   0   4 -14   22.31    1.57
   0   4  14   22.45    1.52
  -2  -4 -14   49.07    2.40
  -2  -4 -14   48.54    2.67
   2  -4  14   48.76    2.39
  -2   4 -14   47.05    2.35
   2   4  14   47.51    2.40
   2   4  14   48.11    2.28
  -2   4 -14   48.23    2.43
  -4  -4 -14    1.23    0.45
  -4  -4 -14    1.14    0.58
   4  -4  14    1.12    0.54
  -4   4 -14    0.70    0.39
  -4   4 -14    0.11    0.41
   4   4  14    1.74    0.49
   4   4  14    0.53    0.50
  -6  -4 -14   53.75    2.82
  -6  -4 -14   55.39    2.53
   6  -4  14   58.53    2.74
  -6   4 -14   59.99    2.44
   6   4  14   58.36    2.61
  -6   4 -14   58.48    2.71
   6   4  14   56.64    2.78
  -6   4 -14   55.79    2.63
  -8  -4 -14   11.20    1.25
   8  -4  14   11.14    1.21
  -8  -4 -14   11.15    1.00
  -8   4 -14   10.96    1.16
   8   4  14   11.09    1.05
  -8   4 -14   11.49    0.93
   8   4  14   11.82    1.38
  -8   4 -14   10.73    1.11
  10  -4  14   34.48    2.16
 -10  -4 -14   33.00    2.17
 -10  -4 -14   32.97    1.83
  10   4  14   33.10    1.98
 -10   4 -14   34.44    1.88
 -10   4 -14   34.07    2.06
  10   4  14   33.09    2.25
 -10   4 -14   35.02    2.07
 -12  -4 -14    2.23    0.19
 -12  -4 -14    1.45    0.54
  12  -4  14    1.15    0.50
 -12   4 -14    2.31    0.24
 -12   4 -14    2.11    0.54
  12   4  14    1.69    0.71
  12   4  14    3.13    0.37
 -12   4 -14    0.89    0.49
  14  -4  14   42.83    2.50
 -14  -4 -14   43.13    2.55
  14   4  14   44.53    2.70
 -14   4 -14   50.18    2.51
 -14   4 -14   42.93    2.30
 -14   4 -14   42.10    2.40
 -16  -4 -14   10.75    1.14
  16  -4  14   12.49    1.25
 -16   4 -14   11.03    1.11
 -16   4 -14    9.93    1.21
  16   4  14   10.76    1.36
 -16   4 -14   11.20    1.02
 -18  -4 -14   28.08    2.02
  18  -4  14   25.51    1.89
 -18   4 -14   25.26    1.85
 -18   4 -14   24.83    1.71
  18   4  14   29.69    2.23
 -18   4 -14   25.04    1.79
  21  -5 -14    3.13    0.78
 -21  -5  14    3.06    0.71
  21   5 -14    3.95    0.75
 -21   5  14    4.00    0.70
 -19  -5  14    9.37    1.25
  19  -5 -14    8.22    1.27
  19   5 -14    9.99    1.22
 -19   5  14    7.84    1.13
  17  -5 -14    5.95    1.14
 -17  -5  14    5.71    0.97
 -17   5  14    6.99    1.12
  17   5 -14    6.19    1.01
 -15  -5  14    2.53    0.66
  15  -5 -14    3.24    0.86
  15   5 -14    3.52    0.80
 -15   5  14    2.83    0.82
 -13  -5  14    8.15    1.05
  13  -5 -14    7.85    1.27
  13   5 -14    8.66    1.18
 -13   5  14    7.38    1.19
 -11  -5  14    7.46    0.96
  11  -5 -14    7.57    1.23
 -11  -5  14    7.65    0.66
  11   5 -14    7.58    0.87
  11   5 -14    7.27    1.10
 -11   5  14    6.06    1.05
  -9  -5  14   19.34    1.45
   9  -5 -14   19.50    1.82
  -9  -5  14   20.47    1.36
   9   5 -14   20.93    1.70
   9   5 -14   20.15    1.60
  -9   5  14   19.08    1.68
  -7  -5  14    4.83    0.59
   7  -5 -14    5.20    1.05
  -7  -5  14    5.04    0.70
  -7   5  14    3.60    0.82
   7   5 -14    5.47    0.82
   7   5 -14    4.69    0.89
  -5  -5  14   17.74    1.22
  -5  -5  14   18.71    1.37
   5  -5 -14   15.17    1.60
   5   5 -14   16.96    1.51
  -5   5  14   16.96    1.54
   5   5 -14   18.94    1.51
  -5   5  14   18.27    1.22
   3  -5 -14   21.37    1.84
   3  -5 -14   21.58    1.67
  -3  -5  14   21.80    1.56
  -3   5  14   21.49    1.43
  -3   5  14   21.73    1.44
   3   5 -14   23.09    1.69
   3   5 -14   21.29    1.66
   1  -5 -14   23.27    1.89
  -1  -5  14   19.48    1.51
   1  -5 -14   21.17    1.62
   1   5 -14   20.97    1.64
  -1   5  14   22.90    1.54
  -1   5  14   22.54    1.47
   1   5 -14   21.83    1.63
   1  -5  14   17.13    1.43
  -1  -5 -14   14.40    1.34
  -1  -5 -14   14.78    1.51
  -1   5 -14   13.34    1.30
  -1   5 -14   14.47    1.31
   1   5  14   16.12    1.34
   1   5  14   15.02    1.23
  -3  -5 -14    6.75    1.01
   3  -5  14    5.44    0.93
  -3  -5 -14    6.01    1.02
   3   5  14    5.90    0.94
   3   5  14    6.69    0.90
  -3   5 -14    6.38    1.01
  -3   5 -14    7.40    1.01
   5  -5  14   22.21    1.69
  -5  -5 -14   23.03    1.62
  -5  -5 -14   22.42    1.78
  -5   5 -14   21.92    1.65
   5   5  14   22.23    1.55
  -5   5 -14   21.94    1.69
   5   5  14   20.10    1.66
  -7  -5 -14    2.27    0.45
   7  -5  14    1.50    0.61
  -7  -5 -14    2.25    0.56
  -7   5 -14    1.70    0.56
   7   5  14    2.16    0.49
  -7   5 -14    1.60    0.57
   7   5  14    1.71    0.63
  -9  -5 -14    2.05    0.52
  -9  -5 -14    2.85    0.33
   9  -5  14    1.78    0.57
   9   5  14    2.00    0.48
  -9   5 -14    1.40    0.59
   9   5  14    1.30    0.63
  -9   5 -14    2.08    0.59
  11  -5  14    2.43    0.68
 -11  -5 -14    3.08    0.60
 -11  -5 -14    3.81    0.39
  11   5  14    1.70    0.71
 -11   5 -14    2.26    0.67
  11   5  14    2.24    0.45
 -11   5 -14    2.05    0.61
 -13  -5 -14    4.36    0.41
  13  -5  14    4.12    0.80
 -13  -5 -14    3.92    0.69
 -13   5 -14    4.08    0.80
 -13   5 -14    2.69    0.71
  13   5  14    2.56    0.77
  13   5  14    4.14    0.66
 -15  -5 -14   17.46    1.48
  15  -5  14   16.00    1.48
 -15   5 -14   15.70    1.38
 -15   5 -14   14.59    1.42
  15   5  14   16.75    1.64
  18  -6 -14    7.88    1.16
 -18  -6  14    7.77    1.06
 -18   6  14    8.07    1.11
  18   6 -14    6.56    1.07
 -16  -6  14    9.35    1.10
  16  -6 -14    9.10    1.33
  16   6 -14   11.00    1.36
 -16   6  14    8.64    1.18
 -14  -6  14    7.98    0.94
  14  -6 -14   10.25    1.37
 -14   6  14    8.68    1.29
  14   6 -14    7.70    1.17
 -12  -6  14    2.28    0.11
 -12  -6  14    1.98    0.43
  12  -6 -14    1.97    0.57
 -12   6  14    1.65    0.67
  12   6 -14    2.77    0.57
  12   6 -14    2.23    0.64
  10  -6 -14    5.23    0.98
 -10  -6  14    5.59    0.67
 -10  -6  14    5.52    0.51
  10   6 -14    3.64    0.76
  10   6 -14    5.62    0.85
 -10   6  14    3.76    0.92
  -8  -6  14   27.63    1.71
   8  -6 -14   27.55    2.15
  -8  -6  14   24.98    1.64
   8   6 -14   26.89    1.97
  -8   6  14   25.16    2.02
   8   6 -14   28.50    2.04
  -6  -6  14    2.96    0.56
  -6  -6  14    3.30    0.38
   6  -6 -14    3.72    0.82
  -6   6  14    2.37    0.71
   6   6 -14    3.42    0.66
   6   6 -14    2.97    0.73
  -6   6  14    4.58    0.37
  -4  -6  14   19.13    1.46
   4  -6 -14   16.50    1.54
   4  -6 -14   17.71    1.62
  -4   6  14   16.53    1.23
  -4   6  14   16.97    1.23
   4   6 -14   16.17    1.52
   4   6 -14   17.58    1.52
   2  -6 -14    3.06    0.70
  -2  -6  14    2.94    0.67
   2  -6 -14    3.19    0.81
   2   6 -14    2.85    0.63
  -2   6  14    2.54    0.44
   2   6 -14    1.68    0.63
  -2   6  14    2.65    0.63
   0  -6 -14    5.75    0.97
   0  -6  14    5.52    0.95
   0  -6 -14    6.07    0.97
   0   6 -14    5.64    0.98
   0   6  14    5.79    0.81
   0   6  14    6.18    0.82
   0   6 -14    6.30    0.93
  -2  -6 -14    4.69    0.88
   2  -6  14    5.09    0.92
  -2  -6 -14    7.08    1.00
  -2   6 -14    5.11    0.94
  -2   6 -14    5.20    0.88
   2   6  14    5.71    0.82
   2   6  14    6.79    0.89
  -4  -6 -14   22.95    1.83
  -4  -6 -14   21.33    1.68
   4  -6  14   23.07    1.80
  -4   6 -14   24.67    1.79
   4   6  14   24.03    1.78
  -4   6 -14   22.58    1.80
   4   6  14   21.60    1.56
  -6  -6 -14    8.43    0.95
  -6  -6 -14    7.87    0.93
   6  -6  14    7.59    1.10
   6   6  14    7.52    0.88
  -6   6 -14    9.22    1.21
  -6   6 -14    8.42    1.02
   6   6  14    7.47    1.08
  -8  -6 -14    5.02    0.77
   8  -6  14    5.24    0.86
  -8  -6 -14    5.14    0.72
   8   6  14    3.59    0.83
   8   6  14    5.51    0.76
  -8   6 -14    4.87    0.81
  -8   6 -14    3.85    0.81
  10  -6  14    6.92    1.04
 -10  -6 -14    8.54    0.94
 -10  -6 -14    7.55    0.79
 -10   6 -14    8.07    0.95
  10   6  14    8.06    1.19
  10   6  14    7.23    0.79
 -10   6 -14    6.87    1.09
 -12  -6 -14   15.63    1.38
 -12  -6 -14   16.62    1.27
  12  -6  14   15.11    1.43
 -12   6 -14   15.79    1.49
 -12   6 -14   14.28    1.29
  12   6  14   14.93    1.56
  12   6  14   15.70    1.32
  11  -7 -14    1.37    0.32
 -11   7  14    1.58    0.52
  11   7 -14    1.46    0.44
  -9  -7  14    3.21    0.29
   9  -7 -14    3.11    0.64
  -9  -7  14    3.71    0.44
   9   7 -14    3.06    0.59
   9   7 -14    2.80    0.72
  -9   7  14    2.12    0.66
  -7   7  14    0.10    0.39
   7   7 -14    0.81    0.46
   5  -7 -14    1.57    0.29
   5  -7 -14    1.03    0.46
  -5   7  14    1.20    0.33
   5   7 -14    0.81    0.37
   3  -7 -14    0.99    0.49
  -3  -7  14    1.65    0.40
   3   7 -14    0.85    0.51
  -3   7  14    0.76    0.29
   3   7 -14    1.94    0.39
  -1  -7  14    4.04    0.78
   1  -7 -14    2.61    0.72
   1  -7 -14    2.92    0.59
  -1   7  14    4.15    0.32
   1   7 -14    2.38    0.64
   1   7 -14    3.18    0.61
  -1   7  14    2.81    0.54
  -1  -7 -14    5.36    0.64
  -1  -7 -14    5.44    0.93
   1  -7  14    7.42    1.05
   1   7  14    5.03    0.56
   1   7  14    4.99    0.74
  -1   7 -14    5.70    0.86
  -1   7 -14    4.39    0.84
  -3  -7 -14    2.83    0.67
  -3  -7 -14    5.12    0.60
   3  -7  14    1.91    0.55
  -3   7 -14    3.14    0.72
   3   7  14    3.65    0.35
  -3   7 -14    2.56    0.55
   3   7  14    3.00    0.57
  -5  -7 -14    5.83    0.84
  -5  -7 -14    5.71    0.54
   5  -7  14    5.26    0.92
  -5   7 -14    4.43    0.82
   5   7  14    4.89    0.74
   5   7  14    3.80    0.72
  -5   7 -14    4.10    0.71
   7  -7  14    1.13    0.31
   7   7  14    0.96    0.26
  -7   7 -14    1.39    0.29
  -7   7 -14    0.68    0.26
 -26   0  15    0.45    0.24
  24   0 -15    1.07    0.22
 -24   0  15    0.23    0.36
 -22   0  15    0.27    0.44
  22   0 -15    0.82    0.15
 -20   0  15   -0.27    0.34
  20   0 -15    0.79    0.22
  18   0 -15    0.94    0.26
 -18   0  15    0.30    0.43
  18   0 -15    0.75    0.21
  16   0 -15    0.48    0.17
 -16   0  15   -0.05    0.41
  16   0 -15    0.59    0.22
 -14   0  15   -0.12    0.34
  14   0 -15    0.76    0.33
  14   0 -15    0.53    0.20
  12   0 -15    0.32    0.32
  12   0 -15    0.47    0.16
 -12   0  15   -0.01    0.34
  10   0 -15    0.60    0.18
 -10   0  15   -0.32    0.30
  10   0 -15    0.14    0.30
  -8   0  15   -0.04    0.30
   8   0 -15    0.71    0.17
   8   0 -15   -0.04    0.30
   6   0 -15    0.57    0.13
  -6   0  15    1.04    0.19
  -6   0  15    0.15    0.32
   6   0 -15    0.18    0.33
   4   0 -15    0.05    0.37
  -4   0  15    0.10    0.28
   4   0 -15    1.43    0.16
  -4   0  15    0.91    0.23
  -2   0  15    0.00    0.24
  -2   0  15    0.46    0.27
   2   0 -15    0.22    0.37
   0   0  15    0.42    0.18
   0   0  15    0.12    0.31
   0   0 -15    0.02    0.33
  -2   0 -15   -0.02    0.36
   2   0  15    0.31    0.32
   2   0  15    0.76    0.20
   4   0  15    0.82    0.13
   4   0  15   -0.30    0.26
  -4   0 -15    0.37    0.40
   6   0  15   -0.10    0.31
  -6   0 -15   -0.20    0.33
  -8   0 -15    0.24    0.45
   8   0  15    0.17    0.35
  10   0  15    0.14    0.37
 -10   0 -15   -0.01    0.40
  12   0  15   -0.12    0.26
 -12   0 -15   -0.41    0.31
 -14   0 -15    0.07    0.42
  14   0  15    0.39    0.33
  16   0  15    0.64    0.32
 -16   0 -15   -0.04    0.36
  18   0  15    0.94    0.38
 -18   0 -15   -0.10    0.39
 -20   0 -15    0.32    0.36
  25  -1 -15    7.28    0.81
 -25  -1  15    7.37    1.17
  25  -1 -15    7.72    0.81
  25   1 -15    8.37    1.04
 -25   1  15    8.51    1.21
 -23  -1  15    5.17    1.02
  23  -1 -15    7.01    0.84
  23  -1 -15    6.92    0.76
 -23   1  15    7.38    1.18
  23   1 -15    6.67    0.92
  21  -1 -15    1.92    0.38
 -21  -1  15    1.11    0.64
  21  -1 -15    1.60    0.40
  21   1 -15    1.40    0.39
 -21   1  15    0.51    0.54
  19  -1 -15    1.55    0.34
  19  -1 -15    2.37    0.58
 -19  -1  15    2.06    0.74
 -19   1  15    1.09    0.60
  19   1 -15    2.16    0.51
  17  -1 -15   13.28    1.01
 -17  -1  15   13.48    1.39
  17  -1 -15   12.80    1.34
  17   1 -15   13.16    1.06
 -17   1  15    9.91    1.22
  17   1 -15   10.43    1.02
  15  -1 -15    9.95    0.81
  15  -1 -15    8.36    1.15
 -15  -1  15    7.92    1.13
  15   1 -15    9.79    0.92
 -15   1  15    9.13    1.19
  15   1 -15    9.34    0.93
  13  -1 -15   11.81    1.30
  13  -1 -15   14.04    0.94
 -13  -1  15   11.12    1.22
  13   1 -15   12.24    1.05
  13   1 -15   11.81    1.02
 -13   1  15   11.53    1.24
 -11  -1  15    3.77    0.80
  11  -1 -15    3.51    0.36
  11  -1 -15    3.45    0.82
 -11   1  15    3.61    0.81
  11   1 -15    4.57    0.64
  11   1 -15    3.36    0.58
  -9  -1  15    6.76    0.50
   9  -1 -15    6.35    0.52
   9  -1 -15    6.89    1.03
  -9  -1  15    5.51    0.87
  -9   1  15    6.33    0.94
   9   1 -15    6.22    0.77
   9   1 -15    6.51    0.70
  -7  -1  15    8.94    0.69
  -7  -1  15    7.29    0.89
   7  -1 -15    7.19    1.08
  -7   1  15    9.46    0.65
   7   1 -15    8.03    0.90
  -7   1  15    7.84    1.00
   7   1 -15    8.42    0.80
  -5  -1  15    1.60    0.48
  -5  -1  15    2.42    0.38
   5  -1 -15    0.83    0.53
  -5   1  15    1.15    0.48
  -5   1  15    2.40    0.36
   5   1 -15    1.55    0.35
   5   1 -15    0.98    0.45
  -3  -1  15    8.02    0.77
  -3  -1  15    7.82    0.85
   3  -1 -15    8.65    1.07
  -3   1  15    7.16    0.86
   3   1 -15    7.09    0.88
   3   1 -15    9.52    0.79
  -3   1  15    8.85    0.77
  -1  -1  15    1.43    0.41
   1  -1 -15    0.81    0.50
  -1  -1  15    2.04    0.42
  -1   1  15    1.07    0.41
   1   1 -15    1.55    0.35
  -1   1  15    1.76    0.47
   1   1 -15    1.31    0.47
   1  -1  15    2.63    0.59
   1  -1  15    3.43    0.38
  -1  -1 -15    3.10    0.75
  -1   1 -15    3.03    0.67
  -1   1 -15    4.09    0.45
  -1   1 -15    2.89    0.44
   1   1  15    2.70    0.63
   1   1  15    3.00    0.56
   3  -1  15    4.91    0.78
  -3  -1 -15    4.14    0.80
  -3   1 -15    5.68    0.88
  -3   1 -15    6.18    0.65
  -3   1 -15    6.32    0.58
   3   1  15    5.61    0.85
   3   1  15    6.80    0.69
   5  -1  15    0.21    0.36
  -5  -1 -15    0.20    0.35
  -5   1 -15    1.32    0.27
   5   1  15    0.95    0.20
   5   1  15    0.18    0.38
  -5   1 -15    0.21    0.38
  -7  -1 -15    0.18    0.40
   7  -1  15   -0.26    0.30
  -7   1 -15   -0.31    0.29
   7   1  15    0.61    0.47
  -9  -1 -15    0.64    0.49
   9  -1  15    0.63    0.48
  -9   1 -15    0.88    0.23
   9   1  15    0.56    0.46
  -9   1 -15    1.16    0.28
  -9   1 -15    0.74    0.50
 -11  -1 -15   -0.07    0.37
  11  -1  15   -0.09    0.38
  11   1  15    0.17    0.42
 -11   1 -15    0.83    0.21
 -11   1 -15    0.15    0.40
  13  -1  15    1.31    0.55
 -13  -1 -15    1.80    0.66
  13   1  15    1.35    0.57
 -13   1 -15    1.38    0.62
 -13   1 -15    2.03    0.41
 -13   1 -15    1.98    0.41
  15  -1  15    0.48    0.38
 -15  -1 -15    0.67    0.48
  15   1  15    0.86    0.46
 -15   1 -15    0.40    0.46
 -17  -1 -15    3.06    0.83
  17  -1  15    3.41    0.76
 -17   1 -15    2.68    0.81
  17   1  15    2.84    0.73
 -19  -1 -15    1.12    0.46
  19  -1  15    2.04    0.52
  19   1  15    1.74    0.51
 -19   1 -15    0.84    0.55
 -21  -1 -15    3.35    0.74
  21  -1  15    2.45    0.54
 -21   1 -15    2.72    0.67
  21   1  15    2.49    0.53
  26  -2 -15   11.71    1.17
  26  -2 -15   10.45    0.96
 -26  -2  15   10.23    1.24
  26   2 -15    9.52    1.09
 -26   2  15   10.21    1.16
  24  -2 -15   10.70    1.24
 -24  -2  15   10.03    1.40
  24  -2 -15   10.02    0.95
  24   2 -15   10.52    1.12
 -24   2  15   10.08    1.21
 -22  -2  15    0.41    0.36
  22  -2 -15    1.05    0.48
  22   2 -15    0.76    0.29
 -22   2  15    0.25    0.39
 -20  -2  15    9.36    1.30
  20  -2 -15   11.17    1.31
  20  -2 -15   11.95    0.96
  20   2 -15   11.91    1.20
 -20   2  15    9.21    1.28
  18  -2 -15    3.81    0.87
  18  -2 -15    4.42    0.49
 -18  -2  15    3.98    0.90
 -18   2  15    2.96    0.82
  18   2 -15    3.94    0.75
  16  -2 -15    9.77    1.29
 -16  -2  15    7.97    1.18
  16   2 -15    9.04    1.07
 -16   2  15    7.70    1.13
 -14  -2  15    1.45    0.60
  14  -2 -15    1.63    0.68
  14   2 -15    2.04    0.55
 -14   2  15    1.73    0.66
  12  -2 -15    5.26    1.01
 -12  -2  15    5.68    0.94
 -12   2  15    5.01    0.93
  12   2 -15    6.87    0.91
  12   2 -15    8.14    0.63
 -10  -2  15    2.93    0.25
 -10  -2  15    1.67    0.61
  10  -2 -15    1.68    0.66
  10   2 -15    1.78    0.49
  10   2 -15    3.06    0.31
 -10   2  15    1.86    0.65
   8  -2 -15   10.25    1.25
  -8  -2  15   11.36    1.11
  -8  -2  15   11.09    0.79
   8   2 -15   11.45    1.03
   8   2 -15   12.53    0.95
  -8   2  15   11.70    1.20
  -6  -2  15    2.08    0.40
  -6  -2  15    1.44    0.41
   6  -2 -15    1.55    0.63
  -6   2  15    1.01    0.49
   6   2 -15    1.10    0.38
   6   2 -15    2.30    0.28
  -6   2  15    3.37    0.30
   4  -2 -15    9.86    1.26
  -4  -2  15   10.18    0.94
  -4  -2  15   11.09    0.91
  -4   2  15   11.32    0.88
   4   2 -15   12.02    1.00
   4   2 -15   10.75    0.97
   4   2 -15   12.39    1.02
  -4   2  15    9.11    1.04
   2  -2 -15   18.21    1.58
  -2  -2  15   20.16    1.31
  -2  -2  15   18.93    1.23
   2   2 -15   19.93    1.29
  -2   2  15   19.80    1.30
   2   2 -15   21.26    1.38
  -2   2  15   17.99    1.39
   2   2 -15   20.75    1.42
   0  -2 -15   21.23    1.66
   0  -2  15   21.68    1.22
   0  -2  15   18.53    1.33
   0   2 -15   18.85    1.32
   0   2  15   19.32    1.38
   0   2 -15   19.51    1.38
   0   2  15   20.27    1.38
   0   2 -15   19.47    1.26
   2  -2  15    5.92    0.85
  -2  -2 -15    6.67    1.00
  -2   2 -15    6.44    0.77
  -2   2 -15    7.11    0.76
   2   2  15    6.46    0.78
   2   2  15    7.38    0.96
  -2   2 -15    6.29    0.70
   4  -2  15    9.79    1.04
  -4  -2 -15    8.93    1.10
  -4   2 -15   10.35    0.92
  -4   2 -15   12.65    1.07
   4   2  15   10.87    1.12
   4   2  15   11.45    1.00
  -4   2 -15   10.30    1.00
  -6  -2 -15   16.25    1.45
   6  -2  15   17.15    1.40
   6   2  15   20.07    1.30
  -6   2 -15   16.02    1.30
  -6   2 -15   16.93    1.18
  -6   2 -15   17.28    1.31
   6   2  15   16.78    1.42
  -8  -2 -15   21.28    1.68
   8  -2  15   20.79    1.59
  -8   2 -15   22.59    1.58
   8   2  15   24.22    1.40
   8   2  15   18.82    1.57
  -8   2 -15   22.99    1.59
  -8   2 -15   22.51    1.40
 -10  -2 -15   10.89    1.24
  10  -2  15    8.64    1.15
 -10   2 -15    9.49    1.05
  10   2  15   10.27    1.29
 -10   2 -15   10.11    1.01
 -10   2 -15   10.15    0.92
  12  -2  15    2.99    0.72
 -12  -2 -15    3.98    0.86
 -12   2 -15    3.58    0.76
  12   2  15    3.23    0.81
 -12   2 -15    3.44    0.60
 -12   2 -15    4.10    0.65
  14  -2  15   15.55    1.44
 -14  -2 -15   15.35    1.52
 -14   2 -15   15.36    1.30
 -14   2 -15   14.80    1.39
 -14   2 -15   14.69    1.20
  14   2  15   15.32    1.47
  16  -2  15   14.09    1.40
 -16  -2 -15   14.80    1.51
 -16   2 -15   14.05    1.21
  16   2  15   17.17    1.61
 -16   2 -15   15.56    1.45
 -16   2 -15   15.44    1.37
  18  -2  15    8.14    1.10
 -18  -2 -15    7.82    1.16
 -18   2 -15    8.23    1.11
 -18   2 -15    7.52    1.00
 -18   2 -15    7.67    0.96
  18   2  15    6.82    1.08
 -20  -2 -15    1.35    0.45
  20  -2  15    1.57    0.29
  20   2  15    0.79    0.17
 -20   2 -15    1.55    0.37
  23  -3 -15   29.17    2.25
 -23  -3  15   23.33    1.95
 -23   3  15   24.40    1.96
  23   3 -15   26.87    2.02
  21  -3 -15    8.60    1.28
 -21  -3  15    9.77    1.31
  21   3 -15    8.01    1.09
 -21   3  15    8.00    1.19
 -19  -3  15   29.85    2.19
  19  -3 -15   29.96    2.27
 -19   3  15   28.21    2.12
  19   3 -15   32.72    2.13
 -17  -3  15    1.41    0.62
  17  -3 -15    1.37    0.69
  17   3 -15    1.86    0.59
 -17   3  15    1.61    0.65
  15  -3 -15   36.35    2.46
 -15  -3  15   35.41    2.28
  15   3 -15   35.15    2.14
 -15   3  15   35.37    2.33
 -13  -3  15   26.15    1.90
  13  -3 -15   25.67    2.04
 -13   3  15   25.10    1.90
  13   3 -15   27.34    1.84
  11  -3 -15   28.99    2.13
 -11  -3  15   25.91    1.82
  11   3 -15   28.99    1.87
 -11   3  15   25.80    1.89
  -9  -3  15    3.25    0.35
   9  -3 -15    2.09    0.72
  -9  -3  15    2.46    0.60
  -9   3  15    2.74    0.72
   9   3 -15    2.56    0.67
  -7  -3  15   52.69    2.48
  -7  -3  15   54.94    2.21
   7  -3 -15   54.55    2.97
   7   3 -15   52.92    2.63
  -7   3  15   57.34    2.15
  -7   3  15   53.98    2.70
   7   3 -15   52.23    2.50
  -5  -3  15    0.46    0.20
   5  -3 -15   -0.32    0.32
  -5  -3  15    0.60    0.22
   5   3 -15    0.25    0.38
  -5   3  15    0.21    0.37
  -5   3  15    1.20    0.21
  -3  -3  15   44.50    2.09
   3  -3 -15   45.79    2.65
  -3  -3  15   45.49    2.05
  -3   3  15   45.48    2.37
  -3   3  15   44.14    2.04
   3   3 -15   46.84    2.06
   3   3 -15   45.06    2.23
   3   3 -15   46.57    2.38
  -1  -3  15    9.53    0.74
  -1  -3  15    8.75    1.01
   1  -3 -15    8.62    1.20
   1   3 -15    9.61    0.98
   1   3 -15   11.12    0.81
   1   3 -15    8.09    0.91
  -1   3  15    9.41    0.92
  -1   3  15    8.06    0.98
   1  -3  15   11.74    1.12
  -1  -3 -15   11.13    1.27
   1   3  15   12.43    1.16
  -1   3 -15   11.73    1.10
  -1   3 -15   12.28    1.09
   1   3  15   12.65    1.14
  -1   3 -15   13.90    1.01
   3  -3  15   -0.12    0.31
  -3  -3 -15    0.31    0.38
  -3   3 -15    0.06    0.23
   3   3  15    0.68    0.30
   3   3  15   -0.16    0.33
  -3   3 -15    0.46    0.26
  -5  -3 -15   12.60    1.34
  -5  -3 -15   13.18    1.07
   5  -3  15   12.52    1.22
  -5   3 -15   12.41    1.17
  -5   3 -15   13.89    1.10
   5   3  15   10.93    1.18
  -5   3 -15   11.84    1.07
   5   3  15   12.95    1.12
  -7  -3 -15    1.12    0.22
   7  -3  15    0.66    0.52
  -7  -3 -15    0.82    0.51
  -7   3 -15    1.27    0.28
  -7   3 -15    0.85    0.32
   7   3  15    0.14    0.42
  -7   3 -15    0.99    0.33
   7   3  15    1.26    0.35
  -9  -3 -15    0.41    0.48
   9  -3  15    0.49    0.50
  -9  -3 -15    1.86    0.13
  -9   3 -15    1.33    0.38
  -9   3 -15    1.16    0.31
   9   3  15    0.15    0.43
   9   3  15    1.40    0.28
  -9   3 -15    1.25    0.40
  11  -3  15    1.14    0.52
 -11  -3 -15    0.78    0.52
 -11   3 -15    0.89    0.38
 -11   3 -15    1.09    0.31
 -11   3 -15    2.61    0.56
  11   3  15    0.83    0.58
 -13  -3 -15   17.25    1.58
  13  -3  15   16.93    1.53
 -13   3 -15   16.82    1.39
  13   3  15   15.72    1.58
 -13   3 -15   15.51    1.29
 -13   3 -15   17.27    1.39
 -15  -3 -15    0.86    0.47
  15  -3  15    1.08    0.32
 -15   3 -15    0.89    0.31
  15   3  15    0.99    0.36
 -15   3 -15    1.41    0.28
 -15   3 -15    1.14    0.36
 -17  -3 -15   12.31    1.35
  17  -3  15   12.44    1.28
 -17   3 -15   12.41    1.15
 -17   3 -15   10.14    1.09
 -17   3 -15   11.48    1.14
  17   3  15   12.29    1.47
  19  -3  15    4.42    0.76
 -19  -3 -15    4.20    0.81
 -19   3 -15    3.75    0.38
 -19   3 -15    4.27    0.73
 -19   3 -15    3.60    0.64
  19   3  15    3.01    0.70
  22  -4 -15   19.87    1.89
 -22  -4  15   18.06    1.74
  22   4 -15   18.82    1.70
 -22   4  15   19.02    1.66
  20  -4 -15   23.19    2.10
 -20  -4  15   26.51    2.08
 -20   4  15   24.44    1.98
  20   4 -15   23.68    1.89
  18  -4 -15    0.82    0.52
 -18  -4  15    1.53    0.54
 -18   4  15    1.12    0.62
  18   4 -15    0.89    0.41
  16  -4 -15   23.27    2.06
 -16  -4  15   22.83    1.84
  16   4 -15   24.19    1.87
 -16   4  15   24.98    2.01
  14  -4 -15    1.38    0.60
 -14  -4  15    1.88    0.61
  14   4 -15    1.15    0.55
 -14   4  15    1.13    0.63
 -12  -4  15   15.91    1.39
  12  -4 -15   16.64    1.68
  12   4 -15   16.72    1.51
 -12   4  15   14.17    1.47
 -10  -4  15    2.61    0.58
  10  -4 -15    1.36    0.66
 -10   4  15    1.63    0.64
  10   4 -15    1.66    0.62
  -8  -4  15   23.14    1.55
  -8  -4  15   22.22    1.36
   8  -4 -15   22.31    1.89
  -8   4  15   22.71    1.78
   8   4 -15   23.24    1.70
   8   4 -15   23.05    1.70
  -6  -4  15   25.47    1.57
   6  -4 -15   26.44    2.05
  -6  -4  15   26.65    1.55
  -6   4  15   25.49    1.87
   6   4 -15   24.34    1.75
   6   4 -15   25.85    1.81
  -6   4  15   27.52    1.47
   4  -4 -15   28.96    2.18
  -4  -4  15   28.75    1.60
  -4  -4  15   29.06    1.69
  -4   4  15   31.02    1.67
   4   4 -15   29.63    1.94
   4   4 -15   26.47    1.80
  -4   4  15   30.19    2.01
   2  -4 -15   23.65    1.93
  -2  -4  15   22.29    1.54
  -2   4  15   22.67    1.48
   2   4 -15   25.94    1.78
   2   4 -15   22.66    1.62
  -2   4  15   23.51    1.75
   0  -4  15   39.94    2.15
   0  -4 -15   38.34    2.44
   0   4 -15   35.85    2.08
   0   4  15   38.12    2.06
   0   4  15   37.26    2.19
   0   4 -15   38.63    2.19
   2  -4  15   49.92    2.49
  -2  -4 -15   52.44    2.50
  -2  -4 -15   45.55    2.69
  -2   4 -15   49.14    2.46
   2   4  15   49.40    2.47
   2   4  15   52.35    2.43
  -2   4 -15   53.11    2.63
   4  -4  15   37.89    2.19
  -4  -4 -15   37.90    2.07
  -4  -4 -15   36.76    2.36
   4   4  15   39.60    2.08
   4   4  15   39.48    2.27
  -4   4 -15   37.86    2.13
  -4   4 -15   43.18    2.33
   6  -4  15   16.51    1.47
  -6  -4 -15   17.23    1.59
  -6  -4 -15   19.22    1.37
   6   4  15   18.46    1.60
  -6   4 -15   16.62    1.41
  -6   4 -15   19.56    1.54
   6   4  15   19.67    1.44
  -8  -4 -15   17.98    1.63
   8  -4  15   18.46    1.59
  -8  -4 -15   19.75    1.36
  -8   4 -15   17.72    1.47
   8   4  15   17.73    1.63
  -8   4 -15   18.61    1.48
  -8   4 -15   19.42    1.30
   8   4  15   17.49    1.38
  10  -4  15   35.94    2.24
 -10  -4 -15   36.13    1.93
 -10  -4 -15   35.44    2.31
  10   4  15   33.14    2.04
 -10   4 -15   35.38    2.12
 -10   4 -15   32.90    2.04
 -10   4 -15   37.03    1.98
  10   4  15   34.82    2.32
 -12  -4 -15   33.95    2.30
  12  -4  15   32.85    2.17
  12   4  15   31.39    2.28
 -12   4 -15   33.99    2.10
 -12   4 -15   32.76    1.92
 -12   4 -15   32.72    2.04
  14  -4  15   25.77    1.95
 -14  -4 -15   26.17    2.00
 -14   4 -15   27.72    1.76
  14   4  15   27.85    2.15
 -14   4 -15   27.46    1.87
 -14   4 -15   27.04    1.87
 -16  -4 -15    7.71    0.91
  16  -4  15    6.73    1.04
  16   4  15    7.60    1.17
 -16   4 -15    7.54    0.85
 -16   4 -15    6.59    0.97
 -16   4 -15    7.42    0.71
  19  -5 -15   53.89    3.30
 -19  -5  15   50.97    2.98
 -19   5  15   56.12    3.13
  19   5 -15   50.83    2.91
  17  -5 -15    5.24    1.04
 -17  -5  15    3.88    0.80
 -17   5  15    4.24    0.90
  17   5 -15    4.96    0.88
 -15  -5  15   34.08    2.24
  15  -5 -15   36.52    2.63
  15   5 -15   37.30    2.40
 -15   5  15   32.35    2.35
  13  -5 -15    0.97    0.49
 -13  -5  15    1.39    0.32
  13   5 -15    0.85    0.39
 -13   5  15    0.25    0.43
 -11  -5  15   71.55    3.19
 -11  -5  15   65.68    2.72
  11  -5 -15   71.94    3.71
  11   5 -15   72.51    3.39
 -11   5  15   71.69    3.50
   9  -5 -15    0.91    0.49
  -9  -5  15    2.09    0.12
  -9  -5  15    1.79    0.42
   9   5 -15    1.47    0.31
  -9   5  15    0.40    0.42
   9   5 -15    0.67    0.46
  -7  -5  15   61.28    2.67
  -7  -5  15   60.25    2.67
   7  -5 -15   65.41    3.45
   7   5 -15   64.36    3.14
   7   5 -15   56.97    2.91
  -7   5  15   56.20    3.03
  -5  -5  15    1.02    0.27
   5  -5 -15    0.31    0.37
  -5   5  15    0.32    0.40
   5   5 -15    1.13    0.27
  -5   5  15    1.57    0.12
   3  -5 -15   83.04    3.93
  -3  -5  15   84.75    3.34
  -3   5  15   82.09    3.62
   3   5 -15   84.71    3.66
  -3   5  15   83.61    3.21
   3   5 -15   80.37    3.47
   1  -5 -15    1.98    0.66
  -1  -5  15    2.16    0.60
   1  -5 -15    2.03    0.64
  -1   5  15    1.66    0.49
   1   5 -15    2.70    0.61
   1   5 -15    1.39    0.55
  -1   5  15    3.33    0.57
  -1  -5 -15   25.34    2.01
  -1  -5 -15   22.46    1.70
   1  -5  15   25.46    1.78
  -1   5 -15   21.41    1.68
   1   5  15   24.26    1.60
  -1   5 -15   24.17    1.76
   1   5  15   23.84    1.66
  -3  -5 -15    2.62    0.63
  -3  -5 -15    3.15    0.77
   3  -5  15    3.02    0.76
  -3   5 -15    2.43    0.67
   3   5  15    3.62    0.68
  -3   5 -15    3.94    0.76
   3   5  15    3.46    0.71
  -5  -5 -15    5.10    0.74
  -5  -5 -15    4.55    0.87
   5  -5  15    3.64    0.80
  -5   5 -15    4.53    0.79
  -5   5 -15    3.12    0.75
   5   5  15    4.67    0.74
   5   5  15    4.27    0.87
  -7  -5 -15    2.95    0.54
   7  -5  15    3.19    0.82
  -7  -5 -15    3.77    0.72
  -7   5 -15    3.35    0.67
  -7   5 -15    2.52    0.70
   7   5  15    3.40    0.60
   7   5  15    1.70    0.63
   9  -5  15   10.34    1.27
  -9  -5 -15   10.35    0.93
  -9  -5 -15   10.60    1.16
   9   5  15   10.37    1.37
  -9   5 -15    9.07    1.19
   9   5  15    8.66    0.95
  -9   5 -15   10.55    1.09
  11  -5  15    1.25    0.38
 -11  -5 -15    1.62    0.37
 -11   5 -15    1.48    0.56
  11   5  15    0.96    0.49
 -11   5 -15    0.93    0.26
  11   5  15    1.66    0.38
 -13  -5 -15   14.20    1.35
  13  -5  15   13.89    1.38
 -13   5 -15   11.94    1.26
  13   5  15   12.54    1.54
 -13   5 -15   15.30    1.33
  15  -5  15    5.55    0.90
 -15  -5 -15    6.12    0.69
 -15   5 -15    5.21    0.88
  15   5  15    4.82    0.89
 -15   5 -15    5.37    0.65
 -16  -6  15   28.79    2.04
  16  -6 -15   30.92    2.41
  16   6 -15   28.17    2.10
 -16   6  15   27.18    2.13
 -14  -6  15    2.46    0.47
  14  -6 -15    1.60    0.51
 -14   6  15    1.36    0.51
  14   6 -15    1.72    0.43
  12  -6 -15   15.03    1.58
 -12  -6  15   16.08    1.39
 -12   6  15   15.65    1.64
  12   6 -15   18.32    1.62
 -10  -6  15    6.17    0.70
  10  -6 -15    5.29    0.97
 -10  -6  15    5.92    0.50
  10   6 -15    7.23    0.76
  10   6 -15    4.81    0.85
 -10   6  15    2.75    0.82
  -8  -6  15   36.43    2.05
   8  -6 -15   38.32    2.63
  -8  -6  15   38.78    2.11
   8   6 -15   42.47    2.55
   8   6 -15   38.72    2.44
  -8   6  15   38.18    2.55
  -6  -6  15   17.85    1.34
   6  -6 -15   17.76    1.69
  -6   6  15   16.05    1.61
   6   6 -15   17.73    1.52
   6   6 -15   17.42    1.61
   4  -6 -15   25.25    2.01
  -4  -6  15   26.33    1.74
   4   6 -15   26.16    1.92
  -4   6  15   25.31    1.57
   4   6 -15   22.45    1.83
  -4   6  15   22.62    1.90
   2  -6 -15   37.75    2.37
   2  -6 -15   39.57    2.55
  -2  -6  15   40.48    2.32
   2   6 -15   38.37    2.42
   2   6 -15   42.48    2.48
  -2   6  15   39.51    2.13
  -2   6  15   40.44    2.09
   0  -6 -15   45.11    2.59
   0  -6  15   48.58    2.60
   0  -6 -15   50.26    2.88
   0   6  15   44.97    2.29
   0   6  15   42.67    2.36
   0   6 -15   45.19    2.62
   0   6 -15   48.57    2.67
  -2  -6 -15   36.75    2.43
  -2  -6 -15   35.42    2.24
   2  -6  15   37.58    2.32
  -2   6 -15   35.77    2.32
  -2   6 -15   35.98    2.25
   2   6  15   34.81    2.02
   2   6  15   37.40    2.21
  -4  -6 -15   16.16    1.43
  -4  -6 -15   18.14    1.58
   4  -6  15   16.05    1.52
   4   6  15   17.00    1.47
  -4   6 -15   16.88    1.46
  -4   6 -15   17.31    1.57
   4   6  15   15.81    1.33
  -6  -6 -15   25.49    1.95
   6  -6  15   24.95    1.91
  -6  -6 -15   26.12    1.83
   6   6  15   26.50    1.98
   6   6  15   27.12    1.79
  -6   6 -15   27.14    2.01
  -6   6 -15   27.46    1.92
  -8  -6 -15   27.19    2.00
  -8  -6 -15   27.81    1.82
   8  -6  15   24.29    1.92
  -8   6 -15   28.31    1.94
  -8   6 -15   25.00    1.95
   8   6  15   22.41    1.65
   8   6  15   26.78    2.05
  10  -6  15   45.81    2.71
 -10  -6 -15   44.16    2.44
 -10  -6 -15   49.10    2.85
 -10   6 -15   43.59    2.63
 -10   6 -15   51.08    2.71
  10   6  15   43.21    2.46
  10   6  15   44.04    2.78
   7  -7 -15   56.04    3.21
  -7  -7  15   55.83    2.75
  -7   7  15   55.23    3.23
   7   7 -15   53.16    3.03
   7   7 -15   57.06    3.11
  -5   7  15    0.59    0.26
   5   7 -15    1.12    0.26
  -3  -7  15   63.26    3.14
   3  -7 -15   65.92    3.33
   3  -7 -15   66.66    3.48
   3   7 -15   62.80    3.31
   3   7 -15   65.96    3.34
  -3   7  15   63.59    2.88
  -3   7  15   64.31    2.77
   1  -7 -15    1.58    0.50
   1  -7 -15    3.20    0.33
  -1  -7  15    2.51    0.50
  -1   7  15    1.63    0.41
  -1   7  15    2.90    0.11
   1   7 -15    1.98    0.58
   1   7 -15    2.05    0.41
  -1  -7 -15   27.97    2.06
  -1  -7 -15   29.30    2.07
   1  -7  15   28.04    2.04
  -1   7 -15   27.42    2.06
  -1   7 -15   31.51    2.12
   1   7  15   28.08    1.79
   1   7  15   29.28    1.85
  -3  -7 -15    1.25    0.26
   3  -7  15    1.66    0.37
   3   7  15    1.82    0.39
  -3   7 -15    1.08    0.26
  -3   7 -15    2.55    0.50
  24   0 -16   71.63    3.16
 -24   0  16   67.97    3.53
  24   0 -16   71.45    3.25
  22   0 -16   18.63    1.43
  22   0 -16   17.32    1.32
 -22   0  16   15.88    1.62
 -20   0  16   26.11    2.04
  20   0 -16   29.10    1.87
  20   0 -16   28.81    1.74
  18   0 -16   23.85    1.65
 -18   0  16   19.71    1.74
  18   0 -16   22.22    1.45
  16   0 -16   40.12    2.00
  16   0 -16   40.60    2.27
 -16   0  16   39.46    2.42
 -14   0  16   18.15    1.59
  14   0 -16   17.27    1.42
  14   0 -16   18.75    1.23
 -12   0  16   24.04    1.79
  12   0 -16   24.39    1.40
  12   0 -16   25.07    1.74
  10   0 -16    6.45    0.93
  10   0 -16    7.42    0.67
 -10   0  16    6.39    0.98
  -8   0  16   95.46    3.68
  -8   0  16   96.72    2.89
   8   0 -16   98.05    3.05
   8   0 -16   96.47    3.83
   6   0 -16    2.24    0.33
  -6   0  16    2.57    0.62
   6   0 -16    2.32    0.67
  -6   0  16    3.34    0.36
   4   0 -16  231.88    6.85
  -4   0  16  225.99    5.73
  -4   0  16  234.80    6.51
   4   0 -16  233.97    5.65
  -2   0  16    2.24    0.50
   2   0 -16    1.72    0.61
  -2   0  16    2.69    0.51
   0   0  16  187.82    5.40
   0   0  16  190.46    5.24
   0   0 -16  184.66    5.76
   2   0  16    4.54    0.51
  -2   0 -16    5.36    0.90
   2   0  16    3.39    0.72
  -4   0 -16  151.97    5.04
   4   0  16  156.48    4.77
  -6   0 -16    0.68    0.47
   6   0  16    0.60    0.45
  -8   0 -16  173.06    5.59
   8   0  16  175.60    5.38
  10   0  16    2.64    0.74
 -10   0 -16    3.96    0.85
  12   0  16   95.22    3.90
 -12   0 -16  102.14    4.10
 -14   0 -16    4.13    0.90
  14   0  16    6.17    1.02
 -16   0 -16   32.33    2.30
  16   0  16   33.53    2.28
 -18   0 -16   12.46    1.43
  18   0  16   16.88    1.59
  20   0  16    8.82    1.17
 -20   0 -16    7.24    1.25
 -25  -1  16   32.75    2.42
  25  -1 -16   38.15    2.15
  25  -1 -16   40.16    2.41
 -25   1  16   36.86    2.46
  25   1 -16   38.97    2.29
  23  -1 -16   12.88    1.10
  23  -1 -16   12.79    1.20
 -23  -1  16   11.88    1.43
 -23   1  16   11.08    1.43
  23   1 -16   11.71    1.12
 -21  -1  16   32.69    2.31
  21  -1 -16   34.98    1.92
  21  -1 -16   33.69    2.18
 -21   1  16   31.06    2.25
  21   1 -16   33.17    1.98
 -19  -1  16   16.95    1.64
  19  -1 -16   20.15    1.62
  19  -1 -16   18.44    1.28
  19   1 -16   20.53    1.37
  19   1 -16   18.29    1.41
 -19   1  16   15.83    1.59
 -17  -1  16   35.14    2.32
  17  -1 -16   37.15    1.84
  17  -1 -16   37.97    2.31
  17   1 -16   38.70    2.04
  17   1 -16   36.89    2.03
 -17   1  16   37.25    2.36
 -15  -1  16   16.21    1.52
  15  -1 -16   16.66    1.53
  15  -1 -16   17.78    1.15
  15   1 -16   18.18    1.32
  15   1 -16   20.27    1.39
 -15   1  16   15.54    1.50
 -13  -1  16   36.34    2.27
  13  -1 -16   40.56    2.42
  13  -1 -16   41.08    1.79
 -13   1  16   37.29    2.31
  13   1 -16   42.79    2.18
  13   1 -16   41.65    2.05
 -11  -1  16   63.19    2.98
  11  -1 -16   64.63    3.12
  11   1 -16   62.93    2.56
  11   1 -16   64.33    2.82
 -11   1  16   63.11    2.97
  -9  -1  16   63.30    2.89
   9  -1 -16   61.64    3.06
   9   1 -16   64.49    2.85
  -9   1  16   65.50    2.99
   9   1 -16   63.44    2.53
   7  -1 -16   62.50    3.08
  -7  -1  16   63.35    2.82
  -7  -1  16   63.40    2.28
   7   1 -16   65.11    2.52
   7   1 -16   63.54    2.87
  -7   1  16   66.87    2.31
  -7   1  16   63.83    2.90
   5  -1 -16   61.08    3.03
  -5  -1  16   60.38    2.32
  -5  -1  16   60.63    2.69
  -5   1  16   66.18    2.35
   5   1 -16   60.57    2.80
   5   1 -16   67.32    2.48
  -5   1  16   61.80    2.80
   3  -1 -16   38.70    2.32
  -3  -1  16   38.55    1.83
  -3  -1  16   42.34    2.08
   3   1 -16   42.07    1.84
  -3   1  16   39.10    1.83
  -3   1  16   38.26    2.08
   3   1 -16   39.79    2.17
  -1  -1  16   21.15    1.40
   1  -1 -16   21.20    1.68
  -1  -1  16   22.96    1.41
  -1   1  16   20.36    1.43
   1   1 -16   21.11    1.54
  -1   1  16   22.11    1.40
   1   1 -16   23.76    1.30
   1  -1  16    3.64    0.40
  -1  -1 -16    2.57    0.72
   1  -1  16    2.89    0.64
  -1   1 -16    2.65    0.62
  -1   1 -16    4.16    0.44
   1   1  16    3.72    0.61
   1   1  16    2.63    0.60
   3  -1  16    1.20    0.51
  -3  -1 -16    0.88    0.52
  -3   1 -16    1.78    0.56
   3   1  16    0.87    0.47
  -3   1 -16    1.88    0.32
   5  -1  16    5.29    0.87
  -5  -1 -16    4.68    0.89
  -5   1 -16    5.75    0.91
   5   1  16    6.77    0.63
   5   1  16    6.04    0.94
  -5   1 -16    6.78    0.58
  -7  -1 -16    3.53    0.81
   7  -1  16    3.25    0.76
  -7   1 -16    5.07    0.48
  -7   1 -16    3.64    0.80
   7   1  16    3.13    0.76
  -9  -1 -16   37.26    2.28
   9  -1  16   37.01    2.18
   9   1  16   35.97    2.20
  -9   1 -16   34.95    2.13
 -11  -1 -16   10.64    1.25
  11  -1  16   10.55    1.29
  11   1  16   11.15    1.36
 -11   1 -16    9.08    1.13
 -13  -1 -16   57.64    3.06
  13  -1  16   63.61    3.05
  13   1  16   60.90    3.07
 -13   1 -16   62.15    3.09
 -15  -1 -16   24.47    1.96
  15  -1  16   25.13    1.89
  15   1  16   25.84    1.96
 -15   1 -16   23.29    1.88
 -17  -1 -16   44.00    2.71
  17  -1  16   46.32    2.64
 -17   1 -16   42.71    2.64
  17   1  16   42.49    2.63
 -19  -1 -16   13.45    1.43
  19  -1  16   12.25    1.26
  19   1  16   11.73    1.28
 -19   1 -16   11.87    1.33
 -24  -2  16   37.10    2.57
  24  -2 -16   35.77    2.42
  24   2 -16   35.88    2.25
 -24   2  16   30.64    2.26
  22  -2 -16    5.95    0.99
 -22  -2  16    4.94    0.92
  22   2 -16    4.38    0.76
 -22   2  16    3.69    0.83
  20  -2 -16   33.67    2.34
 -20  -2  16   30.74    2.24
 -20   2  16   33.44    2.34
  20   2 -16   34.08    2.11
 -18  -2  16   28.24    2.10
  18  -2 -16   31.60    2.24
 -18   2  16   27.38    2.08
  18   2 -16   30.44    1.93
  16  -2 -16    8.78    1.28
 -16  -2  16    8.54    1.22
 -16   2  16    8.25    1.19
  16   2 -16    9.30    0.99
  14  -2 -16   10.33    1.37
 -14  -2  16    9.10    1.23
  14   2 -16   10.61    1.04
 -14   2  16   10.79    1.35
 -12  -2  16   52.40    2.74
  12  -2 -16   55.31    2.98
  12   2 -16   57.61    2.59
 -12   2  16   50.62    2.74
  10  -2 -16    4.92    0.98
 -10  -2  16    3.68    0.77
  10   2 -16    6.54    0.61
  10   2 -16    5.83    0.79
 -10   2  16    5.55    0.96
   8  -2 -16   85.12    3.82
  -8  -2  16   84.91    3.42
  -8  -2  16   85.61    2.83
  -8   2  16   84.91    3.55
   8   2 -16   88.59    3.28
   8   2 -16   87.95    3.23
   6  -2 -16    0.54    0.54
  -6  -2  16    2.00    0.38
  -6  -2  16    1.05    0.39
   6   2 -16    1.70    0.41
   6   2 -16    2.11    0.40
  -6   2  16    2.75    0.24
  -6   2  16    0.94    0.51
  -4  -2  16  113.53    3.90
   4  -2 -16  116.00    4.53
  -4  -2  16  114.75    3.60
  -4   2  16  112.90    3.57
  -4   2  16  113.88    4.11
   4   2 -16  117.68    3.78
   4   2 -16  116.24    4.01
  -2  -2  16    1.77    0.36
  -2  -2  16    1.78    0.48
   2  -2 -16    1.46    0.62
   2   2 -16    2.29    0.47
  -2   2  16    2.99    0.50
   2   2 -16    1.85    0.40
  -2   2  16    1.70    0.53
   0  -2 -16  140.37    5.05
   0  -2  16  141.60    4.38
   0   2 -16  139.70    4.77
   0   2  16  144.47    4.64
   0   2  16  142.50    4.40
   0   2 -16  145.22    4.30
   0   2 -16  146.44    4.67
  -2  -2 -16    1.47    0.61
   2  -2  16    1.33    0.51
  -2   2 -16    3.11    0.34
   2   2  16    1.81    0.46
  -2   2 -16    1.84    0.41
   2   2  16    2.07    0.62
  -2   2 -16    1.98    0.47
  -4  -2 -16  108.64    4.22
   4  -2  16  105.19    3.79
   4   2  16  107.32    3.90
  -4   2 -16  106.26    3.86
   4   2  16  113.54    3.80
  -4   2 -16  110.58    3.57
  -4   2 -16  109.16    4.05
  -6  -2 -16    4.17    0.91
   6  -2  16    4.95    0.90
  -6   2 -16    5.85    0.78
   6   2  16    4.86    0.58
   6   2  16    4.93    0.90
  -6   2 -16    5.55    0.63
  -6   2 -16    5.18    0.79
  -8  -2 -16  135.24    4.94
   8  -2  16  135.28    4.66
  -8   2 -16  140.96    4.77
  -8   2 -16  142.83    4.30
   8   2  16  137.92    4.79
  -8   2 -16  141.49    4.76
 -10  -2 -16    0.50    0.48
  10  -2  16    0.47    0.45
  10   2  16    0.31    0.48
 -10   2 -16    1.44    0.31
 -10   2 -16    0.74    0.21
 -10   2 -16    1.04    0.36
 -12  -2 -16   65.10    3.28
  12  -2  16   68.24    3.19
  12   2  16   66.37    3.27
 -12   2 -16   66.55    3.08
 -12   2 -16   70.02    2.81
 -12   2 -16   69.42    3.16
  14  -2  16   11.36    1.25
 -14  -2 -16   11.00    1.32
 -14   2 -16   11.84    1.03
 -14   2 -16   12.25    1.27
  14   2  16   11.50    1.37
 -14   2 -16   12.32    1.15
 -16  -2 -16   36.49    2.52
  16  -2  16   40.16    2.48
  16   2  16   42.97    2.65
 -16   2 -16   41.34    2.14
 -16   2 -16   40.84    2.47
 -16   2 -16   41.83    2.40
 -18  -2 -16    5.32    0.95
  18  -2  16    7.02    1.03
 -18   2 -16    5.91    0.92
  18   2  16    6.29    1.04
 -23  -3  16    9.92    1.22
  23  -3 -16   11.39    1.33
 -23   3  16   10.36    1.19
  23   3 -16   10.75    1.17
 -21  -3  16   20.61    1.86
  21  -3 -16   21.96    1.95
 -21   3  16   20.81    1.84
  21   3 -16   20.60    1.68
  19  -3 -16    4.43    0.99
 -19  -3  16    3.44    0.81
 -19   3  16    4.16    0.95
  19   3 -16    3.47    0.71
  17  -3 -16   18.29    1.78
 -17  -3  16   16.00    1.58
 -17   3  16   16.21    1.63
  17   3 -16   17.99    1.51
  15  -3 -16   18.68    1.80
 -15  -3  16   17.47    1.63
 -15   3  16   16.71    1.61
  15   3 -16   20.18    1.60
 -13  -3  16   30.30    2.08
  13  -3 -16   29.85    2.25
 -13   3  16   30.56    2.15
  13   3 -16   31.12    1.99
 -11  -3  16   31.10    2.02
  11  -3 -16   34.22    2.37
  11   3 -16   33.55    2.04
 -11   3  16   30.28    2.11
  -9  -3  16   30.91    1.95
  -9  -3  16   31.90    1.58
   9  -3 -16   32.19    2.26
   9   3 -16   32.20    1.97
  -9   3  16   32.72    2.15
  -7  -3  16   35.08    1.73
   7  -3 -16   36.80    2.46
  -7  -3  16   36.74    2.04
   7   3 -16   38.18    2.11
  -7   3  16   36.70    2.24
  -5  -3  16   58.47    2.59
   5  -3 -16   57.27    3.11
  -5  -3  16   58.43    2.43
  -5   3  16   60.09    2.89
   5   3 -16   61.52    2.69
  -5   3  16   59.38    2.39
  -3  -3  16    4.51    0.52
  -3  -3  16    6.03    0.78
   3  -3 -16    4.62    0.96
  -3   3  16    5.62    0.71
   3   3 -16    4.94    0.75
  -3   3  16    3.90    0.83
   3   3 -16    5.38    0.65
   1  -3 -16    6.15    1.08
  -1  -3  16    6.43    0.90
   1   3 -16    8.04    0.71
  -1   3  16    7.10    0.99
  -1   3  16    7.32    0.80
   1   3 -16    7.39    0.85
   1   3 -16    8.28    0.88
  -1  -3 -16    2.78    0.82
   1  -3  16    3.30    0.73
  -1   3 -16    4.11    0.68
  -1   3 -16    3.73    0.63
  -1   3 -16    4.22    0.45
   1   3  16    3.60    0.68
   1   3  16    2.68    0.63
   3  -3  16    8.06    1.04
  -3  -3 -16    7.87    1.20
   3   3  16    7.58    1.05
  -3   3 -16    8.57    0.92
  -3   3 -16    6.92    0.80
  -3   3 -16    8.21    0.76
   3   3  16    8.14    0.93
  -5  -3 -16    7.23    1.13
   5  -3  16    7.34    1.05
   5   3  16    5.12    0.93
  -5   3 -16    7.26    0.86
   5   3  16    7.02    0.81
  -5   3 -16    7.05    0.82
  -5   3 -16    7.50    0.74
  -7  -3 -16    4.03    0.89
   7  -3  16    5.42    0.97
  -7   3 -16    5.63    0.64
  -7   3 -16    6.09    0.86
   7   3  16    5.17    0.97
  -7   3 -16    6.05    0.80
   9  -3  16   18.16    1.59
  -9  -3 -16   19.26    1.72
  -9   3 -16   22.76    1.62
   9   3  16   19.92    1.72
  -9   3 -16   20.85    1.47
  -9   3 -16   22.28    1.54
 -11  -3 -16   12.06    1.38
  11  -3  16   13.22    1.35
 -11   3 -16   13.26    1.23
 -11   3 -16   12.13    1.10
  11   3  16   11.31    1.43
 -11   3 -16   12.05    1.12
 -13  -3 -16   46.66    2.79
  13  -3  16   47.01    2.67
 -13   3 -16   46.81    2.39
 -13   3 -16   45.80    2.48
 -13   3 -16   48.71    2.62
  13   3  16   48.73    2.87
 -15  -3 -16    6.34    1.04
  15  -3  16    6.27    1.01
 -15   3 -16    6.68    0.94
  15   3  16    5.48    0.98
 -15   3 -16    6.56    0.76
 -15   3 -16    5.13    0.76
  17  -3  16   29.55    2.12
 -17  -3 -16   36.17    2.44
 -17   3 -16   30.37    1.95
 -17   3 -16   31.51    2.06
 -17   3 -16   29.15    2.02
  17   3  16   34.13    2.41
  20  -4 -16   19.75    1.91
 -20  -4  16   17.48    1.67
 -20   4  16   15.82    1.59
  20   4 -16   15.74    1.50
  18  -4 -16    8.54    1.33
 -18  -4  16    8.99    1.22
 -18   4  16    7.75    1.21
  18   4 -16    8.94    1.14
 -16  -4  16   14.36    1.48
  16  -4 -16   15.23    1.65
  16   4 -16   13.36    1.36
 -16   4  16   13.32    1.50
 -14  -4  16   11.89    1.23
  14  -4 -16   11.79    1.46
 -14   4  16   10.93    1.43
  14   4 -16   10.78    1.18
 -12  -4  16   10.21    1.11
  12  -4 -16   10.09    1.39
 -12   4  16    9.53    1.29
  12   4 -16   10.17    1.15
  10  -4 -16    1.28    0.63
 -10  -4  16    1.41    0.37
 -10   4  16    1.04    0.58
  10   4 -16    1.03    0.47
  -8  -4  16   30.99    1.87
   8  -4 -16   31.64    2.31
  -8  -4  16   30.12    1.65
  -8   4  16   31.01    2.14
   8   4 -16   32.12    2.04
  -6  -4  16    2.49    0.46
  -6  -4  16    2.59    0.47
   6  -4 -16    2.55    0.80
   6   4 -16    3.50    0.60
  -6   4  16    1.18    0.58
   6   4 -16    2.68    0.66
  -4  -4  16   47.71    2.26
   4  -4 -16   44.42    2.77
   4   4 -16   48.76    2.61
  -4   4  16   48.46    2.21
  -4   4  16   43.21    2.51
   4   4 -16   43.20    2.38
  -2  -4  16    0.83    0.27
   2  -4 -16    0.07    0.41
  -2   4  16    1.11    0.25
   2   4 -16    0.75    0.18
  -2   4  16    0.31    0.39
   2   4 -16   -0.05    0.36
   0  -4  16   40.68    2.23
   0  -4 -16   40.01    2.56
   0   4  16   42.64    2.22
   0   4 -16   39.94    2.22
   0   4  16   41.64    2.39
   0   4 -16   40.91    2.34
   2  -4  16    8.75    1.12
  -2  -4 -16    8.75    1.26
   2   4  16    6.75    0.97
  -2   4 -16    8.74    0.98
   2   4  16    8.74    0.96
  -2   4 -16    6.88    0.99
  -4  -4 -16   50.41    2.47
  -4  -4 -16   49.32    2.85
   4  -4  16   49.24    2.59
   4   4  16   48.54    2.59
  -4   4 -16   50.00    2.61
  -4   4 -16   48.71    2.48
   4   4  16   47.97    2.43
  -6  -4 -16    1.38    0.27
  -6  -4 -16    0.79    0.46
   6  -4  16    0.41    0.46
   6   4  16    1.23    0.29
  -6   4 -16    1.34    0.46
  -6   4 -16    1.39    0.37
   6   4  16    0.71    0.46
  -8  -4 -16   36.01    2.39
   8  -4  16   37.14    2.33
  -8  -4 -16   41.89    2.14
  -8   4 -16   37.80    2.26
   8   4  16   40.29    2.48
   8   4  16   40.53    2.23
  -8   4 -16   36.01    2.13
  10  -4  16   12.97    1.39
 -10  -4 -16   12.63    1.38
 -10  -4 -16   13.39    1.00
 -10   4 -16   11.80    1.16
  10   4  16   12.72    1.50
 -10   4 -16   12.78    1.03
 -10   4 -16   12.40    1.19
  10   4  16   10.87    1.07
 -12  -4 -16   35.30    2.40
  12  -4  16   34.31    2.27
 -12   4 -16   33.05    1.96
 -12   4 -16   33.68    2.13
  12   4  16   36.01    2.46
 -12   4 -16   36.49    2.17
 -14  -4 -16    4.20    0.77
  14  -4  16    4.69    0.85
  14   4  16    2.28    0.71
 -14   4 -16    5.21    0.77
 -14   4 -16    4.75    0.73
 -14   4 -16    4.08    0.33
  16  -4  16   15.16    1.42
 -16  -4 -16   16.18    1.48
 -16   4 -16   13.12    1.25
  16   4  16   14.76    1.49
 -16   4 -16   15.25    1.36
 -16   4 -16   14.90    1.22
 -17  -5  16    6.75    1.01
  17  -5 -16    5.92    1.06
  17   5 -16    5.73    0.97
 -17   5  16    5.88    1.04
  15  -5 -16    2.36    0.76
 -15  -5  16    2.99    0.56
 -15   5  16    1.53    0.63
  15   5 -16    2.47    0.62
  13  -5 -16    7.72    1.26
 -13  -5  16    7.36    0.88
  13   5 -16    7.34    1.07
 -13   5  16    6.85    1.17
 -11  -5  16    6.28    0.75
  11  -5 -16    7.23    1.22
 -11   5  16    5.25    1.04
  11   5 -16    6.48    1.01
  -9  -5  16   16.71    1.19
  -9  -5  16   16.39    1.34
   9  -5 -16   16.60    1.72
   9   5 -16   16.37    1.52
  -9   5  16   16.20    1.61
  -7  -5  16   12.98    1.04
   7  -5 -16   11.21    1.51
  -7  -5  16   11.44    0.99
  -7   5  16   11.31    1.36
   7   5 -16   10.56    1.21
   7   5 -16   13.92    1.24
  -5  -5  16   16.77    1.30
   5  -5 -16   15.47    1.59
  -5   5  16   14.69    1.51
   5   5 -16   19.75    1.57
  -5   5  16   18.59    1.21
   5   5 -16   16.65    1.48
   3  -5 -16    1.63    0.64
  -3  -5  16    2.47    0.51
   3   5 -16    1.14    0.53
  -3   5  16    2.42    0.16
  -3   5  16    1.54    0.61
   3   5 -16    1.89    0.46
  -1  -5  16    9.24    1.10
   1  -5 -16    9.39    1.30
   1   5 -16    8.14    1.09
  -1   5  16    6.95    1.11
   1   5 -16    8.77    0.94
  -1   5  16    8.35    0.81
  -1  -5 -16    1.06    0.37
  -1  -5 -16    0.70    0.36
   1  -5  16    0.53    0.33
  -1   5 -16    1.23    0.28
   1   5  16    0.68    0.28
   1   5  16    1.08    0.22
  -1   5 -16    0.56    0.39
  -3  -5 -16    1.03    0.44
   3  -5  16    0.57    0.39
  -3  -5 -16    0.49    0.19
  -3   5 -16    0.57    0.34
   3   5  16    1.10    0.24
   3   5  16    0.66    0.21
  -5  -5 -16    1.17    0.45
   5  -5  16    1.08    0.51
  -5  -5 -16    1.56    0.30
   5   5  16    1.66    0.51
  -5   5 -16    1.16    0.51
   5   5  16    1.50    0.37
  -5   5 -16    1.61    0.35
  -7  -5 -16    1.40    0.48
   7  -5  16    1.50    0.55
  -7   5 -16    1.21    0.17
   7   5  16    1.25    0.24
  -7   5 -16    0.46    0.31
   7   5  16    0.74    0.32
  -9  -5 -16   18.71    1.35
  -9  -5 -16   16.85    1.57
   9  -5  16   16.30    1.56
   9   5  16   20.00    1.78
  -9   5 -16   18.76    1.56
  -9   5 -16   19.26    1.57
   9   5  16   18.23    1.45
  11  -5  16    1.27    0.31
 -11   5 -16    1.29    0.36
  11   5  16    1.39    0.44
  13  -5  16   17.36    1.60
 -13  -5 -16   19.11    1.62
 -13   5 -16   18.53    1.50
 -13   5 -16   18.14    1.50
  13   5  16   16.03    1.62
 -14  -6  16    3.14    0.38
  14  -6 -16    2.20    0.57
 -14   6  16    2.15    0.59
  14   6 -16    2.87    0.63
  12  -6 -16    2.11    0.64
 -12  -6  16    2.40    0.45
 -12   6  16    2.60    0.73
  12   6 -16    1.85    0.52
  10  -6 -16    1.25    0.34
  10   6 -16    0.81    0.32
 -10   6  16    0.40    0.43
   8  -6 -16    5.57    0.98
  -8  -6  16    4.70    0.45
  -8   6  16    4.01    0.86
   8   6 -16    5.78    0.96
   8   6 -16    5.61    0.65
   6  -6 -16    0.79    0.32
   6   6 -16    0.47    0.41
  -6   6  16    0.42    0.26
   6   6 -16    0.54    0.16
  -4  -6  16    4.11    0.64
   4  -6 -16    4.25    0.83
  -4   6  16    4.77    0.33
   4   6 -16    4.67    0.76
   4   6 -16    3.16    0.76
  -4   6  16    2.79    0.78
  -2  -6  16    7.17    0.97
   2  -6 -16    7.55    1.10
   2   6 -16    6.77    0.82
  -2   6  16    6.61    0.61
   2   6 -16    6.80    1.04
   0  -6 -16    5.33    0.87
   0  -6  16    7.14    0.99
   0  -6 -16    7.01    1.01
   0   6 -16    7.12    0.82
   0   6  16    6.10    0.84
   0   6  16    4.87    0.52
   0   6 -16    4.94    0.90
  -2  -6 -16    1.22    0.37
   2  -6  16    2.15    0.57
  -2  -6 -16    3.70    0.44
  -2   6 -16    2.62    0.58
  -2   6 -16    1.76    0.52
   2   6  16    1.95    0.48
   2   6  16    2.51    0.25
   4  -6  16    4.17    0.82
  -4  -6 -16    5.52    0.88
  -4  -6 -16    3.66    0.63
   4   6  16    3.88    0.62
  -4   6 -16    5.37    0.80
  -4   6 -16    3.39    0.75
   4   6  16    4.35    0.70
   6  -6  16   10.88    1.31
  -6  -6 -16   11.29    1.15
  -6  -6 -16   11.04    1.03
  -6   6 -16    8.98    1.18
   6   6  16    9.25    1.04
  -6   6 -16   12.46    1.19
   6   6  16   10.10    1.02
   8  -6  16    6.89    1.06
  -8  -6 -16    7.37    0.86
  -8  -6 -16    5.97    0.63
   8   6  16    8.47    1.11
   8   6  16    5.39    0.66
  -8   6 -16    7.84    0.83
  -8   6 -16    6.81    0.98
 -24   0  17    0.55    0.35
 -22   0  17    0.78    0.46
  22   0 -17    1.38    0.23
 -20   0  17    0.66    0.36
 -18   0  17   -0.12    0.30
  18   0 -17    0.87    0.15
  16   0 -17    0.67    0.20
 -16   0  17   -0.37    0.31
 -14   0  17    0.23    0.43
  14   0 -17    0.61    0.16
  14   0 -17    0.85    0.29
  12   0 -17    0.85    0.28
  12   0 -17    0.91    0.18
 -12   0  17    0.06    0.38
 -10   0  17    0.11    0.42
  10   0 -17    0.63    0.10
  10   0 -17    0.41    0.30
   8   0 -17    0.25    0.29
  -8   0  17    0.07    0.34
   6   0 -17   -0.07    0.31
  -6   0  17    0.56    0.35
  -4   0  17    0.88    0.20
   4   0 -17    0.12    0.33
  -4   0  17    0.65    0.29
  -2   0  17    0.89    0.25
   2   0 -17    0.13    0.37
  -2   0  17    0.71    0.27
   0   0  17    1.75    0.36
   0   0 -17    1.13    0.53
   0   0  17    1.41    0.42
  -2   0 -17   -0.16    0.36
   2   0  17    0.08    0.39
  -4   0 -17   -0.04    0.37
   4   0  17    0.10    0.40
   6   0  17    0.21    0.39
  -6   0 -17   -0.05    0.36
  -8   0 -17    0.15    0.44
   8   0  17   -0.10    0.35
  10   0  17    0.12    0.38
 -10   0 -17    0.14    0.41
 -12   0 -17   -0.15    0.37
  12   0  17    0.60    0.49
 -14   0 -17    0.37    0.42
  14   0  17    0.70    0.32
 -16   0 -17    0.47    0.41
  18   0  17    1.22    0.25
 -18   0 -17    1.37    0.37
 -23  -1  17    5.46    0.96
  23  -1 -17    3.84    0.58
  23  -1 -17    5.34    0.56
 -23   1  17    4.23    0.90
  23   1 -17    4.59    0.68
 -21  -1  17    2.16    0.65
  21  -1 -17    3.38    0.63
  21  -1 -17    3.05    0.47
  21   1 -17    3.59    0.59
 -21   1  17    2.04    0.71
 -19  -1  17    0.52    0.53
  19  -1 -17    2.16    0.49
 -19   1  17    0.66    0.44
  19   1 -17    1.13    0.26
 -17  -1  17    2.01    0.72
  17  -1 -17    3.46    0.66
  17   1 -17    3.54    0.56
  17   1 -17    4.20    0.42
 -17   1  17    3.02    0.81
 -15  -1  17    5.53    1.02
  15  -1 -17    7.34    1.03
  15   1 -17    8.01    0.77
  15   1 -17    8.11    0.82
 -15   1  17    5.63    1.02
 -13  -1  17    0.82    0.54
  13  -1 -17    1.03    0.54
  13   1 -17    1.44    0.37
 -13   1  17    0.84    0.55
  11  -1 -17   20.76    1.73
 -11  -1  17   19.57    1.62
 -11   1  17   21.02    1.70
  11   1 -17   22.18    1.53
  11   1 -17   20.68    1.34
  -9  -1  17    5.65    0.90
   9  -1 -17    6.15    1.06
   9   1 -17    6.32    0.67
  -9   1  17    5.39    0.96
   9   1 -17    5.57    0.79
  -7  -1  17   10.13    0.77
  -7  -1  17   10.38    1.06
   7  -1 -17   10.53    1.35
   7   1 -17   11.84    1.12
  -7   1  17    9.50    1.11
   7   1 -17   10.79    0.89
   5  -1 -17    0.19    0.45
  -5  -1  17    0.98    0.39
  -5  -1  17    1.68    0.33
  -5   1  17    1.96    0.21
   5   1 -17    1.59    0.47
   5   1 -17    1.57    0.33
  -5   1  17    0.88    0.41
  -3  -1  17    9.05    0.83
   3  -1 -17    6.84    1.09
  -3  -1  17    7.67    0.81
   3   1 -17    7.70    0.93
  -3   1  17    7.68    0.89
  -3   1  17    8.56    0.78
   3   1 -17    9.39    0.77
   1  -1 -17    0.31    0.48
  -1  -1  17    1.36    0.28
  -1  -1  17    0.87    0.37
   1   1 -17    1.19    0.20
  -1   1  17    0.26    0.23
   1   1 -17    0.66    0.41
  -1   1  17    0.82    0.26
   1  -1  17   21.32    1.49
  -1  -1 -17   22.34    1.77
  -1   1 -17   22.23    1.63
  -1   1 -17   23.41    1.29
   1   1  17   23.74    1.52
   1   1  17   23.31    1.54
  -3  -1 -17    0.38    0.46
   3  -1  17    0.29    0.39
   3   1  17    1.42    0.31
  -3   1 -17    0.65    0.42
   3   1  17    0.49    0.44
  -5  -1 -17   21.49    1.74
   5  -1  17   23.23    1.65
   5   1  17   23.80    1.70
  -5   1 -17   21.55    1.67
   7  -1  17    3.70    0.81
  -7  -1 -17    3.95    0.88
  -7   1 -17    3.25    0.78
   7   1  17    3.68    0.80
  -9  -1 -17    9.29    1.26
   9  -1  17   10.07    1.27
   9   1  17   10.31    1.28
  -9   1 -17    8.86    1.17
 -11  -1 -17    7.45    1.17
  11  -1  17    8.29    1.18
  11   1  17    6.40    1.10
 -11   1 -17    8.32    1.18
  13  -1  17    2.94    0.71
 -13  -1 -17    2.48    0.78
 -13   1 -17    3.04    0.74
  13   1  17    2.71    0.79
  15  -1  17    2.96    0.68
 -15  -1 -17    2.01    0.69
 -15   1 -17    2.55    0.69
  15   1  17    1.68    0.43
 -17  -1 -17    2.04    0.59
  17  -1  17    2.55    0.64
  17   1  17    2.51    0.63
 -17   1 -17    2.82    0.68
 -22  -2  17    4.73    0.92
  22  -2 -17    6.37    0.95
  22   2 -17    4.60    0.70
 -22   2  17    3.85    0.86
 -20  -2  17    0.23    0.36
  20  -2 -17    1.39    0.46
 -20   2  17    0.76    0.51
 -18  -2  17    9.98    1.32
  18  -2 -17    9.47    1.26
  18   2 -17    9.74    0.99
 -18   2  17    8.84    1.30
 -16  -2  17    0.57    0.47
  16  -2 -17    1.09    0.56
  16   2 -17    1.24    0.34
 -16   2  17    0.29    0.38
  14  -2 -17    5.62    1.05
 -14  -2  17    5.04    0.93
  14   2 -17    5.70    0.80
 -14   2  17    3.87    0.89
  12  -2 -17    7.81    1.19
 -12  -2  17    6.65    1.03
  12   2 -17    7.30    0.83
 -12   2  17    6.93    1.10
 -10  -2  17   10.83    1.14
  10  -2 -17   10.55    1.30
  10   2 -17   12.85    0.96
 -10   2  17    9.64    1.19
  10   2 -17   11.81    1.06
  -8  -2  17   23.84    1.31
  -8  -2  17   24.02    1.67
   8  -2 -17   22.08    1.89
  -8   2  17   24.51    1.83
   8   2 -17   24.23    1.54
   8   2 -17   26.38    1.56
   6  -2 -17    5.57    1.04
  -6  -2  17    6.68    0.63
  -6  -2  17    6.26    0.77
  -6   2  17    6.58    0.56
   6   2 -17    7.04    0.71
   6   2 -17    6.05    0.70
  -6   2  17    6.97    1.05
   4  -2 -17    5.27    1.06
  -4  -2  17    5.83    0.71
  -4  -2  17    5.90    0.69
   4   2 -17    6.20    0.69
  -4   2  17    5.72    0.91
   4   2 -17    5.74    0.71
  -4   2  17    6.01    0.59
  -2  -2  17   18.90    1.26
   2  -2 -17   18.02    1.68
  -2  -2  17   18.43    1.31
   2   2 -17   17.34    1.24
  -2   2  17   17.85    1.43
   2   2 -17   19.72    1.43
  -2   2  17   19.40    1.30
   0  -2 -17   15.39    1.51
   0  -2  17   16.90    1.30
   0   2 -17   16.11    1.27
   0   2  17   16.49    1.27
   0   2  17   16.41    1.32
   0   2 -17   14.83    1.12
   2  -2  17    5.02    0.85
  -2  -2 -17    4.49    0.97
  -2   2 -17    5.54    0.62
   2   2  17    5.84    0.85
  -2   2 -17    5.32    0.75
   2   2  17    5.75    0.71
   4  -2  17    7.83    1.06
  -4  -2 -17    6.56    1.08
   4   2  17    7.53    0.81
  -4   2 -17    8.50    0.79
   4   2  17    6.67    0.99
  -4   2 -17    8.46    0.90
   6  -2  17    8.87    1.14
  -6  -2 -17    8.82    1.23
  -6   2 -17   10.10    0.88
   6   2  17    7.72    1.10
  -6   2 -17    9.11    0.95
  -8  -2 -17   21.04    1.78
   8  -2  17   23.51    1.77
   8   2  17   24.21    1.84
  -8   2 -17   23.87    1.46
  -8   2 -17   22.54    1.64
 -10  -2 -17    0.22    0.45
  10  -2  17    0.67    0.53
 -10   2 -17    2.10    0.45
  10   2  17    0.98    0.54
  12  -2  17    3.71    0.85
 -12  -2 -17    3.83    0.87
 -12   2 -17    5.62    0.55
 -12   2 -17    6.30    0.77
  12   2  17    3.85    0.87
  14  -2  17    0.76    0.30
 -14  -2 -17    1.10    0.46
  14   2  17    0.65    0.40
  16  -2  17    9.51    1.24
 -16  -2 -17    8.67    1.25
  16   2  17    9.69    1.26
 -16   2 -17    9.42    1.09
 -21  -3  17    7.15    1.11
  21  -3 -17    7.96    1.16
 -21   3  17    6.34    1.06
  21   3 -17    7.49    0.98
  19  -3 -17    3.71    0.85
 -19  -3  17    5.00    0.94
 -19   3  17    3.30    0.84
  19   3 -17    4.66    0.79
  17  -3 -17   19.63    1.85
 -17  -3  17   20.08    1.77
  17   3 -17   20.66    1.63
 -17   3  17   19.88    1.81
 -15  -3  17    0.34    0.28
  15  -3 -17    0.11    0.41
 -15   3  17   -0.16    0.35
  15   3 -17    1.17    0.38
 -13  -3  17   27.73    1.99
  13  -3 -17   28.46    2.22
  13   3 -17   26.39    1.83
 -13   3  17   25.82    2.02
 -11  -3  17    1.11    0.38
  11  -3 -17    0.49    0.51
 -11   3  17    0.35    0.47
  11   3 -17    1.02    0.33
  -9  -3  17   18.23    1.48
  -9  -3  17   18.60    1.14
   9  -3 -17   20.00    1.82
   9   3 -17   18.85    1.45
  -9   3  17   17.98    1.65
  -7  -3  17    4.13    0.41
   7  -3 -17    3.12    0.85
  -7  -3  17    4.44    0.68
   7   3 -17    3.40    0.65
  -7   3  17    3.47    0.80
  -5  -3  17    3.51    0.56
   5  -3 -17    2.41    0.80
  -5  -3  17    3.29    0.54
   5   3 -17    2.93    0.57
  -5   3  17    3.32    0.34
  -5   3  17    3.09    0.76
   3  -3 -17    0.36    0.48
  -3  -3  17    1.41    0.35
   3   3 -17    1.91    0.47
  -3   3  17    1.89    0.35
  -3   3  17    0.94    0.51
   1  -3 -17    5.27    1.03
  -1  -3  17    7.13    0.91
   1   3 -17    5.84    0.78
  -1   3  17    5.98    0.78
  -1   3  17    5.84    0.88
  -1  -3 -17    2.31    0.73
   1  -3  17    1.72    0.58
  -1   3 -17    3.14    0.28
  -1   3 -17    2.61    0.52
   1   3  17    2.75    0.57
   1   3  17    2.55    0.58
  -1   3 -17    4.55    0.54
  -3  -3 -17   10.39    1.30
   3  -3  17   11.05    1.18
  -3   3 -17   13.87    1.07
   3   3  17   13.40    1.20
   3   3  17   11.76    1.15
  -3   3 -17   11.66    1.07
  -3   3 -17   13.61    1.22
  -5  -3 -17    7.27    1.17
   5  -3  17    6.33    1.02
  -5   3 -17    7.91    0.76
  -5   3 -17    8.29    0.92
   5   3  17    8.09    1.08
   5   3  17    7.06    0.83
  -5   3 -17    7.27    0.81
  -7  -3 -17   20.11    1.77
   7  -3  17   19.90    1.65
  -7   3 -17   19.34    1.40
   7   3  17   24.02    1.57
  -7   3 -17   21.72    1.62
  -7   3 -17   22.41    1.51
   7   3  17   20.18    1.68
   9  -3  17    0.82    0.51
  -9  -3 -17    0.69    0.52
  -9   3 -17    1.74    0.41
  -9   3 -17    1.78    0.32
   9   3  17    1.54    0.63
  -9   3 -17    2.29    0.24
  11  -3  17   35.46    2.31
 -11  -3 -17   36.57    2.46
 -11   3 -17   36.97    2.15
 -11   3 -17   37.35    2.08
 -11   3 -17   38.33    2.28
  11   3  17   38.07    2.48
 -13  -3 -17    0.22    0.30
  13  -3  17    1.05    0.29
  13   3  17    1.17    0.48
 -13   3 -17    1.32    0.24
 -13   3 -17    1.25    0.22
  15  -3  17   18.60    1.67
 -15  -3 -17   20.00    1.81
 -15   3 -17   22.23    1.69
 -15   3 -17   22.24    1.58
  15   3  17   21.27    1.85
 -15   3 -17   21.14    1.58
  18  -4 -17   14.30    1.60
 -18  -4  17   13.63    1.41
 -18   4  17   12.64    1.45
  18   4 -17   13.90    1.34
  16  -4 -17    6.84    1.20
 -16  -4  17    5.91    0.95
 -16   4  17    5.37    1.07
  16   4 -17    7.16    1.00
  14  -4 -17   30.91    2.37
 -14  -4  17   30.78    2.11
  14   4 -17   30.47    2.09
 -14   4  17   31.57    2.32
  12  -4 -17   25.00    2.09
 -12  -4  17   20.76    1.65
 -12   4  17   22.06    1.89
  12   4 -17   22.06    1.74
  10  -4 -17   21.43    1.94
 -10  -4  17   19.33    1.50
  10   4 -17   22.43    1.72
 -10   4  17   21.00    1.84
  -8  -4  17   22.47    1.36
  -8  -4  17   20.44    1.50
   8  -4 -17   20.76    1.88
   8   4 -17   21.54    1.66
  -8   4  17   19.37    1.74
  -6  -4  17   30.88    1.75
  -6  -4  17   30.53    1.79
   6  -4 -17   30.26    2.30
  -6   4  17   30.49    2.15
   6   4 -17   31.91    2.02
  -4  -4  17   30.74    1.81
   4  -4 -17   31.59    2.36
  -4   4  17   32.04    1.73
  -4   4  17   30.93    2.13
   4   4 -17   30.97    1.99
  -2  -4  17   19.20    1.41
   2  -4 -17   19.36    1.83
   2   4 -17   18.95    1.49
  -2   4  17   20.67    1.40
  -2   4  17   19.82    1.66
   2   4 -17   19.63    1.55
   0  -4  17   30.70    1.95
   0  -4 -17   30.64    2.27
   0   4 -17   27.42    1.82
   0   4  17   29.87    2.02
   0   4  17   28.98    1.81
   0   4 -17   31.32    2.04
   2  -4  17   28.05    1.89
  -2  -4 -17   25.43    2.07
  -2   4 -17   26.66    1.79
  -2   4 -17   28.70    1.97
   2   4  17   26.32    1.86
   2   4  17   26.49    1.79
   4  -4  17   37.16    2.27
  -4  -4 -17   36.50    2.49
   4   4  17   36.96    2.23
  -4   4 -17   40.09    2.34
   4   4  17   35.53    2.15
  -4   4 -17   36.75    2.12
   6  -4  17   17.09    1.56
  -6  -4 -17   16.86    1.65
   6   4  17   14.59    1.42
  -6   4 -17   18.91    1.53
  -6   4 -17   17.99    1.42
  -8  -4 -17   23.04    1.91
   8  -4  17   22.65    1.82
  -8  -4 -17   23.10    1.52
   8   4  17   24.04    1.91
   8   4  17   23.35    1.65
  -8   4 -17   26.33    1.87
  -8   4 -17   20.86    1.57
  10  -4  17    7.37    1.12
 -10  -4 -17    8.48    1.18
 -10   4 -17    7.26    0.84
  10   4  17    6.95    1.13
 -10   4 -17    6.36    0.85
 -12  -4 -17   37.41    2.50
  12  -4  17   33.49    2.28
 -12   4 -17   35.81    2.27
 -12   4 -17   33.52    2.01
 -12   4 -17   33.63    2.10
  12   4  17   36.10    2.49
  14  -4  17    1.60    0.40
  14   4  17    1.24    0.37
 -15  -5  17    1.19    0.24
  15   5 -17    1.84    0.36
 -15   5  17    0.82    0.39
  13  -5 -17   45.14    2.95
 -13  -5  17   43.21    2.52
 -13   5  17   42.97    2.80
  13   5 -17   43.93    2.66
  11  -5 -17    0.36    0.37
  11   5 -17    0.06    0.24
 -11   5  17    0.77    0.42
  -9  -5  17   35.14    1.88
   9  -5 -17   40.06    2.71
  -9  -5  17   36.22    2.12
   9   5 -17   34.90    2.28
  -9   5  17   38.98    2.55
   7  -5 -17    0.82    0.44
   7   5 -17    1.31    0.38
  -7   5  17    0.24    0.40
  -5  -5  17   13.74    1.14
   5  -5 -17   12.58    1.46
  -5   5  17   12.58    1.41
   5   5 -17   13.14    1.32
   5   5 -17   14.39    1.28
  -3  -5  17    1.12    0.18
   3  -5 -17    0.44    0.33
   3   5 -17    0.62    0.30
  -3   5  17    0.74    0.40
  -1  -5  17    7.17    0.93
   1  -5 -17    8.41    1.23
  -1   5  17    5.58    1.00
  -1   5  17    6.58    0.67
   1   5 -17    4.83    0.84
   1   5 -17    6.36    0.92
  -1  -5 -17    2.75    0.75
   1  -5  17    2.75    0.64
   1   5  17    2.73    0.30
  -1   5 -17    2.35    0.61
   1   5  17    2.56    0.62
  -1   5 -17    2.42    0.53
  -3  -5 -17   13.39    1.46
   3  -5  17   12.73    1.29
  -3   5 -17   12.30    1.27
   3   5  17   12.05    1.18
  -3   5 -17   13.94    1.29
  -5  -5 -17    2.35    0.23
   5  -5  17    1.25    0.42
  -5  -5 -17    1.26    0.47
   5   5  17    1.93    0.47
  -5   5 -17    1.86    0.37
  -5   5 -17    1.58    0.51
   5   5  17    1.79    0.34
  -7  -5 -17   51.41    3.04
  -7  -5 -17   53.60    2.67
   7  -5  17   53.00    2.90
   7   5  17   50.39    2.65
   7   5  17   52.78    2.95
  -7   5 -17   51.97    2.76
  -7   5 -17   57.88    2.98
   9  -5  17    1.32    0.41
   9   5  17    1.41    0.26
   9   5  17    1.28    0.43
  -9   5 -17    1.70    0.36
 -10  -6  17   29.77    1.89
  10  -6 -17   32.77    2.45
 -10   6  17   28.40    2.23
  10   6 -17   29.46    2.13
   8  -6 -17   46.85    2.98
  -8  -6  17   38.26    2.13
  -8   6  17   42.95    2.76
   8   6 -17   39.44    2.53
  -6  -6  17   37.07    2.10
   6  -6 -17   43.18    2.81
  -6   6  17   37.94    2.62
   6   6 -17   42.16    2.58
   6   6 -17   38.75    2.50
   4  -6 -17   33.59    2.38
  -4  -6  17   32.40    2.00
   4   6 -17   33.27    2.28
  -4   6  17   28.07    2.20
   4   6 -17   30.12    2.14
  -2  -6  17   21.46    1.58
   2  -6 -17   21.51    1.90
   2   6 -17   23.53    1.87
  -2   6  17   21.35    1.88
   2   6 -17   22.88    1.83
  -2   6  17   25.05    1.58
   0  -6  17   13.10    1.24
   0  -6 -17   11.90    1.28
   0   6 -17   14.71    1.32
   0   6  17   11.85    1.34
   0   6  17   11.12    0.98
   0   6 -17   11.97    1.27
  -2  -6 -17   20.19    1.75
  -2  -6 -17   20.73    1.61
   2  -6  17   19.84    1.62
   2   6  17   18.14    1.44
   2   6  17   17.66    1.34
  -2   6 -17   16.39    1.54
  -2   6 -17   20.25    1.65
   4  -6  17   42.45    2.57
  -4  -6 -17   45.44    2.85
  -4  -6 -17   43.87    2.49
  -4   6 -17   44.14    2.64
   4   6  17   41.91    2.35
   4   6  17   43.21    2.50
  -4   6 -17   44.61    2.62
 -22   0  18   34.50    2.42
  22   0 -18   39.30    2.27
  22   0 -18   35.71    2.03
 -20   0  18   10.30    1.26
  20   0 -18    9.67    0.92
  20   0 -18   10.30    0.92
  18   0 -18   51.86    2.69
 -18   0  18   50.84    2.94
  18   0 -18   51.47    2.37
  16   0 -18    3.99    0.46
  16   0 -18    3.33    0.35
 -16   0  18    1.78    0.70
  14   0 -18   95.25    3.86
  14   0 -18   90.17    3.22
 -14   0  18   88.23    3.90
 -12   0  18    0.32    0.40
  12   0 -18    1.03    0.25
 -10   0  18   85.87    3.69
  10   0 -18   88.53    3.75
  -8   0  18    1.92    0.57
   8   0 -18    2.22    0.58
   6   0 -18  121.88    4.71
  -6   0  18  126.95    3.80
  -6   0  18  132.63    4.58
   4   0 -18   -0.08    0.28
  -4   0  18    0.41    0.23
  -4   0  18    1.04    0.17
  -2   0  18   94.67    3.56
   2   0 -18   91.30    3.86
  -2   0  18   88.17    3.21
   0   0  18    2.98    0.48
   0   0  18    3.17    0.58
   0   0 -18    2.30    0.75
  -2   0 -18  146.38    5.21
   2   0  18  154.45    4.82
   4   0  18    4.05    0.83
  -4   0 -18    3.37    0.82
  -6   0 -18   41.55    2.48
   6   0  18   46.48    2.52
   8   0  18    2.16    0.70
  -8   0 -18    1.64    0.63
 -10   0 -18    3.34    0.85
  10   0  18    4.57    0.95
  12   0  18   11.50    1.40
 -12   0 -18    9.95    1.34
 -14   0 -18    3.84    0.86
  14   0  18    5.57    1.01
 -16   0 -18   14.16    1.50
  16   0  18   14.10    1.43
  21  -1 -18    4.40    0.53
 -21  -1  18    3.58    0.85
 -21   1  18    3.72    0.86
  21   1 -18    3.92    0.63
  19  -1 -18   37.86    2.33
 -19  -1  18   33.29    2.36
  19   1 -18   35.71    2.05
 -19   1  18   33.88    2.37
  17  -1 -18   37.90    2.36
 -17  -1  18   31.39    2.27
  17   1 -18   37.20    2.03
  17   1 -18   36.07    2.00
 -17   1  18   33.44    2.37
 -15  -1  18   42.58    2.62
  15  -1 -18   49.88    2.76
 -15   1  18   47.36    2.75
  15   1 -18   46.35    2.34
  15   1 -18   49.36    2.33
 -13  -1  18    9.26    1.25
  13  -1 -18    9.61    1.17
  13   1 -18   10.01    0.91
 -13   1  18    8.34    1.19
  13   1 -18    9.16    0.87
 -11  -1  18   56.37    2.87
  11  -1 -18   51.38    2.87
 -11   1  18   51.68    2.83
  11   1 -18   57.36    2.42
  11   1 -18   56.25    2.69
   9  -1 -18   10.07    1.36
  -9  -1  18   10.33    1.10
   9   1 -18    9.93    0.98
   9   1 -18    9.51    0.85
  -9   1  18    8.87    1.19
  -7  -1  18   23.59    1.68
   7  -1 -18   23.62    1.93
  -7  -1  18   23.64    1.30
   7   1 -18   24.27    1.70
   7   1 -18   23.05    1.37
  -7   1  18   22.25    1.71
  -5  -1  18    1.38    0.36
  -5  -1  18    1.49    0.16
   5  -1 -18    1.12    0.59
   5   1 -18    2.79    0.29
  -5   1  18    1.73    0.13
   5   1 -18    1.02    0.31
  -5   1  18    1.43    0.48
  -3  -1  18   19.45    1.39
  -3  -1  18   17.84    1.23
   3  -1 -18   16.96    1.61
   3   1 -18   18.03    1.47
   3   1 -18   16.03    1.08
  -3   1  18   17.07    1.19
  -3   1  18   17.22    1.39
  -1  -1  18   16.45    1.23
   1  -1 -18   12.64    1.40
  -1   1  18   16.22    1.30
   1   1 -18   15.88    1.39
  -1   1  18   15.53    1.17
  -1  -1 -18   16.03    1.55
   1  -1  18   17.20    1.34
   1   1  18   17.00    1.32
  -1   1 -18   17.69    1.46
   1   1  18   16.93    1.29
   3  -1  18   45.63    2.36
  -3  -1 -18   46.10    2.64
   3   1  18   46.38    2.39
  -3   1 -18   44.55    2.46
   5  -1  18   36.12    2.14
  -5  -1 -18   36.30    2.34
  -5   1 -18   36.49    2.19
   5   1  18   34.53    2.12
   7  -1  18   75.86    3.33
  -7  -1 -18   73.58    3.51
   7   1  18   77.10    3.39
  -7   1 -18   77.72    3.46
   9  -1  18   31.25    2.11
  -9  -1 -18   30.68    2.21
  -9   1 -18   32.53    2.15
   9   1  18   31.41    2.14
 -11  -1 -18   42.33    2.65
  11  -1  18   43.03    2.55
  11   1  18   42.74    2.57
 -11   1 -18   43.38    2.59
  13  -1  18   20.57    1.75
 -13  -1 -18   20.73    1.87
  13   1  18   20.16    1.78
 -13   1 -18   21.30    1.77
  15  -1  18   42.37    2.60
 -15  -1 -18   42.17    2.73
  15   1  18   42.16    2.63
 -15   1 -18   41.90    2.64
  22  -2 -18   18.09    1.60
 -22  -2  18   14.11    1.51
 -22   2  18   15.60    1.58
  22   2 -18   16.81    1.40
 -20  -2  18    3.29    0.78
  20  -2 -18    2.92    0.64
 -20   2  18    3.35    0.85
  20   2 -18    3.74    0.63
  18  -2 -18   39.34    2.57
 -18  -2  18   34.73    2.43
  18   2 -18   40.10    2.25
 -18   2  18   34.97    2.42
  16  -2 -18    6.15    1.04
 -16  -2  18    4.89    0.94
 -16   2  18    5.41    1.05
  16   2 -18    5.26    0.73
  14  -2 -18   72.54    3.59
 -14  -2  18   66.92    3.34
  14   2 -18   68.18    2.95
 -14   2  18   71.10    3.47
  12  -2 -18    2.90    0.82
 -12  -2  18    4.02    0.78
 -12   2  18    3.11    0.81
  12   2 -18    4.37    0.66
 -10  -2  18   80.14    3.53
  10  -2 -18   86.49    3.94
 -10   2  18   81.11    3.69
  10   2 -18   86.64    3.33
  -8  -2  18    2.51    0.57
   8  -2 -18    1.26    0.64
  -8   2  18    1.10    0.55
   8   2 -18    2.75    0.24
   8   2 -18    1.95    0.41
  -6  -2  18   75.49    2.85
   6  -2 -18   77.38    3.75
  -6  -2  18   80.08    3.31
  -6   2  18   77.67    3.50
   6   2 -18   81.40    3.13
   6   2 -18   83.78    3.37
  -4  -2  18    3.50    0.56
  -4  -2  18    4.62    0.57
   4  -2 -18    4.13    0.95
   4   2 -18    5.35    0.61
  -4   2  18    5.41    0.53
  -4   2  18    4.65    0.79
   4   2 -18    5.26    0.54
   2  -2 -18   82.29    3.88
  -2  -2  18   89.77    3.29
  -2   2  18   86.59    3.56
  -2   2  18   85.35    3.22
   2   2 -18   88.02    3.53
   2   2 -18   89.84    3.26
   0  -2  18    1.18    0.36
   0  -2 -18    0.63    0.56
   0   2  18    1.51    0.35
   0   2  18    1.17    0.35
   0   2 -18    1.63    0.33
   2  -2  18   82.69    3.34
  -2  -2 -18   83.50    3.85
  -2   2 -18   85.10    3.11
   2   2  18   82.75    3.37
  -2   2 -18   87.53    3.51
   2   2  18   84.00    3.38
   4  -2  18    0.97    0.51
   4   2  18    1.46    0.51
   4   2  18    2.85    0.30
  -4   2 -18    1.83    0.40
  -4   2 -18    2.35    0.25
   6  -2  18   41.22    2.35
  -6  -2 -18   38.94    2.52
   6   2  18   37.36    2.31
  -6   2 -18   40.81    2.29
  -6   2 -18   44.28    2.05
   8  -2  18    4.61    0.90
  -8  -2 -18    3.50    0.88
   8   2  18    4.78    0.93
  -8   2 -18    5.73    0.82
 -10  -2 -18   13.38    1.45
  10  -2  18   13.08    1.38
  10   2  18   14.32    1.47
 -10   2 -18   14.50    1.31
  12  -2  18    6.24    1.05
 -12  -2 -18    6.81    1.09
  12   2  18    5.50    1.01
 -12   2 -18    6.75    0.81
 -14  -2 -18    1.96    0.64
  14  -2  18    1.68    0.43
  14   2  18    1.88    0.68
  19  -3 -18   28.31    2.22
 -19  -3  18   25.78    2.07
  19   3 -18   28.29    1.96
 -19   3  18   24.41    2.07
 -17  -3  18    5.64    0.99
  17  -3 -18    5.73    1.05
  17   3 -18    5.70    0.81
 -17   3  18    4.86    0.96
  15  -3 -18   30.01    2.30
 -15  -3  18   30.15    2.17
 -15   3  18   28.17    2.17
  15   3 -18   32.85    2.06
 -13  -3  18   38.15    2.37
  13  -3 -18   31.99    2.41
 -13   3  18   29.73    2.25
  13   3 -18   35.14    2.12
 -11  -3  18   35.63    2.25
  11  -3 -18   35.86    2.55
 -11   3  18   36.62    2.45
  11   3 -18   38.88    2.19
  -9  -3  18    2.45    0.51
   9  -3 -18    2.02    0.78
  -9   3  18    1.48    0.62
   9   3 -18    2.95    0.56
  -7  -3  18   16.09    1.33
  -7  -3  18   15.48    1.06
   7  -3 -18   14.62    1.61
  -7   3  18   15.75    1.53
   7   3 -18   17.49    1.38
  -5  -3  18    5.72    0.61
  -5  -3  18    5.49    0.57
   5  -3 -18    5.26    1.08
   5   3 -18    6.25    0.82
  -5   3  18    4.91    0.93
  -3  -3  18    9.98    0.93
   3  -3 -18    9.46    1.35
  -3   3  18    9.34    0.85
   3   3 -18    9.92    0.96
  -3   3  18   10.30    1.17
   1  -3 -18    4.20    0.97
  -1  -3  18    5.11    0.72
  -1   3  18    3.56    0.71
  -1   3  18    4.70    0.66
   1   3 -18    3.42    0.60
  -1  -3 -18    8.48    1.24
   1  -3  18    9.11    1.12
   1   3  18    8.15    0.92
  -1   3 -18    7.99    0.82
   1   3  18    8.73    0.91
   3  -3  18   52.10    2.66
  -3  -3 -18   50.75    2.98
   3   3  18   56.20    2.70
  -3   3 -18   53.66    2.55
  -3   3 -18   52.13    2.49
   3   3  18   54.22    2.69
  -5  -3 -18   12.32    1.46
   5  -3  18   12.47    1.31
   5   3  18   13.26    1.31
  -5   3 -18   13.91    1.15
   5   3  18   13.70    1.19
  -5   3 -18   14.64    1.14
  -7  -3 -18   43.68    2.75
   7  -3  18   43.46    2.54
  -7   3 -18   45.86    2.30
   7   3  18   42.17    2.54
  -7   3 -18   45.70    2.38
   9  -3  18   21.03    1.77
  -9  -3 -18   20.24    1.86
  -9   3 -18   21.08    1.47
   9   3  18   21.47    1.80
  -9   3 -18   22.52    1.56
  -9   3 -18   20.81    1.65
  11  -3  18   38.37    2.48
 -11  -3 -18   40.93    2.68
 -11   3 -18   42.01    2.21
 -11   3 -18   39.95    2.29
  11   3  18   39.95    2.58
 -13  -3 -18   15.42    1.55
  13  -3  18   14.79    1.45
  13   3  18   13.44    1.45
 -13   3 -18   13.49    1.17
 -13   3 -18   15.44    1.20
 -18   4  18   23.80    2.04
 -16  -4  18    3.52    0.69
  16  -4 -18    3.36    0.87
  16   4 -18    4.08    0.71
 -16   4  18    3.62    0.88
  14  -4 -18   27.25    2.24
 -14  -4  18   27.16    1.98
 -14   4  18   24.43    2.06
  14   4 -18   25.65    1.91
 -12  -4  18    4.56    0.74
  12  -4 -18    3.51    0.90
  12   4 -18    4.86    0.80
 -12   4  18    4.74    0.94
 -10  -4  18   27.95    1.92
  10  -4 -18   32.74    2.42
  10   4 -18   31.20    2.06
 -10   4  18   30.75    2.26
  -8  -4  18    8.40    0.71
   8  -4 -18    9.09    1.34
  -8  -4  18    9.38    0.93
   8   4 -18    9.63    1.01
  -8   4  18    7.80    1.20
  -6  -4  18   24.39    1.54
   6  -4 -18   26.31    2.18
   6   4 -18   26.27    1.81
  -6   4  18   25.68    2.00
   4  -4 -18    1.21    0.63
  -4  -4  18    3.28    0.32
   4   4 -18    2.39    0.52
  -4   4  18    1.82    0.60
  -4   4  18    3.40    0.23
  -2  -4  18   42.70    2.27
   2  -4 -18   42.12    2.80
  -2   4  18   43.88    2.54
   2   4 -18   39.11    2.26
  -2   4  18   39.94    2.12
   0  -4 -18    8.22    1.29
   0  -4  18    7.79    0.97
   0   4 -18    8.60    0.89
   0   4  18    8.06    0.79
   0   4  18    7.29    1.02
   0   4 -18    7.90    0.90
  -2  -4 -18   41.10    2.71
   2  -4  18   46.79    2.52
   2   4  18   39.31    2.36
  -2   4 -18   42.59    2.33
  -2   4 -18   45.66    2.61
   2   4  18   38.66    2.28
   4  -4  18    1.06    0.40
  -4  -4 -18    0.77    0.42
   4   4  18    1.56    0.37
  -4   4 -18    1.51    0.24
  -4   4 -18    1.03    0.23
   4   4  18    1.71    0.39
   6  -4  18   27.47    1.99
  -6  -4 -18   29.60    2.24
  -6   4 -18   31.91    2.13
   6   4  18   27.79    1.89
  -6   4 -18   26.08    1.78
   6   4  18   28.73    2.04
   8  -4  18    1.77    0.63
  -8  -4 -18    1.91    0.58
  -8   4 -18    1.78    0.35
   8   4  18    2.84    0.67
  -8   4 -18    3.29    0.58
 -10  -4 -18    5.50    0.94
  10  -4  18    6.01    1.01
 -10   4 -18    5.74    0.70
  10   4  18    3.89    0.82
 -10   4 -18    5.73    0.78
  13  -5 -18    2.67    0.69
 -13  -5  18    1.98    0.23
 -13   5  18    2.49    0.62
  13   5 -18    3.13    0.62
 -11  -5  18   19.18    1.51
  11  -5 -18   19.68    1.88
 -11   5  18   19.70    1.82
  11   5 -18   18.57    1.62
   9  -5 -18    1.85    0.61
   9   5 -18    1.78    0.45
  -9   5  18    1.49    0.57
   7  -5 -18    9.01    1.32
  -7  -5  18    7.90    0.73
   7   5 -18    7.24    1.02
  -7   5  18    7.03    1.15
   5  -5 -18    1.12    0.46
  -5   5  18    0.37    0.31
   3  -5 -18    2.14    0.66
   3   5 -18    1.54    0.46
  -3   5  18    1.30    0.51
   1  -5 -18    8.19    1.23
  -1  -5  18    8.92    0.92
  -1   5  18    8.68    0.78
   1   5 -18    9.46    1.03
   1   5 -18    9.05    0.93
  -1   5  18    7.62    1.11
   1  -5  18    1.05    0.29
  -1  -5 -18    1.60    0.46
  -1   5 -18    1.30    0.29
   1   5  18    1.03    0.25
  -3  -5 -18   14.58    1.52
   3  -5  18   13.65    1.34
   3   5  18   13.31    1.30
  -3   5 -18   16.29    1.41
  -3   5 -18   13.98    1.25
   3   5  18   13.87    1.22
  -5  -5 -18    3.73    0.76
   5  -5  18    3.92    0.77
  -5   5 -18    5.83    0.66
   5   5  18    3.14    0.63
  -5   5 -18    3.25    0.60
   5   5  18    3.88    0.35
  -7  -5 -18   25.26    1.69
  -7  -5 -18   26.68    2.08
   7  -5  18   27.99    2.05
   7   5  18   26.90    1.83
  -7   5 -18   27.83    2.01
  -7   5 -18   23.60    1.78
   7   5  18   24.60    1.88
 -20   0  19    0.84    0.36
 -18   0  19    0.45    0.40
 -16   0  19    0.51    0.35
 -14   0  19    0.20    0.39
  12   0 -19    1.38    0.30
 -12   0  19    0.55    0.33
 -10   0  19    0.67    0.34
   8   0 -19    1.43    0.37
  -8   0  19    0.70    0.30
  -6   0  19    1.26    0.39
   6   0 -19    1.03    0.32
  -4   0  19    1.00    0.27
   4   0 -19    0.34    0.22
   2   0 -19    0.51    0.37
  -2   0  19    1.19    0.25
  -2   0  19    1.19    0.18
   0   0  19    1.09    0.24
   0   0 -19    0.44    0.35
   2   0  19    1.88    0.43
  -2   0 -19    0.58    0.42
   4   0  19    0.54    0.37
  -4   0 -19    0.09    0.43
   6   0  19    0.42    0.31
  -6   0 -19    0.42    0.36
   8   0  19    0.19    0.35
  -8   0 -19   -0.10    0.36
  10   0  19    0.33    0.28
 -10   0 -19    1.23    0.42
  12   0  19    1.12    0.38
  14   0  19    0.70    0.34
 -21  -1  19    0.65    0.30
 -21   1  19    0.98    0.28
 -19  -1  19    0.58    0.34
  19   1 -19    1.78    0.19
 -19   1  19    1.35    0.43
 -17  -1  19    1.35    0.58
  17  -1 -19    2.62    0.27
  17   1 -19    2.52    0.28
 -17   1  19    0.77    0.50
  15  -1 -19    5.88    0.88
 -15  -1  19    3.29    0.77
  15   1 -19    5.77    0.51
 -15   1  19    4.16    0.90
  15   1 -19    5.31    0.61
 -13  -1  19    0.50    0.38
  13  -1 -19    0.91    0.19
  13   1 -19    0.99    0.15
 -13   1  19   -0.09    0.35
  11  -1 -19    1.30    0.48
 -11  -1  19    0.72    0.30
 -11   1  19    0.37    0.38
   9  -1 -19    0.67    0.45
  -9  -1  19    0.44    0.25
  -9   1  19    0.54    0.39
   7  -1 -19    2.83    0.78
  -7  -1  19    2.62    0.56
   7   1 -19    2.78    0.52
  -7   1  19    2.30    0.62
  -5  -1  19    3.36    0.27
   5  -1 -19    2.02    0.73
  -5  -1  19    2.99    0.56
   5   1 -19    2.53    0.51
  -5   1  19    1.99    0.53
  -5   1  19    3.68    0.31
  -3  -1  19    5.63    0.61
  -3  -1  19    4.98    0.53
   3  -1 -19    3.93    0.91
  -3   1  19    3.97    0.68
  -3   1  19    5.49    0.53
   3   1 -19    4.78    0.74
   1  -1 -19    0.02    0.42
  -1  -1  19    1.23    0.26
  -1   1  19    1.18    0.28
  -1   1  19    0.97    0.18
  -1  -1 -19    7.08    1.18
   1  -1  19    7.48    0.83
   1   1  19    8.39    0.86
   1   1  19    7.92    0.79
  -1   1 -19    8.14    0.95
   3  -1  19    1.82    0.58
  -3  -1 -19    1.22    0.59
   3   1  19    3.10    0.59
  -3   1 -19    2.26    0.51
   5  -1  19    3.12    0.71
  -5  -1 -19    1.86    0.71
   5   1  19    3.55    0.71
  -5   1 -19    4.58    0.74
  -7  -1 -19    4.69    0.98
   7  -1  19    4.71    0.90
   7   1  19    4.30    0.81
  -7   1 -19    5.46    0.83
  -9  -1 -19    3.01    0.82
   9  -1  19    4.18    0.86
  -9   1 -19    4.35    0.82
   9   1  19    3.31    0.78
 -11  -1 -19    1.45    0.60
  11  -1  19    1.57    0.57
 -11   1 -19    1.45    0.48
  11   1  19    2.09    0.60
 -13  -1 -19    5.10    1.00
  13  -1  19    4.42    0.86
  13   1  19    4.71    0.91
 -13   1 -19    5.78    0.90
 -20  -2  19    8.44    1.15
  20  -2 -19    8.27    0.88
 -20   2  19    5.28    0.94
  20   2 -19    6.78    0.74
 -18  -2  19   10.57    1.26
  18  -2 -19   11.48    1.26
 -18   2  19   10.98    1.41
  18   2 -19   10.39    1.00
 -16  -2  19    6.94    1.08
  16  -2 -19    8.80    1.22
 -16   2  19    6.47    1.11
  16   2 -19    7.06    0.80
  14  -2 -19    2.99    0.76
 -14  -2  19    2.80    0.64
 -14   2  19    2.03    0.69
  14   2 -19    3.83    0.58
  12  -2 -19    9.70    1.34
 -12  -2  19    9.01    1.05
 -12   2  19    8.04    1.22
  12   2 -19   10.78    0.99
 -10  -2  19   10.04    1.10
  10  -2 -19   11.22    1.46
  10   2 -19   13.08    1.09
 -10   2  19    9.68    1.29
   8  -2 -19   12.36    1.48
  -8  -2  19   12.39    1.19
  -8   2  19   12.71    1.37
   8   2 -19   13.82    1.11
  -6  -2  19    3.35    0.58
  -6  -2  19    3.14    0.31
   6  -2 -19    2.70    0.83
   6   2 -19    4.28    0.47
  -6   2  19    3.42    0.71
   6   2 -19    3.78    0.35
  -4  -2  19    4.67    0.50
   4  -2 -19    4.51    0.99
   4   2 -19    5.38    0.70
  -4   2  19    4.33    0.77
   4   2 -19    5.71    0.52
  -4   2  19    5.34    0.46
  -2  -2  19   12.86    1.07
   2  -2 -19   12.04    1.47
  -2   2  19   12.38    1.17
   2   2 -19   12.41    1.06
  -2   2  19   12.34    0.99
   2   2 -19   13.23    1.04
   0  -2  19   12.50    1.12
   0  -2 -19   12.29    1.45
   0   2 -19   12.89    1.01
   0   2 -19   13.73    1.15
   0   2  19   12.87    1.11
   0   2  19   12.10    1.15
   2  -2  19    2.19    0.50
  -2  -2 -19    0.88    0.62
   2   2  19    2.04    0.47
   2   2  19    1.79    0.35
  -2   2 -19    2.55    0.27
  -2   2 -19    2.43    0.22
  -4  -2 -19   -0.23    0.36
   4  -2  19    0.56    0.30
   4   2  19    1.45    0.29
  -6  -2 -19    5.19    1.04
   6  -2  19    7.31    1.07
   6   2  19    6.43    0.97
  -6   2 -19    7.08    0.74
   8  -2  19    2.01    0.61
  -8  -2 -19    0.68    0.58
  -8   2 -19    2.96    0.27
 -10  -2 -19    1.41    0.58
  10  -2  19    1.68    0.56
  10   2  19    1.73    0.53
 -10   2 -19    2.27    0.22
 -12  -2 -19    3.36    0.75
  12  -2  19    3.49    0.79
 -12   2 -19    4.32    0.45
  12   2  19    2.49    0.69
  17  -3 -19    2.49    0.66
 -17  -3  19    1.36    0.40
 -17   3  19    2.14    0.66
  17   3 -19    2.65    0.30
  15  -3 -19   15.29    1.62
 -15  -3  19   16.21    1.52
 -15   3  19   14.69    1.55
  15   3 -19   16.20    1.36
  13  -3 -19    8.40    1.30
 -13  -3  19    7.82    0.97
 -13   3  19    8.23    1.21
  13   3 -19    9.39    0.97
  11  -3 -19    3.03    0.81
 -11  -3  19    4.82    0.78
 -11   3  19    4.15    0.89
  11   3 -19    5.90    0.68
   9  -3 -19    2.86    0.84
  -9  -3  19    2.45    0.52
  -9   3  19    2.52    0.72
   9   3 -19    3.76    0.62
  -7  -3  19   12.81    1.16
  -7  -3  19   12.45    0.95
   7  -3 -19   12.25    1.51
  -7   3  19   12.46    1.36
   7   3 -19   14.52    1.20
  -5  -3  19    3.04    0.23
  -5   3  19    2.27    0.56
   5   3 -19    2.64    0.47
   3  -3 -19   22.01    2.02
  -3  -3  19   24.07    1.55
  -3   3  19   23.89    1.80
   3   3 -19   23.86    1.60
  -3   3  19   24.86    1.53
   1  -3 -19    0.92    0.60
  -1  -3  19    1.77    0.32
   1   3 -19    1.91    0.32
  -1   3  19    2.27    0.17
  -1   3  19    1.60    0.38
  -1  -3 -19   29.31    2.26
   1  -3  19   31.57    1.95
  -1   3 -19   31.27    1.85
   1   3  19   31.66    1.93
   1   3  19   29.78    1.98
  -3  -3 -19    0.68    0.49
   5  -3  19   53.53    2.81
  -5  -3 -19   52.48    3.12
  -5   3 -19   56.41    2.61
  -5   3 -19   56.49    2.71
   5   3  19   54.82    2.83
   7  -3  19    1.50    0.46
  -7  -3 -19    1.51    0.51
   7   3  19    1.85    0.49
  -7   3 -19    2.40    0.26
   9  -3  19   14.68    1.46
  -9  -3 -19   15.07    1.58
   9   3  19   14.61    1.45
  -9   3 -19   15.18    1.20
  -9   3 -19   15.43    1.19
 -11  -3 -19    6.51    1.08
  11  -3  19    6.06    1.01
 -11   3 -19    8.24    0.71
  11   3  19    7.43    1.08
 -14  -4  19   27.08    2.02
  14  -4 -19   29.33    2.39
  14   4 -19   27.70    1.94
 -14   4  19   28.64    2.25
  12  -4 -19   16.48    1.76
 -12  -4  19   15.26    1.36
 -12   4  19   18.18    1.76
  12   4 -19   17.91    1.44
 -10  -4  19    4.78    0.58
  10  -4 -19    2.95    0.81
 -10   4  19    2.95    0.82
  10   4 -19    4.06    0.47
   8  -4 -19   24.61    2.07
  -8   4  19   24.46    2.03
   8   4 -19   25.63    1.80
   6  -4 -19   24.62    2.11
  -6  -4  19   23.95    1.52
  -6   4  19   24.33    1.96
   6   4 -19   24.26    1.73
  -4  -4  19   20.26    1.41
   4  -4 -19   20.91    1.91
  -4   4  19   21.41    1.80
   4   4 -19   19.92    1.52
   2  -4 -19   12.61    1.47
  -2  -4  19   11.68    1.05
  -2   4  19   13.79    1.05
  -2   4  19   14.18    1.36
   2   4 -19   12.15    1.12
   0  -4  19   13.85    1.20
   0  -4 -19   12.31    1.46
   0   4  19   13.11    1.06
   0   4 -19   14.34    1.24
   0   4  19   12.55    1.25
  -2  -4 -19   29.31    2.31
   2  -4  19   30.24    2.00
   2   4  19   29.68    1.88
   2   4  19   29.50    2.04
  -2   4 -19   29.05    1.88
   4  -4  19    4.86    0.84
  -4  -4 -19    6.03    1.07
  -4   4 -19    5.51    0.60
   4   4  19    5.57    0.80
   4   4  19    6.45    0.72
  -6  -4 -19    6.61    1.10
   6  -4  19    6.71    0.99
  -6   4 -19    6.39    0.68
   6   4  19    5.91    0.67
   6   4  19    6.48    0.92
   8  -4  19    0.80    0.30
   9  -5 -19    3.45    0.82
   9   5 -19    3.85    0.68
  -9   5  19    3.92    0.85
   7  -5 -19   10.36    1.27
  -7  -5  19    7.33    0.61
   7   5 -19    7.89    1.02
  -7   5  19    9.53    1.28
  -5  -5  19    5.07    0.40
   5  -5 -19    4.12    0.87
  -5   5  19    5.20    0.92
   5   5 -19    5.70    0.86
  -3  -5  19   52.31    2.62
   3  -5 -19   58.06    3.38
  -3   5  19   52.86    3.03
   3   5 -19   57.11    2.94
   1  -5 -19    1.42    0.36
   1   5 -19    1.14    0.21
  -1   5  19    0.99    0.26
   1  -5  19   60.06    3.02
  -1  -5 -19   66.23    3.64
  -1   5 -19   56.98    2.96
   1   5  19   63.70    3.02
   1   5  19   60.32    3.21
   3  -5  19    1.46    0.22
  -3  -5 -19    0.95    0.22
   3   5  19    0.96    0.21
  18   0 -20    2.55    0.15
 -18   0  20    2.33    0.64
  16   0 -20   91.96    3.88
 -16   0  20   83.59    3.99
  14   0 -20    2.45    0.19
 -14   0  20    1.39    0.50
  12   0 -20   34.53    2.18
 -12   0  20   31.46    2.17
  10   0 -20    1.05    0.20
 -10   0  20    1.50    0.45
  -8   0  20   86.39    3.76
   8   0 -20   89.53    3.94
  -6   0  20    1.35    0.33
   6   0 -20    1.03    0.27
  -4   0  20   74.61    2.89
   4   0 -20   79.27    3.67
  -4   0  20   74.04    3.28
   2   0 -20    1.23    0.26
   0   0 -20   43.25    2.61
   0   0  20   42.93    2.20
  -2   0 -20    0.17    0.20
   2   0  20    1.67    0.36
   4   0  20    1.86    0.44
  -4   0 -20    1.33    0.44
  -6   0 -20    0.80    0.40
   8   0  20   12.77    1.31
  -8   0 -20   11.37    1.28
  10   0  20    4.31    0.85
 -10   0 -20    6.07    0.97
 -12   0 -20   27.66    2.15
  12   0  20   30.14    2.20
 -19  -1  20    7.91    1.13
  19  -1 -20    7.94    0.83
  19   1 -20    8.21    0.75
 -19   1  20    6.97    1.09
  17  -1 -20   41.73    2.54
 -17  -1  20   39.14    2.61
 -17   1  20   40.86    2.69
  17   1 -20   45.14    2.28
  15  -1 -20    3.31    0.39
 -15  -1  20    2.47    0.62
 -15   1  20    2.38    0.67
  15   1 -20    2.81    0.29
  13  -1 -20   33.29    2.26
 -13  -1  20   34.66    2.29
  13   1 -20   34.45    2.02
 -13   1  20   29.72    2.19
 -11  -1  20    5.14    0.81
  11  -1 -20    4.24    0.75
 -11   1  20    3.73    0.80
  11   1 -20    4.89    0.47
   9  -1 -20   32.00    2.29
  -9  -1  20   33.15    2.13
  -9   1  20   30.75    2.13
   9   1 -20   33.33    2.05
   7  -1 -20   30.50    2.25
  -7  -1  20   29.75    1.98
   7   1 -20   32.43    2.06
  -7   1  20   31.35    2.08
  -5  -1  20   33.21    1.74
   5  -1 -20   33.49    2.39
  -5  -1  20   34.60    2.07
   5   1 -20   37.14    2.25
  -5   1  20   35.86    2.18
   3  -1 -20   69.87    3.56
  -3  -1  20   70.98    2.88
  -3   1  20   72.32    2.89
  -3   1  20   71.68    3.25
   3   1 -20   74.58    3.44
  -1  -1  20   40.45    2.11
   1  -1 -20   38.55    2.58
  -1   1  20   39.75    2.12
   1   1 -20   39.58    2.37
  -1   1  20   39.96    2.23
  -1  -1 -20   64.76    3.41
   1  -1  20   67.02    2.95
  -1   1 -20   65.06    3.21
   1   1  20   65.42    2.92
  -3  -1 -20   30.25    2.26
   3  -1  20   31.19    1.96
   3   1  20   30.31    1.92
  -3   1 -20   30.98    2.07
   5  -1  20   39.79    2.35
  -5  -1 -20   37.41    2.53
   5   1  20   37.89    2.26
  -5   1 -20   36.17    2.30
   7  -1  20   26.49    1.93
  -7  -1 -20   24.60    2.03
   7   1  20   24.80    1.85
  -7   1 -20   27.79    1.95
  -9  -1 -20   49.73    3.00
   9  -1  20   50.77    2.83
  -9   1 -20   48.81    2.80
   9   1  20   48.60    2.77
 -11  -1 -20   21.23    1.89
  11  -1  20   21.94    1.81
 -11   1 -20   21.94    1.79
  11   1  20   20.86    1.78
  16  -2 -20   19.21    1.70
 -16  -2  20   16.49    1.54
  16   2 -20   17.73    1.37
 -16   2  20   16.34    1.62
  14  -2 -20    2.10    0.55
 -14  -2  20    1.20    0.36
 -14   2  20    1.49    0.49
  14   2 -20    1.74    0.33
 -12  -2  20   69.86    3.40
  12  -2 -20   64.74    3.51
 -12   2  20   66.66    3.43
  12   2 -20   69.22    2.99
 -10  -2  20    1.37    0.29
  10  -2 -20    1.03    0.39
 -10   2  20    0.52    0.45
  -8  -2  20   56.51    2.90
   8  -2 -20   59.84    3.37
   8   2 -20   60.64    2.69
  -8   2  20   59.53    3.10
  -6  -2  20    2.58    0.10
   6   2 -20    1.90    0.20
  -4  -2  20   55.18    2.50
   4  -2 -20   58.89    3.37
   4   2 -20   62.88    2.94
  -4   2  20   60.30    3.03
   4   2 -20   61.08    2.63
   2  -2 -20    0.71    0.54
  -2   2  20    0.89    0.25
   0  -2  20   18.10    1.37
   0  -2 -20   17.00    1.72
   0   2  20   18.26    1.31
   0   2  20   19.00    1.47
   0   2 -20   19.67    1.44
   2  -2  20    2.04    0.37
  -2  -2 -20    1.55    0.65
   2   2  20    1.62    0.30
   4  -2  20    5.63    0.88
  -4  -2 -20    4.53    1.01
  -4   2 -20    6.90    0.70
   4   2  20    5.40    0.81
   6  -2  20    3.42    0.69
  -6  -2 -20    2.90    0.82
   6   2  20    2.82    0.65
  -6   2 -20    3.84    0.41
  -8  -2 -20    4.05    0.92
   8  -2  20    6.36    0.98
  -8   2 -20    6.64    0.61
   8   2  20    5.58    0.92
  10  -2  20    1.82    0.48
 -10  -2 -20    1.93    0.56
  10   2  20    1.96    0.50
  15  -3 -20    1.38    0.33
 -15  -3  20    1.10    0.24
 -15   3  20    1.26    0.45
 -13  -3  20   18.58    1.63
  13  -3 -20   21.91    1.99
 -13   3  20   19.34    1.78
  13   3 -20   19.89    1.53
 -11  -3  20    7.24    0.88
  11  -3 -20    7.51    1.21
  11   3 -20    6.80    0.76
 -11   3  20    7.61    1.13
  -9  -3  20   16.37    1.40
   9  -3 -20   14.82    1.62
  -9   3  20   15.86    1.58
   9   3 -20   15.73    1.30
   7  -3 -20   15.17    1.67
   7   3 -20   13.96    1.17
  -7   3  20   13.22    1.41
  -5  -3  20   19.40    1.28
   5  -3 -20   17.21    1.80
   5   3 -20   19.73    1.43
  -5   3  20   18.34    1.58
  -3  -3  20   43.51    2.24
   3  -3 -20   44.88    2.96
  -3   3  20   46.40    2.67
   3   3 -20   48.01    2.42
  -3   3  20   45.42    2.21
  -1  -3  20   11.59    1.03
   1  -3 -20   11.95    1.48
  -1   3  20   14.83    1.09
  -1   3  20   13.07    1.27
   1   3 -20   14.25    1.16
  -1  -3 -20   34.36    2.55
   1  -3  20   37.30    2.16
  -1   3 -20   34.88    2.00
   1   3  20   35.26    2.20
   1   3  20   35.71    2.04
  -3  -3 -20   29.05    2.27
   3  -3  20   28.04    1.95
   3   3  20   32.73    2.04
  -3   3 -20   31.39    1.85
   3   3  20   31.00    1.95
   5  -3  20   39.87    2.42
  -5  -3 -20   41.13    2.74
  -5   3 -20   37.85    2.08
   5   3  20   37.12    2.29
   7  -3  20    8.62    1.13
  -7  -3 -20    8.42    1.23
  -7   3 -20    9.30    0.81
   7   3  20    8.72    0.98
  -9  -3 -20   13.22    1.44
   9  -3  20   11.48    1.26
  -9   3 -20   15.59    1.20
   9   3  20   17.33    1.50
 -12   4  20   12.23    1.40
 -10  -4  20    6.61    0.63
  10  -4 -20    6.36    1.13
  10   4 -20    5.72    0.81
 -10   4  20    5.37    0.97
   8  -4 -20   19.81    1.88
  -8   4  20   20.78    1.83
   8   4 -20   21.59    1.59
   6  -4 -20   10.45    1.28
  -6  -4  20    8.49    0.77
  -6   4  20    9.50    1.13
   6   4 -20    9.50    0.94
  -4  -4  20   30.49    1.84
   4  -4 -20   34.12    2.50
  -4   4  20   33.52    2.28
   4   4 -20   32.49    2.03
   2  -4 -20   13.96    1.53
  -2  -4  20   13.48    1.05
  -2   4  20   11.63    1.23
  -2   4  20   13.13    1.01
   2   4 -20   11.93    1.12
   0  -4 -20   12.96    1.48
   0  -4  20   12.37    1.03
   0   4  20   12.73    1.04
   0   4 -20   13.10    1.17
   0   4  20   14.61    1.36
   2  -4  20    7.07    0.75
  -2  -4 -20    6.47    1.10
   2   4  20    6.62    0.82
   2   4  20    7.19    0.70
  -2   4 -20    7.74    0.79
   4  -4  20    5.00    0.77
  -4  -4 -20    4.43    0.86
  -4   4 -20    3.89    0.41
   4   4  20    4.19    0.44
   4   4  20    2.96    0.54
 -16   0  21    1.01    0.31
 -14   0  21    1.19    0.36
  12   0 -21    2.30    0.15
  -6   0  21    0.55    0.15
   0   0 -21    1.61    0.32
  -2   0 -21    1.05    0.30
   4   0  21    1.72    0.15
  -6   0 -21    1.18    0.34
 -15  -1  21    7.86    0.96
  15  -1 -21    9.01    0.92
 -15   1  21    8.93    1.21
  13  -1 -21    3.77    0.45
 -13  -1  21    4.23    0.77
 -13   1  21    3.63    0.76
  11  -1 -21    8.35    0.97
 -11  -1  21    7.70    0.91
  11   1 -21    8.85    0.78
 -11   1  21    7.70    1.06
   9  -1 -21    2.08    0.46
  -9  -1  21    2.82    0.57
   9   1 -21    4.24    0.35
  -9   1  21    3.40    0.67
   7  -1 -21    9.11    1.11
  -7  -1  21    8.33    0.92
  -7   1  21    8.84    1.02
   7   1 -21   10.16    0.92
   5  -1 -21   11.16    1.32
   5   1 -21   12.34    1.10
  -5   1  21    9.65    1.02
   3  -1 -21    6.30    1.08
  -3  -1  21    6.49    0.61
   3   1 -21    6.62    0.66
  -3   1  21    6.15    0.51
  -3   1  21    6.30    0.74
   1  -1 -21    2.23    0.63
  -1  -1  21    3.15    0.28
  -1   1  21    2.71    0.19
   1   1 -21    3.26    0.34
   1  -1  21    6.30    0.63
  -1  -1 -21    7.88    1.17
  -1   1 -21    5.92    0.68
   1   1  21    5.76    0.54
  -3  -1 -21    3.09    0.74
   3  -1  21    3.44    0.60
  -3   1 -21    3.40    0.41
   3   1  21    3.06    0.30
  -5  -1 -21    9.84    1.31
   5  -1  21    8.82    0.99
  -5   1 -21   11.26    1.05
   5   1  21   11.41    1.01
  -7  -1 -21    2.91    0.70
   7  -1  21    1.76    0.40
   7   1  21    2.98    0.61
  -9  -1 -21    1.27    0.33
   9  -1  21    1.15    0.26
   9   1  21    1.25    0.24
 -14  -2  21    7.85    0.97
  14  -2 -21   11.30    1.23
 -14   2  21    9.30    1.25
  14   2 -21   10.23    0.90
 -12  -2  21    1.21    0.26
  12  -2 -21    1.22    0.35
 -12   2  21    2.06    0.50
 -10  -2  21    4.57    0.74
  10  -2 -21    3.64    0.80
 -10   2  21    3.33    0.68
   8  -2 -21   20.59    1.90
  -8  -2  21   20.16    1.57
  -8   2  21   22.18    1.78
   6  -2 -21    6.35    1.09
  -6   2  21    7.01    0.86
   4  -2 -21    1.54    0.59
  -4   2  21    1.59    0.37
   2  -2 -21    0.81    0.43
  -2  -2  21    1.13    0.09
  -2   2  21    1.24    0.22
   0  -2  21    9.26    0.85
   0  -2 -21   10.60    1.41
   0   2  21   10.32    0.85
   0   2  21   10.25    0.98
   0   2 -21   11.32    1.03
  -2  -2 -21    0.84    0.47
   2   2  21    1.85    0.13
  -4  -2 -21    1.46    0.57
   4  -2  21    1.70    0.30
  -4   2 -21    2.41    0.12
   4   2  21    2.48    0.23
   6  -2  21    1.66    0.28
  -6  -2 -21    1.92    0.61
  -6   2 -21    2.35    0.21
   6   2  21    2.55    0.21
 -11  -3  21    6.91    0.81
  11  -3 -21    6.84    1.11
 -11   3  21    7.24    1.08
  11   3 -21    7.98    0.77
   9  -3 -21   27.83    2.25
  -9   3  21   28.20    2.15
   9   3 -21   28.68    1.85
   7  -3 -21    3.39    0.81
   7   3 -21    3.55    0.35
  -7   3  21    2.44    0.54
   5  -3 -21   27.66    2.28
  -5  -3  21   24.82    1.52
  -5   3  21   27.21    2.03
   5   3 -21   27.80    1.77
   3  -3 -21    1.05    0.55
  -3   3  21    1.49    0.28
  -1  -3  21   27.59    1.72
   1  -3 -21   23.26    2.10
   1   3 -21   23.65    1.59
  -1   3  21   26.97    1.66
  -1   3  21   25.65    1.88
  -1  -3 -21    4.69    1.00
   1  -3  21    4.92    0.46
   1   3  21    6.24    0.50
   1   3  21    5.16    0.76
  -3  -3 -21   18.79    1.83
   3  -3  21   20.49    1.56
   3   3  21   18.31    1.39
   5  -3  21    1.46    0.22
  -5  -3 -21    1.39    0.32
  12   0 -22    4.97    0.43
 -12   0  22    4.50    0.76
 -10   0  22    9.81    1.09
  10   0 -22   10.93    1.02
   8   0 -22    3.79    0.27
  -8   0  22    3.39    0.42
  -6   0  22   43.27    2.52
   6   0 -22   43.66    2.63
   4   0 -22    7.05    0.76
   2   0 -22    4.47    0.41
  -2   0  22    3.55    0.20
   0   0  22    2.09    0.12
   0   0 -22    1.94    0.24
  -2   0 -22   63.16    3.33
   2   0  22   57.85    2.79
   4   0  22    4.85    0.47
  -4   0 -22    4.20    0.75
 -11  -1  22   37.06    2.37
  11  -1 -22   37.39    2.43
 -11   1  22   34.96    2.36
   9  -1 -22   43.83    2.70
  -9  -1  22   41.51    2.51
   9   1 -22   46.63    2.56
  -9   1  22   41.46    2.58
   7  -1 -22   19.98    1.67
  -7  -1  22   18.53    1.47
   7   1 -22   20.67    1.52
  -7   1  22   20.35    1.65
   5  -1 -22   28.68    2.20
  -5   1  22   27.87    1.98
   5   1 -22   29.64    1.97
  -3  -1  22   26.57    1.61
   3  -1 -22   28.90    2.22
   3   1 -22   27.37    1.90
   1  -1 -22   28.36    2.21
  -1  -1  22   26.78    1.69
   1   1 -22   27.80    1.95
  -1   1  22   28.23    1.69
   1  -1  22   20.77    1.43
  -1  -1 -22   18.15    1.73
  -1   1 -22   20.28    1.54
   1   1  22   19.81    1.37
  -3  -1 -22   33.05    2.39
   3  -1  22   30.61    1.94
   3   1  22   34.00    2.01
  -3   1 -22   36.45    2.30
  -5  -1 -22   22.66    1.92
   5  -1  22   16.45    1.39
  -5   1 -22   20.33    1.62
   5   1  22   19.90    1.48
 -10  -2  22   59.95    3.14
  10  -2 -22   64.40    3.52
 -10   2  22   61.24    3.30
   8  -2 -22    3.95    0.80
  -8   2  22    4.54    0.76
   6  -2 -22    6.11    1.01
  -6   2  22    6.18    0.74
   4  -2 -22    3.99    0.84
  -4  -2  22    4.39    0.42
  -4   2  22    4.35    0.70
  -2  -2  22   14.22    1.10
   2  -2 -22   15.93    1.65
  -2   2  22   14.34    1.27
   0  -2 -22    1.10    0.35
   2  -2  22    9.97    0.91
  -2  -2 -22    8.87    1.29
  -2   2 -22   11.57    0.99
   2   2  22   11.04    0.88
   0   0   0    0.00    0.00
;
_shelx_hkl_checksum              12623
_shelx_shelxl_version_number     2014/7
_olex2_submission_special_instructions 'No special instructions were received'
loop_
_space_group_symop_operation_xyz
'x, y, z'
'-x, y, -z+1/2'
'x+1/2, y+1/2, z'
'-x+1/2, y+1/2, -z+1/2'
'-x, -y, -z'
'x, -y, z-1/2'
'-x+1/2, -y+1/2, -z'
'x+1/2, -y+1/2, z-1/2'
loop_
_atom_site_label
_atom_site_type_symbol
_atom_site_fract_x
_atom_site_fract_y
_atom_site_fract_z
_atom_site_U_iso_or_equiv
_atom_site_adp_type
_atom_site_occupancy
_atom_site_site_symmetry_order
_atom_site_calc_flag
Rb1 Rb 0.39320(4) 0.04516(13) 1.24723(5) 0.0369(2) Uani 1 1 d
Rb2 Rb 0.34374(4) 1.01733(13) 1.00762(5) 0.0380(2) Uani 1 1 d
U1 U 0.37829(2) 0.53379(3) 1.12560(2) 0.00884(9) Uani 1 1 d
Si1 Si 0.42203(7) 0.4614(3) 0.83663(11) 0.0099(3) Uani 1 1 d
Si2 Si 0.49589(8) 0.2500(2) 1.07459(10) 0.0080(3) Uani 1 1 d
Si3 Si 0.32089(7) 0.5264(3) 0.91824(10) 0.0091(3) Uani 1 1 d
Si4 Si 0.49297(8) 0.8340(3) 1.10503(10) 0.0088(3) Uani 1 1 d
Si5 Si 0.24811(7) 0.6631(3) 1.17781(11) 0.0091(3) Uani 1 1 d
Si6 Si 0.26224(8) 0.2538(3) 1.14707(10) 0.0084(3) Uani 1 1 d
O1 O 0.3243(2) 0.2780(7) 1.1298(3) 0.0153(10) Uani 1 1 d
O2 O 0.2300(2) 0.4537(7) 1.1442(3) 0.0145(10) Uani 1 1 d
O3 O 0.5073(2) 0.0537(7) 1.1208(3) 0.0171(11) Uani 1 1 d
O4 O 0.2700(2) 0.3787(7) 0.9202(3) 0.0132(10) Uani 1 1 d
O5 O 0.1996(2) 0.7954(7) 1.1359(3) 0.0171(10) Uani 1 1 d
O6 O 0.4327(2) 0.7897(8) 1.1258(3) 0.0189(11) Uani 1 1 d
O7 O 0.5415(2) 0.7287(7) 1.1609(3) 0.0167(10) Uani 1 1 d
O8 O 0.3091(2) 0.7156(7) 1.1620(3) 0.0168(10) Uani 1 1 d
O9 O 0.3426(2) 0.5951(7) 1.0036(3) 0.0169(10) Uani 1 1 d
O10 O 0.2599(2) 0.1547(8) 1.2309(3) 0.0189(11) Uani 1 1 d
O11 O 0.4078(2) 0.4682(8) 1.2500(3) 0.0196(11) Uani 1 1 d
O12 O 0.3668(2) 0.4115(8) 0.8768(3) 0.0175(11) Uani 1 1 d
O13 O 0.4986(3) 0.7865(8) 1.0157(3) 0.0261(13) Uani 1 1 d
O14 O 0.4370(2) 0.3286(9) 1.0859(4) 0.0321(15) Uani 1 1 d
O15 O 0.5461(3) 0.3806(8) 1.1092(4) 0.0272(13) Uani 1 1 d
loop_
_atom_site_aniso_label
_atom_site_aniso_U_11
_atom_site_aniso_U_22
_atom_site_aniso_U_33
_atom_site_aniso_U_23
_atom_site_aniso_U_13
_atom_site_aniso_U_12
Rb1 0.0470(5) 0.0287(4) 0.0311(5) -0.0035(4) -0.0117(4) 0.0174(4)
Rb2 0.0524(6) 0.0292(5) 0.0286(4) -0.0093(4) -0.0111(4) 0.0137(4)
U1 0.00719(12) 0.00988(12) 0.00947(12) -0.00090(9) 0.00109(8) -0.00129(9)
Si1 0.0089(8) 0.0090(8) 0.0113(8) -0.0004(7) -0.0008(6) -0.0005(7)
Si2 0.0122(8) 0.0068(8) 0.0051(8) -0.0011(6) 0.0019(6) -0.0002(7)
Si3 0.0078(8) 0.0090(8) 0.0099(8) 0.0002(7) -0.0010(6) 0.0000(7)
Si4 0.0105(8) 0.0081(8) 0.0077(8) -0.0003(6) 0.0008(6) -0.0004(7)
Si5 0.0082(8) 0.0087(8) 0.0105(8) -0.0003(6) 0.0010(6) 0.0013(6)
Si6 0.0111(8) 0.0082(8) 0.0061(8) -0.0006(6) 0.0017(6) -0.0024(7)
O1 0.010(2) 0.017(2) 0.019(3) -0.001(2) 0.0021(19) -0.0052(19)
O2 0.015(2) 0.010(2) 0.018(2) -0.0055(19) -0.0012(19) 0.0002(19)
O3 0.027(3) 0.007(2) 0.016(2) 0.0020(19) -0.001(2) -0.005(2)
O4 0.015(2) 0.012(2) 0.012(2) -0.0029(18) -0.0005(18) -0.0060(19)
O5 0.015(2) 0.011(2) 0.024(3) 0.007(2) -0.003(2) 0.004(2)
O6 0.014(2) 0.016(3) 0.027(3) 0.001(2) 0.003(2) -0.002(2)
O7 0.015(2) 0.017(3) 0.017(3) 0.001(2) -0.001(2) 0.006(2)
O8 0.011(2) 0.016(2) 0.025(3) -0.001(2) 0.008(2) 0.000(2)
O9 0.022(3) 0.016(3) 0.012(2) -0.0036(19) -0.002(2) -0.002(2)
O10 0.029(3) 0.016(3) 0.012(2) 0.001(2) 0.002(2) 0.002(2)
O11 0.025(3) 0.022(3) 0.010(2) -0.004(2) -0.002(2) -0.003(2)
O12 0.012(2) 0.016(3) 0.026(3) -0.002(2) 0.007(2) 0.000(2)
O13 0.050(4) 0.022(3) 0.007(2) -0.002(2) 0.008(2) 0.001(3)
O14 0.019(3) 0.032(3) 0.046(4) -0.001(3) 0.006(3) 0.012(3)
O15 0.030(3) 0.022(3) 0.027(3) -0.006(2) -0.006(2) -0.016(3)
loop_
_atom_type_symbol
_atom_type_description
_atom_type_scat_dispersion_real
_atom_type_scat_dispersion_imag
_atom_type_scat_source
Rb Rb -0.9393 2.9676 'International Tables Vol C Tables 4.2.6.8 and 6.1.1.4'
U U -9.6767 9.6646 'International Tables Vol C Tables 4.2.6.8 and 6.1.1.4'
Si Si 0.0817 0.0704 'International Tables Vol C Tables 4.2.6.8 and 6.1.1.4'
O O 0.0106 0.0060 'International Tables Vol C Tables 4.2.6.8 and 6.1.1.4'
loop_
_geom_angle_atom_site_label_1
_geom_angle_atom_site_label_2
_geom_angle_atom_site_label_3
_geom_angle
_geom_angle_site_symmetry_1
_geom_angle_site_symmetry_3
Si1 Rb1 Si5 78.29(4) 6_566 4_547
Si4 Rb1 Si1 90.71(4) 2_647 6_566
Si4 Rb1 Si5 117.34(5) 2_647 4_547
Si6 Rb1 Si1 85.67(4) . 6_566
Si6 Rb1 Si4 165.48(5) . 2_647
Si6 Rb1 Si5 48.15(4) . 4_547
O1 Rb1 Si1 79.74(11) . 6_566
O1 Rb1 Si4 166.70(11) . 2_647
O1 Rb1 Si5 70.00(10) . 4_547
O1 Rb1 Si6 23.91(10) . .
O1 Rb1 O3 144.07(14) . 2_657
O1 Rb1 O6 93.85(15) . 1_545
O1 Rb1 O7 166.13(14) . 2_647
O1 Rb1 O8 80.22(14) . 1_545
O1 Rb1 O10 49.06(13) . .
O1 Rb1 O11 60.69(14) . .
O1 Rb1 O15 104.12(13) . 2_657
O3 Rb1 Si1 66.72(10) 2_657 6_566
O3 Rb1 Si4 24.28(10) 2_657 2_647
O3 Rb1 Si5 113.07(11) 2_657 4_547
O3 Rb1 Si6 150.64(10) 2_657 .
O3 Rb1 O8 135.68(14) 2_657 1_545
O3 Rb1 O10 136.36(13) 2_657 .
O3 Rb1 O15 43.34(13) 2_657 2_657
O6 Rb1 Si1 140.13(11) 1_545 6_566
O6 Rb1 Si4 87.55(11) 1_545 2_647
O6 Rb1 Si5 136.51(11) 1_545 4_547
O6 Rb1 Si6 104.20(11) 1_545 .
O6 Rb1 O3 103.50(14) 1_545 2_657
O6 Rb1 O7 74.07(15) 1_545 2_647
O6 Rb1 O8 59.91(13) 1_545 1_545
O6 Rb1 O10 118.25(14) 1_545 .
O6 Rb1 O11 124.41(15) 1_545 .
O6 Rb1 O15 137.23(14) 1_545 2_657
O7 Rb1 Si1 113.88(10) 2_647 6_566
O7 Rb1 Si4 24.01(10) 2_647 2_647
O7 Rb1 Si5 114.04(10) 2_647 4_547
O7 Rb1 Si6 152.15(10) 2_647 .
O7 Rb1 O3 48.22(13) 2_647 2_657
O7 Rb1 O8 87.67(14) 2_647 1_545
O7 Rb1 O10 130.86(14) 2_647 .
O7 Rb1 O15 89.54(13) 2_647 2_657
O8 Rb1 Si1 152.54(10) 1_545 6_566
O8 Rb1 Si4 111.68(10) 1_545 2_647
O8 Rb1 Si5 77.32(9) 1_545 4_547
O8 Rb1 Si6 68.65(10) 1_545 .
O8 Rb1 O15 160.51(14) 1_545 2_657
O10 Rb1 Si1 87.00(10) . 6_566
O10 Rb1 Si4 140.35(10) . 2_647
O10 Rb1 Si5 24.01(9) . 4_547
O10 Rb1 Si6 25.52(9) . .
O10 Rb1 O8 65.66(13) . 1_545
O10 Rb1 O15 102.49(13) . 2_657
O11 Rb1 Si1 22.39(10) . 6_566
O11 Rb1 Si4 107.84(11) . 2_647
O11 Rb1 Si5 83.47(11) . 4_547
O11 Rb1 Si6 72.74(11) . .
O11 Rb1 O3 83.69(14) . 2_657
O11 Rb1 O7 131.85(14) . 2_647
O11 Rb1 O8 140.45(14) . 1_545
O11 Rb1 O10 83.00(14) . .
O11 Rb1 O15 45.25(13) . 2_657
O15 Rb1 Si1 24.39(9) 2_657 6_566
O15 Rb1 Si4 66.76(9) 2_657 2_647
O15 Rb1 Si5 86.26(10) 2_657 4_547
O15 Rb1 Si6 107.78(9) 2_657 .
Si6 Rb2 Si3 93.30(4) 7_567 .
Si6 Rb2 Si3 127.85(5) 1_565 .
Si6 Rb2 Si6 83.61(4) 1_565 7_567
O1 Rb2 Si3 148.32(11) 1_565 .
O1 Rb2 Si6 94.38(11) 1_565 7_567
O1 Rb2 Si6 24.02(10) 1_565 1_565
O1 Rb2 O2 117.28(14) 1_565 7_567
O1 Rb2 O4 49.77(13) 1_565 7_567
O1 Rb2 O4 73.10(13) 1_565 1_565
O1 Rb2 O5 152.64(14) 1_565 7_567
O1 Rb2 O6 91.21(14) 1_565 .
O1 Rb2 O8 77.00(14) 1_565 .
O1 Rb2 O9 131.22(15) 1_565 .
O1 Rb2 O14 55.92(14) 1_565 1_565
O2 Rb2 Si3 70.76(10) 7_567 .
O2 Rb2 Si6 23.63(10) 7_567 7_567
O2 Rb2 Si6 102.94(10) 7_567 1_565
O2 Rb2 O4 82.55(13) 7_567 7_567
O2 Rb2 O4 47.96(12) 7_567 1_565
O2 Rb2 O5 46.41(13) 7_567 7_567
O2 Rb2 O6 150.61(14) 7_567 .
O2 Rb2 O8 121.17(14) 7_567 .
O2 Rb2 O9 92.63(14) 7_567 .
O2 Rb2 O14 127.77(16) 7_567 1_565
O4 Rb2 Si3 118.24(9) 1_565 .
O4 Rb2 Si3 105.83(9) 7_567 .
O4 Rb2 Si6 25.99(9) 7_567 1_565
O4 Rb2 Si6 69.18(9) 1_565 1_565
O4 Rb2 Si6 68.73(9) 7_567 7_567
O4 Rb2 Si6 24.94(8) 1_565 7_567
O4 Rb2 O4 64.33(14) 7_567 1_565
O4 Rb2 O5 94.35(12) 1_565 7_567
O4 Rb2 O5 102.95(13) 7_567 7_567
O4 Rb2 O8 64.50(12) 7_567 .
O4 Rb2 O8 128.72(12) 1_565 .
O4 Rb2 O14 105.12(14) 7_567 1_565
O5 Rb2 Si3 24.91(9) 7_567 .
O5 Rb2 Si6 128.88(10) 7_567 1_565
O5 Rb2 Si6 69.65(9) 7_567 7_567
O5 Rb2 O8 93.67(13) 7_567 .
O6 Rb2 Si3 81.18(10) . .
O6 Rb2 Si6 174.24(11) . 7_567
O6 Rb2 Si6 101.06(10) . 1_565
O6 Rb2 O4 114.27(13) . 7_567
O6 Rb2 O4 160.50(13) . 1_565
O6 Rb2 O5 104.66(13) . 7_567
O6 Rb2 O8 55.33(13) . .
O6 Rb2 O14 73.11(15) . 1_565
O8 Rb2 Si3 73.39(9) . .
O8 Rb2 Si6 66.62(9) . 1_565
O8 Rb2 Si6 124.74(9) . 7_567
O9 Rb2 Si3 22.79(10) . .
O9 Rb2 Si6 113.93(10) . 7_567
O9 Rb2 Si6 117.86(11) . 1_565
O9 Rb2 O4 138.38(13) . 1_565
O9 Rb2 O4 103.37(14) . 7_567
O9 Rb2 O5 47.61(13) . 7_567
O9 Rb2 O6 60.96(14) . .
O9 Rb2 O8 54.28(13) . .
O9 Rb2 O14 132.72(15) . 1_565
O14 Rb2 Si3 145.81(11) 1_565 .
O14 Rb2 Si6 111.28(12) 1_565 7_567
O14 Rb2 Si6 79.90(11) 1_565 1_565
O14 Rb2 O4 88.28(14) 1_565 1_565
O14 Rb2 O5 149.95(15) 1_565 7_567
O14 Rb2 O8 107.92(15) 1_565 .
Rb1 U1 Rb1 119.49(2) . 1_565
Rb1 U1 Rb2 60.055(19) . 1_545
Rb1 U1 Rb2 173.37(2) 1_565 1_545
Rb2 U1 Rb1 173.07(2) . .
Rb2 U1 Rb1 60.567(18) . 1_565
Rb2 U1 Rb2 118.97(2) . 1_545
O1 U1 Rb1 134.72(13) . 1_565
O1 U1 Rb1 45.90(13) . .
O1 U1 Rb2 39.57(13) . 1_545
O1 U1 Rb2 128.42(13) . .
O1 U1 O6 178.09(19) . .
O1 U1 O8 90.09(19) . .
O6 U1 Rb1 43.95(14) . 1_565
O6 U1 Rb1 132.73(14) . .
O6 U1 Rb2 141.88(14) . 1_545
O6 U1 Rb2 52.82(14) . .
O6 U1 O8 89.44(19) . .
O8 U1 Rb1 111.84(14) . .
O8 U1 Rb1 52.30(14) . 1_565
O8 U1 Rb2 62.24(14) . .
O8 U1 Rb2 121.20(14) . 1_545
O9 U1 Rb1 131.16(14) . .
O9 U1 Rb1 107.51(14) . 1_565
O9 U1 Rb2 47.27(14) . .
O9 U1 Rb2 71.70(14) . 1_545
O9 U1 O1 91.56(19) . .
O9 U1 O6 90.3(2) . .
O9 U1 O8 86.0(2) . .
O9 U1 O11 175.8(2) . .
O11 U1 Rb1 47.54(15) . .
O11 U1 Rb1 72.83(15) . 1_565
O11 U1 Rb2 133.37(15) . .
O11 U1 Rb2 107.47(15) . 1_545
O11 U1 O1 85.4(2) . .
O11 U1 O6 92.7(2) . .
O11 U1 O8 91.1(2) . .
O14 U1 Rb1 135.21(18) . 1_565
O14 U1 Rb1 64.45(18) . .
O14 U1 Rb2 51.26(18) . 1_545
O14 U1 Rb2 120.94(18) . .
O14 U1 O1 82.7(2) . .
O14 U1 O6 97.9(2) . .
O14 U1 O8 172.4(2) . .
O14 U1 O9 91.8(2) . .
O14 U1 O11 90.7(2) . .
Rb1 Si1 Rb1 131.37(5) 6_565 6
O7 Si1 Rb1 147.7(2) 5_667 6_565
O7 Si1 Rb1 46.77(19) 5_667 6
O7 Si1 O12 106.4(3) 5_667 .
O11 Si1 Rb1 47.5(2) 6_565 6_565
O11 Si1 Rb1 85.1(2) 6_565 6
O11 Si1 O7 110.5(3) 6_565 5_667
O11 Si1 O12 112.0(3) 6_565 .
O11 Si1 O15 111.3(3) 6_565 5_667
O12 Si1 Rb1 81.3(2) . 6
O12 Si1 Rb1 104.4(2) . 6_565
O15 Si1 Rb1 69.1(2) 5_667 6_565
O15 Si1 Rb1 156.9(2) 5_667 6
O15 Si1 O7 110.5(3) 5_667 5_667
O15 Si1 O12 105.9(3) 5_667 .
Rb2 Si2 Rb1 123.83(5) 1_545 2_657
O3 Si2 Rb1 42.74(19) . 2_657
O3 Si2 Rb2 83.3(2) . 1_545
O13 Si2 Rb1 123.0(2) 5_667 2_657
O13 Si2 Rb2 80.7(3) 5_667 1_545
O13 Si2 O3 107.9(3) 5_667 .
O14 Si2 Rb1 124.2(3) . 2_657
O14 Si2 Rb2 51.2(3) . 1_545
O14 Si2 O3 110.7(3) . .
O14 Si2 O13 111.3(4) . 5_667
O14 Si2 O15 114.4(4) . .
O15 Si2 Rb1 61.6(2) . 2_657
O15 Si2 Rb2 165.6(3) . 1_545
O15 Si2 O3 104.1(3) . .
O15 Si2 O13 108.0(3) . 5_667
Rb2 Si3 Rb2 132.46(5) . 1_545
O4 Si3 Rb2 57.97(19) . 1_545
O4 Si3 Rb2 131.02(19) . .
O5 Si3 Rb2 62.2(2) 7_567 .
O5 Si3 Rb2 164.5(2) 7_567 1_545
O5 Si3 O4 109.8(3) 7_567 .
O9 Si3 Rb2 84.7(2) . 1_545
O9 Si3 Rb2 47.7(2) . .
O9 Si3 O4 110.6(3) . .
O9 Si3 O5 109.7(3) . 7_567
O9 Si3 O12 113.4(3) . .
O12 Si3 Rb2 124.4(2) . .
O12 Si3 Rb2 68.5(2) . 1_545
O12 Si3 O4 104.3(3) . .
O12 Si3 O5 109.0(3) . 7_567
Rb1 Si4 Rb1 83.49(4) 2_667 1_565
Rb1 Si4 Rb2 62.89(3) 1_565 .
Rb1 Si4 Rb2 133.66(5) 2_667 .
O3 Si4 Rb1 70.3(2) 1_565 1_565
O3 Si4 Rb1 52.11(19) 1_565 2_667
O3 Si4 Rb2 85.4(2) 1_565 .
O6 Si4 Rb1 122.9(2) . 2_667
O6 Si4 Rb1 44.1(2) . 1_565
O6 Si4 Rb2 49.2(2) . .
O6 Si4 O3 110.0(3) . 1_565
O6 Si4 O7 113.8(3) . .
O6 Si4 O13 111.3(3) . .
O7 Si4 Rb1 105.6(2) . 1_565
O7 Si4 Rb1 51.0(2) . 2_667
O7 Si4 Rb2 163.0(2) . .
O7 Si4 O3 102.9(3) . 1_565
O13 Si4 Rb1 143.9(3) . 1_565
O13 Si4 Rb1 125.8(3) . 2_667
O13 Si4 Rb2 81.0(2) . .
O13 Si4 O3 108.9(3) . 1_565
O13 Si4 O7 109.5(3) . .
Rb2 Si5 Rb1 76.01(4) 7_567 4_557
O2 Si5 Rb1 73.16(19) . 4_557
O2 Si5 Rb2 46.10(18) . 7_567
O5 Si5 Rb1 69.4(2) . 4_557
O5 Si5 Rb2 60.6(2) . 7_567
O5 Si5 O2 102.9(3) . .
O8 Si5 Rb1 170.6(2) . 4_557
O8 Si5 Rb2 113.3(2) . 7_567
O8 Si5 O2 111.9(3) . .
O8 Si5 O5 115.7(3) . .
O8 Si5 O10 113.7(3) . 4_557
O10 Si5 Rb1 56.9(2) 4_557 4_557
O10 Si5 Rb2 131.7(2) 4_557 7_567
O10 Si5 O2 104.5(3) 4_557 .
O10 Si5 O5 106.9(3) 4_557 .
Rb1 Si6 Rb2 162.07(6) . 7_567
Rb2 Si6 Rb1 67.98(4) 1_545 .
Rb2 Si6 Rb2 96.39(4) 1_545 7_567
O1 Si6 Rb1 49.6(2) . .
O1 Si6 Rb2 113.5(2) . 7_567
O1 Si6 Rb2 48.0(2) . 1_545
O1 Si6 O2 111.5(3) . .
O1 Si6 O4 108.6(3) . 7_557
O1 Si6 O10 110.6(3) . .
O2 Si6 Rb1 138.04(19) . .
O2 Si6 Rb2 132.4(2) . 1_545
O2 Si6 Rb2 47.52(18) . 7_567
O4 Si6 Rb1 114.1(2) 7_557 .
O4 Si6 Rb2 61.37(19) 7_557 1_545
O4 Si6 Rb2 61.77(19) 7_557 7_567
O4 Si6 O2 107.5(3) 7_557 .
O10 Si6 Rb1 62.1(2) . .
O10 Si6 Rb2 135.6(2) . 7_567
O10 Si6 Rb2 117.3(2) . 1_545
O10 Si6 O2 110.1(3) . .
O10 Si6 O4 108.5(3) . 7_557
Rb2 O1 Rb1 90.40(15) 1_545 .
U1 O1 Rb1 101.10(17) . .
U1 O1 Rb2 110.63(19) . 1_545
Si6 O1 Rb1 106.5(2) . .
Si6 O1 Rb2 108.0(2) . 1_545
Si6 O1 U1 131.8(3) . .
Si5 O2 Rb2 110.6(2) . 7_567
Si6 O2 Rb2 108.8(2) . 7_567
Si6 O2 Si5 132.8(3) . .
Si2 O3 Rb1 116.6(2) . 2_657
Si2 O3 Si4 137.3(3) . 1_545
Si4 O3 Rb1 103.6(2) 1_545 2_657
Rb2 O4 Rb2 115.67(14) 7_567 1_545
Si3 O4 Rb2 122.9(2) . 7_567
Si3 O4 Rb2 98.0(2) . 1_545
Si6 O4 Rb2 93.3(2) 7_557 1_545
Si6 O4 Rb2 92.6(2) 7_557 7_567
Si6 O4 Si3 131.8(3) 7_557 .
Si3 O5 Rb2 92.9(2) 7_567 7_567
Si5 O5 Rb2 95.0(2) . 7_567
Si5 O5 Si3 151.1(4) . 7_567
Rb1 O6 Rb2 83.51(13) 1_565 .
U1 O6 Rb1 104.79(19) . 1_565
U1 O6 Rb2 93.33(17) . .
Si4 O6 Rb1 114.6(3) . 1_565
Si4 O6 Rb2 109.0(3) . .
Si4 O6 U1 136.2(3) . .
Si1 O7 Rb1 110.8(2) 5_667 2_667
Si4 O7 Rb1 105.0(2) . 2_667
Si4 O7 Si1 139.8(4) . 5_667
Rb1 O8 Rb2 73.59(10) 1_565 .
U1 O8 Rb1 95.13(16) . 1_565
U1 O8 Rb2 83.80(14) . .
Si5 O8 Rb1 128.9(3) . 1_565
Si5 O8 Rb2 125.1(3) . .
Si5 O8 U1 130.6(3) . .
U1 O9 Rb2 100.02(17) . .
Si3 O9 Rb2 109.5(3) . .
Si3 O9 U1 150.4(3) . .
Si5 O10 Rb1 99.1(2) 4_547 .
Si5 O10 Si6 151.5(4) 4_547 .
Si6 O10 Rb1 92.4(2) . .
U1 O11 Rb1 99.80(18) . .
Si1 O11 Rb1 110.1(3) 6_566 .
Si1 O11 U1 148.7(4) 6_566 .
Si3 O12 Si1 136.6(4) . .
Si4 O13 Si2 177.1(4) . 5_667
U1 O14 Rb2 97.7(2) . 1_545
Si2 O14 Rb2 107.3(3) . 1_545
Si2 O14 U1 155.1(4) . .
Si1 O15 Rb1 86.5(2) 5_667 2_657
Si2 O15 Rb1 95.7(3) . 2_657
Si2 O15 Si1 157.6(5) . 5_667
loop_
_geom_bond_atom_site_label_1
_geom_bond_atom_site_label_2
_geom_bond_distance
_geom_bond_site_symmetry_2
Rb1 Si1 3.889(2) 6_566
Rb1 Si4 3.849(2) 2_647
Rb1 Si5 3.916(2) 4_547
Rb1 Si6 3.756(2) .
Rb1 O1 2.984(5) .
Rb1 O3 3.126(5) 2_657
Rb1 O6 3.027(6) 1_545
Rb1 O7 3.097(5) 2_647
Rb1 O8 3.351(5) 1_545
Rb1 O10 3.323(6) .
Rb1 O11 3.052(6) .
Rb1 O15 3.639(6) 2_657
Rb2 Si3 3.855(2) .
Rb2 Si6 3.855(2) 7_567
Rb2 Si6 3.711(2) 1_565
Rb2 O1 2.899(5) 1_565
Rb2 O2 3.004(5) 7_567
Rb2 O4 3.402(5) 1_565
Rb2 O4 3.260(5) 7_567
Rb2 O5 3.414(6) 7_567
Rb2 O6 3.237(6) .
Rb2 O8 3.611(5) .
Rb2 O9 3.026(5) .
Rb2 O14 3.353(7) 1_565
U1 Rb1 4.2176(10) 1_565
U1 Rb2 4.2596(10) 1_545
U1 O1 2.262(5) .
U1 O6 2.264(5) .
U1 O8 2.279(5) .
U1 O9 2.226(5) .
U1 O11 2.233(5) .
U1 O14 2.217(6) .
Si1 Rb1 3.889(2) 6_565
Si1 Rb1 3.974(2) 6
Si1 O7 1.624(5) 5_667
Si1 O11 1.578(5) 6_565
Si1 O12 1.627(5) .
Si1 O15 1.609(6) 5_667
Si2 Rb1 4.117(2) 2_657
Si2 Rb2 4.106(2) 1_545
Si2 O3 1.624(5) .
Si2 O13 1.604(5) 5_667
Si2 O14 1.577(6) .
Si2 O15 1.599(6) .
Si3 Rb2 3.974(2) 1_545
Si3 O4 1.635(5) .
Si3 O5 1.626(5) 7_567
Si3 O9 1.584(5) .
Si3 O12 1.624(5) .
Si4 Rb1 3.959(2) 1_565
Si4 Rb1 3.849(2) 2_667
Si4 O3 1.629(5) 1_565
Si4 O6 1.585(5) .
Si4 O7 1.622(5) .
Si4 O13 1.601(5) .
Si5 Rb1 3.916(2) 4_557
Si5 Rb2 3.903(2) 7_567
Si5 O2 1.650(5) .
Si5 O5 1.618(5) .
Si5 O8 1.589(5) .
Si5 O10 1.613(5) 4_557
Si6 Rb2 3.855(2) 7_567
Si6 Rb2 3.710(2) 1_545
Si6 O1 1.588(5) .
Si6 O2 1.632(5) .
Si6 O4 1.628(5) 7_557
Si6 O10 1.620(5) .
O1 Rb2 2.899(5) 1_545
O2 Rb2 3.004(5) 7_567
O3 Rb1 3.125(5) 2_657
O3 Si4 1.629(5) 1_545
O4 Rb2 3.260(5) 7_567
O4 Rb2 3.402(5) 1_545
O4 Si6 1.628(5) 7_557
O5 Rb2 3.414(6) 7_567
O5 Si3 1.626(5) 7_567
O6 Rb1 3.027(6) 1_565
O7 Rb1 3.096(5) 2_667
O7 Si1 1.624(5) 5_667
O8 Rb1 3.351(5) 1_565
O10 Si5 1.613(5) 4_547
O11 Si1 1.578(5) 6_566
O13 Si2 1.604(5) 5_667
O14 Rb2 3.352(7) 1_545
O15 Rb1 3.639(6) 2_657
O15 Si1 1.609(6) 5_667
